196

C 26.749995 -0.178083 -0.360566
C 27.461788 1.173248 -0.668482
C 26.826415 2.365051 -0.933276
C 27.837272 3.336989 -1.141689
C 29.058928 2.704705 -0.998925
N 28.817108 1.386436 -0.701465
C 30.487069 3.383107 -1.124021
C 30.524154 4.801805 -1.555279
C 30.681526 5.835915 -0.624067
C 30.672530 7.166659 -1.053869
C 30.861172 8.240328 -0.051100
O 30.450881 9.445297 -0.500951
O 31.323424 8.132354 1.068438
C 30.506009 7.464488 -2.415332
C 30.355079 6.434529 -3.344626
C 30.364473 5.108179 -2.914432
C 31.621000 2.680406 -0.860519
C 32.929724 3.300216 -0.913315
C 33.835673 2.394168 -0.565129
N 31.820903 1.370351 -0.508801
C 33.158855 1.136459 -0.313769
C 33.840907 0.011186 0.030727
C 33.092413 -1.381059 0.204389
C 33.698882 -2.622874 0.226134
C 32.683735 -3.594131 0.396687
C 31.480228 -2.923933 0.461226
N 31.735839 -1.576779 0.327792
C 30.054635 -3.597970 0.633345
C 30.005893 -5.022166 1.033791
C 30.021867 -6.028986 0.059067
C 29.987156 -7.373352 0.429296
C 29.930482 -7.717541 1.780576
C 29.912198 -6.716309 2.764048
C 29.842365 -7.132009 4.184164
O 30.022783 -6.111852 5.041418
O 29.661718 -8.269233 4.586378
C 29.952949 -5.369589 2.389462
C 28.924475 -2.878288 0.414430
C 27.596333 -3.456329 0.531436
C 26.704988 -2.512763 0.248401
C 27.426468 -1.299346 -0.049661
N 28.755475 -1.568448 0.062490
H 25.666375 -0.198158 -0.393343
H 25.758148 2.518994 -0.967700
H 27.689689 4.382068 -1.368057
H 29.530145 0.680068 -0.537024
H 30.806933 5.586041 0.427815
H 30.626044 10.021423 0.270793
H 30.502629 8.494807 -2.759100
H 30.231633 6.656080 -4.400367
H 30.245756 4.294335 -3.629432
H 33.147617 4.320945 -1.170248
H 34.892935 2.579761 -0.512386
H 34.756716 -2.817515 0.128670
H 32.818928 -4.664220 0.454833
H 31.022621 -0.852641 0.274215
H 30.060953 -5.745192 -0.990944
H 30.003832 -8.144411 -0.336158
H 29.900658 -8.766084 2.067021
H 29.951023 -6.510562 5.929494
H 29.936195 -4.572874 3.131699
H 27.366471 -4.473023 0.796634
H 25.636356 -2.625935 0.244947
C 64.570513 0.023691 -0.403757
C 63.858721 -1.335276 -0.131509
C 64.494094 -2.531040 0.114779
C 63.483236 -3.503126 0.322503
C 62.261580 -2.867805 0.193924
N 62.503400 -1.543284 -0.074331
C 60.833440 -3.537970 0.357501
C 60.796354 -5.008891 0.544794
C 60.638983 -5.571182 1.817730
C 60.647978 -6.961260 1.970346
C 60.459337 -7.530351 3.324763
O 60.869627 -8.813883 3.407600
O 59.997084 -6.973543 4.301998
C 60.814500 -7.790322 0.850105
C 60.965429 -7.231033 -0.419383
C 60.956035 -5.844803 -0.569843
C 59.699509 -2.788977 0.310254
C 58.390784 -3.376087 0.515811
C 57.484835 -2.406901 0.462585
N 59.499605 -1.449740 0.094866
C 58.161653 -1.156504 0.177061
C 57.479602 0.011186 0.030727
C 58.228095 1.352523 -0.380761
C 57.621626 2.494422 -0.869271
C 58.636773 3.450388 -1.111260
C 59.840281 2.865338 -0.778023
N 59.584669 1.581609 -0.348291
C 61.265873 3.550769 -0.896910
C 61.314615 5.014093 -1.114566
C 61.298642 5.533674 -2.416030
C 61.333353 6.911794 -2.628575
C 61.390027 7.778984 -1.536602
C 61.408310 7.268083 -0.229443
C 61.478144 8.228697 0.896059
O 61.297725 7.648861 2.095807
O 61.658790 9.430919 0.797492
C 61.367560 5.886032 -0.019910
C 62.396033 2.804536 -0.802033
C 63.724176 3.379822 -0.931907
C 64.615520 2.403076 -0.803881
C 63.894040 1.173972 -0.579098
N 62.565033 1.465404 -0.586935
H 65.654133 0.028589 -0.441881
H 65.562360 -2.685586 0.146389
H 63.630819 -4.549293 0.543785
H 61.790364 -0.831498 -0.213459
H 60.513575 -4.912604 2.675150
H 60.694464 -9.023602 4.347562
H 60.817879 -8.871082 0.958233
H 61.088875 -7.865349 -1.291917
H 61.074752 -5.394968 -1.555345
H 58.172892 -4.412551 0.699240
H 56.427573 -2.554639 0.586681
H 56.563792 2.632109 -1.037874
H 58.501580 4.450510 -1.496261
H 60.297887 0.898993 -0.100739
H 61.259555 4.844914 -3.257857
H 61.316676 7.301939 -3.642596
H 61.419850 8.852906 -1.704491
H 61.369485 8.376177 2.742846
H 61.384314 5.462975 0.983431
H 63.954037 4.415988 -1.106144
H 65.684153 2.504916 -0.853360
C 37.760145 0.023918 0.033252
C 36.507874 0.004737 0.028903
C 39.073813 0.023152 0.035184
C 40.576947 0.004737 0.028903
C 52.081902 0.023918 0.033252
C 50.829631 0.004737 0.028903
C 53.395570 0.023152 0.035184
C 54.898704 0.004737 0.028903
C 42.005819 -0.023345 -0.066174
C 42.801567 1.343185 -0.163620
C 42.301087 2.562692 -0.572340
C 43.339909 3.517601 -0.425103
C 44.443155 2.849668 0.063118
N 44.128580 1.516417 0.143998
C 45.829205 3.494905 0.470616
C 45.810849 4.886121 0.975036
C 46.189863 5.953979 0.151505
C 46.157221 7.262986 0.643895
C 46.562587 8.369677 -0.255806
O 46.534392 9.574580 0.350253
O 46.896336 8.286209 -1.423019
C 45.742484 7.502989 1.962834
C 45.361830 6.440391 2.783362
C 45.395253 5.137308 2.289022
C 46.966595 2.753430 0.425450
C 48.251859 3.278344 0.838305
C 49.161228 2.320567 0.692758
N 47.177434 1.458211 0.042471
C 48.500840 1.136211 0.181885
C 49.164273 -0.023345 -0.066174
C 48.369036 -1.281364 -0.609643
C 48.872066 -2.299323 -1.393995
C 47.834192 -3.250096 -1.570253
C 46.728255 -2.779498 -0.893673
N 47.041708 -1.546856 -0.378043
C 45.339752 -3.521867 -0.729993
C 45.347856 -5.001684 -0.775681
C 44.911745 -5.674010 -1.925791
C 44.931457 -7.067207 -1.981055
C 45.392224 -7.796742 -0.884397
C 45.834063 -7.133852 0.270358
C 46.315495 -7.955803 1.405950
O 46.706318 -7.222836 2.462040
O 46.371858 -9.173750 1.431998
C 45.812447 -5.736003 0.322311
C 44.204045 -2.806852 -0.517481
C 42.916937 -3.438241 -0.309752
C 42.008124 -2.486257 -0.127430
C 42.670132 -1.199989 -0.209626
N 43.995441 -1.458282 -0.436672
H 41.295834 2.751151 -0.917513
H 43.282862 4.575458 -0.632526
H 44.786127 0.771091 0.354098
H 46.510909 5.745731 -0.867732
H 46.826763 10.171007 -0.369156
H 45.711424 8.513464 2.359391
H 45.039305 6.619503 3.804360
H 45.101051 4.300095 2.919750
H 48.447385 4.269530 1.206007
H 50.205778 2.425001 0.923127
H 49.878597 -2.363833 -1.778673
H 47.893479 -4.181553 -2.112756
H 46.383156 -0.912565 0.064737
H 44.553484 -5.091878 -2.773231
H 44.587739 -7.575643 -2.876440
H 45.406404 -8.882597 -0.930925
H 46.997875 -7.876326 3.126058
H 46.150943 -5.197193 1.204846
H 42.720547 -4.495255 -0.294653
H 40.963028 -2.660798 0.052373
