 xtb: 6.5.1 (b24c23e)
          07292222263D

264303  0     0  0            999 V2000
   50.1740   -0.0933   -0.0026 Fe  0  0  0  0  0  0  0  0  0  0  0  0
   46.7878   -0.1586    0.0250 C   0  0  0  0  0  0  0  0  0  0  0  0
   47.4471   -0.3162    1.2265 C   0  0  0  0  0  0  0  0  0  0  0  0
   46.7790   -0.5207    2.4764 C   0  0  0  0  0  0  0  0  0  0  0  0
   47.7347   -0.5057    3.4347 C   0  0  0  0  0  0  0  0  0  0  0  0
   48.9884   -0.3012    2.7677 C   0  0  0  0  0  0  0  0  0  0  0  0
   48.7994   -0.2005    1.4154 N   0  0  0  0  0  0  0  0  0  0  0  0
   50.1988   -0.1188    3.4259 C   0  0  0  0  0  0  0  0  0  0  0  0
   51.3979    0.0853    2.7577 C   0  0  0  0  0  0  0  0  0  0  0  0
   52.6621    0.2364    3.4149 C   0  0  0  0  0  0  0  0  0  0  0  0
   53.6068    0.2617    2.4447 C   0  0  0  0  0  0  0  0  0  0  0  0
   51.5703    0.0499    1.3944 N   0  0  0  0  0  0  0  0  0  0  0  0
   52.9191    0.1225    1.1993 C   0  0  0  0  0  0  0  0  0  0  0  0
   53.5771   -0.0092   -0.0274 C   0  0  0  0  0  0  0  0  0  0  0  0
   52.9007   -0.1330   -1.2448 C   0  0  0  0  0  0  0  0  0  0  0  0
   53.5662   -0.2789   -2.5013 C   0  0  0  0  0  0  0  0  0  0  0  0
   52.6069   -0.2301   -3.4567 C   0  0  0  0  0  0  0  0  0  0  0  0
   51.3573   -0.0522   -2.7791 C   0  0  0  0  0  0  0  0  0  0  0  0
   50.1393    0.1084   -3.4268 C   0  0  0  0  0  0  0  0  0  0  0  0
   50.1319    0.1881   -4.9057 C   0  0  0  0  0  0  0  0  0  0  0  0
   49.4527   -0.7667   -5.6669 C   0  0  0  0  0  0  0  0  0  0  0  0
   49.4523   -0.6863   -7.0473 C   0  0  0  0  0  0  0  0  0  0  0  0
   50.1259    0.3528   -7.6921 C   0  0  0  0  0  0  0  0  0  0  0  0
   50.0924    0.3993   -9.1736 C   0  0  0  0  0  0  0  0  0  0  0  0
   50.7744    1.4309   -9.6938 O   0  0  0  0  0  0  0  0  0  0  0  0
   49.5155   -0.3998   -9.8664 O   0  0  0  0  0  0  0  0  0  0  0  0
   50.8048    1.3092   -6.9363 C   0  0  0  0  0  0  0  0  0  0  0  0
   50.8091    1.2234   -5.5552 C   0  0  0  0  0  0  0  0  0  0  0  0
   48.9301    0.1861   -2.7462 C   0  0  0  0  0  0  0  0  0  0  0  0
   47.6574    0.3630   -3.3845 C   0  0  0  0  0  0  0  0  0  0  0  0
   46.7174    0.2712   -2.4149 C   0  0  0  0  0  0  0  0  0  0  0  0
   47.4164    0.0574   -1.1837 C   0  0  0  0  0  0  0  0  0  0  0  0
   48.7710    0.0510   -1.3925 N   0  0  0  0  0  0  0  0  0  0  0  0
   51.5509   -0.0283   -1.4197 N   0  0  0  0  0  0  0  0  0  0  0  0
   50.2132   -0.1625    4.9080 C   0  0  0  0  0  0  0  0  0  0  0  0
   49.9211   -1.3525    5.5786 C   0  0  0  0  0  0  0  0  0  0  0  0
   49.9419   -1.3967    6.9605 C   0  0  0  0  0  0  0  0  0  0  0  0
   50.2495   -0.2507    7.6962 C   0  0  0  0  0  0  0  0  0  0  0  0
   50.2571   -0.3481    9.1757 C   0  0  0  0  0  0  0  0  0  0  0  0
   50.5637    0.8053    9.7884 O   0  0  0  0  0  0  0  0  0  0  0  0
   50.0147   -1.3544    9.7922 O   0  0  0  0  0  0  0  0  0  0  0  0
   50.5385    0.9407    7.0303 C   0  0  0  0  0  0  0  0  0  0  0  0
   50.5226    0.9814    5.6468 C   0  0  0  0  0  0  0  0  0  0  0  0
   45.7044   -0.1964    0.0328 H   0  0  0  0  0  0  0  0  0  0  0  0
   45.7134   -0.6447    2.5869 H   0  0  0  0  0  0  0  0  0  0  0  0
   47.6135   -0.6087    4.5007 H   0  0  0  0  0  0  0  0  0  0  0  0
   52.8004    0.2942    4.4822 H   0  0  0  0  0  0  0  0  0  0  0  0
   54.6761    0.3518    2.5479 H   0  0  0  0  0  0  0  0  0  0  0  0
   54.6308   -0.3994   -2.6211 H   0  0  0  0  0  0  0  0  0  0  0  0
   52.7234   -0.3164   -4.5247 H   0  0  0  0  0  0  0  0  0  0  0  0
   48.9397   -1.5815   -5.1688 H   0  0  0  0  0  0  0  0  0  0  0  0
   48.9319   -1.4268   -7.6448 H   0  0  0  0  0  0  0  0  0  0  0  0
   50.7025    1.3901  -10.6613 H   0  0  0  0  0  0  0  0  0  0  0  0
   51.3271    2.1186   -7.4325 H   0  0  0  0  0  0  0  0  0  0  0  0
   51.3277    1.9721   -4.9671 H   0  0  0  0  0  0  0  0  0  0  0  0
   47.5149    0.5345   -4.4390 H   0  0  0  0  0  0  0  0  0  0  0  0
   45.6450    0.3407   -2.5050 H   0  0  0  0  0  0  0  0  0  0  0  0
   49.6928   -2.2455    5.0080 H   0  0  0  0  0  0  0  0  0  0  0  0
   49.7221   -2.3181    7.4885 H   0  0  0  0  0  0  0  0  0  0  0  0
   50.5469    0.6573   10.7479 H   0  0  0  0  0  0  0  0  0  0  0  0
   50.7748    1.8330    7.5978 H   0  0  0  0  0  0  0  0  0  0  0  0
   50.7381    1.9091    5.1288 H   0  0  0  0  0  0  0  0  0  0  0  0
   98.1155   -0.0709   -0.0526 Fe  0  0  0  0  0  0  0  0  0  0  0  0
  101.5009   -0.1424   -0.0919 C   0  0  0  0  0  0  0  0  0  0  0  0
  100.8397   -0.1698   -1.3025 C   0  0  0  0  0  0  0  0  0  0  0  0
  101.5046   -0.2389   -2.5689 C   0  0  0  0  0  0  0  0  0  0  0  0
  100.5471   -0.1144   -3.5176 C   0  0  0  0  0  0  0  0  0  0  0  0
   99.2958    0.0225   -2.8293 C   0  0  0  0  0  0  0  0  0  0  0  0
   99.4874   -0.0314   -1.4749 N   0  0  0  0  0  0  0  0  0  0  0  0
   98.0867    0.2936   -3.4594 C   0  0  0  0  0  0  0  0  0  0  0  0
   96.8909    0.4349   -2.7696 C   0  0  0  0  0  0  0  0  0  0  0  0
   95.6285    0.6842   -3.3999 C   0  0  0  0  0  0  0  0  0  0  0  0
   94.6849    0.6025   -2.4316 C   0  0  0  0  0  0  0  0  0  0  0  0
   96.7183    0.2333   -1.4208 N   0  0  0  0  0  0  0  0  0  0  0  0
   95.3712    0.2992   -1.2149 C   0  0  0  0  0  0  0  0  0  0  0  0
   94.7127    0.0104   -0.0148 C   0  0  0  0  0  0  0  0  0  0  0  0
   95.3903   -0.2765    1.1749 C   0  0  0  0  0  0  0  0  0  0  0  0
   94.7265   -0.5843    2.4028 C   0  0  0  0  0  0  0  0  0  0  0  0
   95.6868   -0.6545    3.3562 C   0  0  0  0  0  0  0  0  0  0  0  0
   96.9350   -0.3866    2.7062 C   0  0  0  0  0  0  0  0  0  0  0  0
   98.1524   -0.2952    3.3681 C   0  0  0  0  0  0  0  0  0  0  0  0
   98.1624   -0.3930    4.8458 C   0  0  0  0  0  0  0  0  0  0  0  0
   98.8573   -1.4222    5.4862 C   0  0  0  0  0  0  0  0  0  0  0  0
   98.8635   -1.5058    6.8664 C   0  0  0  0  0  0  0  0  0  0  0  0
   98.1799   -0.5592    7.6319 C   0  0  0  0  0  0  0  0  0  0  0  0
   98.2217   -0.6871    9.1085 C   0  0  0  0  0  0  0  0  0  0  0  0
   97.5306    0.2673    9.7497 O   0  0  0  0  0  0  0  0  0  0  0  0
   98.8126   -1.5548    9.6996 O   0  0  0  0  0  0  0  0  0  0  0  0
   97.4846    0.4704    6.9971 C   0  0  0  0  0  0  0  0  0  0  0  0
   97.4746    0.5486    5.6155 C   0  0  0  0  0  0  0  0  0  0  0  0
   99.3602   -0.1240    2.7012 C   0  0  0  0  0  0  0  0  0  0  0  0
  100.6320   -0.0092    3.3552 C   0  0  0  0  0  0  0  0  0  0  0  0
  101.5718    0.0180    2.3813 C   0  0  0  0  0  0  0  0  0  0  0  0
  100.8732   -0.0614    1.1339 C   0  0  0  0  0  0  0  0  0  0  0  0
   99.5191   -0.1029    1.3414 N   0  0  0  0  0  0  0  0  0  0  0  0
   96.7397   -0.1942    1.3603 N   0  0  0  0  0  0  0  0  0  0  0  0
   98.0720    0.4226   -4.9366 C   0  0  0  0  0  0  0  0  0  0  0  0
   98.3462   -0.6863   -5.7406 C   0  0  0  0  0  0  0  0  0  0  0  0
   98.3267   -0.5699   -7.1183 C   0  0  0  0  0  0  0  0  0  0  0  0
   98.0387    0.6584   -7.7162 C   0  0  0  0  0  0  0  0  0  0  0  0
   98.0321    0.7332   -9.1970 C   0  0  0  0  0  0  0  0  0  0  0  0
   97.7478    1.9553   -9.6718 O   0  0  0  0  0  0  0  0  0  0  0  0
   98.2568   -0.1993   -9.9259 O   0  0  0  0  0  0  0  0  0  0  0  0
   97.7677    1.7691   -6.9166 C   0  0  0  0  0  0  0  0  0  0  0  0
   97.7819    1.6491   -5.5377 C   0  0  0  0  0  0  0  0  0  0  0  0
  102.5843   -0.1768   -0.1051 H   0  0  0  0  0  0  0  0  0  0  0  0
  102.5694   -0.3543   -2.6949 H   0  0  0  0  0  0  0  0  0  0  0  0
  100.6662   -0.0999   -4.5887 H   0  0  0  0  0  0  0  0  0  0  0  0
   95.4904    0.8764   -4.4513 H   0  0  0  0  0  0  0  0  0  0  0  0
   93.6169    0.7199   -2.5202 H   0  0  0  0  0  0  0  0  0  0  0  0
   93.6624   -0.7218    2.5071 H   0  0  0  0  0  0  0  0  0  0  0  0
   95.5716   -0.8762    4.4046 H   0  0  0  0  0  0  0  0  0  0  0  0
   99.3786   -2.1652    4.8934 H   0  0  0  0  0  0  0  0  0  0  0  0
   99.3965   -2.3046    7.3703 H   0  0  0  0  0  0  0  0  0  0  0  0
   97.6085    0.1141   10.7053 H   0  0  0  0  0  0  0  0  0  0  0  0
   96.9546    1.2085    7.5874 H   0  0  0  0  0  0  0  0  0  0  0  0
   96.9437    1.3548    5.1220 H   0  0  0  0  0  0  0  0  0  0  0  0
  100.7744    0.0431    4.4224 H   0  0  0  0  0  0  0  0  0  0  0  0
  102.6436    0.0865    2.4786 H   0  0  0  0  0  0  0  0  0  0  0  0
   98.5598   -1.6428   -5.2772 H   0  0  0  0  0  0  0  0  0  0  0  0
   98.5327   -1.4273   -7.7495 H   0  0  0  0  0  0  0  0  0  0  0  0
   97.7642    1.9193  -10.6420 H   0  0  0  0  0  0  0  0  0  0  0  0
   97.5468    2.7249   -7.3769 H   0  0  0  0  0  0  0  0  0  0  0  0
   97.5807    2.5139   -4.9157 H   0  0  0  0  0  0  0  0  0  0  0  0
   58.7781   -0.0076   -0.0563 C   0  0  0  0  0  0  0  0  0  0  0  0
   57.5495   -0.0109   -0.0543 C   0  0  0  0  0  0  0  0  0  0  0  0
   56.2054   -0.0124   -0.0481 C   0  0  0  0  0  0  0  0  0  0  0  0
   54.9815   -0.0122   -0.0378 C   0  0  0  0  0  0  0  0  0  0  0  0
   60.1219   -0.0034   -0.0569 C   0  0  0  0  0  0  0  0  0  0  0  0
   61.3463    0.0013   -0.0549 C   0  0  0  0  0  0  0  0  0  0  0  0
   74.7630    0.0299    0.0131 C   0  0  0  0  0  0  0  0  0  0  0  0
   73.5320    0.0280    0.0155 C   0  0  0  0  0  0  0  0  0  0  0  0
   72.1916    0.0256    0.0152 C   0  0  0  0  0  0  0  0  0  0  0  0
   70.9652    0.0263    0.0112 C   0  0  0  0  0  0  0  0  0  0  0  0
   76.1033    0.0302    0.0106 C   0  0  0  0  0  0  0  0  0  0  0  0
   77.3297    0.0312    0.0046 C   0  0  0  0  0  0  0  0  0  0  0  0
   90.7420    0.0151    0.0145 C   0  0  0  0  0  0  0  0  0  0  0  0
   89.5127    0.0172    0.0198 C   0  0  0  0  0  0  0  0  0  0  0  0
   88.1700    0.0201    0.0217 C   0  0  0  0  0  0  0  0  0  0  0  0
   86.9451    0.0220    0.0203 C   0  0  0  0  0  0  0  0  0  0  0  0
   92.0850    0.0132    0.0062 C   0  0  0  0  0  0  0  0  0  0  0  0
   93.3096    0.0112   -0.0033 C   0  0  0  0  0  0  0  0  0  0  0  0
   66.1569    0.0153   -0.0203 Fe  0  0  0  0  0  0  0  0  0  0  0  0
   62.7492    0.0061   -0.0493 C   0  0  0  0  0  0  0  0  0  0  0  0
   63.4258   -1.2030   -0.2468 C   0  0  0  0  0  0  0  0  0  0  0  0
   62.7675   -2.4472   -0.4932 C   0  0  0  0  0  0  0  0  0  0  0  0
   63.7242   -3.4067   -0.4532 C   0  0  0  0  0  0  0  0  0  0  0  0
   64.9621   -2.7431   -0.1728 C   0  0  0  0  0  0  0  0  0  0  0  0
   64.7703   -1.3862   -0.1040 N   0  0  0  0  0  0  0  0  0  0  0  0
   66.1625   -3.3987    0.0791 C   0  0  0  0  0  0  0  0  0  0  0  0
   67.3616   -2.7276    0.2818 C   0  0  0  0  0  0  0  0  0  0  0  0
   68.6042   -3.3695    0.5913 C   0  0  0  0  0  0  0  0  0  0  0  0
   69.5585   -2.4072    0.5622 C   0  0  0  0  0  0  0  0  0  0  0  0
   67.5507   -1.3757    0.1262 N   0  0  0  0  0  0  0  0  0  0  0  0
   68.8938   -1.1816    0.2488 C   0  0  0  0  0  0  0  0  0  0  0  0
   69.5661    0.0238    0.0038 C   0  0  0  0  0  0  0  0  0  0  0  0
   68.8919    1.2261   -0.2504 C   0  0  0  0  0  0  0  0  0  0  0  0
   69.5558    2.4553   -0.5514 C   0  0  0  0  0  0  0  0  0  0  0  0
   68.5973    3.4127   -0.5976 C   0  0  0  0  0  0  0  0  0  0  0  0
   67.3526    2.7642   -0.3109 C   0  0  0  0  0  0  0  0  0  0  0  0
   66.1465    3.4291   -0.1310 C   0  0  0  0  0  0  0  0  0  0  0  0
   66.1361    4.9083   -0.1897 C   0  0  0  0  0  0  0  0  0  0  0  0
   66.8968    5.6591    0.7103 C   0  0  0  0  0  0  0  0  0  0  0  0
   66.8821    7.0405    0.6525 C   0  0  0  0  0  0  0  0  0  0  0  0
   66.1119    7.6963   -0.3096 C   0  0  0  0  0  0  0  0  0  0  0  0
   66.1331    9.1791   -0.3347 C   0  0  0  0  0  0  0  0  0  0  0  0
   65.3509    9.7108   -1.2854 O   0  0  0  0  0  0  0  0  0  0  0  0
   66.7823    9.8621    0.4157 O   0  0  0  0  0  0  0  0  0  0  0  0
   65.3525    6.9511   -1.2119 C   0  0  0  0  0  0  0  0  0  0  0  0
   65.3633    5.5687   -1.1484 C   0  0  0  0  0  0  0  0  0  0  0  0
   64.9452    2.7675    0.1015 C   0  0  0  0  0  0  0  0  0  0  0  0
   63.6999    3.4250    0.3620 C   0  0  0  0  0  0  0  0  0  0  0  0
   62.7478    2.4603    0.3907 C   0  0  0  0  0  0  0  0  0  0  0  0
   63.4162    1.2193    0.1558 C   0  0  0  0  0  0  0  0  0  0  0  0
   64.7615    1.4097    0.0305 N   0  0  0  0  0  0  0  0  0  0  0  0
   67.5458    1.4131   -0.1528 N   0  0  0  0  0  0  0  0  0  0  0  0
   66.1592   -4.8781    0.1338 C   0  0  0  0  0  0  0  0  0  0  0  0
   65.3722   -5.5470    1.0752 C   0  0  0  0  0  0  0  0  0  0  0  0
   65.3706   -6.9286    1.1271 C   0  0  0  0  0  0  0  0  0  0  0  0
   66.1499   -7.6669    0.2345 C   0  0  0  0  0  0  0  0  0  0  0  0
   66.1109   -9.1468    0.3265 C   0  0  0  0  0  0  0  0  0  0  0  0
   66.8921   -9.7606   -0.5744 O   0  0  0  0  0  0  0  0  0  0  0  0
   65.4495   -9.7607    1.1242 O   0  0  0  0  0  0  0  0  0  0  0  0
   66.9346   -7.0038   -0.7092 C   0  0  0  0  0  0  0  0  0  0  0  0
   66.9404   -5.6206   -0.7551 C   0  0  0  0  0  0  0  0  0  0  0  0
   61.7093   -2.5572   -0.6672 H   0  0  0  0  0  0  0  0  0  0  0  0
   63.6114   -4.4683   -0.6011 H   0  0  0  0  0  0  0  0  0  0  0  0
   68.7215   -4.4195    0.8042 H   0  0  0  0  0  0  0  0  0  0  0  0
   70.6183   -2.5042    0.7338 H   0  0  0  0  0  0  0  0  0  0  0  0
   70.6182    2.5579   -0.7031 H   0  0  0  0  0  0  0  0  0  0  0  0
   68.7133    4.4634   -0.8075 H   0  0  0  0  0  0  0  0  0  0  0  0
   67.4855    5.1515    1.4659 H   0  0  0  0  0  0  0  0  0  0  0  0
   67.4652    7.6301    1.3514 H   0  0  0  0  0  0  0  0  0  0  0  0
   65.4205   10.6781   -1.2357 H   0  0  0  0  0  0  0  0  0  0  0  0
   64.7559    7.4561   -1.9623 H   0  0  0  0  0  0  0  0  0  0  0  0
   64.7825    4.9889   -1.8567 H   0  0  0  0  0  0  0  0  0  0  0  0
   63.5793    4.4862    0.5066 H   0  0  0  0  0  0  0  0  0  0  0  0
   61.6867    2.5651    0.5494 H   0  0  0  0  0  0  0  0  0  0  0  0
   64.7753   -4.9746    1.7760 H   0  0  0  0  0  0  0  0  0  0  0  0
   64.7671   -7.4544    1.8588 H   0  0  0  0  0  0  0  0  0  0  0  0
   66.8115  -10.7202   -0.4493 H   0  0  0  0  0  0  0  0  0  0  0  0
   67.5379   -7.5733   -1.4062 H   0  0  0  0  0  0  0  0  0  0  0  0
   67.5404   -5.1052   -1.4964 H   0  0  0  0  0  0  0  0  0  0  0  0
   82.1367    0.0267   -0.0031 Fe  0  0  0  0  0  0  0  0  0  0  0  0
   78.7286    0.0307    0.0004 C   0  0  0  0  0  0  0  0  0  0  0  0
   79.4007   -1.1915   -0.1414 C   0  0  0  0  0  0  0  0  0  0  0  0
   78.7365   -2.4408   -0.3416 C   0  0  0  0  0  0  0  0  0  0  0  0
   79.6927   -3.4006   -0.2943 C   0  0  0  0  0  0  0  0  0  0  0  0
   80.9358   -2.7325   -0.0491 C   0  0  0  0  0  0  0  0  0  0  0  0
   80.7449   -1.3724   -0.0125 N   0  0  0  0  0  0  0  0  0  0  0  0
   82.1366   -3.3803    0.2123 C   0  0  0  0  0  0  0  0  0  0  0  0
   83.3345   -2.7015    0.4094 C   0  0  0  0  0  0  0  0  0  0  0  0
   84.5715   -3.3318    0.7607 C   0  0  0  0  0  0  0  0  0  0  0  0
   85.5262   -2.3701    0.7148 C   0  0  0  0  0  0  0  0  0  0  0  0
   83.5247   -1.3573    0.2108 N   0  0  0  0  0  0  0  0  0  0  0  0
   84.8677   -1.1580    0.3423 C   0  0  0  0  0  0  0  0  0  0  0  0
   85.5435    0.0238    0.0148 C   0  0  0  0  0  0  0  0  0  0  0  0
   84.8734    1.2060   -0.3236 C   0  0  0  0  0  0  0  0  0  0  0  0
   85.5379    2.4145   -0.6975 C   0  0  0  0  0  0  0  0  0  0  0  0
   84.5846    3.3762   -0.7649 C   0  0  0  0  0  0  0  0  0  0  0  0
   83.3427    2.7503   -0.4227 C   0  0  0  0  0  0  0  0  0  0  0  0
   82.1442    3.4324   -0.2417 C   0  0  0  0  0  0  0  0  0  0  0  0
   82.1550    4.9101   -0.3268 C   0  0  0  0  0  0  0  0  0  0  0  0
   82.9453    5.6587    0.5496 C   0  0  0  0  0  0  0  0  0  0  0  0
   82.9511    7.0394    0.4771 C   0  0  0  0  0  0  0  0  0  0  0  0
   82.1727    7.6967   -0.4773 C   0  0  0  0  0  0  0  0  0  0  0  0
   82.2134    9.1789   -0.5161 C   0  0  0  0  0  0  0  0  0  0  0  0
   81.4268    9.7124   -1.4623 O   0  0  0  0  0  0  0  0  0  0  0  0
   82.8802    9.8596    0.2207 O   0  0  0  0  0  0  0  0  0  0  0  0
   81.3863    6.9537   -1.3581 C   0  0  0  0  0  0  0  0  0  0  0  0
   81.3764    5.5719   -1.2795 C   0  0  0  0  0  0  0  0  0  0  0  0
   80.9414    2.7890    0.0223 C   0  0  0  0  0  0  0  0  0  0  0  0
   79.7002    3.4619    0.2638 C   0  0  0  0  0  0  0  0  0  0  0  0
   78.7426    2.5042    0.3253 C   0  0  0  0  0  0  0  0  0  0  0  0
   79.4038    1.2519    0.1344 C   0  0  0  0  0  0  0  0  0  0  0  0
   80.7480    1.4292   -0.0011 N   0  0  0  0  0  0  0  0  0  0  0  0
   83.5292    1.4076   -0.2103 N   0  0  0  0  0  0  0  0  0  0  0  0
   82.1454   -4.8589    0.2809 C   0  0  0  0  0  0  0  0  0  0  0  0
   81.3617   -5.5323    1.2215 C   0  0  0  0  0  0  0  0  0  0  0  0
   81.3728   -6.9139    1.2768 C   0  0  0  0  0  0  0  0  0  0  0  0
   82.1624   -7.6474    0.3894 C   0  0  0  0  0  0  0  0  0  0  0  0
   82.1339   -9.1275    0.4824 C   0  0  0  0  0  0  0  0  0  0  0  0
   82.9334   -9.7361   -0.4056 O   0  0  0  0  0  0  0  0  0  0  0  0
   81.4645   -9.7458    1.2703 O   0  0  0  0  0  0  0  0  0  0  0  0
   82.9466   -6.9796   -0.5515 C   0  0  0  0  0  0  0  0  0  0  0  0
   82.9393   -5.5967   -0.6010 C   0  0  0  0  0  0  0  0  0  0  0  0
   77.6756   -2.5541   -0.4962 H   0  0  0  0  0  0  0  0  0  0  0  0
   79.5758   -4.4653   -0.4141 H   0  0  0  0  0  0  0  0  0  0  0  0
   84.6847   -4.3737    1.0119 H   0  0  0  0  0  0  0  0  0  0  0  0
   86.5833   -2.4601    0.9060 H   0  0  0  0  0  0  0  0  0  0  0  0
   86.5975    2.5019   -0.8758 H   0  0  0  0  0  0  0  0  0  0  0  0
   84.7022    4.4157   -1.0242 H   0  0  0  0  0  0  0  0  0  0  0  0
   83.5407    5.1499    1.2991 H   0  0  0  0  0  0  0  0  0  0  0  0
   83.5566    7.6269    1.1585 H   0  0  0  0  0  0  0  0  0  0  0  0
   81.5082   10.6792   -1.4215 H   0  0  0  0  0  0  0  0  0  0  0  0
   80.7845    7.4600   -2.1034 H   0  0  0  0  0  0  0  0  0  0  0  0
   80.7747    4.9938   -1.9716 H   0  0  0  0  0  0  0  0  0  0  0  0
   79.5855    4.5280    0.3729 H   0  0  0  0  0  0  0  0  0  0  0  0
   77.6824    2.6208    0.4826 H   0  0  0  0  0  0  0  0  0  0  0  0
   80.7574   -4.9638    1.9192 H   0  0  0  0  0  0  0  0  0  0  0  0
   80.7712   -7.4435    2.0072 H   0  0  0  0  0  0  0  0  0  0  0  0
   82.8575  -10.6961   -0.2812 H   0  0  0  0  0  0  0  0  0  0  0  0
   83.5591   -7.5451   -1.2437 H   0  0  0  0  0  0  0  0  0  0  0  0
   83.5390   -5.0774   -1.3400 H   0  0  0  0  0  0  0  0  0  0  0  0
  2  3  4  0  0  0  0
  3  4  4  0  0  0  0
  4  5  2  0  0  0  0
  5  6  4  0  0  0  0
  1  7  1  0  0  0  0
  3  7  4  0  0  0  0
  6  7  4  0  0  0  0
  6  8  4  0  0  0  0
  8  9  4  0  0  0  0
  9 10  4  0  0  0  0
 10 11  2  0  0  0  0
  1 12  1  0  0  0  0
  9 12  4  0  0  0  0
 11 13  4  0  0  0  0
 12 13  4  0  0  0  0
 13 14  4  0  0  0  0
 14 15  4  0  0  0  0
 15 16  4  0  0  0  0
 16 17  2  0  0  0  0
 17 18  4  0  0  0  0
 18 19  4  0  0  0  0
 19 20  1  0  0  0  0
 20 21  4  0  0  0  0
 21 22  4  0  0  0  0
 22 23  4  0  0  0  0
 23 24  1  0  0  0  0
 24 25  4  0  0  0  0
 24 26  2  0  0  0  0
 23 27  4  0  0  0  0
 20 28  4  0  0  0  0
 27 28  4  0  0  0  0
 19 29  4  0  0  0  0
 29 30  4  0  0  0  0
 30 31  2  0  0  0  0
  2 32  4  0  0  0  0
 31 32  4  0  0  0  0
  1 33  1  0  0  0  0
 29 33  4  0  0  0  0
 32 33  4  0  0  0  0
  1 34  1  0  0  0  0
 15 34  4  0  0  0  0
 18 34  4  0  0  0  0
  8 35  1  0  0  0  0
 35 36  4  0  0  0  0
 36 37  4  0  0  0  0
 37 38  4  0  0  0  0
 38 39  1  0  0  0  0
 39 40  4  0  0  0  0
 39 41  2  0  0  0  0
 38 42  4  0  0  0  0
 35 43  4  0  0  0  0
 42 43  4  0  0  0  0
  2 44  1  0  0  0  0
  4 45  1  0  0  0  0
  5 46  1  0  0  0  0
 10 47  1  0  0  0  0
 11 48  1  0  0  0  0
 16 49  1  0  0  0  0
 17 50  1  0  0  0  0
 21 51  1  0  0  0  0
 22 52  1  0  0  0  0
 25 53  1  0  0  0  0
 27 54  1  0  0  0  0
 28 55  1  0  0  0  0
 30 56  1  0  0  0  0
 31 57  1  0  0  0  0
 36 58  1  0  0  0  0
 37 59  1  0  0  0  0
 40 60  1  0  0  0  0
 42 61  1  0  0  0  0
 43 62  1  0  0  0  0
 64 65  4  0  0  0  0
 65 66  4  0  0  0  0
 66 67  2  0  0  0  0
 67 68  4  0  0  0  0
 63 69  1  0  0  0  0
 65 69  4  0  0  0  0
 68 69  4  0  0  0  0
 68 70  4  0  0  0  0
 70 71  4  0  0  0  0
 71 72  4  0  0  0  0
 72 73  2  0  0  0  0
 63 74  1  0  0  0  0
 71 74  4  0  0  0  0
 73 75  4  0  0  0  0
 74 75  4  0  0  0  0
 75 76  4  0  0  0  0
 76 77  4  0  0  0  0
 77 78  4  0  0  0  0
 78 79  2  0  0  0  0
 79 80  4  0  0  0  0
 80 81  4  0  0  0  0
 81 82  1  0  0  0  0
 82 83  4  0  0  0  0
 83 84  4  0  0  0  0
 84 85  4  0  0  0  0
 85 86  1  0  0  0  0
 86 87  4  0  0  0  0
 86 88  2  0  0  0  0
 85 89  4  0  0  0  0
 82 90  4  0  0  0  0
 89 90  4  0  0  0  0
 81 91  4  0  0  0  0
 91 92  4  0  0  0  0
 92 93  2  0  0  0  0
 64 94  4  0  0  0  0
 93 94  4  0  0  0  0
 63 95  1  0  0  0  0
 91 95  4  0  0  0  0
 94 95  4  0  0  0  0
 63 96  1  0  0  0  0
 77 96  4  0  0  0  0
 80 96  4  0  0  0  0
 70 97  1  0  0  0  0
 97 98  4  0  0  0  0
 98 99  4  0  0  0  0
 99100  4  0  0  0  0
100101  1  0  0  0  0
101102  4  0  0  0  0
101103  2  0  0  0  0
100104  4  0  0  0  0
 97105  4  0  0  0  0
104105  4  0  0  0  0
 64106  1  0  0  0  0
 66107  1  0  0  0  0
 67108  1  0  0  0  0
 72109  1  0  0  0  0
 73110  1  0  0  0  0
 78111  1  0  0  0  0
 79112  1  0  0  0  0
 83113  1  0  0  0  0
 84114  1  0  0  0  0
 87115  1  0  0  0  0
 89116  1  0  0  0  0
 90117  1  0  0  0  0
 92118  1  0  0  0  0
 93119  1  0  0  0  0
 98120  1  0  0  0  0
 99121  1  0  0  0  0
102122  1  0  0  0  0
104123  1  0  0  0  0
105124  1  0  0  0  0
125126  3  0  0  0  0
126127  4  0  0  0  0
 14128  4  0  0  0  0
127128  3  0  0  0  0
125129  4  0  0  0  0
129130  3  0  0  0  0
131132  3  0  0  0  0
132133  4  0  0  0  0
133134  3  0  0  0  0
131135  4  0  0  0  0
135136  3  0  0  0  0
137138  3  0  0  0  0
138139  4  0  0  0  0
139140  3  0  0  0  0
137141  4  0  0  0  0
 76142  4  0  0  0  0
141142  3  0  0  0  0
130144  4  0  0  0  0
144145  4  0  0  0  0
145146  4  0  0  0  0
146147  2  0  0  0  0
147148  4  0  0  0  0
143149  1  0  0  0  0
145149  4  0  0  0  0
148149  4  0  0  0  0
148150  4  0  0  0  0
150151  4  0  0  0  0
151152  4  0  0  0  0
152153  2  0  0  0  0
143154  1  0  0  0  0
151154  4  0  0  0  0
153155  4  0  0  0  0
154155  4  0  0  0  0
134156  4  0  0  0  0
155156  4  0  0  0  0
156157  4  0  0  0  0
157158  4  0  0  0  0
158159  2  0  0  0  0
159160  4  0  0  0  0
160161  4  0  0  0  0
161162  1  0  0  0  0
162163  4  0  0  0  0
163164  4  0  0  0  0
164165  4  0  0  0  0
165166  1  0  0  0  0
166167  4  0  0  0  0
166168  2  0  0  0  0
165169  4  0  0  0  0
162170  4  0  0  0  0
169170  4  0  0  0  0
161171  4  0  0  0  0
171172  4  0  0  0  0
172173  2  0  0  0  0
144174  4  0  0  0  0
173174  4  0  0  0  0
143175  1  0  0  0  0
171175  4  0  0  0  0
174175  4  0  0  0  0
143176  1  0  0  0  0
157176  4  0  0  0  0
160176  4  0  0  0  0
150177  1  0  0  0  0
177178  4  0  0  0  0
178179  4  0  0  0  0
179180  4  0  0  0  0
180181  1  0  0  0  0
181182  4  0  0  0  0
181183  2  0  0  0  0
180184  4  0  0  0  0
177185  4  0  0  0  0
184185  4  0  0  0  0
146186  1  0  0  0  0
147187  1  0  0  0  0
152188  1  0  0  0  0
153189  1  0  0  0  0
158190  1  0  0  0  0
159191  1  0  0  0  0
163192  1  0  0  0  0
164193  1  0  0  0  0
167194  1  0  0  0  0
169195  1  0  0  0  0
170196  1  0  0  0  0
172197  1  0  0  0  0
173198  1  0  0  0  0
178199  1  0  0  0  0
179200  1  0  0  0  0
182201  1  0  0  0  0
184202  1  0  0  0  0
185203  1  0  0  0  0
136205  4  0  0  0  0
205206  4  0  0  0  0
206207  4  0  0  0  0
207208  2  0  0  0  0
208209  4  0  0  0  0
204210  1  0  0  0  0
206210  4  0  0  0  0
209210  4  0  0  0  0
209211  4  0  0  0  0
211212  4  0  0  0  0
212213  4  0  0  0  0
213214  2  0  0  0  0
204215  1  0  0  0  0
212215  4  0  0  0  0
214216  4  0  0  0  0
215216  4  0  0  0  0
140217  4  0  0  0  0
216217  4  0  0  0  0
217218  4  0  0  0  0
218219  4  0  0  0  0
219220  2  0  0  0  0
220221  4  0  0  0  0
221222  4  0  0  0  0
222223  1  0  0  0  0
223224  4  0  0  0  0
224225  4  0  0  0  0
225226  4  0  0  0  0
226227  1  0  0  0  0
227228  4  0  0  0  0
227229  2  0  0  0  0
226230  4  0  0  0  0
223231  4  0  0  0  0
230231  4  0  0  0  0
222232  4  0  0  0  0
232233  4  0  0  0  0
233234  2  0  0  0  0
205235  4  0  0  0  0
234235  4  0  0  0  0
204236  1  0  0  0  0
232236  4  0  0  0  0
235236  4  0  0  0  0
204237  1  0  0  0  0
218237  4  0  0  0  0
221237  4  0  0  0  0
211238  1  0  0  0  0
238239  4  0  0  0  0
239240  4  0  0  0  0
240241  4  0  0  0  0
241242  1  0  0  0  0
242243  4  0  0  0  0
242244  2  0  0  0  0
241245  4  0  0  0  0
238246  4  0  0  0  0
245246  4  0  0  0  0
207247  1  0  0  0  0
208248  1  0  0  0  0
213249  1  0  0  0  0
214250  1  0  0  0  0
219251  1  0  0  0  0
220252  1  0  0  0  0
224253  1  0  0  0  0
225254  1  0  0  0  0
228255  1  0  0  0  0
230256  1  0  0  0  0
231257  1  0  0  0  0
233258  1  0  0  0  0
234259  1  0  0  0  0
239260  1  0  0  0  0
240261  1  0  0  0  0
243262  1  0  0  0  0
245263  1  0  0  0  0
246264  1  0  0  0  0
M  END
