 xtb: 6.5.1 (b24c23e)
          07292222353D

414455  0     0  0            999 V2000
   62.4927   -0.3184    0.1270 C   0  0  0  0  0  0  0  0  0  0  0  0
   63.1092   -1.0707   -0.8646 C   0  0  0  0  0  0  0  0  0  0  0  0
   62.4643   -1.8535   -1.8629 C   0  0  0  0  0  0  0  0  0  0  0  0
   63.4319   -2.4266   -2.6391 C   0  0  0  0  0  0  0  0  0  0  0  0
   64.7000   -2.0252   -2.1299 C   0  0  0  0  0  0  0  0  0  0  0  0
   64.4538   -1.2000   -1.0693 N   0  0  0  0  0  0  0  0  0  0  0  0
   65.9683   -2.3805   -2.6035 C   0  0  0  0  0  0  0  0  0  0  0  0
   66.0163   -3.3027   -3.7652 C   0  0  0  0  0  0  0  0  0  0  0  0
   66.6296   -2.8882   -4.9509 C   0  0  0  0  0  0  0  0  0  0  0  0
   66.6698   -3.7447   -6.0438 C   0  0  0  0  0  0  0  0  0  0  0  0
   67.2455   -3.4049   -7.2398 O   0  0  0  0  0  0  0  0  0  0  0  0
   66.1074   -5.0159   -5.9599 C   0  0  0  0  0  0  0  0  0  0  0  0
   66.1358   -5.8809   -7.0220 O   0  0  0  0  0  0  0  0  0  0  0  0
   65.4986   -5.4326   -4.7750 C   0  0  0  0  0  0  0  0  0  0  0  0
   64.9582   -6.6733   -4.7020 O   0  0  0  0  0  0  0  0  0  0  0  0
   65.4503   -4.5751   -3.6820 C   0  0  0  0  0  0  0  0  0  0  0  0
   67.1766   -1.9333   -2.0633 C   0  0  0  0  0  0  0  0  0  0  0  0
   68.4809   -2.3927   -2.5059 C   0  0  0  0  0  0  0  0  0  0  0  0
   69.3916   -1.7463   -1.7488 C   0  0  0  0  0  0  0  0  0  0  0  0
   67.3177   -1.0379   -1.0471 N   0  0  0  0  0  0  0  0  0  0  0  0
   68.6428   -0.8957   -0.8442 C   0  0  0  0  0  0  0  0  0  0  0  0
   69.2679   -0.0361    0.0825 C   0  0  0  0  0  0  0  0  0  0  0  0
   68.6209    0.8083    1.0048 C   0  0  0  0  0  0  0  0  0  0  0  0
   69.2523    1.7211    1.8907 C   0  0  0  0  0  0  0  0  0  0  0  0
   68.2778    2.3433    2.6204 C   0  0  0  0  0  0  0  0  0  0  0  0
   67.0203    1.8180    2.2121 C   0  0  0  0  0  0  0  0  0  0  0  0
   67.2796    0.9033    1.2250 N   0  0  0  0  0  0  0  0  0  0  0  0
   65.7544    2.1600    2.6989 C   0  0  0  0  0  0  0  0  0  0  0  0
   65.7022    3.1614    3.7920 C   0  0  0  0  0  0  0  0  0  0  0  0
   66.3520    2.9201    5.0029 C   0  0  0  0  0  0  0  0  0  0  0  0
   66.2984    3.8625    6.0234 C   0  0  0  0  0  0  0  0  0  0  0  0
   66.9205    3.6342    7.2056 O   0  0  0  0  0  0  0  0  0  0  0  0
   65.5993    5.0555    5.8327 C   0  0  0  0  0  0  0  0  0  0  0  0
   65.5674    5.9674    6.8546 O   0  0  0  0  0  0  0  0  0  0  0  0
   64.9529    5.2975    4.6232 C   0  0  0  0  0  0  0  0  0  0  0  0
   64.2908    6.4917    4.5083 O   0  0  0  0  0  0  0  0  0  0  0  0
   64.9986    4.3548    3.6041 C   0  0  0  0  0  0  0  0  0  0  0  0
   64.5483    1.6266    2.2295 C   0  0  0  0  0  0  0  0  0  0  0  0
   63.2443    1.9233    2.8019 C   0  0  0  0  0  0  0  0  0  0  0  0
   62.3427    1.2248    2.0825 C   0  0  0  0  0  0  0  0  0  0  0  0
   63.0949    0.4970    1.0761 C   0  0  0  0  0  0  0  0  0  0  0  0
   64.4203    0.7538    1.2026 N   0  0  0  0  0  0  0  0  0  0  0  0
   61.4090   -0.3740    0.1502 H   0  0  0  0  0  0  0  0  0  0  0  0
   61.3955   -1.9503   -1.9681 H   0  0  0  0  0  0  0  0  0  0  0  0
   63.2854   -3.0675   -3.4932 H   0  0  0  0  0  0  0  0  0  0  0  0
   65.1754   -0.7492   -0.5167 H   0  0  0  0  0  0  0  0  0  0  0  0
   67.0570   -1.8953   -5.0275 H   0  0  0  0  0  0  0  0  0  0  0  0
   67.6153   -2.5131   -7.2022 H   0  0  0  0  0  0  0  0  0  0  0  0
   66.5945   -5.4398   -7.7547 H   0  0  0  0  0  0  0  0  0  0  0  0
   65.0956   -7.1168   -5.5553 H   0  0  0  0  0  0  0  0  0  0  0  0
   64.9916   -4.9164   -2.7630 H   0  0  0  0  0  0  0  0  0  0  0  0
   68.6543   -3.1255   -3.2773 H   0  0  0  0  0  0  0  0  0  0  0  0
   70.4666   -1.8246   -1.7765 H   0  0  0  0  0  0  0  0  0  0  0  0
   70.3169    1.8802    1.9489 H   0  0  0  0  0  0  0  0  0  0  0  0
   68.4148    3.1046    3.3708 H   0  0  0  0  0  0  0  0  0  0  0  0
   66.5648    0.3781    0.7323 H   0  0  0  0  0  0  0  0  0  0  0  0
   66.8816    1.9911    5.1698 H   0  0  0  0  0  0  0  0  0  0  0  0
   66.7662    4.3989    7.7845 H   0  0  0  0  0  0  0  0  0  0  0  0
   65.0423    6.7285    6.5599 H   0  0  0  0  0  0  0  0  0  0  0  0
   63.8693    6.5691    3.6424 H   0  0  0  0  0  0  0  0  0  0  0  0
   64.5062    4.5567    2.6601 H   0  0  0  0  0  0  0  0  0  0  0  0
   63.0685    2.5658    3.6497 H   0  0  0  0  0  0  0  0  0  0  0  0
   61.2715    1.1805    2.2020 H   0  0  0  0  0  0  0  0  0  0  0  0
  162.1694   -0.1899    0.3104 C   0  0  0  0  0  0  0  0  0  0  0  0
  161.5550    0.5947    1.2779 C   0  0  0  0  0  0  0  0  0  0  0  0
  162.2016    1.3593    2.2892 C   0  0  0  0  0  0  0  0  0  0  0  0
  161.2361    1.9848    3.0265 C   0  0  0  0  0  0  0  0  0  0  0  0
  159.9674    1.6106    2.4987 C   0  0  0  0  0  0  0  0  0  0  0  0
  160.2113    0.7820    1.4403 N   0  0  0  0  0  0  0  0  0  0  0  0
  158.7008    2.0056    2.9447 C   0  0  0  0  0  0  0  0  0  0  0  0
  158.6567    2.9037    4.1255 C   0  0  0  0  0  0  0  0  0  0  0  0
  158.0722    4.1682    4.0116 C   0  0  0  0  0  0  0  0  0  0  0  0
  158.0362    5.0140    5.1129 C   0  0  0  0  0  0  0  0  0  0  0  0
  157.4879    6.2691    5.0746 O   0  0  0  0  0  0  0  0  0  0  0  0
  158.5743    4.6043    6.3303 C   0  0  0  0  0  0  0  0  0  0  0  0
  158.5493    5.4180    7.4323 O   0  0  0  0  0  0  0  0  0  0  0  0
  159.1546    3.3401    6.4463 C   0  0  0  0  0  0  0  0  0  0  0  0
  159.6717    2.9490    7.6365 O   0  0  0  0  0  0  0  0  0  0  0  0
  159.1986    2.4942    5.3441 C   0  0  0  0  0  0  0  0  0  0  0  0
  157.4916    1.6151    2.3640 C   0  0  0  0  0  0  0  0  0  0  0  0
  156.1869    1.9613    2.8989 C   0  0  0  0  0  0  0  0  0  0  0  0
  155.2754    1.3988    2.0785 C   0  0  0  0  0  0  0  0  0  0  0  0
  157.3495    0.8458    1.2494 N   0  0  0  0  0  0  0  0  0  0  0  0
  156.0240    0.7073    1.0469 C   0  0  0  0  0  0  0  0  0  0  0  0
  155.3984    0.0130   -0.0090 C   0  0  0  0  0  0  0  0  0  0  0  0
  156.0441   -0.6987   -1.0378 C   0  0  0  0  0  0  0  0  0  0  0  0
  155.4124   -1.3401   -2.1362 C   0  0  0  0  0  0  0  0  0  0  0  0
  156.3855   -1.9124   -2.9073 C   0  0  0  0  0  0  0  0  0  0  0  0
  157.6424   -1.6502   -2.2945 C   0  0  0  0  0  0  0  0  0  0  0  0
  157.3843   -0.9038   -1.1745 N   0  0  0  0  0  0  0  0  0  0  0  0
  158.9070   -2.0521   -2.7368 C   0  0  0  0  0  0  0  0  0  0  0  0
  158.9581   -2.8740   -3.9707 C   0  0  0  0  0  0  0  0  0  0  0  0
  158.3012   -4.1035   -4.0287 C   0  0  0  0  0  0  0  0  0  0  0  0
  158.3536   -4.8685   -5.1881 C   0  0  0  0  0  0  0  0  0  0  0  0
  157.7247   -6.0673   -5.2518 O   0  0  0  0  0  0  0  0  0  0  0  0
  159.0587   -4.4015   -6.2986 C   0  0  0  0  0  0  0  0  0  0  0  0
  159.0894   -5.1750   -7.4289 O   0  0  0  0  0  0  0  0  0  0  0  0
  159.7123   -3.1731   -6.2415 C   0  0  0  0  0  0  0  0  0  0  0  0
  160.3800   -2.7790   -7.3713 O   0  0  0  0  0  0  0  0  0  0  0  0
  159.6677   -2.4095   -5.0820 C   0  0  0  0  0  0  0  0  0  0  0  0
  160.1128   -1.7346   -2.1008 C   0  0  0  0  0  0  0  0  0  0  0  0
  161.4145   -2.2302   -2.5202 C   0  0  0  0  0  0  0  0  0  0  0  0
  162.3162   -1.7104   -1.6630 C   0  0  0  0  0  0  0  0  0  0  0  0
  161.5664   -0.9036   -0.7169 C   0  0  0  0  0  0  0  0  0  0  0  0
  160.2422   -0.9505   -1.0048 N   0  0  0  0  0  0  0  0  0  0  0  0
  163.2522   -0.2397    0.3674 H   0  0  0  0  0  0  0  0  0  0  0  0
  163.2702    1.4207    2.4197 H   0  0  0  0  0  0  0  0  0  0  0  0
  161.3845    2.6520    3.8599 H   0  0  0  0  0  0  0  0  0  0  0  0
  159.4891    0.3684    0.8601 H   0  0  0  0  0  0  0  0  0  0  0  0
  157.6641    4.4988    3.0637 H   0  0  0  0  0  0  0  0  0  0  0  0
  157.1327    6.4623    4.1970 H   0  0  0  0  0  0  0  0  0  0  0  0
  158.1112    6.2469    7.1817 H   0  0  0  0  0  0  0  0  0  0  0  0
  159.5413    3.6678    8.2768 H   0  0  0  0  0  0  0  0  0  0  0  0
  159.6351    1.5096    5.4513 H   0  0  0  0  0  0  0  0  0  0  0  0
  156.0132    2.5392    3.7922 H   0  0  0  0  0  0  0  0  0  0  0  0
  154.1997    1.4284    2.1471 H   0  0  0  0  0  0  0  0  0  0  0  0
  154.3485   -1.3490   -2.3103 H   0  0  0  0  0  0  0  0  0  0  0  0
  156.2480   -2.4619   -3.8242 H   0  0  0  0  0  0  0  0  0  0  0  0
  158.0992   -0.5550   -0.5445 H   0  0  0  0  0  0  0  0  0  0  0  0
  157.7665   -4.4850   -3.1684 H   0  0  0  0  0  0  0  0  0  0  0  0
  157.8782   -6.4464   -6.1330 H   0  0  0  0  0  0  0  0  0  0  0  0
  159.6182   -4.7090   -8.0959 H   0  0  0  0  0  0  0  0  0  0  0  0
  160.8051   -1.9217   -7.2378 H   0  0  0  0  0  0  0  0  0  0  0  0
  160.1659   -1.4477   -5.0502 H   0  0  0  0  0  0  0  0  0  0  0  0
  161.5886   -2.8983   -3.3484 H   0  0  0  0  0  0  0  0  0  0  0  0
  163.3861   -1.8474   -1.6428 H   0  0  0  0  0  0  0  0  0  0  0  0
   70.6730   -0.0044    0.0897 C   0  0  0  0  0  0  0  0  0  0  0  0
   71.8977    0.0139    0.0965 C   0  0  0  0  0  0  0  0  0  0  0  0
   73.2401    0.0270    0.0970 C   0  0  0  0  0  0  0  0  0  0  0  0
   74.4710    0.0316    0.0946 C   0  0  0  0  0  0  0  0  0  0  0  0
   75.8087    0.0332    0.0878 C   0  0  0  0  0  0  0  0  0  0  0  0
   77.0396    0.0304    0.0787 C   0  0  0  0  0  0  0  0  0  0  0  0
   78.3818    0.0271    0.0668 C   0  0  0  0  0  0  0  0  0  0  0  0
   79.6068    0.0254    0.0535 C   0  0  0  0  0  0  0  0  0  0  0  0
   89.2693    0.0069    0.0327 C   0  0  0  0  0  0  0  0  0  0  0  0
   90.4947    0.0064    0.0400 C   0  0  0  0  0  0  0  0  0  0  0  0
   91.8363    0.0026    0.0453 C   0  0  0  0  0  0  0  0  0  0  0  0
   93.0677    0.0002    0.0482 C   0  0  0  0  0  0  0  0  0  0  0  0
   94.4046   -0.0019    0.0486 C   0  0  0  0  0  0  0  0  0  0  0  0
   95.6361   -0.0024    0.0467 C   0  0  0  0  0  0  0  0  0  0  0  0
   96.9776   -0.0042    0.0419 C   0  0  0  0  0  0  0  0  0  0  0  0
   98.2030   -0.0022    0.0353 C   0  0  0  0  0  0  0  0  0  0  0  0
  107.8674    0.0062    0.0339 C   0  0  0  0  0  0  0  0  0  0  0  0
  109.0928    0.0070    0.0410 C   0  0  0  0  0  0  0  0  0  0  0  0
  110.4344    0.0044    0.0454 C   0  0  0  0  0  0  0  0  0  0  0  0
  111.6659    0.0009    0.0482 C   0  0  0  0  0  0  0  0  0  0  0  0
  113.0028   -0.0011    0.0480 C   0  0  0  0  0  0  0  0  0  0  0  0
  114.2343   -0.0018    0.0456 C   0  0  0  0  0  0  0  0  0  0  0  0
  115.5758   -0.0032    0.0408 C   0  0  0  0  0  0  0  0  0  0  0  0
  116.8013   -0.0015    0.0337 C   0  0  0  0  0  0  0  0  0  0  0  0
  126.4657    0.0023    0.0456 C   0  0  0  0  0  0  0  0  0  0  0  0
  127.6911    0.0027    0.0529 C   0  0  0  0  0  0  0  0  0  0  0  0
  129.0326    0.0006    0.0565 C   0  0  0  0  0  0  0  0  0  0  0  0
  130.2640    0.0011    0.0569 C   0  0  0  0  0  0  0  0  0  0  0  0
  131.6009    0.0011    0.0527 C   0  0  0  0  0  0  0  0  0  0  0  0
  132.8324    0.0022    0.0465 C   0  0  0  0  0  0  0  0  0  0  0  0
  134.1739    0.0037    0.0340 C   0  0  0  0  0  0  0  0  0  0  0  0
  135.3993    0.0085    0.0193 C   0  0  0  0  0  0  0  0  0  0  0  0
  145.0602    0.0442   -0.1170 C   0  0  0  0  0  0  0  0  0  0  0  0
  146.2851    0.0488   -0.1241 C   0  0  0  0  0  0  0  0  0  0  0  0
  147.6274    0.0500   -0.1274 C   0  0  0  0  0  0  0  0  0  0  0  0
  148.8583    0.0500   -0.1262 C   0  0  0  0  0  0  0  0  0  0  0  0
  150.1961    0.0477   -0.1181 C   0  0  0  0  0  0  0  0  0  0  0  0
  151.4269    0.0436   -0.1045 C   0  0  0  0  0  0  0  0  0  0  0  0
  152.7692    0.0364   -0.0815 C   0  0  0  0  0  0  0  0  0  0  0  0
  153.9936    0.0292   -0.0523 C   0  0  0  0  0  0  0  0  0  0  0  0
   81.0112    0.0216    0.0391 C   0  0  0  0  0  0  0  0  0  0  0  0
   81.6339   -1.2417    0.0261 C   0  0  0  0  0  0  0  0  0  0  0  0
   80.9807   -2.5004    0.0586 C   0  0  0  0  0  0  0  0  0  0  0  0
   81.9412   -3.4740    0.0112 C   0  0  0  0  0  0  0  0  0  0  0  0
   83.2093   -2.8363   -0.0604 C   0  0  0  0  0  0  0  0  0  0  0  0
   82.9730   -1.4876   -0.0376 N   0  0  0  0  0  0  0  0  0  0  0  0
   84.4661   -3.4519   -0.1256 C   0  0  0  0  0  0  0  0  0  0  0  0
   84.4724   -4.9345   -0.1885 C   0  0  0  0  0  0  0  0  0  0  0  0
   85.0982   -5.6789    0.8121 C   0  0  0  0  0  0  0  0  0  0  0  0
   85.1075   -7.0704    0.7704 C   0  0  0  0  0  0  0  0  0  0  0  0
   85.7043   -7.8058    1.7440 O   0  0  0  0  0  0  0  0  0  0  0  0
   84.4900   -7.7368   -0.2932 C   0  0  0  0  0  0  0  0  0  0  0  0
   84.4865   -9.0928   -0.3650 O   0  0  0  0  0  0  0  0  0  0  0  0
   83.8693   -6.9842   -1.2939 C   0  0  0  0  0  0  0  0  0  0  0  0
   83.2879   -7.6981   -2.3097 O   0  0  0  0  0  0  0  0  0  0  0  0
   83.8495   -5.5972   -1.2481 C   0  0  0  0  0  0  0  0  0  0  0  0
   85.6927   -2.7859   -0.1346 C   0  0  0  0  0  0  0  0  0  0  0  0
   86.9759   -3.4525   -0.2651 C   0  0  0  0  0  0  0  0  0  0  0  0
   87.9161   -2.4860   -0.2177 C   0  0  0  0  0  0  0  0  0  0  0  0
   85.8743   -1.4394   -0.0355 N   0  0  0  0  0  0  0  0  0  0  0  0
   87.2056   -1.2313   -0.0712 C   0  0  0  0  0  0  0  0  0  0  0  0
   87.8656    0.0113    0.0248 C   0  0  0  0  0  0  0  0  0  0  0  0
   87.2428    1.2719    0.1101 C   0  0  0  0  0  0  0  0  0  0  0  0
   87.8965    2.5253    0.2323 C   0  0  0  0  0  0  0  0  0  0  0  0
   86.9363    3.4994    0.2613 C   0  0  0  0  0  0  0  0  0  0  0  0
   85.6675    2.8684    0.1488 C   0  0  0  0  0  0  0  0  0  0  0  0
   85.9037    1.5213    0.0717 N   0  0  0  0  0  0  0  0  0  0  0  0
   84.4110    3.4860    0.1347 C   0  0  0  0  0  0  0  0  0  0  0  0
   84.4018    4.9698    0.1852 C   0  0  0  0  0  0  0  0  0  0  0  0
   85.0186    5.7101   -0.8237 C   0  0  0  0  0  0  0  0  0  0  0  0
   85.0034    7.0993   -0.7781 C   0  0  0  0  0  0  0  0  0  0  0  0
   85.5921    7.8274   -1.7577 O   0  0  0  0  0  0  0  0  0  0  0  0
   84.3774    7.7533    0.2843 C   0  0  0  0  0  0  0  0  0  0  0  0
   84.3812    9.1230    0.3045 O   0  0  0  0  0  0  0  0  0  0  0  0
   83.7662    7.0140    1.2940 C   0  0  0  0  0  0  0  0  0  0  0  0
   83.1770    7.7255    2.3056 O   0  0  0  0  0  0  0  0  0  0  0  0
   83.7730    5.6256    1.2472 C   0  0  0  0  0  0  0  0  0  0  0  0
   83.1839    2.8220    0.0791 C   0  0  0  0  0  0  0  0  0  0  0  0
   81.9004    3.4966    0.0021 C   0  0  0  0  0  0  0  0  0  0  0  0
   80.9600    2.5293   -0.0177 C   0  0  0  0  0  0  0  0  0  0  0  0
   81.6706    1.2673    0.0339 C   0  0  0  0  0  0  0  0  0  0  0  0
   83.0025    1.4726    0.0798 N   0  0  0  0  0  0  0  0  0  0  0  0
   79.9128   -2.6353    0.1169 H   0  0  0  0  0  0  0  0  0  0  0  0
   81.7862   -4.5403    0.0350 H   0  0  0  0  0  0  0  0  0  0  0  0
   83.6970   -0.7771   -0.0571 H   0  0  0  0  0  0  0  0  0  0  0  0
   85.5682   -5.1729    1.6478 H   0  0  0  0  0  0  0  0  0  0  0  0
   86.0985   -7.2376    2.4187 H   0  0  0  0  0  0  0  0  0  0  0  0
   84.0135   -9.3532   -1.1719 H   0  0  0  0  0  0  0  0  0  0  0  0
   82.8908   -7.1077   -2.9631 H   0  0  0  0  0  0  0  0  0  0  0  0
   83.3742   -5.0366   -2.0445 H   0  0  0  0  0  0  0  0  0  0  0  0
   87.1168   -4.5138   -0.3905 H   0  0  0  0  0  0  0  0  0  0  0  0
   88.9877   -2.5851   -0.2838 H   0  0  0  0  0  0  0  0  0  0  0  0
   88.9648    2.6556    0.2942 H   0  0  0  0  0  0  0  0  0  0  0  0
   87.0914    4.5612    0.3602 H   0  0  0  0  0  0  0  0  0  0  0  0
   85.1797    0.8143    0.0006 H   0  0  0  0  0  0  0  0  0  0  0  0
   85.4924    5.2142   -1.6611 H   0  0  0  0  0  0  0  0  0  0  0  0
   85.4728    8.7693   -1.5520 H   0  0  0  0  0  0  0  0  0  0  0  0
   83.9054    9.4119    1.0995 H   0  0  0  0  0  0  0  0  0  0  0  0
   82.7725    7.1331    2.9529 H   0  0  0  0  0  0  0  0  0  0  0  0
   83.3074    5.0566    2.0432 H   0  0  0  0  0  0  0  0  0  0  0  0
   81.7591    4.5641   -0.0461 H   0  0  0  0  0  0  0  0  0  0  0  0
   79.8882    2.6331   -0.0729 H   0  0  0  0  0  0  0  0  0  0  0  0
   99.6066   -0.0019    0.0270 C   0  0  0  0  0  0  0  0  0  0  0  0
  100.2338   -1.2636    0.0280 C   0  0  0  0  0  0  0  0  0  0  0  0
   99.5848   -2.5240    0.0701 C   0  0  0  0  0  0  0  0  0  0  0  0
  100.5486   -3.4948    0.0304 C   0  0  0  0  0  0  0  0  0  0  0  0
  101.8145   -2.8535   -0.0461 C   0  0  0  0  0  0  0  0  0  0  0  0
  101.5735   -1.5053   -0.0327 N   0  0  0  0  0  0  0  0  0  0  0  0
  103.0731   -3.4654   -0.1101 C   0  0  0  0  0  0  0  0  0  0  0  0
  103.0842   -4.9482   -0.1674 C   0  0  0  0  0  0  0  0  0  0  0  0
  103.7168   -5.6868    0.8332 C   0  0  0  0  0  0  0  0  0  0  0  0
  103.7320   -7.0784    0.7957 C   0  0  0  0  0  0  0  0  0  0  0  0
  104.3357   -7.8081    1.7692 O   0  0  0  0  0  0  0  0  0  0  0  0
  103.1137   -7.7507   -0.2637 C   0  0  0  0  0  0  0  0  0  0  0  0
  103.1162   -9.1068   -0.3315 O   0  0  0  0  0  0  0  0  0  0  0  0
  102.4859   -7.0038   -1.2643 C   0  0  0  0  0  0  0  0  0  0  0  0
  101.9042   -7.7234   -2.2759 O   0  0  0  0  0  0  0  0  0  0  0  0
  102.4602   -5.6168   -1.2226 C   0  0  0  0  0  0  0  0  0  0  0  0
  104.2979   -2.7960   -0.1245 C   0  0  0  0  0  0  0  0  0  0  0  0
  105.5826   -3.4596   -0.2565 C   0  0  0  0  0  0  0  0  0  0  0  0
  106.5204   -2.4905   -0.2134 C   0  0  0  0  0  0  0  0  0  0  0  0
  104.4762   -1.4489   -0.0292 N   0  0  0  0  0  0  0  0  0  0  0  0
  105.8069   -1.2375   -0.0679 C   0  0  0  0  0  0  0  0  0  0  0  0
  106.4638    0.0069    0.0264 C   0  0  0  0  0  0  0  0  0  0  0  0
  105.8369    1.2657    0.1105 C   0  0  0  0  0  0  0  0  0  0  0  0
  106.4861    2.5210    0.2346 C   0  0  0  0  0  0  0  0  0  0  0  0
  105.5227    3.4921    0.2600 C   0  0  0  0  0  0  0  0  0  0  0  0
  104.2564    2.8570    0.1430 C   0  0  0  0  0  0  0  0  0  0  0  0
  104.4971    1.5108    0.0680 N   0  0  0  0  0  0  0  0  0  0  0  0
  102.9980    3.4712    0.1208 C   0  0  0  0  0  0  0  0  0  0  0  0
  102.9855    4.9550    0.1671 C   0  0  0  0  0  0  0  0  0  0  0  0
  103.6081    5.6936   -0.8397 C   0  0  0  0  0  0  0  0  0  0  0  0
  103.5918    7.0828   -0.7973 C   0  0  0  0  0  0  0  0  0  0  0  0
  104.1865    7.8089   -1.7746 O   0  0  0  0  0  0  0  0  0  0  0  0
  102.9589    7.7389    0.2599 C   0  0  0  0  0  0  0  0  0  0  0  0
  102.9624    9.1085    0.2773 O   0  0  0  0  0  0  0  0  0  0  0  0
  102.3415    7.0014    1.2671 C   0  0  0  0  0  0  0  0  0  0  0  0
  101.7457    7.7148    2.2735 O   0  0  0  0  0  0  0  0  0  0  0  0
  102.3493    5.6128    1.2234 C   0  0  0  0  0  0  0  0  0  0  0  0
  101.7730    2.8041    0.0601 C   0  0  0  0  0  0  0  0  0  0  0  0
  100.4885    3.4753   -0.0285 C   0  0  0  0  0  0  0  0  0  0  0  0
   99.5504    2.5057   -0.0494 C   0  0  0  0  0  0  0  0  0  0  0  0
  100.2635    1.2458    0.0139 C   0  0  0  0  0  0  0  0  0  0  0  0
  101.5944    1.4539    0.0667 N   0  0  0  0  0  0  0  0  0  0  0  0
   98.5173   -2.6621    0.1290 H   0  0  0  0  0  0  0  0  0  0  0  0
  100.3972   -4.5614    0.0623 H   0  0  0  0  0  0  0  0  0  0  0  0
  102.2949   -0.7924   -0.0579 H   0  0  0  0  0  0  0  0  0  0  0  0
  104.1877   -5.1761    1.6656 H   0  0  0  0  0  0  0  0  0  0  0  0
  104.7306   -7.2362    2.4404 H   0  0  0  0  0  0  0  0  0  0  0  0
  102.6417   -9.3718   -1.1360 H   0  0  0  0  0  0  0  0  0  0  0  0
  101.5023   -7.1369   -2.9298 H   0  0  0  0  0  0  0  0  0  0  0  0
  101.9798   -5.0606   -2.0191 H   0  0  0  0  0  0  0  0  0  0  0  0
  105.7260   -4.5207   -0.3801 H   0  0  0  0  0  0  0  0  0  0  0  0
  107.5921   -2.5870   -0.2818 H   0  0  0  0  0  0  0  0  0  0  0  0
  107.5538    2.6548    0.3000 H   0  0  0  0  0  0  0  0  0  0  0  0
  105.6741    4.5544    0.3593 H   0  0  0  0  0  0  0  0  0  0  0  0
  103.7757    0.8013   -0.0055 H   0  0  0  0  0  0  0  0  0  0  0  0
  104.0875    5.1961   -1.6729 H   0  0  0  0  0  0  0  0  0  0  0  0
  104.0653    8.7513   -1.5722 H   0  0  0  0  0  0  0  0  0  0  0  0
  102.4812    9.3991    1.0684 H   0  0  0  0  0  0  0  0  0  0  0  0
  101.3372    7.1236    2.9194 H   0  0  0  0  0  0  0  0  0  0  0  0
  101.8790    5.0453    2.0178 H   0  0  0  0  0  0  0  0  0  0  0  0
  100.3453    4.5423   -0.0831 H   0  0  0  0  0  0  0  0  0  0  0  0
   98.4787    2.6068   -0.1120 H   0  0  0  0  0  0  0  0  0  0  0  0
  118.2049   -0.0020    0.0265 C   0  0  0  0  0  0  0  0  0  0  0  0
  118.8314   -1.2640    0.0276 C   0  0  0  0  0  0  0  0  0  0  0  0
  118.1818   -2.5242    0.0681 C   0  0  0  0  0  0  0  0  0  0  0  0
  119.1452   -3.4954    0.0291 C   0  0  0  0  0  0  0  0  0  0  0  0
  120.4115   -2.8547   -0.0454 C   0  0  0  0  0  0  0  0  0  0  0  0
  120.1711   -1.5063   -0.0315 N   0  0  0  0  0  0  0  0  0  0  0  0
  121.6698   -3.4671   -0.1076 C   0  0  0  0  0  0  0  0  0  0  0  0
  121.6812   -4.9498   -0.1652 C   0  0  0  0  0  0  0  0  0  0  0  0
  122.3133   -5.6882    0.8359 C   0  0  0  0  0  0  0  0  0  0  0  0
  122.3305   -7.0797    0.7977 C   0  0  0  0  0  0  0  0  0  0  0  0
  122.9340   -7.8092    1.7716 O   0  0  0  0  0  0  0  0  0  0  0  0
  121.7145   -7.7523   -0.2629 C   0  0  0  0  0  0  0  0  0  0  0  0
  121.7193   -9.1083   -0.3317 O   0  0  0  0  0  0  0  0  0  0  0  0
  121.0869   -7.0057   -1.2638 C   0  0  0  0  0  0  0  0  0  0  0  0
  120.5076   -7.7255   -2.2766 O   0  0  0  0  0  0  0  0  0  0  0  0
  121.0593   -5.6187   -1.2215 C   0  0  0  0  0  0  0  0  0  0  0  0
  122.8951   -2.7982   -0.1199 C   0  0  0  0  0  0  0  0  0  0  0  0
  124.1796   -3.4623   -0.2502 C   0  0  0  0  0  0  0  0  0  0  0  0
  125.1178   -2.4937   -0.2049 C   0  0  0  0  0  0  0  0  0  0  0  0
  123.0738   -1.4513   -0.0235 N   0  0  0  0  0  0  0  0  0  0  0  0
  124.4048   -1.2405   -0.0598 C   0  0  0  0  0  0  0  0  0  0  0  0
  125.0620    0.0035    0.0361 C   0  0  0  0  0  0  0  0  0  0  0  0
  124.4357    1.2626    0.1192 C   0  0  0  0  0  0  0  0  0  0  0  0
  125.0853    2.5175    0.2441 C   0  0  0  0  0  0  0  0  0  0  0  0
  124.1223    3.4891    0.2675 C   0  0  0  0  0  0  0  0  0  0  0  0
  122.8560    2.8547    0.1483 C   0  0  0  0  0  0  0  0  0  0  0  0
  123.0960    1.5083    0.0741 N   0  0  0  0  0  0  0  0  0  0  0  0
  121.5978    3.4695    0.1239 C   0  0  0  0  0  0  0  0  0  0  0  0
  121.5865    4.9534    0.1701 C   0  0  0  0  0  0  0  0  0  0  0  0
  122.2110    5.6913   -0.8359 C   0  0  0  0  0  0  0  0  0  0  0  0
  122.1969    7.0806   -0.7929 C   0  0  0  0  0  0  0  0  0  0  0  0
  122.7936    7.8062   -1.7694 O   0  0  0  0  0  0  0  0  0  0  0  0
  121.5643    7.7372    0.2641 C   0  0  0  0  0  0  0  0  0  0  0  0
  121.5703    9.1068    0.2824 O   0  0  0  0  0  0  0  0  0  0  0  0
  120.9449    7.0002    1.2706 C   0  0  0  0  0  0  0  0  0  0  0  0
  120.3497    7.7141    2.2769 O   0  0  0  0  0  0  0  0  0  0  0  0
  120.9505    5.6117    1.2262 C   0  0  0  0  0  0  0  0  0  0  0  0
  120.3727    2.8031    0.0617 C   0  0  0  0  0  0  0  0  0  0  0  0
  119.0886    3.4749   -0.0282 C   0  0  0  0  0  0  0  0  0  0  0  0
  118.1501    2.5058   -0.0499 C   0  0  0  0  0  0  0  0  0  0  0  0
  118.8625    1.2454    0.0142 C   0  0  0  0  0  0  0  0  0  0  0  0
  120.1933    1.4529    0.0682 N   0  0  0  0  0  0  0  0  0  0  0  0
  117.1141   -2.6618    0.1255 H   0  0  0  0  0  0  0  0  0  0  0  0
  118.9932   -4.5620    0.0601 H   0  0  0  0  0  0  0  0  0  0  0  0
  120.8929   -0.7937   -0.0554 H   0  0  0  0  0  0  0  0  0  0  0  0
  122.7826   -5.1774    1.6691 H   0  0  0  0  0  0  0  0  0  0  0  0
  123.3278   -7.2371    2.4432 H   0  0  0  0  0  0  0  0  0  0  0  0
  121.2466   -9.3735   -1.1372 H   0  0  0  0  0  0  0  0  0  0  0  0
  120.1060   -7.1393   -2.9310 H   0  0  0  0  0  0  0  0  0  0  0  0
  120.5793   -5.0628   -2.0183 H   0  0  0  0  0  0  0  0  0  0  0  0
  124.3228   -4.5234   -0.3745 H   0  0  0  0  0  0  0  0  0  0  0  0
  126.1896   -2.5907   -0.2716 H   0  0  0  0  0  0  0  0  0  0  0  0
  126.1529    2.6508    0.3115 H   0  0  0  0  0  0  0  0  0  0  0  0
  124.2742    4.5514    0.3666 H   0  0  0  0  0  0  0  0  0  0  0  0
  122.3745    0.7992   -0.0005 H   0  0  0  0  0  0  0  0  0  0  0  0
  122.6904    5.1935   -1.6688 H   0  0  0  0  0  0  0  0  0  0  0  0
  122.6739    8.7487   -1.5665 H   0  0  0  0  0  0  0  0  0  0  0  0
  121.0893    9.3978    1.0734 H   0  0  0  0  0  0  0  0  0  0  0  0
  119.9402    7.1232    2.9225 H   0  0  0  0  0  0  0  0  0  0  0  0
  120.4787    5.0445    2.0200 H   0  0  0  0  0  0  0  0  0  0  0  0
  118.9460    4.5419   -0.0829 H   0  0  0  0  0  0  0  0  0  0  0  0
  117.0785    2.6074   -0.1136 H   0  0  0  0  0  0  0  0  0  0  0  0
  136.8028    0.0125   -0.0004 C   0  0  0  0  0  0  0  0  0  0  0  0
  137.4329   -1.2478   -0.0074 C   0  0  0  0  0  0  0  0  0  0  0  0
  136.7875   -2.5098    0.0464 C   0  0  0  0  0  0  0  0  0  0  0  0
  137.7530   -3.4784   -0.0029 C   0  0  0  0  0  0  0  0  0  0  0  0
  139.0163   -2.8344   -0.0992 C   0  0  0  0  0  0  0  0  0  0  0  0
  138.7722   -1.4865   -0.0857 N   0  0  0  0  0  0  0  0  0  0  0  0
  140.2752   -3.4423   -0.1831 C   0  0  0  0  0  0  0  0  0  0  0  0
  140.2935   -4.9252   -0.2305 C   0  0  0  0  0  0  0  0  0  0  0  0
  140.9539   -5.6511    0.7617 C   0  0  0  0  0  0  0  0  0  0  0  0
  140.9788   -7.0427    0.7353 C   0  0  0  0  0  0  0  0  0  0  0  0
  141.6098   -7.7599    1.7008 O   0  0  0  0  0  0  0  0  0  0  0  0
  140.3418   -7.7282   -0.3044 C   0  0  0  0  0  0  0  0  0  0  0  0
  140.3531   -9.0848   -0.3613 O   0  0  0  0  0  0  0  0  0  0  0  0
  139.6863   -6.9943   -1.2966 C   0  0  0  0  0  0  0  0  0  0  0  0
  139.0877   -7.7265   -2.2892 O   0  0  0  0  0  0  0  0  0  0  0  0
  139.6512   -5.6071   -1.2659 C   0  0  0  0  0  0  0  0  0  0  0  0
  141.4972   -2.7677   -0.2248 C   0  0  0  0  0  0  0  0  0  0  0  0
  142.7809   -3.4264   -0.3868 C   0  0  0  0  0  0  0  0  0  0  0  0
  143.7159   -2.4540   -0.3630 C   0  0  0  0  0  0  0  0  0  0  0  0
  141.6721   -1.4206   -0.1313 N   0  0  0  0  0  0  0  0  0  0  0  0
  143.0015   -1.2041   -0.1974 C   0  0  0  0  0  0  0  0  0  0  0  0
  143.6557    0.0409   -0.1029 C   0  0  0  0  0  0  0  0  0  0  0  0
  143.0277    1.2965    0.0083 C   0  0  0  0  0  0  0  0  0  0  0  0
  143.6761    2.5518    0.1380 C   0  0  0  0  0  0  0  0  0  0  0  0
  142.7112    3.5202    0.1902 C   0  0  0  0  0  0  0  0  0  0  0  0
  141.4446    2.8836    0.0839 C   0  0  0  0  0  0  0  0  0  0  0  0
  141.6867    1.5392   -0.0108 N   0  0  0  0  0  0  0  0  0  0  0  0
  140.1845    3.4949    0.0850 C   0  0  0  0  0  0  0  0  0  0  0  0
  140.1696    4.9780    0.1494 C   0  0  0  0  0  0  0  0  0  0  0  0
  140.7796    5.7302   -0.8550 C   0  0  0  0  0  0  0  0  0  0  0  0
  140.7641    7.1188   -0.7935 C   0  0  0  0  0  0  0  0  0  0  0  0
  141.3473    7.8583   -1.7678 O   0  0  0  0  0  0  0  0  0  0  0  0
  140.1443    7.7603    0.2802 C   0  0  0  0  0  0  0  0  0  0  0  0
  140.1491    9.1296    0.3168 O   0  0  0  0  0  0  0  0  0  0  0  0
  139.5388    7.0092    1.2846 C   0  0  0  0  0  0  0  0  0  0  0  0
  138.9556    7.7088    2.3079 O   0  0  0  0  0  0  0  0  0  0  0  0
  139.5458    5.6214    1.2219 C   0  0  0  0  0  0  0  0  0  0  0  0
  138.9610    2.8248    0.0314 C   0  0  0  0  0  0  0  0  0  0  0  0
  137.6737    3.4928   -0.0375 C   0  0  0  0  0  0  0  0  0  0  0  0
  136.7384    2.5205   -0.0588 C   0  0  0  0  0  0  0  0  0  0  0  0
  137.4559    1.2621   -0.0135 C   0  0  0  0  0  0  0  0  0  0  0  0
  138.7865    1.4740    0.0273 N   0  0  0  0  0  0  0  0  0  0  0  0
  135.7212   -2.6502    0.1203 H   0  0  0  0  0  0  0  0  0  0  0  0
  137.6044   -4.5452    0.0345 H   0  0  0  0  0  0  0  0  0  0  0  0
  139.4917   -0.7722   -0.1221 H   0  0  0  0  0  0  0  0  0  0  0  0
  141.4399   -5.1300    1.5788 H   0  0  0  0  0  0  0  0  0  0  0  0
  142.0178   -7.1795    2.3567 H   0  0  0  0  0  0  0  0  0  0  0  0
  139.8639   -9.3599   -1.1535 H   0  0  0  0  0  0  0  0  0  0  0  0
  138.6682   -7.1484   -2.9395 H   0  0  0  0  0  0  0  0  0  0  0  0
  139.1496   -5.0613   -2.0564 H   0  0  0  0  0  0  0  0  0  0  0  0
  142.9253   -4.4867   -0.5163 H   0  0  0  0  0  0  0  0  0  0  0  0
  144.7861   -2.5463   -0.4557 H   0  0  0  0  0  0  0  0  0  0  0  0
  144.7444    2.6871    0.1888 H   0  0  0  0  0  0  0  0  0  0  0  0
  142.8619    4.5815    0.3004 H   0  0  0  0  0  0  0  0  0  0  0  0
  140.9656    0.8291   -0.0817 H   0  0  0  0  0  0  0  0  0  0  0  0
  141.2491    5.2442   -1.7005 H   0  0  0  0  0  0  0  0  0  0  0  0
  141.2291    8.7977   -1.5505 H   0  0  0  0  0  0  0  0  0  0  0  0
  139.6783    9.4092    1.1181 H   0  0  0  0  0  0  0  0  0  0  0  0
  138.5559    7.1087    2.9511 H   0  0  0  0  0  0  0  0  0  0  0  0
  139.0851    5.0431    2.0141 H   0  0  0  0  0  0  0  0  0  0  0  0
  137.5269    4.5599   -0.0802 H   0  0  0  0  0  0  0  0  0  0  0  0
  135.6658    2.6189   -0.1096 H   0  0  0  0  0  0  0  0  0  0  0  0
  1  2  4  0  0  0  0
  2  3  4  0  0  0  0
  3  4  2  0  0  0  0
  4  5  4  0  0  0  0
  2  6  4  0  0  0  0
  5  6  4  0  0  0  0
  5  7  4  0  0  0  0
  7  8  1  0  0  0  0
  8  9  4  0  0  0  0
  9 10  4  0  0  0  0
 10 11  1  0  0  0  0
 10 12  4  0  0  0  0
 12 13  1  0  0  0  0
 12 14  4  0  0  0  0
 14 15  1  0  0  0  0
  8 16  4  0  0  0  0
 14 16  4  0  0  0  0
  7 17  4  0  0  0  0
 17 18  1  0  0  0  0
 18 19  2  0  0  0  0
 17 20  4  0  0  0  0
 19 21  1  0  0  0  0
 20 21  4  0  0  0  0
 21 22  4  0  0  0  0
 22 23  4  0  0  0  0
 23 24  4  0  0  0  0
 24 25  2  0  0  0  0
 25 26  4  0  0  0  0
 23 27  4  0  0  0  0
 26 27  4  0  0  0  0
 26 28  4  0  0  0  0
 28 29  1  0  0  0  0
 29 30  4  0  0  0  0
 30 31  4  0  0  0  0
 31 32  1  0  0  0  0
 31 33  4  0  0  0  0
 33 34  1  0  0  0  0
 33 35  4  0  0  0  0
 35 36  1  0  0  0  0
 29 37  4  0  0  0  0
 35 37  4  0  0  0  0
 28 38  4  0  0  0  0
 38 39  1  0  0  0  0
 39 40  2  0  0  0  0
  1 41  4  0  0  0  0
 40 41  1  0  0  0  0
 38 42  4  0  0  0  0
 41 42  4  0  0  0  0
  1 43  1  0  0  0  0
  3 44  1  0  0  0  0
  4 45  1  0  0  0  0
  6 46  1  0  0  0  0
  9 47  1  0  0  0  0
 11 48  1  0  0  0  0
 13 49  1  0  0  0  0
 15 50  1  0  0  0  0
 16 51  1  0  0  0  0
 18 52  1  0  0  0  0
 19 53  1  0  0  0  0
 24 54  1  0  0  0  0
 25 55  1  0  0  0  0
 27 56  1  0  0  0  0
 30 57  1  0  0  0  0
 32 58  1  0  0  0  0
 34 59  1  0  0  0  0
 36 60  1  0  0  0  0
 37 61  1  0  0  0  0
 39 62  1  0  0  0  0
 40 63  1  0  0  0  0
 64 65  4  0  0  0  0
 65 66  4  0  0  0  0
 66 67  2  0  0  0  0
 67 68  4  0  0  0  0
 65 69  4  0  0  0  0
 68 69  4  0  0  0  0
 68 70  4  0  0  0  0
 70 71  1  0  0  0  0
 71 72  4  0  0  0  0
 72 73  4  0  0  0  0
 73 74  1  0  0  0  0
 73 75  4  0  0  0  0
 75 76  1  0  0  0  0
 75 77  4  0  0  0  0
 77 78  1  0  0  0  0
 71 79  4  0  0  0  0
 77 79  4  0  0  0  0
 70 80  4  0  0  0  0
 80 81  1  0  0  0  0
 81 82  2  0  0  0  0
 80 83  4  0  0  0  0
 82 84  1  0  0  0  0
 83 84  4  0  0  0  0
 84 85  4  0  0  0  0
 85 86  4  0  0  0  0
 86 87  4  0  0  0  0
 87 88  2  0  0  0  0
 88 89  4  0  0  0  0
 86 90  4  0  0  0  0
 89 90  4  0  0  0  0
 89 91  4  0  0  0  0
 91 92  1  0  0  0  0
 92 93  4  0  0  0  0
 93 94  4  0  0  0  0
 94 95  1  0  0  0  0
 94 96  4  0  0  0  0
 96 97  1  0  0  0  0
 96 98  4  0  0  0  0
 98 99  1  0  0  0  0
 92100  4  0  0  0  0
 98100  4  0  0  0  0
 91101  4  0  0  0  0
101102  1  0  0  0  0
102103  2  0  0  0  0
 64104  4  0  0  0  0
103104  1  0  0  0  0
101105  4  0  0  0  0
104105  4  0  0  0  0
 64106  1  0  0  0  0
 66107  1  0  0  0  0
 67108  1  0  0  0  0
 69109  1  0  0  0  0
 72110  1  0  0  0  0
 74111  1  0  0  0  0
 76112  1  0  0  0  0
 78113  1  0  0  0  0
 79114  1  0  0  0  0
 81115  1  0  0  0  0
 82116  1  0  0  0  0
 87117  1  0  0  0  0
 88118  1  0  0  0  0
 90119  1  0  0  0  0
 93120  1  0  0  0  0
 95121  1  0  0  0  0
 97122  1  0  0  0  0
 99123  1  0  0  0  0
100124  1  0  0  0  0
102125  1  0  0  0  0
103126  1  0  0  0  0
 22127  4  0  0  0  0
127128  3  0  0  0  0
128129  4  0  0  0  0
129130  3  0  0  0  0
130131  4  0  0  0  0
131132  3  0  0  0  0
132133  4  0  0  0  0
133134  3  0  0  0  0
135136  3  0  0  0  0
136137  4  0  0  0  0
137138  3  0  0  0  0
138139  4  0  0  0  0
139140  3  0  0  0  0
140141  4  0  0  0  0
141142  3  0  0  0  0
143144  3  0  0  0  0
144145  4  0  0  0  0
145146  3  0  0  0  0
146147  4  0  0  0  0
147148  3  0  0  0  0
148149  4  0  0  0  0
149150  3  0  0  0  0
151152  3  0  0  0  0
152153  4  0  0  0  0
153154  3  0  0  0  0
154155  4  0  0  0  0
155156  3  0  0  0  0
156157  4  0  0  0  0
157158  3  0  0  0  0
159160  3  0  0  0  0
160161  4  0  0  0  0
161162  3  0  0  0  0
162163  4  0  0  0  0
163164  3  0  0  0  0
164165  4  0  0  0  0
 85166  4  0  0  0  0
165166  3  0  0  0  0
134167  4  0  0  0  0
167168  4  0  0  0  0
168169  4  0  0  0  0
169170  2  0  0  0  0
170171  4  0  0  0  0
168172  4  0  0  0  0
171172  4  0  0  0  0
171173  4  0  0  0  0
173174  1  0  0  0  0
174175  4  0  0  0  0
175176  4  0  0  0  0
176177  1  0  0  0  0
176178  4  0  0  0  0
178179  1  0  0  0  0
178180  4  0  0  0  0
180181  1  0  0  0  0
174182  4  0  0  0  0
180182  4  0  0  0  0
173183  4  0  0  0  0
183184  1  0  0  0  0
184185  2  0  0  0  0
183186  4  0  0  0  0
185187  1  0  0  0  0
186187  4  0  0  0  0
135188  4  0  0  0  0
187188  4  0  0  0  0
188189  4  0  0  0  0
189190  4  0  0  0  0
190191  2  0  0  0  0
191192  4  0  0  0  0
189193  4  0  0  0  0
192193  4  0  0  0  0
192194  4  0  0  0  0
194195  1  0  0  0  0
195196  4  0  0  0  0
196197  4  0  0  0  0
197198  1  0  0  0  0
197199  4  0  0  0  0
199200  1  0  0  0  0
199201  4  0  0  0  0
201202  1  0  0  0  0
195203  4  0  0  0  0
201203  4  0  0  0  0
194204  4  0  0  0  0
204205  1  0  0  0  0
205206  2  0  0  0  0
167207  4  0  0  0  0
206207  1  0  0  0  0
204208  4  0  0  0  0
207208  4  0  0  0  0
169209  1  0  0  0  0
170210  1  0  0  0  0
172211  1  0  0  0  0
175212  1  0  0  0  0
177213  1  0  0  0  0
179214  1  0  0  0  0
181215  1  0  0  0  0
182216  1  0  0  0  0
184217  1  0  0  0  0
185218  1  0  0  0  0
190219  1  0  0  0  0
191220  1  0  0  0  0
193221  1  0  0  0  0
196222  1  0  0  0  0
198223  1  0  0  0  0
200224  1  0  0  0  0
202225  1  0  0  0  0
203226  1  0  0  0  0
205227  1  0  0  0  0
206228  1  0  0  0  0
142229  4  0  0  0  0
229230  4  0  0  0  0
230231  4  0  0  0  0
231232  2  0  0  0  0
232233  4  0  0  0  0
230234  4  0  0  0  0
233234  4  0  0  0  0
233235  4  0  0  0  0
235236  1  0  0  0  0
236237  4  0  0  0  0
237238  4  0  0  0  0
238239  1  0  0  0  0
238240  4  0  0  0  0
240241  1  0  0  0  0
240242  4  0  0  0  0
242243  1  0  0  0  0
236244  4  0  0  0  0
242244  4  0  0  0  0
235245  4  0  0  0  0
245246  1  0  0  0  0
246247  2  0  0  0  0
245248  4  0  0  0  0
247249  1  0  0  0  0
248249  4  0  0  0  0
143250  4  0  0  0  0
249250  4  0  0  0  0
250251  4  0  0  0  0
251252  4  0  0  0  0
252253  2  0  0  0  0
253254  4  0  0  0  0
251255  4  0  0  0  0
254255  4  0  0  0  0
254256  4  0  0  0  0
256257  1  0  0  0  0
257258  4  0  0  0  0
258259  4  0  0  0  0
259260  1  0  0  0  0
259261  4  0  0  0  0
261262  1  0  0  0  0
261263  4  0  0  0  0
263264  1  0  0  0  0
257265  4  0  0  0  0
263265  4  0  0  0  0
256266  4  0  0  0  0
266267  1  0  0  0  0
267268  2  0  0  0  0
229269  4  0  0  0  0
268269  1  0  0  0  0
266270  4  0  0  0  0
269270  4  0  0  0  0
231271  1  0  0  0  0
232272  1  0  0  0  0
234273  1  0  0  0  0
237274  1  0  0  0  0
239275  1  0  0  0  0
241276  1  0  0  0  0
243277  1  0  0  0  0
244278  1  0  0  0  0
246279  1  0  0  0  0
247280  1  0  0  0  0
252281  1  0  0  0  0
253282  1  0  0  0  0
255283  1  0  0  0  0
258284  1  0  0  0  0
260285  1  0  0  0  0
262286  1  0  0  0  0
264287  1  0  0  0  0
265288  1  0  0  0  0
267289  1  0  0  0  0
268290  1  0  0  0  0
150291  4  0  0  0  0
291292  4  0  0  0  0
292293  4  0  0  0  0
293294  2  0  0  0  0
294295  4  0  0  0  0
292296  4  0  0  0  0
295296  4  0  0  0  0
295297  4  0  0  0  0
297298  1  0  0  0  0
298299  4  0  0  0  0
299300  4  0  0  0  0
300301  1  0  0  0  0
300302  4  0  0  0  0
302303  1  0  0  0  0
302304  4  0  0  0  0
304305  1  0  0  0  0
298306  4  0  0  0  0
304306  4  0  0  0  0
297307  4  0  0  0  0
307308  1  0  0  0  0
308309  2  0  0  0  0
307310  4  0  0  0  0
309311  1  0  0  0  0
310311  4  0  0  0  0
151312  4  0  0  0  0
311312  4  0  0  0  0
312313  4  0  0  0  0
313314  4  0  0  0  0
314315  2  0  0  0  0
315316  4  0  0  0  0
313317  4  0  0  0  0
316317  4  0  0  0  0
316318  4  0  0  0  0
318319  1  0  0  0  0
319320  4  0  0  0  0
320321  4  0  0  0  0
321322  1  0  0  0  0
321323  4  0  0  0  0
323324  1  0  0  0  0
323325  4  0  0  0  0
325326  1  0  0  0  0
319327  4  0  0  0  0
325327  4  0  0  0  0
318328  4  0  0  0  0
328329  1  0  0  0  0
329330  2  0  0  0  0
291331  4  0  0  0  0
330331  1  0  0  0  0
328332  4  0  0  0  0
331332  4  0  0  0  0
293333  1  0  0  0  0
294334  1  0  0  0  0
296335  1  0  0  0  0
299336  1  0  0  0  0
301337  1  0  0  0  0
303338  1  0  0  0  0
305339  1  0  0  0  0
306340  1  0  0  0  0
308341  1  0  0  0  0
309342  1  0  0  0  0
314343  1  0  0  0  0
315344  1  0  0  0  0
317345  1  0  0  0  0
320346  1  0  0  0  0
322347  1  0  0  0  0
324348  1  0  0  0  0
326349  1  0  0  0  0
327350  1  0  0  0  0
329351  1  0  0  0  0
330352  1  0  0  0  0
158353  4  0  0  0  0
353354  4  0  0  0  0
354355  4  0  0  0  0
355356  2  0  0  0  0
356357  4  0  0  0  0
354358  4  0  0  0  0
357358  4  0  0  0  0
357359  4  0  0  0  0
359360  1  0  0  0  0
360361  4  0  0  0  0
361362  4  0  0  0  0
362363  1  0  0  0  0
362364  4  0  0  0  0
364365  1  0  0  0  0
364366  4  0  0  0  0
366367  1  0  0  0  0
360368  4  0  0  0  0
366368  4  0  0  0  0
359369  4  0  0  0  0
369370  1  0  0  0  0
370371  2  0  0  0  0
369372  4  0  0  0  0
371373  1  0  0  0  0
372373  4  0  0  0  0
159374  4  0  0  0  0
373374  4  0  0  0  0
374375  4  0  0  0  0
375376  4  0  0  0  0
376377  2  0  0  0  0
377378  4  0  0  0  0
375379  4  0  0  0  0
378379  4  0  0  0  0
378380  4  0  0  0  0
380381  1  0  0  0  0
381382  4  0  0  0  0
382383  4  0  0  0  0
383384  1  0  0  0  0
383385  4  0  0  0  0
385386  1  0  0  0  0
385387  4  0  0  0  0
387388  1  0  0  0  0
381389  4  0  0  0  0
387389  4  0  0  0  0
380390  4  0  0  0  0
390391  1  0  0  0  0
391392  2  0  0  0  0
353393  4  0  0  0  0
392393  1  0  0  0  0
390394  4  0  0  0  0
393394  4  0  0  0  0
355395  1  0  0  0  0
356396  1  0  0  0  0
358397  1  0  0  0  0
361398  1  0  0  0  0
363399  1  0  0  0  0
365400  1  0  0  0  0
367401  1  0  0  0  0
368402  1  0  0  0  0
370403  1  0  0  0  0
371404  1  0  0  0  0
376405  1  0  0  0  0
377406  1  0  0  0  0
379407  1  0  0  0  0
382408  1  0  0  0  0
384409  1  0  0  0  0
386410  1  0  0  0  0
388411  1  0  0  0  0
389412  1  0  0  0  0
391413  1  0  0  0  0
392414  1  0  0  0  0
M  END
