 xtb: 6.5.1 (b24c23e)
          07302203423D

213242  0     0  0            999 V2000
   30.9604    0.0604   -0.0593 Ni  0  0  0  0  0  0  0  0  0  0  0  0
   27.5739    0.1379   -0.1362 C   0  0  0  0  0  0  0  0  0  0  0  0
   28.2192    0.9005    0.8157 C   0  0  0  0  0  0  0  0  0  0  0  0
   27.5419    1.6799    1.8055 C   0  0  0  0  0  0  0  0  0  0  0  0
   28.4958    2.3646    2.4804 C   0  0  0  0  0  0  0  0  0  0  0  0
   29.7542    2.0190    1.8875 C   0  0  0  0  0  0  0  0  0  0  0  0
   29.5774    1.0820    0.9003 N   0  0  0  0  0  0  0  0  0  0  0  0
   30.9637    2.6204    2.2183 C   0  0  0  0  0  0  0  0  0  0  0  0
   30.9689    3.7191    3.2094 C   0  0  0  0  0  0  0  0  0  0  0  0
   30.2076    4.8734    3.0039 C   0  0  0  0  0  0  0  0  0  0  0  0
   30.2181    5.9008    3.9279 C   0  0  0  0  0  0  0  0  0  0  0  0
   30.9879    5.8019    5.0937 C   0  0  0  0  0  0  0  0  0  0  0  0
   30.9215    6.8324    6.0190 N   0  0  0  0  0  0  0  0  0  0  0  0
   32.0152    7.0268    6.9616 C   0  0  0  0  0  0  0  0  0  0  0  0
   31.7397    4.6434    5.3110 C   0  0  0  0  0  0  0  0  0  0  0  0
   31.7330    3.6244    4.3741 C   0  0  0  0  0  0  0  0  0  0  0  0
   32.1679    2.2314    1.6437 C   0  0  0  0  0  0  0  0  0  0  0  0
   33.4180    2.8836    1.8890 C   0  0  0  0  0  0  0  0  0  0  0  0
   34.3702    2.1606    1.2504 C   0  0  0  0  0  0  0  0  0  0  0  0
   32.3490    1.1452    0.8171 N   0  0  0  0  0  0  0  0  0  0  0  0
   33.6995    1.0747    0.6110 C   0  0  0  0  0  0  0  0  0  0  0  0
   34.3683    0.0332   -0.0401 C   0  0  0  0  0  0  0  0  0  0  0  0
   33.6910   -1.0079   -0.6833 C   0  0  0  0  0  0  0  0  0  0  0  0
   34.3512   -2.1199   -1.2878 C   0  0  0  0  0  0  0  0  0  0  0  0
   33.3924   -2.8528   -1.9050 C   0  0  0  0  0  0  0  0  0  0  0  0
   32.1502   -2.1753   -1.6901 C   0  0  0  0  0  0  0  0  0  0  0  0
   32.3412   -1.0666   -0.8954 N   0  0  0  0  0  0  0  0  0  0  0  0
   30.9477   -2.5534   -2.2746 C   0  0  0  0  0  0  0  0  0  0  0  0
   30.9370   -3.6915   -3.2203 C   0  0  0  0  0  0  0  0  0  0  0  0
   31.7244   -3.6730   -4.3730 C   0  0  0  0  0  0  0  0  0  0  0  0
   31.7132   -4.7320   -5.2647 C   0  0  0  0  0  0  0  0  0  0  0  0
   30.9185   -5.8542   -5.0123 C   0  0  0  0  0  0  0  0  0  0  0  0
   30.8338   -6.9216   -5.8930 N   0  0  0  0  0  0  0  0  0  0  0  0
   31.9369   -7.1941   -6.8048 C   0  0  0  0  0  0  0  0  0  0  0  0
   30.1238   -5.8757   -3.8592 C   0  0  0  0  0  0  0  0  0  0  0  0
   30.1315   -4.8088   -2.9812 C   0  0  0  0  0  0  0  0  0  0  0  0
   29.7516   -1.8963   -2.0057 C   0  0  0  0  0  0  0  0  0  0  0  0
   28.5062   -2.2022   -2.6459 C   0  0  0  0  0  0  0  0  0  0  0  0
   27.5585   -1.4437   -2.0453 C   0  0  0  0  0  0  0  0  0  0  0  0
   28.2264   -0.6681   -1.0462 C   0  0  0  0  0  0  0  0  0  0  0  0
   29.5763   -0.9196   -1.0582 N   0  0  0  0  0  0  0  0  0  0  0  0
   26.4907    0.1660   -0.1642 H   0  0  0  0  0  0  0  0  0  0  0  0
   26.4736    1.6862    1.9532 H   0  0  0  0  0  0  0  0  0  0  0  0
   28.3702    3.0427    3.3088 H   0  0  0  0  0  0  0  0  0  0  0  0
   29.6217    4.9730    2.0966 H   0  0  0  0  0  0  0  0  0  0  0  0
   29.6288    6.7947    3.7521 H   0  0  0  0  0  0  0  0  0  0  0  0
   30.6028    7.7038    5.6126 H   0  0  0  0  0  0  0  0  0  0  0  0
   32.9829    7.0821    6.4500 H   0  0  0  0  0  0  0  0  0  0  0  0
   32.0370    6.2090    7.6831 H   0  0  0  0  0  0  0  0  0  0  0  0
   31.8366    7.9592    7.4969 H   0  0  0  0  0  0  0  0  0  0  0  0
   32.3296    4.5295    6.2122 H   0  0  0  0  0  0  0  0  0  0  0  0
   32.3132    2.7267    4.5589 H   0  0  0  0  0  0  0  0  0  0  0  0
   33.5412    3.7835    2.4693 H   0  0  0  0  0  0  0  0  0  0  0  0
   35.4337    2.3332    1.2095 H   0  0  0  0  0  0  0  0  0  0  0  0
   35.4122   -2.3045   -1.2360 H   0  0  0  0  0  0  0  0  0  0  0  0
   33.5070   -3.7727   -2.4547 H   0  0  0  0  0  0  0  0  0  0  0  0
   32.3373   -2.8038   -4.5859 H   0  0  0  0  0  0  0  0  0  0  0  0
   32.3225   -4.6772   -6.1584 H   0  0  0  0  0  0  0  0  0  0  0  0
   30.4781   -7.7631   -5.4554 H   0  0  0  0  0  0  0  0  0  0  0  0
   32.0009   -6.4092   -7.5595 H   0  0  0  0  0  0  0  0  0  0  0  0
   31.7350   -8.1418   -7.3037 H   0  0  0  0  0  0  0  0  0  0  0  0
   32.8924   -7.2611   -6.2723 H   0  0  0  0  0  0  0  0  0  0  0  0
   29.5004   -6.7403   -3.6572 H   0  0  0  0  0  0  0  0  0  0  0  0
   29.5242   -4.8472   -2.0835 H   0  0  0  0  0  0  0  0  0  0  0  0
   28.3857   -2.9041   -3.4551 H   0  0  0  0  0  0  0  0  0  0  0  0
   26.4996   -1.4014   -2.2458 H   0  0  0  0  0  0  0  0  0  0  0  0
   68.0758    0.0149   -0.0180 Ni  0  0  0  0  0  0  0  0  0  0  0  0
   71.4598    0.0972   -0.1550 C   0  0  0  0  0  0  0  0  0  0  0  0
   70.8152   -1.0043   -0.6797 C   0  0  0  0  0  0  0  0  0  0  0  0
   71.4928   -2.1354   -1.2342 C   0  0  0  0  0  0  0  0  0  0  0  0
   70.5378   -2.9458   -1.7498 C   0  0  0  0  0  0  0  0  0  0  0  0
   69.2782   -2.2994   -1.5260 C   0  0  0  0  0  0  0  0  0  0  0  0
   69.4560   -1.1336   -0.8241 N   0  0  0  0  0  0  0  0  0  0  0  0
   68.0658   -2.7586   -2.0295 C   0  0  0  0  0  0  0  0  0  0  0  0
   68.0618   -3.9544   -2.9011 C   0  0  0  0  0  0  0  0  0  0  0  0
   68.8076   -3.9782   -4.0833 C   0  0  0  0  0  0  0  0  0  0  0  0
   68.7992   -5.0911   -4.9022 C   0  0  0  0  0  0  0  0  0  0  0  0
   68.0477   -6.2218   -4.5586 C   0  0  0  0  0  0  0  0  0  0  0  0
   68.1164   -7.3357   -5.3812 N   0  0  0  0  0  0  0  0  0  0  0  0
   67.0346   -8.3113   -5.3668 C   0  0  0  0  0  0  0  0  0  0  0  0
   67.3121   -6.2089   -3.3697 C   0  0  0  0  0  0  0  0  0  0  0  0
   67.3161   -5.0848   -2.5617 C   0  0  0  0  0  0  0  0  0  0  0  0
   66.8597   -2.1262   -1.7523 C   0  0  0  0  0  0  0  0  0  0  0  0
   65.6036   -2.5169   -2.3161 C   0  0  0  0  0  0  0  0  0  0  0  0
   64.6536   -1.7489   -1.7286 C   0  0  0  0  0  0  0  0  0  0  0  0
   66.6834   -1.0897   -0.8630 N   0  0  0  0  0  0  0  0  0  0  0  0
   65.3317   -0.8862   -0.8152 C   0  0  0  0  0  0  0  0  0  0  0  0
   64.6700   -0.0322    0.0729 C   0  0  0  0  0  0  0  0  0  0  0  0
   65.3544    0.8271    0.9387 C   0  0  0  0  0  0  0  0  0  0  0  0
   64.7038    1.6523    1.9047 C   0  0  0  0  0  0  0  0  0  0  0  0
   65.6645    2.4295    2.4622 C   0  0  0  0  0  0  0  0  0  0  0  0
   66.8978    2.0877    1.8215 C   0  0  0  0  0  0  0  0  0  0  0  0
   66.7013    1.0639    0.9215 N   0  0  0  0  0  0  0  0  0  0  0  0
   68.0953    2.7613    2.0304 C   0  0  0  0  0  0  0  0  0  0  0  0
   68.1053    3.9463    2.9162 C   0  0  0  0  0  0  0  0  0  0  0  0
   67.2873    5.0456    2.6481 C   0  0  0  0  0  0  0  0  0  0  0  0
   67.2984    6.1629    3.4653 C   0  0  0  0  0  0  0  0  0  0  0  0
   68.1249    6.2005    4.5922 C   0  0  0  0  0  0  0  0  0  0  0  0
   68.2119    7.3116    5.4166 N   0  0  0  0  0  0  0  0  0  0  0  0
   67.0938    8.2420    5.4954 C   0  0  0  0  0  0  0  0  0  0  0  0
   68.9490    5.1012    4.8643 C   0  0  0  0  0  0  0  0  0  0  0  0
   68.9404    3.9950    4.0363 C   0  0  0  0  0  0  0  0  0  0  0  0
   69.2851    2.3645    1.4288 C   0  0  0  0  0  0  0  0  0  0  0  0
   70.5258    3.0703    1.5585 C   0  0  0  0  0  0  0  0  0  0  0  0
   71.4718    2.3188    0.9464 C   0  0  0  0  0  0  0  0  0  0  0  0
   70.8068    1.1616    0.4319 C   0  0  0  0  0  0  0  0  0  0  0  0
   69.4600    1.2193    0.6934 N   0  0  0  0  0  0  0  0  0  0  0  0
   72.5422    0.1256   -0.2021 H   0  0  0  0  0  0  0  0  0  0  0  0
   72.5620   -2.2754   -1.2195 H   0  0  0  0  0  0  0  0  0  0  0  0
   70.6632   -3.8994   -2.2364 H   0  0  0  0  0  0  0  0  0  0  0  0
   69.3794   -3.1030   -4.3720 H   0  0  0  0  0  0  0  0  0  0  0  0
   69.3759   -5.0930   -5.8212 H   0  0  0  0  0  0  0  0  0  0  0  0
   68.4202   -7.1104   -6.3209 H   0  0  0  0  0  0  0  0  0  0  0  0
   66.0590   -7.8332   -5.5113 H   0  0  0  0  0  0  0  0  0  0  0  0
   67.0321   -8.8531   -4.4201 H   0  0  0  0  0  0  0  0  0  0  0  0
   67.2111   -9.0216   -6.1744 H   0  0  0  0  0  0  0  0  0  0  0  0
   66.7371   -7.0756   -3.0675 H   0  0  0  0  0  0  0  0  0  0  0  0
   66.7487   -5.0910   -1.6372 H   0  0  0  0  0  0  0  0  0  0  0  0
   65.4749   -3.2767   -3.0696 H   0  0  0  0  0  0  0  0  0  0  0  0
   63.5873   -1.7564   -1.8875 H   0  0  0  0  0  0  0  0  0  0  0  0
   63.6476    1.6278    2.1195 H   0  0  0  0  0  0  0  0  0  0  0  0
   65.5569    3.1666    3.2412 H   0  0  0  0  0  0  0  0  0  0  0  0
   66.6501    5.0340    1.7705 H   0  0  0  0  0  0  0  0  0  0  0  0
   66.6644    7.0054    3.2178 H   0  0  0  0  0  0  0  0  0  0  0  0
   68.5992    7.0951    6.3272 H   0  0  0  0  0  0  0  0  0  0  0  0
   66.9908    8.7836    4.5543 H   0  0  0  0  0  0  0  0  0  0  0  0
   67.3073    8.9586    6.2883 H   0  0  0  0  0  0  0  0  0  0  0  0
   66.1539    7.7243    5.7182 H   0  0  0  0  0  0  0  0  0  0  0  0
   69.5966    5.1226    5.7345 H   0  0  0  0  0  0  0  0  0  0  0  0
   69.5709    3.1440    4.2701 H   0  0  0  0  0  0  0  0  0  0  0  0
   70.6451    4.0215    2.0514 H   0  0  0  0  0  0  0  0  0  0  0  0
   72.5274    2.5140    0.8431 H   0  0  0  0  0  0  0  0  0  0  0  0
   35.7722    0.0255   -0.0380 C   0  0  0  0  0  0  0  0  0  0  0  0
   36.9967    0.0177   -0.0370 C   0  0  0  0  0  0  0  0  0  0  0  0
   38.3395    0.0076   -0.0354 C   0  0  0  0  0  0  0  0  0  0  0  0
   39.5702   -0.0032   -0.0346 C   0  0  0  0  0  0  0  0  0  0  0  0
   40.9081   -0.0120   -0.0327 C   0  0  0  0  0  0  0  0  0  0  0  0
   42.1390   -0.0193   -0.0309 C   0  0  0  0  0  0  0  0  0  0  0  0
   43.4816   -0.0218   -0.0277 C   0  0  0  0  0  0  0  0  0  0  0  0
   44.7063   -0.0210   -0.0256 C   0  0  0  0  0  0  0  0  0  0  0  0
   54.3326   -0.0107    0.0722 C   0  0  0  0  0  0  0  0  0  0  0  0
   55.5572   -0.0167    0.0895 C   0  0  0  0  0  0  0  0  0  0  0  0
   56.8997   -0.0238    0.1047 C   0  0  0  0  0  0  0  0  0  0  0  0
   58.1305   -0.0293    0.1128 C   0  0  0  0  0  0  0  0  0  0  0  0
   59.4685   -0.0344    0.1174 C   0  0  0  0  0  0  0  0  0  0  0  0
   60.6992   -0.0372    0.1172 C   0  0  0  0  0  0  0  0  0  0  0  0
   62.0420   -0.0384    0.1093 C   0  0  0  0  0  0  0  0  0  0  0  0
   63.2664   -0.0383    0.0968 C   0  0  0  0  0  0  0  0  0  0  0  0
   49.5197    0.0086   -0.0096 Ni  0  0  0  0  0  0  0  0  0  0  0  0
   46.1094   -0.0125   -0.0237 C   0  0  0  0  0  0  0  0  0  0  0  0
   46.7937   -1.0968   -0.5834 C   0  0  0  0  0  0  0  0  0  0  0  0
   46.1426   -2.2467   -1.1225 C   0  0  0  0  0  0  0  0  0  0  0  0
   47.1052   -2.9976   -1.7128 C   0  0  0  0  0  0  0  0  0  0  0  0
   48.3406   -2.2973   -1.5394 C   0  0  0  0  0  0  0  0  0  0  0  0
   48.1433   -1.1542   -0.7983 N   0  0  0  0  0  0  0  0  0  0  0  0
   49.5451   -2.6865   -2.1145 C   0  0  0  0  0  0  0  0  0  0  0  0
   49.5541   -3.8461   -3.0330 C   0  0  0  0  0  0  0  0  0  0  0  0
   50.3566   -4.9604   -2.7707 C   0  0  0  0  0  0  0  0  0  0  0  0
   50.3645   -6.0430   -3.6291 C   0  0  0  0  0  0  0  0  0  0  0  0
   49.5791   -6.0379   -4.7889 C   0  0  0  0  0  0  0  0  0  0  0  0
   49.5864   -7.1649   -5.5957 N   0  0  0  0  0  0  0  0  0  0  0  0
   49.2018   -7.0544   -6.9965 C   0  0  0  0  0  0  0  0  0  0  0  0
   48.7701   -4.9284   -5.0526 C   0  0  0  0  0  0  0  0  0  0  0  0
   48.7601   -3.8526   -4.1816 C   0  0  0  0  0  0  0  0  0  0  0  0
   50.7417   -2.0283   -1.8546 C   0  0  0  0  0  0  0  0  0  0  0  0
   51.9913   -2.3626   -2.4657 C   0  0  0  0  0  0  0  0  0  0  0  0
   52.9412   -1.6157   -1.8501 C   0  0  0  0  0  0  0  0  0  0  0  0
   50.9183   -1.0373   -0.9152 N   0  0  0  0  0  0  0  0  0  0  0  0
   52.2674   -0.8169   -0.8783 C   0  0  0  0  0  0  0  0  0  0  0  0
   52.9298   -0.0028    0.0471 C   0  0  0  0  0  0  0  0  0  0  0  0
   52.2423    0.8250    0.9412 C   0  0  0  0  0  0  0  0  0  0  0  0
   52.8893    1.6370    1.9203 C   0  0  0  0  0  0  0  0  0  0  0  0
   51.9265    2.4092    2.4825 C   0  0  0  0  0  0  0  0  0  0  0  0
   50.6956    2.0720    1.8364 C   0  0  0  0  0  0  0  0  0  0  0  0
   50.8948    1.0593    0.9256 N   0  0  0  0  0  0  0  0  0  0  0  0
   49.4946    2.7395    2.0489 C   0  0  0  0  0  0  0  0  0  0  0  0
   49.4869    3.9255    2.9329 C   0  0  0  0  0  0  0  0  0  0  0  0
   48.6659    3.9724    4.0613 C   0  0  0  0  0  0  0  0  0  0  0  0
   48.6597    5.0760    4.8969 C   0  0  0  0  0  0  0  0  0  0  0  0
   49.4806    6.1728    4.6175 C   0  0  0  0  0  0  0  0  0  0  0  0
   49.4735    7.3255    5.3873 N   0  0  0  0  0  0  0  0  0  0  0  0
   49.0526    7.2619    6.7806 C   0  0  0  0  0  0  0  0  0  0  0  0
   50.2952    6.1364    3.4787 C   0  0  0  0  0  0  0  0  0  0  0  0
   50.3023    5.0268    2.6556 C   0  0  0  0  0  0  0  0  0  0  0  0
   48.3016    2.3299    1.4646 C   0  0  0  0  0  0  0  0  0  0  0  0
   47.0567    3.0191    1.6124 C   0  0  0  0  0  0  0  0  0  0  0  0
   46.1064    2.2395    1.0395 C   0  0  0  0  0  0  0  0  0  0  0  0
   46.7756    1.0866    0.5298 C   0  0  0  0  0  0  0  0  0  0  0  0
   48.1229    1.1669    0.7495 N   0  0  0  0  0  0  0  0  0  0  0  0
   45.0841   -2.4401   -1.0536 H   0  0  0  0  0  0  0  0  0  0  0  0
   46.9978   -3.9442   -2.2169 H   0  0  0  0  0  0  0  0  0  0  0  0
   50.9629   -4.9827   -1.8717 H   0  0  0  0  0  0  0  0  0  0  0  0
   50.9824   -6.9069   -3.4073 H   0  0  0  0  0  0  0  0  0  0  0  0
   50.4133   -7.7354   -5.4658 H   0  0  0  0  0  0  0  0  0  0  0  0
   48.1350   -6.8406   -7.0758 H   0  0  0  0  0  0  0  0  0  0  0  0
   49.7666   -6.2668   -7.5085 H   0  0  0  0  0  0  0  0  0  0  0  0
   49.4021   -8.0120   -7.4772 H   0  0  0  0  0  0  0  0  0  0  0  0
   48.1454   -4.8984   -5.9371 H   0  0  0  0  0  0  0  0  0  0  0  0
   48.1417   -2.9903   -4.4066 H   0  0  0  0  0  0  0  0  0  0  0  0
   52.1173   -3.0752   -3.2645 H   0  0  0  0  0  0  0  0  0  0  0  0
   54.0044   -1.5970   -2.0283 H   0  0  0  0  0  0  0  0  0  0  0  0
   53.9451    1.6116    2.1368 H   0  0  0  0  0  0  0  0  0  0  0  0
   52.0317    3.1391    3.2686 H   0  0  0  0  0  0  0  0  0  0  0  0
   48.0388    3.1201    4.2999 H   0  0  0  0  0  0  0  0  0  0  0  0
   48.0134    5.0775    5.7660 H   0  0  0  0  0  0  0  0  0  0  0  0
   50.3068    7.8871    5.2606 H   0  0  0  0  0  0  0  0  0  0  0  0
   49.5965    6.4855    7.3306 H   0  0  0  0  0  0  0  0  0  0  0  0
   49.2501    8.2321    7.2365 H   0  0  0  0  0  0  0  0  0  0  0  0
   47.9822    7.0604    6.8391 H   0  0  0  0  0  0  0  0  0  0  0  0
   50.9236    6.9894    3.2451 H   0  0  0  0  0  0  0  0  0  0  0  0
   50.9313    5.0167    1.7721 H   0  0  0  0  0  0  0  0  0  0  0  0
   46.9339    3.9774    2.0901 H   0  0  0  0  0  0  0  0  0  0  0  0
   45.0459    2.4170    0.9616 H   0  0  0  0  0  0  0  0  0  0  0  0
  2  3  4  0  0  0  0
  3  4  4  0  0  0  0
  4  5  2  0  0  0  0
  5  6  4  0  0  0  0
  1  7  1  0  0  0  0
  3  7  4  0  0  0  0
  6  7  4  0  0  0  0
  6  8  4  0  0  0  0
  8  9  1  0  0  0  0
  9 10  4  0  0  0  0
 10 11  4  0  0  0  0
 11 12  4  0  0  0  0
 12 13  1  0  0  0  0
 13 14  1  0  0  0  0
 12 15  4  0  0  0  0
  9 16  4  0  0  0  0
 15 16  4  0  0  0  0
  8 17  4  0  0  0  0
 17 18  4  0  0  0  0
 18 19  2  0  0  0  0
  1 20  1  0  0  0  0
 17 20  4  0  0  0  0
 19 21  4  0  0  0  0
 20 21  4  0  0  0  0
 21 22  4  0  0  0  0
 22 23  4  0  0  0  0
 23 24  4  0  0  0  0
 24 25  2  0  0  0  0
 25 26  4  0  0  0  0
  1 27  1  0  0  0  0
 23 27  4  0  0  0  0
 26 27  4  0  0  0  0
 26 28  4  0  0  0  0
 28 29  1  0  0  0  0
 29 30  4  0  0  0  0
 30 31  4  0  0  0  0
 31 32  4  0  0  0  0
 32 33  1  0  0  0  0
 33 34  1  0  0  0  0
 32 35  4  0  0  0  0
 29 36  4  0  0  0  0
 35 36  4  0  0  0  0
 28 37  4  0  0  0  0
 37 38  4  0  0  0  0
 38 39  2  0  0  0  0
  2 40  4  0  0  0  0
 39 40  4  0  0  0  0
  1 41  1  0  0  0  0
 37 41  4  0  0  0  0
 40 41  4  0  0  0  0
  2 42  1  0  0  0  0
  4 43  1  0  0  0  0
  5 44  1  0  0  0  0
 10 45  1  0  0  0  0
 11 46  1  0  0  0  0
 13 47  1  0  0  0  0
 14 48  1  0  0  0  0
 14 49  1  0  0  0  0
 14 50  1  0  0  0  0
 15 51  1  0  0  0  0
 16 52  1  0  0  0  0
 18 53  1  0  0  0  0
 19 54  1  0  0  0  0
 24 55  1  0  0  0  0
 25 56  1  0  0  0  0
 30 57  1  0  0  0  0
 31 58  1  0  0  0  0
 33 59  1  0  0  0  0
 34 60  1  0  0  0  0
 34 61  1  0  0  0  0
 34 62  1  0  0  0  0
 35 63  1  0  0  0  0
 36 64  1  0  0  0  0
 38 65  1  0  0  0  0
 39 66  1  0  0  0  0
 68 69  4  0  0  0  0
 69 70  4  0  0  0  0
 70 71  2  0  0  0  0
 71 72  4  0  0  0  0
 67 73  1  0  0  0  0
 69 73  4  0  0  0  0
 72 73  4  0  0  0  0
 72 74  4  0  0  0  0
 74 75  1  0  0  0  0
 75 76  4  0  0  0  0
 76 77  4  0  0  0  0
 77 78  4  0  0  0  0
 78 79  1  0  0  0  0
 79 80  1  0  0  0  0
 78 81  4  0  0  0  0
 75 82  4  0  0  0  0
 81 82  4  0  0  0  0
 74 83  4  0  0  0  0
 83 84  4  0  0  0  0
 84 85  2  0  0  0  0
 67 86  1  0  0  0  0
 83 86  4  0  0  0  0
 85 87  4  0  0  0  0
 86 87  4  0  0  0  0
 87 88  4  0  0  0  0
 88 89  4  0  0  0  0
 89 90  4  0  0  0  0
 90 91  2  0  0  0  0
 91 92  4  0  0  0  0
 67 93  1  0  0  0  0
 89 93  4  0  0  0  0
 92 93  4  0  0  0  0
 92 94  4  0  0  0  0
 94 95  1  0  0  0  0
 95 96  4  0  0  0  0
 96 97  4  0  0  0  0
 97 98  4  0  0  0  0
 98 99  1  0  0  0  0
 99100  1  0  0  0  0
 98101  4  0  0  0  0
 95102  4  0  0  0  0
101102  4  0  0  0  0
 94103  4  0  0  0  0
103104  4  0  0  0  0
104105  2  0  0  0  0
 68106  4  0  0  0  0
105106  4  0  0  0  0
 67107  1  0  0  0  0
103107  4  0  0  0  0
106107  4  0  0  0  0
 68108  1  0  0  0  0
 70109  1  0  0  0  0
 71110  1  0  0  0  0
 76111  1  0  0  0  0
 77112  1  0  0  0  0
 79113  1  0  0  0  0
 80114  1  0  0  0  0
 80115  1  0  0  0  0
 80116  1  0  0  0  0
 81117  1  0  0  0  0
 82118  1  0  0  0  0
 84119  1  0  0  0  0
 85120  1  0  0  0  0
 90121  1  0  0  0  0
 91122  1  0  0  0  0
 96123  1  0  0  0  0
 97124  1  0  0  0  0
 99125  1  0  0  0  0
100126  1  0  0  0  0
100127  1  0  0  0  0
100128  1  0  0  0  0
101129  1  0  0  0  0
102130  1  0  0  0  0
104131  1  0  0  0  0
105132  1  0  0  0  0
 22133  4  0  0  0  0
133134  3  0  0  0  0
134135  4  0  0  0  0
135136  3  0  0  0  0
136137  4  0  0  0  0
137138  3  0  0  0  0
138139  4  0  0  0  0
139140  3  0  0  0  0
141142  3  0  0  0  0
142143  4  0  0  0  0
143144  3  0  0  0  0
144145  4  0  0  0  0
145146  3  0  0  0  0
146147  4  0  0  0  0
 88148  4  0  0  0  0
147148  3  0  0  0  0
140150  4  0  0  0  0
150151  4  0  0  0  0
151152  4  0  0  0  0
152153  2  0  0  0  0
153154  4  0  0  0  0
149155  1  0  0  0  0
151155  4  0  0  0  0
154155  4  0  0  0  0
154156  4  0  0  0  0
156157  1  0  0  0  0
157158  4  0  0  0  0
158159  4  0  0  0  0
159160  4  0  0  0  0
160161  1  0  0  0  0
161162  1  0  0  0  0
160163  4  0  0  0  0
157164  4  0  0  0  0
163164  4  0  0  0  0
156165  4  0  0  0  0
165166  4  0  0  0  0
166167  2  0  0  0  0
149168  1  0  0  0  0
165168  4  0  0  0  0
167169  4  0  0  0  0
168169  4  0  0  0  0
141170  4  0  0  0  0
169170  4  0  0  0  0
170171  4  0  0  0  0
171172  4  0  0  0  0
172173  2  0  0  0  0
173174  4  0  0  0  0
149175  1  0  0  0  0
171175  4  0  0  0  0
174175  4  0  0  0  0
174176  4  0  0  0  0
176177  1  0  0  0  0
177178  4  0  0  0  0
178179  4  0  0  0  0
179180  4  0  0  0  0
180181  1  0  0  0  0
181182  1  0  0  0  0
180183  4  0  0  0  0
177184  4  0  0  0  0
183184  4  0  0  0  0
176185  4  0  0  0  0
185186  4  0  0  0  0
186187  2  0  0  0  0
150188  4  0  0  0  0
187188  4  0  0  0  0
149189  1  0  0  0  0
185189  4  0  0  0  0
188189  4  0  0  0  0
152190  1  0  0  0  0
153191  1  0  0  0  0
158192  1  0  0  0  0
159193  1  0  0  0  0
161194  1  0  0  0  0
162195  1  0  0  0  0
162196  1  0  0  0  0
162197  1  0  0  0  0
163198  1  0  0  0  0
164199  1  0  0  0  0
166200  1  0  0  0  0
167201  1  0  0  0  0
172202  1  0  0  0  0
173203  1  0  0  0  0
178204  1  0  0  0  0
179205  1  0  0  0  0
181206  1  0  0  0  0
182207  1  0  0  0  0
182208  1  0  0  0  0
182209  1  0  0  0  0
183210  1  0  0  0  0
184211  1  0  0  0  0
186212  1  0  0  0  0
187213  1  0  0  0  0
M  END
