368

C 59.564663 -0.007429 -0.057634
C 60.293155 -1.265607 0.506971
C 59.684546 -2.430126 0.916684
C 60.706335 -3.281389 1.411532
C 61.904403 -2.603994 1.293680
N 61.645797 -1.396864 0.693991
C 63.326892 -3.106107 1.783211
C 64.456724 -2.430881 1.438369
C 65.761362 -2.827120 1.927560
C 66.663728 -1.976861 1.452258
N 64.653000 -1.324617 0.653901
C 65.984553 -0.999826 0.623910
C 66.652198 0.002680 -0.007184
C 65.874547 1.035554 -0.927879
C 66.414938 1.770941 -1.964844
C 65.390146 2.604575 -2.477694
C 64.249901 2.347219 -1.747018
C 62.840601 3.052935 -1.930431
C 62.813356 4.391251 -2.563308
C 62.440680 4.536429 -3.905607
C 62.429735 5.798439 -4.502544
C 62.794493 6.922879 -3.761012
C 63.169877 6.786195 -2.423813
C 63.180158 5.523763 -1.827338
C 61.714974 2.431642 -1.491212
C 60.393094 3.020396 -1.614291
C 59.507279 2.168278 -1.106867
C 60.228902 1.013507 -0.630863
N 61.549994 1.221320 -0.876914
N 64.540565 1.353251 -0.842387
C 63.364358 -4.297939 2.664061
C 63.112001 -4.169470 4.034998
C 63.136566 -5.292384 4.864234
C 63.412622 -6.550373 4.326572
C 63.664384 -6.686690 2.960664
C 63.639401 -5.563633 2.131710
H 58.486828 0.040938 0.040493
H 58.626182 -2.636875 0.879616
H 60.579147 -4.268164 1.830684
H 62.347010 -0.707473 0.434213
H 65.972438 -3.658579 2.576163
H 67.717262 -2.027169 1.657619
H 67.436853 1.725010 -2.309075
H 65.474658 3.316283 -3.285091
H 62.156446 3.652582 -4.472791
H 62.135450 5.896553 -5.542440
H 62.785701 7.904442 -4.223968
H 63.454909 7.655802 -1.840378
H 63.471184 5.406460 -0.785696
H 60.165246 3.980976 -2.040017
H 58.443775 2.312602 -1.049071
H 63.857269 0.891850 -0.247440
H 62.899681 -3.183687 4.443207
H 62.941319 -5.178094 5.925639
H 63.433281 -7.422939 4.971648
H 63.882185 -7.661209 2.535707
H 63.837347 -5.656503 1.066037
C 150.751972 -0.038626 -0.037862
C 150.023479 1.009057 -0.934606
C 150.632088 1.876690 -1.812776
C 149.610299 2.687581 -2.371325
C 148.412231 2.291830 -1.809067
N 148.670837 1.234213 -0.973464
C 146.989742 2.948865 -2.054149
C 145.859910 2.348772 -1.590753
C 144.555272 2.960300 -1.740239
C 143.652906 2.167512 -1.174254
N 145.663634 1.167117 -0.925244
C 144.332081 1.001344 -0.644339
C 143.664436 0.002680 -0.007184
C 144.442087 -1.270835 0.533804
C 143.901696 -2.522497 0.756139
C 144.926488 -3.342143 1.291060
C 146.066733 -2.571529 1.370256
C 147.476033 -3.038657 1.930137
C 147.503278 -4.182289 2.870204
C 147.875955 -5.458107 2.428467
C 147.886899 -6.536665 3.314873
C 147.522141 -6.346116 4.648263
C 147.146757 -5.078536 5.095504
C 147.136476 -4.000216 4.208518
C 148.601660 -2.376242 1.555802
C 149.923540 -2.738880 2.035671
C 150.809356 -1.916250 1.481718
C 150.087732 -0.992832 0.640662
N 148.766640 -1.304051 0.723549
N 145.776069 -1.329148 0.857594
C 146.952276 4.254206 -2.755892
C 147.204633 5.439102 -2.054470
C 147.180068 6.668349 -2.715924
C 146.904012 6.719171 -4.083050
C 146.652250 5.542173 -4.789422
C 146.677233 4.313121 -4.127719
H 151.829806 0.029462 0.047766
H 151.690452 1.931429 -2.015564
H 149.737487 3.487872 -3.084732
H 147.969624 0.704997 -0.460945
H 144.344196 3.901779 -2.215242
H 142.599372 2.374697 -1.132079
H 142.879781 -2.814178 0.567653
H 144.841976 -4.376099 1.589984
H 148.160188 -5.593701 1.387075
H 148.181184 -7.518928 2.959670
H 147.530933 -7.183793 5.338256
H 146.861725 -4.922168 6.130956
H 146.845450 -3.008182 4.547114
H 150.151388 -3.533932 2.722583
H 151.872859 -1.925596 1.636903
H 146.459365 -0.594168 0.694329
H 147.416953 5.387419 -0.988763
H 147.375315 7.579388 -2.159462
H 146.883353 7.675009 -4.596732
H 146.434449 5.573902 -5.852093
H 146.479287 3.389077 -4.666633
C 73.169642 0.003550 0.001370
C 71.960703 -0.009905 -0.007077
C 70.539174 -0.001086 -0.019060
C 69.327504 0.006353 -0.008197
C 74.586246 -0.003125 0.001903
C 75.806942 0.006353 -0.008197
C 89.465859 0.003550 0.001370
C 88.256920 -0.009905 -0.007077
C 86.835391 -0.001086 -0.019060
C 85.623721 0.006353 -0.008197
C 90.882464 -0.003125 0.001903
C 92.103159 0.006353 -0.008197
C 105.762076 0.003550 0.001370
C 104.553137 -0.009905 -0.007077
C 103.131608 -0.001086 -0.019060
C 101.919938 0.006353 -0.008197
C 107.178681 -0.003125 0.001903
C 108.399376 0.006353 -0.008197
C 122.058293 0.003550 0.001370
C 120.849354 -0.009905 -0.007077
C 119.427825 -0.001086 -0.019060
C 118.216155 0.006353 -0.008197
C 123.474898 -0.003125 0.001903
C 124.695593 0.006353 -0.008197
C 138.354510 0.003550 0.001370
C 137.145571 -0.009905 -0.007077
C 135.724042 -0.001086 -0.019060
C 134.512372 0.006353 -0.008197
C 139.771115 -0.003125 0.001903
C 140.991810 0.006353 -0.008197
C 77.137031 -0.002215 0.004754
C 77.930682 1.107608 0.810714
C 77.423956 1.932351 1.794607
C 78.460855 2.821049 2.177847
C 79.570297 2.506248 1.421603
N 79.259345 1.415473 0.648802
C 80.959923 3.266360 1.430247
C 82.094731 2.612518 1.066594
C 83.381662 3.273834 1.000655
C 84.289624 2.385547 0.610976
N 82.302762 1.313864 0.691666
C 83.627270 1.112612 0.408489
C 84.291068 -0.002215 0.004754
C 83.497432 -1.358138 -0.202125
C 84.004199 -2.636348 -0.082164
C 82.967297 -3.537846 -0.434243
C 81.857814 -2.782369 -0.750731
C 80.468162 -3.329091 -1.278803
C 80.477288 -4.607311 -2.028632
C 80.955350 -4.647565 -3.343517
C 80.980355 -5.852556 -4.048536
C 80.529566 -7.025479 -3.441509
C 80.054624 -6.994975 -2.129826
C 80.030567 -5.789927 -1.425230
C 79.333364 -2.608392 -1.077890
C 78.046427 -3.032428 -1.589629
C 77.138468 -2.126695 -1.242426
C 77.800829 -1.078950 -0.491708
N 79.125341 -1.421131 -0.431765
N 82.168750 -1.463321 -0.533614
C 80.950677 4.702629 1.795250
C 80.472413 5.655344 0.888230
C 80.447094 7.008014 1.233668
C 80.897771 7.415787 2.489873
C 81.372943 6.472266 3.401457
C 81.397320 5.119851 3.055675
H 76.415525 1.914158 2.178988
H 78.400250 3.614689 2.907316
H 79.920449 0.892862 0.081470
H 83.576299 4.308913 1.217764
H 85.334065 2.596340 0.471264
H 85.012659 -2.893595 0.203928
H 83.027928 -4.615092 -0.473329
H 81.305665 -3.728340 -3.808031
H 81.352097 -5.868169 -5.068061
H 80.548348 -7.961653 -3.990258
H 79.701642 -7.902671 -1.651132
H 79.661065 -5.753912 -0.402571
H 77.851783 -3.921264 -2.162773
H 76.094026 -2.178419 -1.489966
H 81.507624 -0.692829 -0.569710
H 80.122146 5.327884 -0.088272
H 80.075166 7.735616 0.519437
H 80.878707 8.467398 2.757550
H 81.725822 6.781566 4.379962
H 81.766955 4.375530 3.757825
C 93.433248 -0.002215 0.004754
C 94.226899 1.107608 0.810714
C 93.720173 1.932351 1.794607
C 94.757072 2.821049 2.177847
C 95.866514 2.506248 1.421603
N 95.555562 1.415473 0.648802
C 97.256140 3.266360 1.430247
C 98.390948 2.612518 1.066594
C 99.677879 3.273834 1.000655
C 100.585841 2.385547 0.610976
N 98.598979 1.313864 0.691666
C 99.923487 1.112612 0.408489
C 100.587285 -0.002215 0.004754
C 99.793649 -1.358138 -0.202125
C 100.300416 -2.636348 -0.082164
C 99.263514 -3.537846 -0.434243
C 98.154031 -2.782369 -0.750731
C 96.764379 -3.329091 -1.278803
C 96.773505 -4.607311 -2.028632
C 97.251567 -4.647565 -3.343517
C 97.276572 -5.852556 -4.048536
C 96.825783 -7.025479 -3.441509
C 96.350841 -6.994975 -2.129826
C 96.326784 -5.789927 -1.425230
C 95.629581 -2.608392 -1.077890
C 94.342644 -3.032428 -1.589629
C 93.434685 -2.126695 -1.242426
C 94.097046 -1.078950 -0.491708
N 95.421558 -1.421131 -0.431765
N 98.464967 -1.463321 -0.533614
C 97.246894 4.702629 1.795250
C 96.768630 5.655344 0.888230
C 96.743311 7.008014 1.233668
C 97.193988 7.415787 2.489873
C 97.669160 6.472266 3.401457
C 97.693537 5.119851 3.055675
H 92.711742 1.914158 2.178988
H 94.696467 3.614689 2.907316
H 96.216666 0.892862 0.081470
H 99.872516 4.308913 1.217764
H 101.630283 2.596340 0.471264
H 101.308876 -2.893595 0.203928
H 99.324145 -4.615092 -0.473329
H 97.601882 -3.728340 -3.808031
H 97.648314 -5.868169 -5.068061
H 96.844565 -7.961653 -3.990258
H 95.997859 -7.902671 -1.651132
H 95.957282 -5.753912 -0.402571
H 94.148000 -3.921264 -2.162773
H 92.390243 -2.178419 -1.489966
H 97.803841 -0.692829 -0.569710
H 96.418363 5.327884 -0.088272
H 96.371383 7.735616 0.519437
H 97.174924 8.467398 2.757550
H 98.022039 6.781566 4.379962
H 98.063172 4.375530 3.757825
C 109.729465 -0.002215 0.004754
C 110.523116 1.107608 0.810714
C 110.016390 1.932351 1.794607
C 111.053289 2.821049 2.177847
C 112.162731 2.506248 1.421603
N 111.851779 1.415473 0.648802
C 113.552357 3.266360 1.430247
C 114.687165 2.612518 1.066594
C 115.974096 3.273834 1.000655
C 116.882058 2.385547 0.610976
N 114.895196 1.313864 0.691666
C 116.219704 1.112612 0.408489
C 116.883502 -0.002215 0.004754
C 116.089866 -1.358138 -0.202125
C 116.596633 -2.636348 -0.082164
C 115.559731 -3.537846 -0.434243
C 114.450248 -2.782369 -0.750731
C 113.060596 -3.329091 -1.278803
C 113.069722 -4.607311 -2.028632
C 113.547784 -4.647565 -3.343517
C 113.572789 -5.852556 -4.048536
C 113.122000 -7.025479 -3.441509
C 112.647058 -6.994975 -2.129826
C 112.623001 -5.789927 -1.425230
C 111.925798 -2.608392 -1.077890
C 110.638861 -3.032428 -1.589629
C 109.730902 -2.126695 -1.242426
C 110.393263 -1.078950 -0.491708
N 111.717775 -1.421131 -0.431765
N 114.761184 -1.463321 -0.533614
C 113.543111 4.702629 1.795250
C 113.064847 5.655344 0.888230
C 113.039528 7.008014 1.233668
C 113.490205 7.415787 2.489873
C 113.965377 6.472266 3.401457
C 113.989754 5.119851 3.055675
H 109.007959 1.914158 2.178988
H 110.992684 3.614689 2.907316
H 112.512883 0.892862 0.081470
H 116.168733 4.308913 1.217764
H 117.926500 2.596340 0.471264
H 117.605093 -2.893595 0.203928
H 115.620362 -4.615092 -0.473329
H 113.898099 -3.728340 -3.808031
H 113.944531 -5.868169 -5.068061
H 113.140782 -7.961653 -3.990258
H 112.294076 -7.902671 -1.651132
H 112.253499 -5.753912 -0.402571
H 110.444217 -3.921264 -2.162773
H 108.686460 -2.178419 -1.489966
H 114.100058 -0.692829 -0.569710
H 112.714580 5.327884 -0.088272
H 112.667600 7.735616 0.519437
H 113.471141 8.467398 2.757550
H 114.318256 6.781566 4.379962
H 114.359389 4.375530 3.757825
C 126.025682 -0.002215 0.004754
C 126.819334 1.107608 0.810714
C 126.312607 1.932351 1.794607
C 127.349506 2.821049 2.177847
C 128.458948 2.506248 1.421603
N 128.147996 1.415473 0.648802
C 129.848574 3.266360 1.430247
C 130.983382 2.612518 1.066594
C 132.270313 3.273834 1.000655
C 133.178275 2.385547 0.610976
N 131.191413 1.313864 0.691666
C 132.515921 1.112612 0.408489
C 133.179719 -0.002215 0.004754
C 132.386083 -1.358138 -0.202125
C 132.892850 -2.636348 -0.082164
C 131.855948 -3.537846 -0.434243
C 130.746465 -2.782369 -0.750731
C 129.356813 -3.329091 -1.278803
C 129.365939 -4.607311 -2.028632
C 129.844001 -4.647565 -3.343517
C 129.869006 -5.852556 -4.048536
C 129.418217 -7.025479 -3.441509
C 128.943275 -6.994975 -2.129826
C 128.919218 -5.789927 -1.425230
C 128.222015 -2.608392 -1.077890
C 126.935078 -3.032428 -1.589629
C 126.027119 -2.126695 -1.242426
C 126.689480 -1.078950 -0.491708
N 128.013992 -1.421131 -0.431765
N 131.057401 -1.463321 -0.533614
C 129.839328 4.702629 1.795250
C 129.361065 5.655344 0.888230
C 129.335745 7.008014 1.233668
C 129.786422 7.415787 2.489873
C 130.261594 6.472266 3.401457
C 130.285971 5.119851 3.055675
H 125.304176 1.914158 2.178988
H 127.288901 3.614689 2.907316
H 128.809100 0.892862 0.081470
H 132.464950 4.308913 1.217764
H 134.222717 2.596340 0.471264
H 133.901310 -2.893595 0.203928
H 131.916579 -4.615092 -0.473329
H 130.194316 -3.728340 -3.808031
H 130.240748 -5.868169 -5.068061
H 129.436999 -7.961653 -3.990258
H 128.590293 -7.902671 -1.651132
H 128.549716 -5.753912 -0.402571
H 126.740434 -3.921264 -2.162773
H 124.982677 -2.178419 -1.489966
H 130.396275 -0.692829 -0.569710
H 129.010797 5.327884 -0.088272
H 128.963817 7.735616 0.519437
H 129.767358 8.467398 2.757550
H 130.614473 6.781566 4.379962
H 130.655606 4.375530 3.757825
