 xtb: 6.5.1 (b24c23e)
          07292219583D

368409  0     0  0            999 V2000
   61.6762   -0.0614    0.0240 C   0  0  0  0  0  0  0  0  0  0  0  0
   62.2830   -1.1455    0.6447 C   0  0  0  0  0  0  0  0  0  0  0  0
   61.6299   -2.2606    1.2409 C   0  0  0  0  0  0  0  0  0  0  0  0
   62.5907   -3.0924    1.7429 C   0  0  0  0  0  0  0  0  0  0  0  0
   63.8620   -2.5077    1.4776 C   0  0  0  0  0  0  0  0  0  0  0  0
   63.6256   -1.3416    0.8067 N   0  0  0  0  0  0  0  0  0  0  0  0
   65.1233   -3.0164    1.8076 C   0  0  0  0  0  0  0  0  0  0  0  0
   66.3407   -2.4149    1.4806 C   0  0  0  0  0  0  0  0  0  0  0  0
   67.6353   -2.9363    1.8813 C   0  0  0  0  0  0  0  0  0  0  0  0
   68.5597   -2.0905    1.3813 C   0  0  0  0  0  0  0  0  0  0  0  0
   66.5004   -1.2645    0.7698 N   0  0  0  0  0  0  0  0  0  0  0  0
   67.8287   -1.0485    0.6863 C   0  0  0  0  0  0  0  0  0  0  0  0
   68.4699    0.0226    0.0316 C   0  0  0  0  0  0  0  0  0  0  0  0
   67.8377    1.0958   -0.6237 C   0  0  0  0  0  0  0  0  0  0  0  0
   68.4845    2.1619   -1.3036 C   0  0  0  0  0  0  0  0  0  0  0  0
   67.5192    2.9948   -1.7977 C   0  0  0  0  0  0  0  0  0  0  0  0
   66.2515    2.4661   -1.4270 C   0  0  0  0  0  0  0  0  0  0  0  0
   64.9912    2.9893   -1.7328 C   0  0  0  0  0  0  0  0  0  0  0  0
   64.9615    4.2643   -2.4909 C   0  0  0  0  0  0  0  0  0  0  0  0
   64.3712    4.3201   -3.7543 C   0  0  0  0  0  0  0  0  0  0  0  0
   64.3439    5.5113   -4.4636 C   0  0  0  0  0  0  0  0  0  0  0  0
   64.9001    6.6610   -3.9193 C   0  0  0  0  0  0  0  0  0  0  0  0
   65.4874    6.6142   -2.6623 C   0  0  0  0  0  0  0  0  0  0  0  0
   65.5217    5.4234   -1.9521 C   0  0  0  0  0  0  0  0  0  0  0  0
   63.7726    2.4000   -1.3803 C   0  0  0  0  0  0  0  0  0  0  0  0
   62.4703    2.9839   -1.6624 C   0  0  0  0  0  0  0  0  0  0  0  0
   61.5527    2.1264   -1.1721 C   0  0  0  0  0  0  0  0  0  0  0  0
   62.2931    1.0254   -0.5815 C   0  0  0  0  0  0  0  0  0  0  0  0
   63.6265    1.2280   -0.7182 N   0  0  0  0  0  0  0  0  0  0  0  0
   66.4964    1.3150   -0.7254 N   0  0  0  0  0  0  0  0  0  0  0  0
   65.1475   -4.2934    2.5632 C   0  0  0  0  0  0  0  0  0  0  0  0
   64.5582   -4.3796    3.8253 C   0  0  0  0  0  0  0  0  0  0  0  0
   64.5793   -5.5743    4.5292 C   0  0  0  0  0  0  0  0  0  0  0  0
   65.1833   -6.6973    3.9803 C   0  0  0  0  0  0  0  0  0  0  0  0
   65.7698   -6.6202    2.7243 C   0  0  0  0  0  0  0  0  0  0  0  0
   65.7548   -5.4261    2.0194 C   0  0  0  0  0  0  0  0  0  0  0  0
   60.5909   -0.0724    0.0176 H   0  0  0  0  0  0  0  0  0  0  0  0
   60.5609   -2.3991    1.2699 H   0  0  0  0  0  0  0  0  0  0  0  0
   62.4387   -4.0338    2.2457 H   0  0  0  0  0  0  0  0  0  0  0  0
   64.3510   -0.7153    0.4739 H   0  0  0  0  0  0  0  0  0  0  0  0
   67.7930   -3.8215    2.4759 H   0  0  0  0  0  0  0  0  0  0  0  0
   69.6334   -2.1390    1.4682 H   0  0  0  0  0  0  0  0  0  0  0  0
   69.5530    2.2661   -1.4020 H   0  0  0  0  0  0  0  0  0  0  0  0
   67.6680    3.8916   -2.3767 H   0  0  0  0  0  0  0  0  0  0  0  0
   63.9474    3.4202   -4.1860 H   0  0  0  0  0  0  0  0  0  0  0  0
   63.8870    5.5417   -5.4466 H   0  0  0  0  0  0  0  0  0  0  0  0
   64.8756    7.5922   -4.4738 H   0  0  0  0  0  0  0  0  0  0  0  0
   65.9199    7.5102   -2.2310 H   0  0  0  0  0  0  0  0  0  0  0  0
   65.9683    5.3925   -0.9645 H   0  0  0  0  0  0  0  0  0  0  0  0
   62.3063    3.9278   -2.1569 H   0  0  0  0  0  0  0  0  0  0  0  0
   60.4770    2.2074   -1.1857 H   0  0  0  0  0  0  0  0  0  0  0  0
   65.7733    0.7115   -0.3477 H   0  0  0  0  0  0  0  0  0  0  0  0
   64.0982   -3.5000    4.2620 H   0  0  0  0  0  0  0  0  0  0  0  0
   64.1228   -5.6281    5.5113 H   0  0  0  0  0  0  0  0  0  0  0  0
   65.1970   -7.6312    4.5307 H   0  0  0  0  0  0  0  0  0  0  0  0
   66.2404   -7.4953    2.2900 H   0  0  0  0  0  0  0  0  0  0  0  0
   66.2016   -5.3712    1.0330 H   0  0  0  0  0  0  0  0  0  0  0  0
  148.6398    0.0562   -0.0171 C   0  0  0  0  0  0  0  0  0  0  0  0
  148.0311    1.0892   -0.7181 C   0  0  0  0  0  0  0  0  0  0  0  0
  148.6824    2.1206   -1.4513 C   0  0  0  0  0  0  0  0  0  0  0  0
  147.7198    2.9338   -1.9797 C   0  0  0  0  0  0  0  0  0  0  0  0
  146.4492    2.4319   -1.5769 C   0  0  0  0  0  0  0  0  0  0  0  0
  146.6880    1.3145   -0.8281 N   0  0  0  0  0  0  0  0  0  0  0  0
  145.1867    2.9513   -1.8841 C   0  0  0  0  0  0  0  0  0  0  0  0
  143.9708    2.3902   -1.4865 C   0  0  0  0  0  0  0  0  0  0  0  0
  142.6758    2.9863   -1.7618 C   0  0  0  0  0  0  0  0  0  0  0  0
  141.7528    2.1586   -1.2299 C   0  0  0  0  0  0  0  0  0  0  0  0
  143.8131    1.2352   -0.7830 N   0  0  0  0  0  0  0  0  0  0  0  0
  142.4852    1.0634   -0.6238 C   0  0  0  0  0  0  0  0  0  0  0  0
  141.8457   -0.0176    0.0161 C   0  0  0  0  0  0  0  0  0  0  0  0
  142.4804   -1.0964    0.6600 C   0  0  0  0  0  0  0  0  0  0  0  0
  141.8367   -2.1981    1.2836 C   0  0  0  0  0  0  0  0  0  0  0  0
  142.8038   -3.0109    1.8070 C   0  0  0  0  0  0  0  0  0  0  0  0
  144.0692   -2.4250    1.5256 C   0  0  0  0  0  0  0  0  0  0  0  0
  145.3303   -2.9204    1.8722 C   0  0  0  0  0  0  0  0  0  0  0  0
  145.3626   -4.1728    2.6668 C   0  0  0  0  0  0  0  0  0  0  0  0
  145.9799   -5.3164    2.1580 C   0  0  0  0  0  0  0  0  0  0  0  0
  146.0107   -6.4864    2.9017 C   0  0  0  0  0  0  0  0  0  0  0  0
  145.4312   -6.5279    4.1626 C   0  0  0  0  0  0  0  0  0  0  0  0
  144.8168   -5.3940    4.6765 C   0  0  0  0  0  0  0  0  0  0  0  0
  144.7790   -4.2237    3.9335 C   0  0  0  0  0  0  0  0  0  0  0  0
  146.5474   -2.3240    1.5262 C   0  0  0  0  0  0  0  0  0  0  0  0
  147.8495   -2.8230    1.9410 C   0  0  0  0  0  0  0  0  0  0  0  0
  148.7656   -1.9892    1.4089 C   0  0  0  0  0  0  0  0  0  0  0  0
  148.0243   -0.9760    0.6789 C   0  0  0  0  0  0  0  0  0  0  0  0
  146.6917   -1.2036    0.7798 N   0  0  0  0  0  0  0  0  0  0  0  0
  143.8217   -1.2754    0.8224 N   0  0  0  0  0  0  0  0  0  0  0  0
  145.1576    4.1935   -2.6953 C   0  0  0  0  0  0  0  0  0  0  0  0
  145.7493    5.3648   -2.2202 C   0  0  0  0  0  0  0  0  0  0  0  0
  145.7231    6.5229   -2.9826 C   0  0  0  0  0  0  0  0  0  0  0  0
  145.1115    6.5247   -4.2289 C   0  0  0  0  0  0  0  0  0  0  0  0
  144.5222    5.3631   -4.7092 C   0  0  0  0  0  0  0  0  0  0  0  0
  144.5421    4.2044   -3.9478 C   0  0  0  0  0  0  0  0  0  0  0  0
  149.7251    0.0640   -0.0194 H   0  0  0  0  0  0  0  0  0  0  0  0
  149.7514    2.2130   -1.5583 H   0  0  0  0  0  0  0  0  0  0  0  0
  147.8703    3.8017   -2.6011 H   0  0  0  0  0  0  0  0  0  0  0  0
  145.9636    0.7353   -0.4171 H   0  0  0  0  0  0  0  0  0  0  0  0
  142.5172    3.9188   -2.2790 H   0  0  0  0  0  0  0  0  0  0  0  0
  140.6794    2.2602   -1.2275 H   0  0  0  0  0  0  0  0  0  0  0  0
  140.7690   -2.3436    1.3179 H   0  0  0  0  0  0  0  0  0  0  0  0
  142.6577   -3.9396    2.3341 H   0  0  0  0  0  0  0  0  0  0  0  0
  146.4221   -5.2892    1.1683 H   0  0  0  0  0  0  0  0  0  0  0  0
  146.4889   -7.3703    2.4942 H   0  0  0  0  0  0  0  0  0  0  0  0
  145.4588   -7.4425    4.7440 H   0  0  0  0  0  0  0  0  0  0  0  0
  144.3660   -5.4200    5.6624 H   0  0  0  0  0  0  0  0  0  0  0  0
  144.3113   -3.3351    4.3429 H   0  0  0  0  0  0  0  0  0  0  0  0
  148.0142   -3.6867    2.5649 H   0  0  0  0  0  0  0  0  0  0  0  0
  149.8407   -2.0252    1.4913 H   0  0  0  0  0  0  0  0  0  0  0  0
  144.5429   -0.6540    0.4713 H   0  0  0  0  0  0  0  0  0  0  0  0
  146.2150    5.3696   -1.2408 H   0  0  0  0  0  0  0  0  0  0  0  0
  146.1815    7.4285   -2.6010 H   0  0  0  0  0  0  0  0  0  0  0  0
  145.0940    7.4302   -4.8247 H   0  0  0  0  0  0  0  0  0  0  0  0
  144.0454    5.3586   -5.6832 H   0  0  0  0  0  0  0  0  0  0  0  0
  144.0928    3.2946   -4.3300 H   0  0  0  0  0  0  0  0  0  0  0  0
   73.6738    0.0447    0.0028 C   0  0  0  0  0  0  0  0  0  0  0  0
   72.4455    0.0461    0.0113 C   0  0  0  0  0  0  0  0  0  0  0  0
   71.1004    0.0428    0.0162 C   0  0  0  0  0  0  0  0  0  0  0  0
   69.8767    0.0326    0.0264 C   0  0  0  0  0  0  0  0  0  0  0  0
   75.0187    0.0504   -0.0047 C   0  0  0  0  0  0  0  0  0  0  0  0
   76.2426    0.0464   -0.0161 C   0  0  0  0  0  0  0  0  0  0  0  0
   89.7205   -0.0008    0.0062 C   0  0  0  0  0  0  0  0  0  0  0  0
   88.4913    0.0069    0.0003 C   0  0  0  0  0  0  0  0  0  0  0  0
   87.1476    0.0123   -0.0083 C   0  0  0  0  0  0  0  0  0  0  0  0
   85.9229    0.0231   -0.0143 C   0  0  0  0  0  0  0  0  0  0  0  0
   91.0642   -0.0034    0.0077 C   0  0  0  0  0  0  0  0  0  0  0  0
   92.2890   -0.0066    0.0052 C   0  0  0  0  0  0  0  0  0  0  0  0
  105.7731    0.0133   -0.0025 C   0  0  0  0  0  0  0  0  0  0  0  0
  104.5439    0.0186   -0.0117 C   0  0  0  0  0  0  0  0  0  0  0  0
  103.2002    0.0220   -0.0234 C   0  0  0  0  0  0  0  0  0  0  0  0
  101.9753    0.0252   -0.0306 C   0  0  0  0  0  0  0  0  0  0  0  0
  107.1168    0.0089    0.0034 C   0  0  0  0  0  0  0  0  0  0  0  0
  108.3417    0.0019    0.0055 C   0  0  0  0  0  0  0  0  0  0  0  0
  121.8253   -0.0002   -0.0498 C   0  0  0  0  0  0  0  0  0  0  0  0
  120.5961    0.0040   -0.0505 C   0  0  0  0  0  0  0  0  0  0  0  0
  119.2524    0.0063   -0.0501 C   0  0  0  0  0  0  0  0  0  0  0  0
  118.0276    0.0095   -0.0465 C   0  0  0  0  0  0  0  0  0  0  0  0
  123.1689   -0.0048   -0.0478 C   0  0  0  0  0  0  0  0  0  0  0  0
  124.3937   -0.0115   -0.0469 C   0  0  0  0  0  0  0  0  0  0  0  0
  137.8703   -0.0520    0.0090 C   0  0  0  0  0  0  0  0  0  0  0  0
  136.6421   -0.0543   -0.0012 C   0  0  0  0  0  0  0  0  0  0  0  0
  135.2973   -0.0531   -0.0102 C   0  0  0  0  0  0  0  0  0  0  0  0
  134.0733   -0.0470   -0.0173 C   0  0  0  0  0  0  0  0  0  0  0  0
  139.2153   -0.0454    0.0119 C   0  0  0  0  0  0  0  0  0  0  0  0
  140.4391   -0.0326    0.0164 C   0  0  0  0  0  0  0  0  0  0  0  0
   77.6484    0.0474   -0.0236 C   0  0  0  0  0  0  0  0  0  0  0  0
   78.2774    1.2116    0.4575 C   0  0  0  0  0  0  0  0  0  0  0  0
   77.6316    2.3650    0.9729 C   0  0  0  0  0  0  0  0  0  0  0  0
   78.5987    3.2665    1.3248 C   0  0  0  0  0  0  0  0  0  0  0  0
   79.8641    2.6918    1.0256 C   0  0  0  0  0  0  0  0  0  0  0  0
   79.6189    1.4466    0.5115 N   0  0  0  0  0  0  0  0  0  0  0  0
   81.1245    3.2667    1.2303 C   0  0  0  0  0  0  0  0  0  0  0  0
   82.3498    2.6525    0.9676 C   0  0  0  0  0  0  0  0  0  0  0  0
   83.6349    3.3054    1.1437 C   0  0  0  0  0  0  0  0  0  0  0  0
   84.5742    2.4010    0.7976 C   0  0  0  0  0  0  0  0  0  0  0  0
   82.5299    1.3847    0.5037 N   0  0  0  0  0  0  0  0  0  0  0  0
   83.8617    1.2026    0.4012 C   0  0  0  0  0  0  0  0  0  0  0  0
   84.5187    0.0292   -0.0232 C   0  0  0  0  0  0  0  0  0  0  0  0
   83.8886   -1.1510   -0.4646 C   0  0  0  0  0  0  0  0  0  0  0  0
   84.5335   -2.3450   -0.8786 C   0  0  0  0  0  0  0  0  0  0  0  0
   83.5659   -3.2411   -1.2428 C   0  0  0  0  0  0  0  0  0  0  0  0
   82.3011   -2.6164   -1.0681 C   0  0  0  0  0  0  0  0  0  0  0  0
   81.0412   -3.1746   -1.3143 C   0  0  0  0  0  0  0  0  0  0  0  0
   81.0274   -4.5528   -1.8670 C   0  0  0  0  0  0  0  0  0  0  0  0
   81.5930   -4.8200   -3.1143 C   0  0  0  0  0  0  0  0  0  0  0  0
   81.5758   -6.1071   -3.6305 C   0  0  0  0  0  0  0  0  0  0  0  0
   81.0005   -7.1422   -2.9060 C   0  0  0  0  0  0  0  0  0  0  0  0
   80.4389   -6.8847   -1.6627 C   0  0  0  0  0  0  0  0  0  0  0  0
   80.4489   -5.5980   -1.1457 C   0  0  0  0  0  0  0  0  0  0  0  0
   79.8155   -2.5475   -1.0850 C   0  0  0  0  0  0  0  0  0  0  0  0
   78.5303   -3.1455   -1.4005 C   0  0  0  0  0  0  0  0  0  0  0  0
   77.5911   -2.2485   -1.0357 C   0  0  0  0  0  0  0  0  0  0  0  0
   78.3039   -1.1015   -0.5092 C   0  0  0  0  0  0  0  0  0  0  0  0
   79.6362   -1.3048   -0.5588 N   0  0  0  0  0  0  0  0  0  0  0  0
   82.5472   -1.3575   -0.5879 N   0  0  0  0  0  0  0  0  0  0  0  0
   81.1368    4.6474    1.7763 C   0  0  0  0  0  0  0  0  0  0  0  0
   80.5586    5.6968    1.0608 C   0  0  0  0  0  0  0  0  0  0  0  0
   80.5701    6.9852    1.5739 C   0  0  0  0  0  0  0  0  0  0  0  0
   81.1529    7.2401    2.8078 C   0  0  0  0  0  0  0  0  0  0  0  0
   81.7280    6.2009    3.5266 C   0  0  0  0  0  0  0  0  0  0  0  0
   81.7230    4.9121    3.0147 C   0  0  0  0  0  0  0  0  0  0  0  0
   76.5636    2.4796    1.0648 H   0  0  0  0  0  0  0  0  0  0  0  0
   78.4506    4.2403    1.7623 H   0  0  0  0  0  0  0  0  0  0  0  0
   80.3377    0.7922    0.2211 H   0  0  0  0  0  0  0  0  0  0  0  0
   83.7766    4.3216    1.4740 H   0  0  0  0  0  0  0  0  0  0  0  0
   85.6468    2.5116    0.7935 H   0  0  0  0  0  0  0  0  0  0  0  0
   85.6014   -2.4925   -0.8889 H   0  0  0  0  0  0  0  0  0  0  0  0
   83.7128   -4.2497   -1.5932 H   0  0  0  0  0  0  0  0  0  0  0  0
   82.0313   -4.0103   -3.6872 H   0  0  0  0  0  0  0  0  0  0  0  0
   82.0126   -6.3021   -4.6036 H   0  0  0  0  0  0  0  0  0  0  0  0
   80.9897   -8.1481   -3.3099 H   0  0  0  0  0  0  0  0  0  0  0  0
   79.9910   -7.6903   -1.0916 H   0  0  0  0  0  0  0  0  0  0  0  0
   80.0200   -5.4003   -0.1697 H   0  0  0  0  0  0  0  0  0  0  0  0
   78.3884   -4.1143   -1.8512 H   0  0  0  0  0  0  0  0  0  0  0  0
   76.5184   -2.3268   -1.1129 H   0  0  0  0  0  0  0  0  0  0  0  0
   81.8289   -0.6807   -0.3528 H   0  0  0  0  0  0  0  0  0  0  0  0
   80.1144    5.5021    0.0909 H   0  0  0  0  0  0  0  0  0  0  0  0
   80.1224    7.7938    1.0068 H   0  0  0  0  0  0  0  0  0  0  0  0
   81.1589    8.2474    3.2086 H   0  0  0  0  0  0  0  0  0  0  0  0
   82.1820    6.3943    4.4921 H   0  0  0  0  0  0  0  0  0  0  0  0
   82.1614    4.0993    3.5828 H   0  0  0  0  0  0  0  0  0  0  0  0
   93.6931   -0.0023    0.0011 C   0  0  0  0  0  0  0  0  0  0  0  0
   94.3196    1.1539    0.5068 C   0  0  0  0  0  0  0  0  0  0  0  0
   93.6716    2.2930    1.0498 C   0  0  0  0  0  0  0  0  0  0  0  0
   94.6366    3.1944    1.4089 C   0  0  0  0  0  0  0  0  0  0  0  0
   95.9024    2.6338    1.0865 C   0  0  0  0  0  0  0  0  0  0  0  0
   95.6600    1.3956    0.5540 N   0  0  0  0  0  0  0  0  0  0  0  0
   97.1604    3.2168    1.2834 C   0  0  0  0  0  0  0  0  0  0  0  0
   98.3884    2.6180    0.9989 C   0  0  0  0  0  0  0  0  0  0  0  0
   99.6690    3.2813    1.1680 C   0  0  0  0  0  0  0  0  0  0  0  0
  100.6133    2.3890    0.8044 C   0  0  0  0  0  0  0  0  0  0  0  0
   98.5757    1.3567    0.5201 N   0  0  0  0  0  0  0  0  0  0  0  0
   99.9081    1.1880    0.4037 C   0  0  0  0  0  0  0  0  0  0  0  0
  100.5711    0.0233   -0.0353 C   0  0  0  0  0  0  0  0  0  0  0  0
   99.9451   -1.1560   -0.4853 C   0  0  0  0  0  0  0  0  0  0  0  0
  100.5939   -2.3423   -0.9142 C   0  0  0  0  0  0  0  0  0  0  0  0
   99.6289   -3.2395   -1.2831 C   0  0  0  0  0  0  0  0  0  0  0  0
   98.3619   -2.6227   -1.0967 C   0  0  0  0  0  0  0  0  0  0  0  0
   97.1035   -3.1846   -1.3448 C   0  0  0  0  0  0  0  0  0  0  0  0
   97.0964   -4.5567   -1.9125 C   0  0  0  0  0  0  0  0  0  0  0  0
   97.6636   -4.8078   -3.1625 C   0  0  0  0  0  0  0  0  0  0  0  0
   97.6545   -6.0898   -3.6916 C   0  0  0  0  0  0  0  0  0  0  0  0
   97.0857   -7.1356   -2.9777 C   0  0  0  0  0  0  0  0  0  0  0  0
   96.5221   -6.8941   -1.7321 C   0  0  0  0  0  0  0  0  0  0  0  0
   96.5242   -5.6126   -1.2021 C   0  0  0  0  0  0  0  0  0  0  0  0
   95.8749   -2.5678   -1.1049 C   0  0  0  0  0  0  0  0  0  0  0  0
   94.5928   -3.1687   -1.4273 C   0  0  0  0  0  0  0  0  0  0  0  0
   93.6487   -2.2819   -1.0498 C   0  0  0  0  0  0  0  0  0  0  0  0
   94.3553   -1.1387   -0.5073 C   0  0  0  0  0  0  0  0  0  0  0  0
   95.6883   -1.3332   -0.5609 N   0  0  0  0  0  0  0  0  0  0  0  0
   98.6041   -1.3677   -0.6047 N   0  0  0  0  0  0  0  0  0  0  0  0
   97.1675    4.5915    1.8444 C   0  0  0  0  0  0  0  0  0  0  0  0
   96.5742    5.6439    1.1460 C   0  0  0  0  0  0  0  0  0  0  0  0
   96.5835    6.9273    1.6715 C   0  0  0  0  0  0  0  0  0  0  0  0
   97.1789    7.1740    2.9010 C   0  0  0  0  0  0  0  0  0  0  0  0
   97.7686    6.1316    3.6031 C   0  0  0  0  0  0  0  0  0  0  0  0
   97.7661    4.8479    3.0787 C   0  0  0  0  0  0  0  0  0  0  0  0
   92.6039    2.3989    1.1541 H   0  0  0  0  0  0  0  0  0  0  0  0
   94.4867    4.1590    1.8654 H   0  0  0  0  0  0  0  0  0  0  0  0
   96.3799    0.7515    0.2440 H   0  0  0  0  0  0  0  0  0  0  0  0
   99.8047    4.2958    1.5063 H   0  0  0  0  0  0  0  0  0  0  0  0
  101.6847    2.5099    0.7906 H   0  0  0  0  0  0  0  0  0  0  0  0
  101.6624   -2.4844   -0.9310 H   0  0  0  0  0  0  0  0  0  0  0  0
   99.7795   -4.2437   -1.6442 H   0  0  0  0  0  0  0  0  0  0  0  0
   98.0970   -3.9898   -3.7273 H   0  0  0  0  0  0  0  0  0  0  0  0
   98.0929   -6.2723   -4.6665 H   0  0  0  0  0  0  0  0  0  0  0  0
   97.0814   -8.1376   -3.3916 H   0  0  0  0  0  0  0  0  0  0  0  0
   96.0791   -7.7082   -1.1692 H   0  0  0  0  0  0  0  0  0  0  0  0
   96.0941   -5.4275   -0.2241 H   0  0  0  0  0  0  0  0  0  0  0  0
   94.4559   -4.1320   -1.8911 H   0  0  0  0  0  0  0  0  0  0  0  0
   92.5764   -2.3656   -1.1268 H   0  0  0  0  0  0  0  0  0  0  0  0
   97.8837   -0.6970   -0.3592 H   0  0  0  0  0  0  0  0  0  0  0  0
   96.1201    5.4557    0.1794 H   0  0  0  0  0  0  0  0  0  0  0  0
   96.1244    7.7386    1.1174 H   0  0  0  0  0  0  0  0  0  0  0  0
   97.1835    8.1774    3.3114 H   0  0  0  0  0  0  0  0  0  0  0  0
   98.2325    6.3186    4.5652 H   0  0  0  0  0  0  0  0  0  0  0  0
   98.2166    4.0325    3.6335 H   0  0  0  0  0  0  0  0  0  0  0  0
  109.7459    0.0011    0.0054 C   0  0  0  0  0  0  0  0  0  0  0  0
  110.3757    1.1539    0.5150 C   0  0  0  0  0  0  0  0  0  0  0  0
  109.7313    2.2934    1.0612 C   0  0  0  0  0  0  0  0  0  0  0  0
  110.6993    3.1880    1.4290 C   0  0  0  0  0  0  0  0  0  0  0  0
  111.9636    2.6233    1.1078 C   0  0  0  0  0  0  0  0  0  0  0  0
  111.7171    1.3893    0.5673 N   0  0  0  0  0  0  0  0  0  0  0  0
  113.2237    3.1992    1.3111 C   0  0  0  0  0  0  0  0  0  0  0  0
  114.4495    2.5993    1.0194 C   0  0  0  0  0  0  0  0  0  0  0  0
  115.7319    3.2590    1.1887 C   0  0  0  0  0  0  0  0  0  0  0  0
  116.6731    2.3688    0.8121 C   0  0  0  0  0  0  0  0  0  0  0  0
  114.6325    1.3416    0.5298 N   0  0  0  0  0  0  0  0  0  0  0  0
  115.9642    1.1718    0.4060 C   0  0  0  0  0  0  0  0  0  0  0  0
  116.6236    0.0079   -0.0402 C   0  0  0  0  0  0  0  0  0  0  0  0
  115.9945   -1.1724   -0.4827 C   0  0  0  0  0  0  0  0  0  0  0  0
  116.6400   -2.3627   -0.9055 C   0  0  0  0  0  0  0  0  0  0  0  0
  115.6722   -3.2621   -1.2617 C   0  0  0  0  0  0  0  0  0  0  0  0
  114.4069   -2.6420   -1.0753 C   0  0  0  0  0  0  0  0  0  0  0  0
  113.1464   -3.2022   -1.3165 C   0  0  0  0  0  0  0  0  0  0  0  0
  113.1337   -4.5808   -1.8682 C   0  0  0  0  0  0  0  0  0  0  0  0
  113.7019   -4.8507   -3.1138 C   0  0  0  0  0  0  0  0  0  0  0  0
  113.6876   -6.1394   -3.6262 C   0  0  0  0  0  0  0  0  0  0  0  0
  113.1124   -7.1732   -2.8998 C   0  0  0  0  0  0  0  0  0  0  0  0
  112.5477   -6.9129   -1.6586 C   0  0  0  0  0  0  0  0  0  0  0  0
  112.5550   -5.6247   -1.1453 C   0  0  0  0  0  0  0  0  0  0  0  0
  111.9201   -2.5780   -1.0838 C   0  0  0  0  0  0  0  0  0  0  0  0
  110.6365   -3.1746   -1.4078 C   0  0  0  0  0  0  0  0  0  0  0  0
  109.6952   -2.2809   -1.0399 C   0  0  0  0  0  0  0  0  0  0  0  0
  110.4050   -1.1386   -0.4996 C   0  0  0  0  0  0  0  0  0  0  0  0
  111.7373   -1.3395   -0.5474 N   0  0  0  0  0  0  0  0  0  0  0  0
  114.6527   -1.3834   -0.5946 N   0  0  0  0  0  0  0  0  0  0  0  0
  113.2373    4.5676    1.8876 C   0  0  0  0  0  0  0  0  0  0  0  0
  112.6506    5.6317    1.2014 C   0  0  0  0  0  0  0  0  0  0  0  0
  112.6665    6.9085    1.7427 C   0  0  0  0  0  0  0  0  0  0  0  0
  113.2619    7.1368    2.9758 C   0  0  0  0  0  0  0  0  0  0  0  0
  113.8453    6.0827    3.6655 C   0  0  0  0  0  0  0  0  0  0  0  0
  113.8363    4.8056    3.1253 C   0  0  0  0  0  0  0  0  0  0  0  0
  108.6637    2.4040    1.1620 H   0  0  0  0  0  0  0  0  0  0  0  0
  110.5523    4.1509    1.8901 H   0  0  0  0  0  0  0  0  0  0  0  0
  112.4350    0.7432    0.2566 H   0  0  0  0  0  0  0  0  0  0  0  0
  115.8706    4.2702    1.5355 H   0  0  0  0  0  0  0  0  0  0  0  0
  117.7446    2.4881    0.7941 H   0  0  0  0  0  0  0  0  0  0  0  0
  117.7083   -2.5063   -0.9260 H   0  0  0  0  0  0  0  0  0  0  0  0
  115.8202   -4.2697   -1.6144 H   0  0  0  0  0  0  0  0  0  0  0  0
  114.1400   -4.0422   -3.6885 H   0  0  0  0  0  0  0  0  0  0  0  0
  114.1269   -6.3367   -4.5977 H   0  0  0  0  0  0  0  0  0  0  0  0
  113.1041   -8.1804   -3.3007 H   0  0  0  0  0  0  0  0  0  0  0  0
  112.0996   -7.7174   -1.0861 H   0  0  0  0  0  0  0  0  0  0  0  0
  112.1239   -5.4247   -0.1707 H   0  0  0  0  0  0  0  0  0  0  0  0
  110.4971   -4.1397   -1.8672 H   0  0  0  0  0  0  0  0  0  0  0  0
  108.6229   -2.3597   -1.1215 H   0  0  0  0  0  0  0  0  0  0  0  0
  113.9344   -0.7099   -0.3505 H   0  0  0  0  0  0  0  0  0  0  0  0
  112.1968    5.4579    0.2320 H   0  0  0  0  0  0  0  0  0  0  0  0
  112.2127    7.7290    1.1981 H   0  0  0  0  0  0  0  0  0  0  0  0
  113.2716    8.1350    3.3985 H   0  0  0  0  0  0  0  0  0  0  0  0
  114.3094    6.2552    4.6302 H   0  0  0  0  0  0  0  0  0  0  0  0
  114.2821    3.9810    3.6702 H   0  0  0  0  0  0  0  0  0  0  0  0
  125.7979   -0.0152   -0.0435 C   0  0  0  0  0  0  0  0  0  0  0  0
  126.4277    1.1407    0.4582 C   0  0  0  0  0  0  0  0  0  0  0  0
  125.7830    2.2881    0.9880 C   0  0  0  0  0  0  0  0  0  0  0  0
  126.7508    3.1853    1.3492 C   0  0  0  0  0  0  0  0  0  0  0  0
  128.0155    2.6144    1.0405 C   0  0  0  0  0  0  0  0  0  0  0  0
  127.7692    1.3743    0.5141 N   0  0  0  0  0  0  0  0  0  0  0  0
  129.2757    3.1904    1.2405 C   0  0  0  0  0  0  0  0  0  0  0  0
  130.5006    2.5816    0.9618 C   0  0  0  0  0  0  0  0  0  0  0  0
  131.7848    3.2399    1.1228 C   0  0  0  0  0  0  0  0  0  0  0  0
  132.7240    2.3387    0.7680 C   0  0  0  0  0  0  0  0  0  0  0  0
  130.6799    1.3143    0.4979 N   0  0  0  0  0  0  0  0  0  0  0  0
  132.0119    1.1360    0.3842 C   0  0  0  0  0  0  0  0  0  0  0  0
  132.6677   -0.0422   -0.0249 C   0  0  0  0  0  0  0  0  0  0  0  0
  132.0382   -1.2301   -0.4438 C   0  0  0  0  0  0  0  0  0  0  0  0
  132.6828   -2.4327   -0.8324 C   0  0  0  0  0  0  0  0  0  0  0  0
  131.7153   -3.3320   -1.1893 C   0  0  0  0  0  0  0  0  0  0  0  0
  130.4511   -2.6999   -1.0371 C   0  0  0  0  0  0  0  0  0  0  0  0
  129.1911   -3.2538   -1.2952 C   0  0  0  0  0  0  0  0  0  0  0  0
  129.1783   -4.6371   -1.8340 C   0  0  0  0  0  0  0  0  0  0  0  0
  129.7745   -4.9234   -3.0629 C   0  0  0  0  0  0  0  0  0  0  0  0
  129.7618   -6.2165   -3.5639 C   0  0  0  0  0  0  0  0  0  0  0  0
  129.1600   -7.2388   -2.8429 C   0  0  0  0  0  0  0  0  0  0  0  0
  128.5669   -6.9622   -1.6185 C   0  0  0  0  0  0  0  0  0  0  0  0
  128.5727   -5.6696   -1.1165 C   0  0  0  0  0  0  0  0  0  0  0  0
  127.9666   -2.6169   -1.0896 C   0  0  0  0  0  0  0  0  0  0  0  0
  126.6829   -3.2056   -1.4271 C   0  0  0  0  0  0  0  0  0  0  0  0
  125.7437   -2.3026   -1.0766 C   0  0  0  0  0  0  0  0  0  0  0  0
  126.4552   -1.1619   -0.5351 C   0  0  0  0  0  0  0  0  0  0  0  0
  127.7863   -1.3727   -0.5654 N   0  0  0  0  0  0  0  0  0  0  0  0
  130.6970   -1.4352   -0.5734 N   0  0  0  0  0  0  0  0  0  0  0  0
  129.2922    4.5663    1.7981 C   0  0  0  0  0  0  0  0  0  0  0  0
  128.7109    5.6231    1.0965 C   0  0  0  0  0  0  0  0  0  0  0  0
  128.7302    6.9070    1.6206 C   0  0  0  0  0  0  0  0  0  0  0  0
  129.3234    7.1497    2.8520 C   0  0  0  0  0  0  0  0  0  0  0  0
  129.9014    6.1028    3.5573 C   0  0  0  0  0  0  0  0  0  0  0  0
  129.8892    4.8187    3.0340 C   0  0  0  0  0  0  0  0  0  0  0  0
  124.7151    2.4019    1.0825 H   0  0  0  0  0  0  0  0  0  0  0  0
  126.6038    4.1542    1.7977 H   0  0  0  0  0  0  0  0  0  0  0  0
  128.4873    0.7229    0.2153 H   0  0  0  0  0  0  0  0  0  0  0  0
  131.9259    4.2574    1.4494 H   0  0  0  0  0  0  0  0  0  0  0  0
  133.7960    2.4534    0.7520 H   0  0  0  0  0  0  0  0  0  0  0  0
  133.7503   -2.5834   -0.8318 H   0  0  0  0  0  0  0  0  0  0  0  0
  131.8624   -4.3468   -1.5209 H   0  0  0  0  0  0  0  0  0  0  0  0
  130.2336   -4.1239   -3.6338 H   0  0  0  0  0  0  0  0  0  0  0  0
  130.2234   -6.4263   -4.5225 H   0  0  0  0  0  0  0  0  0  0  0  0
  129.1531   -8.2495   -3.2347 H   0  0  0  0  0  0  0  0  0  0  0  0
  128.0978   -7.7577   -1.0501 H   0  0  0  0  0  0  0  0  0  0  0  0
  128.1199   -5.4573   -0.1545 H   0  0  0  0  0  0  0  0  0  0  0  0
  126.5421   -4.1724   -1.8825 H   0  0  0  0  0  0  0  0  0  0  0  0
  124.6720   -2.3738   -1.1718 H   0  0  0  0  0  0  0  0  0  0  0  0
  129.9790   -0.7524   -0.3555 H   0  0  0  0  0  0  0  0  0  0  0  0
  128.2588    5.4380    0.1284 H   0  0  0  0  0  0  0  0  0  0  0  0
  128.2809    7.7219    1.0639 H   0  0  0  0  0  0  0  0  0  0  0  0
  129.3357    8.1534    3.2613 H   0  0  0  0  0  0  0  0  0  0  0  0
  130.3637    6.2866    4.5208 H   0  0  0  0  0  0  0  0  0  0  0  0
  130.3310    3.9999    3.5908 H   0  0  0  0  0  0  0  0  0  0  0  0
  1  2  4  0  0  0  0
  2  3  4  0  0  0  0
  3  4  2  0  0  0  0
  4  5  4  0  0  0  0
  2  6  4  0  0  0  0
  5  6  4  0  0  0  0
  5  7  4  0  0  0  0
  7  8  4  0  0  0  0
  8  9  1  0  0  0  0
  9 10  2  0  0  0  0
  8 11  4  0  0  0  0
 10 12  1  0  0  0  0
 11 12  4  0  0  0  0
 12 13  4  0  0  0  0
 13 14  4  0  0  0  0
 14 15  4  0  0  0  0
 15 16  2  0  0  0  0
 16 17  4  0  0  0  0
 17 18  4  0  0  0  0
 18 19  1  0  0  0  0
 19 20  4  0  0  0  0
 20 21  4  0  0  0  0
 21 22  4  0  0  0  0
 22 23  4  0  0  0  0
 19 24  4  0  0  0  0
 23 24  4  0  0  0  0
 18 25  4  0  0  0  0
 25 26  1  0  0  0  0
 26 27  2  0  0  0  0
  1 28  4  0  0  0  0
 27 28  1  0  0  0  0
 25 29  4  0  0  0  0
 28 29  4  0  0  0  0
 14 30  4  0  0  0  0
 17 30  4  0  0  0  0
  7 31  1  0  0  0  0
 31 32  4  0  0  0  0
 32 33  4  0  0  0  0
 33 34  4  0  0  0  0
 34 35  4  0  0  0  0
 31 36  4  0  0  0  0
 35 36  4  0  0  0  0
  1 37  1  0  0  0  0
  3 38  1  0  0  0  0
  4 39  1  0  0  0  0
  6 40  1  0  0  0  0
  9 41  1  0  0  0  0
 10 42  1  0  0  0  0
 15 43  1  0  0  0  0
 16 44  1  0  0  0  0
 20 45  1  0  0  0  0
 21 46  1  0  0  0  0
 22 47  1  0  0  0  0
 23 48  1  0  0  0  0
 24 49  1  0  0  0  0
 26 50  1  0  0  0  0
 27 51  1  0  0  0  0
 30 52  1  0  0  0  0
 32 53  1  0  0  0  0
 33 54  1  0  0  0  0
 34 55  1  0  0  0  0
 35 56  1  0  0  0  0
 36 57  1  0  0  0  0
 58 59  4  0  0  0  0
 59 60  4  0  0  0  0
 60 61  2  0  0  0  0
 61 62  4  0  0  0  0
 59 63  4  0  0  0  0
 62 63  4  0  0  0  0
 62 64  4  0  0  0  0
 64 65  4  0  0  0  0
 65 66  1  0  0  0  0
 66 67  2  0  0  0  0
 65 68  4  0  0  0  0
 67 69  1  0  0  0  0
 68 69  4  0  0  0  0
 69 70  4  0  0  0  0
 70 71  4  0  0  0  0
 71 72  4  0  0  0  0
 72 73  2  0  0  0  0
 73 74  4  0  0  0  0
 74 75  4  0  0  0  0
 75 76  1  0  0  0  0
 76 77  4  0  0  0  0
 77 78  4  0  0  0  0
 78 79  4  0  0  0  0
 79 80  4  0  0  0  0
 76 81  4  0  0  0  0
 80 81  4  0  0  0  0
 75 82  4  0  0  0  0
 82 83  1  0  0  0  0
 83 84  2  0  0  0  0
 58 85  4  0  0  0  0
 84 85  1  0  0  0  0
 82 86  4  0  0  0  0
 85 86  4  0  0  0  0
 71 87  4  0  0  0  0
 74 87  4  0  0  0  0
 64 88  1  0  0  0  0
 88 89  4  0  0  0  0
 89 90  4  0  0  0  0
 90 91  4  0  0  0  0
 91 92  4  0  0  0  0
 88 93  4  0  0  0  0
 92 93  4  0  0  0  0
 58 94  1  0  0  0  0
 60 95  1  0  0  0  0
 61 96  1  0  0  0  0
 63 97  1  0  0  0  0
 66 98  1  0  0  0  0
 67 99  1  0  0  0  0
 72100  1  0  0  0  0
 73101  1  0  0  0  0
 77102  1  0  0  0  0
 78103  1  0  0  0  0
 79104  1  0  0  0  0
 80105  1  0  0  0  0
 81106  1  0  0  0  0
 83107  1  0  0  0  0
 84108  1  0  0  0  0
 87109  1  0  0  0  0
 89110  1  0  0  0  0
 90111  1  0  0  0  0
 91112  1  0  0  0  0
 92113  1  0  0  0  0
 93114  1  0  0  0  0
115116  3  0  0  0  0
116117  4  0  0  0  0
 13118  4  0  0  0  0
117118  3  0  0  0  0
115119  4  0  0  0  0
119120  3  0  0  0  0
121122  3  0  0  0  0
122123  4  0  0  0  0
123124  3  0  0  0  0
121125  4  0  0  0  0
125126  3  0  0  0  0
127128  3  0  0  0  0
128129  4  0  0  0  0
129130  3  0  0  0  0
127131  4  0  0  0  0
131132  3  0  0  0  0
133134  3  0  0  0  0
134135  4  0  0  0  0
135136  3  0  0  0  0
133137  4  0  0  0  0
137138  3  0  0  0  0
139140  3  0  0  0  0
140141  4  0  0  0  0
141142  3  0  0  0  0
139143  4  0  0  0  0
 70144  4  0  0  0  0
143144  3  0  0  0  0
120145  4  0  0  0  0
145146  4  0  0  0  0
146147  4  0  0  0  0
147148  2  0  0  0  0
148149  4  0  0  0  0
146150  4  0  0  0  0
149150  4  0  0  0  0
149151  4  0  0  0  0
151152  4  0  0  0  0
152153  1  0  0  0  0
153154  2  0  0  0  0
152155  4  0  0  0  0
154156  1  0  0  0  0
155156  4  0  0  0  0
124157  4  0  0  0  0
156157  4  0  0  0  0
157158  4  0  0  0  0
158159  4  0  0  0  0
159160  2  0  0  0  0
160161  4  0  0  0  0
161162  4  0  0  0  0
162163  1  0  0  0  0
163164  4  0  0  0  0
164165  4  0  0  0  0
165166  4  0  0  0  0
166167  4  0  0  0  0
163168  4  0  0  0  0
167168  4  0  0  0  0
162169  4  0  0  0  0
169170  1  0  0  0  0
170171  2  0  0  0  0
145172  4  0  0  0  0
171172  1  0  0  0  0
169173  4  0  0  0  0
172173  4  0  0  0  0
158174  4  0  0  0  0
161174  4  0  0  0  0
151175  1  0  0  0  0
175176  4  0  0  0  0
176177  4  0  0  0  0
177178  4  0  0  0  0
178179  4  0  0  0  0
175180  4  0  0  0  0
179180  4  0  0  0  0
147181  1  0  0  0  0
148182  1  0  0  0  0
150183  1  0  0  0  0
153184  1  0  0  0  0
154185  1  0  0  0  0
159186  1  0  0  0  0
160187  1  0  0  0  0
164188  1  0  0  0  0
165189  1  0  0  0  0
166190  1  0  0  0  0
167191  1  0  0  0  0
168192  1  0  0  0  0
170193  1  0  0  0  0
171194  1  0  0  0  0
174195  1  0  0  0  0
176196  1  0  0  0  0
177197  1  0  0  0  0
178198  1  0  0  0  0
179199  1  0  0  0  0
180200  1  0  0  0  0
126201  4  0  0  0  0
201202  4  0  0  0  0
202203  4  0  0  0  0
203204  2  0  0  0  0
204205  4  0  0  0  0
202206  4  0  0  0  0
205206  4  0  0  0  0
205207  4  0  0  0  0
207208  4  0  0  0  0
208209  1  0  0  0  0
209210  2  0  0  0  0
208211  4  0  0  0  0
210212  1  0  0  0  0
211212  4  0  0  0  0
130213  4  0  0  0  0
212213  4  0  0  0  0
213214  4  0  0  0  0
214215  4  0  0  0  0
215216  2  0  0  0  0
216217  4  0  0  0  0
217218  4  0  0  0  0
218219  1  0  0  0  0
219220  4  0  0  0  0
220221  4  0  0  0  0
221222  4  0  0  0  0
222223  4  0  0  0  0
219224  4  0  0  0  0
223224  4  0  0  0  0
218225  4  0  0  0  0
225226  1  0  0  0  0
226227  2  0  0  0  0
201228  4  0  0  0  0
227228  1  0  0  0  0
225229  4  0  0  0  0
228229  4  0  0  0  0
214230  4  0  0  0  0
217230  4  0  0  0  0
207231  1  0  0  0  0
231232  4  0  0  0  0
232233  4  0  0  0  0
233234  4  0  0  0  0
234235  4  0  0  0  0
231236  4  0  0  0  0
235236  4  0  0  0  0
203237  1  0  0  0  0
204238  1  0  0  0  0
206239  1  0  0  0  0
209240  1  0  0  0  0
210241  1  0  0  0  0
215242  1  0  0  0  0
216243  1  0  0  0  0
220244  1  0  0  0  0
221245  1  0  0  0  0
222246  1  0  0  0  0
223247  1  0  0  0  0
224248  1  0  0  0  0
226249  1  0  0  0  0
227250  1  0  0  0  0
230251  1  0  0  0  0
232252  1  0  0  0  0
233253  1  0  0  0  0
234254  1  0  0  0  0
235255  1  0  0  0  0
236256  1  0  0  0  0
132257  4  0  0  0  0
257258  4  0  0  0  0
258259  4  0  0  0  0
259260  2  0  0  0  0
260261  4  0  0  0  0
258262  4  0  0  0  0
261262  4  0  0  0  0
261263  4  0  0  0  0
263264  4  0  0  0  0
264265  1  0  0  0  0
265266  2  0  0  0  0
264267  4  0  0  0  0
266268  1  0  0  0  0
267268  4  0  0  0  0
136269  4  0  0  0  0
268269  4  0  0  0  0
269270  4  0  0  0  0
270271  4  0  0  0  0
271272  2  0  0  0  0
272273  4  0  0  0  0
273274  4  0  0  0  0
274275  1  0  0  0  0
275276  4  0  0  0  0
276277  4  0  0  0  0
277278  4  0  0  0  0
278279  4  0  0  0  0
275280  4  0  0  0  0
279280  4  0  0  0  0
274281  4  0  0  0  0
281282  1  0  0  0  0
282283  2  0  0  0  0
257284  4  0  0  0  0
283284  1  0  0  0  0
281285  4  0  0  0  0
284285  4  0  0  0  0
270286  4  0  0  0  0
273286  4  0  0  0  0
263287  1  0  0  0  0
287288  4  0  0  0  0
288289  4  0  0  0  0
289290  4  0  0  0  0
290291  4  0  0  0  0
287292  4  0  0  0  0
291292  4  0  0  0  0
259293  1  0  0  0  0
260294  1  0  0  0  0
262295  1  0  0  0  0
265296  1  0  0  0  0
266297  1  0  0  0  0
271298  1  0  0  0  0
272299  1  0  0  0  0
276300  1  0  0  0  0
277301  1  0  0  0  0
278302  1  0  0  0  0
279303  1  0  0  0  0
280304  1  0  0  0  0
282305  1  0  0  0  0
283306  1  0  0  0  0
286307  1  0  0  0  0
288308  1  0  0  0  0
289309  1  0  0  0  0
290310  1  0  0  0  0
291311  1  0  0  0  0
292312  1  0  0  0  0
138313  4  0  0  0  0
313314  4  0  0  0  0
314315  4  0  0  0  0
315316  2  0  0  0  0
316317  4  0  0  0  0
314318  4  0  0  0  0
317318  4  0  0  0  0
317319  4  0  0  0  0
319320  4  0  0  0  0
320321  1  0  0  0  0
321322  2  0  0  0  0
320323  4  0  0  0  0
322324  1  0  0  0  0
323324  4  0  0  0  0
142325  4  0  0  0  0
324325  4  0  0  0  0
325326  4  0  0  0  0
326327  4  0  0  0  0
327328  2  0  0  0  0
328329  4  0  0  0  0
329330  4  0  0  0  0
330331  1  0  0  0  0
331332  4  0  0  0  0
332333  4  0  0  0  0
333334  4  0  0  0  0
334335  4  0  0  0  0
331336  4  0  0  0  0
335336  4  0  0  0  0
330337  4  0  0  0  0
337338  1  0  0  0  0
338339  2  0  0  0  0
313340  4  0  0  0  0
339340  1  0  0  0  0
337341  4  0  0  0  0
340341  4  0  0  0  0
326342  4  0  0  0  0
329342  4  0  0  0  0
319343  1  0  0  0  0
343344  4  0  0  0  0
344345  4  0  0  0  0
345346  4  0  0  0  0
346347  4  0  0  0  0
343348  4  0  0  0  0
347348  4  0  0  0  0
315349  1  0  0  0  0
316350  1  0  0  0  0
318351  1  0  0  0  0
321352  1  0  0  0  0
322353  1  0  0  0  0
327354  1  0  0  0  0
328355  1  0  0  0  0
332356  1  0  0  0  0
333357  1  0  0  0  0
334358  1  0  0  0  0
335359  1  0  0  0  0
336360  1  0  0  0  0
338361  1  0  0  0  0
339362  1  0  0  0  0
342363  1  0  0  0  0
344364  1  0  0  0  0
345365  1  0  0  0  0
346366  1  0  0  0  0
347367  1  0  0  0  0
348368  1  0  0  0  0
M  END
