 xtb: 6.5.1 (b24c23e)
          07302201523D

179208  0     0  0            999 V2000
   26.3567   -0.0166    0.0480 Co  0  0  0  0  0  0  0  0  0  0  0  0
   22.9864   -0.0453    0.1865 C   0  0  0  0  0  0  0  0  0  0  0  0
   23.6360   -1.2066   -0.1740 C   0  0  0  0  0  0  0  0  0  0  0  0
   22.9650   -2.4274   -0.5026 C   0  0  0  0  0  0  0  0  0  0  0  0
   23.9233   -3.3752   -0.6285 C   0  0  0  0  0  0  0  0  0  0  0  0
   25.1791   -2.7327   -0.3712 C   0  0  0  0  0  0  0  0  0  0  0  0
   24.9950   -1.3927   -0.1433 N   0  0  0  0  0  0  0  0  0  0  0  0
   26.3735   -3.4149   -0.1825 C   0  0  0  0  0  0  0  0  0  0  0  0
   27.5543   -2.7586    0.1271 C   0  0  0  0  0  0  0  0  0  0  0  0
   28.8035   -3.4195    0.3587 C   0  0  0  0  0  0  0  0  0  0  0  0
   29.7488   -2.4529    0.4401 C   0  0  0  0  0  0  0  0  0  0  0  0
   27.7320   -1.3934    0.1016 N   0  0  0  0  0  0  0  0  0  0  0  0
   29.0780   -1.2067    0.2427 C   0  0  0  0  0  0  0  0  0  0  0  0
   29.7501    0.0032    0.0464 C   0  0  0  0  0  0  0  0  0  0  0  0
   29.0635    1.1997   -0.1814 C   0  0  0  0  0  0  0  0  0  0  0  0
   29.7117    2.4387   -0.4737 C   0  0  0  0  0  0  0  0  0  0  0  0
   28.7483    3.3914   -0.4686 C   0  0  0  0  0  0  0  0  0  0  0  0
   27.5170    2.7318   -0.1526 C   0  0  0  0  0  0  0  0  0  0  0  0
   26.3322    3.3908    0.1365 C   0  0  0  0  0  0  0  0  0  0  0  0
   26.3171    4.8715    0.1656 C   0  0  0  0  0  0  0  0  0  0  0  0
   25.4721    5.5874   -0.6837 C   0  0  0  0  0  0  0  0  0  0  0  0
   25.4602    6.9737   -0.6545 C   0  0  0  0  0  0  0  0  0  0  0  0
   26.2849    7.6609    0.2259 C   0  0  0  0  0  0  0  0  0  0  0  0
   27.1252    6.9557    1.0768 C   0  0  0  0  0  0  0  0  0  0  0  0
   27.1448    5.5695    1.0463 C   0  0  0  0  0  0  0  0  0  0  0  0
   25.1600    2.6997    0.4171 C   0  0  0  0  0  0  0  0  0  0  0  0
   23.9283    3.3241    0.8018 C   0  0  0  0  0  0  0  0  0  0  0  0
   22.9864    2.3516    0.8242 C   0  0  0  0  0  0  0  0  0  0  0  0
   23.6448    1.1348    0.4577 C   0  0  0  0  0  0  0  0  0  0  0  0
   24.9880    1.3477    0.2705 N   0  0  0  0  0  0  0  0  0  0  0  0
   27.7157    1.3732   -0.0462 N   0  0  0  0  0  0  0  0  0  0  0  0
   26.3792   -4.8945   -0.2950 C   0  0  0  0  0  0  0  0  0  0  0  0
   26.1614   -5.5067   -1.5290 C   0  0  0  0  0  0  0  0  0  0  0  0
   26.1706   -6.8896   -1.6348 C   0  0  0  0  0  0  0  0  0  0  0  0
   26.3911   -7.6742   -0.5110 C   0  0  0  0  0  0  0  0  0  0  0  0
   26.6040   -7.0708    0.7209 C   0  0  0  0  0  0  0  0  0  0  0  0
   26.6007   -5.6881    0.8303 C   0  0  0  0  0  0  0  0  0  0  0  0
   21.9045   -0.0576    0.2474 H   0  0  0  0  0  0  0  0  0  0  0  0
   21.8962   -2.5285   -0.6047 H   0  0  0  0  0  0  0  0  0  0  0  0
   23.8034   -4.4235   -0.8492 H   0  0  0  0  0  0  0  0  0  0  0  0
   28.9318   -4.4872    0.4296 H   0  0  0  0  0  0  0  0  0  0  0  0
   30.8106   -2.5585    0.5945 H   0  0  0  0  0  0  0  0  0  0  0  0
   30.7689    2.5485   -0.6545 H   0  0  0  0  0  0  0  0  0  0  0  0
   28.8511    4.4478   -0.6559 H   0  0  0  0  0  0  0  0  0  0  0  0
   24.8357    5.0524   -1.3798 H   0  0  0  0  0  0  0  0  0  0  0  0
   24.8042    7.5203   -1.3230 H   0  0  0  0  0  0  0  0  0  0  0  0
   26.2724    8.7447    0.2493 H   0  0  0  0  0  0  0  0  0  0  0  0
   27.7683    7.4875    1.7692 H   0  0  0  0  0  0  0  0  0  0  0  0
   27.7918    5.0197    1.7207 H   0  0  0  0  0  0  0  0  0  0  0  0
   23.8135    4.3728    1.0232 H   0  0  0  0  0  0  0  0  0  0  0  0
   21.9359    2.4325    1.0542 H   0  0  0  0  0  0  0  0  0  0  0  0
   25.9987   -4.8939   -2.4087 H   0  0  0  0  0  0  0  0  0  0  0  0
   26.0058   -7.3564   -2.5996 H   0  0  0  0  0  0  0  0  0  0  0  0
   26.3965   -8.7550   -0.5951 H   0  0  0  0  0  0  0  0  0  0  0  0
   26.7729   -7.6796    1.6023 H   0  0  0  0  0  0  0  0  0  0  0  0
   26.7559   -5.2177    1.7948 H   0  0  0  0  0  0  0  0  0  0  0  0
   58.2613    0.0508    0.0615 Co  0  0  0  0  0  0  0  0  0  0  0  0
   61.6313    0.0654    0.2127 C   0  0  0  0  0  0  0  0  0  0  0  0
   60.9857    1.2433   -0.0975 C   0  0  0  0  0  0  0  0  0  0  0  0
   61.6608    2.4757   -0.3693 C   0  0  0  0  0  0  0  0  0  0  0  0
   60.7051    3.4300   -0.4601 C   0  0  0  0  0  0  0  0  0  0  0  0
   59.4466    2.7798   -0.2374 C   0  0  0  0  0  0  0  0  0  0  0  0
   59.6269    1.4309   -0.0657 N   0  0  0  0  0  0  0  0  0  0  0  0
   58.2527    3.4562   -0.0268 C   0  0  0  0  0  0  0  0  0  0  0  0
   57.0695    2.7903    0.2521 C   0  0  0  0  0  0  0  0  0  0  0  0
   55.8214    3.4440    0.5084 C   0  0  0  0  0  0  0  0  0  0  0  0
   54.8741    2.4768    0.5513 C   0  0  0  0  0  0  0  0  0  0  0  0
   56.8890    1.4277    0.1717 N   0  0  0  0  0  0  0  0  0  0  0  0
   55.5426    1.2382    0.3047 C   0  0  0  0  0  0  0  0  0  0  0  0
   54.8677    0.0388    0.0592 C   0  0  0  0  0  0  0  0  0  0  0  0
   55.5513   -1.1484   -0.2205 C   0  0  0  0  0  0  0  0  0  0  0  0
   54.8997   -2.3716   -0.5666 C   0  0  0  0  0  0  0  0  0  0  0  0
   55.8611   -3.3257   -0.6066 C   0  0  0  0  0  0  0  0  0  0  0  0
   57.0943   -2.6835   -0.2635 C   0  0  0  0  0  0  0  0  0  0  0  0
   58.2780   -3.3574   -0.0063 C   0  0  0  0  0  0  0  0  0  0  0  0
   58.2918   -4.8380   -0.0466 C   0  0  0  0  0  0  0  0  0  0  0  0
   59.1352   -5.5133   -0.9300 C   0  0  0  0  0  0  0  0  0  0  0  0
   59.1485   -6.8995   -0.9645 C   0  0  0  0  0  0  0  0  0  0  0  0
   58.3267   -7.6271   -0.1145 C   0  0  0  0  0  0  0  0  0  0  0  0
   57.4875   -6.9625    0.7695 C   0  0  0  0  0  0  0  0  0  0  0  0
   57.4665   -5.5764    0.8027 C   0  0  0  0  0  0  0  0  0  0  0  0
   59.4514   -2.6825    0.3070 C   0  0  0  0  0  0  0  0  0  0  0  0
   60.6809   -3.3271    0.6645 C   0  0  0  0  0  0  0  0  0  0  0  0
   61.6245   -2.3587    0.7360 C   0  0  0  0  0  0  0  0  0  0  0  0
   60.9694   -1.1245    0.4258 C   0  0  0  0  0  0  0  0  0  0  0  0
   59.6264   -1.3256    0.2249 N   0  0  0  0  0  0  0  0  0  0  0  0
   56.8988   -1.3306   -0.0952 N   0  0  0  0  0  0  0  0  0  0  0  0
   58.2503    4.9390   -0.0804 C   0  0  0  0  0  0  0  0  0  0  0  0
   58.4773    5.5986   -1.2882 C   0  0  0  0  0  0  0  0  0  0  0  0
   58.4711    6.9846   -1.3399 C   0  0  0  0  0  0  0  0  0  0  0  0
   58.2445    7.7251   -0.1877 C   0  0  0  0  0  0  0  0  0  0  0  0
   58.0225    7.0744    1.0183 C   0  0  0  0  0  0  0  0  0  0  0  0
   58.0229    5.6886    1.0735 C   0  0  0  0  0  0  0  0  0  0  0  0
   62.7129    0.0725    0.2784 H   0  0  0  0  0  0  0  0  0  0  0  0
   62.7304    2.5788   -0.4610 H   0  0  0  0  0  0  0  0  0  0  0  0
   60.8282    4.4866   -0.6348 H   0  0  0  0  0  0  0  0  0  0  0  0
   55.6949    4.5084    0.6214 H   0  0  0  0  0  0  0  0  0  0  0  0
   53.8125    2.5784    0.7092 H   0  0  0  0  0  0  0  0  0  0  0  0
   53.8420   -2.4709   -0.7502 H   0  0  0  0  0  0  0  0  0  0  0  0
   55.7557   -4.3724   -0.8410 H   0  0  0  0  0  0  0  0  0  0  0  0
   59.7696   -4.9462   -1.6022 H   0  0  0  0  0  0  0  0  0  0  0  0
   59.8035   -7.4141   -1.6588 H   0  0  0  0  0  0  0  0  0  0  0  0
   58.3406   -8.7108   -0.1404 H   0  0  0  0  0  0  0  0  0  0  0  0
   56.8467   -7.5263    1.4384 H   0  0  0  0  0  0  0  0  0  0  0  0
   56.8207   -5.0589    1.5033 H   0  0  0  0  0  0  0  0  0  0  0  0
   60.7930   -4.3855    0.8359 H   0  0  0  0  0  0  0  0  0  0  0  0
   62.6742   -2.4527    0.9646 H   0  0  0  0  0  0  0  0  0  0  0  0
   58.6447    5.0204   -2.1900 H   0  0  0  0  0  0  0  0  0  0  0  0
   58.6431    7.4884   -2.2846 H   0  0  0  0  0  0  0  0  0  0  0  0
   58.2414    8.8084   -0.2296 H   0  0  0  0  0  0  0  0  0  0  0  0
   57.8490    7.6487    1.9216 H   0  0  0  0  0  0  0  0  0  0  0  0
   57.8609    5.1811    2.0180 H   0  0  0  0  0  0  0  0  0  0  0  0
   34.9487    0.0413    0.0607 C   0  0  0  0  0  0  0  0  0  0  0  0
   33.7189    0.0342    0.0606 C   0  0  0  0  0  0  0  0  0  0  0  0
   32.3765    0.0254    0.0581 C   0  0  0  0  0  0  0  0  0  0  0  0
   31.1516    0.0140    0.0541 C   0  0  0  0  0  0  0  0  0  0  0  0
   36.2909    0.0433    0.0618 C   0  0  0  0  0  0  0  0  0  0  0  0
   37.5162    0.0439    0.0628 C   0  0  0  0  0  0  0  0  0  0  0  0
   50.8989    0.0174    0.0768 C   0  0  0  0  0  0  0  0  0  0  0  0
   49.6691    0.0103    0.0771 C   0  0  0  0  0  0  0  0  0  0  0  0
   48.3269    0.0081    0.0777 C   0  0  0  0  0  0  0  0  0  0  0  0
   47.1016    0.0067    0.0753 C   0  0  0  0  0  0  0  0  0  0  0  0
   52.2413    0.0225    0.0743 C   0  0  0  0  0  0  0  0  0  0  0  0
   53.4662    0.0309    0.0679 C   0  0  0  0  0  0  0  0  0  0  0  0
   42.3090    0.0261    0.0276 Co  0  0  0  0  0  0  0  0  0  0  0  0
   38.9163    0.0399    0.0633 C   0  0  0  0  0  0  0  0  0  0  0  0
   39.5954   -1.1492    0.3515 C   0  0  0  0  0  0  0  0  0  0  0  0
   38.9439   -2.3736    0.6919 C   0  0  0  0  0  0  0  0  0  0  0  0
   39.8964   -3.3384    0.6721 C   0  0  0  0  0  0  0  0  0  0  0  0
   41.1238   -2.6981    0.3081 C   0  0  0  0  0  0  0  0  0  0  0  0
   40.9379   -1.3404    0.1885 N   0  0  0  0  0  0  0  0  0  0  0  0
   42.2940   -3.3709   -0.0171 C   0  0  0  0  0  0  0  0  0  0  0  0
   43.4722   -2.6954   -0.3069 C   0  0  0  0  0  0  0  0  0  0  0  0
   44.6943   -3.3276   -0.7006 C   0  0  0  0  0  0  0  0  0  0  0  0
   45.6559   -2.3716   -0.6701 C   0  0  0  0  0  0  0  0  0  0  0  0
   43.6720   -1.3490   -0.1105 N   0  0  0  0  0  0  0  0  0  0  0  0
   45.0148   -1.1601   -0.2704 C   0  0  0  0  0  0  0  0  0  0  0  0
   45.7016    0.0103    0.0725 C   0  0  0  0  0  0  0  0  0  0  0  0
   45.0214    1.1864    0.4078 C   0  0  0  0  0  0  0  0  0  0  0  0
   45.6721    2.3955    0.8006 C   0  0  0  0  0  0  0  0  0  0  0  0
   44.7197    3.3604    0.8183 C   0  0  0  0  0  0  0  0  0  0  0  0
   43.4933    2.7362    0.4244 C   0  0  0  0  0  0  0  0  0  0  0  0
   42.3238    3.4221    0.1247 C   0  0  0  0  0  0  0  0  0  0  0  0
   42.3332    4.9020    0.1460 C   0  0  0  0  0  0  0  0  0  0  0  0
   41.4648    5.6035    0.9840 C   0  0  0  0  0  0  0  0  0  0  0  0
   41.4780    6.9898    1.0040 C   0  0  0  0  0  0  0  0  0  0  0  0
   42.3510    7.6919    0.1839 C   0  0  0  0  0  0  0  0  0  0  0  0
   43.2153    7.0013   -0.6550 C   0  0  0  0  0  0  0  0  0  0  0  0
   43.2107    5.6149   -0.6727 C   0  0  0  0  0  0  0  0  0  0  0  0
   41.1463    2.7592   -0.1961 C   0  0  0  0  0  0  0  0  0  0  0  0
   39.9253    3.4072   -0.5667 C   0  0  0  0  0  0  0  0  0  0  0  0
   38.9638    2.4506   -0.5792 C   0  0  0  0  0  0  0  0  0  0  0  0
   39.6040    1.2235   -0.2286 C   0  0  0  0  0  0  0  0  0  0  0  0
   40.9464    1.4058   -0.0570 N   0  0  0  0  0  0  0  0  0  0  0  0
   43.6794    1.3846    0.2491 N   0  0  0  0  0  0  0  0  0  0  0  0
   42.2850   -4.8505   -0.0583 C   0  0  0  0  0  0  0  0  0  0  0  0
   41.4149   -5.5282   -0.9138 C   0  0  0  0  0  0  0  0  0  0  0  0
   41.4120   -6.9141   -0.9559 C   0  0  0  0  0  0  0  0  0  0  0  0
   42.2701   -7.6392   -0.1402 C   0  0  0  0  0  0  0  0  0  0  0  0
   43.1353   -6.9724    0.7167 C   0  0  0  0  0  0  0  0  0  0  0  0
   43.1472   -5.5865    0.7561 C   0  0  0  0  0  0  0  0  0  0  0  0
   37.8914   -2.4685    0.9051 H   0  0  0  0  0  0  0  0  0  0  0  0
   39.7874   -4.3905    0.8790 H   0  0  0  0  0  0  0  0  0  0  0  0
   44.7943   -4.3685   -0.9618 H   0  0  0  0  0  0  0  0  0  0  0  0
   46.7078   -2.4653   -0.8872 H   0  0  0  0  0  0  0  0  0  0  0  0
   46.7241    2.4812    1.0205 H   0  0  0  0  0  0  0  0  0  0  0  0
   44.8286    4.4029    1.0694 H   0  0  0  0  0  0  0  0  0  0  0  0
   40.7919    5.0565    1.6349 H   0  0  0  0  0  0  0  0  0  0  0  0
   40.8038    7.5245    1.6638 H   0  0  0  0  0  0  0  0  0  0  0  0
   42.3579    8.7758    0.1985 H   0  0  0  0  0  0  0  0  0  0  0  0
   43.8964    7.5451   -1.3001 H   0  0  0  0  0  0  0  0  0  0  0  0
   43.8770    5.0773   -1.3380 H   0  0  0  0  0  0  0  0  0  0  0  0
   39.8256    4.4580   -0.7845 H   0  0  0  0  0  0  0  0  0  0  0  0
   37.9126    2.5532   -0.7954 H   0  0  0  0  0  0  0  0  0  0  0  0
   40.7531   -4.9629   -1.5604 H   0  0  0  0  0  0  0  0  0  0  0  0
   40.7370   -7.4303   -1.6295 H   0  0  0  0  0  0  0  0  0  0  0  0
   42.2646   -8.7228   -0.1724 H   0  0  0  0  0  0  0  0  0  0  0  0
   43.8045   -7.5344    1.3587 H   0  0  0  0  0  0  0  0  0  0  0  0
   43.8146   -5.0672    1.4348 H   0  0  0  0  0  0  0  0  0  0  0  0
  2  3  4  0  0  0  0
  3  4  1  0  0  0  0
  4  5  2  0  0  0  0
  5  6  4  0  0  0  0
  1  7  1  0  0  0  0
  3  7  4  0  0  0  0
  6  7  4  0  0  0  0
  6  8  4  0  0  0  0
  8  9  4  0  0  0  0
  9 10  4  0  0  0  0
 10 11  2  0  0  0  0
  1 12  1  0  0  0  0
  9 12  4  0  0  0  0
 11 13  4  0  0  0  0
 12 13  4  0  0  0  0
 13 14  4  0  0  0  0
 14 15  4  0  0  0  0
 15 16  4  0  0  0  0
 16 17  2  0  0  0  0
 17 18  4  0  0  0  0
 18 19  4  0  0  0  0
 19 20  1  0  0  0  0
 20 21  4  0  0  0  0
 21 22  4  0  0  0  0
 22 23  4  0  0  0  0
 23 24  4  0  0  0  0
 20 25  4  0  0  0  0
 24 25  4  0  0  0  0
 19 26  4  0  0  0  0
 26 27  4  0  0  0  0
 27 28  2  0  0  0  0
  2 29  4  0  0  0  0
 28 29  1  0  0  0  0
  1 30  1  0  0  0  0
 26 30  4  0  0  0  0
 29 30  4  0  0  0  0
  1 31  1  0  0  0  0
 15 31  4  0  0  0  0
 18 31  4  0  0  0  0
  8 32  1  0  0  0  0
 32 33  4  0  0  0  0
 33 34  4  0  0  0  0
 34 35  4  0  0  0  0
 35 36  4  0  0  0  0
 32 37  4  0  0  0  0
 36 37  4  0  0  0  0
  2 38  1  0  0  0  0
  4 39  1  0  0  0  0
  5 40  1  0  0  0  0
 10 41  1  0  0  0  0
 11 42  1  0  0  0  0
 16 43  1  0  0  0  0
 17 44  1  0  0  0  0
 21 45  1  0  0  0  0
 22 46  1  0  0  0  0
 23 47  1  0  0  0  0
 24 48  1  0  0  0  0
 25 49  1  0  0  0  0
 27 50  1  0  0  0  0
 28 51  1  0  0  0  0
 33 52  1  0  0  0  0
 34 53  1  0  0  0  0
 35 54  1  0  0  0  0
 36 55  1  0  0  0  0
 37 56  1  0  0  0  0
 58 59  4  0  0  0  0
 59 60  1  0  0  0  0
 60 61  2  0  0  0  0
 61 62  4  0  0  0  0
 57 63  1  0  0  0  0
 59 63  4  0  0  0  0
 62 63  4  0  0  0  0
 62 64  4  0  0  0  0
 64 65  4  0  0  0  0
 65 66  4  0  0  0  0
 66 67  2  0  0  0  0
 57 68  1  0  0  0  0
 65 68  4  0  0  0  0
 67 69  4  0  0  0  0
 68 69  4  0  0  0  0
 69 70  4  0  0  0  0
 70 71  4  0  0  0  0
 71 72  4  0  0  0  0
 72 73  2  0  0  0  0
 73 74  4  0  0  0  0
 74 75  4  0  0  0  0
 75 76  1  0  0  0  0
 76 77  4  0  0  0  0
 77 78  4  0  0  0  0
 78 79  4  0  0  0  0
 79 80  4  0  0  0  0
 76 81  4  0  0  0  0
 80 81  4  0  0  0  0
 75 82  4  0  0  0  0
 82 83  4  0  0  0  0
 83 84  2  0  0  0  0
 58 85  4  0  0  0  0
 84 85  1  0  0  0  0
 57 86  1  0  0  0  0
 82 86  4  0  0  0  0
 85 86  4  0  0  0  0
 57 87  1  0  0  0  0
 71 87  4  0  0  0  0
 74 87  4  0  0  0  0
 64 88  1  0  0  0  0
 88 89  4  0  0  0  0
 89 90  4  0  0  0  0
 90 91  4  0  0  0  0
 91 92  4  0  0  0  0
 88 93  4  0  0  0  0
 92 93  4  0  0  0  0
 58 94  1  0  0  0  0
 60 95  1  0  0  0  0
 61 96  1  0  0  0  0
 66 97  1  0  0  0  0
 67 98  1  0  0  0  0
 72 99  1  0  0  0  0
 73100  1  0  0  0  0
 77101  1  0  0  0  0
 78102  1  0  0  0  0
 79103  1  0  0  0  0
 80104  1  0  0  0  0
 81105  1  0  0  0  0
 83106  1  0  0  0  0
 84107  1  0  0  0  0
 89108  1  0  0  0  0
 90109  1  0  0  0  0
 91110  1  0  0  0  0
 92111  1  0  0  0  0
 93112  1  0  0  0  0
113114  3  0  0  0  0
114115  4  0  0  0  0
 14116  4  0  0  0  0
115116  3  0  0  0  0
113117  4  0  0  0  0
117118  3  0  0  0  0
119120  3  0  0  0  0
120121  4  0  0  0  0
121122  3  0  0  0  0
119123  4  0  0  0  0
 70124  4  0  0  0  0
123124  3  0  0  0  0
118126  4  0  0  0  0
126127  4  0  0  0  0
127128  4  0  0  0  0
128129  2  0  0  0  0
129130  4  0  0  0  0
125131  1  0  0  0  0
127131  4  0  0  0  0
130131  4  0  0  0  0
130132  4  0  0  0  0
132133  4  0  0  0  0
133134  4  0  0  0  0
134135  2  0  0  0  0
125136  1  0  0  0  0
133136  4  0  0  0  0
135137  4  0  0  0  0
136137  4  0  0  0  0
122138  4  0  0  0  0
137138  4  0  0  0  0
138139  4  0  0  0  0
139140  4  0  0  0  0
140141  2  0  0  0  0
141142  4  0  0  0  0
142143  4  0  0  0  0
143144  1  0  0  0  0
144145  4  0  0  0  0
145146  4  0  0  0  0
146147  4  0  0  0  0
147148  4  0  0  0  0
144149  4  0  0  0  0
148149  4  0  0  0  0
143150  4  0  0  0  0
150151  4  0  0  0  0
151152  2  0  0  0  0
126153  4  0  0  0  0
152153  4  0  0  0  0
125154  1  0  0  0  0
150154  4  0  0  0  0
153154  4  0  0  0  0
125155  1  0  0  0  0
139155  4  0  0  0  0
142155  4  0  0  0  0
132156  1  0  0  0  0
156157  4  0  0  0  0
157158  4  0  0  0  0
158159  4  0  0  0  0
159160  4  0  0  0  0
156161  4  0  0  0  0
160161  4  0  0  0  0
128162  1  0  0  0  0
129163  1  0  0  0  0
134164  1  0  0  0  0
135165  1  0  0  0  0
140166  1  0  0  0  0
141167  1  0  0  0  0
145168  1  0  0  0  0
146169  1  0  0  0  0
147170  1  0  0  0  0
148171  1  0  0  0  0
149172  1  0  0  0  0
151173  1  0  0  0  0
152174  1  0  0  0  0
157175  1  0  0  0  0
158176  1  0  0  0  0
159177  1  0  0  0  0
160178  1  0  0  0  0
161179  1  0  0  0  0
M  END
