272

C 54.176221 1.187273 -0.176553
C 55.075823 1.576626 -1.385811
C 54.986795 2.728571 -2.141923
C 56.073990 2.705408 -3.055280
C 56.752570 1.517647 -2.855680
N 56.182467 0.873375 -1.783378
C 58.044673 0.993839 -3.619046
C 57.916619 0.669892 -5.067943
C 58.219462 -0.617377 -5.534622
C 57.986207 -0.992536 -6.861524
C 57.371037 -0.110987 -7.746776
N 57.024572 -0.497623 -9.065239
C 56.152095 -1.663838 -9.091683
C 57.107567 1.192444 -7.309853
C 57.379381 1.572507 -5.987335
C 59.149051 0.720244 -2.867660
C 60.424723 0.353680 -3.448864
C 61.282026 0.114479 -2.462255
N 59.321882 0.708191 -1.507676
C 60.590770 0.294400 -1.196332
C 61.183077 0.048507 -0.000682
C 60.356416 0.122836 1.367114
C 60.889633 0.019274 2.634351
C 59.813688 -0.003060 3.557504
C 58.649805 0.067302 2.825318
N 58.987170 0.211885 1.496396
C 57.177403 -0.038497 3.429561
C 57.043260 -0.503271 4.830047
C 56.806691 0.413455 5.860839
C 56.692807 -0.021282 7.185114
C 56.843197 -1.376272 7.518155
N 56.672043 -1.878395 8.822274
C 56.858596 -0.965816 9.936046
C 57.063105 -2.282051 6.471646
C 57.178674 -1.852025 5.145533
C 56.099382 0.247781 2.657471
C 54.728439 0.108764 3.121223
C 53.910636 0.447831 2.126692
C 54.730496 0.808055 0.990318
N 56.030821 0.672464 1.362502
H 53.102529 1.226400 -0.291709
H 54.256700 3.516221 -2.020665
H 56.331200 3.478891 -3.767706
H 56.613663 0.129823 -1.248919
H 58.611322 -1.355023 -4.832269
H 58.266160 -1.991641 -7.172391
H 56.598398 0.291529 -9.542964
H 55.289297 -1.539317 -8.426194
H 55.769190 -1.805954 -10.103911
H 56.688852 -2.579563 -8.814547
H 56.625173 1.904002 -7.970023
H 57.153736 2.583826 -5.664419
H 60.649428 0.316389 -4.494926
H 62.310166 -0.167470 -2.601514
H 61.937280 -0.066374 2.878809
H 59.887429 -0.113977 4.627689
H 58.324168 0.332057 0.731672
H 56.709851 1.472603 5.615847
H 56.499196 0.730793 7.948988
H 57.182608 -2.748821 8.931032
H 56.049152 -0.229452 9.983181
H 57.829631 -0.455763 9.884214
H 56.833058 -1.536798 10.872875
H 57.141443 -3.345534 6.672966
H 57.354487 -2.566187 4.343982
H 54.422455 -0.231906 4.093191
H 52.837077 0.427525 2.150019
C 96.775707 1.194753 0.116947
C 95.876106 1.645206 1.304799
C 95.965134 2.834175 2.001245
C 94.877938 2.857573 2.914596
C 94.199358 1.661185 2.775764
N 94.769461 0.963122 1.737677
C 92.907255 1.176946 3.564824
C 93.035310 0.927234 5.028343
C 92.732466 -0.334589 5.559995
C 92.965721 -0.641663 6.904286
C 93.580891 0.283839 7.743478
N 93.927356 -0.035126 9.079927
C 94.799833 -1.198480 9.165749
C 93.844361 1.563319 7.240721
C 93.572548 1.875514 5.900558
C 91.802877 0.865428 2.828352
C 90.527205 0.528949 3.427475
C 89.669902 0.239796 2.454333
N 91.630046 0.784107 1.470748
C 90.361159 0.354992 1.180889
C 89.768851 0.048507 -0.000682
C 90.595512 0.053058 -1.370489
C 90.062296 -0.114928 -2.630804
C 91.138240 -0.184262 -3.551621
C 92.302123 -0.076691 -2.823970
N 91.964759 0.135405 -1.504139
C 93.774525 -0.213135 -3.422038
C 93.908668 -0.748653 -4.797028
C 94.145238 0.114370 -5.873184
C 94.259121 -0.387267 -7.173591
C 94.108731 -1.757464 -7.437172
N 94.279886 -2.325372 -8.714017
C 94.093332 -1.470719 -9.872834
C 93.888823 -2.608754 -6.345878
C 93.773254 -2.111728 -5.043394
C 94.852546 0.112105 -2.665536
C 96.223489 -0.050357 -3.121603
C 97.041292 0.338935 -2.145637
C 96.221432 0.756583 -1.029090
N 94.921107 0.602207 -1.393883
H 97.849400 1.239697 0.229960
H 96.695228 3.614624 1.840017
H 94.620728 3.666345 3.586692
H 94.338265 0.193308 1.241791
H 92.340606 -1.107059 4.896132
H 92.685768 -1.623634 7.265648
H 94.353530 0.777339 9.516829
H 95.662631 -1.108023 8.494780
H 95.182738 -1.288844 10.183902
H 94.263076 -2.127134 8.935623
H 94.326756 2.307585 7.863784
H 93.798192 2.869069 5.526541
H 90.302500 0.544998 4.474079
H 88.641762 -0.034692 2.607776
H 89.014648 -0.212919 -2.870582
H 91.064499 -0.349555 -4.614766
H 92.627760 0.294380 -0.746531
H 94.242077 1.184624 -5.682468
H 94.452732 0.324916 -7.974788
H 93.769320 -3.200209 -8.778291
H 94.902776 -0.737712 -9.957421
H 93.122297 -0.958688 -9.847052
H 94.118870 -2.088686 -10.779358
H 93.810485 -3.681111 -6.492758
H 93.597442 -2.784128 -4.206501
H 96.529474 -0.440101 -4.074954
H 98.114852 0.317467 -2.167899
C 63.348406 0.048507 -0.000682
C 64.570324 0.048507 -0.000682
C 74.865005 0.048507 -0.000682
C 76.086923 0.048507 -0.000682
C 86.381605 0.048507 -0.000682
C 87.603522 0.048507 -0.000682
C 66.182931 -0.051447 0.000723
C 66.958101 -0.004181 1.387350
C 66.376994 0.010188 2.639806
C 67.419084 0.047726 3.593711
C 68.613026 0.056097 2.902423
N 68.323954 0.025170 1.558718
C 70.053095 0.091788 3.564439
C 70.114670 0.160055 5.045721
C 70.180229 -1.007432 5.808757
C 70.211360 -0.935040 7.205701
C 70.144693 0.297706 7.874506
N 70.220573 0.300881 9.278790
C 69.740465 1.473213 9.985473
C 70.134242 1.461728 7.095564
C 70.103187 1.395669 5.696971
C 71.180806 0.062984 2.806668
C 72.494654 0.090050 3.416142
C 73.404618 0.046214 2.452278
N 71.375677 0.007804 1.451424
C 72.720363 -0.004848 1.175419
C 73.404070 -0.051447 0.000723
C 72.629215 -0.092546 -1.386347
C 73.210042 -0.092292 -2.639378
C 72.168031 -0.131386 -3.593513
C 70.974308 -0.152825 -2.901863
N 71.263692 -0.128645 -1.557844
C 69.534970 -0.194571 -3.562541
C 69.466897 -0.262833 -5.043340
C 69.417327 0.906797 -5.805441
C 69.344367 0.841416 -7.202436
C 69.288253 -0.390529 -7.866584
N 69.257267 -0.519701 -9.267196
C 68.716032 0.584178 -10.037915
C 69.395827 -1.556185 -7.091543
C 69.468286 -1.497125 -5.695701
C 68.406681 -0.167057 -2.804837
C 67.092490 -0.197293 -3.414033
C 66.182208 -0.153746 -2.450550
C 66.866430 -0.099210 -1.173956
N 68.211127 -0.109810 -1.449824
H 65.319728 -0.007580 2.854806
H 67.308661 0.064404 4.667872
H 69.011316 0.015452 0.808899
H 70.215028 -1.969986 5.303834
H 70.284032 -1.862068 7.766143
H 69.839452 -0.565825 9.648674
H 68.709354 1.716072 9.707853
H 69.756429 1.272757 11.061797
H 70.385719 2.340051 9.811026
H 70.148583 2.445998 7.549053
H 70.078167 2.306325 5.102562
H 72.711036 0.136036 4.468840
H 74.465983 0.052619 2.619664
H 74.267093 -0.065067 -2.854606
H 72.278563 -0.140330 -4.668148
H 70.576672 -0.126523 -0.807746
H 69.437261 1.869142 -5.298871
H 69.328311 1.778552 -7.746624
H 68.844884 -1.413823 -9.521014
H 69.370582 1.460648 -9.998871
H 68.644225 0.284253 -11.088585
H 67.710426 0.856327 -9.700133
H 69.416123 -2.532652 -7.565539
H 69.526566 -2.408898 -5.105954
H 66.875911 -0.245067 -4.466422
H 65.120842 -0.162023 -2.617505
C 77.699530 -0.051447 0.000723
C 78.474700 -0.004181 1.387350
C 77.893593 0.010188 2.639806
C 78.935683 0.047726 3.593711
C 80.129626 0.056097 2.902423
N 79.840554 0.025170 1.558718
C 81.569694 0.091788 3.564439
C 81.631269 0.160055 5.045721
C 81.696828 -1.007432 5.808757
C 81.727959 -0.935040 7.205701
C 81.661292 0.297706 7.874506
N 81.737172 0.300881 9.278790
C 81.257065 1.473213 9.985473
C 81.650841 1.461728 7.095564
C 81.619787 1.395669 5.696971
C 82.697405 0.062984 2.806668
C 84.011254 0.090050 3.416142
C 84.921218 0.046214 2.452278
N 82.892276 0.007804 1.451424
C 84.236962 -0.004848 1.175419
C 84.920670 -0.051447 0.000723
C 84.145814 -0.092546 -1.386347
C 84.726641 -0.092292 -2.639378
C 83.684630 -0.131386 -3.593513
C 82.490907 -0.152825 -2.901863
N 82.780292 -0.128645 -1.557844
C 81.051569 -0.194571 -3.562541
C 80.983497 -0.262833 -5.043340
C 80.933926 0.906797 -5.805441
C 80.860967 0.841416 -7.202436
C 80.804852 -0.390529 -7.866584
N 80.773866 -0.519701 -9.267196
C 80.232631 0.584178 -10.037915
C 80.912426 -1.556185 -7.091543
C 80.984885 -1.497125 -5.695701
C 79.923280 -0.167057 -2.804837
C 78.609089 -0.197293 -3.414033
C 77.698807 -0.153746 -2.450550
C 78.383029 -0.099210 -1.173956
N 79.727726 -0.109810 -1.449824
H 76.836327 -0.007580 2.854806
H 78.825260 0.064404 4.667872
H 80.527915 0.015452 0.808899
H 81.731627 -1.969986 5.303834
H 81.800631 -1.862068 7.766143
H 81.356051 -0.565825 9.648674
H 80.225953 1.716072 9.707853
H 81.273028 1.272757 11.061797
H 81.902318 2.340051 9.811026
H 81.665182 2.445998 7.549053
H 81.594766 2.306325 5.102562
H 84.227635 0.136036 4.468840
H 85.982582 0.052619 2.619664
H 85.783692 -0.065067 -2.854606
H 83.795163 -0.140330 -4.668148
H 82.093272 -0.126523 -0.807746
H 80.953860 1.869142 -5.298871
H 80.844911 1.778552 -7.746624
H 80.361484 -1.413823 -9.521014
H 80.887181 1.460648 -9.998871
H 80.160825 0.284253 -11.088585
H 79.227025 0.856327 -9.700133
H 80.932722 -2.532652 -7.565539
H 81.043165 -2.408898 -5.105954
H 78.392511 -0.245067 -4.466422
H 76.637441 -0.162023 -2.617505
