 xtb: 6.5.1 (b24c23e)
          07302201323D

189218  0     0  0            999 V2000
   22.8067    0.2352    0.1256 Co  0  0  0  0  0  0  0  0  0  0  0  0
   19.4360    0.1506    0.1153 C   0  0  0  0  0  0  0  0  0  0  0  0
   20.1216   -1.0259    0.3309 C   0  0  0  0  0  0  0  0  0  0  0  0
   19.4911   -2.2848    0.5886 C   0  0  0  0  0  0  0  0  0  0  0  0
   20.4670   -3.2228    0.5495 C   0  0  0  0  0  0  0  0  0  0  0  0
   21.6907   -2.5366    0.2524 C   0  0  0  0  0  0  0  0  0  0  0  0
   21.4776   -1.1828    0.1903 N   0  0  0  0  0  0  0  0  0  0  0  0
   22.8888   -3.1679   -0.0542 C   0  0  0  0  0  0  0  0  0  0  0  0
   22.9307   -4.6456   -0.1374 C   0  0  0  0  0  0  0  0  0  0  0  0
   22.1538   -5.3253   -0.9966 C   0  0  0  0  0  0  0  0  0  0  0  0
   22.1693   -6.8271   -1.0950 C   0  0  0  0  0  0  0  0  0  0  0  0
   23.3234   -7.3965   -0.3974 N   0  0  0  0  0  0  0  0  0  0  0  0
   23.9813   -6.7001    0.5769 C   0  0  0  0  0  0  0  0  0  0  0  0
   23.8521   -5.3679    0.7245 C   0  0  0  0  0  0  0  0  0  0  0  0
   24.0529   -2.4493   -0.2863 C   0  0  0  0  0  0  0  0  0  0  0  0
   25.3025   -3.0409   -0.6595 C   0  0  0  0  0  0  0  0  0  0  0  0
   26.2328   -2.0573   -0.6053 C   0  0  0  0  0  0  0  0  0  0  0  0
   24.2064   -1.0982   -0.0769 N   0  0  0  0  0  0  0  0  0  0  0  0
   25.5475   -0.8678   -0.2098 C   0  0  0  0  0  0  0  0  0  0  0  0
   26.1966    0.3193    0.1364 C   0  0  0  0  0  0  0  0  0  0  0  0
   25.4876    1.4736    0.4758 C   0  0  0  0  0  0  0  0  0  0  0  0
   26.1109    2.6961    0.8734 C   0  0  0  0  0  0  0  0  0  0  0  0
   25.1327    3.6325    0.9206 C   0  0  0  0  0  0  0  0  0  0  0  0
   23.9159    2.9792    0.5421 C   0  0  0  0  0  0  0  0  0  0  0  0
   24.1375    1.6374    0.3343 N   0  0  0  0  0  0  0  0  0  0  0  0
   22.7175    3.6382    0.3077 C   0  0  0  0  0  0  0  0  0  0  0  0
   22.6821    5.1156    0.3971 C   0  0  0  0  0  0  0  0  0  0  0  0
   21.8675    5.7485    1.2572 C   0  0  0  0  0  0  0  0  0  0  0  0
   21.8025    7.2483    1.3642 C   0  0  0  0  0  0  0  0  0  0  0  0
   22.9241    7.8828    0.6697 N   0  0  0  0  0  0  0  0  0  0  0  0
   23.6214    7.2272   -0.3053 C   0  0  0  0  0  0  0  0  0  0  0  0
   23.5657    5.8905   -0.4585 C   0  0  0  0  0  0  0  0  0  0  0  0
   21.5539    2.9476   -0.0044 C   0  0  0  0  0  0  0  0  0  0  0  0
   20.2990    3.5719   -0.3076 C   0  0  0  0  0  0  0  0  0  0  0  0
   19.3719    2.5861   -0.3551 C   0  0  0  0  0  0  0  0  0  0  0  0
   20.0633    1.3600   -0.0954 C   0  0  0  0  0  0  0  0  0  0  0  0
   21.4089    1.5846    0.0539 N   0  0  0  0  0  0  0  0  0  0  0  0
   18.3526    0.1235    0.1116 H   0  0  0  0  0  0  0  0  0  0  0  0
   18.4354   -2.4144    0.7676 H   0  0  0  0  0  0  0  0  0  0  0  0
   20.3793   -4.2862    0.7034 H   0  0  0  0  0  0  0  0  0  0  0  0
   21.4639   -4.8206   -1.6628 H   0  0  0  0  0  0  0  0  0  0  0  0
   22.2189   -7.1374   -2.1482 H   0  0  0  0  0  0  0  0  0  0  0  0
   21.2348   -7.2458   -0.6777 H   0  0  0  0  0  0  0  0  0  0  0  0
   23.3078   -8.4017   -0.3120 H   0  0  0  0  0  0  0  0  0  0  0  0
   24.6692   -7.2909    1.1732 H   0  0  0  0  0  0  0  0  0  0  0  0
   24.4143   -4.8293    1.4739 H   0  0  0  0  0  0  0  0  0  0  0  0
   25.4394   -4.0775   -0.9216 H   0  0  0  0  0  0  0  0  0  0  0  0
   27.2911   -2.1169   -0.8030 H   0  0  0  0  0  0  0  0  0  0  0  0
   27.1638    2.8082    1.0768 H   0  0  0  0  0  0  0  0  0  0  0  0
   25.2169    4.6752    1.1811 H   0  0  0  0  0  0  0  0  0  0  0  0
   21.2034    5.2040    1.9183 H   0  0  0  0  0  0  0  0  0  0  0  0
   21.8358    7.5548    2.4192 H   0  0  0  0  0  0  0  0  0  0  0  0
   20.8468    7.6187    0.9495 H   0  0  0  0  0  0  0  0  0  0  0  0
   22.8538    8.8860    0.5884 H   0  0  0  0  0  0  0  0  0  0  0  0
   24.2772    7.8571   -0.8977 H   0  0  0  0  0  0  0  0  0  0  0  0
   24.1583    5.3867   -1.2088 H   0  0  0  0  0  0  0  0  0  0  0  0
   20.1588    4.6299   -0.4599 H   0  0  0  0  0  0  0  0  0  0  0  0
   18.3122    2.6628   -0.5409 H   0  0  0  0  0  0  0  0  0  0  0  0
   59.7695    0.1340    0.1204 Co  0  0  0  0  0  0  0  0  0  0  0  0
   63.1356    0.3089    0.1509 C   0  0  0  0  0  0  0  0  0  0  0  0
   62.4174    1.3992    0.5941 C   0  0  0  0  0  0  0  0  0  0  0  0
   63.0113    2.5963    1.1070 C   0  0  0  0  0  0  0  0  0  0  0  0
   62.0095    3.4959    1.2508 C   0  0  0  0  0  0  0  0  0  0  0  0
   60.8066    2.8521    0.8091 C   0  0  0  0  0  0  0  0  0  0  0  0
   61.0580    1.5449    0.4766 N   0  0  0  0  0  0  0  0  0  0  0  0
   59.5931    3.5001    0.6211 C   0  0  0  0  0  0  0  0  0  0  0  0
   59.5063    4.9615    0.8415 C   0  0  0  0  0  0  0  0  0  0  0  0
   60.2699    5.8261    0.1537 C   0  0  0  0  0  0  0  0  0  0  0  0
   60.2079    7.3148    0.3663 C   0  0  0  0  0  0  0  0  0  0  0  0
   59.0312    7.6946    1.1498 N   0  0  0  0  0  0  0  0  0  0  0  0
   58.3851    6.7932    1.9477 C   0  0  0  0  0  0  0  0  0  0  0  0
   58.5537    5.4635    1.8185 C   0  0  0  0  0  0  0  0  0  0  0  0
   58.4529    2.8122    0.2304 C   0  0  0  0  0  0  0  0  0  0  0  0
   57.1913    3.4330   -0.0404 C   0  0  0  0  0  0  0  0  0  0  0  0
   56.2892    2.4341   -0.1972 C   0  0  0  0  0  0  0  0  0  0  0  0
   58.3361    1.4431    0.1660 N   0  0  0  0  0  0  0  0  0  0  0  0
   57.0035    1.2080   -0.0302 C   0  0  0  0  0  0  0  0  0  0  0  0
   56.3847   -0.0393    0.0839 C   0  0  0  0  0  0  0  0  0  0  0  0
   57.1235   -1.2175    0.2077 C   0  0  0  0  0  0  0  0  0  0  0  0
   56.5336   -2.5097    0.3604 C   0  0  0  0  0  0  0  0  0  0  0  0
   57.5367   -3.4115    0.2304 C   0  0  0  0  0  0  0  0  0  0  0  0
   58.7353   -2.6656   -0.0100 C   0  0  0  0  0  0  0  0  0  0  0  0
   58.4776   -1.3155    0.0438 N   0  0  0  0  0  0  0  0  0  0  0  0
   59.9510   -3.2340   -0.3635 C   0  0  0  0  0  0  0  0  0  0  0  0
   60.0271   -4.6989   -0.5644 C   0  0  0  0  0  0  0  0  0  0  0  0
   60.8612   -5.4652    0.1572 C   0  0  0  0  0  0  0  0  0  0  0  0
   60.9688   -6.9544   -0.0319 C   0  0  0  0  0  0  0  0  0  0  0  0
   59.8661   -7.4713   -0.8441 N   0  0  0  0  0  0  0  0  0  0  0  0
   59.1480   -6.6566   -1.6731 C   0  0  0  0  0  0  0  0  0  0  0  0
   59.1639   -5.3149   -1.5588 C   0  0  0  0  0  0  0  0  0  0  0  0
   61.0949   -2.4647   -0.5307 C   0  0  0  0  0  0  0  0  0  0  0  0
   62.3662   -2.9829   -0.9457 C   0  0  0  0  0  0  0  0  0  0  0  0
   63.2659   -1.9823   -0.7942 C   0  0  0  0  0  0  0  0  0  0  0  0
   62.5419   -0.8505   -0.3006 C   0  0  0  0  0  0  0  0  0  0  0  0
   61.2030   -1.1365   -0.2049 N   0  0  0  0  0  0  0  0  0  0  0  0
   64.2178    0.3653    0.1598 H   0  0  0  0  0  0  0  0  0  0  0  0
   64.0623    2.7153    1.3179 H   0  0  0  0  0  0  0  0  0  0  0  0
   62.0668    4.5080    1.6180 H   0  0  0  0  0  0  0  0  0  0  0  0
   60.9819    5.4900   -0.5909 H   0  0  0  0  0  0  0  0  0  0  0  0
   60.1569    7.8339   -0.6012 H   0  0  0  0  0  0  0  0  0  0  0  0
   61.1255    7.6656    0.8739 H   0  0  0  0  0  0  0  0  0  0  0  0
   59.0153    8.6604    1.4415 H   0  0  0  0  0  0  0  0  0  0  0  0
   57.6733    7.2279    2.6421 H   0  0  0  0  0  0  0  0  0  0  0  0
   58.0006    4.7657    2.4307 H   0  0  0  0  0  0  0  0  0  0  0  0
   57.0275    4.4970   -0.0954 H   0  0  0  0  0  0  0  0  0  0  0  0
   55.2322    2.5046   -0.3978 H   0  0  0  0  0  0  0  0  0  0  0  0
   55.4840   -2.6863    0.5329 H   0  0  0  0  0  0  0  0  0  0  0  0
   57.4807   -4.4867    0.2846 H   0  0  0  0  0  0  0  0  0  0  0  0
   61.5115   -5.0426    0.9142 H   0  0  0  0  0  0  0  0  0  0  0  0
   60.9441   -7.4629    0.9423 H   0  0  0  0  0  0  0  0  0  0  0  0
   61.9348   -7.2092   -0.5056 H   0  0  0  0  0  0  0  0  0  0  0  0
   59.9665   -8.4360   -1.1224 H   0  0  0  0  0  0  0  0  0  0  0  0
   58.5102   -7.1759   -2.3812 H   0  0  0  0  0  0  0  0  0  0  0  0
   58.5556   -4.6902   -2.1972 H   0  0  0  0  0  0  0  0  0  0  0  0
   62.5351   -3.9859   -1.3028 H   0  0  0  0  0  0  0  0  0  0  0  0
   64.3271   -1.9926   -0.9869 H   0  0  0  0  0  0  0  0  0  0  0  0
   27.6000    0.3514    0.1467 C   0  0  0  0  0  0  0  0  0  0  0  0
   28.8240    0.3738    0.1623 C   0  0  0  0  0  0  0  0  0  0  0  0
   30.1665    0.4006    0.1871 C   0  0  0  0  0  0  0  0  0  0  0  0
   31.3967    0.4200    0.2149 C   0  0  0  0  0  0  0  0  0  0  0  0
   32.7339    0.4496    0.2560 C   0  0  0  0  0  0  0  0  0  0  0  0
   33.9634    0.4779    0.3014 C   0  0  0  0  0  0  0  0  0  0  0  0
   35.3038    0.5196    0.3665 C   0  0  0  0  0  0  0  0  0  0  0  0
   36.5256    0.5653    0.4361 C   0  0  0  0  0  0  0  0  0  0  0  0
   46.0675    0.2562    0.3724 C   0  0  0  0  0  0  0  0  0  0  0  0
   47.2843    0.1359    0.3054 C   0  0  0  0  0  0  0  0  0  0  0  0
   48.6214    0.0290    0.2447 C   0  0  0  0  0  0  0  0  0  0  0  0
   49.8488   -0.0461    0.1949 C   0  0  0  0  0  0  0  0  0  0  0  0
   51.1852   -0.0986    0.1493 C   0  0  0  0  0  0  0  0  0  0  0  0
   52.4152   -0.1257    0.1204 C   0  0  0  0  0  0  0  0  0  0  0  0
   53.7581   -0.1216    0.0950 C   0  0  0  0  0  0  0  0  0  0  0  0
   54.9821   -0.1002    0.0854 C   0  0  0  0  0  0  0  0  0  0  0  0
   41.3079    0.7196    0.6319 Co  0  0  0  0  0  0  0  0  0  0  0  0
   37.9244    0.6300    0.5166 C   0  0  0  0  0  0  0  0  0  0  0  0
   38.6018    1.6171   -0.2080 C   0  0  0  0  0  0  0  0  0  0  0  0
   37.9522    2.6586   -0.9377 C   0  0  0  0  0  0  0  0  0  0  0  0
   38.9251    3.3413   -1.5905 C   0  0  0  0  0  0  0  0  0  0  0  0
   40.1618    2.6843   -1.2907 C   0  0  0  0  0  0  0  0  0  0  0  0
   39.9543    1.6725   -0.3798 N   0  0  0  0  0  0  0  0  0  0  0  0
   41.3541    2.9060   -1.9642 C   0  0  0  0  0  0  0  0  0  0  0  0
   41.4032    3.8969   -3.0616 C   0  0  0  0  0  0  0  0  0  0  0  0
   40.5999    3.8048   -4.1345 C   0  0  0  0  0  0  0  0  0  0  0  0
   40.6694    4.7683   -5.2878 C   0  0  0  0  0  0  0  0  0  0  0  0
   41.4584    5.9533   -4.9478 N   0  0  0  0  0  0  0  0  0  0  0  0
   42.3620    5.9388   -3.9232 C   0  0  0  0  0  0  0  0  0  0  0  0
   42.3630    4.9848   -2.9729 C   0  0  0  0  0  0  0  0  0  0  0  0
   42.5042    2.1810   -1.6733 C   0  0  0  0  0  0  0  0  0  0  0  0
   43.7045    2.2241   -2.4515 C   0  0  0  0  0  0  0  0  0  0  0  0
   44.6239    1.4738   -1.7955 C   0  0  0  0  0  0  0  0  0  0  0  0
   42.6739    1.3735   -0.5762 N   0  0  0  0  0  0  0  0  0  0  0  0
   43.9873    0.9921   -0.6105 C   0  0  0  0  0  0  0  0  0  0  0  0
   44.6760    0.4121    0.4575 C   0  0  0  0  0  0  0  0  0  0  0  0
   44.0228    0.0573    1.6428 C   0  0  0  0  0  0  0  0  0  0  0  0
   44.6970   -0.3454    2.8352 C   0  0  0  0  0  0  0  0  0  0  0  0
   43.7367   -0.7026    3.7235 C   0  0  0  0  0  0  0  0  0  0  0  0
   42.4799   -0.5589    3.0521 C   0  0  0  0  0  0  0  0  0  0  0  0
   42.6691   -0.0190    1.7996 N   0  0  0  0  0  0  0  0  0  0  0  0
   41.2755   -1.0668    3.5180 C   0  0  0  0  0  0  0  0  0  0  0  0
   41.2334   -1.7950    4.8053 C   0  0  0  0  0  0  0  0  0  0  0  0
   41.9929   -2.8790    5.0342 C   0  0  0  0  0  0  0  0  0  0  0  0
   41.9669   -3.6296    6.3383 C   0  0  0  0  0  0  0  0  0  0  0  0
   40.8157   -3.2420    7.1549 N   0  0  0  0  0  0  0  0  0  0  0  0
   40.1715   -2.0534    6.9596 C   0  0  0  0  0  0  0  0  0  0  0  0
   40.3143   -1.3314    5.8320 C   0  0  0  0  0  0  0  0  0  0  0  0
   40.1015   -0.9550    2.7816 C   0  0  0  0  0  0  0  0  0  0  0  0
   38.8761   -1.6180    3.1093 C   0  0  0  0  0  0  0  0  0  0  0  0
   37.9463   -1.1836    2.2234 C   0  0  0  0  0  0  0  0  0  0  0  0
   38.6020   -0.2415    1.3723 C   0  0  0  0  0  0  0  0  0  0  0  0
   39.9330   -0.1568    1.6775 N   0  0  0  0  0  0  0  0  0  0  0  0
   36.8890    2.8379   -0.9340 H   0  0  0  0  0  0  0  0  0  0  0  0
   38.8227    4.2041   -2.2284 H   0  0  0  0  0  0  0  0  0  0  0  0
   39.9051    2.9821   -4.2566 H   0  0  0  0  0  0  0  0  0  0  0  0
   41.1024    4.2703   -6.1751 H   0  0  0  0  0  0  0  0  0  0  0  0
   39.6583    5.0979   -5.5656 H   0  0  0  0  0  0  0  0  0  0  0  0
   41.6574    6.5626   -5.7271 H   0  0  0  0  0  0  0  0  0  0  0  0
   43.0285    6.7947   -3.8930 H   0  0  0  0  0  0  0  0  0  0  0  0
   43.0433    5.0287   -2.1344 H   0  0  0  0  0  0  0  0  0  0  0  0
   43.8162    2.7562   -3.3825 H   0  0  0  0  0  0  0  0  0  0  0  0
   45.6492    1.2757   -2.0639 H   0  0  0  0  0  0  0  0  0  0  0  0
   45.7674   -0.3402    2.9652 H   0  0  0  0  0  0  0  0  0  0  0  0
   43.8603   -1.0430    4.7386 H   0  0  0  0  0  0  0  0  0  0  0  0
   42.6716   -3.2686    4.2846 H   0  0  0  0  0  0  0  0  0  0  0  0
   42.9024   -3.4499    6.8996 H   0  0  0  0  0  0  0  0  0  0  0  0
   41.9058   -4.7110    6.1519 H   0  0  0  0  0  0  0  0  0  0  0  0
   40.8222   -3.6132    8.0931 H   0  0  0  0  0  0  0  0  0  0  0  0
   39.4825   -1.7736    7.7501 H   0  0  0  0  0  0  0  0  0  0  0  0
   39.7607   -0.4163    5.6774 H   0  0  0  0  0  0  0  0  0  0  0  0
   38.7555   -2.3273    3.9120 H   0  0  0  0  0  0  0  0  0  0  0  0
   36.9030   -1.4472    2.1563 H   0  0  0  0  0  0  0  0  0  0  0  0
  2  3  4  0  0  0  0
  3  4  1  0  0  0  0
  4  5  2  0  0  0  0
  5  6  4  0  0  0  0
  1  7  1  0  0  0  0
  3  7  4  0  0  0  0
  6  7  4  0  0  0  0
  6  8  4  0  0  0  0
  8  9  1  0  0  0  0
  9 10  2  0  0  0  0
 10 11  1  0  0  0  0
 11 12  1  0  0  0  0
 12 13  1  0  0  0  0
  9 14  1  0  0  0  0
 13 14  2  0  0  0  0
  8 15  4  0  0  0  0
 15 16  4  0  0  0  0
 16 17  2  0  0  0  0
  1 18  1  0  0  0  0
 15 18  4  0  0  0  0
 17 19  4  0  0  0  0
 18 19  4  0  0  0  0
 19 20  4  0  0  0  0
 20 21  4  0  0  0  0
 21 22  4  0  0  0  0
 22 23  2  0  0  0  0
 23 24  4  0  0  0  0
  1 25  1  0  0  0  0
 21 25  4  0  0  0  0
 24 25  4  0  0  0  0
 24 26  4  0  0  0  0
 26 27  1  0  0  0  0
 27 28  2  0  0  0  0
 28 29  1  0  0  0  0
 29 30  1  0  0  0  0
 30 31  1  0  0  0  0
 27 32  1  0  0  0  0
 31 32  2  0  0  0  0
 26 33  4  0  0  0  0
 33 34  4  0  0  0  0
 34 35  2  0  0  0  0
  2 36  4  0  0  0  0
 35 36  1  0  0  0  0
  1 37  1  0  0  0  0
 33 37  4  0  0  0  0
 36 37  4  0  0  0  0
  2 38  1  0  0  0  0
  4 39  1  0  0  0  0
  5 40  1  0  0  0  0
 10 41  1  0  0  0  0
 11 42  1  0  0  0  0
 11 43  1  0  0  0  0
 12 44  1  0  0  0  0
 13 45  1  0  0  0  0
 14 46  1  0  0  0  0
 16 47  1  0  0  0  0
 17 48  1  0  0  0  0
 22 49  1  0  0  0  0
 23 50  1  0  0  0  0
 28 51  1  0  0  0  0
 29 52  1  0  0  0  0
 29 53  1  0  0  0  0
 30 54  1  0  0  0  0
 31 55  1  0  0  0  0
 32 56  1  0  0  0  0
 34 57  1  0  0  0  0
 35 58  1  0  0  0  0
 60 61  4  0  0  0  0
 61 62  1  0  0  0  0
 62 63  2  0  0  0  0
 63 64  4  0  0  0  0
 59 65  1  0  0  0  0
 61 65  4  0  0  0  0
 64 65  4  0  0  0  0
 64 66  4  0  0  0  0
 66 67  1  0  0  0  0
 67 68  2  0  0  0  0
 68 69  1  0  0  0  0
 69 70  1  0  0  0  0
 70 71  1  0  0  0  0
 67 72  1  0  0  0  0
 71 72  2  0  0  0  0
 66 73  4  0  0  0  0
 73 74  4  0  0  0  0
 74 75  2  0  0  0  0
 59 76  1  0  0  0  0
 73 76  4  0  0  0  0
 75 77  4  0  0  0  0
 76 77  4  0  0  0  0
 77 78  4  0  0  0  0
 78 79  4  0  0  0  0
 79 80  4  0  0  0  0
 80 81  2  0  0  0  0
 81 82  4  0  0  0  0
 59 83  1  0  0  0  0
 79 83  4  0  0  0  0
 82 83  4  0  0  0  0
 82 84  4  0  0  0  0
 84 85  1  0  0  0  0
 85 86  2  0  0  0  0
 86 87  1  0  0  0  0
 87 88  1  0  0  0  0
 88 89  1  0  0  0  0
 85 90  1  0  0  0  0
 89 90  2  0  0  0  0
 84 91  4  0  0  0  0
 91 92  4  0  0  0  0
 92 93  2  0  0  0  0
 60 94  4  0  0  0  0
 93 94  1  0  0  0  0
 59 95  1  0  0  0  0
 91 95  4  0  0  0  0
 94 95  4  0  0  0  0
 60 96  1  0  0  0  0
 62 97  1  0  0  0  0
 63 98  1  0  0  0  0
 68 99  1  0  0  0  0
 69100  1  0  0  0  0
 69101  1  0  0  0  0
 70102  1  0  0  0  0
 71103  1  0  0  0  0
 72104  1  0  0  0  0
 74105  1  0  0  0  0
 75106  1  0  0  0  0
 80107  1  0  0  0  0
 81108  1  0  0  0  0
 86109  1  0  0  0  0
 87110  1  0  0  0  0
 87111  1  0  0  0  0
 88112  1  0  0  0  0
 89113  1  0  0  0  0
 90114  1  0  0  0  0
 92115  1  0  0  0  0
 93116  1  0  0  0  0
 20117  4  0  0  0  0
117118  3  0  0  0  0
118119  4  0  0  0  0
119120  3  0  0  0  0
120121  4  0  0  0  0
121122  3  0  0  0  0
122123  4  0  0  0  0
123124  3  0  0  0  0
125126  3  0  0  0  0
126127  4  0  0  0  0
127128  3  0  0  0  0
128129  4  0  0  0  0
129130  3  0  0  0  0
130131  4  0  0  0  0
 78132  4  0  0  0  0
131132  3  0  0  0  0
124134  4  0  0  0  0
134135  4  0  0  0  0
135136  4  0  0  0  0
136137  2  0  0  0  0
137138  4  0  0  0  0
133139  1  0  0  0  0
135139  4  0  0  0  0
138139  4  0  0  0  0
138140  4  0  0  0  0
140141  1  0  0  0  0
141142  2  0  0  0  0
142143  1  0  0  0  0
143144  1  0  0  0  0
144145  1  0  0  0  0
141146  1  0  0  0  0
145146  2  0  0  0  0
140147  4  0  0  0  0
147148  4  0  0  0  0
148149  2  0  0  0  0
133150  1  0  0  0  0
147150  4  0  0  0  0
149151  4  0  0  0  0
150151  4  0  0  0  0
125152  4  0  0  0  0
151152  4  0  0  0  0
152153  4  0  0  0  0
153154  4  0  0  0  0
154155  2  0  0  0  0
155156  4  0  0  0  0
133157  1  0  0  0  0
153157  4  0  0  0  0
156157  4  0  0  0  0
156158  4  0  0  0  0
158159  1  0  0  0  0
159160  2  0  0  0  0
160161  1  0  0  0  0
161162  1  0  0  0  0
162163  1  0  0  0  0
159164  1  0  0  0  0
163164  2  0  0  0  0
158165  4  0  0  0  0
165166  4  0  0  0  0
166167  2  0  0  0  0
134168  4  0  0  0  0
167168  4  0  0  0  0
133169  1  0  0  0  0
165169  4  0  0  0  0
168169  4  0  0  0  0
136170  1  0  0  0  0
137171  1  0  0  0  0
142172  1  0  0  0  0
143173  1  0  0  0  0
143174  1  0  0  0  0
144175  1  0  0  0  0
145176  1  0  0  0  0
146177  1  0  0  0  0
148178  1  0  0  0  0
149179  1  0  0  0  0
154180  1  0  0  0  0
155181  1  0  0  0  0
160182  1  0  0  0  0
161183  1  0  0  0  0
161184  1  0  0  0  0
162185  1  0  0  0  0
163186  1  0  0  0  0
164187  1  0  0  0  0
166188  1  0  0  0  0
167189  1  0  0  0  0
M  END
