 xtb: 6.5.1 (b24c23e)
          07292218373D

189218  0     0  0            999 V2000
   27.2298   -0.0671   -0.0204 Fe  0  0  0  0  0  0  0  0  0  0  0  0
   23.8270   -0.0310   -0.1276 C   0  0  0  0  0  0  0  0  0  0  0  0
   24.4515    0.8133    0.7662 C   0  0  0  0  0  0  0  0  0  0  0  0
   23.7468    1.6731    1.6684 C   0  0  0  0  0  0  0  0  0  0  0  0
   24.6863    2.3440    2.3766 C   0  0  0  0  0  0  0  0  0  0  0  0
   25.9589    1.8935    1.8998 C   0  0  0  0  0  0  0  0  0  0  0  0
   25.8076    0.9602    0.9166 N   0  0  0  0  0  0  0  0  0  0  0  0
   27.1759    2.3850    2.3771 C   0  0  0  0  0  0  0  0  0  0  0  0
   27.1540    3.3732    3.3849 C   0  0  0  0  0  0  0  0  0  0  0  0
   27.1370    4.2231    4.2509 C   0  0  0  0  0  0  0  0  0  0  0  0
   27.1190    5.2145    5.2586 C   0  0  0  0  0  0  0  0  0  0  0  0
   28.3056    5.7755    5.7451 C   0  0  0  0  0  0  0  0  0  0  0  0
   28.2340    6.7434    6.7310 C   0  0  0  0  0  0  0  0  0  0  0  0
   27.0849    7.1728    7.2465 N   0  0  0  0  0  0  0  0  0  0  0  0
   25.9526    6.6443    6.7895 C   0  0  0  0  0  0  0  0  0  0  0  0
   25.9147    5.6719    5.8060 C   0  0  0  0  0  0  0  0  0  0  0  0
   28.4121    1.9478    1.9012 C   0  0  0  0  0  0  0  0  0  0  0  0
   29.6601    2.4559    2.3791 C   0  0  0  0  0  0  0  0  0  0  0  0
   30.6317    1.7942    1.7047 C   0  0  0  0  0  0  0  0  0  0  0  0
   28.6123    0.9940    0.9394 N   0  0  0  0  0  0  0  0  0  0  0  0
   29.9696    0.8854    0.8222 C   0  0  0  0  0  0  0  0  0  0  0  0
   30.6534    0.0083   -0.0249 C   0  0  0  0  0  0  0  0  0  0  0  0
   30.0059   -0.8943   -0.8741 C   0  0  0  0  0  0  0  0  0  0  0  0
   30.7046   -1.8124   -1.7178 C   0  0  0  0  0  0  0  0  0  0  0  0
   29.7608   -2.5169   -2.3885 C   0  0  0  0  0  0  0  0  0  0  0  0
   28.4931   -2.0212   -1.9515 C   0  0  0  0  0  0  0  0  0  0  0  0
   28.6541   -1.0261   -1.0248 N   0  0  0  0  0  0  0  0  0  0  0  0
   27.2763   -2.4936   -2.4437 C   0  0  0  0  0  0  0  0  0  0  0  0
   27.2926   -3.5162   -3.4168 C   0  0  0  0  0  0  0  0  0  0  0  0
   27.3020   -4.3948   -4.2538 C   0  0  0  0  0  0  0  0  0  0  0  0
   27.3086   -5.4193   -5.2280 C   0  0  0  0  0  0  0  0  0  0  0  0
   28.5070   -5.9801   -5.6848 C   0  0  0  0  0  0  0  0  0  0  0  0
   28.4575   -6.9796   -6.6401 C   0  0  0  0  0  0  0  0  0  0  0  0
   27.3192   -7.4402   -7.1527 N   0  0  0  0  0  0  0  0  0  0  0  0
   26.1757   -6.9121   -6.7238 C   0  0  0  0  0  0  0  0  0  0  0  0
   26.1157   -5.9096   -5.7723 C   0  0  0  0  0  0  0  0  0  0  0  0
   26.0404   -1.9993   -2.0208 C   0  0  0  0  0  0  0  0  0  0  0  0
   24.7880   -2.4687   -2.5320 C   0  0  0  0  0  0  0  0  0  0  0  0
   23.8207   -1.7724   -1.8889 C   0  0  0  0  0  0  0  0  0  0  0  0
   24.4882   -0.8849   -0.9850 C   0  0  0  0  0  0  0  0  0  0  0  0
   25.8497   -1.0250   -1.0855 N   0  0  0  0  0  0  0  0  0  0  0  0
   22.7429   -0.0312   -0.1501 H   0  0  0  0  0  0  0  0  0  0  0  0
   22.6725    1.7378    1.7377 H   0  0  0  0  0  0  0  0  0  0  0  0
   24.5495    3.0804    3.1522 H   0  0  0  0  0  0  0  0  0  0  0  0
   29.2631    5.4546    5.3530 H   0  0  0  0  0  0  0  0  0  0  0  0
   29.1386    7.1962    7.1267 H   0  0  0  0  0  0  0  0  0  0  0  0
   25.0336    7.0175    7.2322 H   0  0  0  0  0  0  0  0  0  0  0  0
   24.9699    5.2684    5.4626 H   0  0  0  0  0  0  0  0  0  0  0  0
   29.7629    3.2184    3.1342 H   0  0  0  0  0  0  0  0  0  0  0  0
   31.7015    1.8976    1.7885 H   0  0  0  0  0  0  0  0  0  0  0  0
   31.7778   -1.8966   -1.7760 H   0  0  0  0  0  0  0  0  0  0  0  0
   29.8947   -3.3021   -3.1152 H   0  0  0  0  0  0  0  0  0  0  0  0
   29.4563   -5.6344   -5.2941 H   0  0  0  0  0  0  0  0  0  0  0  0
   29.3717   -7.4329   -7.0125 H   0  0  0  0  0  0  0  0  0  0  0  0
   25.2660   -7.3112   -7.1632 H   0  0  0  0  0  0  0  0  0  0  0  0
   25.1624   -5.5075   -5.4512 H   0  0  0  0  0  0  0  0  0  0  0  0
   24.6824   -3.2332   -3.2850 H   0  0  0  0  0  0  0  0  0  0  0  0
   22.7501   -1.8425   -1.9978 H   0  0  0  0  0  0  0  0  0  0  0  0
   64.3203   -0.1107   -0.0326 Fe  0  0  0  0  0  0  0  0  0  0  0  0
   67.7194   -0.2184   -0.1588 C   0  0  0  0  0  0  0  0  0  0  0  0
   67.0285   -1.3737   -0.4581 C   0  0  0  0  0  0  0  0  0  0  0  0
   67.6644   -2.6103   -0.7999 C   0  0  0  0  0  0  0  0  0  0  0  0
   66.6734   -3.5075   -1.0172 C   0  0  0  0  0  0  0  0  0  0  0  0
   65.4386   -2.8146   -0.8043 C   0  0  0  0  0  0  0  0  0  0  0  0
   65.6631   -1.5109   -0.4730 N   0  0  0  0  0  0  0  0  0  0  0  0
   64.1867   -3.4238   -0.9164 C   0  0  0  0  0  0  0  0  0  0  0  0
   64.1334   -4.7896   -1.2695 C   0  0  0  0  0  0  0  0  0  0  0  0
   64.0906   -5.9633   -1.5747 C   0  0  0  0  0  0  0  0  0  0  0  0
   64.0411   -7.3305   -1.9311 C   0  0  0  0  0  0  0  0  0  0  0  0
   62.8199   -7.9952   -2.0929 C   0  0  0  0  0  0  0  0  0  0  0  0
   62.8271   -9.3339   -2.4423 C   0  0  0  0  0  0  0  0  0  0  0  0
   63.9450  -10.0296   -2.6341 N   0  0  0  0  0  0  0  0  0  0  0  0
   65.1100   -9.4049   -2.4823 C   0  0  0  0  0  0  0  0  0  0  0  0
   65.2123   -8.0695   -2.1353 C   0  0  0  0  0  0  0  0  0  0  0  0
   62.9887   -2.7473   -0.6871 C   0  0  0  0  0  0  0  0  0  0  0  0
   61.7061   -3.3727   -0.7740 C   0  0  0  0  0  0  0  0  0  0  0  0
   60.7884   -2.4158   -0.4928 C   0  0  0  0  0  0  0  0  0  0  0  0
   62.8621   -1.4235   -0.3608 N   0  0  0  0  0  0  0  0  0  0  0  0
   61.5175   -1.2125   -0.2404 C   0  0  0  0  0  0  0  0  0  0  0  0
   60.9004    0.0082    0.0525 C   0  0  0  0  0  0  0  0  0  0  0  0
   61.6132    1.1873    0.2913 C   0  0  0  0  0  0  0  0  0  0  0  0
   60.9817    2.4340    0.5910 C   0  0  0  0  0  0  0  0  0  0  0  0
   61.9758    3.3351    0.7827 C   0  0  0  0  0  0  0  0  0  0  0  0
   63.2066    2.6311    0.5993 C   0  0  0  0  0  0  0  0  0  0  0  0
   62.9732    1.3181    0.2883 N   0  0  0  0  0  0  0  0  0  0  0  0
   64.4585    3.2302    0.7375 C   0  0  0  0  0  0  0  0  0  0  0  0
   64.5171    4.5990    1.0779 C   0  0  0  0  0  0  0  0  0  0  0  0
   64.5695    5.7742    1.3757 C   0  0  0  0  0  0  0  0  0  0  0  0
   64.6318    7.1422    1.7268 C   0  0  0  0  0  0  0  0  0  0  0  0
   63.4695    7.8821    1.9739 C   0  0  0  0  0  0  0  0  0  0  0  0
   63.5858    9.2172    2.3175 C   0  0  0  0  0  0  0  0  0  0  0  0
   64.7560    9.8411    2.4257 N   0  0  0  0  0  0  0  0  0  0  0  0
   65.8655    9.1448    2.1916 C   0  0  0  0  0  0  0  0  0  0  0  0
   65.8586    7.8061    1.8427 C   0  0  0  0  0  0  0  0  0  0  0  0
   65.6582    2.5362    0.5642 C   0  0  0  0  0  0  0  0  0  0  0  0
   66.9470    3.1412    0.7162 C   0  0  0  0  0  0  0  0  0  0  0  0
   67.8616    2.1738    0.4677 C   0  0  0  0  0  0  0  0  0  0  0  0
   67.1257    0.9836    0.1643 C   0  0  0  0  0  0  0  0  0  0  0  0
   65.7753    1.2206    0.2250 N   0  0  0  0  0  0  0  0  0  0  0  0
   68.8027   -0.2573   -0.1811 H   0  0  0  0  0  0  0  0  0  0  0  0
   68.7316   -2.7531   -0.8587 H   0  0  0  0  0  0  0  0  0  0  0  0
   66.7519   -4.5469   -1.2931 H   0  0  0  0  0  0  0  0  0  0  0  0
   61.8859   -7.4664   -1.9463 H   0  0  0  0  0  0  0  0  0  0  0  0
   61.8945   -9.8747   -2.5748 H   0  0  0  0  0  0  0  0  0  0  0  0
   66.0021  -10.0024   -2.6462 H   0  0  0  0  0  0  0  0  0  0  0  0
   66.1819   -7.5998   -2.0220 H   0  0  0  0  0  0  0  0  0  0  0  0
   61.5453   -4.4106   -1.0173 H   0  0  0  0  0  0  0  0  0  0  0  0
   59.7143   -2.5009   -0.4578 H   0  0  0  0  0  0  0  0  0  0  0  0
   59.9155    2.5832    0.6467 H   0  0  0  0  0  0  0  0  0  0  0  0
   61.8990    4.3818    1.0294 H   0  0  0  0  0  0  0  0  0  0  0  0
   62.4961    7.4129    1.8973 H   0  0  0  0  0  0  0  0  0  0  0  0
   62.7009    9.8151    2.5157 H   0  0  0  0  0  0  0  0  0  0  0  0
   66.8028    9.6851    2.2886 H   0  0  0  0  0  0  0  0  0  0  0  0
   66.7861    7.2765    1.6612 H   0  0  0  0  0  0  0  0  0  0  0  0
   67.1108    4.1739    0.9797 H   0  0  0  0  0  0  0  0  0  0  0  0
   68.9379    2.2398    0.4830 H   0  0  0  0  0  0  0  0  0  0  0  0
   32.0573    0.0252   -0.0126 C   0  0  0  0  0  0  0  0  0  0  0  0
   33.2820    0.0391   -0.0002 C   0  0  0  0  0  0  0  0  0  0  0  0
   34.6240    0.0422    0.0084 C   0  0  0  0  0  0  0  0  0  0  0  0
   35.8551    0.0365    0.0109 C   0  0  0  0  0  0  0  0  0  0  0  0
   37.1920    0.0112    0.0005 C   0  0  0  0  0  0  0  0  0  0  0  0
   38.4224   -0.0289   -0.0180 C   0  0  0  0  0  0  0  0  0  0  0  0
   39.7616   -0.1003   -0.0594 C   0  0  0  0  0  0  0  0  0  0  0  0
   40.9824   -0.1877   -0.1131 C   0  0  0  0  0  0  0  0  0  0  0  0
   50.5780   -0.1412   -0.0346 C   0  0  0  0  0  0  0  0  0  0  0  0
   51.7973   -0.0453    0.0415 C   0  0  0  0  0  0  0  0  0  0  0  0
   53.1348    0.0313    0.1028 C   0  0  0  0  0  0  0  0  0  0  0  0
   54.3652    0.0744    0.1355 C   0  0  0  0  0  0  0  0  0  0  0  0
   55.7013    0.0966    0.1541 C   0  0  0  0  0  0  0  0  0  0  0  0
   56.9330    0.0956    0.1524 C   0  0  0  0  0  0  0  0  0  0  0  0
   58.2742    0.0809    0.1328 C   0  0  0  0  0  0  0  0  0  0  0  0
   59.4987    0.0509    0.1010 C   0  0  0  0  0  0  0  0  0  0  0  0
   45.7850   -0.5867   -0.3798 Fe  0  0  0  0  0  0  0  0  0  0  0  0
   42.3770   -0.3125   -0.1957 C   0  0  0  0  0  0  0  0  0  0  0  0
   43.0380    0.2713   -1.2829 C   0  0  0  0  0  0  0  0  0  0  0  0
   42.3609    0.9130   -2.3655 C   0  0  0  0  0  0  0  0  0  0  0  0
   43.3130    1.2578   -3.2677 C   0  0  0  0  0  0  0  0  0  0  0  0
   44.5671    0.8565   -2.7116 C   0  0  0  0  0  0  0  0  0  0  0  0
   44.3857    0.2486   -1.4995 N   0  0  0  0  0  0  0  0  0  0  0  0
   45.8003    1.1561   -3.2954 C   0  0  0  0  0  0  0  0  0  0  0  0
   45.8095    1.7914   -4.5556 C   0  0  0  0  0  0  0  0  0  0  0  0
   45.8181    2.3290   -5.6436 C   0  0  0  0  0  0  0  0  0  0  0  0
   45.8276    2.9628   -6.9073 C   0  0  0  0  0  0  0  0  0  0  0  0
   47.0292    3.2595   -7.5608 C   0  0  0  0  0  0  0  0  0  0  0  0
   46.9838    3.8835   -8.7948 C   0  0  0  0  0  0  0  0  0  0  0  0
   45.8466    4.2202   -9.3978 N   0  0  0  0  0  0  0  0  0  0  0  0
   44.7001    3.9416   -8.7830 C   0  0  0  0  0  0  0  0  0  0  0  0
   44.6358    3.3194   -7.5489 C   0  0  0  0  0  0  0  0  0  0  0  0
   47.0219    0.9298   -2.6569 C   0  0  0  0  0  0  0  0  0  0  0  0
   48.2727    1.4139   -3.1511 C   0  0  0  0  0  0  0  0  0  0  0  0
   49.2090    1.0817   -2.2279 C   0  0  0  0  0  0  0  0  0  0  0  0
   47.1895    0.2953   -1.4567 N   0  0  0  0  0  0  0  0  0  0  0  0
   48.5280    0.3646   -1.1961 C   0  0  0  0  0  0  0  0  0  0  0  0
   49.1868   -0.2779   -0.1409 C   0  0  0  0  0  0  0  0  0  0  0  0
   48.5292   -1.1434    0.7418 C   0  0  0  0  0  0  0  0  0  0  0  0
   49.2086   -1.9645    1.6938 C   0  0  0  0  0  0  0  0  0  0  0  0
   48.2607   -2.7265    2.2941 C   0  0  0  0  0  0  0  0  0  0  0  0
   47.0064   -2.3386    1.7289 C   0  0  0  0  0  0  0  0  0  0  0  0
   47.1843   -1.3734    0.7754 N   0  0  0  0  0  0  0  0  0  0  0  0
   45.7753   -2.8155    2.1844 C   0  0  0  0  0  0  0  0  0  0  0  0
   45.7698   -3.8135    3.1823 C   0  0  0  0  0  0  0  0  0  0  0  0
   45.7649   -4.6776    4.0344 C   0  0  0  0  0  0  0  0  0  0  0  0
   45.7596   -5.6791    5.0322 C   0  0  0  0  0  0  0  0  0  0  0  0
   44.5596   -6.1891    5.5414 C   0  0  0  0  0  0  0  0  0  0  0  0
   44.6092   -7.1666    6.5193 C   0  0  0  0  0  0  0  0  0  0  0  0
   45.7489   -7.6513    7.0056 N   0  0  0  0  0  0  0  0  0  0  0  0
   46.8938   -7.1717    6.5266 C   0  0  0  0  0  0  0  0  0  0  0  0
   46.9539   -6.1948    5.5488 C   0  0  0  0  0  0  0  0  0  0  0  0
   44.5502   -2.2970    1.7572 C   0  0  0  0  0  0  0  0  0  0  0  0
   43.2977   -2.6352    2.3570 C   0  0  0  0  0  0  0  0  0  0  0  0
   42.3562   -1.8770    1.7422 C   0  0  0  0  0  0  0  0  0  0  0  0
   43.0366   -1.1093    0.7472 C   0  0  0  0  0  0  0  0  0  0  0  0
   44.3792   -1.3575    0.7780 N   0  0  0  0  0  0  0  0  0  0  0  0
   41.2942    1.0579   -2.4223 H   0  0  0  0  0  0  0  0  0  0  0  0
   43.1932    1.7548   -4.2169 H   0  0  0  0  0  0  0  0  0  0  0  0
   47.9776    3.0027   -7.1046 H   0  0  0  0  0  0  0  0  0  0  0  0
   47.9003    4.1254   -9.3250 H   0  0  0  0  0  0  0  0  0  0  0  0
   43.7916    4.2307   -9.3035 H   0  0  0  0  0  0  0  0  0  0  0  0
   43.6804    3.1109   -7.0830 H   0  0  0  0  0  0  0  0  0  0  0  0
   48.4006    1.9500   -4.0777 H   0  0  0  0  0  0  0  0  0  0  0  0
   50.2690    1.2777   -2.2418 H   0  0  0  0  0  0  0  0  0  0  0  0
   50.2739   -1.9599    1.8586 H   0  0  0  0  0  0  0  0  0  0  0  0
   48.3832   -3.4725    3.0627 H   0  0  0  0  0  0  0  0  0  0  0  0
   43.6094   -5.8218    5.1733 H   0  0  0  0  0  0  0  0  0  0  0  0
   43.6941   -7.5807    6.9328 H   0  0  0  0  0  0  0  0  0  0  0  0
   47.8044   -7.5896    6.9461 H   0  0  0  0  0  0  0  0  0  0  0  0
   47.9082   -5.8317    5.1867 H   0  0  0  0  0  0  0  0  0  0  0  0
   43.1720   -3.3501    3.1541 H   0  0  0  0  0  0  0  0  0  0  0  0
   41.2934   -1.8458    1.9207 H   0  0  0  0  0  0  0  0  0  0  0  0
  2  3  4  0  0  0  0
  3  4  4  0  0  0  0
  4  5  2  0  0  0  0
  5  6  4  0  0  0  0
  1  7  1  0  0  0  0
  3  7  4  0  0  0  0
  6  7  4  0  0  0  0
  6  8  4  0  0  0  0
  8  9  1  0  0  0  0
  9 10  3  0  0  0  0
 10 11  1  0  0  0  0
 11 12  4  0  0  0  0
 12 13  4  0  0  0  0
 13 14  4  0  0  0  0
 14 15  4  0  0  0  0
 11 16  4  0  0  0  0
 15 16  4  0  0  0  0
  8 17  4  0  0  0  0
 17 18  4  0  0  0  0
 18 19  2  0  0  0  0
  1 20  1  0  0  0  0
 17 20  4  0  0  0  0
 19 21  4  0  0  0  0
 20 21  4  0  0  0  0
 21 22  4  0  0  0  0
 22 23  4  0  0  0  0
 23 24  4  0  0  0  0
 24 25  2  0  0  0  0
 25 26  4  0  0  0  0
  1 27  1  0  0  0  0
 23 27  4  0  0  0  0
 26 27  4  0  0  0  0
 26 28  4  0  0  0  0
 28 29  1  0  0  0  0
 29 30  3  0  0  0  0
 30 31  1  0  0  0  0
 31 32  4  0  0  0  0
 32 33  4  0  0  0  0
 33 34  4  0  0  0  0
 34 35  4  0  0  0  0
 31 36  4  0  0  0  0
 35 36  4  0  0  0  0
 28 37  4  0  0  0  0
 37 38  4  0  0  0  0
 38 39  2  0  0  0  0
  2 40  4  0  0  0  0
 39 40  4  0  0  0  0
  1 41  1  0  0  0  0
 37 41  4  0  0  0  0
 40 41  4  0  0  0  0
  2 42  1  0  0  0  0
  4 43  1  0  0  0  0
  5 44  1  0  0  0  0
 12 45  1  0  0  0  0
 13 46  1  0  0  0  0
 15 47  1  0  0  0  0
 16 48  1  0  0  0  0
 18 49  1  0  0  0  0
 19 50  1  0  0  0  0
 24 51  1  0  0  0  0
 25 52  1  0  0  0  0
 32 53  1  0  0  0  0
 33 54  1  0  0  0  0
 35 55  1  0  0  0  0
 36 56  1  0  0  0  0
 38 57  1  0  0  0  0
 39 58  1  0  0  0  0
 60 61  4  0  0  0  0
 61 62  4  0  0  0  0
 62 63  2  0  0  0  0
 63 64  4  0  0  0  0
 59 65  1  0  0  0  0
 61 65  4  0  0  0  0
 64 65  4  0  0  0  0
 64 66  4  0  0  0  0
 66 67  1  0  0  0  0
 67 68  3  0  0  0  0
 68 69  1  0  0  0  0
 69 70  4  0  0  0  0
 70 71  4  0  0  0  0
 71 72  4  0  0  0  0
 72 73  4  0  0  0  0
 69 74  4  0  0  0  0
 73 74  4  0  0  0  0
 66 75  4  0  0  0  0
 75 76  4  0  0  0  0
 76 77  2  0  0  0  0
 59 78  1  0  0  0  0
 75 78  4  0  0  0  0
 77 79  4  0  0  0  0
 78 79  4  0  0  0  0
 79 80  4  0  0  0  0
 80 81  4  0  0  0  0
 81 82  4  0  0  0  0
 82 83  2  0  0  0  0
 83 84  4  0  0  0  0
 59 85  1  0  0  0  0
 81 85  4  0  0  0  0
 84 85  4  0  0  0  0
 84 86  4  0  0  0  0
 86 87  1  0  0  0  0
 87 88  3  0  0  0  0
 88 89  1  0  0  0  0
 89 90  4  0  0  0  0
 90 91  4  0  0  0  0
 91 92  4  0  0  0  0
 92 93  4  0  0  0  0
 89 94  4  0  0  0  0
 93 94  4  0  0  0  0
 86 95  4  0  0  0  0
 95 96  4  0  0  0  0
 96 97  2  0  0  0  0
 60 98  4  0  0  0  0
 97 98  4  0  0  0  0
 59 99  1  0  0  0  0
 95 99  4  0  0  0  0
 98 99  4  0  0  0  0
 60100  1  0  0  0  0
 62101  1  0  0  0  0
 63102  1  0  0  0  0
 70103  1  0  0  0  0
 71104  1  0  0  0  0
 73105  1  0  0  0  0
 74106  1  0  0  0  0
 76107  1  0  0  0  0
 77108  1  0  0  0  0
 82109  1  0  0  0  0
 83110  1  0  0  0  0
 90111  1  0  0  0  0
 91112  1  0  0  0  0
 93113  1  0  0  0  0
 94114  1  0  0  0  0
 96115  1  0  0  0  0
 97116  1  0  0  0  0
 22117  4  0  0  0  0
117118  3  0  0  0  0
118119  4  0  0  0  0
119120  3  0  0  0  0
120121  4  0  0  0  0
121122  3  0  0  0  0
122123  4  0  0  0  0
123124  3  0  0  0  0
125126  3  0  0  0  0
126127  4  0  0  0  0
127128  3  0  0  0  0
128129  4  0  0  0  0
129130  3  0  0  0  0
130131  4  0  0  0  0
 80132  4  0  0  0  0
131132  3  0  0  0  0
124134  4  0  0  0  0
134135  4  0  0  0  0
135136  4  0  0  0  0
136137  2  0  0  0  0
137138  4  0  0  0  0
133139  1  0  0  0  0
135139  4  0  0  0  0
138139  4  0  0  0  0
138140  4  0  0  0  0
140141  1  0  0  0  0
141142  3  0  0  0  0
142143  1  0  0  0  0
143144  4  0  0  0  0
144145  4  0  0  0  0
145146  4  0  0  0  0
146147  4  0  0  0  0
143148  4  0  0  0  0
147148  4  0  0  0  0
140149  4  0  0  0  0
149150  4  0  0  0  0
150151  2  0  0  0  0
133152  1  0  0  0  0
149152  4  0  0  0  0
151153  4  0  0  0  0
152153  4  0  0  0  0
125154  4  0  0  0  0
153154  4  0  0  0  0
154155  4  0  0  0  0
155156  4  0  0  0  0
156157  2  0  0  0  0
157158  4  0  0  0  0
133159  1  0  0  0  0
155159  4  0  0  0  0
158159  4  0  0  0  0
158160  4  0  0  0  0
160161  1  0  0  0  0
161162  3  0  0  0  0
162163  1  0  0  0  0
163164  4  0  0  0  0
164165  4  0  0  0  0
165166  4  0  0  0  0
166167  4  0  0  0  0
163168  4  0  0  0  0
167168  4  0  0  0  0
160169  4  0  0  0  0
169170  4  0  0  0  0
170171  2  0  0  0  0
134172  4  0  0  0  0
171172  4  0  0  0  0
133173  1  0  0  0  0
169173  4  0  0  0  0
172173  4  0  0  0  0
136174  1  0  0  0  0
137175  1  0  0  0  0
144176  1  0  0  0  0
145177  1  0  0  0  0
147178  1  0  0  0  0
148179  1  0  0  0  0
150180  1  0  0  0  0
151181  1  0  0  0  0
156182  1  0  0  0  0
157183  1  0  0  0  0
164184  1  0  0  0  0
165185  1  0  0  0  0
167186  1  0  0  0  0
168187  1  0  0  0  0
170188  1  0  0  0  0
171189  1  0  0  0  0
M  END
