676

C 129.099812 -0.165532 -0.323720
C 129.811604 1.185799 -0.631637
C 129.176231 2.377602 -0.896431
C 130.187088 3.349540 -1.104844
C 131.408745 2.717256 -0.962079
N 131.166924 1.398987 -0.664620
C 132.836885 3.395658 -1.087175
C 132.873971 4.814356 -1.518434
C 133.031342 5.848466 -0.587222
C 133.022347 7.179210 -1.017023
C 133.210988 8.252879 -0.014255
O 132.800698 9.457847 -0.464105
O 133.673241 8.144905 1.105283
C 132.855825 7.477039 -2.378486
C 132.704895 6.447080 -3.307781
C 132.714289 5.120730 -2.877587
C 133.970816 2.692956 -0.823674
C 135.279541 3.312767 -0.876470
C 136.185490 2.406719 -0.528284
N 134.170719 1.382902 -0.471956
C 135.508671 1.149009 -0.276924
C 136.190723 0.023737 0.067572
C 135.442230 -1.368509 0.241234
C 136.048699 -2.610323 0.262980
C 135.033552 -3.581580 0.433532
C 133.830044 -2.911383 0.498071
N 134.085656 -1.564228 0.364637
C 132.404452 -3.585419 0.670190
C 132.355709 -5.009615 1.070636
C 132.371683 -6.016435 0.095913
C 132.336972 -7.360801 0.466141
C 132.280298 -7.704990 1.817422
C 132.262014 -6.703758 2.800894
C 132.192181 -7.119458 4.221010
O 132.372599 -6.099302 5.078263
O 132.011535 -8.256682 4.623223
C 132.302765 -5.357038 2.426307
C 131.274292 -2.865737 0.451275
C 129.946149 -3.443778 0.568282
C 129.054805 -2.500212 0.285247
C 129.776284 -1.286795 -0.012816
N 131.105292 -1.555898 0.099335
H 128.016192 -0.185608 -0.356498
H 128.107965 2.531545 -0.930855
H 130.039505 4.394619 -1.331212
H 131.879961 0.692619 -0.500178
H 133.156750 5.598592 0.464661
H 132.975861 10.033974 0.307639
H 132.852446 8.507358 -2.722255
H 132.581449 6.668630 -4.363521
H 132.595572 4.306886 -3.592587
H 135.497433 4.333496 -1.133403
H 137.242752 2.592312 -0.475541
H 137.106533 -2.804964 0.165515
H 135.168745 -4.651669 0.491679
H 133.372438 -0.840090 0.311061
H 132.410769 -5.732641 -0.954099
H 132.353648 -8.131860 -0.299313
H 132.250474 -8.753534 2.103867
H 132.300840 -6.498012 5.966339
H 132.286011 -4.560324 3.168545
H 129.716288 -4.460473 0.833479
H 127.986172 -2.613384 0.281792
C 281.748700 0.036241 -0.366912
C 281.036908 -1.322725 -0.094664
C 281.672281 -2.518489 0.151624
C 280.661423 -3.490575 0.359348
C 279.439767 -2.855254 0.230769
N 279.681588 -1.530734 -0.037485
C 278.011627 -3.525419 0.394347
C 277.974541 -4.996340 0.581639
C 277.817170 -5.558631 1.854575
C 277.826165 -6.948709 2.007192
C 277.637524 -7.517801 3.361609
O 278.047814 -8.801332 3.444445
O 277.175271 -6.960992 4.338843
C 277.992687 -7.777771 0.886950
C 278.143616 -7.218482 -0.382537
C 278.134223 -5.832252 -0.532997
C 276.877696 -2.776426 0.347099
C 275.568971 -3.363537 0.552656
C 274.663022 -2.394350 0.499430
N 276.677792 -1.437189 0.131711
C 275.339840 -1.143953 0.213907
C 274.657789 0.023737 0.067572
C 275.406282 1.365074 -0.343915
C 274.799813 2.506973 -0.832426
C 275.814960 3.462939 -1.074414
C 277.018468 2.877889 -0.741177
N 276.762856 1.594160 -0.311446
C 278.444060 3.563320 -0.860065
C 278.492803 5.026644 -1.077720
C 278.476829 5.546225 -2.379184
C 278.511540 6.924344 -2.591730
C 278.568214 7.791535 -1.499756
C 278.586498 7.280634 -0.192598
C 278.656331 8.241248 0.932905
O 278.475912 7.661412 2.132652
O 278.836977 9.443470 0.834338
C 278.545747 5.898583 0.016935
C 279.574220 2.817086 -0.765187
C 280.902363 3.392373 -0.895061
C 281.793707 2.415626 -0.767035
C 281.072228 1.186523 -0.542253
N 279.743220 1.477955 -0.550090
H 282.832320 0.041140 -0.405035
H 282.740547 -2.673035 0.183235
H 280.809006 -4.536742 0.580631
H 278.968551 -0.818947 -0.176613
H 277.691762 -4.900053 2.711995
H 277.872651 -9.011051 4.384407
H 277.996066 -8.858531 0.995079
H 278.267063 -7.852798 -1.255072
H 278.252939 -5.382417 -1.518500
H 275.351079 -4.400000 0.736085
H 273.605760 -2.542089 0.623527
H 273.741979 2.644660 -1.001028
H 275.679767 4.463061 -1.459416
H 277.476074 0.911544 -0.063893
H 278.437743 4.857464 -3.221012
H 278.494864 7.314490 -3.605750
H 278.598038 8.865456 -1.667645
H 278.547672 8.388728 2.779691
H 278.562501 5.475526 1.020276
H 281.132224 4.428539 -1.069298
H 282.862340 2.517467 -0.816515
C 142.375846 0.024840 0.076062
C 141.166907 0.011385 0.067615
C 139.745378 0.020204 0.055632
C 138.533708 0.027643 0.066495
C 143.792450 0.018165 0.076595
C 145.013146 0.027643 0.066495
C 158.288909 0.024840 0.076062
C 157.079970 0.011385 0.067615
C 155.658441 0.020204 0.055632
C 154.446772 0.027643 0.066495
C 159.705514 0.018165 0.076595
C 160.926210 0.027643 0.066495
C 174.201973 0.024840 0.076062
C 172.993034 0.011385 0.067615
C 171.571505 0.020204 0.055632
C 170.359835 0.027643 0.066495
C 175.618577 0.018165 0.076595
C 176.839273 0.027643 0.066495
C 190.115036 0.024840 0.076062
C 188.906097 0.011385 0.067615
C 187.484568 0.020204 0.055632
C 186.272899 0.027643 0.066495
C 191.531641 0.018165 0.076595
C 192.752337 0.027643 0.066495
C 206.028100 0.024840 0.076062
C 204.819161 0.011385 0.067615
C 203.397632 0.020204 0.055632
C 202.185962 0.027643 0.066495
C 207.444704 0.018165 0.076595
C 208.665400 0.027643 0.066495
C 221.941163 0.024840 0.076062
C 220.732224 0.011385 0.067615
C 219.310695 0.020204 0.055632
C 218.099026 0.027643 0.066495
C 223.357768 0.018165 0.076595
C 224.578464 0.027643 0.066495
C 237.854227 0.024840 0.076062
C 236.645288 0.011385 0.067615
C 235.223759 0.020204 0.055632
C 234.012089 0.027643 0.066495
C 239.270831 0.018165 0.076595
C 240.491527 0.027643 0.066495
C 253.767290 0.024840 0.076062
C 252.558351 0.011385 0.067615
C 251.136822 0.020204 0.055632
C 249.925153 0.027643 0.066495
C 255.183895 0.018165 0.076595
C 256.404590 0.027643 0.066495
C 269.680354 0.024840 0.076062
C 268.471414 0.011385 0.067615
C 267.049886 0.020204 0.055632
C 265.838216 0.027643 0.066495
C 271.096958 0.018165 0.076595
C 272.317654 0.027643 0.066495
C 146.077920 -0.009039 -0.024405
C 146.873669 1.357490 -0.121851
C 146.373188 2.576998 -0.530571
C 147.412010 3.531906 -0.383334
C 148.515256 2.863973 0.104887
N 148.200681 1.530723 0.185767
C 149.901306 3.509210 0.512385
C 149.882950 4.900427 1.016805
C 150.261964 5.968284 0.193275
C 150.229323 7.277292 0.685664
C 150.634688 8.383983 -0.214037
O 150.606493 9.588885 0.392022
O 150.968437 8.300514 -1.381250
C 149.814585 7.517294 2.004603
C 149.433931 6.454696 2.825131
C 149.467355 5.151613 2.330792
C 151.038696 2.767736 0.467219
C 152.323960 3.292649 0.880074
C 153.233329 2.334872 0.734528
N 151.249536 1.472516 0.084241
C 152.572941 1.150516 0.223654
C 153.236375 -0.009039 -0.024405
C 152.441138 -1.267059 -0.567874
C 152.944167 -2.285017 -1.352226
C 151.906293 -3.235791 -1.528484
C 150.800357 -2.765192 -0.851904
N 151.113809 -1.532551 -0.336274
C 149.411854 -3.507561 -0.688224
C 149.419957 -4.987379 -0.733911
C 148.983846 -5.659705 -1.884022
C 149.003559 -7.052901 -1.939286
C 149.464326 -7.782436 -0.842628
C 149.906164 -7.119547 0.312128
C 150.387596 -7.941498 1.447719
O 150.778419 -7.208530 2.503810
O 150.443960 -9.159444 1.473767
C 149.884548 -5.721698 0.364080
C 148.276146 -2.792547 -0.475711
C 146.989038 -3.423936 -0.267983
C 146.080225 -2.471952 -0.085661
C 146.742234 -1.185683 -0.167857
N 148.067543 -1.443977 -0.394903
H 145.367935 2.765457 -0.875744
H 147.354963 4.589764 -0.590757
H 148.858228 0.785397 0.395867
H 150.583010 5.760036 -0.825962
H 150.898864 10.185313 -0.327387
H 149.783525 8.527769 2.401160
H 149.111406 6.633808 3.846129
H 149.173153 4.314401 2.961519
H 152.519486 4.283836 1.247776
H 154.277879 2.439307 0.964897
H 153.950698 -2.349528 -1.736904
H 151.965580 -4.167248 -2.070987
H 150.455257 -0.898260 0.106506
H 148.625586 -5.077573 -2.731462
H 148.659841 -7.561338 -2.834671
H 149.478505 -8.868291 -0.889156
H 151.069976 -7.862021 3.167827
H 150.223044 -5.182887 1.246615
H 146.792649 -4.480950 -0.252884
H 145.035129 -2.646493 0.094143
C 161.990984 -0.009039 -0.024405
C 162.786732 1.357490 -0.121851
C 162.286252 2.576998 -0.530571
C 163.325073 3.531906 -0.383334
C 164.428319 2.863973 0.104887
N 164.113745 1.530723 0.185767
C 165.814370 3.509210 0.512385
C 165.796013 4.900427 1.016805
C 166.175027 5.968284 0.193275
C 166.142386 7.277292 0.685664
C 166.547752 8.383983 -0.214037
O 166.519556 9.588885 0.392022
O 166.881500 8.300514 -1.381250
C 165.727649 7.517294 2.004603
C 165.346995 6.454696 2.825131
C 165.380418 5.151613 2.330792
C 166.951759 2.767736 0.467219
C 168.237024 3.292649 0.880074
C 169.146392 2.334872 0.734528
N 167.162599 1.472516 0.084241
C 168.486005 1.150516 0.223654
C 169.149438 -0.009039 -0.024405
C 168.354201 -1.267059 -0.567874
C 168.857231 -2.285017 -1.352226
C 167.819357 -3.235791 -1.528484
C 166.713420 -2.765192 -0.851904
N 167.026873 -1.532551 -0.336274
C 165.324917 -3.507561 -0.688224
C 165.333021 -4.987379 -0.733911
C 164.896909 -5.659705 -1.884022
C 164.916622 -7.052901 -1.939286
C 165.377389 -7.782436 -0.842628
C 165.819228 -7.119547 0.312128
C 166.300660 -7.941498 1.447719
O 166.691483 -7.208530 2.503810
O 166.357023 -9.159444 1.473767
C 165.797611 -5.721698 0.364080
C 164.189210 -2.792547 -0.475711
C 162.902102 -3.423936 -0.267983
C 161.993288 -2.471952 -0.085661
C 162.655297 -1.185683 -0.167857
N 163.980606 -1.443977 -0.394903
H 161.280998 2.765457 -0.875744
H 163.268027 4.589764 -0.590757
H 164.771291 0.785397 0.395867
H 166.496073 5.760036 -0.825962
H 166.811927 10.185313 -0.327387
H 165.696589 8.527769 2.401160
H 165.024470 6.633808 3.846129
H 165.086216 4.314401 2.961519
H 168.432549 4.283836 1.247776
H 170.190942 2.439307 0.964897
H 169.863761 -2.349528 -1.736904
H 167.878644 -4.167248 -2.070987
H 166.368320 -0.898260 0.106506
H 164.538649 -5.077573 -2.731462
H 164.572904 -7.561338 -2.834671
H 165.391568 -8.868291 -0.889156
H 166.983039 -7.862021 3.167827
H 166.136108 -5.182887 1.246615
H 162.705712 -4.480950 -0.252884
H 160.948192 -2.646493 0.094143
C 177.904047 -0.009039 -0.024405
C 178.699796 1.357490 -0.121851
C 178.199315 2.576998 -0.530571
C 179.238137 3.531906 -0.383334
C 180.341383 2.863973 0.104887
N 180.026808 1.530723 0.185767
C 181.727433 3.509210 0.512385
C 181.709077 4.900427 1.016805
C 182.088091 5.968284 0.193275
C 182.055450 7.277292 0.685664
C 182.460815 8.383983 -0.214037
O 182.432620 9.588885 0.392022
O 182.794564 8.300514 -1.381250
C 181.640712 7.517294 2.004603
C 181.260058 6.454696 2.825131
C 181.293482 5.151613 2.330792
C 182.864823 2.767736 0.467219
C 184.150087 3.292649 0.880074
C 185.059456 2.334872 0.734528
N 183.075663 1.472516 0.084241
C 184.399068 1.150516 0.223654
C 185.062502 -0.009039 -0.024405
C 184.267265 -1.267059 -0.567874
C 184.770294 -2.285017 -1.352226
C 183.732420 -3.235791 -1.528484
C 182.626484 -2.765192 -0.851904
N 182.939936 -1.532551 -0.336274
C 181.237981 -3.507561 -0.688224
C 181.246084 -4.987379 -0.733911
C 180.809973 -5.659705 -1.884022
C 180.829686 -7.052901 -1.939286
C 181.290453 -7.782436 -0.842628
C 181.732291 -7.119547 0.312128
C 182.213723 -7.941498 1.447719
O 182.604546 -7.208530 2.503810
O 182.270087 -9.159444 1.473767
C 181.710675 -5.721698 0.364080
C 180.102273 -2.792547 -0.475711
C 178.815165 -3.423936 -0.267983
C 177.906352 -2.471952 -0.085661
C 178.568361 -1.185683 -0.167857
N 179.893670 -1.443977 -0.394903
H 177.194062 2.765457 -0.875744
H 179.181090 4.589764 -0.590757
H 180.684355 0.785397 0.395867
H 182.409137 5.760036 -0.825962
H 182.724991 10.185313 -0.327387
H 181.609652 8.527769 2.401160
H 180.937533 6.633808 3.846129
H 180.999279 4.314401 2.961519
H 184.345613 4.283836 1.247776
H 186.104006 2.439307 0.964897
H 185.776825 -2.349528 -1.736904
H 183.791707 -4.167248 -2.070987
H 182.281384 -0.898260 0.106506
H 180.451713 -5.077573 -2.731462
H 180.485968 -7.561338 -2.834671
H 181.304632 -8.868291 -0.889156
H 182.896103 -7.862021 3.167827
H 182.049171 -5.182887 1.246615
H 178.618776 -4.480950 -0.252884
H 176.861256 -2.646493 0.094143
C 193.817111 -0.009039 -0.024405
C 194.612859 1.357490 -0.121851
C 194.112379 2.576998 -0.530571
C 195.151200 3.531906 -0.383334
C 196.254446 2.863973 0.104887
N 195.939872 1.530723 0.185767
C 197.640497 3.509210 0.512385
C 197.622140 4.900427 1.016805
C 198.001154 5.968284 0.193275
C 197.968513 7.277292 0.685664
C 198.373879 8.383983 -0.214037
O 198.345683 9.588885 0.392022
O 198.707627 8.300514 -1.381250
C 197.553776 7.517294 2.004603
C 197.173122 6.454696 2.825131
C 197.206545 5.151613 2.330792
C 198.777886 2.767736 0.467219
C 200.063151 3.292649 0.880074
C 200.972519 2.334872 0.734528
N 198.988726 1.472516 0.084241
C 200.312132 1.150516 0.223654
C 200.975565 -0.009039 -0.024405
C 200.180328 -1.267059 -0.567874
C 200.683358 -2.285017 -1.352226
C 199.645484 -3.235791 -1.528484
C 198.539547 -2.765192 -0.851904
N 198.853000 -1.532551 -0.336274
C 197.151044 -3.507561 -0.688224
C 197.159148 -4.987379 -0.733911
C 196.723036 -5.659705 -1.884022
C 196.742749 -7.052901 -1.939286
C 197.203516 -7.782436 -0.842628
C 197.645355 -7.119547 0.312128
C 198.126787 -7.941498 1.447719
O 198.517610 -7.208530 2.503810
O 198.183150 -9.159444 1.473767
C 197.623738 -5.721698 0.364080
C 196.015337 -2.792547 -0.475711
C 194.728229 -3.423936 -0.267983
C 193.819415 -2.471952 -0.085661
C 194.481424 -1.185683 -0.167857
N 195.806733 -1.443977 -0.394903
H 193.107125 2.765457 -0.875744
H 195.094154 4.589764 -0.590757
H 196.597418 0.785397 0.395867
H 198.322200 5.760036 -0.825962
H 198.638054 10.185313 -0.327387
H 197.522716 8.527769 2.401160
H 196.850597 6.633808 3.846129
H 196.912343 4.314401 2.961519
H 200.258676 4.283836 1.247776
H 202.017069 2.439307 0.964897
H 201.689888 -2.349528 -1.736904
H 199.704770 -4.167248 -2.070987
H 198.194447 -0.898260 0.106506
H 196.364776 -5.077573 -2.731462
H 196.399031 -7.561338 -2.834671
H 197.217695 -8.868291 -0.889156
H 198.809166 -7.862021 3.167827
H 197.962235 -5.182887 1.246615
H 194.531839 -4.480950 -0.252884
H 192.774319 -2.646493 0.094143
C 209.730174 -0.009039 -0.024405
C 210.525922 1.357490 -0.121851
C 210.025442 2.576998 -0.530571
C 211.064264 3.531906 -0.383334
C 212.167510 2.863973 0.104887
N 211.852935 1.530723 0.185767
C 213.553560 3.509210 0.512385
C 213.535204 4.900427 1.016805
C 213.914218 5.968284 0.193275
C 213.881577 7.277292 0.685664
C 214.286942 8.383983 -0.214037
O 214.258747 9.588885 0.392022
O 214.620691 8.300514 -1.381250
C 213.466839 7.517294 2.004603
C 213.086185 6.454696 2.825131
C 213.119609 5.151613 2.330792
C 214.690950 2.767736 0.467219
C 215.976214 3.292649 0.880074
C 216.885583 2.334872 0.734528
N 214.901790 1.472516 0.084241
C 216.225195 1.150516 0.223654
C 216.888629 -0.009039 -0.024405
C 216.093392 -1.267059 -0.567874
C 216.596421 -2.285017 -1.352226
C 215.558547 -3.235791 -1.528484
C 214.452611 -2.765192 -0.851904
N 214.766063 -1.532551 -0.336274
C 213.064108 -3.507561 -0.688224
C 213.072211 -4.987379 -0.733911
C 212.636100 -5.659705 -1.884022
C 212.655813 -7.052901 -1.939286
C 213.116580 -7.782436 -0.842628
C 213.558418 -7.119547 0.312128
C 214.039850 -7.941498 1.447719
O 214.430673 -7.208530 2.503810
O 214.096213 -9.159444 1.473767
C 213.536802 -5.721698 0.364080
C 211.928400 -2.792547 -0.475711
C 210.641292 -3.423936 -0.267983
C 209.732479 -2.471952 -0.085661
C 210.394488 -1.185683 -0.167857
N 211.719797 -1.443977 -0.394903
H 209.020189 2.765457 -0.875744
H 211.007217 4.589764 -0.590757
H 212.510482 0.785397 0.395867
H 214.235264 5.760036 -0.825962
H 214.551118 10.185313 -0.327387
H 213.435779 8.527769 2.401160
H 212.763660 6.633808 3.846129
H 212.825406 4.314401 2.961519
H 216.171740 4.283836 1.247776
H 217.930133 2.439307 0.964897
H 217.602952 -2.349528 -1.736904
H 215.617834 -4.167248 -2.070987
H 214.107511 -0.898260 0.106506
H 212.277840 -5.077573 -2.731462
H 212.312095 -7.561338 -2.834671
H 213.130759 -8.868291 -0.889156
H 214.722230 -7.862021 3.167827
H 213.875298 -5.182887 1.246615
H 210.444903 -4.480950 -0.252884
H 208.687383 -2.646493 0.094143
C 225.643238 -0.009039 -0.024405
C 226.438986 1.357490 -0.121851
C 225.938506 2.576998 -0.530571
C 226.977327 3.531906 -0.383334
C 228.080573 2.863973 0.104887
N 227.765999 1.530723 0.185767
C 229.466624 3.509210 0.512385
C 229.448267 4.900427 1.016805
C 229.827281 5.968284 0.193275
C 229.794640 7.277292 0.685664
C 230.200006 8.383983 -0.214037
O 230.171810 9.588885 0.392022
O 230.533754 8.300514 -1.381250
C 229.379903 7.517294 2.004603
C 228.999249 6.454696 2.825131
C 229.032672 5.151613 2.330792
C 230.604013 2.767736 0.467219
C 231.889278 3.292649 0.880074
C 232.798646 2.334872 0.734528
N 230.814853 1.472516 0.084241
C 232.138259 1.150516 0.223654
C 232.801692 -0.009039 -0.024405
C 232.006455 -1.267059 -0.567874
C 232.509485 -2.285017 -1.352226
C 231.471611 -3.235791 -1.528484
C 230.365674 -2.765192 -0.851904
N 230.679127 -1.532551 -0.336274
C 228.977171 -3.507561 -0.688224
C 228.985275 -4.987379 -0.733911
C 228.549163 -5.659705 -1.884022
C 228.568876 -7.052901 -1.939286
C 229.029643 -7.782436 -0.842628
C 229.471482 -7.119547 0.312128
C 229.952914 -7.941498 1.447719
O 230.343737 -7.208530 2.503810
O 230.009277 -9.159444 1.473767
C 229.449865 -5.721698 0.364080
C 227.841464 -2.792547 -0.475711
C 226.554356 -3.423936 -0.267983
C 225.645542 -2.471952 -0.085661
C 226.307551 -1.185683 -0.167857
N 227.632860 -1.443977 -0.394903
H 224.933252 2.765457 -0.875744
H 226.920281 4.589764 -0.590757
H 228.423545 0.785397 0.395867
H 230.148327 5.760036 -0.825962
H 230.464181 10.185313 -0.327387
H 229.348843 8.527769 2.401160
H 228.676724 6.633808 3.846129
H 228.738470 4.314401 2.961519
H 232.084803 4.283836 1.247776
H 233.843196 2.439307 0.964897
H 233.516015 -2.349528 -1.736904
H 231.530897 -4.167248 -2.070987
H 230.020574 -0.898260 0.106506
H 228.190903 -5.077573 -2.731462
H 228.225158 -7.561338 -2.834671
H 229.043822 -8.868291 -0.889156
H 230.635293 -7.862021 3.167827
H 229.788362 -5.182887 1.246615
H 226.357966 -4.480950 -0.252884
H 224.600446 -2.646493 0.094143
C 241.556301 -0.009039 -0.024405
C 242.352049 1.357490 -0.121851
C 241.851569 2.576998 -0.530571
C 242.890391 3.531906 -0.383334
C 243.993637 2.863973 0.104887
N 243.679062 1.530723 0.185767
C 245.379687 3.509210 0.512385
C 245.361331 4.900427 1.016805
C 245.740345 5.968284 0.193275
C 245.707704 7.277292 0.685664
C 246.113069 8.383983 -0.214037
O 246.084874 9.588885 0.392022
O 246.446818 8.300514 -1.381250
C 245.292966 7.517294 2.004603
C 244.912312 6.454696 2.825131
C 244.945735 5.151613 2.330792
C 246.517077 2.767736 0.467219
C 247.802341 3.292649 0.880074
C 248.711710 2.334872 0.734528
N 246.727916 1.472516 0.084241
C 248.051322 1.150516 0.223654
C 248.714755 -0.009039 -0.024405
C 247.919519 -1.267059 -0.567874
C 248.422548 -2.285017 -1.352226
C 247.384674 -3.235791 -1.528484
C 246.278738 -2.765192 -0.851904
N 246.592190 -1.532551 -0.336274
C 244.890235 -3.507561 -0.688224
C 244.898338 -4.987379 -0.733911
C 244.462227 -5.659705 -1.884022
C 244.481940 -7.052901 -1.939286
C 244.942706 -7.782436 -0.842628
C 245.384545 -7.119547 0.312128
C 245.865977 -7.941498 1.447719
O 246.256800 -7.208530 2.503810
O 245.922340 -9.159444 1.473767
C 245.362929 -5.721698 0.364080
C 243.754527 -2.792547 -0.475711
C 242.467419 -3.423936 -0.267983
C 241.558606 -2.471952 -0.085661
C 242.220615 -1.185683 -0.167857
N 243.545923 -1.443977 -0.394903
H 240.846316 2.765457 -0.875744
H 242.833344 4.589764 -0.590757
H 244.336609 0.785397 0.395867
H 246.061391 5.760036 -0.825962
H 246.377245 10.185313 -0.327387
H 245.261906 8.527769 2.401160
H 244.589787 6.633808 3.846129
H 244.651533 4.314401 2.961519
H 247.997867 4.283836 1.247776
H 249.756260 2.439307 0.964897
H 249.429079 -2.349528 -1.736904
H 247.443961 -4.167248 -2.070987
H 245.933638 -0.898260 0.106506
H 244.103967 -5.077573 -2.731462
H 244.138222 -7.561338 -2.834671
H 244.956886 -8.868291 -0.889156
H 246.548357 -7.862021 3.167827
H 245.701425 -5.182887 1.246615
H 242.271030 -4.480950 -0.252884
H 240.513510 -2.646493 0.094143
C 257.469365 -0.009039 -0.024405
C 258.265113 1.357490 -0.121851
C 257.764633 2.576998 -0.530571
C 258.803454 3.531906 -0.383334
C 259.906700 2.863973 0.104887
N 259.592126 1.530723 0.185767
C 261.292751 3.509210 0.512385
C 261.274394 4.900427 1.016805
C 261.653408 5.968284 0.193275
C 261.620767 7.277292 0.685664
C 262.026133 8.383983 -0.214037
O 261.997937 9.588885 0.392022
O 262.359881 8.300514 -1.381250
C 261.206030 7.517294 2.004603
C 260.825376 6.454696 2.825131
C 260.858799 5.151613 2.330792
C 262.430140 2.767736 0.467219
C 263.715405 3.292649 0.880074
C 264.624773 2.334872 0.734528
N 262.640980 1.472516 0.084241
C 263.964386 1.150516 0.223654
C 264.627819 -0.009039 -0.024405
C 263.832582 -1.267059 -0.567874
C 264.335612 -2.285017 -1.352226
C 263.297738 -3.235791 -1.528484
C 262.191801 -2.765192 -0.851904
N 262.505254 -1.532551 -0.336274
C 260.803298 -3.507561 -0.688224
C 260.811402 -4.987379 -0.733911
C 260.375290 -5.659705 -1.884022
C 260.395003 -7.052901 -1.939286
C 260.855770 -7.782436 -0.842628
C 261.297609 -7.119547 0.312128
C 261.779041 -7.941498 1.447719
O 262.169864 -7.208530 2.503810
O 261.835404 -9.159444 1.473767
C 261.275992 -5.721698 0.364080
C 259.667591 -2.792547 -0.475711
C 258.380483 -3.423936 -0.267983
C 257.471669 -2.471952 -0.085661
C 258.133678 -1.185683 -0.167857
N 259.458987 -1.443977 -0.394903
H 256.759379 2.765457 -0.875744
H 258.746408 4.589764 -0.590757
H 260.249672 0.785397 0.395867
H 261.974454 5.760036 -0.825962
H 262.290308 10.185313 -0.327387
H 261.174970 8.527769 2.401160
H 260.502851 6.633808 3.846129
H 260.564597 4.314401 2.961519
H 263.910930 4.283836 1.247776
H 265.669323 2.439307 0.964897
H 265.342142 -2.349528 -1.736904
H 263.357024 -4.167248 -2.070987
H 261.846701 -0.898260 0.106506
H 260.017030 -5.077573 -2.731462
H 260.051285 -7.561338 -2.834671
H 260.869949 -8.868291 -0.889156
H 262.461420 -7.862021 3.167827
H 261.614489 -5.182887 1.246615
H 258.184093 -4.480950 -0.252884
H 256.426573 -2.646493 0.094143
