213

Co 30.442450 1.969910 1.621420
C 26.691359 0.076426 -0.038220
C 27.340992 0.929628 0.758888
C 26.676285 1.848267 1.675228
C 27.606490 2.561425 2.282493
C 28.918721 2.140436 1.772378
N 28.756923 1.096259 0.811487
C 30.104134 2.670725 2.138958
C 30.137997 3.784208 3.114849
C 29.650195 5.051314 2.764179
C 29.698394 6.103167 3.682887
C 30.239451 5.908716 4.963668
N 30.275906 7.012038 5.887663
C 30.817318 6.914492 7.239184
C 30.734872 4.636437 5.309156
C 30.685270 3.584668 4.389772
C 31.403273 2.192205 1.597345
C 32.680075 2.886288 1.805161
C 33.624529 2.176552 1.221891
N 31.559431 1.102567 0.909838
C 32.957539 1.022033 0.632642
C 33.564320 0.010661 -0.009584
C 32.813701 -1.122815 -0.594077
C 33.355434 -2.290241 -0.917466
C 32.323368 -3.081534 -1.558885
C 31.220407 -2.342460 -1.589180
N 31.440075 -1.069455 -0.979500
C 29.949854 -2.758136 -2.236801
C 29.988406 -3.859163 -3.230013
C 30.734123 -3.715787 -4.408676
C 30.791155 -4.756587 -5.340025
C 30.105267 -5.963350 -5.102806
N 30.144008 -7.053698 -6.041990
C 30.880733 -7.008051 -7.300708
C 29.367697 -6.104454 -3.916834
C 29.311993 -5.063729 -2.985988
C 28.781089 -2.155866 -1.944424
C 27.480713 -2.452636 -2.542974
C 26.608415 -1.676381 -1.929409
C 27.343168 -0.875677 -0.951494
N 28.610049 -1.146695 -0.951385
H 25.607760 0.079404 -0.019751
H 25.610844 1.937712 1.844312
H 27.407126 3.320431 3.027575
H 29.234466 5.223361 1.778862
H 29.314611 7.073727 3.394599
H 29.896327 7.937780 5.584449
H 31.889632 6.629692 7.197409
H 30.247317 6.160322 7.821444
H 30.731346 7.896128 7.751256
H 31.161384 4.448541 6.284916
H 31.072368 2.612894 4.671279
H 32.839932 3.815191 2.336661
H 34.676703 2.427502 1.202585
H 34.382161 -2.592998 -0.761231
H 32.442686 -4.079100 -1.961396
H 31.269184 -2.795060 -4.607275
H 31.372508 -4.611566 -6.240206
H 29.618991 -7.930222 -5.820492
H 30.492361 -6.184947 -7.936613
H 30.754197 -7.966958 -7.846337
H 31.962001 -6.854555 -7.100704
H 28.836436 -7.025306 -3.711405
H 28.744914 -5.197147 -2.072804
H 27.250398 -3.158263 -3.330251
H 25.545188 -1.644648 -2.128098
Co 68.578531 -2.008550 -1.565740
C 72.329622 0.024257 -0.080013
C 71.679990 -0.939812 -0.738728
C 72.344696 -2.034519 -1.435286
C 71.414491 -2.782762 -1.998756
C 70.102260 -2.193079 -1.699217
N 70.264058 -1.027503 -0.889867
C 68.916847 -2.666534 -2.136741
C 68.882984 -3.861872 -3.010455
C 69.370786 -3.796134 -4.323545
C 69.322587 -4.922219 -5.149591
C 68.781530 -6.129710 -4.680360
N 68.745075 -7.272183 -5.555481
C 68.203663 -8.569855 -5.165385
C 68.286110 -6.189262 -3.363352
C 68.335711 -5.062536 -2.537536
C 67.617708 -2.033560 -1.787932
C 66.340906 -2.387817 -2.419945
C 65.396452 -1.663737 -1.854580
N 67.461550 -1.124861 -0.874563
C 66.063443 -0.836772 -0.856454
C 65.456661 0.010661 -0.009584
C 66.207281 0.828393 0.969044
C 65.665548 1.398722 2.037776
C 66.697614 2.197345 2.670045
C 67.800574 2.065644 1.942169
N 67.580906 1.192886 0.832871
C 69.071128 2.788361 2.206519
C 69.032575 3.997884 3.064298
C 68.286859 5.116861 2.667193
C 68.229826 6.252871 3.479694
C 68.915714 6.284683 4.709140
N 68.876973 7.439149 5.568286
C 68.140249 8.657578 5.249088
C 69.653284 5.158077 5.105623
C 69.708988 4.022574 4.293084
C 70.239892 2.371614 1.682557
C 71.540268 3.020497 1.841573
C 72.412566 2.252338 1.217902
C 71.677813 1.123273 0.649873
N 70.410932 1.182303 0.914384
H 73.413221 0.005583 -0.078890
H 73.410137 -2.219045 -1.485682
H 71.613856 -3.675506 -2.576896
H 69.786515 -2.872100 -4.706443
H 69.706370 -4.852652 -6.159670
H 69.124654 -7.178273 -6.525079
H 67.131349 -8.466943 -4.896563
H 68.773664 -8.973525 -4.302339
H 68.289635 -9.283780 -6.011634
H 67.859597 -7.100511 -2.967074
H 67.948613 -5.125219 -1.527753
H 66.181050 -3.109196 -3.210492
H 64.344278 -1.699653 -2.103695
H 64.638820 1.312313 2.367328
H 66.578295 2.807825 3.555746
H 67.751797 5.109773 1.725317
H 67.648473 7.099718 3.141748
H 69.401990 7.414246 6.472020
H 68.528620 9.098560 4.307063
H 68.266784 9.399292 6.065833
H 67.058981 8.428901 5.142930
H 70.184545 5.158527 6.049111
H 70.276067 3.160507 4.622544
H 71.770583 3.942770 2.358414
H 73.475793 2.439315 1.143580
C 35.948382 0.025862 0.001049
C 37.406609 0.004026 -0.016824
C 38.540537 -0.016728 -0.018315
C 39.901918 -0.029318 -0.020506
C 41.176137 -0.019011 -0.025271
C 42.364600 -0.000213 -0.031427
C 43.716960 0.024571 -0.015560
C 44.817228 0.025862 0.001049
C 54.075402 0.025862 0.001049
C 55.533628 0.004026 -0.016824
C 56.667556 -0.016728 -0.018315
C 58.028938 -0.029318 -0.020506
C 59.303157 -0.019011 -0.025271
C 60.491619 -0.000213 -0.031427
C 61.843980 0.024571 -0.015560
C 62.944247 0.025862 0.001049
Co 49.834869 -2.031913 -1.588512
C 46.071216 -0.028016 0.019205
C 46.728179 -0.986595 -0.659205
C 46.086492 -2.092516 -1.373860
C 47.025461 -2.802967 -1.966286
C 48.324659 -2.195613 -1.662938
N 48.146315 -1.047125 -0.830953
C 49.508337 -2.637651 -2.134496
C 49.534744 -3.809723 -3.034173
C 49.619242 -5.103206 -2.503164
C 49.649147 -6.211008 -3.354625
C 49.597703 -6.042901 -4.747978
N 49.629548 -7.203714 -5.599029
C 49.579731 -7.136297 -7.055774
C 49.516148 -4.739006 -5.275837
C 49.484808 -3.631848 -4.423026
C 50.808762 -2.007105 -1.797910
C 52.083191 -2.379776 -2.424595
C 53.036256 -1.674021 -1.850922
N 50.974869 -1.111287 -0.875341
C 52.377274 -0.846063 -0.848861
C 52.992403 -0.028016 0.019205
C 52.243662 0.774348 1.010093
C 52.780882 1.316182 2.095811
C 51.747853 2.104923 2.738199
C 50.649922 1.993667 1.999266
N 50.872543 1.146737 0.872623
C 49.390457 2.733387 2.253695
C 49.448649 3.959682 3.085752
C 48.788854 4.013544 4.322327
C 48.859160 5.165930 5.110640
C 49.597121 6.283407 4.674791
N 49.686799 7.485986 5.461330
C 49.042471 7.649886 6.760272
C 50.263046 6.219085 3.440857
C 50.193583 5.066019 2.654470
C 48.215835 2.326968 1.734730
C 46.935827 3.014162 1.871122
C 46.047086 2.257599 1.261000
C 46.747865 1.085176 0.725577
N 48.016091 1.121285 0.996351
H 45.028801 -2.312835 -1.431173
H 46.840730 -3.680715 -2.572141
H 49.660941 -5.252614 -1.430907
H 49.712581 -7.203764 -2.926524
H 49.691710 -8.150400 -5.160720
H 48.636604 -6.648071 -7.380207
H 50.452351 -6.565730 -7.438002
H 49.612827 -8.161608 -7.481600
H 49.476663 -4.568716 -6.343087
H 49.423485 -2.635460 -4.844074
H 52.236698 -3.105848 -3.211846
H 54.089675 -1.729545 -2.090572
H 53.804636 1.216762 2.430693
H 51.864668 2.701828 3.633337
H 48.222779 3.160623 4.676604
H 48.337655 5.175429 6.057760
H 50.239339 8.291865 5.090128
H 49.431313 6.892975 7.473343
H 49.258788 8.661670 7.163925
H 47.943086 7.539797 6.653291
H 50.839195 7.064915 3.086821
H 50.716169 5.037005 1.706038
H 46.729774 3.957345 2.359672
H 44.993994 2.488454 1.175607
