 xtb: 6.5.1 (b24c23e)
          07302208533D

136155  0     0  0            999 V2000
   17.5851    0.0156    0.0027 Zn  0  0  0  0  0  0  0  0  0  0  0  0
   14.1752    0.0486   -0.0213 C   0  0  0  0  0  0  0  0  0  0  0  0
   14.7971    0.9901    0.7904 C   0  0  0  0  0  0  0  0  0  0  0  0
   14.1154    1.9307    1.6338 C   0  0  0  0  0  0  0  0  0  0  0  0
   15.0686    2.6670    2.2589 C   0  0  0  0  0  0  0  0  0  0  0  0
   16.3453    2.1935    1.7947 C   0  0  0  0  0  0  0  0  0  0  0  0
   16.1451    1.1701    0.9145 N   0  0  0  0  0  0  0  0  0  0  0  0
   17.5924    2.6897    2.1971 C   0  0  0  0  0  0  0  0  0  0  0  0
   17.5983    3.8329    3.1413 C   0  0  0  0  0  0  0  0  0  0  0  0
   16.9972    5.0475    2.8000 C   0  0  0  0  0  0  0  0  0  0  0  0
   17.0095    6.1146    3.6787 C   0  0  0  0  0  0  0  0  0  0  0  0
   17.6156    5.9950    4.9350 C   0  0  0  0  0  0  0  0  0  0  0  0
   17.6483    7.1098    5.7618 N   0  0  0  0  0  0  0  0  0  0  0  0
   17.8054    6.9340    7.1995 C   0  0  0  0  0  0  0  0  0  0  0  0
   18.2218    4.7840    5.2804 C   0  0  0  0  0  0  0  0  0  0  0  0
   18.2104    3.7227    4.3912 C   0  0  0  0  0  0  0  0  0  0  0  0
   18.8349    2.1959    1.7817 C   0  0  0  0  0  0  0  0  0  0  0  0
   20.1102    2.7485    2.1452 C   0  0  0  0  0  0  0  0  0  0  0  0
   21.0622    1.9931    1.5395 C   0  0  0  0  0  0  0  0  0  0  0  0
   19.0367    1.1275    0.9486 N   0  0  0  0  0  0  0  0  0  0  0  0
   20.3796    0.9792    0.7919 C   0  0  0  0  0  0  0  0  0  0  0  0
   21.0183   -0.0137    0.0214 C   0  0  0  0  0  0  0  0  0  0  0  0
   20.3720   -0.9970   -0.7548 C   0  0  0  0  0  0  0  0  0  0  0  0
   21.0458   -2.0230   -1.4940 C   0  0  0  0  0  0  0  0  0  0  0  0
   20.0878   -2.7641   -2.1081 C   0  0  0  0  0  0  0  0  0  0  0  0
   18.8180   -2.1901   -1.7588 C   0  0  0  0  0  0  0  0  0  0  0  0
   19.0286   -1.1236   -0.9252 N   0  0  0  0  0  0  0  0  0  0  0  0
   17.5718   -2.6627   -2.1870 C   0  0  0  0  0  0  0  0  0  0  0  0
   17.5651   -3.8108   -3.1254 C   0  0  0  0  0  0  0  0  0  0  0  0
   18.1896   -3.7206   -4.3706 C   0  0  0  0  0  0  0  0  0  0  0  0
   18.1830   -4.7861   -5.2550 C   0  0  0  0  0  0  0  0  0  0  0  0
   17.5454   -5.9808   -4.9095 C   0  0  0  0  0  0  0  0  0  0  0  0
   17.5552   -7.0988   -5.7327 N   0  0  0  0  0  0  0  0  0  0  0  0
   17.7238   -6.9308   -7.1700 C   0  0  0  0  0  0  0  0  0  0  0  0
   16.9285   -6.0812   -3.6567 C   0  0  0  0  0  0  0  0  0  0  0  0
   16.9345   -5.0102   -2.7829 C   0  0  0  0  0  0  0  0  0  0  0  0
   16.3292   -2.1412   -1.8026 C   0  0  0  0  0  0  0  0  0  0  0  0
   15.0502   -2.5905   -2.2846 C   0  0  0  0  0  0  0  0  0  0  0  0
   14.1027   -1.8339   -1.6752 C   0  0  0  0  0  0  0  0  0  0  0  0
   14.7905   -0.9054   -0.8233 C   0  0  0  0  0  0  0  0  0  0  0  0
   16.1364   -1.1122   -0.9275 N   0  0  0  0  0  0  0  0  0  0  0  0
   13.0894    0.0592   -0.0294 H   0  0  0  0  0  0  0  0  0  0  0  0
   13.0436    2.0035    1.7351 H   0  0  0  0  0  0  0  0  0  0  0  0
   14.9234    3.4538    2.9820 H   0  0  0  0  0  0  0  0  0  0  0  0
   16.5342    5.1595    1.8256 H   0  0  0  0  0  0  0  0  0  0  0  0
   16.5491    7.0555    3.3960 H   0  0  0  0  0  0  0  0  0  0  0  0
   16.9270    7.7838    5.5345 H   0  0  0  0  0  0  0  0  0  0  0  0
   18.8086    6.5697    7.4241 H   0  0  0  0  0  0  0  0  0  0  0  0
   17.0676    6.2309    7.6032 H   0  0  0  0  0  0  0  0  0  0  0  0
   17.6736    7.9065    7.6740 H   0  0  0  0  0  0  0  0  0  0  0  0
   18.7056    4.6629    6.2419 H   0  0  0  0  0  0  0  0  0  0  0  0
   18.6690    2.7825    4.6782 H   0  0  0  0  0  0  0  0  0  0  0  0
   20.2580    3.6142    2.7706 H   0  0  0  0  0  0  0  0  0  0  0  0
   22.1332    2.1122    1.5836 H   0  0  0  0  0  0  0  0  0  0  0  0
   22.1151   -2.1592   -1.5270 H   0  0  0  0  0  0  0  0  0  0  0  0
   20.2278   -3.6329   -2.7310 H   0  0  0  0  0  0  0  0  0  0  0  0
   18.6719   -2.7926   -4.6586 H   0  0  0  0  0  0  0  0  0  0  0  0
   18.6765   -4.6807   -6.2135 H   0  0  0  0  0  0  0  0  0  0  0  0
   16.8154   -7.7533   -5.5075 H   0  0  0  0  0  0  0  0  0  0  0  0
   17.0089   -6.2071   -7.5784 H   0  0  0  0  0  0  0  0  0  0  0  0
   17.5655   -7.9000   -7.6432 H   0  0  0  0  0  0  0  0  0  0  0  0
   18.7384   -6.5968   -7.3908 H   0  0  0  0  0  0  0  0  0  0  0  0
   16.4443   -7.0100   -3.3734 H   0  0  0  0  0  0  0  0  0  0  0  0
   16.4617   -5.1068   -1.8115 H   0  0  0  0  0  0  0  0  0  0  0  0
   14.8999   -3.3757   -3.0083 H   0  0  0  0  0  0  0  0  0  0  0  0
   13.0313   -1.8856   -1.7923 H   0  0  0  0  0  0  0  0  0  0  0  0
   31.0571   -0.0102   -0.0079 Zn  0  0  0  0  0  0  0  0  0  0  0  0
   34.4669    0.0100   -0.0547 C   0  0  0  0  0  0  0  0  0  0  0  0
   33.8441   -0.9884   -0.7946 C   0  0  0  0  0  0  0  0  0  0  0  0
   34.5250   -2.0155   -1.5311 C   0  0  0  0  0  0  0  0  0  0  0  0
   33.5710   -2.7871   -2.1109 C   0  0  0  0  0  0  0  0  0  0  0  0
   32.2947   -2.2326   -1.7458 C   0  0  0  0  0  0  0  0  0  0  0  0
   32.4959   -1.1506   -0.9391 N   0  0  0  0  0  0  0  0  0  0  0  0
   31.0472   -2.7349   -2.1391 C   0  0  0  0  0  0  0  0  0  0  0  0
   31.0401   -3.9044   -3.0506 C   0  0  0  0  0  0  0  0  0  0  0  0
   31.6354   -3.8322   -4.3130 C   0  0  0  0  0  0  0  0  0  0  0  0
   31.6213   -4.9205   -5.1652 C   0  0  0  0  0  0  0  0  0  0  0  0
   31.0194   -6.1226   -4.7744 C   0  0  0  0  0  0  0  0  0  0  0  0
   30.9842   -7.1704   -5.6845 N   0  0  0  0  0  0  0  0  0  0  0  0
   30.8336   -8.5367   -5.2020 C   0  0  0  0  0  0  0  0  0  0  0  0
   30.4194   -6.1997   -3.5145 C   0  0  0  0  0  0  0  0  0  0  0  0
   30.4324   -5.1022   -2.6702 C   0  0  0  0  0  0  0  0  0  0  0  0
   29.8051   -2.2234   -1.7446 C   0  0  0  0  0  0  0  0  0  0  0  0
   28.5292   -2.6997   -2.2018 C   0  0  0  0  0  0  0  0  0  0  0  0
   27.5780   -1.9435   -1.5959 C   0  0  0  0  0  0  0  0  0  0  0  0
   29.6044   -1.1769   -0.8837 N   0  0  0  0  0  0  0  0  0  0  0  0
   28.2616   -0.9919   -0.7713 C   0  0  0  0  0  0  0  0  0  0  0  0
   27.6239   -0.0225    0.0293 C   0  0  0  0  0  0  0  0  0  0  0  0
   28.2712    0.9486    0.8199 C   0  0  0  0  0  0  0  0  0  0  0  0
   27.5986    1.8927    1.6620 C   0  0  0  0  0  0  0  0  0  0  0  0
   28.5573    2.6535    2.2503 C   0  0  0  0  0  0  0  0  0  0  0  0
   29.8264    2.1887    1.7633 C   0  0  0  0  0  0  0  0  0  0  0  0
   29.6147    1.1429    0.9043 N   0  0  0  0  0  0  0  0  0  0  0  0
   31.0730    2.7115    2.1276 C   0  0  0  0  0  0  0  0  0  0  0  0
   31.0805    3.8792    3.0413 C   0  0  0  0  0  0  0  0  0  0  0  0
   30.4507    5.0722    2.6821 C   0  0  0  0  0  0  0  0  0  0  0  0
   30.4581    6.1697    3.5264 C   0  0  0  0  0  0  0  0  0  0  0  0
   31.1022    6.0979    4.7646 C   0  0  0  0  0  0  0  0  0  0  0  0
   31.0939    7.1473    5.6736 N   0  0  0  0  0  0  0  0  0  0  0  0
   30.9171    8.5115    5.1938 C   0  0  0  0  0  0  0  0  0  0  0  0
   31.7244    4.8998    5.1356 C   0  0  0  0  0  0  0  0  0  0  0  0
   31.7173    3.8114    4.2836 C   0  0  0  0  0  0  0  0  0  0  0  0
   32.3151    2.2241    1.6991 C   0  0  0  0  0  0  0  0  0  0  0  0
   33.5943    2.7947    2.0277 C   0  0  0  0  0  0  0  0  0  0  0  0
   34.5410    2.0357    1.4201 C   0  0  0  0  0  0  0  0  0  0  0  0
   33.8524    1.0002    0.7028 C   0  0  0  0  0  0  0  0  0  0  0  0
   32.5069    1.1451    0.8861 N   0  0  0  0  0  0  0  0  0  0  0  0
   35.5525    0.0171   -0.0701 H   0  0  0  0  0  0  0  0  0  0  0  0
   35.5968   -2.1288   -1.5833 H   0  0  0  0  0  0  0  0  0  0  0  0
   33.7155   -3.6637   -2.7222 H   0  0  0  0  0  0  0  0  0  0  0  0
   32.0951   -2.9040   -4.6347 H   0  0  0  0  0  0  0  0  0  0  0  0
   32.0769   -4.8466   -6.1472 H   0  0  0  0  0  0  0  0  0  0  0  0
   31.7015   -7.0919   -6.3956 H   0  0  0  0  0  0  0  0  0  0  0  0
   29.8335   -8.6798   -4.7910 H   0  0  0  0  0  0  0  0  0  0  0  0
   31.5773   -8.7778   -4.4336 H   0  0  0  0  0  0  0  0  0  0  0  0
   30.9610   -9.2093   -6.0503 H   0  0  0  0  0  0  0  0  0  0  0  0
   29.9392   -7.1134   -3.1864 H   0  0  0  0  0  0  0  0  0  0  0  0
   29.9783   -5.1804   -1.6882 H   0  0  0  0  0  0  0  0  0  0  0  0
   28.3806   -3.4998   -2.9089 H   0  0  0  0  0  0  0  0  0  0  0  0
   26.5068   -2.0131   -1.7006 H   0  0  0  0  0  0  0  0  0  0  0  0
   26.5294    1.9538    1.7900 H   0  0  0  0  0  0  0  0  0  0  0  0
   28.4181    3.4498    2.9637 H   0  0  0  0  0  0  0  0  0  0  0  0
   29.9637    5.1473    1.7157 H   0  0  0  0  0  0  0  0  0  0  0  0
   29.9603    7.0798    3.2148 H   0  0  0  0  0  0  0  0  0  0  0  0
   31.8379    7.0748    6.3574 H   0  0  0  0  0  0  0  0  0  0  0  0
   31.6257    8.7527    4.3929 H   0  0  0  0  0  0  0  0  0  0  0  0
   31.0788    9.1874    6.0336 H   0  0  0  0  0  0  0  0  0  0  0  0
   29.8995    8.6494    4.8263 H   0  0  0  0  0  0  0  0  0  0  0  0
   32.2136    4.8296    6.1016 H   0  0  0  0  0  0  0  0  0  0  0  0
   32.1942    2.8865    4.5897 H   0  0  0  0  0  0  0  0  0  0  0  0
   33.7453    3.6732    2.6347 H   0  0  0  0  0  0  0  0  0  0  0  0
   35.6122    2.1630    1.4414 H   0  0  0  0  0  0  0  0  0  0  0  0
   23.6463   -0.0241    0.0338 C   0  0  0  0  0  0  0  0  0  0  0  0
   22.4239   -0.0221    0.0275 C   0  0  0  0  0  0  0  0  0  0  0  0
   24.9959   -0.0256    0.0364 C   0  0  0  0  0  0  0  0  0  0  0  0
   26.2183   -0.0238    0.0372 C   0  0  0  0  0  0  0  0  0  0  0  0
  2  3  4  0  0  0  0
  3  4  4  0  0  0  0
  4  5  2  0  0  0  0
  5  6  4  0  0  0  0
  1  7  1  0  0  0  0
  3  7  4  0  0  0  0
  6  7  4  0  0  0  0
  6  8  4  0  0  0  0
  8  9  1  0  0  0  0
  9 10  4  0  0  0  0
 10 11  4  0  0  0  0
 11 12  4  0  0  0  0
 12 13  1  0  0  0  0
 13 14  1  0  0  0  0
 12 15  4  0  0  0  0
  9 16  4  0  0  0  0
 15 16  4  0  0  0  0
  8 17  4  0  0  0  0
 17 18  4  0  0  0  0
 18 19  2  0  0  0  0
  1 20  1  0  0  0  0
 17 20  4  0  0  0  0
 19 21  4  0  0  0  0
 20 21  4  0  0  0  0
 21 22  4  0  0  0  0
 22 23  4  0  0  0  0
 23 24  4  0  0  0  0
 24 25  2  0  0  0  0
 25 26  4  0  0  0  0
  1 27  1  0  0  0  0
 23 27  4  0  0  0  0
 26 27  4  0  0  0  0
 26 28  4  0  0  0  0
 28 29  1  0  0  0  0
 29 30  4  0  0  0  0
 30 31  4  0  0  0  0
 31 32  4  0  0  0  0
 32 33  1  0  0  0  0
 33 34  1  0  0  0  0
 32 35  4  0  0  0  0
 29 36  4  0  0  0  0
 35 36  4  0  0  0  0
 28 37  4  0  0  0  0
 37 38  4  0  0  0  0
 38 39  2  0  0  0  0
  2 40  4  0  0  0  0
 39 40  4  0  0  0  0
  1 41  1  0  0  0  0
 37 41  4  0  0  0  0
 40 41  4  0  0  0  0
  2 42  1  0  0  0  0
  4 43  1  0  0  0  0
  5 44  1  0  0  0  0
 10 45  1  0  0  0  0
 11 46  1  0  0  0  0
 13 47  1  0  0  0  0
 14 48  1  0  0  0  0
 14 49  1  0  0  0  0
 14 50  1  0  0  0  0
 15 51  1  0  0  0  0
 16 52  1  0  0  0  0
 18 53  1  0  0  0  0
 19 54  1  0  0  0  0
 24 55  1  0  0  0  0
 25 56  1  0  0  0  0
 30 57  1  0  0  0  0
 31 58  1  0  0  0  0
 33 59  1  0  0  0  0
 34 60  1  0  0  0  0
 34 61  1  0  0  0  0
 34 62  1  0  0  0  0
 35 63  1  0  0  0  0
 36 64  1  0  0  0  0
 38 65  1  0  0  0  0
 39 66  1  0  0  0  0
 68 69  4  0  0  0  0
 69 70  4  0  0  0  0
 70 71  2  0  0  0  0
 71 72  4  0  0  0  0
 67 73  1  0  0  0  0
 69 73  4  0  0  0  0
 72 73  4  0  0  0  0
 72 74  4  0  0  0  0
 74 75  1  0  0  0  0
 75 76  4  0  0  0  0
 76 77  4  0  0  0  0
 77 78  4  0  0  0  0
 78 79  1  0  0  0  0
 79 80  1  0  0  0  0
 78 81  4  0  0  0  0
 75 82  4  0  0  0  0
 81 82  4  0  0  0  0
 74 83  4  0  0  0  0
 83 84  4  0  0  0  0
 84 85  2  0  0  0  0
 67 86  1  0  0  0  0
 83 86  4  0  0  0  0
 85 87  4  0  0  0  0
 86 87  4  0  0  0  0
 87 88  4  0  0  0  0
 88 89  4  0  0  0  0
 89 90  4  0  0  0  0
 90 91  2  0  0  0  0
 91 92  4  0  0  0  0
 67 93  1  0  0  0  0
 89 93  4  0  0  0  0
 92 93  4  0  0  0  0
 92 94  4  0  0  0  0
 94 95  1  0  0  0  0
 95 96  4  0  0  0  0
 96 97  4  0  0  0  0
 97 98  4  0  0  0  0
 98 99  1  0  0  0  0
 99100  1  0  0  0  0
 98101  4  0  0  0  0
 95102  4  0  0  0  0
101102  4  0  0  0  0
 94103  4  0  0  0  0
103104  4  0  0  0  0
104105  2  0  0  0  0
 68106  4  0  0  0  0
105106  4  0  0  0  0
 67107  1  0  0  0  0
103107  4  0  0  0  0
106107  4  0  0  0  0
 68108  1  0  0  0  0
 70109  1  0  0  0  0
 71110  1  0  0  0  0
 76111  1  0  0  0  0
 77112  1  0  0  0  0
 79113  1  0  0  0  0
 80114  1  0  0  0  0
 80115  1  0  0  0  0
 80116  1  0  0  0  0
 81117  1  0  0  0  0
 82118  1  0  0  0  0
 84119  1  0  0  0  0
 85120  1  0  0  0  0
 90121  1  0  0  0  0
 91122  1  0  0  0  0
 96123  1  0  0  0  0
 97124  1  0  0  0  0
 99125  1  0  0  0  0
100126  1  0  0  0  0
100127  1  0  0  0  0
100128  1  0  0  0  0
101129  1  0  0  0  0
102130  1  0  0  0  0
104131  1  0  0  0  0
105132  1  0  0  0  0
 22134  4  0  0  0  0
133134  3  0  0  0  0
133135  4  0  0  0  0
 88136  4  0  0  0  0
135136  3  0  0  0  0
M  END
