 xtb: 6.5.1 (b24c23e)
          07302205153D

118137  0     0  0            999 V2000
   15.1845   -0.0481   -0.0240 Cu  0  0  0  0  0  0  0  0  0  0  0  0
   11.7763   -0.0714   -0.1197 C   0  0  0  0  0  0  0  0  0  0  0  0
   12.4109   -1.3045   -0.1510 C   0  0  0  0  0  0  0  0  0  0  0  0
   11.7367   -2.5709   -0.1588 C   0  0  0  0  0  0  0  0  0  0  0  0
   12.6963   -3.5288   -0.1969 C   0  0  0  0  0  0  0  0  0  0  0  0
   13.9660   -2.8551   -0.2303 C   0  0  0  0  0  0  0  0  0  0  0  0
   13.7610   -1.5058   -0.1883 N   0  0  0  0  0  0  0  0  0  0  0  0
   15.2115   -3.4828   -0.3031 C   0  0  0  0  0  0  0  0  0  0  0  0
   15.2352   -4.9627   -0.4061 C   0  0  0  0  0  0  0  0  0  0  0  0
   14.6720   -5.6114   -1.4362 C   0  0  0  0  0  0  0  0  0  0  0  0
   14.6668   -7.1144   -1.5415 C   0  0  0  0  0  0  0  0  0  0  0  0
   15.6453   -7.7149   -0.6306 N   0  0  0  0  0  0  0  0  0  0  0  0
   16.0461   -7.0496    0.4996 C   0  0  0  0  0  0  0  0  0  0  0  0
   15.9049   -5.7203    0.6420 C   0  0  0  0  0  0  0  0  0  0  0  0
   16.4428   -2.8228   -0.2845 C   0  0  0  0  0  0  0  0  0  0  0  0
   17.7127   -3.4641   -0.4672 C   0  0  0  0  0  0  0  0  0  0  0  0
   18.6609   -2.4964   -0.3884 C   0  0  0  0  0  0  0  0  0  0  0  0
   16.6384   -1.4786   -0.1078 N   0  0  0  0  0  0  0  0  0  0  0  0
   17.9823   -1.2589   -0.1514 C   0  0  0  0  0  0  0  0  0  0  0  0
   18.6247   -0.0224    0.0458 C   0  0  0  0  0  0  0  0  0  0  0  0
   17.9567    1.2028    0.2290 C   0  0  0  0  0  0  0  0  0  0  0  0
   18.6057    2.4467    0.5107 C   0  0  0  0  0  0  0  0  0  0  0  0
   17.6401    3.3988    0.5650 C   0  0  0  0  0  0  0  0  0  0  0  0
   16.3891    2.7419    0.3182 C   0  0  0  0  0  0  0  0  0  0  0  0
   16.6125    1.4030    0.1331 N   0  0  0  0  0  0  0  0  0  0  0  0
   15.1486    3.3839    0.2844 C   0  0  0  0  0  0  0  0  0  0  0  0
   15.1433    4.8619    0.4132 C   0  0  0  0  0  0  0  0  0  0  0  0
   14.5149    5.4822    1.4230 C   0  0  0  0  0  0  0  0  0  0  0  0
   14.4808    6.9827    1.5555 C   0  0  0  0  0  0  0  0  0  0  0  0
   15.5027    7.6134    0.7154 N   0  0  0  0  0  0  0  0  0  0  0  0
   15.9721    6.9775   -0.4054 C   0  0  0  0  0  0  0  0  0  0  0  0
   15.8564    5.6499   -0.5826 C   0  0  0  0  0  0  0  0  0  0  0  0
   13.9181    2.7400    0.1357 C   0  0  0  0  0  0  0  0  0  0  0  0
   12.6434    3.3971    0.0348 C   0  0  0  0  0  0  0  0  0  0  0  0
   11.7009    2.4271   -0.0694 C   0  0  0  0  0  0  0  0  0  0  0  0
   12.3917    1.1697   -0.0480 C   0  0  0  0  0  0  0  0  0  0  0  0
   13.7345    1.3886    0.0693 N   0  0  0  0  0  0  0  0  0  0  0  0
   10.6916   -0.0784   -0.1515 H   0  0  0  0  0  0  0  0  0  0  0  0
   10.6658   -2.6973   -0.1260 H   0  0  0  0  0  0  0  0  0  0  0  0
   12.5632   -4.5987   -0.1924 H   0  0  0  0  0  0  0  0  0  0  0  0
   14.1746   -5.0826   -2.2409 H   0  0  0  0  0  0  0  0  0  0  0  0
   14.9220   -7.4231   -2.5644 H   0  0  0  0  0  0  0  0  0  0  0  0
   13.6559   -7.5080   -1.3250 H   0  0  0  0  0  0  0  0  0  0  0  0
   15.5650   -8.7184   -0.5513 H   0  0  0  0  0  0  0  0  0  0  0  0
   16.5606   -7.6653    1.2305 H   0  0  0  0  0  0  0  0  0  0  0  0
   16.2743   -5.2048    1.5172 H   0  0  0  0  0  0  0  0  0  0  0  0
   17.8554   -4.5171   -0.6485 H   0  0  0  0  0  0  0  0  0  0  0  0
   19.7275   -2.6041   -0.4920 H   0  0  0  0  0  0  0  0  0  0  0  0
   19.6651    2.5684    0.6625 H   0  0  0  0  0  0  0  0  0  0  0  0
   17.7589    4.4507    0.7685 H   0  0  0  0  0  0  0  0  0  0  0  0
   13.9830    4.9306    2.1894 H   0  0  0  0  0  0  0  0  0  0  0  0
   14.6707    7.2752    2.5971 H   0  0  0  0  0  0  0  0  0  0  0  0
   13.4787    7.3665    1.2865 H   0  0  0  0  0  0  0  0  0  0  0  0
   15.4149    8.6174    0.6532 H   0  0  0  0  0  0  0  0  0  0  0  0
   16.5170    7.6148   -1.0946 H   0  0  0  0  0  0  0  0  0  0  0  0
   16.2784    5.1578   -1.4474 H   0  0  0  0  0  0  0  0  0  0  0  0
   12.4960    4.4652    0.0326 H   0  0  0  0  0  0  0  0  0  0  0  0
   10.6322    2.5395   -0.1640 H   0  0  0  0  0  0  0  0  0  0  0  0
   26.1058    0.0522   -0.0132 Cu  0  0  0  0  0  0  0  0  0  0  0  0
   29.5140    0.0955   -0.1015 C   0  0  0  0  0  0  0  0  0  0  0  0
   28.8795    1.3066    0.1325 C   0  0  0  0  0  0  0  0  0  0  0  0
   29.5536    2.5452    0.3967 C   0  0  0  0  0  0  0  0  0  0  0  0
   28.5939    3.4889    0.5651 C   0  0  0  0  0  0  0  0  0  0  0  0
   27.3243    2.8381    0.3879 C   0  0  0  0  0  0  0  0  0  0  0  0
   27.5293    1.5112    0.1393 N   0  0  0  0  0  0  0  0  0  0  0  0
   26.0788    3.4667    0.4515 C   0  0  0  0  0  0  0  0  0  0  0  0
   26.0550    4.9342    0.6685 C   0  0  0  0  0  0  0  0  0  0  0  0
   26.6182    5.7889   -0.1983 C   0  0  0  0  0  0  0  0  0  0  0  0
   26.6233    7.2795    0.0214 C   0  0  0  0  0  0  0  0  0  0  0  0
   25.6448    7.6705    1.0401 N   0  0  0  0  0  0  0  0  0  0  0  0
   25.2440    6.7780    2.0010 C   0  0  0  0  0  0  0  0  0  0  0  0
   25.3853    5.4491    1.8548 C   0  0  0  0  0  0  0  0  0  0  0  0
   24.8475    2.8181    0.3280 C   0  0  0  0  0  0  0  0  0  0  0  0
   23.5775    3.4836    0.2871 C   0  0  0  0  0  0  0  0  0  0  0  0
   22.6294    2.5215    0.1563 C   0  0  0  0  0  0  0  0  0  0  0  0
   24.6520    1.4672    0.2120 N   0  0  0  0  0  0  0  0  0  0  0  0
   23.3081    1.2620    0.1223 C   0  0  0  0  0  0  0  0  0  0  0  0
   22.6657    0.0119    0.0495 C   0  0  0  0  0  0  0  0  0  0  0  0
   23.3337   -1.2240   -0.0346 C   0  0  0  0  0  0  0  0  0  0  0  0
   22.6847   -2.4994   -0.0265 C   0  0  0  0  0  0  0  0  0  0  0  0
   23.6504   -3.4409   -0.1777 C   0  0  0  0  0  0  0  0  0  0  0  0
   24.9014   -2.7464   -0.2778 C   0  0  0  0  0  0  0  0  0  0  0  0
   24.6779   -1.3989   -0.1712 N   0  0  0  0  0  0  0  0  0  0  0  0
   26.1419   -3.3660   -0.4486 C   0  0  0  0  0  0  0  0  0  0  0  0
   26.1473   -4.8373   -0.6400 C   0  0  0  0  0  0  0  0  0  0  0  0
   26.7756   -5.6599    0.2131 C   0  0  0  0  0  0  0  0  0  0  0  0
   26.8097   -7.1538    0.0205 C   0  0  0  0  0  0  0  0  0  0  0  0
   25.7880   -7.5895   -0.9354 N   0  0  0  0  0  0  0  0  0  0  0  0
   25.3185   -6.7279   -1.8937 C   0  0  0  0  0  0  0  0  0  0  0  0
   25.4342   -5.3931   -1.7818 C   0  0  0  0  0  0  0  0  0  0  0  0
   27.3724   -2.7052   -0.4555 C   0  0  0  0  0  0  0  0  0  0  0  0
   28.6471   -3.3253   -0.6951 C   0  0  0  0  0  0  0  0  0  0  0  0
   29.5895   -2.3555   -0.5886 C   0  0  0  0  0  0  0  0  0  0  0  0
   28.8987   -1.1321   -0.2980 C   0  0  0  0  0  0  0  0  0  0  0  0
   27.5559   -1.3711   -0.2303 N   0  0  0  0  0  0  0  0  0  0  0  0
   30.5988    0.1093   -0.1310 H   0  0  0  0  0  0  0  0  0  0  0  0
   30.6245    2.6616    0.4559 H   0  0  0  0  0  0  0  0  0  0  0  0
   28.7271    4.5329    0.7991 H   0  0  0  0  0  0  0  0  0  0  0  0
   27.1156    5.4452   -1.0978 H   0  0  0  0  0  0  0  0  0  0  0  0
   26.3680    7.8005   -0.9114 H   0  0  0  0  0  0  0  0  0  0  0  0
   27.6342    7.6175    0.3174 H   0  0  0  0  0  0  0  0  0  0  0  0
   25.7251    8.6335    1.3329 H   0  0  0  0  0  0  0  0  0  0  0  0
   24.7295    7.2224    2.8471 H   0  0  0  0  0  0  0  0  0  0  0  0
   25.0159    4.7578    2.5989 H   0  0  0  0  0  0  0  0  0  0  0  0
   23.4348    4.5510    0.3360 H   0  0  0  0  0  0  0  0  0  0  0  0
   21.5629    2.6489    0.0782 H   0  0  0  0  0  0  0  0  0  0  0  0
   21.6254   -2.6509    0.0956 H   0  0  0  0  0  0  0  0  0  0  0  0
   23.5317   -4.5120   -0.2048 H   0  0  0  0  0  0  0  0  0  0  0  0
   27.3075   -5.2856    1.0801 H   0  0  0  0  0  0  0  0  0  0  0  0
   26.6198   -7.6630    0.9750 H   0  0  0  0  0  0  0  0  0  0  0  0
   27.8119   -7.4710   -0.3245 H   0  0  0  0  0  0  0  0  0  0  0  0
   25.8758   -8.5568   -1.2117 H   0  0  0  0  0  0  0  0  0  0  0  0
   24.7737   -7.2024   -2.7036 H   0  0  0  0  0  0  0  0  0  0  0  0
   25.0122   -4.7269   -2.5208 H   0  0  0  0  0  0  0  0  0  0  0  0
   28.7945   -4.3680   -0.9265 H   0  0  0  0  0  0  0  0  0  0  0  0
   30.6583   -2.4450   -0.7051 H   0  0  0  0  0  0  0  0  0  0  0  0
   20.0361   -0.0106    0.0585 C   0  0  0  0  0  0  0  0  0  0  0  0
   21.2543   -0.0023    0.0594 C   0  0  0  0  0  0  0  0  0  0  0  0
  2  3  4  0  0  0  0
  3  4  4  0  0  0  0
  4  5  2  0  0  0  0
  5  6  4  0  0  0  0
  1  7  1  0  0  0  0
  3  7  4  0  0  0  0
  6  7  4  0  0  0  0
  6  8  4  0  0  0  0
  8  9  1  0  0  0  0
  9 10  2  0  0  0  0
 10 11  1  0  0  0  0
 11 12  1  0  0  0  0
 12 13  1  0  0  0  0
  9 14  1  0  0  0  0
 13 14  2  0  0  0  0
  8 15  4  0  0  0  0
 15 16  4  0  0  0  0
 16 17  2  0  0  0  0
  1 18  1  0  0  0  0
 15 18  4  0  0  0  0
 17 19  4  0  0  0  0
 18 19  4  0  0  0  0
 19 20  4  0  0  0  0
 20 21  4  0  0  0  0
 21 22  4  0  0  0  0
 22 23  2  0  0  0  0
 23 24  4  0  0  0  0
  1 25  1  0  0  0  0
 21 25  4  0  0  0  0
 24 25  4  0  0  0  0
 24 26  4  0  0  0  0
 26 27  1  0  0  0  0
 27 28  2  0  0  0  0
 28 29  1  0  0  0  0
 29 30  1  0  0  0  0
 30 31  1  0  0  0  0
 27 32  1  0  0  0  0
 31 32  2  0  0  0  0
 26 33  4  0  0  0  0
 33 34  4  0  0  0  0
 34 35  2  0  0  0  0
  2 36  4  0  0  0  0
 35 36  4  0  0  0  0
  1 37  1  0  0  0  0
 33 37  4  0  0  0  0
 36 37  4  0  0  0  0
  2 38  1  0  0  0  0
  4 39  1  0  0  0  0
  5 40  1  0  0  0  0
 10 41  1  0  0  0  0
 11 42  1  0  0  0  0
 11 43  1  0  0  0  0
 12 44  1  0  0  0  0
 13 45  1  0  0  0  0
 14 46  1  0  0  0  0
 16 47  1  0  0  0  0
 17 48  1  0  0  0  0
 22 49  1  0  0  0  0
 23 50  1  0  0  0  0
 28 51  1  0  0  0  0
 29 52  1  0  0  0  0
 29 53  1  0  0  0  0
 30 54  1  0  0  0  0
 31 55  1  0  0  0  0
 32 56  1  0  0  0  0
 34 57  1  0  0  0  0
 35 58  1  0  0  0  0
 60 61  4  0  0  0  0
 61 62  4  0  0  0  0
 62 63  2  0  0  0  0
 63 64  4  0  0  0  0
 59 65  1  0  0  0  0
 61 65  4  0  0  0  0
 64 65  4  0  0  0  0
 64 66  4  0  0  0  0
 66 67  1  0  0  0  0
 67 68  2  0  0  0  0
 68 69  1  0  0  0  0
 69 70  1  0  0  0  0
 70 71  1  0  0  0  0
 67 72  1  0  0  0  0
 71 72  2  0  0  0  0
 66 73  4  0  0  0  0
 73 74  4  0  0  0  0
 74 75  2  0  0  0  0
 59 76  1  0  0  0  0
 73 76  4  0  0  0  0
 75 77  4  0  0  0  0
 76 77  4  0  0  0  0
 77 78  4  0  0  0  0
 78 79  4  0  0  0  0
 79 80  4  0  0  0  0
 80 81  2  0  0  0  0
 81 82  4  0  0  0  0
 59 83  1  0  0  0  0
 79 83  4  0  0  0  0
 82 83  4  0  0  0  0
 82 84  4  0  0  0  0
 84 85  1  0  0  0  0
 85 86  2  0  0  0  0
 86 87  1  0  0  0  0
 87 88  1  0  0  0  0
 88 89  1  0  0  0  0
 85 90  1  0  0  0  0
 89 90  2  0  0  0  0
 84 91  4  0  0  0  0
 91 92  4  0  0  0  0
 92 93  2  0  0  0  0
 60 94  4  0  0  0  0
 93 94  4  0  0  0  0
 59 95  1  0  0  0  0
 91 95  4  0  0  0  0
 94 95  4  0  0  0  0
 60 96  1  0  0  0  0
 62 97  1  0  0  0  0
 63 98  1  0  0  0  0
 68 99  1  0  0  0  0
 69100  1  0  0  0  0
 69101  1  0  0  0  0
 70102  1  0  0  0  0
 71103  1  0  0  0  0
 72104  1  0  0  0  0
 74105  1  0  0  0  0
 75106  1  0  0  0  0
 80107  1  0  0  0  0
 81108  1  0  0  0  0
 86109  1  0  0  0  0
 87110  1  0  0  0  0
 87111  1  0  0  0  0
 88112  1  0  0  0  0
 89113  1  0  0  0  0
 90114  1  0  0  0  0
 92115  1  0  0  0  0
 93116  1  0  0  0  0
 20117  4  0  0  0  0
 78118  4  0  0  0  0
117118  3  0  0  0  0
M  END
