260

C 39.291143 0.036419 0.001879
C 40.015998 -1.017515 0.893163
C 39.400546 -2.004691 1.629248
C 40.421974 -2.708829 2.317041
C 41.627650 -2.121378 1.983593
N 41.370671 -1.117863 1.083709
C 43.055704 -2.506739 2.553861
C 43.105205 -3.454026 3.692616
C 43.354592 -4.812424 3.474274
C 43.407199 -5.703017 4.550710
C 43.252646 -5.242714 5.861202
N 43.213988 -6.153933 6.931270
C 42.929060 -3.898181 6.070060
C 42.877689 -3.003863 4.996535
C 44.184354 -1.949718 2.036222
C 45.493649 -2.230098 2.588964
C 46.395175 -1.533740 1.906805
N 44.377392 -1.072093 1.000853
C 45.711558 -0.782201 0.872643
C 46.381463 0.022759 0.004806
C 45.606931 0.802791 -1.141735
C 46.161312 1.295953 -2.306603
C 45.136257 1.963400 -3.020766
C 43.979558 1.847449 -2.280652
N 44.265794 1.101927 -1.160662
C 42.562509 2.450294 -2.660315
C 42.512727 3.532056 -3.668617
C 42.292911 3.232147 -5.016712
C 42.243839 4.254616 -5.968558
C 42.366977 5.591743 -5.581209
N 42.406780 6.607887 -6.552143
C 42.656965 5.882628 -4.244382
C 42.708792 4.862636 -3.289041
C 41.440340 1.975323 -2.059671
C 40.115070 2.487783 -2.360527
C 39.231492 1.817030 -1.627744
C 39.956718 0.857798 -0.831580
N 41.279178 0.998212 -1.116803
H 38.212141 0.102096 0.071143
H 38.337885 -2.188843 1.676465
H 40.289954 -3.537763 2.997227
H 42.074440 -0.539979 0.630751
H 43.502419 -5.165552 2.457017
H 43.580891 -6.754905 4.349042
H 43.442462 -5.711494 7.815823
H 43.779687 -6.977452 6.751603
H 42.722900 -3.524981 7.067998
H 42.653190 -1.952252 5.162774
H 45.709711 -2.878373 3.419035
H 47.451374 -1.547036 2.103080
H 47.192774 1.199817 -2.608455
H 45.232636 2.473894 -3.967009
H 43.577072 0.785211 -0.483131
H 42.167377 2.193646 -5.313585
H 42.099542 3.989996 -7.010509
H 41.859573 6.371325 -7.372535
H 42.156042 7.511886 -6.166051
H 42.836605 6.904305 -3.925665
H 42.906894 5.092158 -2.244242
H 39.883432 3.274232 -3.055836
H 38.166474 1.960513 -1.623509
C 95.831905 0.023039 0.018774
C 95.107050 0.649216 -1.211293
C 95.722501 1.139613 -2.340828
C 94.701074 1.647833 -3.183789
C 93.495398 1.457809 -2.535578
N 93.752377 0.811711 -1.352620
C 92.067344 1.924646 -3.041316
C 92.017842 2.816144 -4.224257
C 91.768456 2.292458 -5.496528
C 91.715849 3.136280 -6.610006
C 91.870402 4.517364 -6.462117
N 91.909060 5.350263 -7.594215
C 92.193988 5.028643 -5.201171
C 92.245359 4.188508 -4.084733
C 90.938694 1.548359 -2.380537
C 89.629399 2.022182 -2.780071
C 88.727872 1.517665 -1.945974
N 90.745656 0.741542 -1.289088
C 89.411490 0.683141 -0.977536
C 88.741584 0.022759 0.004806
C 89.516117 -0.914629 1.026722
C 88.961736 -1.935564 1.773592
C 89.986791 -2.477858 2.586877
C 91.143490 -1.783980 2.304482
N 90.857254 -0.864533 1.322240
C 92.560539 -2.015464 2.978263
C 92.610320 -2.749174 4.262222
C 92.830136 -4.130124 4.279076
C 92.879209 -4.822461 5.492387
C 92.756071 -4.139134 6.705239
N 92.716267 -4.851500 7.916765
C 92.466083 -2.771220 6.682182
C 92.414256 -2.074913 5.470482
C 93.682708 -1.539584 2.378339
C 95.007977 -1.715059 2.946087
C 95.891556 -1.155398 2.125319
C 95.166330 -0.600120 1.009223
N 93.843870 -0.845597 1.211236
H 96.910907 0.105505 0.066839
H 96.785163 1.143393 -2.530899
H 94.833093 2.120063 -4.146485
H 93.048608 0.503163 -0.686346
H 91.620629 1.221360 -5.607258
H 91.542157 2.699032 -7.587735
H 91.680586 6.312642 -7.366151
H 91.343360 4.986741 -8.354685
H 92.400148 6.085533 -5.066477
H 92.469858 4.591205 -3.099159
H 89.413337 2.681694 -3.601243
H 87.671673 1.705676 -2.003875
H 87.930274 -2.251412 1.749153
H 89.890412 -3.282012 3.300541
H 91.545976 -0.277561 0.858752
H 92.955671 -4.656979 3.336186
H 93.023506 -5.897323 5.473467
H 93.263474 -5.704267 7.874408
H 92.967006 -4.268607 8.708293
H 92.286443 -2.226955 7.603692
H 92.216154 -1.005319 5.454584
H 95.239615 -2.211742 3.870891
H 96.956574 -1.118411 2.264017
C 52.460502 0.023861 0.013296
C 51.251563 0.010406 0.004849
C 49.830034 0.019225 -0.007134
C 48.618364 0.026664 0.003729
C 53.877106 0.017186 0.013829
C 55.097802 0.026664 0.003729
C 68.165368 0.023861 0.013296
C 66.956428 0.010406 0.004849
C 65.534900 0.019225 -0.007134
C 64.323230 0.026664 0.003729
C 69.581972 0.017186 0.013829
C 70.802668 0.026664 0.003729
C 83.870233 0.023861 0.013296
C 82.661294 0.010406 0.004849
C 81.239765 0.019225 -0.007134
C 80.028096 0.026664 0.003729
C 85.286838 0.017186 0.013829
C 86.507534 0.026664 0.003729
C 56.132857 -0.027138 -0.005445
C 56.925502 -0.613296 1.235185
C 56.417009 -1.423729 2.230016
C 57.453623 -1.636242 3.174589
C 58.564643 -0.955366 2.723120
N 58.254795 -0.400216 1.506763
C 59.954368 -0.824202 3.470901
C 59.948509 -0.916855 4.949577
C 60.408077 -2.070734 5.593347
C 60.399400 -2.152815 6.989081
C 59.969787 -1.070167 7.761582
N 59.876277 -1.191136 9.158920
C 59.440300 0.050476 7.115272
C 59.448559 0.137200 5.719565
C 61.089095 -0.586909 2.760886
C 62.376067 -0.397710 3.398252
C 63.283743 -0.178765 2.453087
N 61.297060 -0.458855 1.415223
C 62.621435 -0.217006 1.164799
C 63.285541 -0.027138 -0.005445
C 62.492883 -0.076780 -1.376641
C 63.001189 -0.429927 -2.610321
C 61.964594 -0.252746 -3.562183
C 60.853771 0.195602 -2.878919
N 61.163722 0.226583 -1.542258
C 59.464076 0.610995 -3.514372
C 59.469758 1.108314 -4.909958
C 59.967381 2.381383 -5.202327
C 59.975241 2.851394 -6.519377
C 59.447710 2.074834 -7.555046
N 59.540977 2.514128 -8.887059
C 59.020450 0.774626 -7.271549
C 59.012091 0.300385 -5.956307
C 58.329374 0.549246 -2.768283
C 57.042383 0.974156 -3.279577
C 56.134684 0.802732 -2.324673
C 56.796995 0.259879 -1.155706
N 58.121423 0.136590 -1.481070
H 55.407545 -1.801868 2.285073
H 57.391296 -2.203404 4.091313
H 58.916778 0.058112 0.887228
H 60.768618 -2.903406 4.993380
H 60.740967 -3.068811 7.459493
H 60.568702 -1.830913 9.533409
H 59.890706 -0.288073 9.621030
H 59.022866 0.873904 7.685299
H 59.059385 1.021572 5.220061
H 62.571507 -0.418028 4.455397
H 64.327982 -0.001026 2.634136
H 64.010523 -0.756228 -2.809926
H 62.026774 -0.412981 -4.628194
H 60.501825 0.403999 -0.792238
H 60.354976 2.998288 -4.394685
H 60.390835 3.833575 -6.718880
H 58.849867 2.071946 -9.483630
H 59.524341 3.526165 -8.956231
H 58.680452 0.117271 -8.064828
H 58.653305 -0.701932 -5.732895
H 56.846969 1.372038 -4.259215
H 55.090412 1.037222 -2.421109
C 71.837723 -0.027138 -0.005445
C 72.630368 -0.613296 1.235185
C 72.121875 -1.423729 2.230016
C 73.158489 -1.636242 3.174589
C 74.269508 -0.955366 2.723120
N 73.959661 -0.400216 1.506763
C 75.659234 -0.824202 3.470901
C 75.653375 -0.916855 4.949577
C 76.112943 -2.070734 5.593347
C 76.104266 -2.152815 6.989081
C 75.674652 -1.070167 7.761582
N 75.581143 -1.191136 9.158920
C 75.145166 0.050476 7.115272
C 75.153425 0.137200 5.719565
C 76.793961 -0.586909 2.760886
C 78.080933 -0.397710 3.398252
C 78.988608 -0.178765 2.453087
N 77.001926 -0.458855 1.415223
C 78.326301 -0.217006 1.164799
C 78.990407 -0.027138 -0.005445
C 78.197749 -0.076780 -1.376641
C 78.706055 -0.429927 -2.610321
C 77.669460 -0.252746 -3.562183
C 76.558636 0.195602 -2.878919
N 76.868588 0.226583 -1.542258
C 75.168942 0.610995 -3.514372
C 75.174623 1.108314 -4.909958
C 75.672247 2.381383 -5.202327
C 75.680107 2.851394 -6.519377
C 75.152576 2.074834 -7.555046
N 75.245843 2.514128 -8.887059
C 74.725316 0.774626 -7.271549
C 74.716957 0.300385 -5.956307
C 74.034239 0.549246 -2.768283
C 72.747249 0.974156 -3.279577
C 71.839550 0.802732 -2.324673
C 72.501861 0.259879 -1.155706
N 73.826289 0.136590 -1.481070
H 71.112411 -1.801868 2.285073
H 73.096162 -2.203404 4.091313
H 74.621644 0.058112 0.887228
H 76.473483 -2.903406 4.993380
H 76.445832 -3.068811 7.459493
H 76.273567 -1.830913 9.533409
H 75.595572 -0.288073 9.621030
H 74.727732 0.873904 7.685299
H 74.764251 1.021572 5.220061
H 78.276373 -0.418028 4.455397
H 80.032848 -0.001026 2.634136
H 79.715389 -0.756228 -2.809926
H 77.731639 -0.412981 -4.628194
H 76.206691 0.403999 -0.792238
H 76.059841 2.998288 -4.394685
H 76.095701 3.833575 -6.718880
H 74.554733 2.071946 -9.483630
H 75.229207 3.526165 -8.956231
H 74.385317 0.117271 -8.064828
H 74.358170 -0.701932 -5.732895
H 72.551835 1.372038 -4.259215
H 70.795278 1.037222 -2.421109
