456

C 79.345310 -0.032622 0.089343
C 80.073529 1.343342 0.168096
C 79.466221 2.565002 0.346464
C 80.488841 3.547836 0.299392
C 81.686311 2.892080 0.084316
N 81.425566 1.544813 0.052951
C 83.109152 3.560882 -0.118634
C 83.148549 5.026857 -0.322364
C 83.452898 5.878166 0.746897
C 83.481831 7.261870 0.559871
C 83.205331 7.801695 -0.700783
C 83.236124 9.221450 -0.896672
N 83.259849 10.370934 -1.060960
C 82.898635 6.954287 -1.771256
C 82.870410 5.570315 -1.580570
C 84.239425 2.804397 -0.142117
C 85.542518 3.385292 -0.394204
C 86.445945 2.412673 -0.378045
N 84.437542 1.458901 0.025663
C 85.769504 1.159951 -0.103553
C 86.440870 -0.019701 -0.018231
C 85.667724 -1.367698 0.308692
C 86.221423 -2.519123 0.835896
C 85.194109 -3.492280 0.908508
C 84.040416 -2.906190 0.432946
N 84.325859 -1.597606 0.126473
C 82.627335 -3.609038 0.278428
C 82.594955 -5.084815 0.191686
C 82.252596 -5.855426 1.309969
C 82.231196 -7.248601 1.224614
C 82.556471 -7.879970 0.018972
C 82.532806 -9.310271 -0.071246
N 82.514612 -10.469261 -0.144965
C 82.903125 -7.113389 -1.099661
C 82.921473 -5.720353 -1.011469
C 81.499990 -2.856537 0.194070
C 80.176593 -3.435173 0.038581
C 79.289264 -2.444992 0.001170
C 80.011563 -1.202234 0.114377
N 81.333960 -1.499952 0.223844
H 78.266463 -0.031177 -0.011676
H 78.408261 2.730930 0.479515
H 80.360566 4.615954 0.388247
H 82.124966 0.812202 -0.037471
H 83.671416 5.444339 1.721474
H 83.721649 7.903887 1.402993
H 82.682905 7.354420 -2.757596
H 82.635020 4.901149 -2.404994
H 85.755449 4.422859 -0.579895
H 87.498469 2.555249 -0.541904
H 87.254535 -2.653203 1.118696
H 85.292375 -4.509832 1.250729
H 83.637954 -0.902003 -0.153077
H 81.998123 -5.351690 2.240282
H 81.959811 -7.827465 2.103145
H 83.161338 -7.584607 -2.044463
H 83.185091 -5.111981 -1.875808
H 79.945057 -4.482029 -0.034292
H 78.223976 -2.544889 -0.106052
C 195.567063 0.022584 0.081525
C 194.838844 -1.277396 0.539271
C 195.446152 -2.401478 1.049867
C 194.423532 -3.358729 1.277569
C 193.226062 -2.788488 0.888855
N 193.486807 -1.502918 0.484601
C 191.803221 -3.487344 0.879606
C 191.763824 -4.952237 1.090976
C 191.459475 -5.473142 2.354584
C 191.430542 -6.854361 2.559153
C 191.707042 -7.723026 1.497983
C 191.676248 -9.141339 1.704050
N 191.652523 -10.291236 1.865424
C 192.013738 -7.206205 0.234295
C 192.041962 -5.823712 0.033167
C 190.672948 -2.767132 0.646978
C 189.369855 -3.395182 0.566115
C 188.466428 -2.456329 0.311552
N 190.474830 -1.427963 0.434530
C 189.142869 -1.176652 0.227381
C 188.471503 -0.019701 -0.018231
C 189.244649 1.366063 -0.078490
C 188.690949 2.618603 0.108240
C 189.718263 3.573650 -0.092240
C 190.871957 2.878552 -0.386347
N 190.586514 1.536328 -0.317386
C 192.285037 3.510849 -0.729962
C 192.317418 4.904498 -1.223101
C 192.659777 5.955337 -0.362790
C 192.681177 7.270018 -0.831658
C 192.355902 7.541760 -2.165208
C 192.379566 8.890756 -2.649058
N 192.397760 9.983692 -3.041718
C 192.009248 6.494696 -3.026974
C 191.990900 5.180936 -2.555419
C 193.412383 2.764518 -0.602040
C 194.735780 3.277219 -0.912095
C 195.623109 2.315592 -0.673072
C 194.900809 1.153147 -0.219216
N 193.578413 1.469554 -0.196728
H 196.645909 -0.006856 -0.015120
H 196.504112 -2.523934 1.223762
H 194.551807 -4.360165 1.659535
H 192.787407 -0.824229 0.194297
H 191.240957 -4.785746 3.170361
H 191.190724 -7.237002 3.547398
H 192.229468 -7.864497 -0.602140
H 192.277353 -5.409798 -0.944654
H 189.156924 -4.443508 0.675849
H 187.413903 -2.638799 0.193729
H 187.657838 2.825941 0.342685
H 189.619998 4.646214 -0.046042
H 191.274419 0.790455 -0.392780
H 192.914249 5.729751 0.670817
H 192.952562 8.070074 -0.148424
H 191.751035 6.685019 -4.065470
H 191.727282 4.356472 -3.216825
H 194.967315 4.262667 -1.272804
H 196.688396 2.381786 -0.803817
C 88.584082 -0.005011 -0.007956
C 90.042308 -0.026848 -0.025829
C 91.176236 -0.047601 -0.027320
C 92.537618 -0.060191 -0.029511
C 93.811837 -0.049885 -0.034276
C 95.000299 -0.031086 -0.040432
C 96.352660 -0.006302 -0.024564
C 97.452927 -0.005011 -0.007956
C 106.334347 -0.005011 -0.007956
C 107.792573 -0.026848 -0.025829
C 108.926501 -0.047601 -0.027320
C 110.287883 -0.060191 -0.029511
C 111.562102 -0.049885 -0.034276
C 112.750564 -0.031086 -0.040432
C 114.102925 -0.006302 -0.024564
C 115.203193 -0.005011 -0.007956
C 124.084613 -0.005011 -0.007956
C 125.542839 -0.026848 -0.025829
C 126.676767 -0.047601 -0.027320
C 128.038149 -0.060191 -0.029511
C 129.312368 -0.049885 -0.034276
C 130.500830 -0.031086 -0.040432
C 131.853191 -0.006302 -0.024564
C 132.953458 -0.005011 -0.007956
C 141.834878 -0.005011 -0.007956
C 143.293104 -0.026848 -0.025829
C 144.427032 -0.047601 -0.027320
C 145.788414 -0.060191 -0.029511
C 147.062633 -0.049885 -0.034276
C 148.251095 -0.031086 -0.040432
C 149.603456 -0.006302 -0.024564
C 150.703723 -0.005011 -0.007956
C 159.585143 -0.005011 -0.007956
C 161.043370 -0.026848 -0.025829
C 162.177298 -0.047601 -0.027320
C 163.538680 -0.060191 -0.029511
C 164.812898 -0.049885 -0.034276
C 166.001361 -0.031086 -0.040432
C 167.353722 -0.006302 -0.024564
C 168.453989 -0.005011 -0.007956
C 177.335409 -0.005011 -0.007956
C 178.793635 -0.026848 -0.025829
C 179.927563 -0.047601 -0.027320
C 181.288945 -0.060191 -0.029511
C 182.563164 -0.049885 -0.034276
C 183.751626 -0.031086 -0.040432
C 185.103987 -0.006302 -0.024564
C 186.204254 -0.005011 -0.007956
C 98.376608 0.008846 0.008735
C 99.171842 1.160577 -0.733002
C 98.670676 2.380944 -1.137762
C 99.709238 3.056670 -1.828480
C 100.813016 2.229814 -1.818456
N 100.498612 1.114383 -1.083698
C 102.199846 2.503544 -2.529702
C 102.187713 3.348928 -3.744067
C 101.711051 2.830093 -4.953503
C 101.684431 3.626777 -6.100343
C 102.133655 4.950932 -6.041862
C 102.107578 5.770018 -7.217835
N 102.086289 6.435999 -8.169867
C 102.607761 5.475442 -4.834022
C 102.632126 4.676049 -3.689282
C 103.336222 1.931285 -2.053362
C 104.621643 2.102464 -2.698986
C 105.530724 1.422404 -2.008732
N 103.546061 1.120263 -0.973406
C 104.870237 0.782707 -0.889034
C 105.534562 0.008846 0.008735
C 104.739345 -0.664586 1.201703
C 105.240597 -0.997809 2.443472
C 104.202042 -1.648013 3.158270
C 103.098161 -1.685840 2.332359
N 103.412511 -1.017143 1.176103
C 101.711336 -2.379968 2.647051
C 101.723655 -3.543413 3.561260
C 102.201958 -4.780325 3.113584
C 102.228787 -5.879246 3.975140
C 101.778152 -5.744881 5.293273
C 101.804392 -6.871649 6.178822
N 101.825756 -7.783771 6.898471
C 101.302456 -4.509222 5.746742
C 101.277914 -3.412531 4.882594
C 100.574929 -1.937686 2.048126
C 99.289559 -2.572425 2.256383
C 98.380468 -1.922942 1.537300
C 99.040904 -0.842241 0.833678
N 100.365038 -0.906638 1.175781
H 97.665083 2.738057 -0.974587
H 99.651340 4.027353 -2.297180
H 101.156149 0.391942 -0.804848
H 101.363622 1.798961 -4.987567
H 101.311746 3.202285 -7.028839
H 102.961222 6.501086 -4.769568
H 103.000476 5.071414 -2.744180
H 104.817409 2.671575 -3.589826
H 106.574820 1.364928 -2.257168
H 106.246240 -0.814323 2.790394
H 104.259983 -2.059612 4.154520
H 102.754899 -0.780502 0.438856
H 102.550518 -4.873517 2.086491
H 102.602743 -6.830336 3.605299
H 100.947884 -4.386030 6.766616
H 100.908367 -2.446523 5.222414
H 99.093841 -3.428773 2.876194
H 97.336417 -2.174465 1.494196
C 116.126873 0.008846 0.008735
C 116.922107 1.160577 -0.733002
C 116.420942 2.380944 -1.137762
C 117.459503 3.056670 -1.828480
C 118.563282 2.229814 -1.818456
N 118.248878 1.114383 -1.083698
C 119.950111 2.503544 -2.529702
C 119.937978 3.348928 -3.744067
C 119.461317 2.830093 -4.953503
C 119.434696 3.626777 -6.100343
C 119.883920 4.950932 -6.041862
C 119.857843 5.770018 -7.217835
N 119.836554 6.435999 -8.169867
C 120.358026 5.475442 -4.834022
C 120.382391 4.676049 -3.689282
C 121.086488 1.931285 -2.053362
C 122.371908 2.102464 -2.698986
C 123.280989 1.422404 -2.008732
N 121.296326 1.120263 -0.973406
C 122.620502 0.782707 -0.889034
C 123.284828 0.008846 0.008735
C 122.489611 -0.664586 1.201703
C 122.990863 -0.997809 2.443472
C 121.952307 -1.648013 3.158270
C 120.848426 -1.685840 2.332359
N 121.162777 -1.017143 1.176103
C 119.461601 -2.379968 2.647051
C 119.473920 -3.543413 3.561260
C 119.952224 -4.780325 3.113584
C 119.979053 -5.879246 3.975140
C 119.528417 -5.744881 5.293273
C 119.554657 -6.871649 6.178822
N 119.576021 -7.783771 6.898471
C 119.052722 -4.509222 5.746742
C 119.028179 -3.412531 4.882594
C 118.325194 -1.937686 2.048126
C 117.039824 -2.572425 2.256383
C 116.130734 -1.922942 1.537300
C 116.791170 -0.842241 0.833678
N 118.115303 -0.906638 1.175781
H 115.415348 2.738057 -0.974587
H 117.401606 4.027353 -2.297180
H 118.906414 0.391942 -0.804848
H 119.113887 1.798961 -4.987567
H 119.062011 3.202285 -7.028839
H 120.711487 6.501086 -4.769568
H 120.750742 5.071414 -2.744180
H 122.567674 2.671575 -3.589826
H 124.325086 1.364928 -2.257168
H 123.996505 -0.814323 2.790394
H 122.010248 -2.059612 4.154520
H 120.505164 -0.780502 0.438856
H 120.300783 -4.873517 2.086491
H 120.353009 -6.830336 3.605299
H 118.698149 -4.386030 6.766616
H 118.658632 -2.446523 5.222414
H 116.844106 -3.428773 2.876194
H 115.086682 -2.174465 1.494196
C 133.877139 0.008846 0.008735
C 134.672372 1.160577 -0.733002
C 134.171207 2.380944 -1.137762
C 135.209769 3.056670 -1.828480
C 136.313547 2.229814 -1.818456
N 135.999143 1.114383 -1.083698
C 137.700377 2.503544 -2.529702
C 137.688244 3.348928 -3.744067
C 137.211582 2.830093 -4.953503
C 137.184962 3.626777 -6.100343
C 137.634186 4.950932 -6.041862
C 137.608109 5.770018 -7.217835
N 137.586820 6.435999 -8.169867
C 138.108292 5.475442 -4.834022
C 138.132657 4.676049 -3.689282
C 138.836753 1.931285 -2.053362
C 140.122173 2.102464 -2.698986
C 141.031255 1.422404 -2.008732
N 139.046592 1.120263 -0.973406
C 140.370768 0.782707 -0.889034
C 141.035093 0.008846 0.008735
C 140.239876 -0.664586 1.201703
C 140.741128 -0.997809 2.443472
C 139.702573 -1.648013 3.158270
C 138.598692 -1.685840 2.332359
N 138.913042 -1.017143 1.176103
C 137.211867 -2.379968 2.647051
C 137.224186 -3.543413 3.561260
C 137.702489 -4.780325 3.113584
C 137.729318 -5.879246 3.975140
C 137.278683 -5.744881 5.293273
C 137.304923 -6.871649 6.178822
N 137.326287 -7.783771 6.898471
C 136.802987 -4.509222 5.746742
C 136.778445 -3.412531 4.882594
C 136.075460 -1.937686 2.048126
C 134.790090 -2.572425 2.256383
C 133.880999 -1.922942 1.537300
C 134.541435 -0.842241 0.833678
N 135.865569 -0.906638 1.175781
H 133.165614 2.738057 -0.974587
H 135.151871 4.027353 -2.297180
H 136.656680 0.391942 -0.804848
H 136.864153 1.798961 -4.987567
H 136.812277 3.202285 -7.028839
H 138.461753 6.501086 -4.769568
H 138.501007 5.071414 -2.744180
H 140.317940 2.671575 -3.589826
H 142.075351 1.364928 -2.257168
H 141.746770 -0.814323 2.790394
H 139.760514 -2.059612 4.154520
H 138.255430 -0.780502 0.438856
H 138.051049 -4.873517 2.086491
H 138.103274 -6.830336 3.605299
H 136.448415 -4.386030 6.766616
H 136.408898 -2.446523 5.222414
H 134.594371 -3.428773 2.876194
H 132.836948 -2.174465 1.494196
C 151.627404 0.008846 0.008735
C 152.422638 1.160577 -0.733002
C 151.921472 2.380944 -1.137762
C 152.960034 3.056670 -1.828480
C 154.063813 2.229814 -1.818456
N 153.749409 1.114383 -1.083698
C 155.450642 2.503544 -2.529702
C 155.438509 3.348928 -3.744067
C 154.961848 2.830093 -4.953503
C 154.935227 3.626777 -6.100343
C 155.384451 4.950932 -6.041862
C 155.358374 5.770018 -7.217835
N 155.337085 6.435999 -8.169867
C 155.858557 5.475442 -4.834022
C 155.882922 4.676049 -3.689282
C 156.587019 1.931285 -2.053362
C 157.872439 2.102464 -2.698986
C 158.781520 1.422404 -2.008732
N 156.796857 1.120263 -0.973406
C 158.121033 0.782707 -0.889034
C 158.785359 0.008846 0.008735
C 157.990142 -0.664586 1.201703
C 158.491393 -0.997809 2.443472
C 157.452838 -1.648013 3.158270
C 156.348957 -1.685840 2.332359
N 156.663308 -1.017143 1.176103
C 154.962132 -2.379968 2.647051
C 154.974451 -3.543413 3.561260
C 155.452754 -4.780325 3.113584
C 155.479584 -5.879246 3.975140
C 155.028948 -5.744881 5.293273
C 155.055188 -6.871649 6.178822
N 155.076552 -7.783771 6.898471
C 154.553253 -4.509222 5.746742
C 154.528710 -3.412531 4.882594
C 153.825725 -1.937686 2.048126
C 152.540355 -2.572425 2.256383
C 151.631265 -1.922942 1.537300
C 152.291701 -0.842241 0.833678
N 153.615834 -0.906638 1.175781
H 150.915879 2.738057 -0.974587
H 152.902137 4.027353 -2.297180
H 154.406945 0.391942 -0.804848
H 154.614418 1.798961 -4.987567
H 154.562542 3.202285 -7.028839
H 156.212018 6.501086 -4.769568
H 156.251273 5.071414 -2.744180
H 158.068205 2.671575 -3.589826
H 159.825617 1.364928 -2.257168
H 159.497036 -0.814323 2.790394
H 157.510779 -2.059612 4.154520
H 156.005695 -0.780502 0.438856
H 155.801314 -4.873517 2.086491
H 155.853540 -6.830336 3.605299
H 154.198680 -4.386030 6.766616
H 154.159163 -2.446523 5.222414
H 152.344637 -3.428773 2.876194
H 150.587213 -2.174465 1.494196
C 169.377669 0.008846 0.008735
C 170.172903 1.160577 -0.733002
C 169.671738 2.380944 -1.137762
C 170.710300 3.056670 -1.828480
C 171.814078 2.229814 -1.818456
N 171.499674 1.114383 -1.083698
C 173.200907 2.503544 -2.529702
C 173.188775 3.348928 -3.744067
C 172.712113 2.830093 -4.953503
C 172.685493 3.626777 -6.100343
C 173.134717 4.950932 -6.041862
C 173.108640 5.770018 -7.217835
N 173.087351 6.435999 -8.169867
C 173.608823 5.475442 -4.834022
C 173.633188 4.676049 -3.689282
C 174.337284 1.931285 -2.053362
C 175.622704 2.102464 -2.698986
C 176.531786 1.422404 -2.008732
N 174.547123 1.120263 -0.973406
C 175.871299 0.782707 -0.889034
C 176.535624 0.008846 0.008735
C 175.740407 -0.664586 1.201703
C 176.241659 -0.997809 2.443472
C 175.203104 -1.648013 3.158270
C 174.099223 -1.685840 2.332359
N 174.413573 -1.017143 1.176103
C 172.712398 -2.379968 2.647051
C 172.724717 -3.543413 3.561260
C 173.203020 -4.780325 3.113584
C 173.229849 -5.879246 3.975140
C 172.779214 -5.744881 5.293273
C 172.805453 -6.871649 6.178822
N 172.826817 -7.783771 6.898471
C 172.303518 -4.509222 5.746742
C 172.278975 -3.412531 4.882594
C 171.575991 -1.937686 2.048126
C 170.290621 -2.572425 2.256383
C 169.381530 -1.922942 1.537300
C 170.041966 -0.842241 0.833678
N 171.366099 -0.906638 1.175781
H 168.666145 2.738057 -0.974587
H 170.652402 4.027353 -2.297180
H 172.157211 0.391942 -0.804848
H 172.364684 1.798961 -4.987567
H 172.312808 3.202285 -7.028839
H 173.962284 6.501086 -4.769568
H 174.001538 5.071414 -2.744180
H 175.818471 2.671575 -3.589826
H 177.575882 1.364928 -2.257168
H 177.247301 -0.814323 2.790394
H 175.261045 -2.059612 4.154520
H 173.755960 -0.780502 0.438856
H 173.551580 -4.873517 2.086491
H 173.603805 -6.830336 3.605299
H 171.948945 -4.386030 6.766616
H 171.909429 -2.446523 5.222414
H 170.094902 -3.428773 2.876194
H 168.337478 -2.174465 1.494196
