201

Fe 27.268442 -0.047641 -0.018387
C 23.935303 0.103371 0.088023
C 24.602115 1.260316 0.066623
C 23.953744 2.565935 0.065419
C 24.897384 3.488005 0.057458
C 26.202531 2.812955 0.055390
N 26.022549 1.396730 0.060425
C 27.396481 3.437847 0.085307
C 27.434005 4.916550 0.092822
C 27.224666 5.631825 -1.094152
C 27.246320 7.030164 -1.091215
O 27.032043 7.711342 -2.289603
C 27.479384 7.725823 0.108937
O 27.495012 9.121356 0.104871
C 27.693159 7.009809 1.301029
O 27.926005 7.692507 2.493670
C 27.670683 5.608579 1.287636
C 28.694688 2.713742 0.123662
C 29.993962 3.383268 0.255086
C 30.928287 2.456098 0.240432
N 28.829312 1.425967 0.023077
C 30.235183 1.182196 0.088904
C 30.830392 -0.018512 -0.019492
C 30.077432 -1.284043 -0.199643
C 30.642722 -2.445985 -0.504771
C 29.595226 -3.445045 -0.534969
C 28.453536 -2.830877 -0.248912
N 28.667287 -1.434160 -0.022623
C 27.144426 -3.524592 -0.130443
C 27.125610 -5.003373 -0.149049
C 27.272240 -5.721375 1.044359
C 27.250956 -7.119837 1.035501
O 27.392684 -7.805121 2.242233
C 27.087629 -7.811803 -0.178483
O 27.070798 -9.207237 -0.179500
C 26.945725 -7.092022 -1.379028
O 26.788285 -7.771426 -2.586237
C 26.963897 -5.690710 -1.359014
C 25.981752 -2.859416 -0.008349
C 24.657822 -3.467587 0.110366
C 23.798811 -2.468944 0.162101
C 24.564922 -1.226313 0.082108
N 25.839655 -1.441065 -0.018336
H 22.852419 0.136155 0.112643
H 22.889117 2.761695 0.074532
H 24.713704 4.554655 0.064016
H 27.040934 5.101503 -2.020844
H 27.037017 8.722781 -2.342578
H 27.645386 9.661611 0.947878
H 28.082318 7.200182 3.365591
H 27.833409 5.057980 2.206295
H 30.177528 4.445827 0.345000
H 31.992076 2.639274 0.315187
H 31.692374 -2.630893 -0.686744
H 29.730119 -4.499810 -0.737912
H 27.399415 -5.193620 1.981808
H 27.374368 -8.816188 2.292600
H 26.956905 -9.745355 -1.029927
H 26.688446 -7.277126 -3.465655
H 26.853558 -5.137227 -2.284058
H 24.405930 -4.519746 0.144860
H 22.723813 -2.566747 0.245546
Fe 66.190401 0.010304 -0.015092
C 69.523541 -0.151796 0.073515
C 68.856729 -1.298860 -0.078881
C 69.505100 -2.595928 -0.228064
C 68.561459 -3.511154 -0.340486
C 67.256313 -2.840220 -0.266027
N 67.436295 -1.433692 -0.100501
C 66.062363 -3.464475 -0.307131
C 66.024838 -4.934501 -0.467269
C 66.234178 -5.510628 -1.727667
C 66.212524 -6.900289 -1.883244
O 66.426800 -7.441245 -3.151118
C 65.979459 -7.727496 -0.769677
O 65.963831 -9.113575 -0.931894
C 65.765684 -7.151216 0.495890
O 65.532839 -7.964695 1.603464
C 65.788161 -5.757497 0.641406
C 64.764155 -2.749384 -0.186949
C 63.464882 -3.429492 -0.132260
C 62.530556 -2.506636 -0.041729
N 64.629532 -1.458508 -0.140923
C 63.223661 -1.223769 -0.047890
C 62.628452 -0.018512 -0.019492
C 63.381411 1.259283 -0.055040
C 62.816122 2.448321 -0.226501
C 63.863618 3.444366 -0.143265
C 65.005307 2.801733 0.071335
N 64.791556 1.388367 0.137854
C 66.314418 3.477549 0.267670
C 66.333234 4.948909 0.416797
C 66.186604 5.527017 1.683897
C 66.207888 6.917470 1.833606
O 66.066159 7.461561 3.110235
C 66.371215 7.742577 0.705876
O 66.388045 9.129134 0.863033
C 66.513119 7.163511 -0.568516
O 66.670559 7.975368 -1.690938
C 66.494946 5.768961 -0.707463
C 67.477092 2.802821 0.313583
C 68.801022 3.393617 0.500467
C 69.660032 2.395546 0.438677
C 68.893922 1.169989 0.218352
N 67.619189 1.394743 0.142896
H 70.606424 -0.187160 0.094261
H 70.569727 -2.791459 -0.241198
H 68.745140 -4.571673 -0.454871
H 66.417909 -4.878687 -2.588277
H 66.421827 -8.440162 -3.318393
H 65.813457 -9.745900 -0.155555
H 65.376526 -7.574371 2.525569
H 65.625435 -5.314572 1.616554
H 63.281315 -4.495395 -0.163362
H 61.466768 -2.697105 0.011782
H 61.766470 2.652664 -0.386342
H 63.728724 4.515337 -0.225347
H 66.059429 4.896407 2.555486
H 66.084476 8.460403 3.274878
H 66.501938 9.760175 0.079079
H 66.770397 7.583932 -2.620715
H 66.605286 5.323895 -1.689281
H 69.052914 4.435086 0.653995
H 70.735031 2.483260 0.532670
C 33.181404 -0.003822 -0.009217
C 34.639630 -0.025658 -0.027090
C 35.773558 -0.046412 -0.028581
C 37.134940 -0.059002 -0.030772
C 38.409159 -0.048695 -0.035537
C 39.597621 -0.029897 -0.041693
C 40.949982 -0.005113 -0.025825
C 42.050249 -0.003822 -0.009217
C 51.284558 -0.003822 -0.009217
C 52.742784 -0.025658 -0.027090
C 53.876712 -0.046412 -0.028581
C 55.238094 -0.059002 -0.030772
C 56.512313 -0.048695 -0.035537
C 57.700775 -0.029897 -0.041693
C 59.053136 -0.005113 -0.025825
C 60.153403 -0.003822 -0.009217
Fe 46.688016 -0.046239 -0.054686
C 43.278385 0.038634 0.042041
C 43.934852 1.207271 0.161612
C 43.293263 2.506327 0.374043
C 44.231322 3.432739 0.396293
C 45.530135 2.781247 0.198994
N 45.352203 1.369638 0.057575
C 46.715089 3.425470 0.146957
C 46.744809 4.901134 0.250230
C 47.207305 5.514090 1.423660
C 47.249940 6.911244 1.522450
O 47.702878 7.521824 2.692375
C 46.834935 7.702081 0.441607
O 46.887455 9.091473 0.557366
C 46.372550 7.091088 -0.739488
O 45.961088 7.874123 -1.816920
C 46.328439 5.692987 -0.829801
C 48.016148 2.727031 -0.006284
C 49.289527 3.418743 -0.241348
C 50.243303 2.509924 -0.270828
N 48.182268 1.445170 0.099605
C 49.584658 1.227629 -0.058928
C 50.199705 0.038634 0.042041
C 49.450756 -1.220207 0.240430
C 49.988936 -2.351778 0.676802
C 48.956475 -3.368734 0.617681
C 47.858232 -2.788949 0.146983
N 48.079914 -1.403704 -0.112629
C 46.599534 -3.507373 -0.165235
C 46.661461 -4.972247 -0.388172
C 47.396237 -5.486309 -1.463519
C 47.467610 -6.864977 -1.678916
O 48.198850 -7.335130 -2.770396
C 46.808901 -7.753696 -0.807068
O 46.903161 -9.124745 -1.060401
C 46.076720 -7.237230 0.290591
O 45.404981 -8.054523 1.203197
C 46.012633 -5.853301 0.488039
C 45.423221 -2.858904 -0.268839
C 44.141799 -3.460808 -0.622540
C 43.252540 -2.490490 -0.564550
C 43.954611 -1.261241 -0.179587
N 45.223723 -1.469229 -0.007143
H 42.236861 2.704994 0.498956
H 44.046461 4.488683 0.544221
H 47.532547 4.906448 2.260017
H 47.993635 6.977370 3.500578
H 46.594845 9.706463 -0.195825
H 45.601248 7.459903 -2.669245
H 45.974718 5.223023 -1.741180
H 49.441024 4.482964 -0.366966
H 51.296700 2.707930 -0.420446
H 51.013993 -2.503169 0.989427
H 49.073766 -4.413582 0.874604
H 47.909543 -4.813743 -2.141418
H 48.281807 -8.322768 -2.981096
H 46.453102 -9.838245 -0.503299
H 45.396064 -9.062998 1.160509
H 45.456359 -5.462498 1.332232
H 43.934589 -4.488613 -0.889289
H 42.197639 -2.604697 -0.778013
