 xtb: 6.5.1 (b24c23e)
          07302213053D

130149  0     0  0            999 V2000
   18.2772    0.0360    0.0452 Cu  0  0  0  0  0  0  0  0  0  0  0  0
   14.8693    0.0968    0.0830 C   0  0  0  0  0  0  0  0  0  0  0  0
   15.5019   -0.2117    1.2779 C   0  0  0  0  0  0  0  0  0  0  0  0
   14.8260   -0.5566    2.4962 C   0  0  0  0  0  0  0  0  0  0  0  0
   15.7834   -0.7752    3.4309 C   0  0  0  0  0  0  0  0  0  0  0  0
   17.0535   -0.5485    2.7950 C   0  0  0  0  0  0  0  0  0  0  0  0
   16.8517   -0.2222    1.4855 N   0  0  0  0  0  0  0  0  0  0  0  0
   18.2990   -0.6427    3.4202 C   0  0  0  0  0  0  0  0  0  0  0  0
   18.3191   -0.9589    4.8688 C   0  0  0  0  0  0  0  0  0  0  0  0
   17.7032   -0.1096    5.7914 C   0  0  0  0  0  0  0  0  0  0  0  0
   17.7279   -0.4044    7.1447 C   0  0  0  0  0  0  0  0  0  0  0  0
   18.3696   -1.5590    7.5625 C   0  0  0  0  0  0  0  0  0  0  0  0
   18.4164   -1.9328    9.2744 S   0  0  0  0  0  0  0  0  0  0  0  0
   18.2394   -0.7467   10.0591 O   0  0  0  0  0  0  0  0  0  0  0  0
   17.0522   -2.8103    9.3619 O   0  0  0  0  0  0  0  0  0  0  0  0
   19.5204   -2.7953    9.5787 O   0  0  0  0  0  0  0  0  0  0  0  0
   18.9902   -2.4206    6.6724 C   0  0  0  0  0  0  0  0  0  0  0  0
   18.9630   -2.1135    5.3224 C   0  0  0  0  0  0  0  0  0  0  0  0
   19.5327   -0.4633    2.7890 C   0  0  0  0  0  0  0  0  0  0  0  0
   20.8007   -0.4447    3.4610 C   0  0  0  0  0  0  0  0  0  0  0  0
   21.7493   -0.2505    2.5106 C   0  0  0  0  0  0  0  0  0  0  0  0
   19.7289   -0.2638    1.4489 N   0  0  0  0  0  0  0  0  0  0  0  0
   21.0726   -0.1522    1.2531 C   0  0  0  0  0  0  0  0  0  0  0  0
   21.7163   -0.0049    0.0111 C   0  0  0  0  0  0  0  0  0  0  0  0
   21.0525    0.1499   -1.2195 C   0  0  0  0  0  0  0  0  0  0  0  0
   21.7059    0.2234   -2.4909 C   0  0  0  0  0  0  0  0  0  0  0  0
   20.7429    0.4314   -3.4240 C   0  0  0  0  0  0  0  0  0  0  0  0
   19.4896    0.4852   -2.7270 C   0  0  0  0  0  0  0  0  0  0  0  0
   19.7081    0.2905   -1.3895 N   0  0  0  0  0  0  0  0  0  0  0  0
   18.2485    0.6944   -3.3335 C   0  0  0  0  0  0  0  0  0  0  0  0
   18.2430    0.9943   -4.7860 C   0  0  0  0  0  0  0  0  0  0  0  0
   17.5829    0.1503   -5.6823 C   0  0  0  0  0  0  0  0  0  0  0  0
   17.5728    0.4335   -7.0383 C   0  0  0  0  0  0  0  0  0  0  0  0
   18.2258    1.5704   -7.4853 C   0  0  0  0  0  0  0  0  0  0  0  0
   18.2023    1.9472   -9.1980 S   0  0  0  0  0  0  0  0  0  0  0  0
   18.3238    3.3594   -9.4161 O   0  0  0  0  0  0  0  0  0  0  0  0
   19.6154    1.2675   -9.6176 O   0  0  0  0  0  0  0  0  0  0  0  0
   17.1394    1.2409   -9.8480 O   0  0  0  0  0  0  0  0  0  0  0  0
   18.8860    2.4287   -6.6208 C   0  0  0  0  0  0  0  0  0  0  0  0
   18.8945    2.1329   -5.2680 C   0  0  0  0  0  0  0  0  0  0  0  0
   17.0149    0.6476   -2.6802 C   0  0  0  0  0  0  0  0  0  0  0  0
   15.7399    0.9152   -3.2899 C   0  0  0  0  0  0  0  0  0  0  0  0
   14.7964    0.7405   -2.3322 C   0  0  0  0  0  0  0  0  0  0  0  0
   15.4863    0.3789   -1.1265 C   0  0  0  0  0  0  0  0  0  0  0  0
   16.8307    0.3384   -1.3639 N   0  0  0  0  0  0  0  0  0  0  0  0
   13.7845    0.1174    0.0950 H   0  0  0  0  0  0  0  0  0  0  0  0
   13.7554   -0.6294    2.6051 H   0  0  0  0  0  0  0  0  0  0  0  0
   15.6487   -1.0738    4.4580 H   0  0  0  0  0  0  0  0  0  0  0  0
   17.2194    0.7965    5.4458 H   0  0  0  0  0  0  0  0  0  0  0  0
   17.2641    0.2529    7.8694 H   0  0  0  0  0  0  0  0  0  0  0  0
   16.9304   -3.1502   10.2567 H   0  0  0  0  0  0  0  0  0  0  0  0
   19.4878   -3.3117    7.0341 H   0  0  0  0  0  0  0  0  0  0  0  0
   19.4341   -2.7787    4.6081 H   0  0  0  0  0  0  0  0  0  0  0  0
   20.9426   -0.5449    4.5248 H   0  0  0  0  0  0  0  0  0  0  0  0
   22.8146   -0.1665    2.6455 H   0  0  0  0  0  0  0  0  0  0  0  0
   22.7660    0.1126   -2.6465 H   0  0  0  0  0  0  0  0  0  0  0  0
   20.8651    0.5207   -4.4913 H   0  0  0  0  0  0  0  0  0  0  0  0
   17.0870   -0.7401   -5.3136 H   0  0  0  0  0  0  0  0  0  0  0  0
   17.0638   -0.2138   -7.7414 H   0  0  0  0  0  0  0  0  0  0  0  0
   19.9193    1.6225  -10.4619 H   0  0  0  0  0  0  0  0  0  0  0  0
   19.3766    3.3152   -7.0030 H   0  0  0  0  0  0  0  0  0  0  0  0
   19.3949    2.7974   -4.5732 H   0  0  0  0  0  0  0  0  0  0  0  0
   15.5933    1.2098   -4.3165 H   0  0  0  0  0  0  0  0  0  0  0  0
   13.7271    0.8522   -2.4179 H   0  0  0  0  0  0  0  0  0  0  0  0
   29.1957    0.0503   -0.0288 Cu  0  0  0  0  0  0  0  0  0  0  0  0
   32.6035    0.1205   -0.0432 C   0  0  0  0  0  0  0  0  0  0  0  0
   31.9704    0.2753   -1.2672 C   0  0  0  0  0  0  0  0  0  0  0  0
   32.6457    0.4053   -2.5271 C   0  0  0  0  0  0  0  0  0  0  0  0
   31.6878    0.5472   -3.4760 C   0  0  0  0  0  0  0  0  0  0  0  0
   30.4180    0.5225   -2.8008 C   0  0  0  0  0  0  0  0  0  0  0  0
   30.6204    0.3420   -1.4635 N   0  0  0  0  0  0  0  0  0  0  0  0
   29.1722    0.6657   -3.4160 C   0  0  0  0  0  0  0  0  0  0  0  0
   29.1513    0.9070   -4.8788 C   0  0  0  0  0  0  0  0  0  0  0  0
   29.7666    2.0374   -5.4226 C   0  0  0  0  0  0  0  0  0  0  0  0
   29.7413    2.2634   -6.7891 C   0  0  0  0  0  0  0  0  0  0  0  0
   29.0996    1.3447   -7.6037 C   0  0  0  0  0  0  0  0  0  0  0  0
   29.0525    1.6297   -9.3326 S   0  0  0  0  0  0  0  0  0  0  0  0
   29.2289    3.0218   -9.6237 O   0  0  0  0  0  0  0  0  0  0  0  0
   30.4170    0.8470   -9.7380 O   0  0  0  0  0  0  0  0  0  0  0  0
   27.9488    0.9401   -9.9340 O   0  0  0  0  0  0  0  0  0  0  0  0
   28.4794    0.2150   -7.0947 C   0  0  0  0  0  0  0  0  0  0  0  0
   28.5072    0.0016   -5.7267 C   0  0  0  0  0  0  0  0  0  0  0  0
   27.9389    0.5991   -2.7625 C   0  0  0  0  0  0  0  0  0  0  0  0
   26.6706    0.8648   -3.3794 C   0  0  0  0  0  0  0  0  0  0  0  0
   25.7225    0.6945   -2.4239 C   0  0  0  0  0  0  0  0  0  0  0  0
   27.7433    0.2895   -1.4434 N   0  0  0  0  0  0  0  0  0  0  0  0
   26.3998    0.3211   -1.2194 C   0  0  0  0  0  0  0  0  0  0  0  0
   25.7566   -0.0009   -0.0106 C   0  0  0  0  0  0  0  0  0  0  0  0
   26.4210   -0.3118    1.1898 C   0  0  0  0  0  0  0  0  0  0  0  0
   25.7681   -0.7132    2.3988 C   0  0  0  0  0  0  0  0  0  0  0  0
   26.7316   -0.8645    3.3422 C   0  0  0  0  0  0  0  0  0  0  0  0
   27.9846   -0.5569    2.7138 C   0  0  0  0  0  0  0  0  0  0  0  0
   27.7654   -0.2437    1.3991 N   0  0  0  0  0  0  0  0  0  0  0  0
   29.2260   -0.5865    3.3541 C   0  0  0  0  0  0  0  0  0  0  0  0
   29.2323   -0.8439    4.8147 C   0  0  0  0  0  0  0  0  0  0  0  0
   29.8932   -1.9590    5.3357 C   0  0  0  0  0  0  0  0  0  0  0  0
   29.9047   -2.1960    6.7007 C   0  0  0  0  0  0  0  0  0  0  0  0
   29.2524   -1.3043    7.5362 C   0  0  0  0  0  0  0  0  0  0  0  0
   29.2790   -1.5852    9.2671 S   0  0  0  0  0  0  0  0  0  0  0  0
   29.1567   -0.3528    9.9903 O   0  0  0  0  0  0  0  0  0  0  0  0
   27.8677   -2.3744    9.4088 O   0  0  0  0  0  0  0  0  0  0  0  0
   30.3440   -2.4795    9.6096 O   0  0  0  0  0  0  0  0  0  0  0  0
   28.5912   -0.1878    7.0499 C   0  0  0  0  0  0  0  0  0  0  0  0
   28.5812    0.0362    5.6834 C   0  0  0  0  0  0  0  0  0  0  0  0
   30.4594   -0.3887    2.7291 C   0  0  0  0  0  0  0  0  0  0  0  0
   31.7347   -0.3652    3.3938 C   0  0  0  0  0  0  0  0  0  0  0  0
   32.6777   -0.1738    2.4388 C   0  0  0  0  0  0  0  0  0  0  0  0
   31.9872   -0.0644    1.1852 C   0  0  0  0  0  0  0  0  0  0  0  0
   30.6429   -0.1897    1.3916 N   0  0  0  0  0  0  0  0  0  0  0  0
   33.6883    0.1443   -0.0473 H   0  0  0  0  0  0  0  0  0  0  0  0
   33.7162    0.3783   -2.6556 H   0  0  0  0  0  0  0  0  0  0  0  0
   31.8220    0.6494   -4.5408 H   0  0  0  0  0  0  0  0  0  0  0  0
   30.2505    2.7518   -4.7669 H   0  0  0  0  0  0  0  0  0  0  0  0
   30.2047    3.1421   -7.2198 H   0  0  0  0  0  0  0  0  0  0  0  0
   30.5389    0.8618  -10.6951 H   0  0  0  0  0  0  0  0  0  0  0  0
   27.9818   -0.4794   -7.7598 H   0  0  0  0  0  0  0  0  0  0  0  0
   28.0365   -0.8806   -5.3086 H   0  0  0  0  0  0  0  0  0  0  0  0
   26.5281    1.1647   -4.4049 H   0  0  0  0  0  0  0  0  0  0  0  0
   24.6572    0.8228   -2.5177 H   0  0  0  0  0  0  0  0  0  0  0  0
   24.7081   -0.8737    2.5029 H   0  0  0  0  0  0  0  0  0  0  0  0
   26.6099   -1.1759    4.3670 H   0  0  0  0  0  0  0  0  0  0  0  0
   30.3886   -2.6504    4.6641 H   0  0  0  0  0  0  0  0  0  0  0  0
   30.4145   -3.0568    7.1148 H   0  0  0  0  0  0  0  0  0  0  0  0
   27.5697   -2.3636   10.3266 H   0  0  0  0  0  0  0  0  0  0  0  0
   28.1011    0.4950    7.7327 H   0  0  0  0  0  0  0  0  0  0  0  0
   28.0802    0.9100    5.2833 H   0  0  0  0  0  0  0  0  0  0  0  0
   31.8819   -0.4706    4.4566 H   0  0  0  0  0  0  0  0  0  0  0  0
   33.7470   -0.1017    2.5592 H   0  0  0  0  0  0  0  0  0  0  0  0
   23.1277   -0.0107    0.0005 C   0  0  0  0  0  0  0  0  0  0  0  0
   24.3453   -0.0102   -0.0024 C   0  0  0  0  0  0  0  0  0  0  0  0
  2  3  4  0  0  0  0
  3  4  1  0  0  0  0
  4  5  2  0  0  0  0
  5  6  4  0  0  0  0
  1  7  1  0  0  0  0
  3  7  4  0  0  0  0
  6  7  4  0  0  0  0
  6  8  4  0  0  0  0
  8  9  1  0  0  0  0
  9 10  4  0  0  0  0
 10 11  4  0  0  0  0
 11 12  4  0  0  0  0
 12 13  1  0  0  0  0
 13 14  2  0  0  0  0
 13 15  1  0  0  0  0
 13 16  2  0  0  0  0
 12 17  4  0  0  0  0
  9 18  4  0  0  0  0
 17 18  4  0  0  0  0
  8 19  4  0  0  0  0
 19 20  4  0  0  0  0
 20 21  2  0  0  0  0
  1 22  1  0  0  0  0
 19 22  4  0  0  0  0
 21 23  4  0  0  0  0
 22 23  4  0  0  0  0
 23 24  4  0  0  0  0
 24 25  4  0  0  0  0
 25 26  4  0  0  0  0
 26 27  2  0  0  0  0
 27 28  4  0  0  0  0
  1 29  1  0  0  0  0
 25 29  4  0  0  0  0
 28 29  4  0  0  0  0
 28 30  4  0  0  0  0
 30 31  1  0  0  0  0
 31 32  4  0  0  0  0
 32 33  4  0  0  0  0
 33 34  4  0  0  0  0
 34 35  1  0  0  0  0
 35 36  2  0  0  0  0
 35 37  1  0  0  0  0
 35 38  2  0  0  0  0
 34 39  4  0  0  0  0
 31 40  4  0  0  0  0
 39 40  4  0  0  0  0
 30 41  4  0  0  0  0
 41 42  4  0  0  0  0
 42 43  2  0  0  0  0
  2 44  4  0  0  0  0
 43 44  1  0  0  0  0
  1 45  1  0  0  0  0
 41 45  4  0  0  0  0
 44 45  4  0  0  0  0
  2 46  1  0  0  0  0
  4 47  1  0  0  0  0
  5 48  1  0  0  0  0
 10 49  1  0  0  0  0
 11 50  1  0  0  0  0
 15 51  1  0  0  0  0
 17 52  1  0  0  0  0
 18 53  1  0  0  0  0
 20 54  1  0  0  0  0
 21 55  1  0  0  0  0
 26 56  1  0  0  0  0
 27 57  1  0  0  0  0
 32 58  1  0  0  0  0
 33 59  1  0  0  0  0
 37 60  1  0  0  0  0
 39 61  1  0  0  0  0
 40 62  1  0  0  0  0
 42 63  1  0  0  0  0
 43 64  1  0  0  0  0
 66 67  4  0  0  0  0
 67 68  1  0  0  0  0
 68 69  2  0  0  0  0
 69 70  4  0  0  0  0
 65 71  1  0  0  0  0
 67 71  4  0  0  0  0
 70 71  4  0  0  0  0
 70 72  4  0  0  0  0
 72 73  1  0  0  0  0
 73 74  4  0  0  0  0
 74 75  4  0  0  0  0
 75 76  4  0  0  0  0
 76 77  1  0  0  0  0
 77 78  2  0  0  0  0
 77 79  1  0  0  0  0
 77 80  2  0  0  0  0
 76 81  4  0  0  0  0
 73 82  4  0  0  0  0
 81 82  4  0  0  0  0
 72 83  4  0  0  0  0
 83 84  4  0  0  0  0
 84 85  2  0  0  0  0
 65 86  1  0  0  0  0
 83 86  4  0  0  0  0
 85 87  4  0  0  0  0
 86 87  4  0  0  0  0
 87 88  4  0  0  0  0
 88 89  4  0  0  0  0
 89 90  4  0  0  0  0
 90 91  2  0  0  0  0
 91 92  4  0  0  0  0
 65 93  1  0  0  0  0
 89 93  4  0  0  0  0
 92 93  4  0  0  0  0
 92 94  4  0  0  0  0
 94 95  1  0  0  0  0
 95 96  4  0  0  0  0
 96 97  4  0  0  0  0
 97 98  4  0  0  0  0
 98 99  1  0  0  0  0
 99100  2  0  0  0  0
 99101  1  0  0  0  0
 99102  2  0  0  0  0
 98103  4  0  0  0  0
 95104  4  0  0  0  0
103104  4  0  0  0  0
 94105  4  0  0  0  0
105106  4  0  0  0  0
106107  2  0  0  0  0
 66108  4  0  0  0  0
107108  1  0  0  0  0
 65109  1  0  0  0  0
105109  4  0  0  0  0
108109  4  0  0  0  0
 66110  1  0  0  0  0
 68111  1  0  0  0  0
 69112  1  0  0  0  0
 74113  1  0  0  0  0
 75114  1  0  0  0  0
 79115  1  0  0  0  0
 81116  1  0  0  0  0
 82117  1  0  0  0  0
 84118  1  0  0  0  0
 85119  1  0  0  0  0
 90120  1  0  0  0  0
 91121  1  0  0  0  0
 96122  1  0  0  0  0
 97123  1  0  0  0  0
101124  1  0  0  0  0
103125  1  0  0  0  0
104126  1  0  0  0  0
106127  1  0  0  0  0
107128  1  0  0  0  0
 24129  4  0  0  0  0
 88130  4  0  0  0  0
129130  3  0  0  0  0
M  END
