 xtb: 6.5.1 (b24c23e)
          07282211553D

180200  0     0  0            999 V2000
   29.8439   -0.0408   -0.0752 C   0  0  0  0  0  0  0  0  0  0  0  0
   30.4253    1.1575   -0.4686 C   0  0  0  0  0  0  0  0  0  0  0  0
   29.7467    2.3337   -0.8944 C   0  0  0  0  0  0  0  0  0  0  0  0
   30.6874    3.2849   -1.1734 C   0  0  0  0  0  0  0  0  0  0  0  0
   31.9712    2.7236   -0.9178 C   0  0  0  0  0  0  0  0  0  0  0  0
   31.7622    1.4376   -0.5064 N   0  0  0  0  0  0  0  0  0  0  0  0
   33.2192    3.3386   -1.0681 C   0  0  0  0  0  0  0  0  0  0  0  0
   33.2132    4.7606   -1.4911 C   0  0  0  0  0  0  0  0  0  0  0  0
   33.8300    5.1523   -2.6798 C   0  0  0  0  0  0  0  0  0  0  0  0
   33.8238    6.4805   -3.0771 C   0  0  0  0  0  0  0  0  0  0  0  0
   33.2009    7.4378   -2.2797 C   0  0  0  0  0  0  0  0  0  0  0  0
   33.1743    8.7499   -2.6289 O   0  0  0  0  0  0  0  0  0  0  0  0
   32.5826    7.0605   -1.0891 C   0  0  0  0  0  0  0  0  0  0  0  0
   32.5883    5.7314   -0.7044 C   0  0  0  0  0  0  0  0  0  0  0  0
   34.4510    2.7170   -0.8462 C   0  0  0  0  0  0  0  0  0  0  0  0
   35.7304    3.3937   -0.9592 C   0  0  0  0  0  0  0  0  0  0  0  0
   36.6760    2.4723   -0.6822 C   0  0  0  0  0  0  0  0  0  0  0  0
   34.6408    1.4183   -0.4849 N   0  0  0  0  0  0  0  0  0  0  0  0
   35.9745    1.2389   -0.3854 C   0  0  0  0  0  0  0  0  0  0  0  0
   36.6418    0.0409   -0.0633 C   0  0  0  0  0  0  0  0  0  0  0  0
   36.0343   -1.1852    0.2664 C   0  0  0  0  0  0  0  0  0  0  0  0
   36.7042   -2.3960    0.5848 C   0  0  0  0  0  0  0  0  0  0  0  0
   35.7584   -3.3377    0.8824 C   0  0  0  0  0  0  0  0  0  0  0  0
   34.4795   -2.7268    0.7659 C   0  0  0  0  0  0  0  0  0  0  0  0
   34.6978   -1.4307    0.3796 N   0  0  0  0  0  0  0  0  0  0  0  0
   33.2326   -3.3239    0.9837 C   0  0  0  0  0  0  0  0  0  0  0  0
   33.2400   -4.7330    1.4457 C   0  0  0  0  0  0  0  0  0  0  0  0
   33.8586   -5.0818    2.6492 C   0  0  0  0  0  0  0  0  0  0  0  0
   33.8668   -6.3937    3.0885 C   0  0  0  0  0  0  0  0  0  0  0  0
   33.2579   -7.3838    2.3194 C   0  0  0  0  0  0  0  0  0  0  0  0
   33.2886   -8.6618    2.7774 O   0  0  0  0  0  0  0  0  0  0  0  0
   32.6403   -7.0520    1.1158 C   0  0  0  0  0  0  0  0  0  0  0  0
   32.6307   -5.7335    0.6877 C   0  0  0  0  0  0  0  0  0  0  0  0
   31.9995   -2.6891    0.8021 C   0  0  0  0  0  0  0  0  0  0  0  0
   30.7118   -3.3067    1.0785 C   0  0  0  0  0  0  0  0  0  0  0  0
   29.7734   -2.3879    0.7729 C   0  0  0  0  0  0  0  0  0  0  0  0
   30.4869   -1.2050    0.3252 C   0  0  0  0  0  0  0  0  0  0  0  0
   31.8246   -1.4197    0.3635 N   0  0  0  0  0  0  0  0  0  0  0  0
   28.7587   -0.0588   -0.0784 H   0  0  0  0  0  0  0  0  0  0  0  0
   28.6755    2.4253   -0.9777 H   0  0  0  0  0  0  0  0  0  0  0  0
   30.5133    4.2857   -1.5341 H   0  0  0  0  0  0  0  0  0  0  0  0
   32.5019    0.7863   -0.2658 H   0  0  0  0  0  0  0  0  0  0  0  0
   34.3039    4.4066   -3.3082 H   0  0  0  0  0  0  0  0  0  0  0  0
   34.2997    6.7780   -4.0053 H   0  0  0  0  0  0  0  0  0  0  0  0
   33.6336    8.9011   -3.4659 H   0  0  0  0  0  0  0  0  0  0  0  0
   32.1058    7.8158   -0.4766 H   0  0  0  0  0  0  0  0  0  0  0  0
   32.1199    5.4411    0.2295 H   0  0  0  0  0  0  0  0  0  0  0  0
   35.8661    4.4345   -1.2047 H   0  0  0  0  0  0  0  0  0  0  0  0
   37.7470    2.5939   -0.6702 H   0  0  0  0  0  0  0  0  0  0  0  0
   37.7745   -2.5235    0.5845 H   0  0  0  0  0  0  0  0  0  0  0  0
   35.9290   -4.3675    1.1509 H   0  0  0  0  0  0  0  0  0  0  0  0
   33.9614   -0.7545    0.2060 H   0  0  0  0  0  0  0  0  0  0  0  0
   34.3201   -4.3100    3.2551 H   0  0  0  0  0  0  0  0  0  0  0  0
   34.3388   -6.6649    4.0247 H   0  0  0  0  0  0  0  0  0  0  0  0
   32.8345   -9.2638    2.1727 H   0  0  0  0  0  0  0  0  0  0  0  0
   32.1715   -7.8266    0.5183 H   0  0  0  0  0  0  0  0  0  0  0  0
   32.1615   -5.4793   -0.2562 H   0  0  0  0  0  0  0  0  0  0  0  0
   30.5698   -4.3027    1.4663 H   0  0  0  0  0  0  0  0  0  0  0  0
   28.7000   -2.4691    0.8442 H   0  0  0  0  0  0  0  0  0  0  0  0
   58.3635   -0.0853    0.0325 C   0  0  0  0  0  0  0  0  0  0  0  0
   57.7526   -1.2185    0.5538 C   0  0  0  0  0  0  0  0  0  0  0  0
   58.4027   -2.3821    1.0525 C   0  0  0  0  0  0  0  0  0  0  0  0
   57.4396   -3.2521    1.4804 C   0  0  0  0  0  0  0  0  0  0  0  0
   56.1697   -2.6447    1.2643 C   0  0  0  0  0  0  0  0  0  0  0  0
   56.4095   -1.4258    0.6952 N   0  0  0  0  0  0  0  0  0  0  0  0
   54.9069   -3.1769    1.5483 C   0  0  0  0  0  0  0  0  0  0  0  0
   54.8761   -4.5028    2.2124 C   0  0  0  0  0  0  0  0  0  0  0  0
   54.2462   -5.5900    1.6058 C   0  0  0  0  0  0  0  0  0  0  0  0
   54.2138   -6.8281    2.2286 C   0  0  0  0  0  0  0  0  0  0  0  0
   54.8106   -6.9902    3.4767 C   0  0  0  0  0  0  0  0  0  0  0  0
   54.7980   -8.1839    4.1243 O   0  0  0  0  0  0  0  0  0  0  0  0
   55.4433   -5.9127    4.0939 C   0  0  0  0  0  0  0  0  0  0  0  0
   55.4761   -4.6826    3.4614 C   0  0  0  0  0  0  0  0  0  0  0  0
   53.6917   -2.5485    1.2622 C   0  0  0  0  0  0  0  0  0  0  0  0
   52.3937   -3.0943    1.6162 C   0  0  0  0  0  0  0  0  0  0  0  0
   51.4743   -2.2084    1.1801 C   0  0  0  0  0  0  0  0  0  0  0  0
   53.5390   -1.3456    0.6440 N   0  0  0  0  0  0  0  0  0  0  0  0
   52.2111   -1.1166    0.5737 C   0  0  0  0  0  0  0  0  0  0  0  0
   51.5783    0.0152    0.0252 C   0  0  0  0  0  0  0  0  0  0  0  0
   52.2133    1.1481   -0.5144 C   0  0  0  0  0  0  0  0  0  0  0  0
   51.5697    2.2677   -1.1054 C   0  0  0  0  0  0  0  0  0  0  0  0
   52.5370    3.1397   -1.5225 C   0  0  0  0  0  0  0  0  0  0  0  0
   53.8030    2.5825   -1.1908 C   0  0  0  0  0  0  0  0  0  0  0  0
   53.5554    1.3773   -0.5885 N   0  0  0  0  0  0  0  0  0  0  0  0
   55.0658    3.1272   -1.4503 C   0  0  0  0  0  0  0  0  0  0  0  0
   55.0989    4.4581   -2.1030 C   0  0  0  0  0  0  0  0  0  0  0  0
   54.5099    5.5687   -1.4932 C   0  0  0  0  0  0  0  0  0  0  0  0
   54.5379    6.8105   -2.1029 C   0  0  0  0  0  0  0  0  0  0  0  0
   55.1539    6.9575   -3.3444 C   0  0  0  0  0  0  0  0  0  0  0  0
   55.1583    8.1887   -3.9174 O   0  0  0  0  0  0  0  0  0  0  0  0
   55.7432    5.8590   -3.9659 C   0  0  0  0  0  0  0  0  0  0  0  0
   55.7163    4.6206   -3.3439 C   0  0  0  0  0  0  0  0  0  0  0  0
   56.2811    2.5035   -1.1484 C   0  0  0  0  0  0  0  0  0  0  0  0
   57.5869    3.1046   -1.3710 C   0  0  0  0  0  0  0  0  0  0  0  0
   58.4992    2.2011   -0.9591 C   0  0  0  0  0  0  0  0  0  0  0  0
   57.7521    1.0542   -0.4743 C   0  0  0  0  0  0  0  0  0  0  0  0
   56.4202    1.2749   -0.5957 N   0  0  0  0  0  0  0  0  0  0  0  0
   59.4488   -0.0991    0.0276 H   0  0  0  0  0  0  0  0  0  0  0  0
   59.4715   -2.5248    1.0709 H   0  0  0  0  0  0  0  0  0  0  0  0
   57.5896   -4.2339    1.8995 H   0  0  0  0  0  0  0  0  0  0  0  0
   55.6849   -0.7727    0.4166 H   0  0  0  0  0  0  0  0  0  0  0  0
   53.7922   -5.4689    0.6286 H   0  0  0  0  0  0  0  0  0  0  0  0
   53.7274   -7.6710    1.7494 H   0  0  0  0  0  0  0  0  0  0  0  0
   54.3264   -8.8562    3.6145 H   0  0  0  0  0  0  0  0  0  0  0  0
   55.8998   -6.0518    5.0661 H   0  0  0  0  0  0  0  0  0  0  0  0
   55.9544   -3.8408    3.9497 H   0  0  0  0  0  0  0  0  0  0  0  0
   52.2290   -4.0210    2.1416 H   0  0  0  0  0  0  0  0  0  0  0  0
   50.4006   -2.2589    1.2653 H   0  0  0  0  0  0  0  0  0  0  0  0
   50.5019    2.3783   -1.2055 H   0  0  0  0  0  0  0  0  0  0  0  0
   52.3893    4.0800   -2.0281 H   0  0  0  0  0  0  0  0  0  0  0  0
   54.2778    0.7425   -0.2648 H   0  0  0  0  0  0  0  0  0  0  0  0
   54.0430    5.4589   -0.5207 H   0  0  0  0  0  0  0  0  0  0  0  0
   54.0883    7.6742   -1.6289 H   0  0  0  0  0  0  0  0  0  0  0  0
   55.6146    8.1787   -4.7695 H   0  0  0  0  0  0  0  0  0  0  0  0
   56.2180    5.9768   -4.9341 H   0  0  0  0  0  0  0  0  0  0  0  0
   56.1627    3.7635   -3.8356 H   0  0  0  0  0  0  0  0  0  0  0  0
   57.7577    4.0903   -1.7732 H   0  0  0  0  0  0  0  0  0  0  0  0
   59.5753    2.2784   -0.9617 H   0  0  0  0  0  0  0  0  0  0  0  0
   38.0523    0.0551   -0.0590 C   0  0  0  0  0  0  0  0  0  0  0  0
   39.2691    0.0616   -0.0459 C   0  0  0  0  0  0  0  0  0  0  0  0
   48.9508    0.0343   -0.0025 C   0  0  0  0  0  0  0  0  0  0  0  0
   50.1670    0.0300    0.0117 C   0  0  0  0  0  0  0  0  0  0  0  0
   40.6789    0.0560   -0.0252 C   0  0  0  0  0  0  0  0  0  0  0  0
   41.3016   -1.1625   -0.3554 C   0  0  0  0  0  0  0  0  0  0  0  0
   40.6525   -2.3550   -0.7669 C   0  0  0  0  0  0  0  0  0  0  0  0
   41.6146   -3.2954   -1.0157 C   0  0  0  0  0  0  0  0  0  0  0  0
   42.8814   -2.7055   -0.7562 C   0  0  0  0  0  0  0  0  0  0  0  0
   42.6417   -1.4145   -0.3673 N   0  0  0  0  0  0  0  0  0  0  0  0
   44.1386   -3.3077   -0.8905 C   0  0  0  0  0  0  0  0  0  0  0  0
   44.1488   -4.7367   -1.2892 C   0  0  0  0  0  0  0  0  0  0  0  0
   44.7742   -5.1361   -2.4711 C   0  0  0  0  0  0  0  0  0  0  0  0
   44.7836   -6.4685   -2.8530 C   0  0  0  0  0  0  0  0  0  0  0  0
   44.1691   -7.4231   -2.0459 C   0  0  0  0  0  0  0  0  0  0  0  0
   44.1579   -8.7394   -2.3801 O   0  0  0  0  0  0  0  0  0  0  0  0
   43.5435   -7.0386   -0.8614 C   0  0  0  0  0  0  0  0  0  0  0  0
   43.5326   -5.7050   -0.4926 C   0  0  0  0  0  0  0  0  0  0  0  0
   45.3657   -2.6730   -0.6870 C   0  0  0  0  0  0  0  0  0  0  0  0
   46.6478   -3.3508   -0.7599 C   0  0  0  0  0  0  0  0  0  0  0  0
   47.5893   -2.4157   -0.5165 C   0  0  0  0  0  0  0  0  0  0  0  0
   45.5488   -1.3588   -0.3849 N   0  0  0  0  0  0  0  0  0  0  0  0
   46.8816   -1.1716   -0.2874 C   0  0  0  0  0  0  0  0  0  0  0  0
   47.5403    0.0437   -0.0224 C   0  0  0  0  0  0  0  0  0  0  0  0
   46.9206    1.2773    0.2466 C   0  0  0  0  0  0  0  0  0  0  0  0
   47.5747    2.4911    0.5830 C   0  0  0  0  0  0  0  0  0  0  0  0
   46.6138    3.4276    0.8499 C   0  0  0  0  0  0  0  0  0  0  0  0
   45.3429    2.8155    0.6728 C   0  0  0  0  0  0  0  0  0  0  0  0
   45.5797    1.5181    0.3037 N   0  0  0  0  0  0  0  0  0  0  0  0
   44.0859    3.3955    0.8821 C   0  0  0  0  0  0  0  0  0  0  0  0
   44.0756    4.8148    1.3171 C   0  0  0  0  0  0  0  0  0  0  0  0
   44.6061    5.8193    0.5045 C   0  0  0  0  0  0  0  0  0  0  0  0
   44.5967    7.1410    0.9147 C   0  0  0  0  0  0  0  0  0  0  0  0
   44.0595    7.4762    2.1562 C   0  0  0  0  0  0  0  0  0  0  0  0
   44.0709    8.7818    2.5296 O   0  0  0  0  0  0  0  0  0  0  0  0
   43.5299    6.4846    2.9787 C   0  0  0  0  0  0  0  0  0  0  0  0
   43.5370    5.1647    2.5559 C   0  0  0  0  0  0  0  0  0  0  0  0
   42.8584    2.7475    0.7296 C   0  0  0  0  0  0  0  0  0  0  0  0
   41.5748    3.4055    0.8960 C   0  0  0  0  0  0  0  0  0  0  0  0
   40.6322    2.4749    0.6406 C   0  0  0  0  0  0  0  0  0  0  0  0
   41.3392    1.2534    0.3118 C   0  0  0  0  0  0  0  0  0  0  0  0
   42.6735    1.4469    0.3728 N   0  0  0  0  0  0  0  0  0  0  0  0
   39.5858   -2.4684   -0.8726 H   0  0  0  0  0  0  0  0  0  0  0  0
   41.4617   -4.3039   -1.3635 H   0  0  0  0  0  0  0  0  0  0  0  0
   43.3638   -0.7403   -0.1364 H   0  0  0  0  0  0  0  0  0  0  0  0
   45.2424   -4.3924   -3.1064 H   0  0  0  0  0  0  0  0  0  0  0  0
   45.2653   -6.7716   -3.7765 H   0  0  0  0  0  0  0  0  0  0  0  0
   44.6232   -8.8950   -3.2130 H   0  0  0  0  0  0  0  0  0  0  0  0
   43.0737   -7.7920   -0.2413 H   0  0  0  0  0  0  0  0  0  0  0  0
   43.0579   -5.4089    0.4363 H   0  0  0  0  0  0  0  0  0  0  0  0
   46.7868   -4.4021   -0.9536 H   0  0  0  0  0  0  0  0  0  0  0  0
   48.6607   -2.5333   -0.4853 H   0  0  0  0  0  0  0  0  0  0  0  0
   48.6442    2.6191    0.6287 H   0  0  0  0  0  0  0  0  0  0  0  0
   46.7706    4.4490    1.1562 H   0  0  0  0  0  0  0  0  0  0  0  0
   44.8552    0.8299    0.1279 H   0  0  0  0  0  0  0  0  0  0  0  0
   45.0119    5.5618   -0.4675 H   0  0  0  0  0  0  0  0  0  0  0  0
   45.0003    7.9231    0.2835 H   0  0  0  0  0  0  0  0  0  0  0  0
   43.6715    8.9020    3.4017 H   0  0  0  0  0  0  0  0  0  0  0  0
   43.1162    6.7491    3.9460 H   0  0  0  0  0  0  0  0  0  0  0  0
   43.1354    4.3919    3.2018 H   0  0  0  0  0  0  0  0  0  0  0  0
   41.4347    4.4423    1.1554 H   0  0  0  0  0  0  0  0  0  0  0  0
   39.5599    2.5819    0.6659 H   0  0  0  0  0  0  0  0  0  0  0  0
  1  2  4  0  0  0  0
  2  3  4  0  0  0  0
  3  4  2  0  0  0  0
  4  5  4  0  0  0  0
  2  6  4  0  0  0  0
  5  6  4  0  0  0  0
  5  7  4  0  0  0  0
  7  8  1  0  0  0  0
  8  9  4  0  0  0  0
  9 10  4  0  0  0  0
 10 11  4  0  0  0  0
 11 12  1  0  0  0  0
 11 13  4  0  0  0  0
  8 14  4  0  0  0  0
 13 14  4  0  0  0  0
  7 15  4  0  0  0  0
 15 16  1  0  0  0  0
 16 17  2  0  0  0  0
 15 18  4  0  0  0  0
 17 19  1  0  0  0  0
 18 19  4  0  0  0  0
 19 20  4  0  0  0  0
 20 21  4  0  0  0  0
 21 22  4  0  0  0  0
 22 23  2  0  0  0  0
 23 24  4  0  0  0  0
 21 25  4  0  0  0  0
 24 25  4  0  0  0  0
 24 26  4  0  0  0  0
 26 27  1  0  0  0  0
 27 28  4  0  0  0  0
 28 29  4  0  0  0  0
 29 30  4  0  0  0  0
 30 31  1  0  0  0  0
 30 32  4  0  0  0  0
 27 33  4  0  0  0  0
 32 33  4  0  0  0  0
 26 34  4  0  0  0  0
 34 35  1  0  0  0  0
 35 36  2  0  0  0  0
  1 37  4  0  0  0  0
 36 37  1  0  0  0  0
 34 38  4  0  0  0  0
 37 38  4  0  0  0  0
  1 39  1  0  0  0  0
  3 40  1  0  0  0  0
  4 41  1  0  0  0  0
  6 42  1  0  0  0  0
  9 43  1  0  0  0  0
 10 44  1  0  0  0  0
 12 45  1  0  0  0  0
 13 46  1  0  0  0  0
 14 47  1  0  0  0  0
 16 48  1  0  0  0  0
 17 49  1  0  0  0  0
 22 50  1  0  0  0  0
 23 51  1  0  0  0  0
 25 52  1  0  0  0  0
 28 53  1  0  0  0  0
 29 54  1  0  0  0  0
 31 55  1  0  0  0  0
 32 56  1  0  0  0  0
 33 57  1  0  0  0  0
 35 58  1  0  0  0  0
 36 59  1  0  0  0  0
 60 61  4  0  0  0  0
 61 62  4  0  0  0  0
 62 63  2  0  0  0  0
 63 64  4  0  0  0  0
 61 65  4  0  0  0  0
 64 65  4  0  0  0  0
 64 66  4  0  0  0  0
 66 67  1  0  0  0  0
 67 68  4  0  0  0  0
 68 69  4  0  0  0  0
 69 70  4  0  0  0  0
 70 71  1  0  0  0  0
 70 72  4  0  0  0  0
 67 73  4  0  0  0  0
 72 73  4  0  0  0  0
 66 74  4  0  0  0  0
 74 75  1  0  0  0  0
 75 76  2  0  0  0  0
 74 77  4  0  0  0  0
 76 78  1  0  0  0  0
 77 78  4  0  0  0  0
 78 79  4  0  0  0  0
 79 80  4  0  0  0  0
 80 81  4  0  0  0  0
 81 82  2  0  0  0  0
 82 83  4  0  0  0  0
 80 84  4  0  0  0  0
 83 84  4  0  0  0  0
 83 85  4  0  0  0  0
 85 86  1  0  0  0  0
 86 87  4  0  0  0  0
 87 88  4  0  0  0  0
 88 89  4  0  0  0  0
 89 90  1  0  0  0  0
 89 91  4  0  0  0  0
 86 92  4  0  0  0  0
 91 92  4  0  0  0  0
 85 93  4  0  0  0  0
 93 94  1  0  0  0  0
 94 95  2  0  0  0  0
 60 96  4  0  0  0  0
 95 96  1  0  0  0  0
 93 97  4  0  0  0  0
 96 97  4  0  0  0  0
 60 98  1  0  0  0  0
 62 99  1  0  0  0  0
 63100  1  0  0  0  0
 65101  1  0  0  0  0
 68102  1  0  0  0  0
 69103  1  0  0  0  0
 71104  1  0  0  0  0
 72105  1  0  0  0  0
 73106  1  0  0  0  0
 75107  1  0  0  0  0
 76108  1  0  0  0  0
 81109  1  0  0  0  0
 82110  1  0  0  0  0
 84111  1  0  0  0  0
 87112  1  0  0  0  0
 88113  1  0  0  0  0
 90114  1  0  0  0  0
 91115  1  0  0  0  0
 92116  1  0  0  0  0
 94117  1  0  0  0  0
 95118  1  0  0  0  0
 20119  4  0  0  0  0
119120  3  0  0  0  0
 79122  4  0  0  0  0
121122  3  0  0  0  0
120123  4  0  0  0  0
123124  4  0  0  0  0
124125  4  0  0  0  0
125126  2  0  0  0  0
126127  4  0  0  0  0
124128  4  0  0  0  0
127128  4  0  0  0  0
127129  4  0  0  0  0
129130  1  0  0  0  0
130131  4  0  0  0  0
131132  4  0  0  0  0
132133  4  0  0  0  0
133134  1  0  0  0  0
133135  4  0  0  0  0
130136  4  0  0  0  0
135136  4  0  0  0  0
129137  4  0  0  0  0
137138  1  0  0  0  0
138139  2  0  0  0  0
137140  4  0  0  0  0
139141  1  0  0  0  0
140141  4  0  0  0  0
121142  4  0  0  0  0
141142  4  0  0  0  0
142143  4  0  0  0  0
143144  4  0  0  0  0
144145  2  0  0  0  0
145146  4  0  0  0  0
143147  4  0  0  0  0
146147  4  0  0  0  0
146148  4  0  0  0  0
148149  1  0  0  0  0
149150  4  0  0  0  0
150151  4  0  0  0  0
151152  4  0  0  0  0
152153  1  0  0  0  0
152154  4  0  0  0  0
149155  4  0  0  0  0
154155  4  0  0  0  0
148156  4  0  0  0  0
156157  1  0  0  0  0
157158  2  0  0  0  0
123159  4  0  0  0  0
158159  1  0  0  0  0
156160  4  0  0  0  0
159160  4  0  0  0  0
125161  1  0  0  0  0
126162  1  0  0  0  0
128163  1  0  0  0  0
131164  1  0  0  0  0
132165  1  0  0  0  0
134166  1  0  0  0  0
135167  1  0  0  0  0
136168  1  0  0  0  0
138169  1  0  0  0  0
139170  1  0  0  0  0
144171  1  0  0  0  0
145172  1  0  0  0  0
147173  1  0  0  0  0
150174  1  0  0  0  0
151175  1  0  0  0  0
153176  1  0  0  0  0
154177  1  0  0  0  0
155178  1  0  0  0  0
157179  1  0  0  0  0
158180  1  0  0  0  0
M  END
