256

C 48.559066 -0.170470 -0.338539
C 49.270859 1.180861 -0.646456
C 48.635486 2.372664 -0.911249
C 49.646343 3.344602 -1.119662
C 50.867999 2.712317 -0.976898
N 50.626179 1.394049 -0.679439
C 52.296140 3.390720 -1.101994
C 52.333225 4.809418 -1.533252
C 52.490597 5.843528 -0.602041
C 52.481601 7.174272 -1.031842
C 52.670243 8.247941 -0.029073
O 52.259952 9.452909 -0.478924
O 53.132495 8.139967 1.090464
C 52.315080 7.472101 -2.393305
C 52.164150 6.442142 -3.322599
C 52.173544 5.115791 -2.892406
C 53.430071 2.688018 -0.838493
C 54.738795 3.307829 -0.891289
C 55.644745 2.401781 -0.543103
N 53.629974 1.377964 -0.486775
C 54.967926 1.144071 -0.291742
C 55.649978 0.018799 0.052753
C 54.901484 -1.373447 0.226415
C 55.507953 -2.615261 0.248161
C 54.492807 -3.586518 0.418713
C 53.289299 -2.916321 0.483252
N 53.544910 -1.569166 0.349819
C 51.863706 -3.590357 0.655372
C 51.814964 -5.014553 1.055817
C 51.830938 -6.021373 0.081094
C 51.796227 -7.365740 0.451322
C 51.739553 -7.709928 1.802603
C 51.721269 -6.708696 2.786075
C 51.651436 -7.124396 4.206191
O 51.831854 -6.104240 5.063445
O 51.470789 -8.261620 4.608404
C 51.762020 -5.361976 2.411489
C 50.733546 -2.870675 0.436456
C 49.405404 -3.448716 0.553463
C 48.514059 -2.505151 0.270428
C 49.235539 -1.291733 -0.027634
N 50.564546 -1.560836 0.084516
H 47.475446 -0.190546 -0.371317
H 47.567219 2.526607 -0.945674
H 49.498760 4.389680 -1.346030
H 51.339216 0.687681 -0.514997
H 52.616004 5.593654 0.449842
H 52.435116 10.029036 0.292820
H 52.311700 8.502420 -2.737073
H 52.040704 6.663692 -4.378340
H 52.054827 4.301947 -3.607406
H 54.956688 4.328558 -1.148221
H 56.702006 2.587374 -0.490359
H 56.565787 -2.809902 0.150697
H 54.628000 -4.656607 0.476860
H 52.831692 -0.845028 0.296242
H 51.870024 -5.737579 -0.968918
H 51.812903 -8.136798 -0.314131
H 51.709729 -8.758472 2.089048
H 51.760094 -6.502950 5.951520
H 51.745266 -4.565262 3.153726
H 49.175543 -4.465411 0.818660
H 47.445427 -2.618322 0.266974
C 88.437482 0.031303 -0.381731
C 87.725690 -1.327663 -0.109482
C 88.361063 -2.523428 0.136805
C 87.350205 -3.495513 0.344529
C 86.128549 -2.860192 0.215950
N 86.370369 -1.535672 -0.052304
C 84.700409 -3.530357 0.379528
C 84.663323 -5.001278 0.566820
C 84.505952 -5.563570 1.839757
C 84.514947 -6.953648 1.992373
C 84.326306 -7.522739 3.346790
O 84.736596 -8.806270 3.429627
O 83.864053 -6.965930 4.324025
C 84.681469 -7.782709 0.872132
C 84.832398 -7.223420 -0.397356
C 84.823004 -5.837190 -0.547816
C 83.566478 -2.781364 0.332281
C 82.257753 -3.368475 0.537837
C 81.351804 -2.399288 0.484612
N 83.366574 -1.442127 0.116893
C 82.028622 -1.148891 0.199088
C 81.346571 0.018799 0.052753
C 82.095064 1.360136 -0.358734
C 81.488595 2.502035 -0.847245
C 82.503742 3.458000 -1.089233
C 83.707250 2.872951 -0.755996
N 83.451638 1.589222 -0.326264
C 85.132842 3.558382 -0.874884
C 85.181584 5.021706 -1.092539
C 85.165611 5.541286 -2.394003
C 85.200322 6.919406 -2.606549
C 85.256996 7.786597 -1.514575
C 85.275279 7.275696 -0.207417
C 85.345113 8.236310 0.918086
O 85.164694 7.656474 2.117833
O 85.525759 9.438532 0.819519
C 85.234529 5.893645 0.002116
C 86.263002 2.812148 -0.780006
C 87.591145 3.387435 -0.909880
C 88.482489 2.410688 -0.781854
C 87.761009 1.181585 -0.557072
N 86.432002 1.473017 -0.564909
H 89.521102 0.036202 -0.419854
H 89.429329 -2.677973 0.168416
H 87.497788 -4.541680 0.565812
H 85.657333 -0.823885 -0.191432
H 84.380544 -4.904991 2.697176
H 84.561433 -9.015990 4.369588
H 84.684848 -8.863469 0.980260
H 84.955844 -7.857736 -1.269891
H 84.941721 -5.387355 -1.533319
H 82.039861 -4.404938 0.721266
H 80.294542 -2.547027 0.608708
H 80.430761 2.639722 -1.015847
H 82.368549 4.458123 -1.474234
H 84.164856 0.906606 -0.078712
H 85.126524 4.852526 -3.235830
H 85.183645 7.309552 -3.620569
H 85.286819 8.860518 -1.682464
H 85.236454 8.383790 2.764872
H 85.251283 5.470588 1.005457
H 87.821006 4.423601 -1.084117
H 89.551122 2.512529 -0.831334
C 57.446754 0.018799 0.052753
C 58.668672 0.018799 0.052753
C 67.887315 0.018799 0.052753
C 69.109233 0.018799 0.052753
C 78.327876 0.018799 0.052753
C 79.549794 0.018799 0.052753
C 59.614238 -0.020012 -0.056157
C 60.409986 1.346518 -0.153603
C 59.909506 2.566025 -0.562323
C 60.948327 3.520934 -0.415085
C 62.051573 2.853001 0.073135
N 61.736999 1.519750 0.154015
C 63.437624 3.498238 0.480633
C 63.419267 4.889454 0.985053
C 63.798281 5.957312 0.161523
C 63.765640 7.266319 0.653912
C 64.171006 8.373010 -0.245789
O 64.142810 9.577913 0.360270
O 64.504754 8.289542 -1.413002
C 63.350903 7.506322 1.972851
C 62.970249 6.443724 2.793379
C 63.003672 5.140641 2.299040
C 64.575013 2.756763 0.435468
C 65.860278 3.281677 0.848322
C 66.769646 2.323900 0.702776
N 64.785853 1.461544 0.052489
C 66.109259 1.139544 0.191902
C 66.772692 -0.020012 -0.056157
C 65.977455 -1.278031 -0.599626
C 66.480485 -2.295990 -1.383978
C 65.442611 -3.246763 -1.560236
C 64.336674 -2.776165 -0.883655
N 64.650127 -1.543523 -0.368025
C 62.948171 -3.518534 -0.719976
C 62.956275 -4.998351 -0.765663
C 62.520163 -5.670677 -1.915774
C 62.539876 -7.063874 -1.971038
C 63.000643 -7.793409 -0.874380
C 63.442482 -7.130519 0.280376
C 63.923914 -7.952470 1.415967
O 64.314737 -7.219503 2.472058
O 63.980277 -9.170417 1.442015
C 63.420865 -5.732670 0.332328
C 61.812464 -2.803519 -0.507463
C 60.525356 -3.434908 -0.299735
C 59.616542 -2.482924 -0.117413
C 60.278551 -1.196656 -0.199609
N 61.603860 -1.454949 -0.426654
H 58.904252 2.754484 -0.907496
H 60.891281 4.578791 -0.622509
H 62.394545 0.774424 0.364115
H 64.119327 5.749064 -0.857714
H 64.435181 10.174340 -0.359139
H 63.319843 8.516797 2.369408
H 62.647724 6.622836 3.814377
H 62.709470 4.303428 2.929767
H 66.055803 4.272863 1.216024
H 67.814196 2.428334 0.933145
H 67.487015 -2.360500 -1.768656
H 65.501898 -4.178220 -2.102739
H 63.991574 -0.909232 0.074754
H 62.161903 -5.088545 -2.763214
H 62.196158 -7.572310 -2.866423
H 63.014822 -8.879264 -0.920908
H 64.606294 -7.872993 3.136075
H 63.759362 -5.193860 1.214863
H 60.328966 -4.491922 -0.284636
H 58.571446 -2.657465 0.062391
C 70.054799 -0.020012 -0.056157
C 70.850547 1.346518 -0.153603
C 70.350067 2.566025 -0.562323
C 71.388888 3.520934 -0.415085
C 72.492134 2.853001 0.073135
N 72.177560 1.519750 0.154015
C 73.878185 3.498238 0.480633
C 73.859828 4.889454 0.985053
C 74.238842 5.957312 0.161523
C 74.206201 7.266319 0.653912
C 74.611567 8.373010 -0.245789
O 74.583371 9.577913 0.360270
O 74.945315 8.289542 -1.413002
C 73.791464 7.506322 1.972851
C 73.410810 6.443724 2.793379
C 73.444233 5.140641 2.299040
C 75.015574 2.756763 0.435468
C 76.300839 3.281677 0.848322
C 77.210207 2.323900 0.702776
N 75.226414 1.461544 0.052489
C 76.549820 1.139544 0.191902
C 77.213253 -0.020012 -0.056157
C 76.418016 -1.278031 -0.599626
C 76.921046 -2.295990 -1.383978
C 75.883172 -3.246763 -1.560236
C 74.777235 -2.776165 -0.883655
N 75.090688 -1.543523 -0.368025
C 73.388732 -3.518534 -0.719976
C 73.396836 -4.998351 -0.765663
C 72.960724 -5.670677 -1.915774
C 72.980437 -7.063874 -1.971038
C 73.441204 -7.793409 -0.874380
C 73.883043 -7.130519 0.280376
C 74.364475 -7.952470 1.415967
O 74.755298 -7.219503 2.472058
O 74.420838 -9.170417 1.442015
C 73.861426 -5.732670 0.332328
C 72.253025 -2.803519 -0.507463
C 70.965917 -3.434908 -0.299735
C 70.057103 -2.482924 -0.117413
C 70.719112 -1.196656 -0.199609
N 72.044421 -1.454949 -0.426654
H 69.344813 2.754484 -0.907496
H 71.331842 4.578791 -0.622509
H 72.835106 0.774424 0.364115
H 74.559888 5.749064 -0.857714
H 74.875742 10.174340 -0.359139
H 73.760404 8.516797 2.369408
H 73.088285 6.622836 3.814377
H 73.150031 4.303428 2.929767
H 76.496364 4.272863 1.216024
H 78.254757 2.428334 0.933145
H 77.927576 -2.360500 -1.768656
H 75.942458 -4.178220 -2.102739
H 74.432135 -0.909232 0.074754
H 72.602464 -5.088545 -2.763214
H 72.636719 -7.572310 -2.866423
H 73.455383 -8.879264 -0.920908
H 75.046854 -7.872993 3.136075
H 74.199923 -5.193860 1.214863
H 70.769527 -4.491922 -0.284636
H 69.012007 -2.657465 0.062391
