 xtb: 6.5.1 (b24c23e)
          07302223233D

348382  0     0  0            999 V2000
   70.4503    0.4627    0.0445 C   0  0  0  0  0  0  0  0  0  0  0  0
   71.0505    0.5374   -1.2061 C   0  0  0  0  0  0  0  0  0  0  0  0
   70.3871    0.6473   -2.4599 C   0  0  0  0  0  0  0  0  0  0  0  0
   71.3387    0.6469   -3.4414 C   0  0  0  0  0  0  0  0  0  0  0  0
   72.6149    0.5499   -2.8181 C   0  0  0  0  0  0  0  0  0  0  0  0
   72.3898    0.4841   -1.4719 N   0  0  0  0  0  0  0  0  0  0  0  0
   73.8697    0.4956   -3.4379 C   0  0  0  0  0  0  0  0  0  0  0  0
   73.8898    0.5980   -4.9156 C   0  0  0  0  0  0  0  0  0  0  0  0
   74.4347   -0.4258   -5.6930 C   0  0  0  0  0  0  0  0  0  0  0  0
   74.4485   -0.3463   -7.0750 C   0  0  0  0  0  0  0  0  0  0  0  0
   73.9139    0.7733   -7.7191 C   0  0  0  0  0  0  0  0  0  0  0  0
   73.9507    0.9309   -9.0968 N   0  0  0  0  0  0  0  0  0  0  0  0
   74.0312   -0.2437   -9.9548 C   0  0  0  0  0  0  0  0  0  0  0  0
   73.3790    1.8093   -6.9436 C   0  0  0  0  0  0  0  0  0  0  0  0
   73.3623    1.7179   -5.5646 C   0  0  0  0  0  0  0  0  0  0  0  0
   75.0857    0.3548   -2.7634 C   0  0  0  0  0  0  0  0  0  0  0  0
   76.3817    0.3922   -3.4159 C   0  0  0  0  0  0  0  0  0  0  0  0
   77.3053    0.2579   -2.4413 C   0  0  0  0  0  0  0  0  0  0  0  0
   75.2448    0.2086   -1.4186 N   0  0  0  0  0  0  0  0  0  0  0  0
   76.5729    0.1428   -1.1956 C   0  0  0  0  0  0  0  0  0  0  0  0
   77.2153    0.0028    0.0519 C   0  0  0  0  0  0  0  0  0  0  0  0
   76.5871   -0.0935    1.3089 C   0  0  0  0  0  0  0  0  0  0  0  0
   77.2411   -0.2150    2.5628 C   0  0  0  0  0  0  0  0  0  0  0  0
   76.2815   -0.2615    3.5367 C   0  0  0  0  0  0  0  0  0  0  0  0
   75.0105   -0.1756    2.9054 C   0  0  0  0  0  0  0  0  0  0  0  0
   75.2476   -0.0735    1.5595 N   0  0  0  0  0  0  0  0  0  0  0  0
   73.7548   -0.1515    3.5242 C   0  0  0  0  0  0  0  0  0  0  0  0
   73.7301   -0.3123    4.9958 C   0  0  0  0  0  0  0  0  0  0  0  0
   73.1702    0.6709    5.8140 C   0  0  0  0  0  0  0  0  0  0  0  0
   73.1442    0.5282    7.1908 C   0  0  0  0  0  0  0  0  0  0  0  0
   73.6814   -0.6157    7.7885 C   0  0  0  0  0  0  0  0  0  0  0  0
   73.6296   -0.8382    9.1565 N   0  0  0  0  0  0  0  0  0  0  0  0
   73.5268    0.2931   10.0684 C   0  0  0  0  0  0  0  0  0  0  0  0
   74.2347   -1.6098    6.9719 C   0  0  0  0  0  0  0  0  0  0  0  0
   74.2636   -1.4553    5.5989 C   0  0  0  0  0  0  0  0  0  0  0  0
   72.5394    0.0147    2.8501 C   0  0  0  0  0  0  0  0  0  0  0  0
   71.2353   -0.0199    3.4932 C   0  0  0  0  0  0  0  0  0  0  0  0
   70.3222    0.1633    2.5177 C   0  0  0  0  0  0  0  0  0  0  0  0
   71.0661    0.2947    1.2779 C   0  0  0  0  0  0  0  0  0  0  0  0
   72.3974    0.1977    1.5157 N   0  0  0  0  0  0  0  0  0  0  0  0
   69.3663    0.5213    0.0460 H   0  0  0  0  0  0  0  0  0  0  0  0
   69.3173    0.7066   -2.5826 H   0  0  0  0  0  0  0  0  0  0  0  0
   71.1743    0.6958   -4.5057 H   0  0  0  0  0  0  0  0  0  0  0  0
   73.1208    0.3899   -0.7746 H   0  0  0  0  0  0  0  0  0  0  0  0
   74.8355   -1.3081   -5.2060 H   0  0  0  0  0  0  0  0  0  0  0  0
   74.8772   -1.1600   -7.6471 H   0  0  0  0  0  0  0  0  0  0  0  0
   73.2745    1.6068   -9.4313 H   0  0  0  0  0  0  0  0  0  0  0  0
   73.2499   -0.9737   -9.7136 H   0  0  0  0  0  0  0  0  0  0  0  0
   73.9110    0.0848  -10.9872 H   0  0  0  0  0  0  0  0  0  0  0  0
   75.0087   -0.7165   -9.8508 H   0  0  0  0  0  0  0  0  0  0  0  0
   72.9771    2.6898   -7.4339 H   0  0  0  0  0  0  0  0  0  0  0  0
   72.9559    2.5345   -4.9776 H   0  0  0  0  0  0  0  0  0  0  0  0
   76.5433    0.5270   -4.4731 H   0  0  0  0  0  0  0  0  0  0  0  0
   78.3799    0.2429   -2.5306 H   0  0  0  0  0  0  0  0  0  0  0  0
   78.3105   -0.2540    2.6943 H   0  0  0  0  0  0  0  0  0  0  0  0
   76.4391   -0.3323    4.6006 H   0  0  0  0  0  0  0  0  0  0  0  0
   74.5205    0.0209    0.8580 H   0  0  0  0  0  0  0  0  0  0  0  0
   72.7678    1.5723    5.3645 H   0  0  0  0  0  0  0  0  0  0  0  0
   72.7036    1.3116    7.7952 H   0  0  0  0  0  0  0  0  0  0  0  0
   74.3067   -1.5243    9.4676 H   0  0  0  0  0  0  0  0  0  0  0  0
   72.5466    0.7621    9.9734 H   0  0  0  0  0  0  0  0  0  0  0  0
   74.3047    1.0404    9.8734 H   0  0  0  0  0  0  0  0  0  0  0  0
   73.6359   -0.0835   11.0855 H   0  0  0  0  0  0  0  0  0  0  0  0
   74.6405   -2.5080    7.4254 H   0  0  0  0  0  0  0  0  0  0  0  0
   74.6840   -2.2400    4.9792 H   0  0  0  0  0  0  0  0  0  0  0  0
   71.0638   -0.1822    4.5451 H   0  0  0  0  0  0  0  0  0  0  0  0
   69.2466    0.1971    2.5969 H   0  0  0  0  0  0  0  0  0  0  0  0
  130.9427    0.4317   -0.0687 C   0  0  0  0  0  0  0  0  0  0  0  0
  130.3427    0.5726    1.1764 C   0  0  0  0  0  0  0  0  0  0  0  0
  131.0060    0.7556    2.4216 C   0  0  0  0  0  0  0  0  0  0  0  0
  130.0549    0.8058    3.4022 C   0  0  0  0  0  0  0  0  0  0  0  0
  128.7789    0.6676    2.7862 C   0  0  0  0  0  0  0  0  0  0  0  0
  129.0038    0.5279    1.4456 N   0  0  0  0  0  0  0  0  0  0  0  0
  127.5247    0.6409    3.4090 C   0  0  0  0  0  0  0  0  0  0  0  0
  127.5037    0.8268    4.8785 C   0  0  0  0  0  0  0  0  0  0  0  0
  126.9642   -0.1541    5.7129 C   0  0  0  0  0  0  0  0  0  0  0  0
  126.9460    0.0055    7.0879 C   0  0  0  0  0  0  0  0  0  0  0  0
  127.4707    1.1646    7.6671 C   0  0  0  0  0  0  0  0  0  0  0  0
  127.4275    1.4024    9.0329 N   0  0  0  0  0  0  0  0  0  0  0  0
  127.3480    0.2803    9.9584 C   0  0  0  0  0  0  0  0  0  0  0  0
  128.0013    2.1571    6.8339 C   0  0  0  0  0  0  0  0  0  0  0  0
  128.0224    1.9859    5.4625 C   0  0  0  0  0  0  0  0  0  0  0  0
  126.3094    0.4552    2.7444 C   0  0  0  0  0  0  0  0  0  0  0  0
  125.0134    0.5195    3.3948 C   0  0  0  0  0  0  0  0  0  0  0  0
  124.0904    0.3251    2.4299 C   0  0  0  0  0  0  0  0  0  0  0  0
  126.1509    0.2343    1.4097 N   0  0  0  0  0  0  0  0  0  0  0  0
  124.8233    0.1474    1.1917 C   0  0  0  0  0  0  0  0  0  0  0  0
  124.1813   -0.0637   -0.0459 C   0  0  0  0  0  0  0  0  0  0  0  0
  124.8090   -0.2198   -1.2971 C   0  0  0  0  0  0  0  0  0  0  0  0
  124.1542   -0.4060   -2.5426 C   0  0  0  0  0  0  0  0  0  0  0  0
  125.1130   -0.4952   -3.5143 C   0  0  0  0  0  0  0  0  0  0  0  0
  126.3843   -0.3728   -2.8894 C   0  0  0  0  0  0  0  0  0  0  0  0
  126.1480   -0.2054   -1.5499 N   0  0  0  0  0  0  0  0  0  0  0  0
  127.6394   -0.3752   -3.5100 C   0  0  0  0  0  0  0  0  0  0  0  0
  127.6619   -0.6088   -4.9717 C   0  0  0  0  0  0  0  0  0  0  0  0
  128.2181    0.3336   -5.8391 C   0  0  0  0  0  0  0  0  0  0  0  0
  128.2361    0.1253   -7.2076 C   0  0  0  0  0  0  0  0  0  0  0  0
  127.6941   -1.0451   -7.7470 C   0  0  0  0  0  0  0  0  0  0  0  0
  127.7348   -1.3310   -9.1036 N   0  0  0  0  0  0  0  0  0  0  0  0
  127.8250   -0.2423  -10.0675 C   0  0  0  0  0  0  0  0  0  0  0  0
  127.1469   -1.9995   -6.8806 C   0  0  0  0  0  0  0  0  0  0  0  0
  127.1260   -1.7796   -5.5164 C   0  0  0  0  0  0  0  0  0  0  0  0
  128.8546   -0.1710   -2.8459 C   0  0  0  0  0  0  0  0  0  0  0  0
  130.1585   -0.2350   -3.4869 C   0  0  0  0  0  0  0  0  0  0  0  0
  131.0714    0.0013   -2.5225 C   0  0  0  0  0  0  0  0  0  0  0  0
  130.3273    0.1952   -1.2910 C   0  0  0  0  0  0  0  0  0  0  0  0
  128.9963    0.0815   -1.5229 N   0  0  0  0  0  0  0  0  0  0  0  0
  132.0265    0.4944   -0.0739 H   0  0  0  0  0  0  0  0  0  0  0  0
  132.0755    0.8268    2.5401 H   0  0  0  0  0  0  0  0  0  0  0  0
  130.2192    0.9152    4.4620 H   0  0  0  0  0  0  0  0  0  0  0  0
  128.2729    0.3915    0.7552 H   0  0  0  0  0  0  0  0  0  0  0  0
  126.5707   -1.0660    5.2771 H   0  0  0  0  0  0  0  0  0  0  0  0
  126.5214   -0.7766    7.7053 H   0  0  0  0  0  0  0  0  0  0  0  0
  128.0981    2.1010    9.3300 H   0  0  0  0  0  0  0  0  0  0  0  0
  128.1336   -0.4591    9.7643 H   0  0  0  0  0  0  0  0  0  0  0  0
  127.4619    0.6697   10.9701 H   0  0  0  0  0  0  0  0  0  0  0  0
  126.3731   -0.2022    9.8781 H   0  0  0  0  0  0  0  0  0  0  0  0
  128.3959    3.0674    7.2731 H   0  0  0  0  0  0  0  0  0  0  0  0
  128.4249    2.7697    4.8300 H   0  0  0  0  0  0  0  0  0  0  0  0
  124.8511    0.7110    4.4432 H   0  0  0  0  0  0  0  0  0  0  0  0
  123.0160    0.3075    2.5206 H   0  0  0  0  0  0  0  0  0  0  0  0
  123.0849   -0.4564   -2.6707 H   0  0  0  0  0  0  0  0  0  0  0  0
  124.9544   -0.6182   -4.5732 H   0  0  0  0  0  0  0  0  0  0  0  0
  126.8754   -0.0725   -0.8549 H   0  0  0  0  0  0  0  0  0  0  0  0
  128.6231    1.2554   -5.4355 H   0  0  0  0  0  0  0  0  0  0  0  0
  128.6733    0.8786   -7.8514 H   0  0  0  0  0  0  0  0  0  0  0  0
  127.0557   -2.0314   -9.3760 H   0  0  0  0  0  0  0  0  0  0  0  0
  128.8054    0.2317  -10.0055 H   0  0  0  0  0  0  0  0  0  0  0  0
  127.0482    0.5120   -9.8974 H   0  0  0  0  0  0  0  0  0  0  0  0
  127.7046   -0.6650  -11.0649 H   0  0  0  0  0  0  0  0  0  0  0  0
  126.7383   -2.9182   -7.2884 H   0  0  0  0  0  0  0  0  0  0  0  0
  126.7094   -2.5338   -4.8576 H   0  0  0  0  0  0  0  0  0  0  0  0
  130.3302   -0.4515   -4.5290 H   0  0  0  0  0  0  0  0  0  0  0  0
  132.1468    0.0341   -2.6038 H   0  0  0  0  0  0  0  0  0  0  0  0
   79.8430   -0.0467    0.0635 C   0  0  0  0  0  0  0  0  0  0  0  0
   78.6204   -0.0297    0.0578 C   0  0  0  0  0  0  0  0  0  0  0  0
   81.1917   -0.0550    0.0659 C   0  0  0  0  0  0  0  0  0  0  0  0
   82.4146   -0.0549    0.0622 C   0  0  0  0  0  0  0  0  0  0  0  0
   93.2986   -0.0227    0.0346 C   0  0  0  0  0  0  0  0  0  0  0  0
   92.0755   -0.0367    0.0444 C   0  0  0  0  0  0  0  0  0  0  0  0
   94.6466   -0.0050    0.0286 C   0  0  0  0  0  0  0  0  0  0  0  0
   95.8696    0.0089    0.0171 C   0  0  0  0  0  0  0  0  0  0  0  0
  106.7538   -0.0239   -0.0269 C   0  0  0  0  0  0  0  0  0  0  0  0
  105.5308   -0.0158   -0.0164 C   0  0  0  0  0  0  0  0  0  0  0  0
  108.1019   -0.0322   -0.0325 C   0  0  0  0  0  0  0  0  0  0  0  0
  109.3250   -0.0419   -0.0424 C   0  0  0  0  0  0  0  0  0  0  0  0
  120.2057   -0.1590   -0.0514 C   0  0  0  0  0  0  0  0  0  0  0  0
  118.9830   -0.1688   -0.0468 C   0  0  0  0  0  0  0  0  0  0  0  0
  121.5542   -0.1359   -0.0529 C   0  0  0  0  0  0  0  0  0  0  0  0
  122.7765   -0.1074   -0.0485 C   0  0  0  0  0  0  0  0  0  0  0  0
   83.8191   -0.0422    0.0596 C   0  0  0  0  0  0  0  0  0  0  0  0
   84.4457   -0.0001    1.3208 C   0  0  0  0  0  0  0  0  0  0  0  0
   83.7946   -0.0095    2.5805 C   0  0  0  0  0  0  0  0  0  0  0  0
   84.7582    0.0207    3.5523 C   0  0  0  0  0  0  0  0  0  0  0  0
   86.0260    0.0599    2.9123 C   0  0  0  0  0  0  0  0  0  0  0  0
   85.7862    0.0393    1.5639 N   0  0  0  0  0  0  0  0  0  0  0  0
   87.2853    0.0829    3.5273 C   0  0  0  0  0  0  0  0  0  0  0  0
   87.2955    0.1417    5.0078 C   0  0  0  0  0  0  0  0  0  0  0  0
   87.9135   -0.8618    5.7596 C   0  0  0  0  0  0  0  0  0  0  0  0
   87.9138   -0.8119    7.1406 C   0  0  0  0  0  0  0  0  0  0  0  0
   87.2995    0.2508    7.8147 C   0  0  0  0  0  0  0  0  0  0  0  0
   87.3744    0.2872    9.1994 N   0  0  0  0  0  0  0  0  0  0  0  0
   86.3815    1.0398    9.9545 C   0  0  0  0  0  0  0  0  0  0  0  0
   86.6940    1.2652    7.0677 C   0  0  0  0  0  0  0  0  0  0  0  0
   86.6879    1.2009    5.6847 C   0  0  0  0  0  0  0  0  0  0  0  0
   88.5101    0.0567    2.8571 C   0  0  0  0  0  0  0  0  0  0  0  0
   89.7973    0.1531    3.5209 C   0  0  0  0  0  0  0  0  0  0  0  0
   90.7336    0.1070    2.5501 C   0  0  0  0  0  0  0  0  0  0  0  0
   88.6859   -0.0286    1.5089 N   0  0  0  0  0  0  0  0  0  0  0  0
   90.0169   -0.0055    1.2959 C   0  0  0  0  0  0  0  0  0  0  0  0
   90.6716   -0.0561    0.0479 C   0  0  0  0  0  0  0  0  0  0  0  0
   90.0450   -0.1050   -1.2133 C   0  0  0  0  0  0  0  0  0  0  0  0
   90.6964   -0.0977   -2.4730 C   0  0  0  0  0  0  0  0  0  0  0  0
   89.7330   -0.1201   -3.4450 C   0  0  0  0  0  0  0  0  0  0  0  0
   88.4648   -0.1532   -2.8052 C   0  0  0  0  0  0  0  0  0  0  0  0
   88.7045   -0.1385   -1.4565 N   0  0  0  0  0  0  0  0  0  0  0  0
   87.2055   -0.1628   -3.4200 C   0  0  0  0  0  0  0  0  0  0  0  0
   87.1916   -0.2035   -4.9011 C   0  0  0  0  0  0  0  0  0  0  0  0
   86.5821    0.8150   -5.6363 C   0  0  0  0  0  0  0  0  0  0  0  0
   86.5648    0.7875   -7.0202 C   0  0  0  0  0  0  0  0  0  0  0  0
   87.1481   -0.2801   -7.7085 C   0  0  0  0  0  0  0  0  0  0  0  0
   87.1970   -0.3370   -9.0938 N   0  0  0  0  0  0  0  0  0  0  0  0
   86.1891    0.3654   -9.8774 C   0  0  0  0  0  0  0  0  0  0  0  0
   87.7665   -1.3009   -6.9761 C   0  0  0  0  0  0  0  0  0  0  0  0
   87.7900   -1.2591   -5.5948 C   0  0  0  0  0  0  0  0  0  0  0  0
   85.9806   -0.1359   -2.7494 C   0  0  0  0  0  0  0  0  0  0  0  0
   84.6932   -0.2202   -3.4147 C   0  0  0  0  0  0  0  0  0  0  0  0
   83.7567   -0.1805   -2.4439 C   0  0  0  0  0  0  0  0  0  0  0  0
   84.4734   -0.0830   -1.1884 C   0  0  0  0  0  0  0  0  0  0  0  0
   85.8048   -0.0631   -1.4007 N   0  0  0  0  0  0  0  0  0  0  0  0
   82.7258   -0.0444    2.7179 H   0  0  0  0  0  0  0  0  0  0  0  0
   84.6042    0.0024    4.6189 H   0  0  0  0  0  0  0  0  0  0  0  0
   86.5088    0.0431    0.8517 H   0  0  0  0  0  0  0  0  0  0  0  0
   88.3769   -1.7006    5.2520 H   0  0  0  0  0  0  0  0  0  0  0  0
   88.3903   -1.6016    7.7119 H   0  0  0  0  0  0  0  0  0  0  0  0
   87.5570   -0.6231    9.6046 H   0  0  0  0  0  0  0  0  0  0  0  0
   85.3608    0.7580    9.6711 H   0  0  0  0  0  0  0  0  0  0  0  0
   86.5328    0.8292   11.0132 H   0  0  0  0  0  0  0  0  0  0  0  0
   86.5175    2.1093    9.7888 H   0  0  0  0  0  0  0  0  0  0  0  0
   86.2290    2.1107    7.5598 H   0  0  0  0  0  0  0  0  0  0  0  0
   86.2242    2.0004    5.1169 H   0  0  0  0  0  0  0  0  0  0  0  0
   89.9445    0.2616    4.5833 H   0  0  0  0  0  0  0  0  0  0  0  0
   91.8066    0.1547    2.6468 H   0  0  0  0  0  0  0  0  0  0  0  0
   91.7653   -0.0679   -2.6103 H   0  0  0  0  0  0  0  0  0  0  0  0
   89.8871   -0.1000   -4.5115 H   0  0  0  0  0  0  0  0  0  0  0  0
   87.9817   -0.1374   -0.7446 H   0  0  0  0  0  0  0  0  0  0  0  0
   86.1339    1.6534   -5.1142 H   0  0  0  0  0  0  0  0  0  0  0  0
   86.0980    1.6026   -7.5596 H   0  0  0  0  0  0  0  0  0  0  0  0
   87.3673   -1.2740   -9.4392 H   0  0  0  0  0  0  0  0  0  0  0  0
   86.3311    1.4432   -9.7895 H   0  0  0  0  0  0  0  0  0  0  0  0
   86.3164    0.0811  -10.9219 H   0  0  0  0  0  0  0  0  0  0  0  0
   85.1746    0.1076   -9.5524 H   0  0  0  0  0  0  0  0  0  0  0  0
   88.2263   -2.1313   -7.5016 H   0  0  0  0  0  0  0  0  0  0  0  0
   88.2545   -2.0679   -5.0412 H   0  0  0  0  0  0  0  0  0  0  0  0
   84.5460   -0.3170   -4.4781 H   0  0  0  0  0  0  0  0  0  0  0  0
   82.6836   -0.2231   -2.5415 H   0  0  0  0  0  0  0  0  0  0  0  0
   97.2735    0.0296    0.0109 C   0  0  0  0  0  0  0  0  0  0  0  0
   97.9025    0.0940    1.2703 C   0  0  0  0  0  0  0  0  0  0  0  0
   97.2535    0.1070    2.5311 C   0  0  0  0  0  0  0  0  0  0  0  0
   98.2190    0.1446    3.5008 C   0  0  0  0  0  0  0  0  0  0  0  0
   99.4859    0.1656    2.8581 C   0  0  0  0  0  0  0  0  0  0  0  0
   99.2435    0.1299    1.5104 N   0  0  0  0  0  0  0  0  0  0  0  0
  100.7464    0.1807    3.4708 C   0  0  0  0  0  0  0  0  0  0  0  0
  100.7602    0.2464    4.9511 C   0  0  0  0  0  0  0  0  0  0  0  0
  101.3639   -0.7642    5.7050 C   0  0  0  0  0  0  0  0  0  0  0  0
  101.3669   -0.7104    7.0858 C   0  0  0  0  0  0  0  0  0  0  0  0
  100.7705    0.3639    7.7575 C   0  0  0  0  0  0  0  0  0  0  0  0
  100.8475    0.4029    9.1419 N   0  0  0  0  0  0  0  0  0  0  0  0
   99.8695    1.1756    9.8961 C   0  0  0  0  0  0  0  0  0  0  0  0
  100.1801    1.3857    7.0083 C   0  0  0  0  0  0  0  0  0  0  0  0
  100.1703    1.3171    5.6255 C   0  0  0  0  0  0  0  0  0  0  0  0
  101.9700    0.1360    2.7994 C   0  0  0  0  0  0  0  0  0  0  0  0
  103.2589    0.2218    3.4614 C   0  0  0  0  0  0  0  0  0  0  0  0
  104.1936    0.1590    2.4900 C   0  0  0  0  0  0  0  0  0  0  0  0
  102.1433    0.0402    1.4516 N   0  0  0  0  0  0  0  0  0  0  0  0
  103.4743    0.0470    1.2372 C   0  0  0  0  0  0  0  0  0  0  0  0
  104.1267   -0.0175   -0.0111 C   0  0  0  0  0  0  0  0  0  0  0  0
  103.4978   -0.0664   -1.2713 C   0  0  0  0  0  0  0  0  0  0  0  0
  104.1472   -0.0675   -2.5319 C   0  0  0  0  0  0  0  0  0  0  0  0
  103.1820   -0.0914   -3.5022 C   0  0  0  0  0  0  0  0  0  0  0  0
  101.9148   -0.1175   -2.8601 C   0  0  0  0  0  0  0  0  0  0  0  0
  102.1568   -0.0953   -1.5120 N   0  0  0  0  0  0  0  0  0  0  0  0
  100.6544   -0.1325   -3.4729 C   0  0  0  0  0  0  0  0  0  0  0  0
  100.6398   -0.1893   -4.9534 C   0  0  0  0  0  0  0  0  0  0  0  0
  100.0302    0.8206   -5.7003 C   0  0  0  0  0  0  0  0  0  0  0  0
  100.0171    0.7794   -7.0840 C   0  0  0  0  0  0  0  0  0  0  0  0
  100.6048   -0.2936   -7.7601 C   0  0  0  0  0  0  0  0  0  0  0  0
  100.6604   -0.3631   -9.1445 N   0  0  0  0  0  0  0  0  0  0  0  0
   99.6599    0.3354   -9.9406 C   0  0  0  0  0  0  0  0  0  0  0  0
  101.2213   -1.3069   -7.0159 C   0  0  0  0  0  0  0  0  0  0  0  0
  101.2408   -1.2514   -5.6351 C   0  0  0  0  0  0  0  0  0  0  0  0
   99.4307   -0.0998   -2.8007 C   0  0  0  0  0  0  0  0  0  0  0  0
   98.1424   -0.1952   -3.4625 C   0  0  0  0  0  0  0  0  0  0  0  0
   97.2075   -0.1461   -2.4904 C   0  0  0  0  0  0  0  0  0  0  0  0
   97.9261   -0.0305   -1.2377 C   0  0  0  0  0  0  0  0  0  0  0  0
   99.2569   -0.0105   -1.4525 N   0  0  0  0  0  0  0  0  0  0  0  0
   96.1849    0.0809    2.6710 H   0  0  0  0  0  0  0  0  0  0  0  0
   98.0670    0.1425    4.5677 H   0  0  0  0  0  0  0  0  0  0  0  0
   99.9649    0.1178    0.7971 H   0  0  0  0  0  0  0  0  0  0  0  0
  101.8136   -1.6116    5.1990 H   0  0  0  0  0  0  0  0  0  0  0  0
  101.8317   -1.5058    7.6587 H   0  0  0  0  0  0  0  0  0  0  0  0
  101.0151   -0.5091    9.5497 H   0  0  0  0  0  0  0  0  0  0  0  0
   98.8435    0.9136    9.6128 H   0  0  0  0  0  0  0  0  0  0  0  0
  100.0166    0.9630   10.9550 H   0  0  0  0  0  0  0  0  0  0  0  0
  100.0266    2.2420    9.7293 H   0  0  0  0  0  0  0  0  0  0  0  0
   99.7295    2.2399    7.4986 H   0  0  0  0  0  0  0  0  0  0  0  0
   99.7181    2.1219    5.0559 H   0  0  0  0  0  0  0  0  0  0  0  0
  103.4082    0.3349    4.5229 H   0  0  0  0  0  0  0  0  0  0  0  0
  105.2672    0.1952    2.5853 H   0  0  0  0  0  0  0  0  0  0  0  0
  105.2159   -0.0420   -2.6711 H   0  0  0  0  0  0  0  0  0  0  0  0
  103.3345   -0.0769   -4.5690 H   0  0  0  0  0  0  0  0  0  0  0  0
  101.4351   -0.0883   -0.7989 H   0  0  0  0  0  0  0  0  0  0  0  0
   99.5792    1.6634   -5.1879 H   0  0  0  0  0  0  0  0  0  0  0  0
   99.5508    1.5884   -7.6328 H   0  0  0  0  0  0  0  0  0  0  0  0
  100.8316   -1.3031   -9.4811 H   0  0  0  0  0  0  0  0  0  0  0  0
   99.8044    1.4135   -9.8607 H   0  0  0  0  0  0  0  0  0  0  0  0
   99.7935    0.0420  -10.9819 H   0  0  0  0  0  0  0  0  0  0  0  0
   98.6425    0.0831   -9.6206 H   0  0  0  0  0  0  0  0  0  0  0  0
  101.6837   -2.1419   -7.5318 H   0  0  0  0  0  0  0  0  0  0  0  0
  101.7048   -2.0540   -5.0722 H   0  0  0  0  0  0  0  0  0  0  0  0
   97.9938   -0.3053   -4.5246 H   0  0  0  0  0  0  0  0  0  0  0  0
   96.1343   -0.1925   -2.5856 H   0  0  0  0  0  0  0  0  0  0  0  0
  110.7291   -0.0462   -0.0443 C   0  0  0  0  0  0  0  0  0  0  0  0
  111.3547    0.0132    1.2170 C   0  0  0  0  0  0  0  0  0  0  0  0
  110.7016    0.0417    2.4755 C   0  0  0  0  0  0  0  0  0  0  0  0
  111.6642    0.0714    3.4483 C   0  0  0  0  0  0  0  0  0  0  0  0
  112.9334    0.0720    2.8099 C   0  0  0  0  0  0  0  0  0  0  0  0
  112.6952    0.0313    1.4615 N   0  0  0  0  0  0  0  0  0  0  0  0
  114.1919    0.0777    3.4264 C   0  0  0  0  0  0  0  0  0  0  0  0
  114.2039    0.1579    4.9059 C   0  0  0  0  0  0  0  0  0  0  0  0
  114.7983   -0.8498    5.6709 C   0  0  0  0  0  0  0  0  0  0  0  0
  114.8035   -0.7796    7.0509 C   0  0  0  0  0  0  0  0  0  0  0  0
  114.2190    0.3087    7.7106 C   0  0  0  0  0  0  0  0  0  0  0  0
  114.3001    0.3643    9.0940 N   0  0  0  0  0  0  0  0  0  0  0  0
  113.3342    1.1585    9.8413 C   0  0  0  0  0  0  0  0  0  0  0  0
  113.6369    1.3268    6.9499 C   0  0  0  0  0  0  0  0  0  0  0  0
  113.6246    1.2419    5.5681 C   0  0  0  0  0  0  0  0  0  0  0  0
  115.4168    0.0161    2.7583 C   0  0  0  0  0  0  0  0  0  0  0  0
  116.7048    0.0992    3.4225 C   0  0  0  0  0  0  0  0  0  0  0  0
  117.6412    0.0233    2.4538 C   0  0  0  0  0  0  0  0  0  0  0  0
  115.5922   -0.0928    1.4119 N   0  0  0  0  0  0  0  0  0  0  0  0
  116.9239   -0.0954    1.2004 C   0  0  0  0  0  0  0  0  0  0  0  0
  117.5785   -0.1754   -0.0455 C   0  0  0  0  0  0  0  0  0  0  0  0
  116.9533   -0.2383   -1.3066 C   0  0  0  0  0  0  0  0  0  0  0  0
  117.6069   -0.2611   -2.5649 C   0  0  0  0  0  0  0  0  0  0  0  0
  116.6448   -0.2833   -3.5383 C   0  0  0  0  0  0  0  0  0  0  0  0
  115.3753   -0.2861   -2.9006 C   0  0  0  0  0  0  0  0  0  0  0  0
  115.6128   -0.2554   -1.5519 N   0  0  0  0  0  0  0  0  0  0  0  0
  114.1167   -0.2832   -3.5172 C   0  0  0  0  0  0  0  0  0  0  0  0
  114.1056   -0.3402   -4.9978 C   0  0  0  0  0  0  0  0  0  0  0  0
  113.5171    0.6819   -5.7450 C   0  0  0  0  0  0  0  0  0  0  0  0
  113.5085    0.6439   -7.1288 C   0  0  0  0  0  0  0  0  0  0  0  0
  114.0793   -0.4383   -7.8049 C   0  0  0  0  0  0  0  0  0  0  0  0
  114.1391   -0.5056   -9.1892 N   0  0  0  0  0  0  0  0  0  0  0  0
  113.1571    0.2164   -9.9874 C   0  0  0  0  0  0  0  0  0  0  0  0
  114.6744   -1.4641   -7.0603 C   0  0  0  0  0  0  0  0  0  0  0  0
  114.6896   -1.4118   -5.6793 C   0  0  0  0  0  0  0  0  0  0  0  0
  112.8919   -0.2262   -2.8488 C   0  0  0  0  0  0  0  0  0  0  0  0
  111.6040   -0.3008   -3.5142 C   0  0  0  0  0  0  0  0  0  0  0  0
  110.6673   -0.2310   -2.5451 C   0  0  0  0  0  0  0  0  0  0  0  0
  111.3843   -0.1233   -1.2906 C   0  0  0  0  0  0  0  0  0  0  0  0
  112.7158   -0.1284   -1.5015 N   0  0  0  0  0  0  0  0  0  0  0  0
  109.6322    0.0309    2.6117 H   0  0  0  0  0  0  0  0  0  0  0  0
  111.5086    0.0775    4.5148 H   0  0  0  0  0  0  0  0  0  0  0  0
  113.4191    0.0059    0.7511 H   0  0  0  0  0  0  0  0  0  0  0  0
  115.2393   -1.7072    5.1745 H   0  0  0  0  0  0  0  0  0  0  0  0
  115.2614   -1.5727    7.6328 H   0  0  0  0  0  0  0  0  0  0  0  0
  114.4595   -0.5438    9.5134 H   0  0  0  0  0  0  0  0  0  0  0  0
  112.3042    0.9047    9.5656 H   0  0  0  0  0  0  0  0  0  0  0  0
  113.4830    0.9586   10.9024 H   0  0  0  0  0  0  0  0  0  0  0  0
  113.5029    2.2207    9.6595 H   0  0  0  0  0  0  0  0  0  0  0  0
  113.1954    2.1913    7.4305 H   0  0  0  0  0  0  0  0  0  0  0  0
  113.1796    2.0443    4.9895 H   0  0  0  0  0  0  0  0  0  0  0  0
  116.8525    0.2201    4.4834 H   0  0  0  0  0  0  0  0  0  0  0  0
  118.7146    0.0537    2.5513 H   0  0  0  0  0  0  0  0  0  0  0  0
  118.6764   -0.2504   -2.7005 H   0  0  0  0  0  0  0  0  0  0  0  0
  116.8013   -0.2819   -4.6046 H   0  0  0  0  0  0  0  0  0  0  0  0
  114.8888   -0.2302   -0.8416 H   0  0  0  0  0  0  0  0  0  0  0  0
  113.0795    1.5317   -5.2325 H   0  0  0  0  0  0  0  0  0  0  0  0
  113.0590    1.4623   -7.6775 H   0  0  0  0  0  0  0  0  0  0  0  0
  114.2916   -1.4481   -9.5277 H   0  0  0  0  0  0  0  0  0  0  0  0
  113.3249    1.2909   -9.9044 H   0  0  0  0  0  0  0  0  0  0  0  0
  113.2880   -0.0774  -11.0288 H   0  0  0  0  0  0  0  0  0  0  0  0
  112.1332   -0.0141   -9.6717 H   0  0  0  0  0  0  0  0  0  0  0  0
  115.1236   -2.3062   -7.5763 H   0  0  0  0  0  0  0  0  0  0  0  0
  115.1371   -2.2237   -5.1164 H   0  0  0  0  0  0  0  0  0  0  0  0
  111.4567   -0.4122   -4.5762 H   0  0  0  0  0  0  0  0  0  0  0  0
  109.5937   -0.2583   -2.6433 H   0  0  0  0  0  0  0  0  0  0  0  0
  1  2  4  0  0  0  0
  2  3  4  0  0  0  0
  3  4  2  0  0  0  0
  4  5  4  0  0  0  0
  2  6  4  0  0  0  0
  5  6  4  0  0  0  0
  5  7  4  0  0  0  0
  7  8  1  0  0  0  0
  8  9  4  0  0  0  0
  9 10  4  0  0  0  0
 10 11  4  0  0  0  0
 11 12  1  0  0  0  0
 12 13  1  0  0  0  0
 11 14  4  0  0  0  0
  8 15  4  0  0  0  0
 14 15  4  0  0  0  0
  7 16  4  0  0  0  0
 16 17  1  0  0  0  0
 17 18  2  0  0  0  0
 16 19  4  0  0  0  0
 18 20  1  0  0  0  0
 19 20  4  0  0  0  0
 20 21  4  0  0  0  0
 21 22  4  0  0  0  0
 22 23  4  0  0  0  0
 23 24  2  0  0  0  0
 24 25  4  0  0  0  0
 22 26  4  0  0  0  0
 25 26  4  0  0  0  0
 25 27  4  0  0  0  0
 27 28  1  0  0  0  0
 28 29  4  0  0  0  0
 29 30  4  0  0  0  0
 30 31  4  0  0  0  0
 31 32  1  0  0  0  0
 32 33  1  0  0  0  0
 31 34  4  0  0  0  0
 28 35  4  0  0  0  0
 34 35  4  0  0  0  0
 27 36  4  0  0  0  0
 36 37  1  0  0  0  0
 37 38  2  0  0  0  0
  1 39  4  0  0  0  0
 38 39  1  0  0  0  0
 36 40  4  0  0  0  0
 39 40  4  0  0  0  0
  1 41  1  0  0  0  0
  3 42  1  0  0  0  0
  4 43  1  0  0  0  0
  6 44  1  0  0  0  0
  9 45  1  0  0  0  0
 10 46  1  0  0  0  0
 12 47  1  0  0  0  0
 13 48  1  0  0  0  0
 13 49  1  0  0  0  0
 13 50  1  0  0  0  0
 14 51  1  0  0  0  0
 15 52  1  0  0  0  0
 17 53  1  0  0  0  0
 18 54  1  0  0  0  0
 23 55  1  0  0  0  0
 24 56  1  0  0  0  0
 26 57  1  0  0  0  0
 29 58  1  0  0  0  0
 30 59  1  0  0  0  0
 32 60  1  0  0  0  0
 33 61  1  0  0  0  0
 33 62  1  0  0  0  0
 33 63  1  0  0  0  0
 34 64  1  0  0  0  0
 35 65  1  0  0  0  0
 37 66  1  0  0  0  0
 38 67  1  0  0  0  0
 68 69  4  0  0  0  0
 69 70  4  0  0  0  0
 70 71  2  0  0  0  0
 71 72  4  0  0  0  0
 69 73  4  0  0  0  0
 72 73  4  0  0  0  0
 72 74  4  0  0  0  0
 74 75  1  0  0  0  0
 75 76  4  0  0  0  0
 76 77  4  0  0  0  0
 77 78  4  0  0  0  0
 78 79  1  0  0  0  0
 79 80  1  0  0  0  0
 78 81  4  0  0  0  0
 75 82  4  0  0  0  0
 81 82  4  0  0  0  0
 74 83  4  0  0  0  0
 83 84  1  0  0  0  0
 84 85  2  0  0  0  0
 83 86  4  0  0  0  0
 85 87  1  0  0  0  0
 86 87  4  0  0  0  0
 87 88  4  0  0  0  0
 88 89  4  0  0  0  0
 89 90  4  0  0  0  0
 90 91  2  0  0  0  0
 91 92  4  0  0  0  0
 89 93  4  0  0  0  0
 92 93  4  0  0  0  0
 92 94  4  0  0  0  0
 94 95  1  0  0  0  0
 95 96  4  0  0  0  0
 96 97  4  0  0  0  0
 97 98  4  0  0  0  0
 98 99  1  0  0  0  0
 99100  1  0  0  0  0
 98101  4  0  0  0  0
 95102  4  0  0  0  0
101102  4  0  0  0  0
 94103  4  0  0  0  0
103104  1  0  0  0  0
104105  2  0  0  0  0
 68106  4  0  0  0  0
105106  1  0  0  0  0
103107  4  0  0  0  0
106107  4  0  0  0  0
 68108  1  0  0  0  0
 70109  1  0  0  0  0
 71110  1  0  0  0  0
 73111  1  0  0  0  0
 76112  1  0  0  0  0
 77113  1  0  0  0  0
 79114  1  0  0  0  0
 80115  1  0  0  0  0
 80116  1  0  0  0  0
 80117  1  0  0  0  0
 81118  1  0  0  0  0
 82119  1  0  0  0  0
 84120  1  0  0  0  0
 85121  1  0  0  0  0
 90122  1  0  0  0  0
 91123  1  0  0  0  0
 93124  1  0  0  0  0
 96125  1  0  0  0  0
 97126  1  0  0  0  0
 99127  1  0  0  0  0
100128  1  0  0  0  0
100129  1  0  0  0  0
100130  1  0  0  0  0
101131  1  0  0  0  0
102132  1  0  0  0  0
104133  1  0  0  0  0
105134  1  0  0  0  0
 21136  4  0  0  0  0
135136  3  0  0  0  0
135137  4  0  0  0  0
137138  3  0  0  0  0
139140  3  0  0  0  0
139141  4  0  0  0  0
141142  3  0  0  0  0
143144  3  0  0  0  0
143145  4  0  0  0  0
145146  3  0  0  0  0
147148  3  0  0  0  0
147149  4  0  0  0  0
 88150  4  0  0  0  0
149150  3  0  0  0  0
138151  4  0  0  0  0
151152  4  0  0  0  0
152153  4  0  0  0  0
153154  2  0  0  0  0
154155  4  0  0  0  0
152156  4  0  0  0  0
155156  4  0  0  0  0
155157  4  0  0  0  0
157158  1  0  0  0  0
158159  4  0  0  0  0
159160  4  0  0  0  0
160161  4  0  0  0  0
161162  1  0  0  0  0
162163  1  0  0  0  0
161164  4  0  0  0  0
158165  4  0  0  0  0
164165  4  0  0  0  0
157166  4  0  0  0  0
166167  1  0  0  0  0
167168  2  0  0  0  0
166169  4  0  0  0  0
168170  1  0  0  0  0
169170  4  0  0  0  0
140171  4  0  0  0  0
170171  4  0  0  0  0
171172  4  0  0  0  0
172173  4  0  0  0  0
173174  2  0  0  0  0
174175  4  0  0  0  0
172176  4  0  0  0  0
175176  4  0  0  0  0
175177  4  0  0  0  0
177178  1  0  0  0  0
178179  4  0  0  0  0
179180  4  0  0  0  0
180181  4  0  0  0  0
181182  1  0  0  0  0
182183  1  0  0  0  0
181184  4  0  0  0  0
178185  4  0  0  0  0
184185  4  0  0  0  0
177186  4  0  0  0  0
186187  1  0  0  0  0
187188  2  0  0  0  0
151189  4  0  0  0  0
188189  1  0  0  0  0
186190  4  0  0  0  0
189190  4  0  0  0  0
153191  1  0  0  0  0
154192  1  0  0  0  0
156193  1  0  0  0  0
159194  1  0  0  0  0
160195  1  0  0  0  0
162196  1  0  0  0  0
163197  1  0  0  0  0
163198  1  0  0  0  0
163199  1  0  0  0  0
164200  1  0  0  0  0
165201  1  0  0  0  0
167202  1  0  0  0  0
168203  1  0  0  0  0
173204  1  0  0  0  0
174205  1  0  0  0  0
176206  1  0  0  0  0
179207  1  0  0  0  0
180208  1  0  0  0  0
182209  1  0  0  0  0
183210  1  0  0  0  0
183211  1  0  0  0  0
183212  1  0  0  0  0
184213  1  0  0  0  0
185214  1  0  0  0  0
187215  1  0  0  0  0
188216  1  0  0  0  0
142217  4  0  0  0  0
217218  4  0  0  0  0
218219  4  0  0  0  0
219220  2  0  0  0  0
220221  4  0  0  0  0
218222  4  0  0  0  0
221222  4  0  0  0  0
221223  4  0  0  0  0
223224  1  0  0  0  0
224225  4  0  0  0  0
225226  4  0  0  0  0
226227  4  0  0  0  0
227228  1  0  0  0  0
228229  1  0  0  0  0
227230  4  0  0  0  0
224231  4  0  0  0  0
230231  4  0  0  0  0
223232  4  0  0  0  0
232233  1  0  0  0  0
233234  2  0  0  0  0
232235  4  0  0  0  0
234236  1  0  0  0  0
235236  4  0  0  0  0
144237  4  0  0  0  0
236237  4  0  0  0  0
237238  4  0  0  0  0
238239  4  0  0  0  0
239240  2  0  0  0  0
240241  4  0  0  0  0
238242  4  0  0  0  0
241242  4  0  0  0  0
241243  4  0  0  0  0
243244  1  0  0  0  0
244245  4  0  0  0  0
245246  4  0  0  0  0
246247  4  0  0  0  0
247248  1  0  0  0  0
248249  1  0  0  0  0
247250  4  0  0  0  0
244251  4  0  0  0  0
250251  4  0  0  0  0
243252  4  0  0  0  0
252253  1  0  0  0  0
253254  2  0  0  0  0
217255  4  0  0  0  0
254255  1  0  0  0  0
252256  4  0  0  0  0
255256  4  0  0  0  0
219257  1  0  0  0  0
220258  1  0  0  0  0
222259  1  0  0  0  0
225260  1  0  0  0  0
226261  1  0  0  0  0
228262  1  0  0  0  0
229263  1  0  0  0  0
229264  1  0  0  0  0
229265  1  0  0  0  0
230266  1  0  0  0  0
231267  1  0  0  0  0
233268  1  0  0  0  0
234269  1  0  0  0  0
239270  1  0  0  0  0
240271  1  0  0  0  0
242272  1  0  0  0  0
245273  1  0  0  0  0
246274  1  0  0  0  0
248275  1  0  0  0  0
249276  1  0  0  0  0
249277  1  0  0  0  0
249278  1  0  0  0  0
250279  1  0  0  0  0
251280  1  0  0  0  0
253281  1  0  0  0  0
254282  1  0  0  0  0
146283  4  0  0  0  0
283284  4  0  0  0  0
284285  4  0  0  0  0
285286  2  0  0  0  0
286287  4  0  0  0  0
284288  4  0  0  0  0
287288  4  0  0  0  0
287289  4  0  0  0  0
289290  1  0  0  0  0
290291  4  0  0  0  0
291292  4  0  0  0  0
292293  4  0  0  0  0
293294  1  0  0  0  0
294295  1  0  0  0  0
293296  4  0  0  0  0
290297  4  0  0  0  0
296297  4  0  0  0  0
289298  4  0  0  0  0
298299  1  0  0  0  0
299300  2  0  0  0  0
298301  4  0  0  0  0
300302  1  0  0  0  0
301302  4  0  0  0  0
148303  4  0  0  0  0
302303  4  0  0  0  0
303304  4  0  0  0  0
304305  4  0  0  0  0
305306  2  0  0  0  0
306307  4  0  0  0  0
304308  4  0  0  0  0
307308  4  0  0  0  0
307309  4  0  0  0  0
309310  1  0  0  0  0
310311  4  0  0  0  0
311312  4  0  0  0  0
312313  4  0  0  0  0
313314  1  0  0  0  0
314315  1  0  0  0  0
313316  4  0  0  0  0
310317  4  0  0  0  0
316317  4  0  0  0  0
309318  4  0  0  0  0
318319  1  0  0  0  0
319320  2  0  0  0  0
283321  4  0  0  0  0
320321  1  0  0  0  0
318322  4  0  0  0  0
321322  4  0  0  0  0
285323  1  0  0  0  0
286324  1  0  0  0  0
288325  1  0  0  0  0
291326  1  0  0  0  0
292327  1  0  0  0  0
294328  1  0  0  0  0
295329  1  0  0  0  0
295330  1  0  0  0  0
295331  1  0  0  0  0
296332  1  0  0  0  0
297333  1  0  0  0  0
299334  1  0  0  0  0
300335  1  0  0  0  0
305336  1  0  0  0  0
306337  1  0  0  0  0
308338  1  0  0  0  0
311339  1  0  0  0  0
312340  1  0  0  0  0
314341  1  0  0  0  0
315342  1  0  0  0  0
315343  1  0  0  0  0
315344  1  0  0  0  0
316345  1  0  0  0  0
317346  1  0  0  0  0
319347  1  0  0  0  0
320348  1  0  0  0  0
M  END
