 xtb: 6.5.1 (b24c23e)
          07262218263D

130143  0     0  0            999 V2000
    2.6143   -0.1312   -0.0546 C   0  0  0  0  0  0  0  0  0  0  0  0
    3.2492   -1.3627    0.0330 C   0  0  0  0  0  0  0  0  0  0  0  0
    2.6113   -2.6429    0.0421 C   0  0  0  0  0  0  0  0  0  0  0  0
    3.5796   -3.6009    0.0787 C   0  0  0  0  0  0  0  0  0  0  0  0
    4.8496   -2.9447    0.1001 C   0  0  0  0  0  0  0  0  0  0  0  0
    4.5921   -1.5978    0.0919 N   0  0  0  0  0  0  0  0  0  0  0  0
    6.1047   -3.5234    0.0329 C   0  0  0  0  0  0  0  0  0  0  0  0
    7.3078   -2.8045   -0.0101 C   0  0  0  0  0  0  0  0  0  0  0  0
    8.5984   -3.3284   -0.4307 C   0  0  0  0  0  0  0  0  0  0  0  0
    9.4337   -2.2723   -0.5062 C   0  0  0  0  0  0  0  0  0  0  0  0
    7.3867   -1.4951    0.2434 N   0  0  0  0  0  0  0  0  0  0  0  0
    8.6789   -1.1072   -0.0710 C   0  0  0  0  0  0  0  0  0  0  0  0
    9.0912    0.1645    0.0573 C   0  0  0  0  0  0  0  0  0  0  0  0
    8.5865    1.4097    0.2032 C   0  0  0  0  0  0  0  0  0  0  0  0
    9.1850    2.6461    0.6030 C   0  0  0  0  0  0  0  0  0  0  0  0
    8.2390    3.6254    0.5137 C   0  0  0  0  0  0  0  0  0  0  0  0
    7.0125    3.0214    0.1008 C   0  0  0  0  0  0  0  0  0  0  0  0
    7.2811    1.7124   -0.1458 N   0  0  0  0  0  0  0  0  0  0  0  0
    5.7321    3.5618    0.0328 C   0  0  0  0  0  0  0  0  0  0  0  0
    4.5651    2.8145   -0.0912 C   0  0  0  0  0  0  0  0  0  0  0  0
    3.2296    3.3909   -0.1320 C   0  0  0  0  0  0  0  0  0  0  0  0
    2.3683    2.3549   -0.1520 C   0  0  0  0  0  0  0  0  0  0  0  0
    3.1764    1.1422   -0.1115 C   0  0  0  0  0  0  0  0  0  0  0  0
    4.4901    1.4584   -0.0980 N   0  0  0  0  0  0  0  0  0  0  0  0
    1.5296   -0.1748   -0.0811 H   0  0  0  0  0  0  0  0  0  0  0  0
    1.5431   -2.7888    0.0099 H   0  0  0  0  0  0  0  0  0  0  0  0
    3.4474   -4.6712    0.0852 H   0  0  0  0  0  0  0  0  0  0  0  0
    5.3153   -0.8860    0.1049 H   0  0  0  0  0  0  0  0  0  0  0  0
    6.1492   -4.6025   -0.0598 H   0  0  0  0  0  0  0  0  0  0  0  0
    8.7979   -4.3611   -0.6705 H   0  0  0  0  0  0  0  0  0  0  0  0
   10.4722   -2.2456   -0.7945 H   0  0  0  0  0  0  0  0  0  0  0  0
   10.2158    2.7493    0.9011 H   0  0  0  0  0  0  0  0  0  0  0  0
    8.3569    4.6720    0.7459 H   0  0  0  0  0  0  0  0  0  0  0  0
    6.5570    1.0202   -0.3091 H   0  0  0  0  0  0  0  0  0  0  0  0
    5.6382    4.6352    0.1524 H   0  0  0  0  0  0  0  0  0  0  0  0
    3.0178    4.4485   -0.1430 H   0  0  0  0  0  0  0  0  0  0  0  0
    1.2899    2.3725   -0.1779 H   0  0  0  0  0  0  0  0  0  0  0  0
   55.1181    0.1467   -0.0534 C   0  0  0  0  0  0  0  0  0  0  0  0
   54.4643    1.3533   -0.2688 C   0  0  0  0  0  0  0  0  0  0  0  0
   55.0465    2.6308   -0.5104 C   0  0  0  0  0  0  0  0  0  0  0  0
   54.0316    3.5319   -0.6689 C   0  0  0  0  0  0  0  0  0  0  0  0
   52.7977    2.8340   -0.5276 C   0  0  0  0  0  0  0  0  0  0  0  0
   53.1096    1.5270   -0.2891 N   0  0  0  0  0  0  0  0  0  0  0  0
   51.5153    3.3647   -0.6087 C   0  0  0  0  0  0  0  0  0  0  0  0
   50.3124    2.6888   -0.4664 C   0  0  0  0  0  0  0  0  0  0  0  0
   49.0181    3.3405   -0.5622 C   0  0  0  0  0  0  0  0  0  0  0  0
   48.0918    2.3784   -0.3721 C   0  0  0  0  0  0  0  0  0  0  0  0
   50.1511    1.3592   -0.2231 N   0  0  0  0  0  0  0  0  0  0  0  0
   48.8240    1.1421   -0.1623 C   0  0  0  0  0  0  0  0  0  0  0  0
   48.1980   -0.1023    0.0647 C   0  0  0  0  0  0  0  0  0  0  0  0
   48.8778   -1.3193    0.2635 C   0  0  0  0  0  0  0  0  0  0  0  0
   48.3010   -2.5984    0.4881 C   0  0  0  0  0  0  0  0  0  0  0  0
   49.3197   -3.5007    0.6250 C   0  0  0  0  0  0  0  0  0  0  0  0
   50.5492   -2.7973    0.4892 C   0  0  0  0  0  0  0  0  0  0  0  0
   50.2296   -1.4840    0.2721 N   0  0  0  0  0  0  0  0  0  0  0  0
   51.8301   -3.3297    0.5651 C   0  0  0  0  0  0  0  0  0  0  0  0
   53.0348   -2.6483    0.4418 C   0  0  0  0  0  0  0  0  0  0  0  0
   54.3355   -3.2915    0.5467 C   0  0  0  0  0  0  0  0  0  0  0  0
   55.2557   -2.3208    0.3786 C   0  0  0  0  0  0  0  0  0  0  0  0
   54.5163   -1.0863    0.1682 C   0  0  0  0  0  0  0  0  0  0  0  0
   53.1834   -1.3222    0.2144 N   0  0  0  0  0  0  0  0  0  0  0  0
   56.2025    0.1783   -0.0647 H   0  0  0  0  0  0  0  0  0  0  0  0
   56.1073    2.8201   -0.5553 H   0  0  0  0  0  0  0  0  0  0  0  0
   54.1158    4.5888   -0.8663 H   0  0  0  0  0  0  0  0  0  0  0  0
   52.4345    0.7835   -0.1455 H   0  0  0  0  0  0  0  0  0  0  0  0
   51.4578    4.4308   -0.8039 H   0  0  0  0  0  0  0  0  0  0  0  0
   48.8720    4.3927   -0.7498 H   0  0  0  0  0  0  0  0  0  0  0  0
   47.0170    2.4661   -0.3693 H   0  0  0  0  0  0  0  0  0  0  0  0
   47.2412   -2.7909    0.5364 H   0  0  0  0  0  0  0  0  0  0  0  0
   49.2386   -4.5608    0.8048 H   0  0  0  0  0  0  0  0  0  0  0  0
   50.9026   -0.7370    0.1356 H   0  0  0  0  0  0  0  0  0  0  0  0
   51.8857   -4.3986    0.7443 H   0  0  0  0  0  0  0  0  0  0  0  0
   54.4874   -4.3445    0.7262 H   0  0  0  0  0  0  0  0  0  0  0  0
   56.3317   -2.3980    0.3891 H   0  0  0  0  0  0  0  0  0  0  0  0
   14.0015   -0.0106   -0.1399 C   0  0  0  0  0  0  0  0  0  0  0  0
   15.2131    0.0040    0.0725 C   0  0  0  0  0  0  0  0  0  0  0  0
   16.5551    0.0135    0.0532 C   0  0  0  0  0  0  0  0  0  0  0  0
   17.7926    0.0261    0.0060 C   0  0  0  0  0  0  0  0  0  0  0  0
   19.1196    0.0356    0.0064 C   0  0  0  0  0  0  0  0  0  0  0  0
   20.3596    0.0431    0.0072 C   0  0  0  0  0  0  0  0  0  0  0  0
   21.6871    0.0496    0.0020 C   0  0  0  0  0  0  0  0  0  0  0  0
   22.9245    0.0526   -0.0030 C   0  0  0  0  0  0  0  0  0  0  0  0
   24.2597    0.0523   -0.0069 C   0  0  0  0  0  0  0  0  0  0  0  0
   25.4889    0.0472   -0.0093 C   0  0  0  0  0  0  0  0  0  0  0  0
   35.2960   -0.0686   -0.0034 C   0  0  0  0  0  0  0  0  0  0  0  0
   36.5221   -0.0911    0.0119 C   0  0  0  0  0  0  0  0  0  0  0  0
   37.8619   -0.1082    0.0317 C   0  0  0  0  0  0  0  0  0  0  0  0
   39.0945   -0.1315    0.0496 C   0  0  0  0  0  0  0  0  0  0  0  0
   40.4284   -0.1518    0.0704 C   0  0  0  0  0  0  0  0  0  0  0  0
   41.6626   -0.1688    0.0872 C   0  0  0  0  0  0  0  0  0  0  0  0
   42.9969   -0.1749    0.1032 C   0  0  0  0  0  0  0  0  0  0  0  0
   44.2295   -0.1774    0.1064 C   0  0  0  0  0  0  0  0  0  0  0  0
   45.5703   -0.1629    0.1030 C   0  0  0  0  0  0  0  0  0  0  0  0
   46.7957   -0.1417    0.0877 C   0  0  0  0  0  0  0  0  0  0  0  0
   26.8862    0.0366   -0.0124 C   0  0  0  0  0  0  0  0  0  0  0  0
   27.5450    1.2852   -0.0291 C   0  0  0  0  0  0  0  0  0  0  0  0
   26.9489    2.5720   -0.0447 C   0  0  0  0  0  0  0  0  0  0  0  0
   27.9560    3.5002   -0.0587 C   0  0  0  0  0  0  0  0  0  0  0  0
   29.1935    2.8024   -0.0518 C   0  0  0  0  0  0  0  0  0  0  0  0
   28.8945    1.4680   -0.0339 N   0  0  0  0  0  0  0  0  0  0  0  0
   30.4674    3.3651   -0.0608 C   0  0  0  0  0  0  0  0  0  0  0  0
   31.6910    2.7162   -0.0530 C   0  0  0  0  0  0  0  0  0  0  0  0
   32.9629    3.4166   -0.0615 C   0  0  0  0  0  0  0  0  0  0  0  0
   33.9220    2.4676   -0.0476 C   0  0  0  0  0  0  0  0  0  0  0  0
   31.8984    1.3694   -0.0349 N   0  0  0  0  0  0  0  0  0  0  0  0
   33.2320    1.1911   -0.0310 C   0  0  0  0  0  0  0  0  0  0  0  0
   33.8953   -0.0553   -0.0114 C   0  0  0  0  0  0  0  0  0  0  0  0
   33.2398   -1.3034    0.0031 C   0  0  0  0  0  0  0  0  0  0  0  0
   33.8366   -2.5909    0.0210 C   0  0  0  0  0  0  0  0  0  0  0  0
   32.8300   -3.5189    0.0308 C   0  0  0  0  0  0  0  0  0  0  0  0
   31.5916   -2.8215    0.0195 C   0  0  0  0  0  0  0  0  0  0  0  0
   31.8905   -1.4866    0.0025 N   0  0  0  0  0  0  0  0  0  0  0  0
   30.3186   -3.3836    0.0253 C   0  0  0  0  0  0  0  0  0  0  0  0
   29.0944   -2.7348    0.0170 C   0  0  0  0  0  0  0  0  0  0  0  0
   27.8237   -3.4356    0.0255 C   0  0  0  0  0  0  0  0  0  0  0  0
   26.8641   -2.4866    0.0154 C   0  0  0  0  0  0  0  0  0  0  0  0
   27.5530   -1.2102    0.0008 C   0  0  0  0  0  0  0  0  0  0  0  0
   28.8864   -1.3875    0.0017 N   0  0  0  0  0  0  0  0  0  0  0  0
   25.8863    2.7544   -0.0452 H   0  0  0  0  0  0  0  0  0  0  0  0
   27.8591    4.5741   -0.0725 H   0  0  0  0  0  0  0  0  0  0  0  0
   29.5735    0.7139   -0.0252 H   0  0  0  0  0  0  0  0  0  0  0  0
   30.4935    4.4503   -0.0748 H   0  0  0  0  0  0  0  0  0  0  0  0
   33.0733    4.4896   -0.0758 H   0  0  0  0  0  0  0  0  0  0  0  0
   34.9936    2.5882   -0.0483 H   0  0  0  0  0  0  0  0  0  0  0  0
   34.8992   -2.7732    0.0253 H   0  0  0  0  0  0  0  0  0  0  0  0
   32.9271   -4.5927    0.0450 H   0  0  0  0  0  0  0  0  0  0  0  0
   31.2111   -0.7329   -0.0082 H   0  0  0  0  0  0  0  0  0  0  0  0
   30.2921   -4.4689    0.0388 H   0  0  0  0  0  0  0  0  0  0  0  0
   27.7139   -4.5086    0.0375 H   0  0  0  0  0  0  0  0  0  0  0  0
   25.7926   -2.6081    0.0173 H   0  0  0  0  0  0  0  0  0  0  0  0
  1  2  4  0  0  0  0
  2  3  4  0  0  0  0
  3  4  2  0  0  0  0
  4  5  4  0  0  0  0
  2  6  4  0  0  0  0
  5  6  4  0  0  0  0
  5  7  4  0  0  0  0
  7  8  4  0  0  0  0
  8  9  1  0  0  0  0
  9 10  2  0  0  0  0
  8 11  4  0  0  0  0
 10 12  1  0  0  0  0
 11 12  4  0  0  0  0
 12 13  2  0  0  0  0
 13 14  2  0  0  0  0
 14 15  4  0  0  0  0
 15 16  2  0  0  0  0
 16 17  4  0  0  0  0
 14 18  1  0  0  0  0
 17 18  4  0  0  0  0
 17 19  4  0  0  0  0
 19 20  4  0  0  0  0
 20 21  1  0  0  0  0
 21 22  2  0  0  0  0
  1 23  4  0  0  0  0
 22 23  1  0  0  0  0
 20 24  4  0  0  0  0
 23 24  4  0  0  0  0
  1 25  1  0  0  0  0
  3 26  1  0  0  0  0
  4 27  1  0  0  0  0
  6 28  1  0  0  0  0
  7 29  1  0  0  0  0
  9 30  1  0  0  0  0
 10 31  1  0  0  0  0
 15 32  1  0  0  0  0
 16 33  1  0  0  0  0
 18 34  1  0  0  0  0
 19 35  1  0  0  0  0
 21 36  1  0  0  0  0
 22 37  1  0  0  0  0
 38 39  4  0  0  0  0
 39 40  4  0  0  0  0
 40 41  2  0  0  0  0
 41 42  4  0  0  0  0
 39 43  4  0  0  0  0
 42 43  4  0  0  0  0
 42 44  4  0  0  0  0
 44 45  4  0  0  0  0
 45 46  1  0  0  0  0
 46 47  2  0  0  0  0
 45 48  4  0  0  0  0
 47 49  1  0  0  0  0
 48 49  4  0  0  0  0
 49 50  4  0  0  0  0
 50 51  4  0  0  0  0
 51 52  4  0  0  0  0
 52 53  2  0  0  0  0
 53 54  4  0  0  0  0
 51 55  4  0  0  0  0
 54 55  4  0  0  0  0
 54 56  4  0  0  0  0
 56 57  4  0  0  0  0
 57 58  1  0  0  0  0
 58 59  2  0  0  0  0
 38 60  4  0  0  0  0
 59 60  1  0  0  0  0
 57 61  4  0  0  0  0
 60 61  4  0  0  0  0
 38 62  1  0  0  0  0
 40 63  1  0  0  0  0
 41 64  1  0  0  0  0
 43 65  1  0  0  0  0
 44 66  1  0  0  0  0
 46 67  1  0  0  0  0
 47 68  1  0  0  0  0
 52 69  1  0  0  0  0
 53 70  1  0  0  0  0
 55 71  1  0  0  0  0
 56 72  1  0  0  0  0
 58 73  1  0  0  0  0
 59 74  1  0  0  0  0
 75 76  3  0  0  0  0
 76 77  4  0  0  0  0
 77 78  2  0  0  0  0
 78 79  4  0  0  0  0
 79 80  2  0  0  0  0
 80 81  4  0  0  0  0
 81 82  2  0  0  0  0
 82 83  4  0  0  0  0
 83 84  3  0  0  0  0
 85 86  3  0  0  0  0
 86 87  4  0  0  0  0
 87 88  3  0  0  0  0
 88 89  4  0  0  0  0
 89 90  2  0  0  0  0
 90 91  4  0  0  0  0
 91 92  3  0  0  0  0
 92 93  4  0  0  0  0
 50 94  4  0  0  0  0
 93 94  3  0  0  0  0
 84 95  4  0  0  0  0
 95 96  4  0  0  0  0
 96 97  4  0  0  0  0
 97 98  2  0  0  0  0
 98 99  4  0  0  0  0
 96100  4  0  0  0  0
 99100  4  0  0  0  0
 99101  4  0  0  0  0
101102  4  0  0  0  0
102103  1  0  0  0  0
103104  2  0  0  0  0
102105  4  0  0  0  0
104106  1  0  0  0  0
105106  4  0  0  0  0
 85107  4  0  0  0  0
106107  4  0  0  0  0
107108  4  0  0  0  0
108109  4  0  0  0  0
109110  2  0  0  0  0
110111  4  0  0  0  0
108112  4  0  0  0  0
111112  4  0  0  0  0
111113  4  0  0  0  0
113114  4  0  0  0  0
114115  1  0  0  0  0
115116  2  0  0  0  0
 95117  4  0  0  0  0
116117  1  0  0  0  0
114118  4  0  0  0  0
117118  4  0  0  0  0
 97119  1  0  0  0  0
 98120  1  0  0  0  0
100121  1  0  0  0  0
101122  1  0  0  0  0
103123  1  0  0  0  0
104124  1  0  0  0  0
109125  1  0  0  0  0
110126  1  0  0  0  0
112127  1  0  0  0  0
113128  1  0  0  0  0
115129  1  0  0  0  0
116130  1  0  0  0  0
M  END
