 xtb: 6.5.1 (b24c23e)
          07292219013D

120139  0     0  0            999 V2000
   13.9357   -0.0466   -0.0079 Fe  0  0  0  0  0  0  0  0  0  0  0  0
   10.5501   -0.0617   -0.1456 C   0  0  0  0  0  0  0  0  0  0  0  0
   11.1965   -1.2755   -0.0316 C   0  0  0  0  0  0  0  0  0  0  0  0
   10.5153   -2.5315    0.0602 C   0  0  0  0  0  0  0  0  0  0  0  0
   11.4700   -3.4917    0.0524 C   0  0  0  0  0  0  0  0  0  0  0  0
   12.7334   -2.8205   -0.0574 C   0  0  0  0  0  0  0  0  0  0  0  0
   12.5533   -1.4631   -0.0647 N   0  0  0  0  0  0  0  0  0  0  0  0
   13.9539   -3.4734   -0.1900 C   0  0  0  0  0  0  0  0  0  0  0  0
   13.9652   -4.9515   -0.2892 C   0  0  0  0  0  0  0  0  0  0  0  0
   13.3403   -5.5911   -1.2913 C   0  0  0  0  0  0  0  0  0  0  0  0
   13.3309   -7.0904   -1.4205 C   0  0  0  0  0  0  0  0  0  0  0  0
   14.3181   -7.7091   -0.5343 N   0  0  0  0  0  0  0  0  0  0  0  0
   14.8036   -7.0510    0.5606 C   0  0  0  0  0  0  0  0  0  0  0  0
   14.6894   -5.7178    0.7115 C   0  0  0  0  0  0  0  0  0  0  0  0
   15.1659   -2.7971   -0.2445 C   0  0  0  0  0  0  0  0  0  0  0  0
   16.4318   -3.4404   -0.4344 C   0  0  0  0  0  0  0  0  0  0  0  0
   17.3778   -2.4737   -0.3566 C   0  0  0  0  0  0  0  0  0  0  0  0
   15.3382   -1.4427   -0.0921 N   0  0  0  0  0  0  0  0  0  0  0  0
   16.6875   -1.2433   -0.1265 C   0  0  0  0  0  0  0  0  0  0  0  0
   17.3426   -0.0289    0.1050 C   0  0  0  0  0  0  0  0  0  0  0  0
   16.6611    1.1766    0.3046 C   0  0  0  0  0  0  0  0  0  0  0  0
   17.3214    2.4116    0.5916 C   0  0  0  0  0  0  0  0  0  0  0  0
   16.3614    3.3673    0.6191 C   0  0  0  0  0  0  0  0  0  0  0  0
   15.1182    2.7135    0.3369 C   0  0  0  0  0  0  0  0  0  0  0  0
   15.3147    1.3620    0.1860 N   0  0  0  0  0  0  0  0  0  0  0  0
   13.9078    3.3791    0.1916 C   0  0  0  0  0  0  0  0  0  0  0  0
   13.8968    4.8573    0.2903 C   0  0  0  0  0  0  0  0  0  0  0  0
   13.1840    5.4924    1.2350 C   0  0  0  0  0  0  0  0  0  0  0  0
   13.1464    6.9918    1.3573 C   0  0  0  0  0  0  0  0  0  0  0  0
   14.1930    7.6206    0.5500 N   0  0  0  0  0  0  0  0  0  0  0  0
   14.7750    6.9647   -0.4981 C   0  0  0  0  0  0  0  0  0  0  0  0
   14.6914    5.6295   -0.6509 C   0  0  0  0  0  0  0  0  0  0  0  0
   12.7082    2.7160   -0.0434 C   0  0  0  0  0  0  0  0  0  0  0  0
   11.4528    3.3765   -0.2591 C   0  0  0  0  0  0  0  0  0  0  0  0
   10.5109    2.4081   -0.3509 C   0  0  0  0  0  0  0  0  0  0  0  0
   11.1928    1.1578   -0.2036 C   0  0  0  0  0  0  0  0  0  0  0  0
   12.5402    1.3573   -0.0543 N   0  0  0  0  0  0  0  0  0  0  0  0
    9.4668   -0.0667   -0.1917 H   0  0  0  0  0  0  0  0  0  0  0  0
    9.4443   -2.6440    0.1223 H   0  0  0  0  0  0  0  0  0  0  0  0
   11.3426   -4.5600    0.1199 H   0  0  0  0  0  0  0  0  0  0  0  0
   12.8001   -5.0524   -2.0611 H   0  0  0  0  0  0  0  0  0  0  0  0
   13.5667   -7.3834   -2.4534 H   0  0  0  0  0  0  0  0  0  0  0  0
   12.3234   -7.4856   -1.1938 H   0  0  0  0  0  0  0  0  0  0  0  0
   14.2563   -8.7145   -0.4751 H   0  0  0  0  0  0  0  0  0  0  0  0
   15.3501   -7.6745    1.2609 H   0  0  0  0  0  0  0  0  0  0  0  0
   15.1191   -5.2105    1.5634 H   0  0  0  0  0  0  0  0  0  0  0  0
   16.5689   -4.4957   -0.6065 H   0  0  0  0  0  0  0  0  0  0  0  0
   18.4482   -2.5700   -0.4427 H   0  0  0  0  0  0  0  0  0  0  0  0
   18.3828    2.5174    0.7494 H   0  0  0  0  0  0  0  0  0  0  0  0
   16.4749    4.4218    0.8123 H   0  0  0  0  0  0  0  0  0  0  0  0
   12.5878    4.9496    1.9592 H   0  0  0  0  0  0  0  0  0  0  0  0
   13.2956    7.2908    2.4045 H   0  0  0  0  0  0  0  0  0  0  0  0
   12.1554    7.3737    1.0497 H   0  0  0  0  0  0  0  0  0  0  0  0
   14.1229    8.6248    0.4809 H   0  0  0  0  0  0  0  0  0  0  0  0
   15.3681    7.5928   -1.1551 H   0  0  0  0  0  0  0  0  0  0  0  0
   15.1954    5.1248   -1.4627 H   0  0  0  0  0  0  0  0  0  0  0  0
   11.3220    4.4438   -0.3356 H   0  0  0  0  0  0  0  0  0  0  0  0
    9.4483    2.5114   -0.5047 H   0  0  0  0  0  0  0  0  0  0  0  0
   27.3505    0.0478    0.0022 Fe  0  0  0  0  0  0  0  0  0  0  0  0
   30.7362    0.0917   -0.1259 C   0  0  0  0  0  0  0  0  0  0  0  0
   30.0897    1.2528    0.2452 C   0  0  0  0  0  0  0  0  0  0  0  0
   30.7707    2.4598    0.6050 C   0  0  0  0  0  0  0  0  0  0  0  0
   29.8160    3.3994    0.8022 C   0  0  0  0  0  0  0  0  0  0  0  0
   28.5527    2.7677    0.5496 C   0  0  0  0  0  0  0  0  0  0  0  0
   28.7329    1.4435    0.2515 N   0  0  0  0  0  0  0  0  0  0  0  0
   27.3323    3.4340    0.5588 C   0  0  0  0  0  0  0  0  0  0  0  0
   27.3211    4.8990    0.7790 C   0  0  0  0  0  0  0  0  0  0  0  0
   27.9472    5.7387   -0.0617 C   0  0  0  0  0  0  0  0  0  0  0  0
   27.9568    7.2307    0.1340 C   0  0  0  0  0  0  0  0  0  0  0  0
   26.9686    7.6451    1.1312 N   0  0  0  0  0  0  0  0  0  0  0  0
   26.4819    6.7674    2.0588 C   0  0  0  0  0  0  0  0  0  0  0  0
   26.5958    5.4329    1.9201 C   0  0  0  0  0  0  0  0  0  0  0  0
   26.1204    2.7853    0.3597 C   0  0  0  0  0  0  0  0  0  0  0  0
   24.8545    3.4545    0.3115 C   0  0  0  0  0  0  0  0  0  0  0  0
   23.9085    2.4935    0.1803 C   0  0  0  0  0  0  0  0  0  0  0  0
   25.9480    1.4297    0.2184 N   0  0  0  0  0  0  0  0  0  0  0  0
   24.5988    1.2424    0.1417 C   0  0  0  0  0  0  0  0  0  0  0  0
   23.9435    0.0067    0.1073 C   0  0  0  0  0  0  0  0  0  0  0  0
   24.6249   -1.2137    0.0434 C   0  0  0  0  0  0  0  0  0  0  0  0
   23.9645   -2.4814    0.0580 C   0  0  0  0  0  0  0  0  0  0  0  0
   24.9244   -3.4208   -0.1205 C   0  0  0  0  0  0  0  0  0  0  0  0
   26.1678   -2.7217   -0.2551 C   0  0  0  0  0  0  0  0  0  0  0  0
   25.9713   -1.3693   -0.1120 N   0  0  0  0  0  0  0  0  0  0  0  0
   27.3783   -3.3407   -0.5392 C   0  0  0  0  0  0  0  0  0  0  0  0
   27.3892   -4.8056   -0.7604 C   0  0  0  0  0  0  0  0  0  0  0  0
   28.1011   -5.6288    0.0267 C   0  0  0  0  0  0  0  0  0  0  0  0
   28.1385   -7.1195   -0.1755 C   0  0  0  0  0  0  0  0  0  0  0  0
   27.0926   -7.5601   -1.1000 N   0  0  0  0  0  0  0  0  0  0  0  0
   26.5116   -6.6944   -1.9834 C   0  0  0  0  0  0  0  0  0  0  0  0
   26.5955   -5.3575   -1.8460 C   0  0  0  0  0  0  0  0  0  0  0  0
   28.5781   -2.6428   -0.6252 C   0  0  0  0  0  0  0  0  0  0  0  0
   29.8338   -3.2417   -0.9765 C   0  0  0  0  0  0  0  0  0  0  0  0
   30.7758   -2.2764   -0.8569 C   0  0  0  0  0  0  0  0  0  0  0  0
   30.0936   -1.0868   -0.4452 C   0  0  0  0  0  0  0  0  0  0  0  0
   28.7460   -1.3134   -0.3437 N   0  0  0  0  0  0  0  0  0  0  0  0
   31.8196    0.1062   -0.1687 H   0  0  0  0  0  0  0  0  0  0  0  0
   31.8416    2.5561    0.6911 H   0  0  0  0  0  0  0  0  0  0  0  0
   29.9432    4.4284    1.0974 H   0  0  0  0  0  0  0  0  0  0  0  0
   28.4882    5.3776   -0.9286 H   0  0  0  0  0  0  0  0  0  0  0  0
   27.7223    7.7387   -0.8122 H   0  0  0  0  0  0  0  0  0  0  0  0
   28.9641    7.5676    0.4414 H   0  0  0  0  0  0  0  0  0  0  0  0
   27.0304    8.6143    1.4050 H   0  0  0  0  0  0  0  0  0  0  0  0
   25.9347    7.2262    2.8761 H   0  0  0  0  0  0  0  0  0  0  0  0
   26.1652    4.7546    2.6428 H   0  0  0  0  0  0  0  0  0  0  0  0
   24.7175    4.5221    0.3691 H   0  0  0  0  0  0  0  0  0  0  0  0
   22.8381    2.6061    0.1164 H   0  0  0  0  0  0  0  0  0  0  0  0
   22.9031   -2.6187    0.1891 H   0  0  0  0  0  0  0  0  0  0  0  0
   24.8109   -4.4921   -0.1587 H   0  0  0  0  0  0  0  0  0  0  0  0
   28.6966   -5.2542    0.8510 H   0  0  0  0  0  0  0  0  0  0  0  0
   27.9882   -7.6362    0.7829 H   0  0  0  0  0  0  0  0  0  0  0  0
   29.1298   -7.4268   -0.5570 H   0  0  0  0  0  0  0  0  0  0  0  0
   27.1627   -8.5261   -1.3829 H   0  0  0  0  0  0  0  0  0  0  0  0
   25.9191   -7.1667   -2.7604 H   0  0  0  0  0  0  0  0  0  0  0  0
   26.0922   -4.6903   -2.5310 H   0  0  0  0  0  0  0  0  0  0  0  0
   29.9647   -4.2677   -1.2804 H   0  0  0  0  0  0  0  0  0  0  0  0
   31.8386   -2.3446   -1.0282 H   0  0  0  0  0  0  0  0  0  0  0  0
   19.9687   -0.0188    0.1437 C   0  0  0  0  0  0  0  0  0  0  0  0
   18.7459   -0.0203    0.1329 C   0  0  0  0  0  0  0  0  0  0  0  0
   21.3175   -0.0126    0.1439 C   0  0  0  0  0  0  0  0  0  0  0  0
   22.5402   -0.0076    0.1332 C   0  0  0  0  0  0  0  0  0  0  0  0
  2  3  4  0  0  0  0
  3  4  4  0  0  0  0
  4  5  2  0  0  0  0
  5  6  4  0  0  0  0
  1  7  1  0  0  0  0
  3  7  4  0  0  0  0
  6  7  4  0  0  0  0
  6  8  4  0  0  0  0
  8  9  1  0  0  0  0
  9 10  2  0  0  0  0
 10 11  1  0  0  0  0
 11 12  1  0  0  0  0
 12 13  1  0  0  0  0
  9 14  1  0  0  0  0
 13 14  2  0  0  0  0
  8 15  4  0  0  0  0
 15 16  4  0  0  0  0
 16 17  2  0  0  0  0
  1 18  1  0  0  0  0
 15 18  4  0  0  0  0
 17 19  4  0  0  0  0
 18 19  4  0  0  0  0
 19 20  4  0  0  0  0
 20 21  4  0  0  0  0
 21 22  4  0  0  0  0
 22 23  2  0  0  0  0
 23 24  4  0  0  0  0
  1 25  1  0  0  0  0
 21 25  4  0  0  0  0
 24 25  4  0  0  0  0
 24 26  4  0  0  0  0
 26 27  1  0  0  0  0
 27 28  2  0  0  0  0
 28 29  1  0  0  0  0
 29 30  1  0  0  0  0
 30 31  1  0  0  0  0
 27 32  1  0  0  0  0
 31 32  2  0  0  0  0
 26 33  4  0  0  0  0
 33 34  4  0  0  0  0
 34 35  2  0  0  0  0
  2 36  4  0  0  0  0
 35 36  4  0  0  0  0
  1 37  1  0  0  0  0
 33 37  4  0  0  0  0
 36 37  4  0  0  0  0
  2 38  1  0  0  0  0
  4 39  1  0  0  0  0
  5 40  1  0  0  0  0
 10 41  1  0  0  0  0
 11 42  1  0  0  0  0
 11 43  1  0  0  0  0
 12 44  1  0  0  0  0
 13 45  1  0  0  0  0
 14 46  1  0  0  0  0
 16 47  1  0  0  0  0
 17 48  1  0  0  0  0
 22 49  1  0  0  0  0
 23 50  1  0  0  0  0
 28 51  1  0  0  0  0
 29 52  1  0  0  0  0
 29 53  1  0  0  0  0
 30 54  1  0  0  0  0
 31 55  1  0  0  0  0
 32 56  1  0  0  0  0
 34 57  1  0  0  0  0
 35 58  1  0  0  0  0
 60 61  4  0  0  0  0
 61 62  4  0  0  0  0
 62 63  2  0  0  0  0
 63 64  4  0  0  0  0
 59 65  1  0  0  0  0
 61 65  4  0  0  0  0
 64 65  4  0  0  0  0
 64 66  4  0  0  0  0
 66 67  1  0  0  0  0
 67 68  2  0  0  0  0
 68 69  1  0  0  0  0
 69 70  1  0  0  0  0
 70 71  1  0  0  0  0
 67 72  1  0  0  0  0
 71 72  2  0  0  0  0
 66 73  4  0  0  0  0
 73 74  4  0  0  0  0
 74 75  2  0  0  0  0
 59 76  1  0  0  0  0
 73 76  4  0  0  0  0
 75 77  4  0  0  0  0
 76 77  4  0  0  0  0
 77 78  4  0  0  0  0
 78 79  4  0  0  0  0
 79 80  4  0  0  0  0
 80 81  2  0  0  0  0
 81 82  4  0  0  0  0
 59 83  1  0  0  0  0
 79 83  4  0  0  0  0
 82 83  4  0  0  0  0
 82 84  4  0  0  0  0
 84 85  1  0  0  0  0
 85 86  2  0  0  0  0
 86 87  1  0  0  0  0
 87 88  1  0  0  0  0
 88 89  1  0  0  0  0
 85 90  1  0  0  0  0
 89 90  2  0  0  0  0
 84 91  4  0  0  0  0
 91 92  4  0  0  0  0
 92 93  2  0  0  0  0
 60 94  4  0  0  0  0
 93 94  4  0  0  0  0
 59 95  1  0  0  0  0
 91 95  4  0  0  0  0
 94 95  4  0  0  0  0
 60 96  1  0  0  0  0
 62 97  1  0  0  0  0
 63 98  1  0  0  0  0
 68 99  1  0  0  0  0
 69100  1  0  0  0  0
 69101  1  0  0  0  0
 70102  1  0  0  0  0
 71103  1  0  0  0  0
 72104  1  0  0  0  0
 74105  1  0  0  0  0
 75106  1  0  0  0  0
 80107  1  0  0  0  0
 81108  1  0  0  0  0
 86109  1  0  0  0  0
 87110  1  0  0  0  0
 87111  1  0  0  0  0
 88112  1  0  0  0  0
 89113  1  0  0  0  0
 90114  1  0  0  0  0
 92115  1  0  0  0  0
 93116  1  0  0  0  0
 20118  4  0  0  0  0
117118  3  0  0  0  0
117119  4  0  0  0  0
 78120  4  0  0  0  0
119120  3  0  0  0  0
M  END
