 xtb: 6.5.1 (b24c23e)
          07292216513D

169198  0     0  0            999 V2000
   24.7633   -0.0085   -0.0068 Fe  0  0  0  0  0  0  0  0  0  0  0  0
   21.3745   -0.0213   -0.0207 C   0  0  0  0  0  0  0  0  0  0  0  0
   22.0230   -1.2366    0.0576 C   0  0  0  0  0  0  0  0  0  0  0  0
   21.3433   -2.4945    0.1348 C   0  0  0  0  0  0  0  0  0  0  0  0
   22.2963   -3.4407    0.3047 C   0  0  0  0  0  0  0  0  0  0  0  0
   23.5585   -2.7590    0.3267 C   0  0  0  0  0  0  0  0  0  0  0  0
   23.3783   -1.4134    0.1540 N   0  0  0  0  0  0  0  0  0  0  0  0
   24.7711   -3.3814    0.6026 C   0  0  0  0  0  0  0  0  0  0  0  0
   24.7731   -4.8421    0.8540 C   0  0  0  0  0  0  0  0  0  0  0  0
   25.1034   -5.3627    2.1040 C   0  0  0  0  0  0  0  0  0  0  0  0
   25.0902   -6.7366    2.2871 C   0  0  0  0  0  0  0  0  0  0  0  0
   24.7801   -7.5933    1.3195 N   0  0  0  0  0  0  0  0  0  0  0  0
   24.4660   -7.1044    0.1243 C   0  0  0  0  0  0  0  0  0  0  0  0
   24.4455   -5.7468   -0.1547 C   0  0  0  0  0  0  0  0  0  0  0  0
   25.9777   -2.6990    0.6530 C   0  0  0  0  0  0  0  0  0  0  0  0
   27.2390   -3.3218    0.9264 C   0  0  0  0  0  0  0  0  0  0  0  0
   28.1884   -2.3690    0.7669 C   0  0  0  0  0  0  0  0  0  0  0  0
   26.1590   -1.3712    0.3458 N   0  0  0  0  0  0  0  0  0  0  0  0
   27.5064   -1.1711    0.3876 C   0  0  0  0  0  0  0  0  0  0  0  0
   28.1717    0.0017    0.0096 C   0  0  0  0  0  0  0  0  0  0  0  0
   27.5005    1.1716   -0.3659 C   0  0  0  0  0  0  0  0  0  0  0  0
   28.1747    2.3658   -0.7699 C   0  0  0  0  0  0  0  0  0  0  0  0
   27.2204    3.3133   -0.9338 C   0  0  0  0  0  0  0  0  0  0  0  0
   25.9661    2.6943   -0.6230 C   0  0  0  0  0  0  0  0  0  0  0  0
   26.1527    1.3683   -0.3134 N   0  0  0  0  0  0  0  0  0  0  0  0
   24.7527    3.3671   -0.6042 C   0  0  0  0  0  0  0  0  0  0  0  0
   24.7492    4.8264   -0.8567 C   0  0  0  0  0  0  0  0  0  0  0  0
   24.0810    5.3718   -1.9521 C   0  0  0  0  0  0  0  0  0  0  0  0
   24.1094    6.7440   -2.1451 C   0  0  0  0  0  0  0  0  0  0  0  0
   24.7424    7.5778   -1.3262 N   0  0  0  0  0  0  0  0  0  0  0  0
   25.3792    7.0660   -0.2778 C   0  0  0  0  0  0  0  0  0  0  0  0
   25.4143    5.7076   -0.0051 C   0  0  0  0  0  0  0  0  0  0  0  0
   23.5399    2.7313   -0.3610 C   0  0  0  0  0  0  0  0  0  0  0  0
   22.2763    3.4080   -0.3026 C   0  0  0  0  0  0  0  0  0  0  0  0
   21.3287    2.4540   -0.1454 C   0  0  0  0  0  0  0  0  0  0  0  0
   22.0150    1.1983   -0.0953 C   0  0  0  0  0  0  0  0  0  0  0  0
   23.3692    1.3840   -0.1935 N   0  0  0  0  0  0  0  0  0  0  0  0
   20.2904   -0.0248   -0.0200 H   0  0  0  0  0  0  0  0  0  0  0  0
   20.2733   -2.6162    0.0767 H   0  0  0  0  0  0  0  0  0  0  0  0
   22.1683   -4.5044    0.4223 H   0  0  0  0  0  0  0  0  0  0  0  0
   25.3529   -4.7007    2.9246 H   0  0  0  0  0  0  0  0  0  0  0  0
   25.3405   -7.1669    3.2524 H   0  0  0  0  0  0  0  0  0  0  0  0
   24.2188   -7.8295   -0.6455 H   0  0  0  0  0  0  0  0  0  0  0  0
   24.1928   -5.3929   -1.1470 H   0  0  0  0  0  0  0  0  0  0  0  0
   27.3723   -4.3582    1.1903 H   0  0  0  0  0  0  0  0  0  0  0  0
   29.2570   -2.4580    0.8779 H   0  0  0  0  0  0  0  0  0  0  0  0
   29.2409    2.4530   -0.9033 H   0  0  0  0  0  0  0  0  0  0  0  0
   27.3433    4.3388   -1.2419 H   0  0  0  0  0  0  0  0  0  0  0  0
   23.5604    4.7290   -2.6518 H   0  0  0  0  0  0  0  0  0  0  0  0
   23.6014    7.1924   -2.9939 H   0  0  0  0  0  0  0  0  0  0  0  0
   25.8847    7.7728    0.3737 H   0  0  0  0  0  0  0  0  0  0  0  0
   25.9381    5.3351    0.8672 H   0  0  0  0  0  0  0  0  0  0  0  0
   22.1450    4.4756   -0.3714 H   0  0  0  0  0  0  0  0  0  0  0  0
   20.2594    2.5700   -0.0679 H   0  0  0  0  0  0  0  0  0  0  0  0
   51.5985    0.0525    0.0034 Fe  0  0  0  0  0  0  0  0  0  0  0  0
   54.9891    0.0784    0.0080 C   0  0  0  0  0  0  0  0  0  0  0  0
   54.3368    1.2821   -0.1610 C   0  0  0  0  0  0  0  0  0  0  0  0
   55.0120    2.5363   -0.3081 C   0  0  0  0  0  0  0  0  0  0  0  0
   54.0552    3.4678   -0.5305 C   0  0  0  0  0  0  0  0  0  0  0  0
   52.7974    2.7783   -0.5283 C   0  0  0  0  0  0  0  0  0  0  0  0
   52.9807    1.4476   -0.2679 N   0  0  0  0  0  0  0  0  0  0  0  0
   51.5760    3.3904   -0.7888 C   0  0  0  0  0  0  0  0  0  0  0  0
   51.5643    4.8324   -1.1276 C   0  0  0  0  0  0  0  0  0  0  0  0
   50.9223    5.7598   -0.3081 C   0  0  0  0  0  0  0  0  0  0  0  0
   50.9385    7.0994   -0.6631 C   0  0  0  0  0  0  0  0  0  0  0  0
   51.5357    7.5500   -1.7616 N   0  0  0  0  0  0  0  0  0  0  0  0
   52.1468    6.6716   -2.5498 C   0  0  0  0  0  0  0  0  0  0  0  0
   52.1917    5.3137   -2.2756 C   0  0  0  0  0  0  0  0  0  0  0  0
   50.3666    2.7128   -0.7431 C   0  0  0  0  0  0  0  0  0  0  0  0
   49.1033    3.3111   -1.0581 C   0  0  0  0  0  0  0  0  0  0  0  0
   48.1577    2.3680   -0.8317 C   0  0  0  0  0  0  0  0  0  0  0  0
   50.1931    1.4025   -0.3652 N   0  0  0  0  0  0  0  0  0  0  0  0
   48.8465    1.1966   -0.3879 C   0  0  0  0  0  0  0  0  0  0  0  0
   48.1873    0.0307    0.0223 C   0  0  0  0  0  0  0  0  0  0  0  0
   48.8640   -1.1270    0.4262 C   0  0  0  0  0  0  0  0  0  0  0  0
   48.1912   -2.3206    0.8345 C   0  0  0  0  0  0  0  0  0  0  0  0
   49.1504   -3.2533    1.0455 C   0  0  0  0  0  0  0  0  0  0  0  0
   50.4077   -2.6218    0.7735 C   0  0  0  0  0  0  0  0  0  0  0  0
   50.2141   -1.3098    0.4108 N   0  0  0  0  0  0  0  0  0  0  0  0
   51.6251   -3.2862    0.7863 C   0  0  0  0  0  0  0  0  0  0  0  0
   51.6370   -4.7328    1.1098 C   0  0  0  0  0  0  0  0  0  0  0  0
   51.9944   -5.6808    0.1524 C   0  0  0  0  0  0  0  0  0  0  0  0
   51.9823   -7.0236    0.4955 C   0  0  0  0  0  0  0  0  0  0  0  0
   51.6495   -7.4583    1.7065 N   0  0  0  0  0  0  0  0  0  0  0  0
   51.3122   -6.5600    2.6260 C   0  0  0  0  0  0  0  0  0  0  0  0
   51.2881   -5.1965    2.3769 C   0  0  0  0  0  0  0  0  0  0  0  0
   52.8348   -2.6600    0.5069 C   0  0  0  0  0  0  0  0  0  0  0  0
   54.1060   -3.3235    0.5495 C   0  0  0  0  0  0  0  0  0  0  0  0
   55.0491   -2.3762    0.3367 C   0  0  0  0  0  0  0  0  0  0  0  0
   54.3538   -1.1357    0.1684 C   0  0  0  0  0  0  0  0  0  0  0  0
   52.9996   -1.3246    0.2567 N   0  0  0  0  0  0  0  0  0  0  0  0
   56.0733    0.0869    0.0155 H   0  0  0  0  0  0  0  0  0  0  0  0
   56.0806    2.6668   -0.2456 H   0  0  0  0  0  0  0  0  0  0  0  0
   54.1764    4.5284   -0.6803 H   0  0  0  0  0  0  0  0  0  0  0  0
   50.4303    5.4376    0.6019 H   0  0  0  0  0  0  0  0  0  0  0  0
   50.4503    7.8416   -0.0384 H   0  0  0  0  0  0  0  0  0  0  0  0
   52.6222    7.0704   -3.4411 H   0  0  0  0  0  0  0  0  0  0  0  0
   52.6933    4.6322   -2.9523 H   0  0  0  0  0  0  0  0  0  0  0  0
   48.9688    4.3203   -1.4118 H   0  0  0  0  0  0  0  0  0  0  0  0
   47.0889    2.4437   -0.9503 H   0  0  0  0  0  0  0  0  0  0  0  0
   47.1220   -2.4203    0.9295 H   0  0  0  0  0  0  0  0  0  0  0  0
   49.0270   -4.2812    1.3446 H   0  0  0  0  0  0  0  0  0  0  0  0
   52.2630   -5.3715   -0.8506 H   0  0  0  0  0  0  0  0  0  0  0  0
   52.2510   -7.7819   -0.2341 H   0  0  0  0  0  0  0  0  0  0  0  0
   51.0479   -6.9465    3.6059 H   0  0  0  0  0  0  0  0  0  0  0  0
   51.0151   -4.4991    3.1598 H   0  0  0  0  0  0  0  0  0  0  0  0
   54.2457   -4.3761    0.7348 H   0  0  0  0  0  0  0  0  0  0  0  0
   56.1214   -2.4856    0.3028 H   0  0  0  0  0  0  0  0  0  0  0  0
   30.7967   -0.0062   -0.0041 C   0  0  0  0  0  0  0  0  0  0  0  0
   29.5729    0.0029    0.0048 C   0  0  0  0  0  0  0  0  0  0  0  0
   32.1428   -0.0107   -0.0154 C   0  0  0  0  0  0  0  0  0  0  0  0
   33.3669   -0.0188   -0.0216 C   0  0  0  0  0  0  0  0  0  0  0  0
   44.2180    0.0159    0.0044 C   0  0  0  0  0  0  0  0  0  0  0  0
   42.9936    0.0107   -0.0091 C   0  0  0  0  0  0  0  0  0  0  0  0
   45.5631    0.0220    0.0154 C   0  0  0  0  0  0  0  0  0  0  0  0
   46.7874    0.0212    0.0200 C   0  0  0  0  0  0  0  0  0  0  0  0
   38.1812   -0.0199   -0.0361 Fe  0  0  0  0  0  0  0  0  0  0  0  0
   34.7670   -0.0236   -0.0298 C   0  0  0  0  0  0  0  0  0  0  0  0
   35.4395   -0.9018    0.8300 C   0  0  0  0  0  0  0  0  0  0  0  0
   34.7680   -1.7699    1.7450 C   0  0  0  0  0  0  0  0  0  0  0  0
   35.7251   -2.5305    2.3303 C   0  0  0  0  0  0  0  0  0  0  0  0
   36.9758   -2.1286    1.7603 C   0  0  0  0  0  0  0  0  0  0  0  0
   36.7870   -1.1005    0.8696 N   0  0  0  0  0  0  0  0  0  0  0  0
   38.1900   -2.7443    2.0380 C   0  0  0  0  0  0  0  0  0  0  0  0
   38.1971   -3.9144    2.9455 C   0  0  0  0  0  0  0  0  0  0  0  0
   37.5088   -5.0842    2.6269 C   0  0  0  0  0  0  0  0  0  0  0  0
   37.5489   -6.1521    3.5096 C   0  0  0  0  0  0  0  0  0  0  0  0
   38.2118   -6.1157    4.6609 N   0  0  0  0  0  0  0  0  0  0  0  0
   38.8678   -5.0029    4.9734 C   0  0  0  0  0  0  0  0  0  0  0  0
   38.8932   -3.8859    4.1533 C   0  0  0  0  0  0  0  0  0  0  0  0
   39.3998   -2.3117    1.5096 C   0  0  0  0  0  0  0  0  0  0  0  0
   40.6537   -2.9635    1.7403 C   0  0  0  0  0  0  0  0  0  0  0  0
   41.6059   -2.1924    1.1607 C   0  0  0  0  0  0  0  0  0  0  0  0
   39.5817   -1.1788    0.7545 N   0  0  0  0  0  0  0  0  0  0  0  0
   40.9281   -1.0804    0.5727 C   0  0  0  0  0  0  0  0  0  0  0  0
   41.5948    0.0005   -0.0204 C   0  0  0  0  0  0  0  0  0  0  0  0
   40.9201    1.0684   -0.6272 C   0  0  0  0  0  0  0  0  0  0  0  0
   41.5895    2.1844   -1.2172 C   0  0  0  0  0  0  0  0  0  0  0  0
   40.6341    2.9359   -1.8169 C   0  0  0  0  0  0  0  0  0  0  0  0
   39.3863    2.2695   -1.5943 C   0  0  0  0  0  0  0  0  0  0  0  0
   39.5745    1.1462   -0.8268 N   0  0  0  0  0  0  0  0  0  0  0  0
   38.1757    2.6857   -2.1343 C   0  0  0  0  0  0  0  0  0  0  0  0
   38.1766    3.8495   -3.0498 C   0  0  0  0  0  0  0  0  0  0  0  0
   38.8823    3.8210   -4.2521 C   0  0  0  0  0  0  0  0  0  0  0  0
   38.8503    4.9320   -5.0800 C   0  0  0  0  0  0  0  0  0  0  0  0
   38.1794    6.0394   -4.7801 N   0  0  0  0  0  0  0  0  0  0  0  0
   37.5077    6.0762   -3.6339 C   0  0  0  0  0  0  0  0  0  0  0  0
   37.4732    5.0138   -2.7443 C   0  0  0  0  0  0  0  0  0  0  0  0
   36.9649    2.0649   -1.8530 C   0  0  0  0  0  0  0  0  0  0  0  0
   35.7112    2.4583   -2.4223 C   0  0  0  0  0  0  0  0  0  0  0  0
   34.7574    1.7061   -1.8210 C   0  0  0  0  0  0  0  0  0  0  0  0
   35.4342    0.8487   -0.9000 C   0  0  0  0  0  0  0  0  0  0  0  0
   36.7814    1.0461   -0.9503 N   0  0  0  0  0  0  0  0  0  0  0  0
   33.7024   -1.7849    1.9076 H   0  0  0  0  0  0  0  0  0  0  0  0
   35.6045   -3.2930    3.0822 H   0  0  0  0  0  0  0  0  0  0  0  0
   36.9641   -5.1622    1.6937 H   0  0  0  0  0  0  0  0  0  0  0  0
   37.0259   -7.0762    3.2814 H   0  0  0  0  0  0  0  0  0  0  0  0
   39.3973   -5.0033    5.9216 H   0  0  0  0  0  0  0  0  0  0  0  0
   39.4329   -2.9957    4.4534 H   0  0  0  0  0  0  0  0  0  0  0  0
   40.7796   -3.8914    2.2738 H   0  0  0  0  0  0  0  0  0  0  0  0
   42.6721   -2.3485    1.1287 H   0  0  0  0  0  0  0  0  0  0  0  0
   42.6531    2.3552   -1.1742 H   0  0  0  0  0  0  0  0  0  0  0  0
   40.7536    3.8601   -2.3583 H   0  0  0  0  0  0  0  0  0  0  0  0
   39.4346    2.9350   -4.5419 H   0  0  0  0  0  0  0  0  0  0  0  0
   39.3875    4.9322   -6.0239 H   0  0  0  0  0  0  0  0  0  0  0  0
   36.9718    6.9953   -3.4163 H   0  0  0  0  0  0  0  0  0  0  0  0
   36.9208    5.0924   -1.8156 H   0  0  0  0  0  0  0  0  0  0  0  0
   35.5860    3.2105   -3.1839 H   0  0  0  0  0  0  0  0  0  0  0  0
   33.6909    1.7188   -1.9781 H   0  0  0  0  0  0  0  0  0  0  0  0
  2  3  4  0  0  0  0
  3  4  4  0  0  0  0
  4  5  2  0  0  0  0
  5  6  4  0  0  0  0
  1  7  1  0  0  0  0
  3  7  4  0  0  0  0
  6  7  4  0  0  0  0
  6  8  4  0  0  0  0
  8  9  1  0  0  0  0
  9 10  4  0  0  0  0
 10 11  4  0  0  0  0
 11 12  4  0  0  0  0
 12 13  4  0  0  0  0
  9 14  4  0  0  0  0
 13 14  4  0  0  0  0
  8 15  4  0  0  0  0
 15 16  4  0  0  0  0
 16 17  2  0  0  0  0
  1 18  1  0  0  0  0
 15 18  4  0  0  0  0
 17 19  4  0  0  0  0
 18 19  4  0  0  0  0
 19 20  4  0  0  0  0
 20 21  4  0  0  0  0
 21 22  4  0  0  0  0
 22 23  2  0  0  0  0
 23 24  4  0  0  0  0
  1 25  1  0  0  0  0
 21 25  4  0  0  0  0
 24 25  4  0  0  0  0
 24 26  4  0  0  0  0
 26 27  1  0  0  0  0
 27 28  4  0  0  0  0
 28 29  4  0  0  0  0
 29 30  4  0  0  0  0
 30 31  4  0  0  0  0
 27 32  4  0  0  0  0
 31 32  4  0  0  0  0
 26 33  4  0  0  0  0
 33 34  4  0  0  0  0
 34 35  2  0  0  0  0
  2 36  4  0  0  0  0
 35 36  4  0  0  0  0
  1 37  1  0  0  0  0
 33 37  4  0  0  0  0
 36 37  4  0  0  0  0
  2 38  1  0  0  0  0
  4 39  1  0  0  0  0
  5 40  1  0  0  0  0
 10 41  1  0  0  0  0
 11 42  1  0  0  0  0
 13 43  1  0  0  0  0
 14 44  1  0  0  0  0
 16 45  1  0  0  0  0
 17 46  1  0  0  0  0
 22 47  1  0  0  0  0
 23 48  1  0  0  0  0
 28 49  1  0  0  0  0
 29 50  1  0  0  0  0
 31 51  1  0  0  0  0
 32 52  1  0  0  0  0
 34 53  1  0  0  0  0
 35 54  1  0  0  0  0
 56 57  4  0  0  0  0
 57 58  4  0  0  0  0
 58 59  2  0  0  0  0
 59 60  4  0  0  0  0
 55 61  1  0  0  0  0
 57 61  4  0  0  0  0
 60 61  4  0  0  0  0
 60 62  4  0  0  0  0
 62 63  1  0  0  0  0
 63 64  4  0  0  0  0
 64 65  4  0  0  0  0
 65 66  4  0  0  0  0
 66 67  4  0  0  0  0
 63 68  4  0  0  0  0
 67 68  4  0  0  0  0
 62 69  4  0  0  0  0
 69 70  4  0  0  0  0
 70 71  2  0  0  0  0
 55 72  1  0  0  0  0
 69 72  4  0  0  0  0
 71 73  4  0  0  0  0
 72 73  4  0  0  0  0
 73 74  4  0  0  0  0
 74 75  4  0  0  0  0
 75 76  4  0  0  0  0
 76 77  2  0  0  0  0
 77 78  4  0  0  0  0
 55 79  1  0  0  0  0
 75 79  4  0  0  0  0
 78 79  4  0  0  0  0
 78 80  4  0  0  0  0
 80 81  1  0  0  0  0
 81 82  4  0  0  0  0
 82 83  4  0  0  0  0
 83 84  4  0  0  0  0
 84 85  4  0  0  0  0
 81 86  4  0  0  0  0
 85 86  4  0  0  0  0
 80 87  4  0  0  0  0
 87 88  4  0  0  0  0
 88 89  2  0  0  0  0
 56 90  4  0  0  0  0
 89 90  4  0  0  0  0
 55 91  1  0  0  0  0
 87 91  4  0  0  0  0
 90 91  4  0  0  0  0
 56 92  1  0  0  0  0
 58 93  1  0  0  0  0
 59 94  1  0  0  0  0
 64 95  1  0  0  0  0
 65 96  1  0  0  0  0
 67 97  1  0  0  0  0
 68 98  1  0  0  0  0
 70 99  1  0  0  0  0
 71100  1  0  0  0  0
 76101  1  0  0  0  0
 77102  1  0  0  0  0
 82103  1  0  0  0  0
 83104  1  0  0  0  0
 85105  1  0  0  0  0
 86106  1  0  0  0  0
 88107  1  0  0  0  0
 89108  1  0  0  0  0
 20110  4  0  0  0  0
109110  3  0  0  0  0
109111  4  0  0  0  0
111112  3  0  0  0  0
113114  3  0  0  0  0
113115  4  0  0  0  0
 74116  4  0  0  0  0
115116  3  0  0  0  0
112118  4  0  0  0  0
118119  4  0  0  0  0
119120  4  0  0  0  0
120121  2  0  0  0  0
121122  4  0  0  0  0
117123  1  0  0  0  0
119123  4  0  0  0  0
122123  4  0  0  0  0
122124  4  0  0  0  0
124125  1  0  0  0  0
125126  4  0  0  0  0
126127  4  0  0  0  0
127128  4  0  0  0  0
128129  4  0  0  0  0
125130  4  0  0  0  0
129130  4  0  0  0  0
124131  4  0  0  0  0
131132  4  0  0  0  0
132133  2  0  0  0  0
117134  1  0  0  0  0
131134  4  0  0  0  0
133135  4  0  0  0  0
134135  4  0  0  0  0
114136  4  0  0  0  0
135136  4  0  0  0  0
136137  4  0  0  0  0
137138  4  0  0  0  0
138139  2  0  0  0  0
139140  4  0  0  0  0
117141  1  0  0  0  0
137141  4  0  0  0  0
140141  4  0  0  0  0
140142  4  0  0  0  0
142143  1  0  0  0  0
143144  4  0  0  0  0
144145  4  0  0  0  0
145146  4  0  0  0  0
146147  4  0  0  0  0
143148  4  0  0  0  0
147148  4  0  0  0  0
142149  4  0  0  0  0
149150  4  0  0  0  0
150151  2  0  0  0  0
118152  4  0  0  0  0
151152  4  0  0  0  0
117153  1  0  0  0  0
149153  4  0  0  0  0
152153  4  0  0  0  0
120154  1  0  0  0  0
121155  1  0  0  0  0
126156  1  0  0  0  0
127157  1  0  0  0  0
129158  1  0  0  0  0
130159  1  0  0  0  0
132160  1  0  0  0  0
133161  1  0  0  0  0
138162  1  0  0  0  0
139163  1  0  0  0  0
144164  1  0  0  0  0
145165  1  0  0  0  0
147166  1  0  0  0  0
148167  1  0  0  0  0
150168  1  0  0  0  0
151169  1  0  0  0  0
M  END
