 xtb: 6.5.1 (b24c23e)
          07302208313D

195230  0     0  0            999 V2000
   27.1552   -0.0034   -0.0437 Cu  0  0  0  0  0  0  0  0  0  0  0  0
   23.7501   -0.0359   -0.1334 C   0  0  0  0  0  0  0  0  0  0  0  0
   24.3906   -1.2521   -0.3150 C   0  0  0  0  0  0  0  0  0  0  0  0
   23.7206   -2.5087   -0.4926 C   0  0  0  0  0  0  0  0  0  0  0  0
   24.6832   -3.4527   -0.6338 C   0  0  0  0  0  0  0  0  0  0  0  0
   25.9510   -2.7779   -0.5571 C   0  0  0  0  0  0  0  0  0  0  0  0
   25.7424   -1.4446   -0.3546 N   0  0  0  0  0  0  0  0  0  0  0  0
   27.2000   -3.3972   -0.6501 C   0  0  0  0  0  0  0  0  0  0  0  0
   27.2204   -4.8573   -0.9040 C   0  0  0  0  0  0  0  0  0  0  0  0
   27.7950   -5.7274    0.0277 C   0  0  0  0  0  0  0  0  0  0  0  0
   27.8135   -7.0910   -0.2015 C   0  0  0  0  0  0  0  0  0  0  0  0
   27.2574   -7.5894   -1.3763 C   0  0  0  0  0  0  0  0  0  0  0  0
   27.2771   -9.0199   -1.6238 N   0  0  0  0  0  0  0  0  0  0  0  0
   26.7871   -9.4151   -2.6506 O   0  0  0  0  0  0  0  0  0  0  0  0
   27.7820   -9.7240   -0.7872 O   0  0  0  0  0  0  0  0  0  0  0  0
   26.6832   -6.7403   -2.3182 C   0  0  0  0  0  0  0  0  0  0  0  0
   26.6648   -5.3788   -2.0763 C   0  0  0  0  0  0  0  0  0  0  0  0
   28.4314   -2.7496   -0.5242 C   0  0  0  0  0  0  0  0  0  0  0  0
   29.7115   -3.3773   -0.6938 C   0  0  0  0  0  0  0  0  0  0  0  0
   30.6525   -2.4167   -0.5120 C   0  0  0  0  0  0  0  0  0  0  0  0
   28.6124   -1.4194   -0.2547 N   0  0  0  0  0  0  0  0  0  0  0  0
   29.9551   -1.1966   -0.2370 C   0  0  0  0  0  0  0  0  0  0  0  0
   30.5853    0.0342    0.0189 C   0  0  0  0  0  0  0  0  0  0  0  0
   29.9195    1.2484    0.2625 C   0  0  0  0  0  0  0  0  0  0  0  0
   30.5794    2.4796    0.5770 C   0  0  0  0  0  0  0  0  0  0  0  0
   29.6115    3.4170    0.7375 C   0  0  0  0  0  0  0  0  0  0  0  0
   28.3526    2.7651    0.5101 C   0  0  0  0  0  0  0  0  0  0  0  0
   28.5724    1.4422    0.2335 N   0  0  0  0  0  0  0  0  0  0  0  0
   27.1035    3.3864    0.5859 C   0  0  0  0  0  0  0  0  0  0  0  0
   27.0799    4.8429    0.8577 C   0  0  0  0  0  0  0  0  0  0  0  0
   26.4440    5.3374    2.0008 C   0  0  0  0  0  0  0  0  0  0  0  0
   26.4185    6.6955    2.2599 C   0  0  0  0  0  0  0  0  0  0  0  0
   27.0305    7.5690    1.3653 C   0  0  0  0  0  0  0  0  0  0  0  0
   27.0040    8.9960    1.6306 N   0  0  0  0  0  0  0  0  0  0  0  0
   26.4425    9.3674    2.6294 O   0  0  0  0  0  0  0  0  0  0  0  0
   27.5447    9.7215    0.8356 O   0  0  0  0  0  0  0  0  0  0  0  0
   27.6670    7.0978    0.2204 C   0  0  0  0  0  0  0  0  0  0  0  0
   27.6908    5.7374   -0.0267 C   0  0  0  0  0  0  0  0  0  0  0  0
   25.8732    2.7437    0.4227 C   0  0  0  0  0  0  0  0  0  0  0  0
   24.5905    3.3945    0.4327 C   0  0  0  0  0  0  0  0  0  0  0  0
   23.6552    2.4342    0.2315 C   0  0  0  0  0  0  0  0  0  0  0  0
   24.3573    1.1912    0.0853 C   0  0  0  0  0  0  0  0  0  0  0  0
   25.7012    1.4084    0.2007 N   0  0  0  0  0  0  0  0  0  0  0  0
   22.6656   -0.0457   -0.1638 H   0  0  0  0  0  0  0  0  0  0  0  0
   22.6500   -2.6388   -0.4958 H   0  0  0  0  0  0  0  0  0  0  0  0
   24.5530   -4.5147   -0.7657 H   0  0  0  0  0  0  0  0  0  0  0  0
   28.2142   -5.3277    0.9437 H   0  0  0  0  0  0  0  0  0  0  0  0
   28.2506   -7.7734    0.5175 H   0  0  0  0  0  0  0  0  0  0  0  0
   26.2611   -7.1530   -3.2265 H   0  0  0  0  0  0  0  0  0  0  0  0
   26.2316   -4.7062   -2.8073 H   0  0  0  0  0  0  0  0  0  0  0  0
   29.8668   -4.4158   -0.9374 H   0  0  0  0  0  0  0  0  0  0  0  0
   31.7248   -2.5150   -0.5639 H   0  0  0  0  0  0  0  0  0  0  0  0
   31.6468    2.5994    0.6707 H   0  0  0  0  0  0  0  0  0  0  0  0
   29.7354    4.4547    1.0016 H   0  0  0  0  0  0  0  0  0  0  0  0
   25.9821    4.6463    2.6962 H   0  0  0  0  0  0  0  0  0  0  0  0
   25.9331    7.0871    3.1458 H   0  0  0  0  0  0  0  0  0  0  0  0
   28.1323    7.7986   -0.4623 H   0  0  0  0  0  0  0  0  0  0  0  0
   28.1716    5.3593   -0.9213 H   0  0  0  0  0  0  0  0  0  0  0  0
   24.4331    4.4530    0.5628 H   0  0  0  0  0  0  0  0  0  0  0  0
   22.5839    2.5447    0.1751 H   0  0  0  0  0  0  0  0  0  0  0  0
   64.3771    0.0321   -0.0217 Cu  0  0  0  0  0  0  0  0  0  0  0  0
   67.7813    0.0964   -0.1196 C   0  0  0  0  0  0  0  0  0  0  0  0
   67.1429    1.2922    0.1716 C   0  0  0  0  0  0  0  0  0  0  0  0
   67.8150    2.5243    0.4710 C   0  0  0  0  0  0  0  0  0  0  0  0
   66.8540    3.4532    0.6976 C   0  0  0  0  0  0  0  0  0  0  0  0
   65.5849    2.7986    0.5254 C   0  0  0  0  0  0  0  0  0  0  0  0
   65.7913    1.4858    0.2155 N   0  0  0  0  0  0  0  0  0  0  0  0
   64.3369    3.4083    0.6776 C   0  0  0  0  0  0  0  0  0  0  0  0
   64.3182    4.8579    0.9854 C   0  0  0  0  0  0  0  0  0  0  0  0
   63.7487    5.3184    2.1765 C   0  0  0  0  0  0  0  0  0  0  0  0
   63.7314    6.6693    2.4718 C   0  0  0  0  0  0  0  0  0  0  0  0
   64.2838    7.5695    1.5649 C   0  0  0  0  0  0  0  0  0  0  0  0
   64.2660    8.9891    1.8686 N   0  0  0  0  0  0  0  0  0  0  0  0
   64.7538    9.7383    1.0616 O   0  0  0  0  0  0  0  0  0  0  0  0
   63.7642    9.3309    2.9088 O   0  0  0  0  0  0  0  0  0  0  0  0
   64.8529    7.1322    0.3722 C   0  0  0  0  0  0  0  0  0  0  0  0
   64.8700    5.7786    0.0893 C   0  0  0  0  0  0  0  0  0  0  0  0
   63.1048    2.7598    0.5634 C   0  0  0  0  0  0  0  0  0  0  0  0
   61.8251    3.4050    0.6490 C   0  0  0  0  0  0  0  0  0  0  0  0
   60.8831    2.4445    0.4717 C   0  0  0  0  0  0  0  0  0  0  0  0
   62.9225    1.4242    0.3229 N   0  0  0  0  0  0  0  0  0  0  0  0
   61.5794    1.2097    0.2697 C   0  0  0  0  0  0  0  0  0  0  0  0
   60.9478   -0.0292    0.0605 C   0  0  0  0  0  0  0  0  0  0  0  0
   61.6120   -1.2464   -0.1724 C   0  0  0  0  0  0  0  0  0  0  0  0
   60.9515   -2.5066   -0.3334 C   0  0  0  0  0  0  0  0  0  0  0  0
   61.9179   -3.4345   -0.5496 C   0  0  0  0  0  0  0  0  0  0  0  0
   63.1763   -2.7432   -0.5320 C   0  0  0  0  0  0  0  0  0  0  0  0
   62.9580   -1.4135   -0.2892 N   0  0  0  0  0  0  0  0  0  0  0  0
   64.4239   -3.3462   -0.7105 C   0  0  0  0  0  0  0  0  0  0  0  0
   64.4451   -4.7976   -1.0089 C   0  0  0  0  0  0  0  0  0  0  0  0
   65.0898   -5.6871   -0.1436 C   0  0  0  0  0  0  0  0  0  0  0  0
   65.1141   -7.0423   -0.4177 C   0  0  0  0  0  0  0  0  0  0  0  0
   64.4921   -7.5130   -1.5707 C   0  0  0  0  0  0  0  0  0  0  0  0
   64.5179   -8.9344   -1.8654 N   0  0  0  0  0  0  0  0  0  0  0  0
   65.0871   -9.6554   -1.0864 O   0  0  0  0  0  0  0  0  0  0  0  0
   63.9688   -9.3056   -2.8711 O   0  0  0  0  0  0  0  0  0  0  0  0
   63.8465   -6.6445   -2.4463 C   0  0  0  0  0  0  0  0  0  0  0  0
   63.8238   -5.2917   -2.1601 C   0  0  0  0  0  0  0  0  0  0  0  0
   65.6546   -2.6887   -0.6326 C   0  0  0  0  0  0  0  0  0  0  0  0
   66.9353   -3.2949   -0.8798 C   0  0  0  0  0  0  0  0  0  0  0  0
   67.8720   -2.3294   -0.7118 C   0  0  0  0  0  0  0  0  0  0  0  0
   67.1724   -1.1230   -0.3733 C   0  0  0  0  0  0  0  0  0  0  0  0
   65.8288   -1.3680   -0.3370 N   0  0  0  0  0  0  0  0  0  0  0  0
   68.8657    0.1169   -0.1517 H   0  0  0  0  0  0  0  0  0  0  0  0
   68.8859    2.6461    0.5098 H   0  0  0  0  0  0  0  0  0  0  0  0
   66.9861    4.4879    0.9699 H   0  0  0  0  0  0  0  0  0  0  0  0
   63.3325    4.6063    2.8795 H   0  0  0  0  0  0  0  0  0  0  0  0
   63.2980    7.0347    3.3950 H   0  0  0  0  0  0  0  0  0  0  0  0
   65.2722    7.8536   -0.3188 H   0  0  0  0  0  0  0  0  0  0  0  0
   65.2991    5.4268   -0.8416 H   0  0  0  0  0  0  0  0  0  0  0  0
   61.6704    4.4599    0.8076 H   0  0  0  0  0  0  0  0  0  0  0  0
   59.8106    2.5544    0.4695 H   0  0  0  0  0  0  0  0  0  0  0  0
   59.8850   -2.6542   -0.2777 H   0  0  0  0  0  0  0  0  0  0  0  0
   61.7936   -4.4955   -0.6929 H   0  0  0  0  0  0  0  0  0  0  0  0
   65.5599   -5.3098    0.7571 H   0  0  0  0  0  0  0  0  0  0  0  0
   65.6063   -7.7394    0.2498 H   0  0  0  0  0  0  0  0  0  0  0  0
   63.3735   -7.0355   -3.3390 H   0  0  0  0  0  0  0  0  0  0  0  0
   63.3357   -4.6038   -2.8406 H   0  0  0  0  0  0  0  0  0  0  0  0
   67.0906   -4.3244   -1.1596 H   0  0  0  0  0  0  0  0  0  0  0  0
   68.9424   -2.4104   -0.8147 H   0  0  0  0  0  0  0  0  0  0  0  0
   31.9910    0.0506    0.0300 C   0  0  0  0  0  0  0  0  0  0  0  0
   33.2154    0.0565    0.0276 C   0  0  0  0  0  0  0  0  0  0  0  0
   34.5583    0.0606    0.0253 C   0  0  0  0  0  0  0  0  0  0  0  0
   35.7890    0.0609    0.0201 C   0  0  0  0  0  0  0  0  0  0  0  0
   37.1269    0.0563    0.0111 C   0  0  0  0  0  0  0  0  0  0  0  0
   38.3576    0.0501    0.0039 C   0  0  0  0  0  0  0  0  0  0  0  0
   39.7002    0.0429   -0.0060 C   0  0  0  0  0  0  0  0  0  0  0  0
   40.9249    0.0344   -0.0176 C   0  0  0  0  0  0  0  0  0  0  0  0
   50.6089    0.0002    0.0767 C   0  0  0  0  0  0  0  0  0  0  0  0
   51.8334   -0.0112    0.0937 C   0  0  0  0  0  0  0  0  0  0  0  0
   53.1760   -0.0224    0.1038 C   0  0  0  0  0  0  0  0  0  0  0  0
   54.4066   -0.0346    0.1112 C   0  0  0  0  0  0  0  0  0  0  0  0
   55.7445   -0.0455    0.1099 C   0  0  0  0  0  0  0  0  0  0  0  0
   56.9752   -0.0560    0.1063 C   0  0  0  0  0  0  0  0  0  0  0  0
   58.3180   -0.0548    0.0960 C   0  0  0  0  0  0  0  0  0  0  0  0
   59.5424   -0.0491    0.0833 C   0  0  0  0  0  0  0  0  0  0  0  0
   45.7670    0.0163   -0.0013 Cu  0  0  0  0  0  0  0  0  0  0  0  0
   42.3299    0.0278   -0.0219 C   0  0  0  0  0  0  0  0  0  0  0  0
   42.9741   -1.2203    0.0565 C   0  0  0  0  0  0  0  0  0  0  0  0
   42.2920   -2.4740    0.1735 C   0  0  0  0  0  0  0  0  0  0  0  0
   43.2444   -3.4405    0.2015 C   0  0  0  0  0  0  0  0  0  0  0  0
   44.5151   -2.7811    0.0951 C   0  0  0  0  0  0  0  0  0  0  0  0
   44.3180   -1.4288    0.0173 N   0  0  0  0  0  0  0  0  0  0  0  0
   45.7550   -3.4248    0.0984 C   0  0  0  0  0  0  0  0  0  0  0  0
   45.7499   -4.9068    0.1354 C   0  0  0  0  0  0  0  0  0  0  0  0
   46.3330   -5.5885    1.2079 C   0  0  0  0  0  0  0  0  0  0  0  0
   46.3296   -6.9708    1.2477 C   0  0  0  0  0  0  0  0  0  0  0  0
   45.7429   -7.6786    0.2023 C   0  0  0  0  0  0  0  0  0  0  0  0
   45.7396   -9.1301    0.2373 N   0  0  0  0  0  0  0  0  0  0  0  0
   45.2196   -9.7091   -0.6820 O   0  0  0  0  0  0  0  0  0  0  0  0
   46.2570   -9.6664    1.1835 O   0  0  0  0  0  0  0  0  0  0  0  0
   45.1592   -7.0192   -0.8758 C   0  0  0  0  0  0  0  0  0  0  0  0
   45.1626   -5.6365   -0.9026 C   0  0  0  0  0  0  0  0  0  0  0  0
   46.9994   -2.7905    0.0722 C   0  0  0  0  0  0  0  0  0  0  0  0
   48.2663   -3.4632    0.0135 C   0  0  0  0  0  0  0  0  0  0  0  0
   49.2254   -2.5031    0.0025 C   0  0  0  0  0  0  0  0  0  0  0  0
   47.2056   -1.4373    0.0785 N   0  0  0  0  0  0  0  0  0  0  0  0
   48.5513   -1.2403    0.0431 C   0  0  0  0  0  0  0  0  0  0  0  0
   49.2040    0.0058    0.0542 C   0  0  0  0  0  0  0  0  0  0  0  0
   48.5589    1.2557    0.0371 C   0  0  0  0  0  0  0  0  0  0  0  0
   49.2389    2.5149    0.0876 C   0  0  0  0  0  0  0  0  0  0  0  0
   48.2870    3.4804    0.0275 C   0  0  0  0  0  0  0  0  0  0  0  0
   47.0187    2.8145   -0.0677 C   0  0  0  0  0  0  0  0  0  0  0  0
   47.2164    1.4603   -0.0484 N   0  0  0  0  0  0  0  0  0  0  0  0
   45.7798    3.4563   -0.1435 C   0  0  0  0  0  0  0  0  0  0  0  0
   45.7864    4.9365   -0.2171 C   0  0  0  0  0  0  0  0  0  0  0  0
   46.4146    5.5860   -1.2843 C   0  0  0  0  0  0  0  0  0  0  0  0
   46.4194    6.9666   -1.3631 C   0  0  0  0  0  0  0  0  0  0  0  0
   45.7950    7.7058   -0.3623 C   0  0  0  0  0  0  0  0  0  0  0  0
   45.7981    9.1556   -0.4393 N   0  0  0  0  0  0  0  0  0  0  0  0
   46.3510    9.6630   -1.3814 O   0  0  0  0  0  0  0  0  0  0  0  0
   45.2473    9.7623    0.4434 O   0  0  0  0  0  0  0  0  0  0  0  0
   45.1674    7.0791    0.7107 C   0  0  0  0  0  0  0  0  0  0  0  0
   45.1639    5.6978    0.7770 C   0  0  0  0  0  0  0  0  0  0  0  0
   44.5358    2.8204   -0.1559 C   0  0  0  0  0  0  0  0  0  0  0  0
   43.2709    3.4853   -0.2942 C   0  0  0  0  0  0  0  0  0  0  0  0
   42.3116    2.5260   -0.2553 C   0  0  0  0  0  0  0  0  0  0  0  0
   42.9839    1.2704   -0.1068 C   0  0  0  0  0  0  0  0  0  0  0  0
   44.3285    1.4709   -0.0557 N   0  0  0  0  0  0  0  0  0  0  0  0
   41.2217   -2.5897    0.2329 H   0  0  0  0  0  0  0  0  0  0  0  0
   43.1026   -4.5044    0.3012 H   0  0  0  0  0  0  0  0  0  0  0  0
   46.7765   -5.0255    2.0208 H   0  0  0  0  0  0  0  0  0  0  0  0
   46.7733   -7.5078    2.0774 H   0  0  0  0  0  0  0  0  0  0  0  0
   44.7129   -7.5934   -1.6787 H   0  0  0  0  0  0  0  0  0  0  0  0
   44.7216   -5.1111   -1.7416 H   0  0  0  0  0  0  0  0  0  0  0  0
   48.4017   -4.5317   -0.0291 H   0  0  0  0  0  0  0  0  0  0  0  0
   50.2954   -2.6292   -0.0386 H   0  0  0  0  0  0  0  0  0  0  0  0
   50.3074    2.6350    0.1666 H   0  0  0  0  0  0  0  0  0  0  0  0
   48.4275    4.5486    0.0611 H   0  0  0  0  0  0  0  0  0  0  0  0
   46.8866    4.9987   -2.0634 H   0  0  0  0  0  0  0  0  0  0  0  0
   46.8978    7.4782   -2.1896 H   0  0  0  0  0  0  0  0  0  0  0  0
   44.6924    7.6774    1.4789 H   0  0  0  0  0  0  0  0  0  0  0  0
   44.6893    5.1984    1.6135 H   0  0  0  0  0  0  0  0  0  0  0  0
   43.1366    4.5473   -0.4201 H   0  0  0  0  0  0  0  0  0  0  0  0
   41.2430    2.6475   -0.3304 H   0  0  0  0  0  0  0  0  0  0  0  0
  2  3  4  0  0  0  0
  3  4  1  0  0  0  0
  4  5  2  0  0  0  0
  5  6  4  0  0  0  0
  1  7  1  0  0  0  0
  3  7  4  0  0  0  0
  6  7  4  0  0  0  0
  6  8  4  0  0  0  0
  8  9  1  0  0  0  0
  9 10  4  0  0  0  0
 10 11  4  0  0  0  0
 11 12  4  0  0  0  0
 12 13  1  0  0  0  0
 13 14  2  0  0  0  0
 13 15  2  0  0  0  0
 14 15  1  0  0  0  0
 12 16  4  0  0  0  0
  9 17  4  0  0  0  0
 16 17  4  0  0  0  0
  8 18  4  0  0  0  0
 18 19  4  0  0  0  0
 19 20  2  0  0  0  0
  1 21  1  0  0  0  0
 18 21  4  0  0  0  0
 20 22  4  0  0  0  0
 21 22  4  0  0  0  0
 22 23  4  0  0  0  0
 23 24  4  0  0  0  0
 24 25  4  0  0  0  0
 25 26  2  0  0  0  0
 26 27  4  0  0  0  0
  1 28  1  0  0  0  0
 24 28  4  0  0  0  0
 27 28  4  0  0  0  0
 27 29  4  0  0  0  0
 29 30  1  0  0  0  0
 30 31  4  0  0  0  0
 31 32  4  0  0  0  0
 32 33  4  0  0  0  0
 33 34  1  0  0  0  0
 34 35  2  0  0  0  0
 34 36  2  0  0  0  0
 35 36  1  0  0  0  0
 33 37  4  0  0  0  0
 30 38  4  0  0  0  0
 37 38  4  0  0  0  0
 29 39  4  0  0  0  0
 39 40  4  0  0  0  0
 40 41  2  0  0  0  0
  2 42  4  0  0  0  0
 41 42  1  0  0  0  0
  1 43  1  0  0  0  0
 39 43  4  0  0  0  0
 42 43  4  0  0  0  0
  2 44  1  0  0  0  0
  4 45  1  0  0  0  0
  5 46  1  0  0  0  0
 10 47  1  0  0  0  0
 11 48  1  0  0  0  0
 16 49  1  0  0  0  0
 17 50  1  0  0  0  0
 19 51  1  0  0  0  0
 20 52  1  0  0  0  0
 25 53  1  0  0  0  0
 26 54  1  0  0  0  0
 31 55  1  0  0  0  0
 32 56  1  0  0  0  0
 37 57  1  0  0  0  0
 38 58  1  0  0  0  0
 40 59  1  0  0  0  0
 41 60  1  0  0  0  0
 62 63  4  0  0  0  0
 63 64  1  0  0  0  0
 64 65  2  0  0  0  0
 65 66  4  0  0  0  0
 61 67  1  0  0  0  0
 63 67  4  0  0  0  0
 66 67  4  0  0  0  0
 66 68  4  0  0  0  0
 68 69  1  0  0  0  0
 69 70  4  0  0  0  0
 70 71  4  0  0  0  0
 71 72  4  0  0  0  0
 72 73  1  0  0  0  0
 73 74  2  0  0  0  0
 73 75  2  0  0  0  0
 74 75  1  0  0  0  0
 72 76  4  0  0  0  0
 69 77  4  0  0  0  0
 76 77  4  0  0  0  0
 68 78  4  0  0  0  0
 78 79  4  0  0  0  0
 79 80  2  0  0  0  0
 61 81  1  0  0  0  0
 78 81  4  0  0  0  0
 80 82  4  0  0  0  0
 81 82  4  0  0  0  0
 82 83  4  0  0  0  0
 83 84  4  0  0  0  0
 84 85  4  0  0  0  0
 85 86  2  0  0  0  0
 86 87  4  0  0  0  0
 61 88  1  0  0  0  0
 84 88  4  0  0  0  0
 87 88  4  0  0  0  0
 87 89  4  0  0  0  0
 89 90  1  0  0  0  0
 90 91  4  0  0  0  0
 91 92  4  0  0  0  0
 92 93  4  0  0  0  0
 93 94  1  0  0  0  0
 94 95  2  0  0  0  0
 94 96  2  0  0  0  0
 95 96  1  0  0  0  0
 93 97  4  0  0  0  0
 90 98  4  0  0  0  0
 97 98  4  0  0  0  0
 89 99  4  0  0  0  0
 99100  4  0  0  0  0
100101  2  0  0  0  0
 62102  4  0  0  0  0
101102  1  0  0  0  0
 61103  1  0  0  0  0
 99103  4  0  0  0  0
102103  4  0  0  0  0
 62104  1  0  0  0  0
 64105  1  0  0  0  0
 65106  1  0  0  0  0
 70107  1  0  0  0  0
 71108  1  0  0  0  0
 76109  1  0  0  0  0
 77110  1  0  0  0  0
 79111  1  0  0  0  0
 80112  1  0  0  0  0
 85113  1  0  0  0  0
 86114  1  0  0  0  0
 91115  1  0  0  0  0
 92116  1  0  0  0  0
 97117  1  0  0  0  0
 98118  1  0  0  0  0
100119  1  0  0  0  0
101120  1  0  0  0  0
 23121  4  0  0  0  0
121122  3  0  0  0  0
122123  4  0  0  0  0
123124  3  0  0  0  0
124125  4  0  0  0  0
125126  3  0  0  0  0
126127  4  0  0  0  0
127128  3  0  0  0  0
129130  3  0  0  0  0
130131  4  0  0  0  0
131132  3  0  0  0  0
132133  4  0  0  0  0
133134  3  0  0  0  0
134135  4  0  0  0  0
 83136  4  0  0  0  0
135136  3  0  0  0  0
128138  4  0  0  0  0
138139  4  0  0  0  0
139140  4  0  0  0  0
140141  2  0  0  0  0
141142  4  0  0  0  0
137143  1  0  0  0  0
139143  4  0  0  0  0
142143  4  0  0  0  0
142144  4  0  0  0  0
144145  1  0  0  0  0
145146  4  0  0  0  0
146147  4  0  0  0  0
147148  4  0  0  0  0
148149  1  0  0  0  0
149150  2  0  0  0  0
149151  2  0  0  0  0
150151  1  0  0  0  0
148152  4  0  0  0  0
145153  4  0  0  0  0
152153  4  0  0  0  0
144154  4  0  0  0  0
154155  4  0  0  0  0
155156  2  0  0  0  0
137157  1  0  0  0  0
154157  4  0  0  0  0
156158  4  0  0  0  0
157158  4  0  0  0  0
129159  4  0  0  0  0
158159  4  0  0  0  0
159160  4  0  0  0  0
160161  4  0  0  0  0
161162  2  0  0  0  0
162163  4  0  0  0  0
137164  1  0  0  0  0
160164  4  0  0  0  0
163164  4  0  0  0  0
163165  4  0  0  0  0
165166  1  0  0  0  0
166167  4  0  0  0  0
167168  4  0  0  0  0
168169  4  0  0  0  0
169170  1  0  0  0  0
170171  2  0  0  0  0
170172  2  0  0  0  0
171172  1  0  0  0  0
169173  4  0  0  0  0
166174  4  0  0  0  0
173174  4  0  0  0  0
165175  4  0  0  0  0
175176  4  0  0  0  0
176177  2  0  0  0  0
138178  4  0  0  0  0
177178  4  0  0  0  0
137179  1  0  0  0  0
175179  4  0  0  0  0
178179  4  0  0  0  0
140180  1  0  0  0  0
141181  1  0  0  0  0
146182  1  0  0  0  0
147183  1  0  0  0  0
152184  1  0  0  0  0
153185  1  0  0  0  0
155186  1  0  0  0  0
156187  1  0  0  0  0
161188  1  0  0  0  0
162189  1  0  0  0  0
167190  1  0  0  0  0
168191  1  0  0  0  0
173192  1  0  0  0  0
174193  1  0  0  0  0
176194  1  0  0  0  0
177195  1  0  0  0  0
M  END
