 xtb: 6.5.1 (b24c23e)
          07262216543D

416465  0     0  0            999 V2000
   56.5488   -0.0244   -0.0243 C   0  0  0  0  0  0  0  0  0  0  0  0
   57.1622   -1.2697   -0.0762 C   0  0  0  0  0  0  0  0  0  0  0  0
   56.5360   -2.5479   -0.1370 C   0  0  0  0  0  0  0  0  0  0  0  0
   57.5190   -3.4965   -0.1725 C   0  0  0  0  0  0  0  0  0  0  0  0
   58.7765   -2.8281   -0.1347 C   0  0  0  0  0  0  0  0  0  0  0  0
   58.5101   -1.4906   -0.0773 N   0  0  0  0  0  0  0  0  0  0  0  0
   60.0400   -3.4074   -0.1523 C   0  0  0  0  0  0  0  0  0  0  0  0
   61.2647   -2.7567   -0.1167 C   0  0  0  0  0  0  0  0  0  0  0  0
   62.5382   -3.4543   -0.1408 C   0  0  0  0  0  0  0  0  0  0  0  0
   63.4944   -2.5037   -0.0951 C   0  0  0  0  0  0  0  0  0  0  0  0
   61.4673   -1.4122   -0.0570 N   0  0  0  0  0  0  0  0  0  0  0  0
   62.8010   -1.2290   -0.0429 C   0  0  0  0  0  0  0  0  0  0  0  0
   63.4653    0.0142    0.0136 C   0  0  0  0  0  0  0  0  0  0  0  0
   62.8266    1.2676    0.0670 C   0  0  0  0  0  0  0  0  0  0  0  0
   63.4478    2.5444    0.1271 C   0  0  0  0  0  0  0  0  0  0  0  0
   62.4611    3.4907    0.1661 C   0  0  0  0  0  0  0  0  0  0  0  0
   61.2077    2.8181    0.1307 C   0  0  0  0  0  0  0  0  0  0  0  0
   61.4812    1.4781    0.0713 N   0  0  0  0  0  0  0  0  0  0  0  0
   59.9454    3.3977    0.1511 C   0  0  0  0  0  0  0  0  0  0  0  0
   58.7198    2.7443    0.1148 C   0  0  0  0  0  0  0  0  0  0  0  0
   57.4401    3.4359    0.1388 C   0  0  0  0  0  0  0  0  0  0  0  0
   56.4897    2.4810    0.0893 C   0  0  0  0  0  0  0  0  0  0  0  0
   57.1898    1.2073    0.0355 C   0  0  0  0  0  0  0  0  0  0  0  0
   58.5294    1.4055    0.0526 N   0  0  0  0  0  0  0  0  0  0  0  0
   55.4640   -0.0225   -0.0312 H   0  0  0  0  0  0  0  0  0  0  0  0
   55.4692   -2.7054   -0.1511 H   0  0  0  0  0  0  0  0  0  0  0  0
   57.3980   -4.5671   -0.2208 H   0  0  0  0  0  0  0  0  0  0  0  0
   59.2121   -0.7592   -0.0403 H   0  0  0  0  0  0  0  0  0  0  0  0
   60.0617   -4.4914   -0.1998 H   0  0  0  0  0  0  0  0  0  0  0  0
   62.6514   -4.5261   -0.1869 H   0  0  0  0  0  0  0  0  0  0  0  0
   64.5663   -2.6225   -0.0951 H   0  0  0  0  0  0  0  0  0  0  0  0
   64.5139    2.7054    0.1386 H   0  0  0  0  0  0  0  0  0  0  0  0
   62.5793    4.5614    0.2151 H   0  0  0  0  0  0  0  0  0  0  0  0
   60.7816    0.7440    0.0353 H   0  0  0  0  0  0  0  0  0  0  0  0
   59.9248    4.4816    0.2002 H   0  0  0  0  0  0  0  0  0  0  0  0
   57.3217    4.5072    0.1870 H   0  0  0  0  0  0  0  0  0  0  0  0
   55.4167    2.5928    0.0878 H   0  0  0  0  0  0  0  0  0  0  0  0
  208.6131    0.0442   -0.0089 C   0  0  0  0  0  0  0  0  0  0  0  0
  207.9955    1.2732   -0.2029 C   0  0  0  0  0  0  0  0  0  0  0  0
  208.6174    2.5390   -0.4043 C   0  0  0  0  0  0  0  0  0  0  0  0
  207.6311    3.4736   -0.5503 C   0  0  0  0  0  0  0  0  0  0  0  0
  206.3759    2.8086   -0.4428 C   0  0  0  0  0  0  0  0  0  0  0  0
  206.6468    1.4871   -0.2345 N   0  0  0  0  0  0  0  0  0  0  0  0
  205.1104    3.3771   -0.5300 C   0  0  0  0  0  0  0  0  0  0  0  0
  203.8879    2.7296   -0.4258 C   0  0  0  0  0  0  0  0  0  0  0  0
  202.6120    3.4149   -0.5315 C   0  0  0  0  0  0  0  0  0  0  0  0
  201.6592    2.4715   -0.3827 C   0  0  0  0  0  0  0  0  0  0  0  0
  203.6902    1.3993   -0.2169 N   0  0  0  0  0  0  0  0  0  0  0  0
  202.3571    1.2134   -0.1864 C   0  0  0  0  0  0  0  0  0  0  0  0
  201.6973   -0.0185    0.0055 C   0  0  0  0  0  0  0  0  0  0  0  0
  202.3401   -1.2558    0.1991 C   0  0  0  0  0  0  0  0  0  0  0  0
  201.7232   -2.5206    0.3980 C   0  0  0  0  0  0  0  0  0  0  0  0
  202.7130   -3.4527    0.5459 C   0  0  0  0  0  0  0  0  0  0  0  0
  203.9642   -2.7831    0.4411 C   0  0  0  0  0  0  0  0  0  0  0  0
  203.6862   -1.4591    0.2319 N   0  0  0  0  0  0  0  0  0  0  0  0
  205.2285   -3.3515    0.5315 C   0  0  0  0  0  0  0  0  0  0  0  0
  206.4518   -2.7010    0.4285 C   0  0  0  0  0  0  0  0  0  0  0  0
  207.7339   -3.3800    0.5357 C   0  0  0  0  0  0  0  0  0  0  0  0
  208.6809   -2.4325    0.3846 C   0  0  0  0  0  0  0  0  0  0  0  0
  207.9764   -1.1758    0.1855 C   0  0  0  0  0  0  0  0  0  0  0  0
  206.6374   -1.3767    0.2183 N   0  0  0  0  0  0  0  0  0  0  0  0
  209.6980    0.0461   -0.0105 H   0  0  0  0  0  0  0  0  0  0  0  0
  209.6836    2.6983   -0.4314 H   0  0  0  0  0  0  0  0  0  0  0  0
  207.7485    4.5325   -0.7180 H   0  0  0  0  0  0  0  0  0  0  0  0
  205.9472    0.7617   -0.1185 H   0  0  0  0  0  0  0  0  0  0  0  0
  205.0849    4.4489   -0.6988 H   0  0  0  0  0  0  0  0  0  0  0  0
  202.4950    4.4744   -0.6974 H   0  0  0  0  0  0  0  0  0  0  0  0
  200.5868    2.5852   -0.3992 H   0  0  0  0  0  0  0  0  0  0  0  0
  200.6576   -2.6835    0.4232 H   0  0  0  0  0  0  0  0  0  0  0  0
  202.5984   -4.5118    0.7131 H   0  0  0  0  0  0  0  0  0  0  0  0
  204.3834   -0.7308    0.1176 H   0  0  0  0  0  0  0  0  0  0  0  0
  205.2529   -4.4231    0.7012 H   0  0  0  0  0  0  0  0  0  0  0  0
  207.8561   -4.4388    0.7037 H   0  0  0  0  0  0  0  0  0  0  0  0
  209.7544   -2.5391    0.4008 H   0  0  0  0  0  0  0  0  0  0  0  0
   68.6652    0.0367    0.0146 C   0  0  0  0  0  0  0  0  0  0  0  0
   67.4365    0.0304    0.0173 C   0  0  0  0  0  0  0  0  0  0  0  0
   66.0931    0.0248    0.0187 C   0  0  0  0  0  0  0  0  0  0  0  0
   64.8690    0.0169    0.0170 C   0  0  0  0  0  0  0  0  0  0  0  0
   70.0085    0.0415    0.0126 C   0  0  0  0  0  0  0  0  0  0  0  0
   71.2328    0.0431    0.0089 C   0  0  0  0  0  0  0  0  0  0  0  0
   84.8093    0.0093    0.0267 C   0  0  0  0  0  0  0  0  0  0  0  0
   83.5804    0.0095    0.0204 C   0  0  0  0  0  0  0  0  0  0  0  0
   82.2376    0.0115    0.0151 C   0  0  0  0  0  0  0  0  0  0  0  0
   81.0132    0.0151    0.0093 C   0  0  0  0  0  0  0  0  0  0  0  0
   86.1520    0.0065    0.0287 C   0  0  0  0  0  0  0  0  0  0  0  0
   87.3764    0.0029    0.0291 C   0  0  0  0  0  0  0  0  0  0  0  0
  100.9443   -0.0035   -0.0228 C   0  0  0  0  0  0  0  0  0  0  0  0
   99.7156   -0.0071   -0.0259 C   0  0  0  0  0  0  0  0  0  0  0  0
   98.3731   -0.0111   -0.0235 C   0  0  0  0  0  0  0  0  0  0  0  0
   97.1487   -0.0115   -0.0196 C   0  0  0  0  0  0  0  0  0  0  0  0
  102.2868    0.0011   -0.0220 C   0  0  0  0  0  0  0  0  0  0  0  0
  103.5112    0.0043   -0.0210 C   0  0  0  0  0  0  0  0  0  0  0  0
  117.0730   -0.0116    0.0008 C   0  0  0  0  0  0  0  0  0  0  0  0
  115.8443   -0.0066   -0.0028 C   0  0  0  0  0  0  0  0  0  0  0  0
  114.5019   -0.0062   -0.0020 C   0  0  0  0  0  0  0  0  0  0  0  0
  113.2776   -0.0024   -0.0012 C   0  0  0  0  0  0  0  0  0  0  0  0
  118.4154   -0.0129    0.0046 C   0  0  0  0  0  0  0  0  0  0  0  0
  119.6397   -0.0143    0.0052 C   0  0  0  0  0  0  0  0  0  0  0  0
  133.1979    0.0157   -0.0006 C   0  0  0  0  0  0  0  0  0  0  0  0
  131.9692    0.0156    0.0024 C   0  0  0  0  0  0  0  0  0  0  0  0
  130.6269    0.0120    0.0033 C   0  0  0  0  0  0  0  0  0  0  0  0
  129.4026    0.0108    0.0046 C   0  0  0  0  0  0  0  0  0  0  0  0
  134.5403    0.0160   -0.0037 C   0  0  0  0  0  0  0  0  0  0  0  0
  135.7645    0.0122   -0.0038 C   0  0  0  0  0  0  0  0  0  0  0  0
  149.3224   -0.0121    0.0075 C   0  0  0  0  0  0  0  0  0  0  0  0
  148.0937   -0.0154    0.0068 C   0  0  0  0  0  0  0  0  0  0  0  0
  146.7513   -0.0199    0.0043 C   0  0  0  0  0  0  0  0  0  0  0  0
  145.5270   -0.0195    0.0029 C   0  0  0  0  0  0  0  0  0  0  0  0
  150.6648   -0.0067    0.0077 C   0  0  0  0  0  0  0  0  0  0  0  0
  151.8890   -0.0028    0.0090 C   0  0  0  0  0  0  0  0  0  0  0  0
  165.4499    0.0088   -0.0034 C   0  0  0  0  0  0  0  0  0  0  0  0
  164.2211    0.0115   -0.0020 C   0  0  0  0  0  0  0  0  0  0  0  0
  162.8786    0.0112    0.0006 C   0  0  0  0  0  0  0  0  0  0  0  0
  161.6543    0.0127    0.0017 C   0  0  0  0  0  0  0  0  0  0  0  0
  166.7924    0.0080   -0.0033 C   0  0  0  0  0  0  0  0  0  0  0  0
  168.0167    0.0052   -0.0050 C   0  0  0  0  0  0  0  0  0  0  0  0
  181.5835   -0.0090    0.0018 C   0  0  0  0  0  0  0  0  0  0  0  0
  180.3547   -0.0061    0.0039 C   0  0  0  0  0  0  0  0  0  0  0  0
  179.0120   -0.0055    0.0062 C   0  0  0  0  0  0  0  0  0  0  0  0
  177.7876   -0.0047    0.0062 C   0  0  0  0  0  0  0  0  0  0  0  0
  182.9263   -0.0102    0.0031 C   0  0  0  0  0  0  0  0  0  0  0  0
  184.1507   -0.0147    0.0006 C   0  0  0  0  0  0  0  0  0  0  0  0
  197.7259   -0.0478    0.0033 C   0  0  0  0  0  0  0  0  0  0  0  0
  196.4973   -0.0578    0.0051 C   0  0  0  0  0  0  0  0  0  0  0  0
  195.1540   -0.0645    0.0009 C   0  0  0  0  0  0  0  0  0  0  0  0
  193.9297   -0.0649   -0.0015 C   0  0  0  0  0  0  0  0  0  0  0  0
  199.0694   -0.0386    0.0043 C   0  0  0  0  0  0  0  0  0  0  0  0
  200.2936   -0.0265    0.0047 C   0  0  0  0  0  0  0  0  0  0  0  0
   72.6355    0.0442    0.0045 C   0  0  0  0  0  0  0  0  0  0  0  0
   73.2759    1.2988   -0.0030 C   0  0  0  0  0  0  0  0  0  0  0  0
   72.6605    2.5784   -0.0092 C   0  0  0  0  0  0  0  0  0  0  0  0
   73.6527    3.5210   -0.0176 C   0  0  0  0  0  0  0  0  0  0  0  0
   74.9015    2.8415   -0.0163 C   0  0  0  0  0  0  0  0  0  0  0  0
   74.6224    1.5023   -0.0074 N   0  0  0  0  0  0  0  0  0  0  0  0
   76.1669    3.4187   -0.0220 C   0  0  0  0  0  0  0  0  0  0  0  0
   77.3948    2.7756   -0.0181 C   0  0  0  0  0  0  0  0  0  0  0  0
   78.6634    3.4822   -0.0221 C   0  0  0  0  0  0  0  0  0  0  0  0
   79.6262    2.5370   -0.0138 C   0  0  0  0  0  0  0  0  0  0  0  0
   77.6065    1.4310   -0.0085 N   0  0  0  0  0  0  0  0  0  0  0  0
   78.9414    1.2573   -0.0057 C   0  0  0  0  0  0  0  0  0  0  0  0
   79.6110    0.0157    0.0035 C   0  0  0  0  0  0  0  0  0  0  0  0
   78.9709   -1.2389    0.0082 C   0  0  0  0  0  0  0  0  0  0  0  0
   79.5867   -2.5185    0.0146 C   0  0  0  0  0  0  0  0  0  0  0  0
   78.5947   -3.4612    0.0158 C   0  0  0  0  0  0  0  0  0  0  0  0
   77.3457   -2.7819    0.0109 C   0  0  0  0  0  0  0  0  0  0  0  0
   77.6247   -1.4424    0.0064 N   0  0  0  0  0  0  0  0  0  0  0  0
   76.0805   -3.3587    0.0117 C   0  0  0  0  0  0  0  0  0  0  0  0
   74.8525   -2.7151    0.0098 C   0  0  0  0  0  0  0  0  0  0  0  0
   73.5841   -3.4219    0.0134 C   0  0  0  0  0  0  0  0  0  0  0  0
   72.6211   -2.4770    0.0122 C   0  0  0  0  0  0  0  0  0  0  0  0
   73.3055   -1.1970    0.0073 C   0  0  0  0  0  0  0  0  0  0  0  0
   74.6408   -1.3707    0.0058 N   0  0  0  0  0  0  0  0  0  0  0  0
   71.5952    2.7449   -0.0077 H   0  0  0  0  0  0  0  0  0  0  0  0
   73.5398    4.5934   -0.0239 H   0  0  0  0  0  0  0  0  0  0  0  0
   75.3160    0.7616   -0.0046 H   0  0  0  0  0  0  0  0  0  0  0  0
   76.1846    4.5041   -0.0293 H   0  0  0  0  0  0  0  0  0  0  0  0
   78.7692    4.5557   -0.0300 H   0  0  0  0  0  0  0  0  0  0  0  0
   80.6973    2.6626   -0.0135 H   0  0  0  0  0  0  0  0  0  0  0  0
   80.6520   -2.6847    0.0174 H   0  0  0  0  0  0  0  0  0  0  0  0
   78.7079   -4.5336    0.0199 H   0  0  0  0  0  0  0  0  0  0  0  0
   76.9311   -0.7018    0.0022 H   0  0  0  0  0  0  0  0  0  0  0  0
   76.0624   -4.4440    0.0153 H   0  0  0  0  0  0  0  0  0  0  0  0
   73.4787   -4.4955    0.0168 H   0  0  0  0  0  0  0  0  0  0  0  0
   71.5501   -2.6029    0.0141 H   0  0  0  0  0  0  0  0  0  0  0  0
   88.7786    0.0047    0.0260 C   0  0  0  0  0  0  0  0  0  0  0  0
   89.4162    1.2605    0.0056 C   0  0  0  0  0  0  0  0  0  0  0  0
   88.7971    2.5384   -0.0089 C   0  0  0  0  0  0  0  0  0  0  0  0
   89.7866    3.4837   -0.0274 C   0  0  0  0  0  0  0  0  0  0  0  0
   91.0372    2.8076   -0.0250 C   0  0  0  0  0  0  0  0  0  0  0  0
   90.7620    1.4676   -0.0043 N   0  0  0  0  0  0  0  0  0  0  0  0
   92.3012    3.3872   -0.0415 C   0  0  0  0  0  0  0  0  0  0  0  0
   93.5295    2.7449   -0.0406 C   0  0  0  0  0  0  0  0  0  0  0  0
   94.7978    3.4516   -0.0597 C   0  0  0  0  0  0  0  0  0  0  0  0
   95.7607    2.5066   -0.0521 C   0  0  0  0  0  0  0  0  0  0  0  0
   93.7413    1.4003   -0.0224 N   0  0  0  0  0  0  0  0  0  0  0  0
   95.0761    1.2268   -0.0282 C   0  0  0  0  0  0  0  0  0  0  0  0
   95.7467   -0.0141   -0.0133 C   0  0  0  0  0  0  0  0  0  0  0  0
   95.1095   -1.2699    0.0087 C   0  0  0  0  0  0  0  0  0  0  0  0
   95.7288   -2.5477    0.0235 C   0  0  0  0  0  0  0  0  0  0  0  0
   94.7395   -3.4931    0.0440 C   0  0  0  0  0  0  0  0  0  0  0  0
   93.4888   -2.8171    0.0420 C   0  0  0  0  0  0  0  0  0  0  0  0
   93.7638   -1.4770    0.0200 N   0  0  0  0  0  0  0  0  0  0  0  0
   92.2247   -3.3964    0.0592 C   0  0  0  0  0  0  0  0  0  0  0  0
   90.9964   -2.7539    0.0572 C   0  0  0  0  0  0  0  0  0  0  0  0
   89.7282   -3.4607    0.0754 C   0  0  0  0  0  0  0  0  0  0  0  0
   88.7651   -2.5159    0.0657 C   0  0  0  0  0  0  0  0  0  0  0  0
   89.4494   -1.2360    0.0420 C   0  0  0  0  0  0  0  0  0  0  0  0
   90.7844   -1.4094    0.0378 N   0  0  0  0  0  0  0  0  0  0  0  0
   87.7314    2.7019   -0.0054 H   0  0  0  0  0  0  0  0  0  0  0  0
   89.6707    4.5557   -0.0418 H   0  0  0  0  0  0  0  0  0  0  0  0
   91.4580    0.7293    0.0021 H   0  0  0  0  0  0  0  0  0  0  0  0
   92.3174    4.4725   -0.0572 H   0  0  0  0  0  0  0  0  0  0  0  0
   94.9033    4.5250   -0.0763 H   0  0  0  0  0  0  0  0  0  0  0  0
   96.8317    2.6323   -0.0612 H   0  0  0  0  0  0  0  0  0  0  0  0
   96.7945   -2.7111    0.0190 H   0  0  0  0  0  0  0  0  0  0  0  0
   94.8556   -4.5650    0.0592 H   0  0  0  0  0  0  0  0  0  0  0  0
   93.0678   -0.7387    0.0137 H   0  0  0  0  0  0  0  0  0  0  0  0
   92.2083   -4.4816    0.0759 H   0  0  0  0  0  0  0  0  0  0  0  0
   89.6230   -4.5341    0.0928 H   0  0  0  0  0  0  0  0  0  0  0  0
   87.6941   -2.6418    0.0736 H   0  0  0  0  0  0  0  0  0  0  0  0
  104.9133    0.0075   -0.0175 C   0  0  0  0  0  0  0  0  0  0  0  0
  105.5490    1.2642   -0.0352 C   0  0  0  0  0  0  0  0  0  0  0  0
  104.9273    2.5408   -0.0555 C   0  0  0  0  0  0  0  0  0  0  0  0
  105.9149    3.4881   -0.0675 C   0  0  0  0  0  0  0  0  0  0  0  0
  107.1668    2.8145   -0.0552 C   0  0  0  0  0  0  0  0  0  0  0  0
  106.8943    1.4739   -0.0357 N   0  0  0  0  0  0  0  0  0  0  0  0
  108.4300    3.3960   -0.0616 C   0  0  0  0  0  0  0  0  0  0  0  0
  109.6585    2.7542   -0.0501 C   0  0  0  0  0  0  0  0  0  0  0  0
  110.9268    3.4610   -0.0585 C   0  0  0  0  0  0  0  0  0  0  0  0
  111.8897    2.5160   -0.0430 C   0  0  0  0  0  0  0  0  0  0  0  0
  109.8702    1.4096   -0.0299 N   0  0  0  0  0  0  0  0  0  0  0  0
  111.2049    1.2362   -0.0253 C   0  0  0  0  0  0  0  0  0  0  0  0
  111.8757   -0.0044   -0.0058 C   0  0  0  0  0  0  0  0  0  0  0  0
  111.2402   -1.2612    0.0124 C   0  0  0  0  0  0  0  0  0  0  0  0
  111.8620   -2.5377    0.0331 C   0  0  0  0  0  0  0  0  0  0  0  0
  110.8745   -3.4851    0.0462 C   0  0  0  0  0  0  0  0  0  0  0  0
  109.6226   -2.8115    0.0341 C   0  0  0  0  0  0  0  0  0  0  0  0
  109.8949   -1.4709    0.0137 N   0  0  0  0  0  0  0  0  0  0  0  0
  108.3594   -3.3929    0.0412 C   0  0  0  0  0  0  0  0  0  0  0  0
  107.1309   -2.7509    0.0293 C   0  0  0  0  0  0  0  0  0  0  0  0
  105.8627   -3.4578    0.0381 C   0  0  0  0  0  0  0  0  0  0  0  0
  104.8998   -2.5129    0.0216 C   0  0  0  0  0  0  0  0  0  0  0  0
  105.5843   -1.2330    0.0029 C   0  0  0  0  0  0  0  0  0  0  0  0
  106.9192   -1.4064    0.0080 N   0  0  0  0  0  0  0  0  0  0  0  0
  103.8613    2.7021   -0.0599 H   0  0  0  0  0  0  0  0  0  0  0  0
  105.7969    4.5599   -0.0836 H   0  0  0  0  0  0  0  0  0  0  0  0
  107.5920    0.7374   -0.0234 H   0  0  0  0  0  0  0  0  0  0  0  0
  108.4453    4.4812   -0.0776 H   0  0  0  0  0  0  0  0  0  0  0  0
  111.0323    4.5344   -0.0743 H   0  0  0  0  0  0  0  0  0  0  0  0
  112.9607    2.6418   -0.0433 H   0  0  0  0  0  0  0  0  0  0  0  0
  112.9280   -2.6989    0.0371 H   0  0  0  0  0  0  0  0  0  0  0  0
  110.9926   -4.5568    0.0628 H   0  0  0  0  0  0  0  0  0  0  0  0
  109.1971   -0.7344    0.0014 H   0  0  0  0  0  0  0  0  0  0  0  0
  108.3439   -4.4781    0.0580 H   0  0  0  0  0  0  0  0  0  0  0  0
  105.7574   -4.5312    0.0548 H   0  0  0  0  0  0  0  0  0  0  0  0
  103.8288   -2.6389    0.0217 H   0  0  0  0  0  0  0  0  0  0  0  0
  121.0417   -0.0075    0.0054 C   0  0  0  0  0  0  0  0  0  0  0  0
  121.6728    1.2516   -0.0113 C   0  0  0  0  0  0  0  0  0  0  0  0
  121.0461    2.5258   -0.0284 C   0  0  0  0  0  0  0  0  0  0  0  0
  122.0299    3.4770   -0.0409 C   0  0  0  0  0  0  0  0  0  0  0  0
  123.2843    2.8083   -0.0317 C   0  0  0  0  0  0  0  0  0  0  0  0
  123.0172    1.4665   -0.0137 N   0  0  0  0  0  0  0  0  0  0  0  0
  124.5454    3.3943   -0.0394 C   0  0  0  0  0  0  0  0  0  0  0  0
  125.7757    2.7561   -0.0308 C   0  0  0  0  0  0  0  0  0  0  0  0
  127.0420    3.4664   -0.0406 C   0  0  0  0  0  0  0  0  0  0  0  0
  128.0074    2.5240   -0.0281 C   0  0  0  0  0  0  0  0  0  0  0  0
  125.9910    1.4120   -0.0127 N   0  0  0  0  0  0  0  0  0  0  0  0
  127.3262    1.2423   -0.0107 C   0  0  0  0  0  0  0  0  0  0  0  0
  128.0007    0.0036    0.0058 C   0  0  0  0  0  0  0  0  0  0  0  0
  127.3697   -1.2554    0.0231 C   0  0  0  0  0  0  0  0  0  0  0  0
  127.9965   -2.5296    0.0404 C   0  0  0  0  0  0  0  0  0  0  0  0
  127.0127   -3.4808    0.0536 C   0  0  0  0  0  0  0  0  0  0  0  0
  125.7582   -2.8121    0.0447 C   0  0  0  0  0  0  0  0  0  0  0  0
  126.0253   -1.4704    0.0264 N   0  0  0  0  0  0  0  0  0  0  0  0
  124.4972   -3.3980    0.0527 C   0  0  0  0  0  0  0  0  0  0  0  0
  123.2668   -2.7598    0.0439 C   0  0  0  0  0  0  0  0  0  0  0  0
  122.0005   -3.4701    0.0534 C   0  0  0  0  0  0  0  0  0  0  0  0
  121.0351   -2.5278    0.0402 C   0  0  0  0  0  0  0  0  0  0  0  0
  121.7162   -1.2460    0.0227 C   0  0  0  0  0  0  0  0  0  0  0  0
  123.0515   -1.4157    0.0254 N   0  0  0  0  0  0  0  0  0  0  0  0
  119.9795    2.6829   -0.0307 H   0  0  0  0  0  0  0  0  0  0  0  0
  121.9077    4.5483   -0.0553 H   0  0  0  0  0  0  0  0  0  0  0  0
  123.7181    0.7330   -0.0038 H   0  0  0  0  0  0  0  0  0  0  0  0
  124.5571    4.4795   -0.0541 H   0  0  0  0  0  0  0  0  0  0  0  0
  127.1445    4.5401   -0.0551 H   0  0  0  0  0  0  0  0  0  0  0  0
  129.0782    2.6527   -0.0300 H   0  0  0  0  0  0  0  0  0  0  0  0
  129.0631   -2.6866    0.0424 H   0  0  0  0  0  0  0  0  0  0  0  0
  127.1350   -4.5521    0.0682 H   0  0  0  0  0  0  0  0  0  0  0  0
  125.3244   -0.7368    0.0164 H   0  0  0  0  0  0  0  0  0  0  0  0
  124.4854   -4.4833    0.0675 H   0  0  0  0  0  0  0  0  0  0  0  0
  121.8981   -4.5438    0.0682 H   0  0  0  0  0  0  0  0  0  0  0  0
  119.9643   -2.6565    0.0418 H   0  0  0  0  0  0  0  0  0  0  0  0
  137.1664    0.0117   -0.0053 C   0  0  0  0  0  0  0  0  0  0  0  0
  137.8049    1.2670   -0.0193 C   0  0  0  0  0  0  0  0  0  0  0  0
  137.1858    2.5450   -0.0337 C   0  0  0  0  0  0  0  0  0  0  0  0
  138.1753    3.4903   -0.0444 C   0  0  0  0  0  0  0  0  0  0  0  0
  139.4257    2.8140   -0.0366 C   0  0  0  0  0  0  0  0  0  0  0  0
  139.1505    1.4739   -0.0216 N   0  0  0  0  0  0  0  0  0  0  0  0
  140.6903    3.3923   -0.0423 C   0  0  0  0  0  0  0  0  0  0  0  0
  141.9167    2.7464   -0.0336 C   0  0  0  0  0  0  0  0  0  0  0  0
  143.1873    3.4490   -0.0397 C   0  0  0  0  0  0  0  0  0  0  0  0
  144.1469    2.5008   -0.0274 C   0  0  0  0  0  0  0  0  0  0  0  0
  142.1237    1.4010   -0.0182 N   0  0  0  0  0  0  0  0  0  0  0  0
  143.4579    1.2231   -0.0141 C   0  0  0  0  0  0  0  0  0  0  0  0
  144.1251   -0.0196    0.0006 C   0  0  0  0  0  0  0  0  0  0  0  0
  143.4866   -1.2748    0.0129 C   0  0  0  0  0  0  0  0  0  0  0  0
  144.1056   -2.5528    0.0273 C   0  0  0  0  0  0  0  0  0  0  0  0
  143.1161   -3.4981    0.0354 C   0  0  0  0  0  0  0  0  0  0  0  0
  141.8657   -2.8218    0.0264 C   0  0  0  0  0  0  0  0  0  0  0  0
  142.1410   -1.4817    0.0129 N   0  0  0  0  0  0  0  0  0  0  0  0
  140.6011   -3.4001    0.0306 C   0  0  0  0  0  0  0  0  0  0  0  0
  139.3747   -2.7543    0.0229 C   0  0  0  0  0  0  0  0  0  0  0  0
  138.1041   -3.4569    0.0295 C   0  0  0  0  0  0  0  0  0  0  0  0
  137.1445   -2.5086    0.0200 C   0  0  0  0  0  0  0  0  0  0  0  0
  137.8335   -1.2310    0.0073 C   0  0  0  0  0  0  0  0  0  0  0  0
  139.1677   -1.4089    0.0093 N   0  0  0  0  0  0  0  0  0  0  0  0
  136.1201    2.7084   -0.0356 H   0  0  0  0  0  0  0  0  0  0  0  0
  138.0595    4.5623   -0.0566 H   0  0  0  0  0  0  0  0  0  0  0  0
  139.8470    0.7361   -0.0132 H   0  0  0  0  0  0  0  0  0  0  0  0
  140.7088    4.4775   -0.0546 H   0  0  0  0  0  0  0  0  0  0  0  0
  143.2963    4.5221   -0.0517 H   0  0  0  0  0  0  0  0  0  0  0  0
  145.2184    2.6230   -0.0271 H   0  0  0  0  0  0  0  0  0  0  0  0
  145.1713   -2.7163    0.0308 H   0  0  0  0  0  0  0  0  0  0  0  0
  143.2319   -4.5702    0.0467 H   0  0  0  0  0  0  0  0  0  0  0  0
  141.4445   -0.7439    0.0041 H   0  0  0  0  0  0  0  0  0  0  0  0
  140.5826   -4.4853    0.0416 H   0  0  0  0  0  0  0  0  0  0  0  0
  137.9950   -4.5300    0.0401 H   0  0  0  0  0  0  0  0  0  0  0  0
  136.0730   -2.6308    0.0209 H   0  0  0  0  0  0  0  0  0  0  0  0
  153.2910    0.0037    0.0094 C   0  0  0  0  0  0  0  0  0  0  0  0
  153.9234    1.2620   -0.0031 C   0  0  0  0  0  0  0  0  0  0  0  0
  153.2986    2.5372   -0.0151 C   0  0  0  0  0  0  0  0  0  0  0  0
  154.2837    3.4870   -0.0248 C   0  0  0  0  0  0  0  0  0  0  0  0
  155.5373    2.8165   -0.0191 C   0  0  0  0  0  0  0  0  0  0  0  0
  155.2681    1.4751   -0.0059 N   0  0  0  0  0  0  0  0  0  0  0  0
  156.7991    3.4007   -0.0257 C   0  0  0  0  0  0  0  0  0  0  0  0
  158.0290    2.7613   -0.0207 C   0  0  0  0  0  0  0  0  0  0  0  0
  159.2958    3.4708   -0.0290 C   0  0  0  0  0  0  0  0  0  0  0  0
  160.2606    2.5278   -0.0209 C   0  0  0  0  0  0  0  0  0  0  0  0
  158.2435    1.4171   -0.0078 N   0  0  0  0  0  0  0  0  0  0  0  0
  159.5787    1.2464   -0.0076 C   0  0  0  0  0  0  0  0  0  0  0  0
  160.2522    0.0072    0.0039 C   0  0  0  0  0  0  0  0  0  0  0  0
  159.6195   -1.2510    0.0173 C   0  0  0  0  0  0  0  0  0  0  0  0
  160.2442   -2.5262    0.0294 C   0  0  0  0  0  0  0  0  0  0  0  0
  159.2590   -3.4760    0.0400 C   0  0  0  0  0  0  0  0  0  0  0  0
  158.0055   -2.8053    0.0346 C   0  0  0  0  0  0  0  0  0  0  0  0
  158.2747   -1.4640    0.0208 N   0  0  0  0  0  0  0  0  0  0  0  0
  156.7437   -3.3898    0.0416 C   0  0  0  0  0  0  0  0  0  0  0  0
  155.5139   -2.7505    0.0361 C   0  0  0  0  0  0  0  0  0  0  0  0
  154.2471   -3.4599    0.0440 C   0  0  0  0  0  0  0  0  0  0  0  0
  153.2823   -2.5168    0.0349 C   0  0  0  0  0  0  0  0  0  0  0  0
  153.9645   -1.2355    0.0216 C   0  0  0  0  0  0  0  0  0  0  0  0
  155.2996   -1.4062    0.0226 N   0  0  0  0  0  0  0  0  0  0  0  0
  152.2321    2.6958   -0.0160 H   0  0  0  0  0  0  0  0  0  0  0  0
  154.1630    4.5585   -0.0350 H   0  0  0  0  0  0  0  0  0  0  0  0
  155.9678    0.7403    0.0007 H   0  0  0  0  0  0  0  0  0  0  0  0
  156.8122    4.4860   -0.0363 H   0  0  0  0  0  0  0  0  0  0  0  0
  159.3989    4.5445   -0.0397 H   0  0  0  0  0  0  0  0  0  0  0  0
  161.3314    2.6558   -0.0234 H   0  0  0  0  0  0  0  0  0  0  0  0
  161.3106   -2.6850    0.0299 H   0  0  0  0  0  0  0  0  0  0  0  0
  159.3796   -4.5475    0.0507 H   0  0  0  0  0  0  0  0  0  0  0  0
  157.5750   -0.7292    0.0141 H   0  0  0  0  0  0  0  0  0  0  0  0
  156.7308   -4.4751    0.0525 H   0  0  0  0  0  0  0  0  0  0  0  0
  154.1438   -4.5336    0.0550 H   0  0  0  0  0  0  0  0  0  0  0  0
  152.2115   -2.6448    0.0368 H   0  0  0  0  0  0  0  0  0  0  0  0
  169.4187    0.0073   -0.0040 C   0  0  0  0  0  0  0  0  0  0  0  0
  170.0552    1.2636   -0.0190 C   0  0  0  0  0  0  0  0  0  0  0  0
  169.4349    2.5409   -0.0357 C   0  0  0  0  0  0  0  0  0  0  0  0
  170.4235    3.4872   -0.0464 C   0  0  0  0  0  0  0  0  0  0  0  0
  171.6747    2.8122   -0.0364 C   0  0  0  0  0  0  0  0  0  0  0  0
  171.4007    1.4719   -0.0200 N   0  0  0  0  0  0  0  0  0  0  0  0
  172.9384    3.3926   -0.0421 C   0  0  0  0  0  0  0  0  0  0  0  0
  174.1669    2.7506   -0.0325 C   0  0  0  0  0  0  0  0  0  0  0  0
  175.4349    3.4579   -0.0399 C   0  0  0  0  0  0  0  0  0  0  0  0
  176.3982    2.5134   -0.0270 C   0  0  0  0  0  0  0  0  0  0  0  0
  174.3792    1.4061   -0.0152 N   0  0  0  0  0  0  0  0  0  0  0  0
  175.7142    1.2332   -0.0117 C   0  0  0  0  0  0  0  0  0  0  0  0
  176.3854   -0.0073    0.0050 C   0  0  0  0  0  0  0  0  0  0  0  0
  175.7486   -1.2636    0.0210 C   0  0  0  0  0  0  0  0  0  0  0  0
  176.3687   -2.5409    0.0387 C   0  0  0  0  0  0  0  0  0  0  0  0
  175.3799   -3.4871    0.0495 C   0  0  0  0  0  0  0  0  0  0  0  0
  174.1288   -2.8120    0.0388 C   0  0  0  0  0  0  0  0  0  0  0  0
  174.4030   -1.4717    0.0219 N   0  0  0  0  0  0  0  0  0  0  0  0
  172.8652   -3.3926    0.0441 C   0  0  0  0  0  0  0  0  0  0  0  0
  171.6366   -2.7509    0.0338 C   0  0  0  0  0  0  0  0  0  0  0  0
  170.3684   -3.4581    0.0406 C   0  0  0  0  0  0  0  0  0  0  0  0
  169.4053   -2.5134    0.0273 C   0  0  0  0  0  0  0  0  0  0  0  0
  170.0896   -1.2334    0.0123 C   0  0  0  0  0  0  0  0  0  0  0  0
  171.4244   -1.4064    0.0165 N   0  0  0  0  0  0  0  0  0  0  0  0
  168.3690    2.7033   -0.0391 H   0  0  0  0  0  0  0  0  0  0  0  0
  170.3065    4.5590   -0.0600 H   0  0  0  0  0  0  0  0  0  0  0  0
  172.0974    0.7343   -0.0098 H   0  0  0  0  0  0  0  0  0  0  0  0
  172.9542    4.4778   -0.0557 H   0  0  0  0  0  0  0  0  0  0  0  0
  175.5398    4.5315   -0.0534 H   0  0  0  0  0  0  0  0  0  0  0  0
  177.4692    2.6397   -0.0273 H   0  0  0  0  0  0  0  0  0  0  0  0
  177.4345   -2.7035    0.0423 H   0  0  0  0  0  0  0  0  0  0  0  0
  175.4966   -4.5590    0.0637 H   0  0  0  0  0  0  0  0  0  0  0  0
  173.7063   -0.7341    0.0111 H   0  0  0  0  0  0  0  0  0  0  0  0
  172.8495   -4.4779    0.0580 H   0  0  0  0  0  0  0  0  0  0  0  0
  170.2632   -4.5316    0.0538 H   0  0  0  0  0  0  0  0  0  0  0  0
  168.3342   -2.6395    0.0271 H   0  0  0  0  0  0  0  0  0  0  0  0
  185.5528   -0.0180   -0.0017 C   0  0  0  0  0  0  0  0  0  0  0  0
  186.1956    1.2345   -0.0432 C   0  0  0  0  0  0  0  0  0  0  0  0
  185.5827    2.5148   -0.0846 C   0  0  0  0  0  0  0  0  0  0  0  0
  186.5767    3.4548   -0.1175 C   0  0  0  0  0  0  0  0  0  0  0  0
  187.8242    2.7730   -0.0970 C   0  0  0  0  0  0  0  0  0  0  0  0
  187.5424    1.4349   -0.0520 N   0  0  0  0  0  0  0  0  0  0  0  0
  189.0908    3.3464   -0.1184 C   0  0  0  0  0  0  0  0  0  0  0  0
  190.3171    2.7000   -0.0980 C   0  0  0  0  0  0  0  0  0  0  0  0
  191.5873    3.4031   -0.1234 C   0  0  0  0  0  0  0  0  0  0  0  0
  192.5478    2.4561   -0.0911 C   0  0  0  0  0  0  0  0  0  0  0  0
  190.5253    1.3558   -0.0516 N   0  0  0  0  0  0  0  0  0  0  0  0
  191.8601    1.1788   -0.0461 C   0  0  0  0  0  0  0  0  0  0  0  0
  192.5270   -0.0633   -0.0016 C   0  0  0  0  0  0  0  0  0  0  0  0
  191.8839   -1.3157    0.0421 C   0  0  0  0  0  0  0  0  0  0  0  0
  192.4965   -2.5959    0.0862 C   0  0  0  0  0  0  0  0  0  0  0  0
  191.5022   -3.5359    0.1163 C   0  0  0  0  0  0  0  0  0  0  0  0
  190.2550   -2.8541    0.0915 C   0  0  0  0  0  0  0  0  0  0  0  0
  190.5369   -1.5162    0.0471 N   0  0  0  0  0  0  0  0  0  0  0  0
  188.9882   -3.4281    0.1086 C   0  0  0  0  0  0  0  0  0  0  0  0
  187.7620   -2.7823    0.0863 C   0  0  0  0  0  0  0  0  0  0  0  0
  186.4915   -3.4851    0.1085 C   0  0  0  0  0  0  0  0  0  0  0  0
  185.5312   -2.5379    0.0782 C   0  0  0  0  0  0  0  0  0  0  0  0
  186.2195   -1.2605    0.0374 C   0  0  0  0  0  0  0  0  0  0  0  0
  187.5538   -1.4377    0.0429 N   0  0  0  0  0  0  0  0  0  0  0  0
  184.5177    2.6834   -0.0883 H   0  0  0  0  0  0  0  0  0  0  0  0
  186.4659    4.5268   -0.1529 H   0  0  0  0  0  0  0  0  0  0  0  0
  188.2344    0.6932   -0.0286 H   0  0  0  0  0  0  0  0  0  0  0  0
  189.1116    4.4311   -0.1552 H   0  0  0  0  0  0  0  0  0  0  0  0
  191.6955    4.4757   -0.1606 H   0  0  0  0  0  0  0  0  0  0  0  0
  193.6192    2.5792   -0.0959 H   0  0  0  0  0  0  0  0  0  0  0  0
  193.5614   -2.7646    0.0934 H   0  0  0  0  0  0  0  0  0  0  0  0
  191.6127   -4.6080    0.1526 H   0  0  0  0  0  0  0  0  0  0  0  0
  189.8450   -0.7745    0.0209 H   0  0  0  0  0  0  0  0  0  0  0  0
  188.9678   -4.5129    0.1441 H   0  0  0  0  0  0  0  0  0  0  0  0
  186.3829   -4.5578    0.1427 H   0  0  0  0  0  0  0  0  0  0  0  0
  184.4598   -2.6607    0.0820 H   0  0  0  0  0  0  0  0  0  0  0  0
  1  2  4  0  0  0  0
  2  3  4  0  0  0  0
  3  4  2  0  0  0  0
  4  5  4  0  0  0  0
  2  6  4  0  0  0  0
  5  6  4  0  0  0  0
  5  7  4  0  0  0  0
  7  8  4  0  0  0  0
  8  9  1  0  0  0  0
  9 10  2  0  0  0  0
  8 11  4  0  0  0  0
 10 12  1  0  0  0  0
 11 12  4  0  0  0  0
 12 13  4  0  0  0  0
 13 14  4  0  0  0  0
 14 15  4  0  0  0  0
 15 16  2  0  0  0  0
 16 17  4  0  0  0  0
 14 18  4  0  0  0  0
 17 18  4  0  0  0  0
 17 19  4  0  0  0  0
 19 20  4  0  0  0  0
 20 21  1  0  0  0  0
 21 22  2  0  0  0  0
  1 23  4  0  0  0  0
 22 23  1  0  0  0  0
 20 24  4  0  0  0  0
 23 24  4  0  0  0  0
  1 25  1  0  0  0  0
  3 26  1  0  0  0  0
  4 27  1  0  0  0  0
  6 28  1  0  0  0  0
  7 29  1  0  0  0  0
  9 30  1  0  0  0  0
 10 31  1  0  0  0  0
 15 32  1  0  0  0  0
 16 33  1  0  0  0  0
 18 34  1  0  0  0  0
 19 35  1  0  0  0  0
 21 36  1  0  0  0  0
 22 37  1  0  0  0  0
 38 39  4  0  0  0  0
 39 40  4  0  0  0  0
 40 41  2  0  0  0  0
 41 42  4  0  0  0  0
 39 43  4  0  0  0  0
 42 43  4  0  0  0  0
 42 44  4  0  0  0  0
 44 45  4  0  0  0  0
 45 46  1  0  0  0  0
 46 47  2  0  0  0  0
 45 48  4  0  0  0  0
 47 49  1  0  0  0  0
 48 49  4  0  0  0  0
 49 50  4  0  0  0  0
 50 51  4  0  0  0  0
 51 52  4  0  0  0  0
 52 53  2  0  0  0  0
 53 54  4  0  0  0  0
 51 55  4  0  0  0  0
 54 55  4  0  0  0  0
 54 56  4  0  0  0  0
 56 57  4  0  0  0  0
 57 58  1  0  0  0  0
 58 59  2  0  0  0  0
 38 60  4  0  0  0  0
 59 60  1  0  0  0  0
 57 61  4  0  0  0  0
 60 61  4  0  0  0  0
 38 62  1  0  0  0  0
 40 63  1  0  0  0  0
 41 64  1  0  0  0  0
 43 65  1  0  0  0  0
 44 66  1  0  0  0  0
 46 67  1  0  0  0  0
 47 68  1  0  0  0  0
 52 69  1  0  0  0  0
 53 70  1  0  0  0  0
 55 71  1  0  0  0  0
 56 72  1  0  0  0  0
 58 73  1  0  0  0  0
 59 74  1  0  0  0  0
 75 76  3  0  0  0  0
 76 77  4  0  0  0  0
 13 78  4  0  0  0  0
 77 78  3  0  0  0  0
 75 79  4  0  0  0  0
 79 80  3  0  0  0  0
 81 82  3  0  0  0  0
 82 83  4  0  0  0  0
 83 84  3  0  0  0  0
 81 85  4  0  0  0  0
 85 86  3  0  0  0  0
 87 88  3  0  0  0  0
 88 89  4  0  0  0  0
 89 90  3  0  0  0  0
 87 91  4  0  0  0  0
 91 92  3  0  0  0  0
 93 94  3  0  0  0  0
 94 95  4  0  0  0  0
 95 96  3  0  0  0  0
 93 97  4  0  0  0  0
 97 98  3  0  0  0  0
 99100  3  0  0  0  0
100101  4  0  0  0  0
101102  3  0  0  0  0
 99103  4  0  0  0  0
103104  3  0  0  0  0
105106  3  0  0  0  0
106107  4  0  0  0  0
107108  3  0  0  0  0
105109  4  0  0  0  0
109110  3  0  0  0  0
111112  3  0  0  0  0
112113  4  0  0  0  0
113114  3  0  0  0  0
111115  4  0  0  0  0
115116  3  0  0  0  0
117118  3  0  0  0  0
118119  4  0  0  0  0
119120  3  0  0  0  0
117121  4  0  0  0  0
121122  3  0  0  0  0
123124  3  0  0  0  0
124125  4  0  0  0  0
125126  3  0  0  0  0
123127  4  0  0  0  0
 50128  4  0  0  0  0
127128  3  0  0  0  0
 80129  4  0  0  0  0
129130  4  0  0  0  0
130131  4  0  0  0  0
131132  2  0  0  0  0
132133  4  0  0  0  0
130134  4  0  0  0  0
133134  4  0  0  0  0
133135  4  0  0  0  0
135136  4  0  0  0  0
136137  1  0  0  0  0
137138  2  0  0  0  0
136139  4  0  0  0  0
138140  1  0  0  0  0
139140  4  0  0  0  0
 84141  4  0  0  0  0
140141  4  0  0  0  0
141142  4  0  0  0  0
142143  4  0  0  0  0
143144  2  0  0  0  0
144145  4  0  0  0  0
142146  4  0  0  0  0
145146  4  0  0  0  0
145147  4  0  0  0  0
147148  4  0  0  0  0
148149  1  0  0  0  0
149150  2  0  0  0  0
129151  4  0  0  0  0
150151  1  0  0  0  0
148152  4  0  0  0  0
151152  4  0  0  0  0
131153  1  0  0  0  0
132154  1  0  0  0  0
134155  1  0  0  0  0
135156  1  0  0  0  0
137157  1  0  0  0  0
138158  1  0  0  0  0
143159  1  0  0  0  0
144160  1  0  0  0  0
146161  1  0  0  0  0
147162  1  0  0  0  0
149163  1  0  0  0  0
150164  1  0  0  0  0
 86165  4  0  0  0  0
165166  4  0  0  0  0
166167  4  0  0  0  0
167168  2  0  0  0  0
168169  4  0  0  0  0
166170  4  0  0  0  0
169170  4  0  0  0  0
169171  4  0  0  0  0
171172  4  0  0  0  0
172173  1  0  0  0  0
173174  2  0  0  0  0
172175  4  0  0  0  0
174176  1  0  0  0  0
175176  4  0  0  0  0
 90177  4  0  0  0  0
176177  4  0  0  0  0
177178  4  0  0  0  0
178179  4  0  0  0  0
179180  2  0  0  0  0
180181  4  0  0  0  0
178182  4  0  0  0  0
181182  4  0  0  0  0
181183  4  0  0  0  0
183184  4  0  0  0  0
184185  1  0  0  0  0
185186  2  0  0  0  0
165187  4  0  0  0  0
186187  1  0  0  0  0
184188  4  0  0  0  0
187188  4  0  0  0  0
167189  1  0  0  0  0
168190  1  0  0  0  0
170191  1  0  0  0  0
171192  1  0  0  0  0
173193  1  0  0  0  0
174194  1  0  0  0  0
179195  1  0  0  0  0
180196  1  0  0  0  0
182197  1  0  0  0  0
183198  1  0  0  0  0
185199  1  0  0  0  0
186200  1  0  0  0  0
 92201  4  0  0  0  0
201202  4  0  0  0  0
202203  4  0  0  0  0
203204  2  0  0  0  0
204205  4  0  0  0  0
202206  4  0  0  0  0
205206  4  0  0  0  0
205207  4  0  0  0  0
207208  4  0  0  0  0
208209  1  0  0  0  0
209210  2  0  0  0  0
208211  4  0  0  0  0
210212  1  0  0  0  0
211212  4  0  0  0  0
 96213  4  0  0  0  0
212213  4  0  0  0  0
213214  4  0  0  0  0
214215  4  0  0  0  0
215216  2  0  0  0  0
216217  4  0  0  0  0
214218  4  0  0  0  0
217218  4  0  0  0  0
217219  4  0  0  0  0
219220  4  0  0  0  0
220221  1  0  0  0  0
221222  2  0  0  0  0
201223  4  0  0  0  0
222223  1  0  0  0  0
220224  4  0  0  0  0
223224  4  0  0  0  0
203225  1  0  0  0  0
204226  1  0  0  0  0
206227  1  0  0  0  0
207228  1  0  0  0  0
209229  1  0  0  0  0
210230  1  0  0  0  0
215231  1  0  0  0  0
216232  1  0  0  0  0
218233  1  0  0  0  0
219234  1  0  0  0  0
221235  1  0  0  0  0
222236  1  0  0  0  0
 98237  4  0  0  0  0
237238  4  0  0  0  0
238239  4  0  0  0  0
239240  2  0  0  0  0
240241  4  0  0  0  0
238242  4  0  0  0  0
241242  4  0  0  0  0
241243  4  0  0  0  0
243244  4  0  0  0  0
244245  1  0  0  0  0
245246  2  0  0  0  0
244247  4  0  0  0  0
246248  1  0  0  0  0
247248  4  0  0  0  0
102249  4  0  0  0  0
248249  4  0  0  0  0
249250  4  0  0  0  0
250251  4  0  0  0  0
251252  2  0  0  0  0
252253  4  0  0  0  0
250254  4  0  0  0  0
253254  4  0  0  0  0
253255  4  0  0  0  0
255256  4  0  0  0  0
256257  1  0  0  0  0
257258  2  0  0  0  0
237259  4  0  0  0  0
258259  1  0  0  0  0
256260  4  0  0  0  0
259260  4  0  0  0  0
239261  1  0  0  0  0
240262  1  0  0  0  0
242263  1  0  0  0  0
243264  1  0  0  0  0
245265  1  0  0  0  0
246266  1  0  0  0  0
251267  1  0  0  0  0
252268  1  0  0  0  0
254269  1  0  0  0  0
255270  1  0  0  0  0
257271  1  0  0  0  0
258272  1  0  0  0  0
104273  4  0  0  0  0
273274  4  0  0  0  0
274275  4  0  0  0  0
275276  2  0  0  0  0
276277  4  0  0  0  0
274278  4  0  0  0  0
277278  4  0  0  0  0
277279  4  0  0  0  0
279280  4  0  0  0  0
280281  1  0  0  0  0
281282  2  0  0  0  0
280283  4  0  0  0  0
282284  1  0  0  0  0
283284  4  0  0  0  0
108285  4  0  0  0  0
284285  4  0  0  0  0
285286  4  0  0  0  0
286287  4  0  0  0  0
287288  2  0  0  0  0
288289  4  0  0  0  0
286290  4  0  0  0  0
289290  4  0  0  0  0
289291  4  0  0  0  0
291292  4  0  0  0  0
292293  1  0  0  0  0
293294  2  0  0  0  0
273295  4  0  0  0  0
294295  1  0  0  0  0
292296  4  0  0  0  0
295296  4  0  0  0  0
275297  1  0  0  0  0
276298  1  0  0  0  0
278299  1  0  0  0  0
279300  1  0  0  0  0
281301  1  0  0  0  0
282302  1  0  0  0  0
287303  1  0  0  0  0
288304  1  0  0  0  0
290305  1  0  0  0  0
291306  1  0  0  0  0
293307  1  0  0  0  0
294308  1  0  0  0  0
110309  4  0  0  0  0
309310  4  0  0  0  0
310311  4  0  0  0  0
311312  2  0  0  0  0
312313  4  0  0  0  0
310314  4  0  0  0  0
313314  4  0  0  0  0
313315  4  0  0  0  0
315316  4  0  0  0  0
316317  1  0  0  0  0
317318  2  0  0  0  0
316319  4  0  0  0  0
318320  1  0  0  0  0
319320  4  0  0  0  0
114321  4  0  0  0  0
320321  4  0  0  0  0
321322  4  0  0  0  0
322323  4  0  0  0  0
323324  2  0  0  0  0
324325  4  0  0  0  0
322326  4  0  0  0  0
325326  4  0  0  0  0
325327  4  0  0  0  0
327328  4  0  0  0  0
328329  1  0  0  0  0
329330  2  0  0  0  0
309331  4  0  0  0  0
330331  1  0  0  0  0
328332  4  0  0  0  0
331332  4  0  0  0  0
311333  1  0  0  0  0
312334  1  0  0  0  0
314335  1  0  0  0  0
315336  1  0  0  0  0
317337  1  0  0  0  0
318338  1  0  0  0  0
323339  1  0  0  0  0
324340  1  0  0  0  0
326341  1  0  0  0  0
327342  1  0  0  0  0
329343  1  0  0  0  0
330344  1  0  0  0  0
116345  4  0  0  0  0
345346  4  0  0  0  0
346347  4  0  0  0  0
347348  2  0  0  0  0
348349  4  0  0  0  0
346350  4  0  0  0  0
349350  4  0  0  0  0
349351  4  0  0  0  0
351352  4  0  0  0  0
352353  1  0  0  0  0
353354  2  0  0  0  0
352355  4  0  0  0  0
354356  1  0  0  0  0
355356  4  0  0  0  0
120357  4  0  0  0  0
356357  4  0  0  0  0
357358  4  0  0  0  0
358359  4  0  0  0  0
359360  2  0  0  0  0
360361  4  0  0  0  0
358362  4  0  0  0  0
361362  4  0  0  0  0
361363  4  0  0  0  0
363364  4  0  0  0  0
364365  1  0  0  0  0
365366  2  0  0  0  0
345367  4  0  0  0  0
366367  1  0  0  0  0
364368  4  0  0  0  0
367368  4  0  0  0  0
347369  1  0  0  0  0
348370  1  0  0  0  0
350371  1  0  0  0  0
351372  1  0  0  0  0
353373  1  0  0  0  0
354374  1  0  0  0  0
359375  1  0  0  0  0
360376  1  0  0  0  0
362377  1  0  0  0  0
363378  1  0  0  0  0
365379  1  0  0  0  0
366380  1  0  0  0  0
122381  4  0  0  0  0
381382  4  0  0  0  0
382383  4  0  0  0  0
383384  2  0  0  0  0
384385  4  0  0  0  0
382386  4  0  0  0  0
385386  4  0  0  0  0
385387  4  0  0  0  0
387388  4  0  0  0  0
388389  1  0  0  0  0
389390  2  0  0  0  0
388391  4  0  0  0  0
390392  1  0  0  0  0
391392  4  0  0  0  0
126393  4  0  0  0  0
392393  4  0  0  0  0
393394  4  0  0  0  0
394395  4  0  0  0  0
395396  2  0  0  0  0
396397  4  0  0  0  0
394398  4  0  0  0  0
397398  4  0  0  0  0
397399  4  0  0  0  0
399400  4  0  0  0  0
400401  1  0  0  0  0
401402  2  0  0  0  0
381403  4  0  0  0  0
402403  1  0  0  0  0
400404  4  0  0  0  0
403404  4  0  0  0  0
383405  1  0  0  0  0
384406  1  0  0  0  0
386407  1  0  0  0  0
387408  1  0  0  0  0
389409  1  0  0  0  0
390410  1  0  0  0  0
395411  1  0  0  0  0
396412  1  0  0  0  0
398413  1  0  0  0  0
399414  1  0  0  0  0
401415  1  0  0  0  0
402416  1  0  0  0  0
M  END
