 xtb: 6.5.1 (b24c23e)
          07302214523D

219248  0     0  0            999 V2000
   33.7074    0.1050   -0.0153 Zn  0  0  0  0  0  0  0  0  0  0  0  0
   30.2947    0.1914   -0.0673 C   0  0  0  0  0  0  0  0  0  0  0  0
   30.9210    1.0005    0.8736 C   0  0  0  0  0  0  0  0  0  0  0  0
   30.2448    1.8493    1.8156 C   0  0  0  0  0  0  0  0  0  0  0  0
   31.2023    2.4666    2.5520 C   0  0  0  0  0  0  0  0  0  0  0  0
   32.4756    2.0049    2.0670 C   0  0  0  0  0  0  0  0  0  0  0  0
   32.2691    1.1157    1.0528 N   0  0  0  0  0  0  0  0  0  0  0  0
   33.7224    2.3874    2.5708 C   0  0  0  0  0  0  0  0  0  0  0  0
   34.9623    1.9194    2.1275 C   0  0  0  0  0  0  0  0  0  0  0  0
   36.2378    2.3381    2.6388 C   0  0  0  0  0  0  0  0  0  0  0  0
   37.1892    1.6752    1.9333 C   0  0  0  0  0  0  0  0  0  0  0  0
   35.1632    1.0141    1.1203 N   0  0  0  0  0  0  0  0  0  0  0  0
   36.5062    0.8486    0.9807 C   0  0  0  0  0  0  0  0  0  0  0  0
   37.1416    0.0232    0.0333 C   0  0  0  0  0  0  0  0  0  0  0  0
   36.4945   -0.7746   -0.9298 C   0  0  0  0  0  0  0  0  0  0  0  0
   37.1640   -1.6357   -1.8612 C   0  0  0  0  0  0  0  0  0  0  0  0
   36.2025   -2.2537   -2.5933 C   0  0  0  0  0  0  0  0  0  0  0  0
   34.9345   -1.7715   -2.1209 C   0  0  0  0  0  0  0  0  0  0  0  0
   33.6866   -2.1757   -2.6031 C   0  0  0  0  0  0  0  0  0  0  0  0
   33.6764   -3.1774   -3.7080 C   0  0  0  0  0  0  0  0  0  0  0  0
   34.1163   -2.8287   -4.9915 C   0  0  0  0  0  0  0  0  0  0  0  0
   34.5263   -1.5416   -5.1501 O   0  0  0  0  0  0  0  0  0  0  0  0
   35.0294   -1.0993   -6.3939 C   0  0  0  0  0  0  0  0  0  0  0  0
   34.1068   -3.7690   -6.0214 C   0  0  0  0  0  0  0  0  0  0  0  0
   33.6609   -5.0564   -5.7629 C   0  0  0  0  0  0  0  0  0  0  0  0
   33.2223   -5.4258   -4.5003 C   0  0  0  0  0  0  0  0  0  0  0  0
   33.2284   -4.4840   -3.4720 C   0  0  0  0  0  0  0  0  0  0  0  0
   32.8270   -4.7534   -2.2006 O   0  0  0  0  0  0  0  0  0  0  0  0
   32.3440   -6.0362   -1.8591 C   0  0  0  0  0  0  0  0  0  0  0  0
   32.4460   -1.7301   -2.1368 C   0  0  0  0  0  0  0  0  0  0  0  0
   31.1663   -2.1245   -2.6628 C   0  0  0  0  0  0  0  0  0  0  0  0
   30.2193   -1.4603   -1.9542 C   0  0  0  0  0  0  0  0  0  0  0  0
   30.9084   -0.6487   -0.9893 C   0  0  0  0  0  0  0  0  0  0  0  0
   32.2538   -0.8328   -1.1270 N   0  0  0  0  0  0  0  0  0  0  0  0
   35.1497   -0.8759   -1.1079 N   0  0  0  0  0  0  0  0  0  0  0  0
   33.7290    3.3920    3.6734 C   0  0  0  0  0  0  0  0  0  0  0  0
   34.0908    3.0207    4.9747 C   0  0  0  0  0  0  0  0  0  0  0  0
   34.4128    1.7111    5.1510 O   0  0  0  0  0  0  0  0  0  0  0  0
   34.8146    1.2384    6.4202 C   0  0  0  0  0  0  0  0  0  0  0  0
   34.0965    3.9634    6.0025 C   0  0  0  0  0  0  0  0  0  0  0  0
   33.7434    5.2752    5.7240 C   0  0  0  0  0  0  0  0  0  0  0  0
   33.3831    5.6670    4.4435 C   0  0  0  0  0  0  0  0  0  0  0  0
   33.3745    4.7231    3.4171 C   0  0  0  0  0  0  0  0  0  0  0  0
   33.0450    5.0124    2.1295 O   0  0  0  0  0  0  0  0  0  0  0  0
   32.6766    6.3262    1.7634 C   0  0  0  0  0  0  0  0  0  0  0  0
   29.2094    0.2189   -0.0846 H   0  0  0  0  0  0  0  0  0  0  0  0
   29.1733    1.9492    1.8954 H   0  0  0  0  0  0  0  0  0  0  0  0
   31.0660    3.1717    3.3566 H   0  0  0  0  0  0  0  0  0  0  0  0
   36.3825    3.0513    3.4346 H   0  0  0  0  0  0  0  0  0  0  0  0
   38.2607    1.7411    2.0377 H   0  0  0  0  0  0  0  0  0  0  0  0
   38.2335   -1.7547   -1.9338 H   0  0  0  0  0  0  0  0  0  0  0  0
   36.3362   -2.9753   -3.3832 H   0  0  0  0  0  0  0  0  0  0  0  0
   34.2684   -1.1616   -7.1815 H   0  0  0  0  0  0  0  0  0  0  0  0
   35.3137   -0.0548   -6.2529 H   0  0  0  0  0  0  0  0  0  0  0  0
   35.9125   -1.6746   -6.6976 H   0  0  0  0  0  0  0  0  0  0  0  0
   34.4404   -3.5078   -7.0168 H   0  0  0  0  0  0  0  0  0  0  0  0
   33.6551   -5.7882   -6.5634 H   0  0  0  0  0  0  0  0  0  0  0  0
   32.8822   -6.4380   -4.3263 H   0  0  0  0  0  0  0  0  0  0  0  0
   32.0782   -5.9893   -0.8013 H   0  0  0  0  0  0  0  0  0  0  0  0
   31.4529   -6.2990   -2.4423 H   0  0  0  0  0  0  0  0  0  0  0  0
   33.1112   -6.8069   -2.0031 H   0  0  0  0  0  0  0  0  0  0  0  0
   31.0189   -2.8201   -3.4737 H   0  0  0  0  0  0  0  0  0  0  0  0
   29.1471   -1.5049   -2.0676 H   0  0  0  0  0  0  0  0  0  0  0  0
   35.0298    0.1756    6.2949 H   0  0  0  0  0  0  0  0  0  0  0  0
   34.0184    1.3587    7.1651 H   0  0  0  0  0  0  0  0  0  0  0  0
   35.7192    1.7497    6.7716 H   0  0  0  0  0  0  0  0  0  0  0  0
   34.3711    3.6856    7.0113 H   0  0  0  0  0  0  0  0  0  0  0  0
   33.7491    6.0087    6.5229 H   0  0  0  0  0  0  0  0  0  0  0  0
   33.1141    6.6977    4.2545 H   0  0  0  0  0  0  0  0  0  0  0  0
   33.4903    7.0384    1.9474 H   0  0  0  0  0  0  0  0  0  0  0  0
   32.4634    6.2952    0.6932 H   0  0  0  0  0  0  0  0  0  0  0  0
   31.7784    6.6564    2.2995 H   0  0  0  0  0  0  0  0  0  0  0  0
   55.5394    0.0009   -0.0908 Zn  0  0  0  0  0  0  0  0  0  0  0  0
   58.9520    0.0952   -0.1836 C   0  0  0  0  0  0  0  0  0  0  0  0
   58.3252   -0.6492   -1.1762 C   0  0  0  0  0  0  0  0  0  0  0  0
   59.0007   -1.3821   -2.2113 C   0  0  0  0  0  0  0  0  0  0  0  0
   58.0429   -1.9701   -2.9708 C   0  0  0  0  0  0  0  0  0  0  0  0
   56.7701   -1.5985   -2.4130 C   0  0  0  0  0  0  0  0  0  0  0  0
   56.9772   -0.8023   -1.3244 N   0  0  0  0  0  0  0  0  0  0  0  0
   55.5226   -2.0043   -2.8962 C   0  0  0  0  0  0  0  0  0  0  0  0
   54.2827   -1.6645   -2.3479 C   0  0  0  0  0  0  0  0  0  0  0  0
   53.0077   -2.0698   -2.8704 C   0  0  0  0  0  0  0  0  0  0  0  0
   52.0563   -1.5302   -2.0667 C   0  0  0  0  0  0  0  0  0  0  0  0
   54.0812   -0.8813   -1.2430 N   0  0  0  0  0  0  0  0  0  0  0  0
   52.7381   -0.7844   -1.0491 C   0  0  0  0  0  0  0  0  0  0  0  0
   52.1025   -0.0804   -0.0074 C   0  0  0  0  0  0  0  0  0  0  0  0
   52.7532    0.6468    1.0085 C   0  0  0  0  0  0  0  0  0  0  0  0
   52.0872    1.3537    2.0637 C   0  0  0  0  0  0  0  0  0  0  0  0
   53.0500    1.9339    2.8243 C   0  0  0  0  0  0  0  0  0  0  0  0
   54.3158    1.5951    2.2359 C   0  0  0  0  0  0  0  0  0  0  0  0
   55.5635    1.9985    2.7197 C   0  0  0  0  0  0  0  0  0  0  0  0
   55.5729    2.8688    3.9309 C   0  0  0  0  0  0  0  0  0  0  0  0
   55.1183    4.1920    3.8567 C   0  0  0  0  0  0  0  0  0  0  0  0
   54.6966    4.6072    2.6322 O   0  0  0  0  0  0  0  0  0  0  0  0
   54.1763    5.9091    2.4580 C   0  0  0  0  0  0  0  0  0  0  0  0
   55.1264    5.0065    4.9886 C   0  0  0  0  0  0  0  0  0  0  0  0
   55.5861    4.4934    6.1921 C   0  0  0  0  0  0  0  0  0  0  0  0
   56.0404    3.1869    6.2905 C   0  0  0  0  0  0  0  0  0  0  0  0
   56.0358    2.3743    5.1571 C   0  0  0  0  0  0  0  0  0  0  0  0
   56.4536    1.0797    5.1560 O   0  0  0  0  0  0  0  0  0  0  0  0
   56.9517    0.4881    6.3382 C   0  0  0  0  0  0  0  0  0  0  0  0
   56.8031    1.6630    2.1671 C   0  0  0  0  0  0  0  0  0  0  0  0
   58.0819    2.1058    2.6554 C   0  0  0  0  0  0  0  0  0  0  0  0
   59.0280    1.5735    1.8420 C   0  0  0  0  0  0  0  0  0  0  0  0
   58.3390    0.8038    0.8432 C   0  0  0  0  0  0  0  0  0  0  0  0
   56.9946    0.8806    1.0657 N   0  0  0  0  0  0  0  0  0  0  0  0
   54.0980    0.8071    1.1376 N   0  0  0  0  0  0  0  0  0  0  0  0
   55.5142   -2.8816   -4.1025 C   0  0  0  0  0  0  0  0  0  0  0  0
   55.1444   -4.2287   -3.9956 C   0  0  0  0  0  0  0  0  0  0  0  0
   54.8172   -4.6572   -2.7470 O   0  0  0  0  0  0  0  0  0  0  0  0
   54.4013   -5.9905   -2.5345 C   0  0  0  0  0  0  0  0  0  0  0  0
   55.1378   -5.0512   -5.1217 C   0  0  0  0  0  0  0  0  0  0  0  0
   55.4981   -4.5224   -6.3519 C   0  0  0  0  0  0  0  0  0  0  0  0
   55.8668   -3.1920   -6.4829 C   0  0  0  0  0  0  0  0  0  0  0  0
   55.8766   -2.3710   -5.3556 C   0  0  0  0  0  0  0  0  0  0  0  0
   56.2150   -1.0537   -5.3855 O   0  0  0  0  0  0  0  0  0  0  0  0
   56.6041   -0.4434   -6.5987 C   0  0  0  0  0  0  0  0  0  0  0  0
   60.0370    0.1261   -0.2131 H   0  0  0  0  0  0  0  0  0  0  0  0
   60.0721   -1.4356   -2.3289 H   0  0  0  0  0  0  0  0  0  0  0  0
   58.1789   -2.6018   -3.8344 H   0  0  0  0  0  0  0  0  0  0  0  0
   52.8630   -2.6890   -3.7412 H   0  0  0  0  0  0  0  0  0  0  0  0
   50.9856   -1.6288   -2.1479 H   0  0  0  0  0  0  0  0  0  0  0  0
   51.0182    1.3980    2.1993 H   0  0  0  0  0  0  0  0  0  0  0  0
   52.9187    2.5401    3.7063 H   0  0  0  0  0  0  0  0  0  0  0  0
   54.9296    6.6763    2.6753 H   0  0  0  0  0  0  0  0  0  0  0  0
   53.8841    5.9818    1.4087 H   0  0  0  0  0  0  0  0  0  0  0  0
   53.2954    6.0774    3.0893 H   0  0  0  0  0  0  0  0  0  0  0  0
   54.7812    6.0307    4.9400 H   0  0  0  0  0  0  0  0  0  0  0  0
   55.5907    5.1260    7.0730 H   0  0  0  0  0  0  0  0  0  0  0  0
   56.3916    2.8124    7.2427 H   0  0  0  0  0  0  0  0  0  0  0  0
   57.2294   -0.5339    6.0734 H   0  0  0  0  0  0  0  0  0  0  0  0
   57.8382    1.0166    6.7098 H   0  0  0  0  0  0  0  0  0  0  0  0
   56.1896    0.4608    7.1267 H   0  0  0  0  0  0  0  0  0  0  0  0
   58.2294    2.7439    3.5122 H   0  0  0  0  0  0  0  0  0  0  0  0
   60.0995    1.6876    1.9005 H   0  0  0  0  0  0  0  0  0  0  0  0
   54.1796   -6.0737   -1.4688 H   0  0  0  0  0  0  0  0  0  0  0  0
   55.1920   -6.7052   -2.7941 H   0  0  0  0  0  0  0  0  0  0  0  0
   53.4974   -6.2260   -3.1095 H   0  0  0  0  0  0  0  0  0  0  0  0
   54.8574   -6.0935   -5.0482 H   0  0  0  0  0  0  0  0  0  0  0  0
   55.4917   -5.1614   -7.2282 H   0  0  0  0  0  0  0  0  0  0  0  0
   56.1415   -2.8059   -7.4554 H   0  0  0  0  0  0  0  0  0  0  0  0
   55.7978   -0.4747   -7.3418 H   0  0  0  0  0  0  0  0  0  0  0  0
   56.8282    0.5975   -6.3576 H   0  0  0  0  0  0  0  0  0  0  0  0
   57.5008   -0.9165   -7.0174 H   0  0  0  0  0  0  0  0  0  0  0  0
   38.5521   -0.0044    0.0464 C   0  0  0  0  0  0  0  0  0  0  0  0
   39.7683   -0.0276    0.0540 C   0  0  0  0  0  0  0  0  0  0  0  0
   49.4753   -0.1080    0.0286 C   0  0  0  0  0  0  0  0  0  0  0  0
   50.6921   -0.1005    0.0162 C   0  0  0  0  0  0  0  0  0  0  0  0
   44.6207   -0.0915    0.0448 Zn  0  0  0  0  0  0  0  0  0  0  0  0
   41.1786   -0.0499    0.0525 C   0  0  0  0  0  0  0  0  0  0  0  0
   41.8257    0.0537    1.2987 C   0  0  0  0  0  0  0  0  0  0  0  0
   41.1541    0.1396    2.5627 C   0  0  0  0  0  0  0  0  0  0  0  0
   42.1150    0.1941    3.5201 C   0  0  0  0  0  0  0  0  0  0  0  0
   43.3838    0.1492    2.8493 C   0  0  0  0  0  0  0  0  0  0  0  0
   43.1710    0.0605    1.4999 N   0  0  0  0  0  0  0  0  0  0  0  0
   44.6311    0.1681    3.4790 C   0  0  0  0  0  0  0  0  0  0  0  0
   45.8745    0.1062    2.8440 C   0  0  0  0  0  0  0  0  0  0  0  0
   47.1466    0.1584    3.5074 C   0  0  0  0  0  0  0  0  0  0  0  0
   48.1022    0.0853    2.5459 C   0  0  0  0  0  0  0  0  0  0  0  0
   46.0802    0.0087    1.4939 N   0  0  0  0  0  0  0  0  0  0  0  0
   47.4246   -0.0067    1.2858 C   0  0  0  0  0  0  0  0  0  0  0  0
   48.0650   -0.1109    0.0354 C   0  0  0  0  0  0  0  0  0  0  0  0
   47.4164   -0.2136   -1.2111 C   0  0  0  0  0  0  0  0  0  0  0  0
   48.0858   -0.3152   -2.4749 C   0  0  0  0  0  0  0  0  0  0  0  0
   47.1241   -0.3837   -3.4306 C   0  0  0  0  0  0  0  0  0  0  0  0
   45.8565   -0.3163   -2.7600 C   0  0  0  0  0  0  0  0  0  0  0  0
   44.6092   -0.3613   -3.3882 C   0  0  0  0  0  0  0  0  0  0  0  0
   44.6044   -0.4581   -4.8769 C   0  0  0  0  0  0  0  0  0  0  0  0
   44.1940   -1.6376   -5.5113 C   0  0  0  0  0  0  0  0  0  0  0  0
   43.8249   -2.6563   -4.6893 O   0  0  0  0  0  0  0  0  0  0  0  0
   43.3631   -3.8781   -5.2274 C   0  0  0  0  0  0  0  0  0  0  0  0
   44.1902   -1.7263   -6.9031 C   0  0  0  0  0  0  0  0  0  0  0  0
   44.5927   -0.6329   -7.6551 C   0  0  0  0  0  0  0  0  0  0  0  0
   45.0003    0.5462   -7.0497 C   0  0  0  0  0  0  0  0  0  0  0  0
   45.0078    0.6328   -5.6578 C   0  0  0  0  0  0  0  0  0  0  0  0
   45.3805    1.7472   -4.9734 O   0  0  0  0  0  0  0  0  0  0  0  0
   45.8314    2.8943   -5.6639 C   0  0  0  0  0  0  0  0  0  0  0  0
   43.3656   -0.3147   -2.7528 C   0  0  0  0  0  0  0  0  0  0  0  0
   42.0935   -0.3323   -3.4183 C   0  0  0  0  0  0  0  0  0  0  0  0
   41.1383   -0.2478   -2.4573 C   0  0  0  0  0  0  0  0  0  0  0  0
   41.8171   -0.1734   -1.1964 C   0  0  0  0  0  0  0  0  0  0  0  0
   43.1609   -0.2151   -1.4030 N   0  0  0  0  0  0  0  0  0  0  0  0
   46.0709   -0.2172   -1.4114 N   0  0  0  0  0  0  0  0  0  0  0  0
   44.6354    0.2572    4.9681 C   0  0  0  0  0  0  0  0  0  0  0  0
   45.0281   -0.8434    5.7412 C   0  0  0  0  0  0  0  0  0  0  0  0
   45.3833   -1.9589    5.0491 O   0  0  0  0  0  0  0  0  0  0  0  0
   45.8155   -3.1174    5.7324 C   0  0  0  0  0  0  0  0  0  0  0  0
   45.0277   -0.7649    7.1335 C   0  0  0  0  0  0  0  0  0  0  0  0
   44.6379    0.4156    7.7478 C   0  0  0  0  0  0  0  0  0  0  0  0
   44.2466    1.5185    7.0038 C   0  0  0  0  0  0  0  0  0  0  0  0
   44.2433    1.4381    5.6115 C   0  0  0  0  0  0  0  0  0  0  0  0
   43.8841    2.4670    4.7978 O   0  0  0  0  0  0  0  0  0  0  0  0
   43.4319    3.6878    5.3463 C   0  0  0  0  0  0  0  0  0  0  0  0
   40.0835    0.1473    2.6939 H   0  0  0  0  0  0  0  0  0  0  0  0
   41.9800    0.2569    4.5881 H   0  0  0  0  0  0  0  0  0  0  0  0
   47.2872    0.2411    4.5733 H   0  0  0  0  0  0  0  0  0  0  0  0
   49.1731    0.0892    2.6727 H   0  0  0  0  0  0  0  0  0  0  0  0
   49.1557   -0.3287   -2.6085 H   0  0  0  0  0  0  0  0  0  0  0  0
   47.2578   -0.4712   -4.4970 H   0  0  0  0  0  0  0  0  0  0  0  0
   42.4681   -3.7327   -5.8446 H   0  0  0  0  0  0  0  0  0  0  0  0
   43.1104   -4.5101   -4.3738 H   0  0  0  0  0  0  0  0  0  0  0  0
   44.1382   -4.3737   -5.8247 H   0  0  0  0  0  0  0  0  0  0  0  0
   43.8794   -2.6345   -7.4022 H   0  0  0  0  0  0  0  0  0  0  0  0
   44.5882   -0.7011   -8.7375 H   0  0  0  0  0  0  0  0  0  0  0  0
   45.3061    1.3846   -7.6613 H   0  0  0  0  0  0  0  0  0  0  0  0
   46.0857    3.6296   -4.8982 H   0  0  0  0  0  0  0  0  0  0  0  0
   45.0493    3.3069   -6.3131 H   0  0  0  0  0  0  0  0  0  0  0  0
   46.7233    2.6772   -6.2644 H   0  0  0  0  0  0  0  0  0  0  0  0
   41.9527   -0.3975   -4.4854 H   0  0  0  0  0  0  0  0  0  0  0  0
   40.0675   -0.2282   -2.5848 H   0  0  0  0  0  0  0  0  0  0  0  0
   45.0274   -3.5201    6.3804 H   0  0  0  0  0  0  0  0  0  0  0  0
   46.0560   -3.8528    4.9622 H   0  0  0  0  0  0  0  0  0  0  0  0
   46.7118   -2.9192    6.3327 H   0  0  0  0  0  0  0  0  0  0  0  0
   45.3251   -1.6108    7.7389 H   0  0  0  0  0  0  0  0  0  0  0  0
   44.6390    0.4775    8.8305 H   0  0  0  0  0  0  0  0  0  0  0  0
   43.9497    2.4276    7.5097 H   0  0  0  0  0  0  0  0  0  0  0  0
   44.2110    4.1727    5.9472 H   0  0  0  0  0  0  0  0  0  0  0  0
   42.5363    3.5437    5.9630 H   0  0  0  0  0  0  0  0  0  0  0  0
   43.1833    4.3287    4.4983 H   0  0  0  0  0  0  0  0  0  0  0  0
  2  3  4  0  0  0  0
  3  4  1  0  0  0  0
  4  5  2  0  0  0  0
  5  6  4  0  0  0  0
  1  7  1  0  0  0  0
  3  7  4  0  0  0  0
  6  7  4  0  0  0  0
  6  8  4  0  0  0  0
  8  9  4  0  0  0  0
  9 10  4  0  0  0  0
 10 11  2  0  0  0  0
  1 12  1  0  0  0  0
  9 12  4  0  0  0  0
 11 13  4  0  0  0  0
 12 13  4  0  0  0  0
 13 14  4  0  0  0  0
 14 15  4  0  0  0  0
 15 16  4  0  0  0  0
 16 17  2  0  0  0  0
 17 18  4  0  0  0  0
 18 19  4  0  0  0  0
 19 20  1  0  0  0  0
 20 21  4  0  0  0  0
 21 22  1  0  0  0  0
 22 23  1  0  0  0  0
 21 24  4  0  0  0  0
 24 25  4  0  0  0  0
 25 26  4  0  0  0  0
 20 27  4  0  0  0  0
 26 27  4  0  0  0  0
 27 28  1  0  0  0  0
 28 29  1  0  0  0  0
 19 30  4  0  0  0  0
 30 31  4  0  0  0  0
 31 32  2  0  0  0  0
  2 33  4  0  0  0  0
 32 33  1  0  0  0  0
  1 34  1  0  0  0  0
 30 34  4  0  0  0  0
 33 34  4  0  0  0  0
  1 35  1  0  0  0  0
 15 35  4  0  0  0  0
 18 35  4  0  0  0  0
  8 36  1  0  0  0  0
 36 37  4  0  0  0  0
 37 38  1  0  0  0  0
 38 39  1  0  0  0  0
 37 40  4  0  0  0  0
 40 41  4  0  0  0  0
 41 42  4  0  0  0  0
 36 43  4  0  0  0  0
 42 43  4  0  0  0  0
 43 44  1  0  0  0  0
 44 45  1  0  0  0  0
  2 46  1  0  0  0  0
  4 47  1  0  0  0  0
  5 48  1  0  0  0  0
 10 49  1  0  0  0  0
 11 50  1  0  0  0  0
 16 51  1  0  0  0  0
 17 52  1  0  0  0  0
 23 53  1  0  0  0  0
 23 54  1  0  0  0  0
 23 55  1  0  0  0  0
 24 56  1  0  0  0  0
 25 57  1  0  0  0  0
 26 58  1  0  0  0  0
 29 59  1  0  0  0  0
 29 60  1  0  0  0  0
 29 61  1  0  0  0  0
 31 62  1  0  0  0  0
 32 63  1  0  0  0  0
 39 64  1  0  0  0  0
 39 65  1  0  0  0  0
 39 66  1  0  0  0  0
 40 67  1  0  0  0  0
 41 68  1  0  0  0  0
 42 69  1  0  0  0  0
 45 70  1  0  0  0  0
 45 71  1  0  0  0  0
 45 72  1  0  0  0  0
 74 75  4  0  0  0  0
 75 76  1  0  0  0  0
 76 77  2  0  0  0  0
 77 78  4  0  0  0  0
 73 79  1  0  0  0  0
 75 79  4  0  0  0  0
 78 79  4  0  0  0  0
 78 80  4  0  0  0  0
 80 81  4  0  0  0  0
 81 82  4  0  0  0  0
 82 83  2  0  0  0  0
 73 84  1  0  0  0  0
 81 84  4  0  0  0  0
 83 85  4  0  0  0  0
 84 85  4  0  0  0  0
 85 86  4  0  0  0  0
 86 87  4  0  0  0  0
 87 88  4  0  0  0  0
 88 89  2  0  0  0  0
 89 90  4  0  0  0  0
 90 91  4  0  0  0  0
 91 92  1  0  0  0  0
 92 93  4  0  0  0  0
 93 94  1  0  0  0  0
 94 95  1  0  0  0  0
 93 96  4  0  0  0  0
 96 97  4  0  0  0  0
 97 98  4  0  0  0  0
 92 99  4  0  0  0  0
 98 99  4  0  0  0  0
 99100  1  0  0  0  0
100101  1  0  0  0  0
 91102  4  0  0  0  0
102103  4  0  0  0  0
103104  2  0  0  0  0
 74105  4  0  0  0  0
104105  1  0  0  0  0
 73106  1  0  0  0  0
102106  4  0  0  0  0
105106  4  0  0  0  0
 73107  1  0  0  0  0
 87107  4  0  0  0  0
 90107  4  0  0  0  0
 80108  1  0  0  0  0
108109  4  0  0  0  0
109110  1  0  0  0  0
110111  1  0  0  0  0
109112  4  0  0  0  0
112113  4  0  0  0  0
113114  4  0  0  0  0
108115  4  0  0  0  0
114115  4  0  0  0  0
115116  1  0  0  0  0
116117  1  0  0  0  0
 74118  1  0  0  0  0
 76119  1  0  0  0  0
 77120  1  0  0  0  0
 82121  1  0  0  0  0
 83122  1  0  0  0  0
 88123  1  0  0  0  0
 89124  1  0  0  0  0
 95125  1  0  0  0  0
 95126  1  0  0  0  0
 95127  1  0  0  0  0
 96128  1  0  0  0  0
 97129  1  0  0  0  0
 98130  1  0  0  0  0
101131  1  0  0  0  0
101132  1  0  0  0  0
101133  1  0  0  0  0
103134  1  0  0  0  0
104135  1  0  0  0  0
111136  1  0  0  0  0
111137  1  0  0  0  0
111138  1  0  0  0  0
112139  1  0  0  0  0
113140  1  0  0  0  0
114141  1  0  0  0  0
117142  1  0  0  0  0
117143  1  0  0  0  0
117144  1  0  0  0  0
 14145  4  0  0  0  0
145146  3  0  0  0  0
 86148  4  0  0  0  0
147148  3  0  0  0  0
146150  4  0  0  0  0
150151  4  0  0  0  0
151152  4  0  0  0  0
152153  2  0  0  0  0
153154  4  0  0  0  0
149155  1  0  0  0  0
151155  4  0  0  0  0
154155  4  0  0  0  0
154156  4  0  0  0  0
156157  4  0  0  0  0
157158  4  0  0  0  0
158159  2  0  0  0  0
149160  1  0  0  0  0
157160  4  0  0  0  0
159161  4  0  0  0  0
160161  4  0  0  0  0
147162  4  0  0  0  0
161162  4  0  0  0  0
162163  4  0  0  0  0
163164  4  0  0  0  0
164165  2  0  0  0  0
165166  4  0  0  0  0
166167  4  0  0  0  0
167168  1  0  0  0  0
168169  4  0  0  0  0
169170  1  0  0  0  0
170171  1  0  0  0  0
169172  4  0  0  0  0
172173  4  0  0  0  0
173174  4  0  0  0  0
168175  4  0  0  0  0
174175  4  0  0  0  0
175176  1  0  0  0  0
176177  1  0  0  0  0
167178  4  0  0  0  0
178179  4  0  0  0  0
179180  2  0  0  0  0
150181  4  0  0  0  0
180181  4  0  0  0  0
149182  1  0  0  0  0
178182  4  0  0  0  0
181182  4  0  0  0  0
149183  1  0  0  0  0
163183  4  0  0  0  0
166183  4  0  0  0  0
156184  1  0  0  0  0
184185  4  0  0  0  0
185186  1  0  0  0  0
186187  1  0  0  0  0
185188  4  0  0  0  0
188189  4  0  0  0  0
189190  4  0  0  0  0
184191  4  0  0  0  0
190191  4  0  0  0  0
191192  1  0  0  0  0
192193  1  0  0  0  0
152194  1  0  0  0  0
153195  1  0  0  0  0
158196  1  0  0  0  0
159197  1  0  0  0  0
164198  1  0  0  0  0
165199  1  0  0  0  0
171200  1  0  0  0  0
171201  1  0  0  0  0
171202  1  0  0  0  0
172203  1  0  0  0  0
173204  1  0  0  0  0
174205  1  0  0  0  0
177206  1  0  0  0  0
177207  1  0  0  0  0
177208  1  0  0  0  0
179209  1  0  0  0  0
180210  1  0  0  0  0
187211  1  0  0  0  0
187212  1  0  0  0  0
187213  1  0  0  0  0
188214  1  0  0  0  0
189215  1  0  0  0  0
190216  1  0  0  0  0
193217  1  0  0  0  0
193218  1  0  0  0  0
193219  1  0  0  0  0
M  END
