 xtb: 6.5.1 (b24c23e)
          07292217123D

262301  0     0  0            999 V2000
   40.4021    0.0048   -0.0545 Fe  0  0  0  0  0  0  0  0  0  0  0  0
   37.0139    0.0668   -0.1839 C   0  0  0  0  0  0  0  0  0  0  0  0
   37.6775    1.2741   -0.1173 C   0  0  0  0  0  0  0  0  0  0  0  0
   37.0104    2.5407   -0.0843 C   0  0  0  0  0  0  0  0  0  0  0  0
   37.9695    3.4794    0.0904 C   0  0  0  0  0  0  0  0  0  0  0  0
   39.2237    2.7851    0.1489 C   0  0  0  0  0  0  0  0  0  0  0  0
   39.0321    1.4373    0.0105 N   0  0  0  0  0  0  0  0  0  0  0  0
   40.4435    3.4062    0.3941 C   0  0  0  0  0  0  0  0  0  0  0  0
   40.4614    4.8742    0.5985 C   0  0  0  0  0  0  0  0  0  0  0  0
   40.8259    5.4090    1.8373 C   0  0  0  0  0  0  0  0  0  0  0  0
   40.8409    6.7774    2.0279 C   0  0  0  0  0  0  0  0  0  0  0  0
   40.4980    7.6410    0.9824 C   0  0  0  0  0  0  0  0  0  0  0  0
   40.5261    9.0977    1.2095 C   0  0  0  0  0  0  0  0  0  0  0  0
   40.8305    9.6056    2.2582 O   0  0  0  0  0  0  0  0  0  0  0  0
   40.1369    7.1068   -0.2567 C   0  0  0  0  0  0  0  0  0  0  0  0
   40.1162    5.7362   -0.4453 C   0  0  0  0  0  0  0  0  0  0  0  0
   41.6466    2.7179    0.4460 C   0  0  0  0  0  0  0  0  0  0  0  0
   42.9178    3.3510    0.6386 C   0  0  0  0  0  0  0  0  0  0  0  0
   43.8585    2.3854    0.5095 C   0  0  0  0  0  0  0  0  0  0  0  0
   41.8132    1.3724    0.2172 N   0  0  0  0  0  0  0  0  0  0  0  0
   43.1606    1.1674    0.2391 C   0  0  0  0  0  0  0  0  0  0  0  0
   43.8127   -0.0461   -0.0119 C   0  0  0  0  0  0  0  0  0  0  0  0
   43.1289   -1.2452   -0.2454 C   0  0  0  0  0  0  0  0  0  0  0  0
   43.7937   -2.4847   -0.5008 C   0  0  0  0  0  0  0  0  0  0  0  0
   42.8288   -3.4308   -0.5906 C   0  0  0  0  0  0  0  0  0  0  0  0
   41.5767   -2.7644   -0.3866 C   0  0  0  0  0  0  0  0  0  0  0  0
   41.7771   -1.4170   -0.2045 N   0  0  0  0  0  0  0  0  0  0  0  0
   40.3496   -3.4125   -0.3722 C   0  0  0  0  0  0  0  0  0  0  0  0
   40.3283   -4.8873   -0.5056 C   0  0  0  0  0  0  0  0  0  0  0  0
   39.6972   -5.4888   -1.5979 C   0  0  0  0  0  0  0  0  0  0  0  0
   39.6791   -6.8663   -1.7250 C   0  0  0  0  0  0  0  0  0  0  0  0
   40.2873   -7.6702   -0.7579 C   0  0  0  0  0  0  0  0  0  0  0  0
   40.2785   -9.1406   -0.8683 C   0  0  0  0  0  0  0  0  0  0  0  0
   40.7875   -9.8751   -0.0610 O   0  0  0  0  0  0  0  0  0  0  0  0
   40.9173   -7.0683    0.3363 C   0  0  0  0  0  0  0  0  0  0  0  0
   40.9406   -5.6924    0.4595 C   0  0  0  0  0  0  0  0  0  0  0  0
   39.1392   -2.7380   -0.2525 C   0  0  0  0  0  0  0  0  0  0  0  0
   37.8602   -3.3871   -0.2187 C   0  0  0  0  0  0  0  0  0  0  0  0
   36.9259   -2.4084   -0.1831 C   0  0  0  0  0  0  0  0  0  0  0  0
   37.6351   -1.1646   -0.1761 C   0  0  0  0  0  0  0  0  0  0  0  0
   38.9885   -1.3793   -0.1891 N   0  0  0  0  0  0  0  0  0  0  0  0
   35.9308    0.0868   -0.2277 H   0  0  0  0  0  0  0  0  0  0  0  0
   35.9435    2.6723   -0.1699 H   0  0  0  0  0  0  0  0  0  0  0  0
   37.8500    4.5465    0.1847 H   0  0  0  0  0  0  0  0  0  0  0  0
   41.0832    4.7407    2.6513 H   0  0  0  0  0  0  0  0  0  0  0  0
   41.1172    7.2015    2.9873 H   0  0  0  0  0  0  0  0  0  0  0  0
   40.2389    9.7028    0.3232 H   0  0  0  0  0  0  0  0  0  0  0  0
   39.8732    7.7702   -1.0740 H   0  0  0  0  0  0  0  0  0  0  0  0
   39.8464    5.3238   -1.4110 H   0  0  0  0  0  0  0  0  0  0  0  0
   43.0622    4.4018    0.8293 H   0  0  0  0  0  0  0  0  0  0  0  0
   44.9303    2.4755    0.5813 H   0  0  0  0  0  0  0  0  0  0  0  0
   44.8614   -2.6000   -0.5950 H   0  0  0  0  0  0  0  0  0  0  0  0
   42.9434   -4.4843   -0.7869 H   0  0  0  0  0  0  0  0  0  0  0  0
   39.2349   -4.8667   -2.3559 H   0  0  0  0  0  0  0  0  0  0  0  0
   39.1920   -7.3252   -2.5793 H   0  0  0  0  0  0  0  0  0  0  0  0
   39.7570   -9.5269   -1.7699 H   0  0  0  0  0  0  0  0  0  0  0  0
   41.3845   -7.7007    1.0836 H   0  0  0  0  0  0  0  0  0  0  0  0
   41.4204   -5.2284    1.3138 H   0  0  0  0  0  0  0  0  0  0  0  0
   37.7096   -4.4544   -0.2182 H   0  0  0  0  0  0  0  0  0  0  0  0
   35.8518   -2.5001   -0.1574 H   0  0  0  0  0  0  0  0  0  0  0  0
   96.0590   -0.0281   -0.1046 Fe  0  0  0  0  0  0  0  0  0  0  0  0
   99.4484   -0.0726   -0.2214 C   0  0  0  0  0  0  0  0  0  0  0  0
   98.7862   -1.2795   -0.3043 C   0  0  0  0  0  0  0  0  0  0  0  0
   99.4565   -2.5398   -0.4170 C   0  0  0  0  0  0  0  0  0  0  0  0
   98.4979   -3.4940   -0.3696 C   0  0  0  0  0  0  0  0  0  0  0  0
   97.2409   -2.8133   -0.2478 C   0  0  0  0  0  0  0  0  0  0  0  0
   97.4308   -1.4585   -0.2113 N   0  0  0  0  0  0  0  0  0  0  0  0
   96.0166   -3.4609   -0.1263 C   0  0  0  0  0  0  0  0  0  0  0  0
   95.9966   -4.9430   -0.1194 C   0  0  0  0  0  0  0  0  0  0  0  0
   95.5868   -5.6356    1.0233 C   0  0  0  0  0  0  0  0  0  0  0  0
   95.5707   -7.0172    1.0322 C   0  0  0  0  0  0  0  0  0  0  0  0
   95.9574   -7.7364   -0.1035 C   0  0  0  0  0  0  0  0  0  0  0  0
   95.9275   -9.2102   -0.0707 C   0  0  0  0  0  0  0  0  0  0  0  0
   95.5859   -9.8513    0.8898 O   0  0  0  0  0  0  0  0  0  0  0  0
   96.3629   -7.0443   -1.2472 C   0  0  0  0  0  0  0  0  0  0  0  0
   96.3847   -5.6608   -1.2534 C   0  0  0  0  0  0  0  0  0  0  0  0
   94.8092   -2.7850   -0.0284 C   0  0  0  0  0  0  0  0  0  0  0  0
   93.5347   -3.4388    0.0137 C   0  0  0  0  0  0  0  0  0  0  0  0
   92.5950   -2.4641   -0.0078 C   0  0  0  0  0  0  0  0  0  0  0  0
   94.6454   -1.4204   -0.0601 N   0  0  0  0  0  0  0  0  0  0  0  0
   93.2969   -1.2197   -0.0583 C   0  0  0  0  0  0  0  0  0  0  0  0
   92.6482    0.0196   -0.1118 C   0  0  0  0  0  0  0  0  0  0  0  0
   93.3332    1.2401   -0.1127 C   0  0  0  0  0  0  0  0  0  0  0  0
   92.6690    2.5053   -0.1510 C   0  0  0  0  0  0  0  0  0  0  0  0
   93.6338    3.4523   -0.0699 C   0  0  0  0  0  0  0  0  0  0  0  0
   94.8855    2.7603    0.0180 C   0  0  0  0  0  0  0  0  0  0  0  0
   94.6848    1.4016   -0.0308 N   0  0  0  0  0  0  0  0  0  0  0  0
   96.1135    3.3980    0.1240 C   0  0  0  0  0  0  0  0  0  0  0  0
   96.1347    4.8756    0.2242 C   0  0  0  0  0  0  0  0  0  0  0  0
   96.7463    5.6422   -0.7714 C   0  0  0  0  0  0  0  0  0  0  0  0
   96.7642    7.0227   -0.6807 C   0  0  0  0  0  0  0  0  0  0  0  0
   96.1748    7.6636    0.4116 C   0  0  0  0  0  0  0  0  0  0  0  0
   96.1839    9.1331    0.5336 C   0  0  0  0  0  0  0  0  0  0  0  0
   95.6902    9.7311    1.4549 O   0  0  0  0  0  0  0  0  0  0  0  0
   95.5638    6.8962    1.4088 C   0  0  0  0  0  0  0  0  0  0  0  0
   95.5410    5.5180    1.3147 C   0  0  0  0  0  0  0  0  0  0  0  0
   97.3242    2.7142    0.1185 C   0  0  0  0  0  0  0  0  0  0  0  0
   98.6046    3.3524    0.2281 C   0  0  0  0  0  0  0  0  0  0  0  0
   99.5378    2.3795    0.1081 C   0  0  0  0  0  0  0  0  0  0  0  0
   98.8270    1.1471   -0.0524 C   0  0  0  0  0  0  0  0  0  0  0  0
   97.4739    1.3607   -0.0193 N   0  0  0  0  0  0  0  0  0  0  0  0
  100.5315   -0.0860   -0.2679 H   0  0  0  0  0  0  0  0  0  0  0  0
  100.5247   -2.6587   -0.5040 H   0  0  0  0  0  0  0  0  0  0  0  0
   98.6193   -4.5644   -0.4039 H   0  0  0  0  0  0  0  0  0  0  0  0
   95.2950   -5.0797    1.9072 H   0  0  0  0  0  0  0  0  0  0  0  0
   95.2598   -7.5633    1.9163 H   0  0  0  0  0  0  0  0  0  0  0  0
   96.2521   -9.6938   -1.0167 H   0  0  0  0  0  0  0  0  0  0  0  0
   96.6602   -7.5949   -2.1338 H   0  0  0  0  0  0  0  0  0  0  0  0
   96.6888   -5.1255   -2.1458 H   0  0  0  0  0  0  0  0  0  0  0  0
   93.3886   -4.5063    0.0371 H   0  0  0  0  0  0  0  0  0  0  0  0
   91.5216   -2.5629    0.0055 H   0  0  0  0  0  0  0  0  0  0  0  0
   91.6018    2.6356   -0.2293 H   0  0  0  0  0  0  0  0  0  0  0  0
   93.5195    4.5239   -0.0806 H   0  0  0  0  0  0  0  0  0  0  0  0
   97.1936    5.1477   -1.6263 H   0  0  0  0  0  0  0  0  0  0  0  0
   97.2364    7.6108   -1.4609 H   0  0  0  0  0  0  0  0  0  0  0  0
   96.6898    9.6569   -0.3054 H   0  0  0  0  0  0  0  0  0  0  0  0
   95.1108    7.4027    2.2544 H   0  0  0  0  0  0  0  0  0  0  0  0
   95.0758    4.9248    2.0938 H   0  0  0  0  0  0  0  0  0  0  0  0
   98.7569    4.4083    0.3813 H   0  0  0  0  0  0  0  0  0  0  0  0
  100.6124    2.4671    0.1324 H   0  0  0  0  0  0  0  0  0  0  0  0
   45.2131   -0.0610   -0.0211 C   0  0  0  0  0  0  0  0  0  0  0  0
   46.4396   -0.0686   -0.0211 C   0  0  0  0  0  0  0  0  0  0  0  0
   47.7787   -0.0720   -0.0219 C   0  0  0  0  0  0  0  0  0  0  0  0
   49.0117   -0.0694   -0.0216 C   0  0  0  0  0  0  0  0  0  0  0  0
   50.3457   -0.0662   -0.0202 C   0  0  0  0  0  0  0  0  0  0  0  0
   51.5788   -0.0606   -0.0175 C   0  0  0  0  0  0  0  0  0  0  0  0
   52.9175   -0.0559   -0.0126 C   0  0  0  0  0  0  0  0  0  0  0  0
   54.1444   -0.0512   -0.0063 C   0  0  0  0  0  0  0  0  0  0  0  0
   63.7628   -0.0250   -0.0657 C   0  0  0  0  0  0  0  0  0  0  0  0
   64.9898   -0.0184   -0.0772 C   0  0  0  0  0  0  0  0  0  0  0  0
   66.3283   -0.0174   -0.0846 C   0  0  0  0  0  0  0  0  0  0  0  0
   67.5616   -0.0144   -0.0858 C   0  0  0  0  0  0  0  0  0  0  0  0
   68.8954   -0.0134   -0.0835 C   0  0  0  0  0  0  0  0  0  0  0  0
   70.1288   -0.0079   -0.0751 C   0  0  0  0  0  0  0  0  0  0  0  0
   71.4673   -0.0089   -0.0669 C   0  0  0  0  0  0  0  0  0  0  0  0
   72.6943   -0.0094   -0.0568 C   0  0  0  0  0  0  0  0  0  0  0  0
   82.3164    0.0255   -0.1410 C   0  0  0  0  0  0  0  0  0  0  0  0
   83.5427    0.0364   -0.1634 C   0  0  0  0  0  0  0  0  0  0  0  0
   84.8818    0.0443   -0.1810 C   0  0  0  0  0  0  0  0  0  0  0  0
   86.1145    0.0518   -0.1884 C   0  0  0  0  0  0  0  0  0  0  0  0
   87.4492    0.0545   -0.1887 C   0  0  0  0  0  0  0  0  0  0  0  0
   88.6818    0.0533   -0.1818 C   0  0  0  0  0  0  0  0  0  0  0  0
   90.0214    0.0469   -0.1656 C   0  0  0  0  0  0  0  0  0  0  0  0
   91.2474    0.0376   -0.1438 C   0  0  0  0  0  0  0  0  0  0  0  0
   58.9539   -0.0455   -0.0097 Fe  0  0  0  0  0  0  0  0  0  0  0  0
   55.5432   -0.0496   -0.0037 C   0  0  0  0  0  0  0  0  0  0  0  0
   56.2152    1.1701    0.1536 C   0  0  0  0  0  0  0  0  0  0  0  0
   55.5479    2.4273    0.2785 C   0  0  0  0  0  0  0  0  0  0  0  0
   56.5019    3.3446    0.5725 C   0  0  0  0  0  0  0  0  0  0  0  0
   57.7468    2.6391    0.6333 C   0  0  0  0  0  0  0  0  0  0  0  0
   57.5598    1.3148    0.3241 N   0  0  0  0  0  0  0  0  0  0  0  0
   58.9514    3.2111    1.0268 C   0  0  0  0  0  0  0  0  0  0  0  0
   58.9467    4.6184    1.4849 C   0  0  0  0  0  0  0  0  0  0  0  0
   59.7035    5.5847    0.8153 C   0  0  0  0  0  0  0  0  0  0  0  0
   59.6952    6.8976    1.2456 C   0  0  0  0  0  0  0  0  0  0  0  0
   58.9357    7.2728    2.3586 C   0  0  0  0  0  0  0  0  0  0  0  0
   58.9485    8.6799    2.8010 C   0  0  0  0  0  0  0  0  0  0  0  0
   59.5845    9.5455    2.2569 O   0  0  0  0  0  0  0  0  0  0  0  0
   58.1808    6.3078    3.0293 C   0  0  0  0  0  0  0  0  0  0  0  0
   58.1838    4.9945    2.5940 C   0  0  0  0  0  0  0  0  0  0  0  0
   60.1585    2.5231    1.0064 C   0  0  0  0  0  0  0  0  0  0  0  0
   61.4067    3.0719    1.4453 C   0  0  0  0  0  0  0  0  0  0  0  0
   62.3631    2.1636    1.1329 C   0  0  0  0  0  0  0  0  0  0  0  0
   60.3472    1.2654    0.4874 N   0  0  0  0  0  0  0  0  0  0  0  0
   61.6938    1.0602    0.5193 C   0  0  0  0  0  0  0  0  0  0  0  0
   62.3642   -0.0310   -0.0505 C   0  0  0  0  0  0  0  0  0  0  0  0
   61.6893   -1.1314   -0.5967 C   0  0  0  0  0  0  0  0  0  0  0  0
   62.3529   -2.2362   -1.2139 C   0  0  0  0  0  0  0  0  0  0  0  0
   61.3984   -3.1606   -1.4822 C   0  0  0  0  0  0  0  0  0  0  0  0
   60.1571   -2.6179   -1.0174 C   0  0  0  0  0  0  0  0  0  0  0  0
   60.3464   -1.3509   -0.5227 N   0  0  0  0  0  0  0  0  0  0  0  0
   58.9553   -3.3158   -1.0017 C   0  0  0  0  0  0  0  0  0  0  0  0
   58.9540   -4.7318   -1.4323 C   0  0  0  0  0  0  0  0  0  0  0  0
   59.7291   -5.6766   -0.7541 C   0  0  0  0  0  0  0  0  0  0  0  0
   59.7240   -7.0019   -1.1514 C   0  0  0  0  0  0  0  0  0  0  0  0
   58.9485   -7.4069   -2.2403 C   0  0  0  0  0  0  0  0  0  0  0  0
   58.9263   -8.8132   -2.6853 C   0  0  0  0  0  0  0  0  0  0  0  0
   58.2752   -9.2084   -3.6178 O   0  0  0  0  0  0  0  0  0  0  0  0
   58.1768   -6.4605   -2.9222 C   0  0  0  0  0  0  0  0  0  0  0  0
   58.1766   -5.1386   -2.5209 C   0  0  0  0  0  0  0  0  0  0  0  0
   57.7522   -2.7433   -0.6053 C   0  0  0  0  0  0  0  0  0  0  0  0
   56.5090   -3.4507   -0.5307 C   0  0  0  0  0  0  0  0  0  0  0  0
   55.5526   -2.5301   -0.2561 C   0  0  0  0  0  0  0  0  0  0  0  0
   56.2172   -1.2696   -0.1514 C   0  0  0  0  0  0  0  0  0  0  0  0
   57.5622   -1.4142   -0.3173 N   0  0  0  0  0  0  0  0  0  0  0  0
   54.4867    2.5737    0.1585 H   0  0  0  0  0  0  0  0  0  0  0  0
   56.3829    4.4041    0.7302 H   0  0  0  0  0  0  0  0  0  0  0  0
   60.2834    5.2989   -0.0549 H   0  0  0  0  0  0  0  0  0  0  0  0
   60.2747    7.6549    0.7286 H   0  0  0  0  0  0  0  0  0  0  0  0
   58.3163    8.8838    3.6913 H   0  0  0  0  0  0  0  0  0  0  0  0
   57.5912    6.5899    3.8955 H   0  0  0  0  0  0  0  0  0  0  0  0
   57.6064    4.2448    3.1230 H   0  0  0  0  0  0  0  0  0  0  0  0
   61.5267    4.0270    1.9299 H   0  0  0  0  0  0  0  0  0  0  0  0
   63.4271    2.2225    1.2960 H   0  0  0  0  0  0  0  0  0  0  0  0
   63.4122   -2.2855   -1.4080 H   0  0  0  0  0  0  0  0  0  0  0  0
   61.5149   -4.1222   -1.9549 H   0  0  0  0  0  0  0  0  0  0  0  0
   60.3222   -5.3668    0.0989 H   0  0  0  0  0  0  0  0  0  0  0  0
   60.3231   -7.7305   -0.6149 H   0  0  0  0  0  0  0  0  0  0  0  0
   59.5684   -9.4918   -2.0846 H   0  0  0  0  0  0  0  0  0  0  0  0
   57.5809   -6.7837   -3.7691 H   0  0  0  0  0  0  0  0  0  0  0  0
   57.5865   -4.4049   -3.0581 H   0  0  0  0  0  0  0  0  0  0  0  0
   56.3921   -4.5131   -0.6692 H   0  0  0  0  0  0  0  0  0  0  0  0
   54.4915   -2.6766   -0.1350 H   0  0  0  0  0  0  0  0  0  0  0  0
   77.5054   -0.0110   -0.0364 Fe  0  0  0  0  0  0  0  0  0  0  0  0
   74.0931   -0.0108   -0.0430 C   0  0  0  0  0  0  0  0  0  0  0  0
   74.7654    1.2030    0.1530 C   0  0  0  0  0  0  0  0  0  0  0  0
   74.0963    2.4555    0.3136 C   0  0  0  0  0  0  0  0  0  0  0  0
   75.0499    3.3668    0.6255 C   0  0  0  0  0  0  0  0  0  0  0  0
   76.2969    2.6630    0.6591 C   0  0  0  0  0  0  0  0  0  0  0  0
   76.1102    1.3450    0.3221 N   0  0  0  0  0  0  0  0  0  0  0  0
   77.5046    3.2338    1.0421 C   0  0  0  0  0  0  0  0  0  0  0  0
   77.5034    4.6369    1.5139 C   0  0  0  0  0  0  0  0  0  0  0  0
   78.2376    5.6129    0.8332 C   0  0  0  0  0  0  0  0  0  0  0  0
   78.2334    6.9221    1.2744 C   0  0  0  0  0  0  0  0  0  0  0  0
   77.5010    7.2838    2.4098 C   0  0  0  0  0  0  0  0  0  0  0  0
   77.5178    8.6873    2.8633 C   0  0  0  0  0  0  0  0  0  0  0  0
   78.1312    9.5616    2.3074 O   0  0  0  0  0  0  0  0  0  0  0  0
   76.7689    6.3090    3.0916 C   0  0  0  0  0  0  0  0  0  0  0  0
   76.7673    4.9994    2.6452 C   0  0  0  0  0  0  0  0  0  0  0  0
   78.7150    2.5525    0.9919 C   0  0  0  0  0  0  0  0  0  0  0  0
   79.9674    3.1065    1.4114 C   0  0  0  0  0  0  0  0  0  0  0  0
   80.9236    2.2065    1.0751 C   0  0  0  0  0  0  0  0  0  0  0  0
   78.9012    1.2999    0.4606 N   0  0  0  0  0  0  0  0  0  0  0  0
   80.2498    1.1023    0.4682 C   0  0  0  0  0  0  0  0  0  0  0  0
   80.9171    0.0132   -0.1078 C   0  0  0  0  0  0  0  0  0  0  0  0
   80.2412   -1.0941   -0.6366 C   0  0  0  0  0  0  0  0  0  0  0  0
   80.9048   -2.2050   -1.2424 C   0  0  0  0  0  0  0  0  0  0  0  0
   79.9517   -3.1355   -1.4937 C   0  0  0  0  0  0  0  0  0  0  0  0
   78.7107   -2.5884   -1.0336 C   0  0  0  0  0  0  0  0  0  0  0  0
   78.8986   -1.3164   -0.5532 N   0  0  0  0  0  0  0  0  0  0  0  0
   77.5075   -3.2850   -1.0225 C   0  0  0  0  0  0  0  0  0  0  0  0
   77.5132   -4.7055   -1.4389 C   0  0  0  0  0  0  0  0  0  0  0  0
   78.2768   -5.6413   -0.7357 C   0  0  0  0  0  0  0  0  0  0  0  0
   78.2818   -6.9708   -1.1184 C   0  0  0  0  0  0  0  0  0  0  0  0
   77.5281   -7.3893   -2.2175 C   0  0  0  0  0  0  0  0  0  0  0  0
   77.5176   -8.8002   -2.6473 C   0  0  0  0  0  0  0  0  0  0  0  0
   76.8834   -9.2080   -3.5860 O   0  0  0  0  0  0  0  0  0  0  0  0
   76.7680   -6.4519   -2.9245 C   0  0  0  0  0  0  0  0  0  0  0  0
   76.7579   -5.1255   -2.5380 C   0  0  0  0  0  0  0  0  0  0  0  0
   76.3009   -2.7074   -0.6477 C   0  0  0  0  0  0  0  0  0  0  0  0
   75.0532   -3.4094   -0.5990 C   0  0  0  0  0  0  0  0  0  0  0  0
   74.0963   -2.4856   -0.3388 C   0  0  0  0  0  0  0  0  0  0  0  0
   74.7651   -1.2291   -0.2126 C   0  0  0  0  0  0  0  0  0  0  0  0
   76.1116   -1.3779   -0.3579 N   0  0  0  0  0  0  0  0  0  0  0  0
   73.0340    2.6026    0.2033 H   0  0  0  0  0  0  0  0  0  0  0  0
   74.9298    4.4216    0.8113 H   0  0  0  0  0  0  0  0  0  0  0  0
   78.7968    5.3372   -0.0537 H   0  0  0  0  0  0  0  0  0  0  0  0
   78.7955    7.6867    0.7491 H   0  0  0  0  0  0  0  0  0  0  0  0
   76.9084    8.8803    3.7718 H   0  0  0  0  0  0  0  0  0  0  0  0
   76.2004    6.5808    3.9751 H   0  0  0  0  0  0  0  0  0  0  0  0
   76.2074    4.2422    3.1823 H   0  0  0  0  0  0  0  0  0  0  0  0
   80.0904    4.0591    1.9000 H   0  0  0  0  0  0  0  0  0  0  0  0
   81.9899    2.2710    1.2193 H   0  0  0  0  0  0  0  0  0  0  0  0
   81.9635   -2.2544   -1.4399 H   0  0  0  0  0  0  0  0  0  0  0  0
   80.0685   -4.1030   -1.9539 H   0  0  0  0  0  0  0  0  0  0  0  0
   78.8537   -5.3205    0.1244 H   0  0  0  0  0  0  0  0  0  0  0  0
   78.8722   -7.6921   -0.5628 H   0  0  0  0  0  0  0  0  0  0  0  0
   78.1506   -9.4704   -2.0275 H   0  0  0  0  0  0  0  0  0  0  0  0
   76.1896   -6.7854   -3.7793 H   0  0  0  0  0  0  0  0  0  0  0  0
   76.1776   -4.3988   -3.0952 H   0  0  0  0  0  0  0  0  0  0  0  0
   74.9339   -4.4706   -0.7446 H   0  0  0  0  0  0  0  0  0  0  0  0
   73.0324   -2.6277   -0.2377 H   0  0  0  0  0  0  0  0  0  0  0  0
  2  3  4  0  0  0  0
  3  4  4  0  0  0  0
  4  5  2  0  0  0  0
  5  6  4  0  0  0  0
  1  7  1  0  0  0  0
  3  7  4  0  0  0  0
  6  7  4  0  0  0  0
  6  8  4  0  0  0  0
  8  9  1  0  0  0  0
  9 10  4  0  0  0  0
 10 11  4  0  0  0  0
 11 12  4  0  0  0  0
 12 13  1  0  0  0  0
 13 14  2  0  0  0  0
 12 15  4  0  0  0  0
  9 16  4  0  0  0  0
 15 16  4  0  0  0  0
  8 17  4  0  0  0  0
 17 18  4  0  0  0  0
 18 19  2  0  0  0  0
  1 20  1  0  0  0  0
 17 20  4  0  0  0  0
 19 21  4  0  0  0  0
 20 21  4  0  0  0  0
 21 22  4  0  0  0  0
 22 23  4  0  0  0  0
 23 24  4  0  0  0  0
 24 25  2  0  0  0  0
 25 26  4  0  0  0  0
  1 27  1  0  0  0  0
 23 27  4  0  0  0  0
 26 27  4  0  0  0  0
 26 28  4  0  0  0  0
 28 29  1  0  0  0  0
 29 30  4  0  0  0  0
 30 31  4  0  0  0  0
 31 32  4  0  0  0  0
 32 33  1  0  0  0  0
 33 34  2  0  0  0  0
 32 35  4  0  0  0  0
 29 36  4  0  0  0  0
 35 36  4  0  0  0  0
 28 37  4  0  0  0  0
 37 38  4  0  0  0  0
 38 39  2  0  0  0  0
  2 40  4  0  0  0  0
 39 40  4  0  0  0  0
  1 41  1  0  0  0  0
 37 41  4  0  0  0  0
 40 41  4  0  0  0  0
  2 42  1  0  0  0  0
  4 43  1  0  0  0  0
  5 44  1  0  0  0  0
 10 45  1  0  0  0  0
 11 46  1  0  0  0  0
 13 47  1  0  0  0  0
 15 48  1  0  0  0  0
 16 49  1  0  0  0  0
 18 50  1  0  0  0  0
 19 51  1  0  0  0  0
 24 52  1  0  0  0  0
 25 53  1  0  0  0  0
 30 54  1  0  0  0  0
 31 55  1  0  0  0  0
 33 56  1  0  0  0  0
 35 57  1  0  0  0  0
 36 58  1  0  0  0  0
 38 59  1  0  0  0  0
 39 60  1  0  0  0  0
 62 63  4  0  0  0  0
 63 64  4  0  0  0  0
 64 65  2  0  0  0  0
 65 66  4  0  0  0  0
 61 67  1  0  0  0  0
 63 67  4  0  0  0  0
 66 67  4  0  0  0  0
 66 68  4  0  0  0  0
 68 69  1  0  0  0  0
 69 70  4  0  0  0  0
 70 71  4  0  0  0  0
 71 72  4  0  0  0  0
 72 73  1  0  0  0  0
 73 74  2  0  0  0  0
 72 75  4  0  0  0  0
 69 76  4  0  0  0  0
 75 76  4  0  0  0  0
 68 77  4  0  0  0  0
 77 78  4  0  0  0  0
 78 79  2  0  0  0  0
 61 80  1  0  0  0  0
 77 80  4  0  0  0  0
 79 81  4  0  0  0  0
 80 81  4  0  0  0  0
 81 82  4  0  0  0  0
 82 83  4  0  0  0  0
 83 84  4  0  0  0  0
 84 85  2  0  0  0  0
 85 86  4  0  0  0  0
 61 87  1  0  0  0  0
 83 87  4  0  0  0  0
 86 87  4  0  0  0  0
 86 88  4  0  0  0  0
 88 89  1  0  0  0  0
 89 90  4  0  0  0  0
 90 91  4  0  0  0  0
 91 92  4  0  0  0  0
 92 93  1  0  0  0  0
 93 94  2  0  0  0  0
 92 95  4  0  0  0  0
 89 96  4  0  0  0  0
 95 96  4  0  0  0  0
 88 97  4  0  0  0  0
 97 98  4  0  0  0  0
 98 99  2  0  0  0  0
 62100  4  0  0  0  0
 99100  4  0  0  0  0
 61101  1  0  0  0  0
 97101  4  0  0  0  0
100101  4  0  0  0  0
 62102  1  0  0  0  0
 64103  1  0  0  0  0
 65104  1  0  0  0  0
 70105  1  0  0  0  0
 71106  1  0  0  0  0
 73107  1  0  0  0  0
 75108  1  0  0  0  0
 76109  1  0  0  0  0
 78110  1  0  0  0  0
 79111  1  0  0  0  0
 84112  1  0  0  0  0
 85113  1  0  0  0  0
 90114  1  0  0  0  0
 91115  1  0  0  0  0
 93116  1  0  0  0  0
 95117  1  0  0  0  0
 96118  1  0  0  0  0
 98119  1  0  0  0  0
 99120  1  0  0  0  0
 22121  4  0  0  0  0
121122  3  0  0  0  0
122123  4  0  0  0  0
123124  3  0  0  0  0
124125  4  0  0  0  0
125126  3  0  0  0  0
126127  4  0  0  0  0
127128  3  0  0  0  0
129130  3  0  0  0  0
130131  4  0  0  0  0
131132  3  0  0  0  0
132133  4  0  0  0  0
133134  3  0  0  0  0
134135  4  0  0  0  0
135136  3  0  0  0  0
137138  3  0  0  0  0
138139  4  0  0  0  0
139140  3  0  0  0  0
140141  4  0  0  0  0
141142  3  0  0  0  0
142143  4  0  0  0  0
 82144  4  0  0  0  0
143144  3  0  0  0  0
128146  4  0  0  0  0
146147  4  0  0  0  0
147148  4  0  0  0  0
148149  2  0  0  0  0
149150  4  0  0  0  0
145151  1  0  0  0  0
147151  4  0  0  0  0
150151  4  0  0  0  0
150152  4  0  0  0  0
152153  1  0  0  0  0
153154  4  0  0  0  0
154155  4  0  0  0  0
155156  4  0  0  0  0
156157  1  0  0  0  0
157158  2  0  0  0  0
156159  4  0  0  0  0
153160  4  0  0  0  0
159160  4  0  0  0  0
152161  4  0  0  0  0
161162  4  0  0  0  0
162163  2  0  0  0  0
145164  1  0  0  0  0
161164  4  0  0  0  0
163165  4  0  0  0  0
164165  4  0  0  0  0
129166  4  0  0  0  0
165166  4  0  0  0  0
166167  4  0  0  0  0
167168  4  0  0  0  0
168169  2  0  0  0  0
169170  4  0  0  0  0
145171  1  0  0  0  0
167171  4  0  0  0  0
170171  4  0  0  0  0
170172  4  0  0  0  0
172173  1  0  0  0  0
173174  4  0  0  0  0
174175  4  0  0  0  0
175176  4  0  0  0  0
176177  1  0  0  0  0
177178  2  0  0  0  0
176179  4  0  0  0  0
173180  4  0  0  0  0
179180  4  0  0  0  0
172181  4  0  0  0  0
181182  4  0  0  0  0
182183  2  0  0  0  0
146184  4  0  0  0  0
183184  4  0  0  0  0
145185  1  0  0  0  0
181185  4  0  0  0  0
184185  4  0  0  0  0
148186  1  0  0  0  0
149187  1  0  0  0  0
154188  1  0  0  0  0
155189  1  0  0  0  0
157190  1  0  0  0  0
159191  1  0  0  0  0
160192  1  0  0  0  0
162193  1  0  0  0  0
163194  1  0  0  0  0
168195  1  0  0  0  0
169196  1  0  0  0  0
174197  1  0  0  0  0
175198  1  0  0  0  0
177199  1  0  0  0  0
179200  1  0  0  0  0
180201  1  0  0  0  0
182202  1  0  0  0  0
183203  1  0  0  0  0
136205  4  0  0  0  0
205206  4  0  0  0  0
206207  4  0  0  0  0
207208  2  0  0  0  0
208209  4  0  0  0  0
204210  1  0  0  0  0
206210  4  0  0  0  0
209210  4  0  0  0  0
209211  4  0  0  0  0
211212  1  0  0  0  0
212213  4  0  0  0  0
213214  4  0  0  0  0
214215  4  0  0  0  0
215216  1  0  0  0  0
216217  2  0  0  0  0
215218  4  0  0  0  0
212219  4  0  0  0  0
218219  4  0  0  0  0
211220  4  0  0  0  0
220221  4  0  0  0  0
221222  2  0  0  0  0
204223  1  0  0  0  0
220223  4  0  0  0  0
222224  4  0  0  0  0
223224  4  0  0  0  0
137225  4  0  0  0  0
224225  4  0  0  0  0
225226  4  0  0  0  0
226227  4  0  0  0  0
227228  2  0  0  0  0
228229  4  0  0  0  0
204230  1  0  0  0  0
226230  4  0  0  0  0
229230  4  0  0  0  0
229231  4  0  0  0  0
231232  1  0  0  0  0
232233  4  0  0  0  0
233234  4  0  0  0  0
234235  4  0  0  0  0
235236  1  0  0  0  0
236237  2  0  0  0  0
235238  4  0  0  0  0
232239  4  0  0  0  0
238239  4  0  0  0  0
231240  4  0  0  0  0
240241  4  0  0  0  0
241242  2  0  0  0  0
205243  4  0  0  0  0
242243  4  0  0  0  0
204244  1  0  0  0  0
240244  4  0  0  0  0
243244  4  0  0  0  0
207245  1  0  0  0  0
208246  1  0  0  0  0
213247  1  0  0  0  0
214248  1  0  0  0  0
216249  1  0  0  0  0
218250  1  0  0  0  0
219251  1  0  0  0  0
221252  1  0  0  0  0
222253  1  0  0  0  0
227254  1  0  0  0  0
228255  1  0  0  0  0
233256  1  0  0  0  0
234257  1  0  0  0  0
236258  1  0  0  0  0
238259  1  0  0  0  0
239260  1  0  0  0  0
241261  1  0  0  0  0
242262  1  0  0  0  0
M  END
