 xtb: 6.5.1 (b24c23e)
          07292216143D

219248  0     0  0            999 V2000
   33.7590    0.1539   -0.0805 Fe  0  0  0  0  0  0  0  0  0  0  0  0
   30.3847    0.3951   -0.2829 C   0  0  0  0  0  0  0  0  0  0  0  0
   31.0352    1.2056    0.6246 C   0  0  0  0  0  0  0  0  0  0  0  0
   30.3600    2.1310    1.4843 C   0  0  0  0  0  0  0  0  0  0  0  0
   31.3020    2.6588    2.3008 C   0  0  0  0  0  0  0  0  0  0  0  0
   32.5537    2.0667    1.9278 C   0  0  0  0  0  0  0  0  0  0  0  0
   32.3785    1.1879    0.8937 N   0  0  0  0  0  0  0  0  0  0  0  0
   33.7564    2.3228    2.5754 C   0  0  0  0  0  0  0  0  0  0  0  0
   34.9618    1.7668    2.1771 C   0  0  0  0  0  0  0  0  0  0  0  0
   36.2197    2.0764    2.7885 C   0  0  0  0  0  0  0  0  0  0  0  0
   37.1743    1.4611    2.0510 C   0  0  0  0  0  0  0  0  0  0  0  0
   35.1493    0.9440    1.0916 N   0  0  0  0  0  0  0  0  0  0  0  0
   36.4976    0.7685    0.9987 C   0  0  0  0  0  0  0  0  0  0  0  0
   37.1666    0.0630   -0.0085 C   0  0  0  0  0  0  0  0  0  0  0  0
   36.5004   -0.6569   -1.0075 C   0  0  0  0  0  0  0  0  0  0  0  0
   37.1817   -1.4539   -1.9802 C   0  0  0  0  0  0  0  0  0  0  0  0
   36.2278   -2.1148   -2.6781 C   0  0  0  0  0  0  0  0  0  0  0  0
   34.9642   -1.7038   -2.1431 C   0  0  0  0  0  0  0  0  0  0  0  0
   33.7432   -2.1950   -2.5784 C   0  0  0  0  0  0  0  0  0  0  0  0
   33.7294   -3.2339   -3.6450 C   0  0  0  0  0  0  0  0  0  0  0  0
   34.0986   -2.9136   -4.9580 C   0  0  0  0  0  0  0  0  0  0  0  0
   34.4528   -1.6198   -5.1761 O   0  0  0  0  0  0  0  0  0  0  0  0
   34.8473   -1.1913   -6.4635 C   0  0  0  0  0  0  0  0  0  0  0  0
   34.0788   -3.8898   -5.9537 C   0  0  0  0  0  0  0  0  0  0  0  0
   33.6938   -5.1824   -5.6315 C   0  0  0  0  0  0  0  0  0  0  0  0
   33.3245   -5.5228   -4.3390 C   0  0  0  0  0  0  0  0  0  0  0  0
   33.3390   -4.5457   -3.3442 C   0  0  0  0  0  0  0  0  0  0  0  0
   32.9991   -4.7804   -2.0498 O   0  0  0  0  0  0  0  0  0  0  0  0
   32.5850   -6.0674   -1.6389 C   0  0  0  0  0  0  0  0  0  0  0  0
   32.5257   -1.7419   -2.0846 C   0  0  0  0  0  0  0  0  0  0  0  0
   31.2531   -2.1729   -2.5865 C   0  0  0  0  0  0  0  0  0  0  0  0
   30.3125   -1.4235   -1.9651 C   0  0  0  0  0  0  0  0  0  0  0  0
   31.0110   -0.5439   -1.0766 C   0  0  0  0  0  0  0  0  0  0  0  0
   32.3620   -0.7587   -1.1468 N   0  0  0  0  0  0  0  0  0  0  0  0
   35.1498   -0.8012   -1.1229 N   0  0  0  0  0  0  0  0  0  0  0  0
   33.7571    3.2620    3.7311 C   0  0  0  0  0  0  0  0  0  0  0  0
   33.9690    2.7857    5.0314 C   0  0  0  0  0  0  0  0  0  0  0  0
   34.1548    1.4448    5.1487 O   0  0  0  0  0  0  0  0  0  0  0  0
   34.3781    0.8607    6.4159 C   0  0  0  0  0  0  0  0  0  0  0  0
   33.9721    3.6665    6.1127 C   0  0  0  0  0  0  0  0  0  0  0  0
   33.7704    5.0199    5.8881 C   0  0  0  0  0  0  0  0  0  0  0  0
   33.5637    5.5147    4.6092 C   0  0  0  0  0  0  0  0  0  0  0  0
   33.5552    4.6336    3.5284 C   0  0  0  0  0  0  0  0  0  0  0  0
   33.3691    5.0213    2.2393 O   0  0  0  0  0  0  0  0  0  0  0  0
   33.1736    6.3844    1.9217 C   0  0  0  0  0  0  0  0  0  0  0  0
   29.3067    0.4846   -0.3595 H   0  0  0  0  0  0  0  0  0  0  0  0
   29.2995    2.3269    1.4594 H   0  0  0  0  0  0  0  0  0  0  0  0
   31.1750    3.3832    3.0888 H   0  0  0  0  0  0  0  0  0  0  0  0
   36.3451    2.6979    3.6601 H   0  0  0  0  0  0  0  0  0  0  0  0
   38.2431    1.4728    2.1911 H   0  0  0  0  0  0  0  0  0  0  0  0
   38.2528   -1.5084   -2.0895 H   0  0  0  0  0  0  0  0  0  0  0  0
   36.3574   -2.8186   -3.4839 H   0  0  0  0  0  0  0  0  0  0  0  0
   34.0387   -1.3157   -7.1939 H   0  0  0  0  0  0  0  0  0  0  0  0
   35.0861   -0.1303   -6.3702 H   0  0  0  0  0  0  0  0  0  0  0  0
   35.7365   -1.7310   -6.8119 H   0  0  0  0  0  0  0  0  0  0  0  0
   34.3587   -3.6519   -6.9713 H   0  0  0  0  0  0  0  0  0  0  0  0
   33.6804   -5.9417   -6.4058 H   0  0  0  0  0  0  0  0  0  0  0  0
   33.0292   -6.5393   -4.1159 H   0  0  0  0  0  0  0  0  0  0  0  0
   32.3647   -5.9893   -0.5726 H   0  0  0  0  0  0  0  0  0  0  0  0
   31.6807   -6.3875   -2.1708 H   0  0  0  0  0  0  0  0  0  0  0  0
   33.3764   -6.8116   -1.7895 H   0  0  0  0  0  0  0  0  0  0  0  0
   31.1134   -2.9417   -3.3291 H   0  0  0  0  0  0  0  0  0  0  0  0
   29.2406   -1.4485   -2.0838 H   0  0  0  0  0  0  0  0  0  0  0  0
   34.4986   -0.2098    6.2398 H   0  0  0  0  0  0  0  0  0  0  0  0
   33.5267    1.0216    7.0883 H   0  0  0  0  0  0  0  0  0  0  0  0
   35.2889    1.2532    6.8843 H   0  0  0  0  0  0  0  0  0  0  0  0
   34.1307    3.3086    7.1212 H   0  0  0  0  0  0  0  0  0  0  0  0
   33.7751    5.7050    6.7288 H   0  0  0  0  0  0  0  0  0  0  0  0
   33.4120    6.5758    4.4631 H   0  0  0  0  0  0  0  0  0  0  0  0
   34.0376    6.9930    2.2148 H   0  0  0  0  0  0  0  0  0  0  0  0
   33.0546    6.4293    0.8376 H   0  0  0  0  0  0  0  0  0  0  0  0
   32.2705    6.7831    2.3998 H   0  0  0  0  0  0  0  0  0  0  0  0
   55.4857    0.0562   -0.1372 Fe  0  0  0  0  0  0  0  0  0  0  0  0
   58.8600    0.3312   -0.3615 C   0  0  0  0  0  0  0  0  0  0  0  0
   58.2235   -0.5178   -1.2435 C   0  0  0  0  0  0  0  0  0  0  0  0
   58.9126   -1.3059   -2.2209 C   0  0  0  0  0  0  0  0  0  0  0  0
   57.9652   -1.9892   -2.9050 C   0  0  0  0  0  0  0  0  0  0  0  0
   56.6977   -1.6011   -2.3579 C   0  0  0  0  0  0  0  0  0  0  0  0
   56.8712   -0.7216   -1.3237 N   0  0  0  0  0  0  0  0  0  0  0  0
   55.4744   -2.0311   -2.8571 C   0  0  0  0  0  0  0  0  0  0  0  0
   54.2583   -1.6204   -2.3335 C   0  0  0  0  0  0  0  0  0  0  0  0
   52.9908   -1.9815   -2.8940 C   0  0  0  0  0  0  0  0  0  0  0  0
   52.0425   -1.4041   -2.1188 C   0  0  0  0  0  0  0  0  0  0  0  0
   54.0816   -0.8185   -1.2313 N   0  0  0  0  0  0  0  0  0  0  0  0
   52.7315   -0.6963   -1.0849 C   0  0  0  0  0  0  0  0  0  0  0  0
   52.0742   -0.0596   -0.0249 C   0  0  0  0  0  0  0  0  0  0  0  0
   52.7563    0.5702    1.0240 C   0  0  0  0  0  0  0  0  0  0  0  0
   52.0939    1.1584    2.1464 C   0  0  0  0  0  0  0  0  0  0  0  0
   53.0574    1.7069    2.9239 C   0  0  0  0  0  0  0  0  0  0  0  0
   54.3052    1.4713    2.2615 C   0  0  0  0  0  0  0  0  0  0  0  0
   55.5195    1.9642    2.7112 C   0  0  0  0  0  0  0  0  0  0  0  0
   55.5399    2.7868    3.9521 C   0  0  0  0  0  0  0  0  0  0  0  0
   54.9841    4.0731    3.9594 C   0  0  0  0  0  0  0  0  0  0  0  0
   54.4502    4.4952    2.7836 O   0  0  0  0  0  0  0  0  0  0  0  0
   53.8562    5.7735    2.6828 C   0  0  0  0  0  0  0  0  0  0  0  0
   55.0100    4.8450    5.1206 C   0  0  0  0  0  0  0  0  0  0  0  0
   55.5870    4.3257    6.2696 C   0  0  0  0  0  0  0  0  0  0  0  0
   56.1419    3.0550    6.2862 C   0  0  0  0  0  0  0  0  0  0  0  0
   56.1214    2.2848    5.1237 C   0  0  0  0  0  0  0  0  0  0  0  0
   56.6333    1.0289    5.0402 O   0  0  0  0  0  0  0  0  0  0  0  0
   57.2310    0.4223    6.1677 C   0  0  0  0  0  0  0  0  0  0  0  0
   56.7188    1.7502    2.0425 C   0  0  0  0  0  0  0  0  0  0  0  0
   57.9704    2.3200    2.4486 C   0  0  0  0  0  0  0  0  0  0  0  0
   58.9035    1.8802    1.5719 C   0  0  0  0  0  0  0  0  0  0  0  0
   58.2207    1.0381    0.6358 C   0  0  0  0  0  0  0  0  0  0  0  0
   56.8817    0.9834    0.9216 N   0  0  0  0  0  0  0  0  0  0  0  0
   54.1048    0.7473    1.1097 N   0  0  0  0  0  0  0  0  0  0  0  0
   55.4652   -2.9527   -4.0264 C   0  0  0  0  0  0  0  0  0  0  0  0
   55.0406   -4.2797   -3.8764 C   0  0  0  0  0  0  0  0  0  0  0  0
   54.6672   -4.6449   -2.6225 O   0  0  0  0  0  0  0  0  0  0  0  0
   54.2012   -5.9543   -2.3659 C   0  0  0  0  0  0  0  0  0  0  0  0
   55.0290   -5.1442   -4.9707 C   0  0  0  0  0  0  0  0  0  0  0  0
   55.4347   -4.6765   -6.2114 C   0  0  0  0  0  0  0  0  0  0  0  0
   55.8539   -3.3662   -6.3849 C   0  0  0  0  0  0  0  0  0  0  0  0
   55.8712   -2.5028   -5.2900 C   0  0  0  0  0  0  0  0  0  0  0  0
   56.2549   -1.2010   -5.3619 O   0  0  0  0  0  0  0  0  0  0  0  0
   56.6862   -0.6478   -6.5885 C   0  0  0  0  0  0  0  0  0  0  0  0
   59.9369    0.4306   -0.4421 H   0  0  0  0  0  0  0  0  0  0  0  0
   59.9838   -1.3242   -2.3468 H   0  0  0  0  0  0  0  0  0  0  0  0
   58.0973   -2.6885   -3.7146 H   0  0  0  0  0  0  0  0  0  0  0  0
   52.8564   -2.5964   -3.7690 H   0  0  0  0  0  0  0  0  0  0  0  0
   50.9707   -1.4574   -2.2184 H   0  0  0  0  0  0  0  0  0  0  0  0
   51.0283    1.1466    2.3066 H   0  0  0  0  0  0  0  0  0  0  0  0
   52.9445    2.2345    3.8569 H   0  0  0  0  0  0  0  0  0  0  0  0
   54.5822    6.5709    2.8826 H   0  0  0  0  0  0  0  0  0  0  0  0
   53.5001    5.8622    1.6548 H   0  0  0  0  0  0  0  0  0  0  0  0
   53.0064    5.8768    3.3684 H   0  0  0  0  0  0  0  0  0  0  0  0
   54.5874    5.8407    5.1359 H   0  0  0  0  0  0  0  0  0  0  0  0
   55.6054    4.9256    7.1729 H   0  0  0  0  0  0  0  0  0  0  0  0
   56.5847    2.6754    7.1973 H   0  0  0  0  0  0  0  0  0  0  0  0
   57.5536   -0.5690    5.8438 H   0  0  0  0  0  0  0  0  0  0  0  0
   58.1036    0.9895    6.5141 H   0  0  0  0  0  0  0  0  0  0  0  0
   56.5166    0.3166    6.9932 H   0  0  0  0  0  0  0  0  0  0  0  0
   58.1018    2.9728    3.2964 H   0  0  0  0  0  0  0  0  0  0  0  0
   59.9616    2.0888    1.5483 H   0  0  0  0  0  0  0  0  0  0  0  0
   53.9527   -5.9852   -1.3035 H   0  0  0  0  0  0  0  0  0  0  0  0
   54.9731   -6.7043   -2.5772 H   0  0  0  0  0  0  0  0  0  0  0  0
   53.3034   -6.1829   -2.9528 H   0  0  0  0  0  0  0  0  0  0  0  0
   54.7077   -6.1717   -4.8643 H   0  0  0  0  0  0  0  0  0  0  0  0
   55.4231   -5.3482   -7.0628 H   0  0  0  0  0  0  0  0  0  0  0  0
   56.1614   -3.0274   -7.3652 H   0  0  0  0  0  0  0  0  0  0  0  0
   55.8912   -0.6756   -7.3437 H   0  0  0  0  0  0  0  0  0  0  0  0
   56.9446    0.3918   -6.3785 H   0  0  0  0  0  0  0  0  0  0  0  0
   57.5713   -1.1676   -6.9749 H   0  0  0  0  0  0  0  0  0  0  0  0
   38.5711    0.0512   -0.0001 C   0  0  0  0  0  0  0  0  0  0  0  0
   39.7898    0.0399    0.0030 C   0  0  0  0  0  0  0  0  0  0  0  0
   49.4508   -0.0716    0.0102 C   0  0  0  0  0  0  0  0  0  0  0  0
   50.6700   -0.0715   -0.0015 C   0  0  0  0  0  0  0  0  0  0  0  0
   44.6190   -0.0253    0.0098 Fe  0  0  0  0  0  0  0  0  0  0  0  0
   41.1938    0.0241    0.0047 C   0  0  0  0  0  0  0  0  0  0  0  0
   41.8625    0.1381    1.2294 C   0  0  0  0  0  0  0  0  0  0  0  0
   41.1800    0.2371    2.4812 C   0  0  0  0  0  0  0  0  0  0  0  0
   42.1352    0.3000    3.4396 C   0  0  0  0  0  0  0  0  0  0  0  0
   43.3972    0.2434    2.7666 C   0  0  0  0  0  0  0  0  0  0  0  0
   43.2136    0.1390    1.4093 N   0  0  0  0  0  0  0  0  0  0  0  0
   44.6187    0.2646    3.4245 C   0  0  0  0  0  0  0  0  0  0  0  0
   45.8407    0.1897    2.7713 C   0  0  0  0  0  0  0  0  0  0  0  0
   47.1018    0.2414    3.4460 C   0  0  0  0  0  0  0  0  0  0  0  0
   48.0578    0.1567    2.4901 C   0  0  0  0  0  0  0  0  0  0  0  0
   46.0259    0.0833    1.4145 N   0  0  0  0  0  0  0  0  0  0  0  0
   47.3774    0.0615    1.2372 C   0  0  0  0  0  0  0  0  0  0  0  0
   48.0469   -0.0631    0.0132 C   0  0  0  0  0  0  0  0  0  0  0  0
   47.3767   -0.1761   -1.2118 C   0  0  0  0  0  0  0  0  0  0  0  0
   48.0575   -0.2965   -2.4624 C   0  0  0  0  0  0  0  0  0  0  0  0
   47.1019   -0.3579   -3.4203 C   0  0  0  0  0  0  0  0  0  0  0  0
   45.8410   -0.2656   -2.7495 C   0  0  0  0  0  0  0  0  0  0  0  0
   44.6194   -0.3001   -3.4073 C   0  0  0  0  0  0  0  0  0  0  0  0
   44.6237   -0.3969   -4.8929 C   0  0  0  0  0  0  0  0  0  0  0  0
   44.1929   -1.5670   -5.5320 C   0  0  0  0  0  0  0  0  0  0  0  0
   43.7922   -2.5760   -4.7153 O   0  0  0  0  0  0  0  0  0  0  0  0
   43.3318   -3.7973   -5.2573 C   0  0  0  0  0  0  0  0  0  0  0  0
   44.2038   -1.6540   -6.9238 C   0  0  0  0  0  0  0  0  0  0  0  0
   44.6394   -0.5693   -7.6700 C   0  0  0  0  0  0  0  0  0  0  0  0
   45.0673    0.5998   -7.0594 C   0  0  0  0  0  0  0  0  0  0  0  0
   45.0625    0.6857   -5.6676 C   0  0  0  0  0  0  0  0  0  0  0  0
   45.4552    1.7875   -4.9774 O   0  0  0  0  0  0  0  0  0  0  0  0
   45.9334    2.9295   -5.6590 C   0  0  0  0  0  0  0  0  0  0  0  0
   43.3967   -0.2438   -2.7533 C   0  0  0  0  0  0  0  0  0  0  0  0
   42.1352   -0.2654   -3.4292 C   0  0  0  0  0  0  0  0  0  0  0  0
   41.1794   -0.1836   -2.4727 C   0  0  0  0  0  0  0  0  0  0  0  0
   41.8615   -0.1054   -1.2192 C   0  0  0  0  0  0  0  0  0  0  0  0
   43.2125   -0.1376   -1.3962 N   0  0  0  0  0  0  0  0  0  0  0  0
   46.0258   -0.1605   -1.3926 N   0  0  0  0  0  0  0  0  0  0  0  0
   44.6176    0.3691    4.9098 C   0  0  0  0  0  0  0  0  0  0  0  0
   44.9994   -0.7274    5.6946 C   0  0  0  0  0  0  0  0  0  0  0  0
   45.3502   -1.8493    5.0142 O   0  0  0  0  0  0  0  0  0  0  0  0
   45.7541   -3.0127    5.7077 C   0  0  0  0  0  0  0  0  0  0  0  0
   44.9921   -0.6339    7.0859 C   0  0  0  0  0  0  0  0  0  0  0  0
   44.6095    0.5565    7.6855 C   0  0  0  0  0  0  0  0  0  0  0  0
   44.2307    1.6553    6.9290 C   0  0  0  0  0  0  0  0  0  0  0  0
   44.2314    1.5606    5.5376 C   0  0  0  0  0  0  0  0  0  0  0  0
   43.8827    2.5803    4.7104 O   0  0  0  0  0  0  0  0  0  0  0  0
   43.4650    3.8224    5.2395 C   0  0  0  0  0  0  0  0  0  0  0  0
   40.1086    0.2448    2.5985 H   0  0  0  0  0  0  0  0  0  0  0  0
   42.0074    0.3744    4.5071 H   0  0  0  0  0  0  0  0  0  0  0  0
   47.2283    0.3304    4.5125 H   0  0  0  0  0  0  0  0  0  0  0  0
   49.1287    0.1527    2.6099 H   0  0  0  0  0  0  0  0  0  0  0  0
   49.1283   -0.3245   -2.5800 H   0  0  0  0  0  0  0  0  0  0  0  0
   47.2293   -0.4565   -4.4858 H   0  0  0  0  0  0  0  0  0  0  0  0
   42.4465   -3.6486   -5.8875 H   0  0  0  0  0  0  0  0  0  0  0  0
   43.0641   -4.4254   -4.4058 H   0  0  0  0  0  0  0  0  0  0  0  0
   44.1133   -4.2972   -5.8423 H   0  0  0  0  0  0  0  0  0  0  0  0
   43.8778   -2.5543   -7.4271 H   0  0  0  0  0  0  0  0  0  0  0  0
   44.6457   -0.6368   -8.7523 H   0  0  0  0  0  0  0  0  0  0  0  0
   45.4001    1.4311   -7.6664 H   0  0  0  0  0  0  0  0  0  0  0  0
   46.1936    3.6562   -4.8872 H   0  0  0  0  0  0  0  0  0  0  0  0
   45.1646    3.3584   -6.3132 H   0  0  0  0  0  0  0  0  0  0  0  0
   46.8265    2.6984   -6.2520 H   0  0  0  0  0  0  0  0  0  0  0  0
   42.0080   -0.3324   -4.4972 H   0  0  0  0  0  0  0  0  0  0  0  0
   40.1083   -0.1661   -2.5924 H   0  0  0  0  0  0  0  0  0  0  0  0
   44.9520   -3.3965    6.3497 H   0  0  0  0  0  0  0  0  0  0  0  0
   45.9878   -3.7556    4.9429 H   0  0  0  0  0  0  0  0  0  0  0  0
   46.6481   -2.8279    6.3155 H   0  0  0  0  0  0  0  0  0  0  0  0
   45.2802   -1.4758    7.7011 H   0  0  0  0  0  0  0  0  0  0  0  0
   44.6062    0.6296    8.7675 H   0  0  0  0  0  0  0  0  0  0  0  0
   43.9387    2.5718    7.4238 H   0  0  0  0  0  0  0  0  0  0  0  0
   44.2586    4.2945    5.8312 H   0  0  0  0  0  0  0  0  0  0  0  0
   42.5668    3.7131    5.8593 H   0  0  0  0  0  0  0  0  0  0  0  0
   43.2332    4.4552    4.3809 H   0  0  0  0  0  0  0  0  0  0  0  0
  2  3  4  0  0  0  0
  3  4  4  0  0  0  0
  4  5  2  0  0  0  0
  5  6  4  0  0  0  0
  1  7  1  0  0  0  0
  3  7  4  0  0  0  0
  6  7  4  0  0  0  0
  6  8  4  0  0  0  0
  8  9  4  0  0  0  0
  9 10  4  0  0  0  0
 10 11  2  0  0  0  0
  1 12  1  0  0  0  0
  9 12  4  0  0  0  0
 11 13  4  0  0  0  0
 12 13  4  0  0  0  0
 13 14  4  0  0  0  0
 14 15  4  0  0  0  0
 15 16  4  0  0  0  0
 16 17  2  0  0  0  0
 17 18  4  0  0  0  0
 18 19  4  0  0  0  0
 19 20  1  0  0  0  0
 20 21  4  0  0  0  0
 21 22  1  0  0  0  0
 22 23  1  0  0  0  0
 21 24  4  0  0  0  0
 24 25  4  0  0  0  0
 25 26  4  0  0  0  0
 20 27  4  0  0  0  0
 26 27  4  0  0  0  0
 27 28  1  0  0  0  0
 28 29  1  0  0  0  0
 19 30  4  0  0  0  0
 30 31  4  0  0  0  0
 31 32  2  0  0  0  0
  2 33  4  0  0  0  0
 32 33  4  0  0  0  0
  1 34  1  0  0  0  0
 30 34  4  0  0  0  0
 33 34  4  0  0  0  0
  1 35  1  0  0  0  0
 15 35  4  0  0  0  0
 18 35  4  0  0  0  0
  8 36  1  0  0  0  0
 36 37  4  0  0  0  0
 37 38  1  0  0  0  0
 38 39  1  0  0  0  0
 37 40  4  0  0  0  0
 40 41  4  0  0  0  0
 41 42  4  0  0  0  0
 36 43  4  0  0  0  0
 42 43  4  0  0  0  0
 43 44  1  0  0  0  0
 44 45  1  0  0  0  0
  2 46  1  0  0  0  0
  4 47  1  0  0  0  0
  5 48  1  0  0  0  0
 10 49  1  0  0  0  0
 11 50  1  0  0  0  0
 16 51  1  0  0  0  0
 17 52  1  0  0  0  0
 23 53  1  0  0  0  0
 23 54  1  0  0  0  0
 23 55  1  0  0  0  0
 24 56  1  0  0  0  0
 25 57  1  0  0  0  0
 26 58  1  0  0  0  0
 29 59  1  0  0  0  0
 29 60  1  0  0  0  0
 29 61  1  0  0  0  0
 31 62  1  0  0  0  0
 32 63  1  0  0  0  0
 39 64  1  0  0  0  0
 39 65  1  0  0  0  0
 39 66  1  0  0  0  0
 40 67  1  0  0  0  0
 41 68  1  0  0  0  0
 42 69  1  0  0  0  0
 45 70  1  0  0  0  0
 45 71  1  0  0  0  0
 45 72  1  0  0  0  0
 74 75  4  0  0  0  0
 75 76  4  0  0  0  0
 76 77  2  0  0  0  0
 77 78  4  0  0  0  0
 73 79  1  0  0  0  0
 75 79  4  0  0  0  0
 78 79  4  0  0  0  0
 78 80  4  0  0  0  0
 80 81  4  0  0  0  0
 81 82  4  0  0  0  0
 82 83  2  0  0  0  0
 73 84  1  0  0  0  0
 81 84  4  0  0  0  0
 83 85  4  0  0  0  0
 84 85  4  0  0  0  0
 85 86  4  0  0  0  0
 86 87  4  0  0  0  0
 87 88  4  0  0  0  0
 88 89  2  0  0  0  0
 89 90  4  0  0  0  0
 90 91  4  0  0  0  0
 91 92  1  0  0  0  0
 92 93  4  0  0  0  0
 93 94  1  0  0  0  0
 94 95  1  0  0  0  0
 93 96  4  0  0  0  0
 96 97  4  0  0  0  0
 97 98  4  0  0  0  0
 92 99  4  0  0  0  0
 98 99  4  0  0  0  0
 99100  1  0  0  0  0
100101  1  0  0  0  0
 91102  4  0  0  0  0
102103  4  0  0  0  0
103104  2  0  0  0  0
 74105  4  0  0  0  0
104105  4  0  0  0  0
 73106  1  0  0  0  0
102106  4  0  0  0  0
105106  4  0  0  0  0
 73107  1  0  0  0  0
 87107  4  0  0  0  0
 90107  4  0  0  0  0
 80108  1  0  0  0  0
108109  4  0  0  0  0
109110  1  0  0  0  0
110111  1  0  0  0  0
109112  4  0  0  0  0
112113  4  0  0  0  0
113114  4  0  0  0  0
108115  4  0  0  0  0
114115  4  0  0  0  0
115116  1  0  0  0  0
116117  1  0  0  0  0
 74118  1  0  0  0  0
 76119  1  0  0  0  0
 77120  1  0  0  0  0
 82121  1  0  0  0  0
 83122  1  0  0  0  0
 88123  1  0  0  0  0
 89124  1  0  0  0  0
 95125  1  0  0  0  0
 95126  1  0  0  0  0
 95127  1  0  0  0  0
 96128  1  0  0  0  0
 97129  1  0  0  0  0
 98130  1  0  0  0  0
101131  1  0  0  0  0
101132  1  0  0  0  0
101133  1  0  0  0  0
103134  1  0  0  0  0
104135  1  0  0  0  0
111136  1  0  0  0  0
111137  1  0  0  0  0
111138  1  0  0  0  0
112139  1  0  0  0  0
113140  1  0  0  0  0
114141  1  0  0  0  0
117142  1  0  0  0  0
117143  1  0  0  0  0
117144  1  0  0  0  0
 14145  1  0  0  0  0
145146  3  0  0  0  0
 86148  1  0  0  0  0
147148  3  0  0  0  0
146150  1  0  0  0  0
150151  4  0  0  0  0
151152  4  0  0  0  0
152153  2  0  0  0  0
153154  4  0  0  0  0
149155  1  0  0  0  0
151155  4  0  0  0  0
154155  4  0  0  0  0
154156  4  0  0  0  0
156157  4  0  0  0  0
157158  4  0  0  0  0
158159  2  0  0  0  0
149160  1  0  0  0  0
157160  4  0  0  0  0
159161  4  0  0  0  0
160161  4  0  0  0  0
147162  1  0  0  0  0
161162  4  0  0  0  0
162163  4  0  0  0  0
163164  4  0  0  0  0
164165  2  0  0  0  0
165166  4  0  0  0  0
166167  4  0  0  0  0
167168  1  0  0  0  0
168169  4  0  0  0  0
169170  1  0  0  0  0
170171  1  0  0  0  0
169172  4  0  0  0  0
172173  4  0  0  0  0
173174  4  0  0  0  0
168175  4  0  0  0  0
174175  4  0  0  0  0
175176  1  0  0  0  0
176177  1  0  0  0  0
167178  4  0  0  0  0
178179  4  0  0  0  0
179180  2  0  0  0  0
150181  4  0  0  0  0
180181  4  0  0  0  0
149182  1  0  0  0  0
178182  4  0  0  0  0
181182  4  0  0  0  0
149183  1  0  0  0  0
163183  4  0  0  0  0
166183  4  0  0  0  0
156184  1  0  0  0  0
184185  4  0  0  0  0
185186  1  0  0  0  0
186187  1  0  0  0  0
185188  4  0  0  0  0
188189  4  0  0  0  0
189190  4  0  0  0  0
184191  4  0  0  0  0
190191  4  0  0  0  0
191192  1  0  0  0  0
192193  1  0  0  0  0
152194  1  0  0  0  0
153195  1  0  0  0  0
158196  1  0  0  0  0
159197  1  0  0  0  0
164198  1  0  0  0  0
165199  1  0  0  0  0
171200  1  0  0  0  0
171201  1  0  0  0  0
171202  1  0  0  0  0
172203  1  0  0  0  0
173204  1  0  0  0  0
174205  1  0  0  0  0
177206  1  0  0  0  0
177207  1  0  0  0  0
177208  1  0  0  0  0
179209  1  0  0  0  0
180210  1  0  0  0  0
187211  1  0  0  0  0
187212  1  0  0  0  0
187213  1  0  0  0  0
188214  1  0  0  0  0
189215  1  0  0  0  0
190216  1  0  0  0  0
193217  1  0  0  0  0
193218  1  0  0  0  0
193219  1  0  0  0  0
M  END
