184

C 13.353129 -0.015918 -0.014842
C 14.081085 1.359690 0.081134
C 13.473330 2.594215 0.062685
C 14.495689 3.563247 0.234923
C 15.692900 2.885570 0.360869
N 15.433627 1.546251 0.211508
C 17.114457 3.522183 0.652845
C 17.151231 4.936700 1.085386
C 17.438605 5.948474 0.170732
C 17.450149 7.255959 0.624450
N 17.196097 7.620459 1.903335
C 16.921893 6.611949 2.764351
C 16.886477 5.274176 2.411076
C 18.245667 2.773704 0.553831
C 19.550007 3.310835 0.884538
C 20.452872 2.351438 0.718697
N 18.442523 1.470168 0.182635
C 19.774197 1.154870 0.261796
C 20.442120 0.000049 -0.000916
C 19.662656 -1.278469 -0.525041
C 20.197207 -2.311498 -1.269707
C 19.171741 -3.268984 -1.470252
C 18.037536 -2.788755 -0.850939
N 18.331308 -1.552196 -0.326708
C 16.631632 -3.517576 -0.773586
C 16.607121 -4.988221 -0.917885
C 17.003739 -5.803300 0.139903
C 16.978451 -7.174811 -0.046013
N 16.594131 -7.781534 -1.193971
C 16.216195 -6.959559 -2.200898
C 16.207181 -5.578128 -2.116068
C 15.505222 -2.790101 -0.558273
C 14.186009 -3.389835 -0.459307
C 13.299581 -2.418543 -0.261753
C 14.018348 -1.169106 -0.213949
N 15.338422 -1.444392 -0.388150
H 12.276420 -0.029986 0.105119
H 12.415080 2.776089 -0.045138
H 14.366831 4.633889 0.286996
H 16.133881 0.808656 0.202736
H 17.650834 5.705445 -0.864848
H 17.672615 8.072033 -0.055149
H 16.722983 6.915883 3.786827
H 16.661979 4.501486 3.138433
H 19.763608 4.309463 1.221585
H 21.506490 2.466891 0.896382
H 21.215750 -2.378469 -1.620889
H 19.254282 -4.205151 -2.001637
H 17.651598 -0.920945 0.089493
H 17.321008 -5.365428 1.080165
H 17.278672 -7.843389 0.754180
H 15.908306 -7.456568 -3.114931
H 15.894554 -4.960836 -2.951524
H 13.957231 -4.437963 -0.528808
H 12.237520 -2.537388 -0.145805
C 66.583674 0.020622 -0.005982
C 65.855718 -1.246181 -0.550701
C 66.463473 -2.335161 -1.132521
C 65.441114 -3.275468 -1.423232
C 64.243903 -2.730731 -1.000893
N 64.503177 -1.471736 -0.520252
C 62.822346 -3.430375 -1.032914
C 62.785573 -4.885914 -1.296263
C 62.498198 -5.366414 -2.572743
C 62.486654 -6.736506 -2.768247
N 62.740707 -7.646266 -1.798327
C 63.014911 -7.144101 -0.571024
C 63.050326 -5.793087 -0.272359
C 61.691137 -2.719666 -0.778124
C 60.386796 -3.348614 -0.730151
C 59.483931 -2.419802 -0.438167
N 61.494281 -1.390879 -0.511071
C 60.162606 -1.146850 -0.296293
C 59.494683 0.000049 -0.000916
C 60.274148 1.376639 0.118732
C 59.739596 2.636011 -0.070104
C 60.765062 3.579019 0.190156
C 61.899268 2.868470 0.520746
N 61.605496 1.529131 0.420409
C 63.305172 3.480927 0.923313
C 63.329683 4.854346 1.468602
C 62.933064 5.094437 2.782233
C 62.958352 6.398790 3.245123
N 63.342672 7.463908 2.502530
C 63.720608 7.194392 1.230954
C 63.729622 5.927518 0.673660
C 64.431581 2.735624 0.781528
C 65.750794 3.223430 1.144185
C 66.637222 2.269520 0.874943
C 65.918455 1.136940 0.345189
N 64.598382 1.461440 0.316415
H 67.660383 -0.021815 0.107101
H 67.521724 -2.447454 -1.311669
H 65.569973 -4.251064 -1.867302
H 63.802923 -0.812034 -0.190226
H 62.285969 -4.676071 -3.382012
H 62.264189 -7.150694 -3.746142
H 63.213821 -7.882583 0.198703
H 63.274825 -5.439339 0.728121
H 60.173195 -4.390713 -0.887912
H 58.430313 -2.603815 -0.333091
H 58.721053 2.856389 -0.351614
H 60.682521 4.654601 0.146551
H 62.285206 0.777359 0.501274
H 62.615796 4.274545 3.417530
H 62.658132 6.626629 4.262668
H 64.028498 8.054841 0.646058
H 64.042250 5.761420 -0.351742
H 65.979572 4.186995 1.562451
H 67.699283 2.322062 1.032447
C 23.457099 -0.004258 0.004665
C 24.822086 -0.017934 -0.009150
C 26.586062 -0.005748 -0.015993
C 27.243579 -0.009081 -0.026135
C 28.823213 0.005404 -0.034317
C 29.933527 0.005344 -0.025030
C 31.516746 0.029355 -0.000489
C 32.660826 0.032838 0.013110
C 34.003069 0.017687 0.016212
C 35.123776 -0.004258 0.004665
C 44.694425 -0.004258 0.004665
C 46.059413 -0.017934 -0.009150
C 47.823388 -0.005748 -0.015993
C 48.480906 -0.009081 -0.026135
C 50.060539 0.005404 -0.034317
C 51.170853 0.005344 -0.025030
C 52.754072 0.029355 -0.000489
C 53.898152 0.032838 0.013110
C 55.240395 0.017687 0.016212
C 56.361102 -0.004258 0.004665
C 36.388637 0.001476 0.000138
C 37.184417 -1.244023 0.571249
C 36.684023 -2.239381 1.383768
C 37.722224 -3.185224 1.584513
C 38.825708 -2.734521 0.890935
N 38.510482 -1.516957 0.343624
C 40.214279 -3.480024 0.744949
C 40.206923 -4.956698 0.823050
C 40.624575 -5.607586 1.983196
C 40.583281 -6.990985 2.009126
N 40.158768 -7.759268 0.978526
C 39.759386 -7.094354 -0.131395
C 39.762712 -5.715539 -0.257293
C 41.349865 -2.770728 0.515721
C 42.636881 -3.406814 0.321824
C 43.545464 -2.458979 0.117838
N 41.558081 -1.424624 0.404042
C 42.883231 -1.171616 0.170704
C 43.546944 0.001476 0.000138
C 42.749824 1.367955 0.069149
C 43.242825 2.591325 0.472742
C 42.204988 3.543351 0.303170
C 41.108915 2.869043 -0.191644
N 41.427321 1.536004 -0.258290
C 39.723732 3.506023 -0.611739
C 39.735493 4.899578 -1.105029
C 39.339560 5.948821 -0.277821
C 39.382508 7.235303 -0.786282
N 39.788479 7.545352 -2.039387
C 40.167362 6.502213 -2.814744
C 40.161297 5.181348 -2.401089
C 38.587054 2.764456 -0.556298
C 37.300888 3.283010 -0.974402
C 36.391622 2.328714 -0.808210
C 37.052749 1.153764 -0.277484
N 38.377349 1.475447 -0.153374
H 35.680617 -2.291641 1.773586
H 37.664924 -4.098762 2.153967
H 39.169375 -0.892060 -0.113810
H 40.974343 -5.035027 2.835867
H 40.900827 -7.533954 2.892547
H 39.422114 -7.720640 -0.951200
H 39.431687 -5.230428 -1.168725
H 42.834068 -4.464063 0.329184
H 44.590470 -2.637247 -0.058526
H 44.242512 2.783362 0.830384
H 42.257743 4.602939 0.502684
H 40.773306 0.786915 -0.465477
H 39.004755 5.750337 0.734442
H 39.080422 8.079044 -0.174817
H 40.489429 6.762567 -3.817208
H 40.475499 4.380299 -3.061245
H 37.104647 4.266837 -1.362099
H 35.346537 2.429472 -1.037470
