 xtb: 6.5.1 (b24c23e)
          07302202533D

248287  0     0  0            999 V2000
   42.9502   -0.0193   -0.1263 Co  0  0  0  0  0  0  0  0  0  0  0  0
   39.5863   -0.0753   -0.3941 C   0  0  0  0  0  0  0  0  0  0  0  0
   40.2723   -1.2651   -0.5031 C   0  0  0  0  0  0  0  0  0  0  0  0
   39.6320   -2.5298   -0.7004 C   0  0  0  0  0  0  0  0  0  0  0  0
   40.5811   -3.4773   -0.5185 C   0  0  0  0  0  0  0  0  0  0  0  0
   41.8067   -2.7897   -0.2345 C   0  0  0  0  0  0  0  0  0  0  0  0
   41.6136   -1.4320   -0.2627 N   0  0  0  0  0  0  0  0  0  0  0  0
   42.9841   -3.4214    0.1428 C   0  0  0  0  0  0  0  0  0  0  0  0
   42.9951   -4.8973    0.2926 C   0  0  0  0  0  0  0  0  0  0  0  0
   42.7972   -5.7250   -0.8121 C   0  0  0  0  0  0  0  0  0  0  0  0
   42.8076   -7.1046   -0.6729 C   0  0  0  0  0  0  0  0  0  0  0  0
   43.0123   -7.6709    0.5830 C   0  0  0  0  0  0  0  0  0  0  0  0
   43.0261   -9.0169    0.7647 O   0  0  0  0  0  0  0  0  0  0  0  0
   43.2112   -6.8541    1.6944 C   0  0  0  0  0  0  0  0  0  0  0  0
   43.2054   -5.4784    1.5448 C   0  0  0  0  0  0  0  0  0  0  0  0
   44.1577   -2.7164    0.3592 C   0  0  0  0  0  0  0  0  0  0  0  0
   45.4135   -3.3388    0.6544 C   0  0  0  0  0  0  0  0  0  0  0  0
   46.3605   -2.3758    0.5559 C   0  0  0  0  0  0  0  0  0  0  0  0
   44.3319   -1.3690    0.1334 N   0  0  0  0  0  0  0  0  0  0  0  0
   45.6814   -1.1669    0.2122 C   0  0  0  0  0  0  0  0  0  0  0  0
   46.3432    0.0262   -0.0853 C   0  0  0  0  0  0  0  0  0  0  0  0
   45.6511    1.2135   -0.3304 C   0  0  0  0  0  0  0  0  0  0  0  0
   46.2986    2.4565   -0.6065 C   0  0  0  0  0  0  0  0  0  0  0  0
   45.3341    3.4078   -0.5926 C   0  0  0  0  0  0  0  0  0  0  0  0
   44.0991    2.7407   -0.3107 C   0  0  0  0  0  0  0  0  0  0  0  0
   44.2999    1.3839   -0.2041 N   0  0  0  0  0  0  0  0  0  0  0  0
   42.8923    3.3952   -0.1104 C   0  0  0  0  0  0  0  0  0  0  0  0
   42.8736    4.8760   -0.0940 C   0  0  0  0  0  0  0  0  0  0  0  0
   43.6261    5.5847    0.8459 C   0  0  0  0  0  0  0  0  0  0  0  0
   43.6113    6.9679    0.8681 C   0  0  0  0  0  0  0  0  0  0  0  0
   42.8448    7.6662   -0.0633 C   0  0  0  0  0  0  0  0  0  0  0  0
   42.8560    9.0233   -0.0162 O   0  0  0  0  0  0  0  0  0  0  0  0
   42.0947    6.9733   -1.0108 C   0  0  0  0  0  0  0  0  0  0  0  0
   42.1095    5.5873   -1.0199 C   0  0  0  0  0  0  0  0  0  0  0  0
   41.7007    2.6994    0.0395 C   0  0  0  0  0  0  0  0  0  0  0  0
   40.4237    3.3234    0.2291 C   0  0  0  0  0  0  0  0  0  0  0  0
   39.4906    2.3499    0.1097 C   0  0  0  0  0  0  0  0  0  0  0  0
   40.1994    1.1286   -0.1214 C   0  0  0  0  0  0  0  0  0  0  0  0
   41.5545    1.3424   -0.1064 N   0  0  0  0  0  0  0  0  0  0  0  0
   38.5073   -0.0927   -0.4924 H   0  0  0  0  0  0  0  0  0  0  0  0
   38.5836   -2.6559   -0.9198 H   0  0  0  0  0  0  0  0  0  0  0  0
   40.4703   -4.5488   -0.5552 H   0  0  0  0  0  0  0  0  0  0  0  0
   42.6507   -5.2855   -1.7925 H   0  0  0  0  0  0  0  0  0  0  0  0
   42.6588   -7.7445   -1.5361 H   0  0  0  0  0  0  0  0  0  0  0  0
   42.8773   -9.4859   -0.0673 H   0  0  0  0  0  0  0  0  0  0  0  0
   43.3672   -7.3085    2.6650 H   0  0  0  0  0  0  0  0  0  0  0  0
   43.3503   -4.8421    2.4106 H   0  0  0  0  0  0  0  0  0  0  0  0
   45.5448   -4.3851    0.8771 H   0  0  0  0  0  0  0  0  0  0  0  0
   47.4267   -2.4613    0.6910 H   0  0  0  0  0  0  0  0  0  0  0  0
   47.3573    2.5707   -0.7750 H   0  0  0  0  0  0  0  0  0  0  0  0
   45.4370    4.4670   -0.7634 H   0  0  0  0  0  0  0  0  0  0  0  0
   44.2142    5.0415    1.5771 H   0  0  0  0  0  0  0  0  0  0  0  0
   44.1873    7.5199    1.6005 H   0  0  0  0  0  0  0  0  0  0  0  0
   42.2919    9.4042   -0.7026 H   0  0  0  0  0  0  0  0  0  0  0  0
   41.5047    7.5209   -1.7379 H   0  0  0  0  0  0  0  0  0  0  0  0
   41.5368    5.0501   -1.7677 H   0  0  0  0  0  0  0  0  0  0  0  0
   40.2739    4.3733    0.4223 H   0  0  0  0  0  0  0  0  0  0  0  0
   38.4171    2.4304    0.1739 H   0  0  0  0  0  0  0  0  0  0  0  0
   90.8001   -0.0156   -0.0712 Co  0  0  0  0  0  0  0  0  0  0  0  0
   94.1599    0.0190   -0.3480 C   0  0  0  0  0  0  0  0  0  0  0  0
   93.4652    1.1704   -0.6504 C   0  0  0  0  0  0  0  0  0  0  0  0
   94.0909    2.3907   -1.0600 C   0  0  0  0  0  0  0  0  0  0  0  0
   93.1338    3.3475   -1.0258 C   0  0  0  0  0  0  0  0  0  0  0  0
   91.9195    2.7070   -0.6125 C   0  0  0  0  0  0  0  0  0  0  0  0
   92.1245    1.3639   -0.4281 N   0  0  0  0  0  0  0  0  0  0  0  0
   90.7498    3.3848   -0.2910 C   0  0  0  0  0  0  0  0  0  0  0  0
   90.7327    4.8660   -0.3642 C   0  0  0  0  0  0  0  0  0  0  0  0
   90.8822    5.5168   -1.5885 C   0  0  0  0  0  0  0  0  0  0  0  0
   90.8656    6.9014   -1.6599 C   0  0  0  0  0  0  0  0  0  0  0  0
   90.7044    7.6514   -0.4973 C   0  0  0  0  0  0  0  0  0  0  0  0
   90.6865    9.0090   -0.5211 O   0  0  0  0  0  0  0  0  0  0  0  0
   90.5554    7.0123    0.7322 C   0  0  0  0  0  0  0  0  0  0  0  0
   90.5663    5.6299    0.7929 C   0  0  0  0  0  0  0  0  0  0  0  0
   89.5936    2.7164    0.0801 C   0  0  0  0  0  0  0  0  0  0  0  0
   88.3472    3.3673    0.3532 C   0  0  0  0  0  0  0  0  0  0  0  0
   87.4050    2.3965    0.4218 C   0  0  0  0  0  0  0  0  0  0  0  0
   89.4198    1.3504    0.0372 N   0  0  0  0  0  0  0  0  0  0  0  0
   88.0776    1.1565    0.1967 C   0  0  0  0  0  0  0  0  0  0  0  0
   87.4122   -0.0626    0.0327 C   0  0  0  0  0  0  0  0  0  0  0  0
   88.1058   -1.2669   -0.1176 C   0  0  0  0  0  0  0  0  0  0  0  0
   87.4629   -2.5332   -0.2712 C   0  0  0  0  0  0  0  0  0  0  0  0
   88.4313   -3.4752   -0.1649 C   0  0  0  0  0  0  0  0  0  0  0  0
   89.6632   -2.7792    0.0537 C   0  0  0  0  0  0  0  0  0  0  0  0
   89.4567   -1.4190    0.0194 N   0  0  0  0  0  0  0  0  0  0  0  0
   90.8693   -3.3995    0.3462 C   0  0  0  0  0  0  0  0  0  0  0  0
   90.8947   -4.8671    0.5366 C   0  0  0  0  0  0  0  0  0  0  0  0
   90.1098   -5.4680    1.5244 C   0  0  0  0  0  0  0  0  0  0  0  0
   90.1316   -6.8385    1.7108 C   0  0  0  0  0  0  0  0  0  0  0  0
   90.9381   -7.6340    0.8986 C   0  0  0  0  0  0  0  0  0  0  0  0
   90.9330   -8.9756    1.1060 O   0  0  0  0  0  0  0  0  0  0  0  0
   91.7208   -7.0501   -0.0948 C   0  0  0  0  0  0  0  0  0  0  0  0
   91.6989   -5.6751   -0.2684 C   0  0  0  0  0  0  0  0  0  0  0  0
   92.0553   -2.6815    0.4386 C   0  0  0  0  0  0  0  0  0  0  0  0
   93.3307   -3.2644    0.7376 C   0  0  0  0  0  0  0  0  0  0  0  0
   94.2615   -2.3072    0.5106 C   0  0  0  0  0  0  0  0  0  0  0  0
   93.5520   -1.1345    0.1000 C   0  0  0  0  0  0  0  0  0  0  0  0
   92.1981   -1.3554    0.1186 N   0  0  0  0  0  0  0  0  0  0  0  0
   95.2394    0.0294   -0.4418 H   0  0  0  0  0  0  0  0  0  0  0  0
   95.1354    2.4878   -1.3103 H   0  0  0  0  0  0  0  0  0  0  0  0
   93.2335    4.3992   -1.2399 H   0  0  0  0  0  0  0  0  0  0  0  0
   90.9950    4.9337   -2.4957 H   0  0  0  0  0  0  0  0  0  0  0  0
   90.9760    7.4030   -2.6153 H   0  0  0  0  0  0  0  0  0  0  0  0
   90.7978    9.3473   -1.4197 H   0  0  0  0  0  0  0  0  0  0  0  0
   90.4337    7.6085    1.6281 H   0  0  0  0  0  0  0  0  0  0  0  0
   90.4612    5.1322    1.7503 H   0  0  0  0  0  0  0  0  0  0  0  0
   88.2166    4.4328    0.4488 H   0  0  0  0  0  0  0  0  0  0  0  0
   86.3453    2.4956    0.5942 H   0  0  0  0  0  0  0  0  0  0  0  0
   86.4045   -2.6676   -0.4269 H   0  0  0  0  0  0  0  0  0  0  0  0
   88.3319   -4.5464   -0.2318 H   0  0  0  0  0  0  0  0  0  0  0  0
   89.4916   -4.8482    2.1643 H   0  0  0  0  0  0  0  0  0  0  0  0
   89.5308   -7.3059    2.4811 H   0  0  0  0  0  0  0  0  0  0  0  0
   91.5257   -9.4299    0.4922 H   0  0  0  0  0  0  0  0  0  0  0  0
   92.3420   -7.6736   -0.7290 H   0  0  0  0  0  0  0  0  0  0  0  0
   92.2971   -5.2243   -1.0525 H   0  0  0  0  0  0  0  0  0  0  0  0
   93.4817   -4.2777    1.0728 H   0  0  0  0  0  0  0  0  0  0  0  0
   95.3337   -2.3702    0.6080 H   0  0  0  0  0  0  0  0  0  0  0  0
   51.5448    0.0541   -0.1191 C   0  0  0  0  0  0  0  0  0  0  0  0
   50.3164    0.0517   -0.1207 C   0  0  0  0  0  0  0  0  0  0  0  0
   48.9714    0.0457   -0.1149 C   0  0  0  0  0  0  0  0  0  0  0  0
   47.7478    0.0384   -0.1042 C   0  0  0  0  0  0  0  0  0  0  0  0
   52.8894    0.0551   -0.1134 C   0  0  0  0  0  0  0  0  0  0  0  0
   54.1134    0.0530   -0.1046 C   0  0  0  0  0  0  0  0  0  0  0  0
   67.5010   -0.0587    0.0416 C   0  0  0  0  0  0  0  0  0  0  0  0
   66.2712   -0.0513    0.0360 C   0  0  0  0  0  0  0  0  0  0  0  0
   64.9290   -0.0420    0.0233 C   0  0  0  0  0  0  0  0  0  0  0  0
   63.7040   -0.0306    0.0067 C   0  0  0  0  0  0  0  0  0  0  0  0
   68.8432   -0.0598    0.0408 C   0  0  0  0  0  0  0  0  0  0  0  0
   70.0685   -0.0588    0.0334 C   0  0  0  0  0  0  0  0  0  0  0  0
   83.4438   -0.0929    0.0391 C   0  0  0  0  0  0  0  0  0  0  0  0
   82.2140   -0.0951    0.0350 C   0  0  0  0  0  0  0  0  0  0  0  0
   80.8721   -0.0919    0.0288 C   0  0  0  0  0  0  0  0  0  0  0  0
   79.6468   -0.0863    0.0166 C   0  0  0  0  0  0  0  0  0  0  0  0
   84.7860   -0.0872    0.0396 C   0  0  0  0  0  0  0  0  0  0  0  0
   86.0111   -0.0787    0.0380 C   0  0  0  0  0  0  0  0  0  0  0  0
   58.9102    0.0191   -0.0605 Co  0  0  0  0  0  0  0  0  0  0  0  0
   55.5166    0.0473   -0.0959 C   0  0  0  0  0  0  0  0  0  0  0  0
   56.1970    0.9017    0.7761 C   0  0  0  0  0  0  0  0  0  0  0  0
   55.5475    1.7658    1.7089 C   0  0  0  0  0  0  0  0  0  0  0  0
   56.5057    2.5813    2.2144 C   0  0  0  0  0  0  0  0  0  0  0  0
   57.7348    2.2178    1.5776 C   0  0  0  0  0  0  0  0  0  0  0  0
   57.5429    1.1387    0.7479 N   0  0  0  0  0  0  0  0  0  0  0  0
   58.9163    2.9421    1.6802 C   0  0  0  0  0  0  0  0  0  0  0  0
   58.9182    4.2127    2.4378 C   0  0  0  0  0  0  0  0  0  0  0  0
   59.7886    4.3967    3.5158 C   0  0  0  0  0  0  0  0  0  0  0  0
   59.7927    5.5816    4.2292 C   0  0  0  0  0  0  0  0  0  0  0  0
   58.9258    6.6109    3.8656 C   0  0  0  0  0  0  0  0  0  0  0  0
   58.9603    7.7621    4.5834 O   0  0  0  0  0  0  0  0  0  0  0  0
   58.0552    6.4436    2.7909 C   0  0  0  0  0  0  0  0  0  0  0  0
   58.0513    5.2492    2.0880 C   0  0  0  0  0  0  0  0  0  0  0  0
   60.0956    2.5035    1.0941 C   0  0  0  0  0  0  0  0  0  0  0  0
   61.3306    3.2271    1.1211 C   0  0  0  0  0  0  0  0  0  0  0  0
   62.2863    2.3865    0.6541 C   0  0  0  0  0  0  0  0  0  0  0  0
   60.2829    1.2594    0.5366 N   0  0  0  0  0  0  0  0  0  0  0  0
   61.6292    1.1610    0.3296 C   0  0  0  0  0  0  0  0  0  0  0  0
   62.3036   -0.0152   -0.0147 C   0  0  0  0  0  0  0  0  0  0  0  0
   61.6139   -1.1738   -0.3867 C   0  0  0  0  0  0  0  0  0  0  0  0
   62.2535   -2.4105   -0.7041 C   0  0  0  0  0  0  0  0  0  0  0  0
   61.2956   -3.2223   -1.2157 C   0  0  0  0  0  0  0  0  0  0  0  0
   60.0769   -2.4714   -1.2189 C   0  0  0  0  0  0  0  0  0  0  0  0
   60.2738   -1.2380   -0.6421 N   0  0  0  0  0  0  0  0  0  0  0  0
   58.9049   -2.8799   -1.8407 C   0  0  0  0  0  0  0  0  0  0  0  0
   58.9038   -4.1411   -2.6142 C   0  0  0  0  0  0  0  0  0  0  0  0
   58.0159   -5.1697   -2.2954 C   0  0  0  0  0  0  0  0  0  0  0  0
   58.0173   -6.3547   -3.0141 C   0  0  0  0  0  0  0  0  0  0  0  0
   58.9071   -6.5203   -4.0732 C   0  0  0  0  0  0  0  0  0  0  0  0
   58.9396   -7.6623   -4.8056 O   0  0  0  0  0  0  0  0  0  0  0  0
   59.7957   -5.4989   -4.4054 C   0  0  0  0  0  0  0  0  0  0  0  0
   59.7937   -4.3235   -3.6763 C   0  0  0  0  0  0  0  0  0  0  0  0
   57.7331   -2.1385   -1.7535 C   0  0  0  0  0  0  0  0  0  0  0  0
   56.5095   -2.4806   -2.4124 C   0  0  0  0  0  0  0  0  0  0  0  0
   55.5533   -1.6602   -1.9112 C   0  0  0  0  0  0  0  0  0  0  0  0
   56.1993   -0.8121   -0.9615 C   0  0  0  0  0  0  0  0  0  0  0  0
   57.5421   -1.0637   -0.9175 N   0  0  0  0  0  0  0  0  0  0  0  0
   54.4928    1.7446    1.9314 H   0  0  0  0  0  0  0  0  0  0  0  0
   56.3993    3.3604    2.9516 H   0  0  0  0  0  0  0  0  0  0  0  0
   60.4533    3.5914    3.8080 H   0  0  0  0  0  0  0  0  0  0  0  0
   60.4603    5.7234    5.0701 H   0  0  0  0  0  0  0  0  0  0  0  0
   58.3192    8.4047    4.2514 H   0  0  0  0  0  0  0  0  0  0  0  0
   57.3857    7.2489    2.5083 H   0  0  0  0  0  0  0  0  0  0  0  0
   57.3828    5.1261    1.2433 H   0  0  0  0  0  0  0  0  0  0  0  0
   61.4425    4.2451    1.4570 H   0  0  0  0  0  0  0  0  0  0  0  0
   63.3436    2.5637    0.5397 H   0  0  0  0  0  0  0  0  0  0  0  0
   63.3019   -2.6135   -0.5561 H   0  0  0  0  0  0  0  0  0  0  0  0
   61.3957   -4.2379   -1.5623 H   0  0  0  0  0  0  0  0  0  0  0  0
   57.3325   -5.0484   -1.4625 H   0  0  0  0  0  0  0  0  0  0  0  0
   57.3312   -7.1542   -2.7556 H   0  0  0  0  0  0  0  0  0  0  0  0
   58.2827   -8.2999   -4.4952 H   0  0  0  0  0  0  0  0  0  0  0  0
   60.4782   -5.6393   -5.2344 H   0  0  0  0  0  0  0  0  0  0  0  0
   60.4760   -3.5243   -3.9436 H   0  0  0  0  0  0  0  0  0  0  0  0
   56.4047   -3.2509   -3.1589 H   0  0  0  0  0  0  0  0  0  0  0  0
   54.5021   -1.6251   -2.1482 H   0  0  0  0  0  0  0  0  0  0  0  0
   74.8580   -0.0591   -0.0013 Co  0  0  0  0  0  0  0  0  0  0  0  0
   71.4685   -0.0534    0.0153 C   0  0  0  0  0  0  0  0  0  0  0  0
   72.1602    0.8151    0.8669 C   0  0  0  0  0  0  0  0  0  0  0  0
   71.5263    1.6798    1.8095 C   0  0  0  0  0  0  0  0  0  0  0  0
   72.4858    2.5203    2.2710 C   0  0  0  0  0  0  0  0  0  0  0  0
   73.6996    2.1694    1.5991 C   0  0  0  0  0  0  0  0  0  0  0  0
   73.4988    1.0757    0.7908 N   0  0  0  0  0  0  0  0  0  0  0  0
   74.8718    2.9145    1.6459 C   0  0  0  0  0  0  0  0  0  0  0  0
   74.8750    4.2030    2.3711 C   0  0  0  0  0  0  0  0  0  0  0  0
   75.7823    4.4345    3.4091 C   0  0  0  0  0  0  0  0  0  0  0  0
   75.7838    5.6358    4.0942 C   0  0  0  0  0  0  0  0  0  0  0  0
   74.8771    6.6345    3.7419 C   0  0  0  0  0  0  0  0  0  0  0  0
   74.9098    7.8024    4.4315 O   0  0  0  0  0  0  0  0  0  0  0  0
   73.9690    6.4198    2.7070 C   0  0  0  0  0  0  0  0  0  0  0  0
   73.9682    5.2091    2.0329 C   0  0  0  0  0  0  0  0  0  0  0  0
   76.0410    2.4746    1.0386 C   0  0  0  0  0  0  0  0  0  0  0  0
   77.2699    3.2083    1.0161 C   0  0  0  0  0  0  0  0  0  0  0  0
   78.2246    2.3571    0.5651 C   0  0  0  0  0  0  0  0  0  0  0  0
   76.2279    1.2152    0.5172 N   0  0  0  0  0  0  0  0  0  0  0  0
   77.5717    1.1163    0.2964 C   0  0  0  0  0  0  0  0  0  0  0  0
   78.2473   -0.0731   -0.0015 C   0  0  0  0  0  0  0  0  0  0  0  0
   77.5557   -1.2437   -0.3329 C   0  0  0  0  0  0  0  0  0  0  0  0
   78.1909   -2.4873   -0.6298 C   0  0  0  0  0  0  0  0  0  0  0  0
   77.2341   -3.2975   -1.1476 C   0  0  0  0  0  0  0  0  0  0  0  0
   76.0199   -2.5405   -1.1689 C   0  0  0  0  0  0  0  0  0  0  0  0
   76.2179   -1.3040   -0.6026 N   0  0  0  0  0  0  0  0  0  0  0  0
   74.8479   -2.9457   -1.7969 C   0  0  0  0  0  0  0  0  0  0  0  0
   74.8516   -4.1999   -2.5803 C   0  0  0  0  0  0  0  0  0  0  0  0
   73.9563   -5.2290   -2.2837 C   0  0  0  0  0  0  0  0  0  0  0  0
   73.9621   -6.4057   -3.0156 C   0  0  0  0  0  0  0  0  0  0  0  0
   74.8640   -6.5628   -4.0660 C   0  0  0  0  0  0  0  0  0  0  0  0
   74.9004   -7.6956   -4.8116 O   0  0  0  0  0  0  0  0  0  0  0  0
   75.7616   -5.5417   -4.3746 C   0  0  0  0  0  0  0  0  0  0  0  0
   75.7553   -4.3749   -3.6323 C   0  0  0  0  0  0  0  0  0  0  0  0
   73.6749   -2.2085   -1.6998 C   0  0  0  0  0  0  0  0  0  0  0  0
   72.4434   -2.5541   -2.3426 C   0  0  0  0  0  0  0  0  0  0  0  0
   71.4876   -1.7506   -1.8136 C   0  0  0  0  0  0  0  0  0  0  0  0
   72.1424   -0.9051   -0.8675 C   0  0  0  0  0  0  0  0  0  0  0  0
   73.4874   -1.1401   -0.8531 N   0  0  0  0  0  0  0  0  0  0  0  0
   70.4803    1.6429    2.0681 H   0  0  0  0  0  0  0  0  0  0  0  0
   72.3894    3.3073    3.0011 H   0  0  0  0  0  0  0  0  0  0  0  0
   76.4774    3.6528    3.6943 H   0  0  0  0  0  0  0  0  0  0  0  0
   76.4798    5.8142    4.9047 H   0  0  0  0  0  0  0  0  0  0  0  0
   74.2397    8.4213    4.1113 H   0  0  0  0  0  0  0  0  0  0  0  0
   73.2681    7.2010    2.4330 H   0  0  0  0  0  0  0  0  0  0  0  0
   73.2699    5.0490    1.2189 H   0  0  0  0  0  0  0  0  0  0  0  0
   77.3797    4.2386    1.3125 H   0  0  0  0  0  0  0  0  0  0  0  0
   79.2787    2.5370    0.4279 H   0  0  0  0  0  0  0  0  0  0  0  0
   79.2366   -2.6949   -0.4691 H   0  0  0  0  0  0  0  0  0  0  0  0
   77.3321   -4.3165   -1.4850 H   0  0  0  0  0  0  0  0  0  0  0  0
   73.2643   -5.1153   -1.4567 H   0  0  0  0  0  0  0  0  0  0  0  0
   73.2700   -7.2053   -2.7744 H   0  0  0  0  0  0  0  0  0  0  0  0
   74.2380   -8.3350   -4.5166 H   0  0  0  0  0  0  0  0  0  0  0  0
   76.4542   -5.6758   -5.1963 H   0  0  0  0  0  0  0  0  0  0  0  0
   76.4444   -3.5758   -3.8815 H   0  0  0  0  0  0  0  0  0  0  0  0
   72.3325   -3.3163   -3.0966 H   0  0  0  0  0  0  0  0  0  0  0  0
   70.4320   -1.7244   -2.0312 H   0  0  0  0  0  0  0  0  0  0  0  0
  2  3  4  0  0  0  0
  3  4  1  0  0  0  0
  4  5  2  0  0  0  0
  5  6  4  0  0  0  0
  1  7  1  0  0  0  0
  3  7  4  0  0  0  0
  6  7  4  0  0  0  0
  6  8  4  0  0  0  0
  8  9  1  0  0  0  0
  9 10  4  0  0  0  0
 10 11  4  0  0  0  0
 11 12  4  0  0  0  0
 12 13  1  0  0  0  0
 12 14  4  0  0  0  0
  9 15  4  0  0  0  0
 14 15  4  0  0  0  0
  8 16  4  0  0  0  0
 16 17  4  0  0  0  0
 17 18  2  0  0  0  0
  1 19  1  0  0  0  0
 16 19  4  0  0  0  0
 18 20  4  0  0  0  0
 19 20  4  0  0  0  0
 20 21  4  0  0  0  0
 21 22  4  0  0  0  0
 22 23  4  0  0  0  0
 23 24  2  0  0  0  0
 24 25  4  0  0  0  0
  1 26  1  0  0  0  0
 22 26  4  0  0  0  0
 25 26  4  0  0  0  0
 25 27  4  0  0  0  0
 27 28  1  0  0  0  0
 28 29  4  0  0  0  0
 29 30  4  0  0  0  0
 30 31  4  0  0  0  0
 31 32  1  0  0  0  0
 31 33  4  0  0  0  0
 28 34  4  0  0  0  0
 33 34  4  0  0  0  0
 27 35  4  0  0  0  0
 35 36  4  0  0  0  0
 36 37  2  0  0  0  0
  2 38  4  0  0  0  0
 37 38  1  0  0  0  0
  1 39  1  0  0  0  0
 35 39  4  0  0  0  0
 38 39  4  0  0  0  0
  2 40  1  0  0  0  0
  4 41  1  0  0  0  0
  5 42  1  0  0  0  0
 10 43  1  0  0  0  0
 11 44  1  0  0  0  0
 13 45  1  0  0  0  0
 14 46  1  0  0  0  0
 15 47  1  0  0  0  0
 17 48  1  0  0  0  0
 18 49  1  0  0  0  0
 23 50  1  0  0  0  0
 24 51  1  0  0  0  0
 29 52  1  0  0  0  0
 30 53  1  0  0  0  0
 32 54  1  0  0  0  0
 33 55  1  0  0  0  0
 34 56  1  0  0  0  0
 36 57  1  0  0  0  0
 37 58  1  0  0  0  0
 60 61  4  0  0  0  0
 61 62  1  0  0  0  0
 62 63  2  0  0  0  0
 63 64  4  0  0  0  0
 59 65  1  0  0  0  0
 61 65  4  0  0  0  0
 64 65  4  0  0  0  0
 64 66  4  0  0  0  0
 66 67  1  0  0  0  0
 67 68  4  0  0  0  0
 68 69  4  0  0  0  0
 69 70  4  0  0  0  0
 70 71  1  0  0  0  0
 70 72  4  0  0  0  0
 67 73  4  0  0  0  0
 72 73  4  0  0  0  0
 66 74  4  0  0  0  0
 74 75  4  0  0  0  0
 75 76  2  0  0  0  0
 59 77  1  0  0  0  0
 74 77  4  0  0  0  0
 76 78  4  0  0  0  0
 77 78  4  0  0  0  0
 78 79  4  0  0  0  0
 79 80  4  0  0  0  0
 80 81  4  0  0  0  0
 81 82  2  0  0  0  0
 82 83  4  0  0  0  0
 59 84  1  0  0  0  0
 80 84  4  0  0  0  0
 83 84  4  0  0  0  0
 83 85  4  0  0  0  0
 85 86  1  0  0  0  0
 86 87  4  0  0  0  0
 87 88  4  0  0  0  0
 88 89  4  0  0  0  0
 89 90  1  0  0  0  0
 89 91  4  0  0  0  0
 86 92  4  0  0  0  0
 91 92  4  0  0  0  0
 85 93  4  0  0  0  0
 93 94  4  0  0  0  0
 94 95  2  0  0  0  0
 60 96  4  0  0  0  0
 95 96  4  0  0  0  0
 59 97  1  0  0  0  0
 93 97  4  0  0  0  0
 96 97  4  0  0  0  0
 60 98  1  0  0  0  0
 62 99  1  0  0  0  0
 63100  1  0  0  0  0
 68101  1  0  0  0  0
 69102  1  0  0  0  0
 71103  1  0  0  0  0
 72104  1  0  0  0  0
 73105  1  0  0  0  0
 75106  1  0  0  0  0
 76107  1  0  0  0  0
 81108  1  0  0  0  0
 82109  1  0  0  0  0
 87110  1  0  0  0  0
 88111  1  0  0  0  0
 90112  1  0  0  0  0
 91113  1  0  0  0  0
 92114  1  0  0  0  0
 94115  1  0  0  0  0
 95116  1  0  0  0  0
117118  3  0  0  0  0
118119  4  0  0  0  0
 21120  4  0  0  0  0
119120  3  0  0  0  0
117121  4  0  0  0  0
121122  3  0  0  0  0
123124  3  0  0  0  0
124125  4  0  0  0  0
125126  3  0  0  0  0
123127  4  0  0  0  0
127128  3  0  0  0  0
129130  3  0  0  0  0
130131  4  0  0  0  0
131132  3  0  0  0  0
129133  4  0  0  0  0
 79134  4  0  0  0  0
133134  3  0  0  0  0
122136  4  0  0  0  0
136137  4  0  0  0  0
137138  4  0  0  0  0
138139  2  0  0  0  0
139140  4  0  0  0  0
135141  1  0  0  0  0
137141  4  0  0  0  0
140141  4  0  0  0  0
140142  4  0  0  0  0
142143  1  0  0  0  0
143144  4  0  0  0  0
144145  4  0  0  0  0
145146  4  0  0  0  0
146147  1  0  0  0  0
146148  4  0  0  0  0
143149  4  0  0  0  0
148149  4  0  0  0  0
142150  4  0  0  0  0
150151  4  0  0  0  0
151152  2  0  0  0  0
135153  1  0  0  0  0
150153  4  0  0  0  0
152154  4  0  0  0  0
153154  4  0  0  0  0
126155  4  0  0  0  0
154155  4  0  0  0  0
155156  4  0  0  0  0
156157  4  0  0  0  0
157158  2  0  0  0  0
158159  4  0  0  0  0
135160  1  0  0  0  0
156160  4  0  0  0  0
159160  4  0  0  0  0
159161  4  0  0  0  0
161162  1  0  0  0  0
162163  4  0  0  0  0
163164  4  0  0  0  0
164165  4  0  0  0  0
165166  1  0  0  0  0
165167  4  0  0  0  0
162168  4  0  0  0  0
167168  4  0  0  0  0
161169  4  0  0  0  0
169170  4  0  0  0  0
170171  2  0  0  0  0
136172  4  0  0  0  0
171172  4  0  0  0  0
135173  1  0  0  0  0
169173  4  0  0  0  0
172173  4  0  0  0  0
138174  1  0  0  0  0
139175  1  0  0  0  0
144176  1  0  0  0  0
145177  1  0  0  0  0
147178  1  0  0  0  0
148179  1  0  0  0  0
149180  1  0  0  0  0
151181  1  0  0  0  0
152182  1  0  0  0  0
157183  1  0  0  0  0
158184  1  0  0  0  0
163185  1  0  0  0  0
164186  1  0  0  0  0
166187  1  0  0  0  0
167188  1  0  0  0  0
168189  1  0  0  0  0
170190  1  0  0  0  0
171191  1  0  0  0  0
128193  4  0  0  0  0
193194  4  0  0  0  0
194195  4  0  0  0  0
195196  2  0  0  0  0
196197  4  0  0  0  0
192198  1  0  0  0  0
194198  4  0  0  0  0
197198  4  0  0  0  0
197199  4  0  0  0  0
199200  1  0  0  0  0
200201  4  0  0  0  0
201202  4  0  0  0  0
202203  4  0  0  0  0
203204  1  0  0  0  0
203205  4  0  0  0  0
200206  4  0  0  0  0
205206  4  0  0  0  0
199207  4  0  0  0  0
207208  4  0  0  0  0
208209  2  0  0  0  0
192210  1  0  0  0  0
207210  4  0  0  0  0
209211  4  0  0  0  0
210211  4  0  0  0  0
132212  4  0  0  0  0
211212  4  0  0  0  0
212213  4  0  0  0  0
213214  4  0  0  0  0
214215  2  0  0  0  0
215216  4  0  0  0  0
192217  1  0  0  0  0
213217  4  0  0  0  0
216217  4  0  0  0  0
216218  4  0  0  0  0
218219  1  0  0  0  0
219220  4  0  0  0  0
220221  4  0  0  0  0
221222  4  0  0  0  0
222223  1  0  0  0  0
222224  4  0  0  0  0
219225  4  0  0  0  0
224225  4  0  0  0  0
218226  4  0  0  0  0
226227  4  0  0  0  0
227228  2  0  0  0  0
193229  4  0  0  0  0
228229  4  0  0  0  0
192230  1  0  0  0  0
226230  4  0  0  0  0
229230  4  0  0  0  0
195231  1  0  0  0  0
196232  1  0  0  0  0
201233  1  0  0  0  0
202234  1  0  0  0  0
204235  1  0  0  0  0
205236  1  0  0  0  0
206237  1  0  0  0  0
208238  1  0  0  0  0
209239  1  0  0  0  0
214240  1  0  0  0  0
215241  1  0  0  0  0
220242  1  0  0  0  0
221243  1  0  0  0  0
223244  1  0  0  0  0
224245  1  0  0  0  0
225246  1  0  0  0  0
227247  1  0  0  0  0
228248  1  0  0  0  0
M  END
