198

C 23.293576 0.024528 -0.116732
C 24.028332 -1.257709 -0.614220
C 23.433248 -2.350680 -1.201024
C 24.458707 -3.301072 -1.445334
C 25.644874 -2.756664 -0.992338
N 25.378385 -1.488688 -0.540628
C 27.062675 -3.463664 -0.967910
C 27.091865 -4.934483 -1.136296
C 27.385750 -5.505578 -2.381817
C 27.401354 -6.893622 -2.533353
C 27.121305 -7.709292 -1.433710
C 27.132534 -9.179546 -1.570242
O 27.370551 -9.753061 -2.626935
C 26.826622 -7.150218 -0.186271
C 26.811980 -5.762662 -0.041789
C 28.192606 -2.746559 -0.725637
C 29.493412 -3.377064 -0.630466
C 30.394674 -2.440149 -0.360009
N 28.390179 -1.408425 -0.510110
C 29.718051 -1.160926 -0.276423
C 30.383746 -0.006830 -0.005135
C 29.605642 1.374538 0.060966
C 30.147743 2.627113 -0.150239
C 29.121180 3.579452 0.067326
C 27.977947 2.881131 0.393287
N 28.269423 1.538481 0.334492
C 26.565573 3.507285 0.749338
C 26.525411 4.913222 1.206099
C 26.822266 5.236725 2.535868
C 26.793806 6.567354 2.959735
C 26.469858 7.574613 2.046706
C 26.435684 8.988308 2.471710
O 26.675006 9.350651 3.617936
C 26.172608 7.263621 0.715862
C 26.201970 5.932482 0.299297
C 25.440809 2.757014 0.621381
C 24.116158 3.264649 0.933164
C 23.231618 2.303440 0.684524
C 23.956338 1.148140 0.215616
N 25.278833 1.464193 0.209351
H 22.214095 -0.009429 -0.029880
H 22.380765 -2.458951 -1.413973
H 24.339572 -4.281977 -1.880030
H 26.072607 -0.825009 -0.205406
H 27.605404 -4.853739 -3.225235
H 27.632868 -7.326611 -3.502384
H 26.909733 -9.751385 -0.654066
H 26.608382 -7.769887 0.677208
H 26.586745 -5.306506 0.920495
H 29.705978 -4.424503 -0.747743
H 31.445946 -2.622527 -0.231816
H 31.172191 2.837234 -0.417654
H 29.209181 4.653041 -0.001586
H 27.586213 0.790795 0.424552
H 27.072121 4.439256 3.233040
H 27.023800 6.807208 3.993823
H 26.178678 9.721930 1.688938
H 25.917541 8.034159 -0.004916
H 25.970962 5.667079 -0.731316
H 23.884064 4.246372 1.304543
H 22.166743 2.366757 0.814133
C 68.592740 0.028983 -0.115383
C 67.857984 1.371820 0.181958
C 68.453068 2.606727 0.299996
C 67.427609 3.533014 0.623914
C 66.241442 2.828761 0.698836
N 66.507931 1.523182 0.371316
C 64.823641 3.403465 1.111343
C 64.794451 4.720655 1.787119
C 64.500566 5.886735 1.067587
C 64.484962 7.125705 1.711467
C 64.765011 7.194392 3.078879
C 64.753782 8.493441 3.780846
O 64.515765 9.556791 3.219769
C 65.059694 6.037249 3.806676
C 65.074336 4.802598 3.157196
C 63.693710 2.672412 0.915138
C 62.392904 3.144226 1.344073
C 61.491642 2.214647 1.049386
N 63.496137 1.439472 0.352186
C 62.168265 1.103913 0.409333
C 61.502570 -0.006830 -0.005135
C 62.280674 -1.192854 -0.716397
C 61.738573 -2.117892 -1.586948
C 62.765136 -3.030964 -1.934199
C 63.908369 -2.630746 -1.275618
N 63.616893 -1.480990 -0.579754
C 65.320743 -3.349238 -1.326704
C 65.360905 -4.772409 -1.726550
C 65.064050 -5.779216 -0.799576
C 65.092510 -7.121479 -1.185017
C 65.416458 -7.453094 -2.503435
C 65.450632 -8.865103 -2.934007
O 65.211310 -9.802412 -2.181295
C 65.713708 -6.456099 -3.438242
C 65.684346 -5.117462 -3.046443
C 66.445507 -2.654002 -1.016985
C 67.770158 -3.249326 -1.039159
C 68.654698 -2.311636 -0.712844
C 67.929978 -1.090267 -0.462137
N 66.607483 -1.349762 -0.642668
H 69.672221 0.009058 -0.024282
H 69.505551 2.814938 0.182873
H 67.546744 4.590300 0.806349
H 65.813709 0.785022 0.282084
H 64.280912 5.812231 0.004244
H 64.253448 8.023504 1.145376
H 64.976583 8.461022 4.860350
H 65.277934 6.073858 4.868865
H 65.299571 3.889266 3.704823
H 62.180338 4.080794 1.827521
H 60.440370 2.295283 1.257216
H 60.714125 -2.144383 -1.926005
H 62.677135 -3.886009 -2.587069
H 64.300103 -0.908841 -0.090070
H 64.814195 -5.502417 0.222866
H 64.862516 -7.894669 -0.457662
H 65.707638 -9.041294 -3.992256
H 65.968775 -6.697396 -4.465387
H 65.915354 -4.324941 -3.756734
H 68.002252 -4.272169 -1.274730
H 69.719573 -2.436213 -0.640127
C 32.547785 0.007860 0.005141
C 34.006011 -0.013977 -0.012732
C 35.139939 -0.034730 -0.014223
C 36.501321 -0.047320 -0.016414
C 37.775540 -0.037014 -0.021179
C 38.964002 -0.018216 -0.027336
C 40.316363 0.006569 -0.011468
C 41.416630 0.007860 0.005141
C 50.345649 0.007860 0.005141
C 51.803875 -0.013977 -0.012732
C 52.937803 -0.034730 -0.014223
C 54.299185 -0.047320 -0.016414
C 55.573404 -0.037014 -0.021179
C 56.761866 -0.018216 -0.027336
C 58.114227 0.006569 -0.011468
C 59.214494 0.007860 0.005141
C 42.345150 0.011792 0.009070
C 43.129858 0.881184 -1.057824
C 42.588325 1.478020 -2.171167
C 43.627373 2.175492 -2.833572
C 44.778557 1.979942 -2.109661
N 44.476799 1.153709 -1.053154
C 46.196908 2.596445 -2.445667
C 46.234583 3.776977 -3.344697
C 46.459570 3.621696 -4.717692
C 46.502265 4.736245 -5.559043
C 46.314689 6.011460 -5.022896
C 46.357698 7.204746 -5.892775
O 46.518994 7.142781 -7.106039
C 46.082955 6.180180 -3.655219
C 46.043369 5.061671 -2.819856
C 47.327747 2.076257 -1.898835
C 48.633965 2.626087 -2.193342
C 49.545464 1.923765 -1.530856
N 47.526919 1.033467 -1.032406
C 48.867336 0.890748 -0.773344
C 49.549430 0.011792 0.009070
C 48.773330 -1.097191 0.844556
C 49.352474 -2.109373 1.588036
C 48.311279 -2.834183 2.212376
C 47.119000 -2.246142 1.835094
N 47.408156 -1.210807 0.975965
C 45.685007 -2.679749 2.342764
C 45.622137 -3.776011 3.336916
C 45.497914 -5.098315 2.889963
C 45.465102 -6.147234 3.807520
C 45.542692 -5.866909 5.176684
C 45.496301 -6.991313 6.131267
O 45.564630 -6.841212 7.345071
C 45.656980 -4.551223 5.634306
C 45.701696 -3.505764 4.709954
C 44.556184 -2.086561 1.877951
C 43.248182 -2.450966 2.380875
C 42.340951 -1.703705 1.766420
C 43.020706 -0.844947 0.818820
N 44.360006 -1.110452 0.940928
H 41.557062 1.424550 -2.475757
H 43.541635 2.757823 -3.736299
H 45.149454 0.766157 -0.402104
H 46.608312 2.623488 -5.118335
H 46.684891 4.602583 -6.620285
H 46.229418 8.178863 -5.389545
H 45.932612 7.164141 -3.224719
H 45.870040 5.173500 -1.750259
H 48.846429 3.457695 -2.839488
H 50.602394 2.110316 -1.568655
H 50.408644 -2.301249 1.692255
H 48.423258 -3.678853 2.879777
H 46.719291 -0.613030 0.522892
H 45.427166 -5.288487 1.819142
H 45.379718 -7.164093 3.438116
H 45.395110 -7.996661 5.689597
H 45.712466 -4.334688 6.697897
H 45.794794 -2.475018 5.042666
H 43.035649 -3.190294 3.131689
H 41.283671 -1.755627 1.948718
