 xtb: 6.5.1 (b24c23e)
          07302215283D

198218  0     0  0            999 V2000
   23.9921   -0.0753   -0.1195 C   0  0  0  0  0  0  0  0  0  0  0  0
   24.6110   -1.2845   -0.4088 C   0  0  0  0  0  0  0  0  0  0  0  0
   23.9693   -2.5091   -0.7469 C   0  0  0  0  0  0  0  0  0  0  0  0
   24.9376   -3.4555   -0.9301 C   0  0  0  0  0  0  0  0  0  0  0  0
   26.2021   -2.8411   -0.7013 C   0  0  0  0  0  0  0  0  0  0  0  0
   25.9549   -1.5317   -0.4026 N   0  0  0  0  0  0  0  0  0  0  0  0
   27.4695   -3.4298   -0.7840 C   0  0  0  0  0  0  0  0  0  0  0  0
   27.5123   -4.8795   -1.0860 C   0  0  0  0  0  0  0  0  0  0  0  0
   28.1677   -5.3467   -2.2297 C   0  0  0  0  0  0  0  0  0  0  0  0
   28.2078   -6.6993   -2.5077 C   0  0  0  0  0  0  0  0  0  0  0  0
   27.5978   -7.6176   -1.6465 C   0  0  0  0  0  0  0  0  0  0  0  0
   27.6595   -9.0564   -1.9617 C   0  0  0  0  0  0  0  0  0  0  0  0
   28.2073   -9.5054   -2.9359 O   0  0  0  0  0  0  0  0  0  0  0  0
   26.9429   -7.1524   -0.5035 C   0  0  0  0  0  0  0  0  0  0  0  0
   26.8982   -5.7973   -0.2289 C   0  0  0  0  0  0  0  0  0  0  0  0
   28.6800   -2.7556   -0.6027 C   0  0  0  0  0  0  0  0  0  0  0  0
   29.9814   -3.3990   -0.6377 C   0  0  0  0  0  0  0  0  0  0  0  0
   30.8937   -2.4267   -0.4332 C   0  0  0  0  0  0  0  0  0  0  0  0
   28.8229   -1.4250   -0.3543 N   0  0  0  0  0  0  0  0  0  0  0  0
   30.1481   -1.1949   -0.2598 C   0  0  0  0  0  0  0  0  0  0  0  0
   30.7751    0.0474   -0.0351 C   0  0  0  0  0  0  0  0  0  0  0  0
   30.1304    1.2751    0.2066 C   0  0  0  0  0  0  0  0  0  0  0  0
   30.7660    2.5258    0.4265 C   0  0  0  0  0  0  0  0  0  0  0  0
   29.7930    3.4595    0.6522 C   0  0  0  0  0  0  0  0  0  0  0  0
   28.5321    2.8043    0.5831 C   0  0  0  0  0  0  0  0  0  0  0  0
   28.7876    1.4887    0.3014 N   0  0  0  0  0  0  0  0  0  0  0  0
   27.2652    3.3790    0.7357 C   0  0  0  0  0  0  0  0  0  0  0  0
   27.2246    4.8180    1.0821 C   0  0  0  0  0  0  0  0  0  0  0  0
   27.8253    5.2791    2.2581 C   0  0  0  0  0  0  0  0  0  0  0  0
   27.7847    6.6209    2.5837 C   0  0  0  0  0  0  0  0  0  0  0  0
   27.1478    7.5354    1.7381 C   0  0  0  0  0  0  0  0  0  0  0  0
   27.1214    8.9626    2.1060 C   0  0  0  0  0  0  0  0  0  0  0  0
   27.6247    9.4051    3.1069 O   0  0  0  0  0  0  0  0  0  0  0  0
   26.5501    7.0771    0.5614 C   0  0  0  0  0  0  0  0  0  0  0  0
   26.5864    5.7324    0.2388 C   0  0  0  0  0  0  0  0  0  0  0  0
   26.0531    2.6958    0.5854 C   0  0  0  0  0  0  0  0  0  0  0  0
   24.7429    3.2939    0.7918 C   0  0  0  0  0  0  0  0  0  0  0  0
   23.8381    2.3260    0.5438 C   0  0  0  0  0  0  0  0  0  0  0  0
   24.5941    1.1338    0.2022 C   0  0  0  0  0  0  0  0  0  0  0  0
   25.9245    1.3915    0.2472 N   0  0  0  0  0  0  0  0  0  0  0  0
   22.9071   -0.0881   -0.1427 H   0  0  0  0  0  0  0  0  0  0  0  0
   22.9025   -2.6349   -0.8398 H   0  0  0  0  0  0  0  0  0  0  0  0
   24.7950   -4.4867   -1.2094 H   0  0  0  0  0  0  0  0  0  0  0  0
   26.6747   -0.8442   -0.2063 H   0  0  0  0  0  0  0  0  0  0  0  0
   28.6306   -4.6369   -2.9058 H   0  0  0  0  0  0  0  0  0  0  0  0
   28.7103   -7.0690   -3.3951 H   0  0  0  0  0  0  0  0  0  0  0  0
   27.1518   -9.7078   -1.2186 H   0  0  0  0  0  0  0  0  0  0  0  0
   26.4703   -7.8580    0.1721 H   0  0  0  0  0  0  0  0  0  0  0  0
   26.4023   -5.4414    0.6673 H   0  0  0  0  0  0  0  0  0  0  0  0
   30.1522   -4.4530   -0.7847 H   0  0  0  0  0  0  0  0  0  0  0  0
   31.9676   -2.5106   -0.3886 H   0  0  0  0  0  0  0  0  0  0  0  0
   31.8324    2.6820    0.4085 H   0  0  0  0  0  0  0  0  0  0  0  0
   29.9331    4.5117    0.8385 H   0  0  0  0  0  0  0  0  0  0  0  0
   28.0703    0.7819    0.1766 H   0  0  0  0  0  0  0  0  0  0  0  0
   28.3068    4.5714    2.9235 H   0  0  0  0  0  0  0  0  0  0  0  0
   28.2424    6.9846    3.4974 H   0  0  0  0  0  0  0  0  0  0  0  0
   26.5918    9.6119    1.3766 H   0  0  0  0  0  0  0  0  0  0  0  0
   26.0581    7.7803   -0.1026 H   0  0  0  0  0  0  0  0  0  0  0  0
   26.1347    5.3826   -0.6826 H   0  0  0  0  0  0  0  0  0  0  0  0
   24.5646    4.3121    1.0981 H   0  0  0  0  0  0  0  0  0  0  0  0
   22.7617    2.3796    0.5903 H   0  0  0  0  0  0  0  0  0  0  0  0
   67.8957    0.1167   -0.0844 C   0  0  0  0  0  0  0  0  0  0  0  0
   67.2731    1.2796    0.3501 C   0  0  0  0  0  0  0  0  0  0  0  0
   67.9103    2.4927    0.7352 C   0  0  0  0  0  0  0  0  0  0  0  0
   66.9396    3.3765    1.1141 C   0  0  0  0  0  0  0  0  0  0  0  0
   65.6783    2.7284    0.9808 C   0  0  0  0  0  0  0  0  0  0  0  0
   65.9295    1.4725    0.5071 N   0  0  0  0  0  0  0  0  0  0  0  0
   64.4099    3.2570    1.2479 C   0  0  0  0  0  0  0  0  0  0  0  0
   64.3633    4.6346    1.7908 C   0  0  0  0  0  0  0  0  0  0  0  0
   63.6967    5.6490    1.0963 C   0  0  0  0  0  0  0  0  0  0  0  0
   63.6536    6.9321    1.6062 C   0  0  0  0  0  0  0  0  0  0  0  0
   64.2714    7.2307    2.8253 C   0  0  0  0  0  0  0  0  0  0  0  0
   64.2068    8.6062    3.3515 C   0  0  0  0  0  0  0  0  0  0  0  0
   63.6506    9.5135    2.7874 O   0  0  0  0  0  0  0  0  0  0  0  0
   64.9373    6.2184    3.5205 C   0  0  0  0  0  0  0  0  0  0  0  0
   64.9852    4.9350    3.0062 C   0  0  0  0  0  0  0  0  0  0  0  0
   63.2019    2.5848    1.0436 C   0  0  0  0  0  0  0  0  0  0  0  0
   61.9002    3.1338    1.3796 C   0  0  0  0  0  0  0  0  0  0  0  0
   60.9910    2.1995    1.0336 C   0  0  0  0  0  0  0  0  0  0  0  0
   63.0626    1.3325    0.5289 N   0  0  0  0  0  0  0  0  0  0  0  0
   61.7389    1.0771    0.5004 C   0  0  0  0  0  0  0  0  0  0  0  0
   61.1153   -0.0952    0.0275 C   0  0  0  0  0  0  0  0  0  0  0  0
   61.7627   -1.2502   -0.4497 C   0  0  0  0  0  0  0  0  0  0  0  0
   61.1296   -2.4232   -0.9396 C   0  0  0  0  0  0  0  0  0  0  0  0
   62.1053   -3.3157   -1.2866 C   0  0  0  0  0  0  0  0  0  0  0  0
   63.3659   -2.7162   -1.0115 C   0  0  0  0  0  0  0  0  0  0  0  0
   63.1069   -1.4659   -0.5165 N   0  0  0  0  0  0  0  0  0  0  0  0
   64.6348   -3.2648   -1.2292 C   0  0  0  0  0  0  0  0  0  0  0  0
   64.6813   -4.6532   -1.7417 C   0  0  0  0  0  0  0  0  0  0  0  0
   64.1080   -5.6979   -1.0093 C   0  0  0  0  0  0  0  0  0  0  0  0
   64.1541   -6.9933   -1.4869 C   0  0  0  0  0  0  0  0  0  0  0  0
   64.7691   -7.2748   -2.7114 C   0  0  0  0  0  0  0  0  0  0  0  0
   64.8018   -8.6648   -3.2011 C   0  0  0  0  0  0  0  0  0  0  0  0
   64.3218   -9.5955   -2.6060 O   0  0  0  0  0  0  0  0  0  0  0  0
   65.3397   -6.2321   -3.4456 C   0  0  0  0  0  0  0  0  0  0  0  0
   65.2981   -4.9359   -2.9642 C   0  0  0  0  0  0  0  0  0  0  0  0
   65.8445   -2.5998   -0.9993 C   0  0  0  0  0  0  0  0  0  0  0  0
   67.1577   -3.1994   -1.1815 C   0  0  0  0  0  0  0  0  0  0  0  0
   68.0589   -2.2481   -0.8656 C   0  0  0  0  0  0  0  0  0  0  0  0
   67.2981   -1.0736   -0.4767 C   0  0  0  0  0  0  0  0  0  0  0  0
   65.9684   -1.3254   -0.5603 N   0  0  0  0  0  0  0  0  0  0  0  0
   68.9802    0.1492   -0.1115 H   0  0  0  0  0  0  0  0  0  0  0  0
   68.9758    2.6567    0.7150 H   0  0  0  0  0  0  0  0  0  0  0  0
   67.0786    4.3921    1.4474 H   0  0  0  0  0  0  0  0  0  0  0  0
   65.2123    0.7853    0.3005 H   0  0  0  0  0  0  0  0  0  0  0  0
   63.2274    5.4238    0.1453 H   0  0  0  0  0  0  0  0  0  0  0  0
   63.1426    7.7253    1.0711 H   0  0  0  0  0  0  0  0  0  0  0  0
   64.7203    8.7455    4.3268 H   0  0  0  0  0  0  0  0  0  0  0  0
   65.4161    6.4402    4.4688 H   0  0  0  0  0  0  0  0  0  0  0  0
   65.4899    4.1485    3.5561 H   0  0  0  0  0  0  0  0  0  0  0  0
   61.7272    4.0970    1.8312 H   0  0  0  0  0  0  0  0  0  0  0  0
   59.9178    2.2373    1.1295 H   0  0  0  0  0  0  0  0  0  0  0  0
   60.0626   -2.5556   -1.0176 H   0  0  0  0  0  0  0  0  0  0  0  0
   61.9671   -4.2983   -1.7073 H   0  0  0  0  0  0  0  0  0  0  0  0
   63.8228   -0.7987   -0.2483 H   0  0  0  0  0  0  0  0  0  0  0  0
   63.6437   -5.4861   -0.0528 H   0  0  0  0  0  0  0  0  0  0  0  0
   63.7176   -7.8094   -0.9211 H   0  0  0  0  0  0  0  0  0  0  0  0
   65.3124   -8.7915   -4.1796 H   0  0  0  0  0  0  0  0  0  0  0  0
   65.8149   -6.4409   -4.3987 H   0  0  0  0  0  0  0  0  0  0  0  0
   65.7286   -4.1272   -3.5438 H   0  0  0  0  0  0  0  0  0  0  0  0
   67.3404   -4.2148   -1.4944 H   0  0  0  0  0  0  0  0  0  0  0  0
   69.1359   -2.3084   -0.8743 H   0  0  0  0  0  0  0  0  0  0  0  0
   32.1805    0.0748   -0.0457 C   0  0  0  0  0  0  0  0  0  0  0  0
   33.4048    0.0934   -0.0607 C   0  0  0  0  0  0  0  0  0  0  0  0
   34.7471    0.1067   -0.0771 C   0  0  0  0  0  0  0  0  0  0  0  0
   35.9777    0.1120   -0.0914 C   0  0  0  0  0  0  0  0  0  0  0  0
   37.3153    0.1106   -0.1024 C   0  0  0  0  0  0  0  0  0  0  0  0
   38.5460    0.1041   -0.1070 C   0  0  0  0  0  0  0  0  0  0  0  0
   39.8882    0.0928   -0.1056 C   0  0  0  0  0  0  0  0  0  0  0  0
   41.1128    0.0755   -0.0972 C   0  0  0  0  0  0  0  0  0  0  0  0
   50.7771   -0.0976    0.0098 C   0  0  0  0  0  0  0  0  0  0  0  0
   52.0015   -0.1218    0.0177 C   0  0  0  0  0  0  0  0  0  0  0  0
   53.3438   -0.1409    0.0229 C   0  0  0  0  0  0  0  0  0  0  0  0
   54.5744   -0.1525    0.0275 C   0  0  0  0  0  0  0  0  0  0  0  0
   55.9122   -0.1575    0.0301 C   0  0  0  0  0  0  0  0  0  0  0  0
   57.1428   -0.1563    0.0300 C   0  0  0  0  0  0  0  0  0  0  0  0
   58.4854   -0.1445    0.0311 C   0  0  0  0  0  0  0  0  0  0  0  0
   59.7097   -0.1263    0.0303 C   0  0  0  0  0  0  0  0  0  0  0  0
   42.5173    0.0541   -0.0817 C   0  0  0  0  0  0  0  0  0  0  0  0
   43.1681    0.9840   -0.9149 C   0  0  0  0  0  0  0  0  0  0  0  0
   42.5431    1.9147   -1.7847 C   0  0  0  0  0  0  0  0  0  0  0  0
   43.5259    2.6381   -2.4030 C   0  0  0  0  0  0  0  0  0  0  0  0
   44.7803    2.1747   -1.9204 C   0  0  0  0  0  0  0  0  0  0  0  0
   44.5134    1.1690   -1.0309 N   0  0  0  0  0  0  0  0  0  0  0  0
   46.0522    2.6280   -2.2916 C   0  0  0  0  0  0  0  0  0  0  0  0
   46.0955    3.7517   -3.2577 C   0  0  0  0  0  0  0  0  0  0  0  0
   46.6994    3.5861   -4.5079 C   0  0  0  0  0  0  0  0  0  0  0  0
   46.7359    4.6327   -5.4089 C   0  0  0  0  0  0  0  0  0  0  0  0
   46.1757    5.8711   -5.0784 C   0  0  0  0  0  0  0  0  0  0  0  0
   46.2303    6.9735   -6.0561 C   0  0  0  0  0  0  0  0  0  0  0  0
   46.7284    6.8752   -7.1481 O   0  0  0  0  0  0  0  0  0  0  0  0
   45.5751    6.0387   -3.8284 C   0  0  0  0  0  0  0  0  0  0  0  0
   45.5322    4.9879   -2.9294 C   0  0  0  0  0  0  0  0  0  0  0  0
   47.2648    2.1126   -1.8299 C   0  0  0  0  0  0  0  0  0  0  0  0
   48.5638    2.6495   -2.1951 C   0  0  0  0  0  0  0  0  0  0  0  0
   49.4818    1.8965   -1.5552 C   0  0  0  0  0  0  0  0  0  0  0  0
   47.4146    1.0686   -0.9697 N   0  0  0  0  0  0  0  0  0  0  0  0
   48.7422    0.9089   -0.7940 C   0  0  0  0  0  0  0  0  0  0  0  0
   49.3725   -0.0701   -0.0004 C   0  0  0  0  0  0  0  0  0  0  0  0
   48.7215   -1.0327    0.7947 C   0  0  0  0  0  0  0  0  0  0  0  0
   49.3462   -2.0338    1.5828 C   0  0  0  0  0  0  0  0  0  0  0  0
   48.3636   -2.7478    2.2119 C   0  0  0  0  0  0  0  0  0  0  0  0
   47.1096   -2.1964    1.8315 C   0  0  0  0  0  0  0  0  0  0  0  0
   47.3764   -1.1692    0.9670 N   0  0  0  0  0  0  0  0  0  0  0  0
   45.8380   -2.6259    2.2308 C   0  0  0  0  0  0  0  0  0  0  0  0
   45.7956   -3.7431    3.2044 C   0  0  0  0  0  0  0  0  0  0  0  0
   45.1820   -4.9523    2.8656 C   0  0  0  0  0  0  0  0  0  0  0  0
   45.1427   -5.9965    3.7724 C   0  0  0  0  0  0  0  0  0  0  0  0
   45.7124   -5.8501    5.0395 C   0  0  0  0  0  0  0  0  0  0  0  0
   45.6814   -6.9461    6.0253 C   0  0  0  0  0  0  0  0  0  0  0  0
   46.1617   -6.8685    7.1272 O   0  0  0  0  0  0  0  0  0  0  0  0
   46.3246   -4.6392    5.3797 C   0  0  0  0  0  0  0  0  0  0  0  0
   46.3687   -3.5990    4.4717 C   0  0  0  0  0  0  0  0  0  0  0  0
   44.6253   -2.0901    1.7931 C   0  0  0  0  0  0  0  0  0  0  0  0
   43.3266   -2.5267    2.2745 C   0  0  0  0  0  0  0  0  0  0  0  0
   42.4085   -1.7803    1.6269 C   0  0  0  0  0  0  0  0  0  0  0  0
   43.1479   -0.8831    0.7609 C   0  0  0  0  0  0  0  0  0  0  0  0
   44.4752   -1.0849    0.8878 N   0  0  0  0  0  0  0  0  0  0  0  0
   41.4776    2.0079   -1.9187 H   0  0  0  0  0  0  0  0  0  0  0  0
   43.3955    3.4172   -3.1361 H   0  0  0  0  0  0  0  0  0  0  0  0
   45.2209    0.6362   -0.5362 H   0  0  0  0  0  0  0  0  0  0  0  0
   47.1245    2.6241   -4.7708 H   0  0  0  0  0  0  0  0  0  0  0  0
   47.1967    4.5107   -6.3833 H   0  0  0  0  0  0  0  0  0  0  0  0
   45.7678    7.9197   -5.7024 H   0  0  0  0  0  0  0  0  0  0  0  0
   45.1421    6.9975   -3.5621 H   0  0  0  0  0  0  0  0  0  0  0  0
   45.0765    5.1250   -1.9551 H   0  0  0  0  0  0  0  0  0  0  0  0
   48.7287    3.4959   -2.8418 H   0  0  0  0  0  0  0  0  0  0  0  0
   50.5562    1.9847   -1.5732 H   0  0  0  0  0  0  0  0  0  0  0  0
   50.4115   -2.1844    1.6502 H   0  0  0  0  0  0  0  0  0  0  0  0
   48.4938   -3.5884    2.8737 H   0  0  0  0  0  0  0  0  0  0  0  0
   46.6692   -0.5973    0.5177 H   0  0  0  0  0  0  0  0  0  0  0  0
   44.7500   -5.0726    1.8786 H   0  0  0  0  0  0  0  0  0  0  0  0
   44.6698   -6.9340    3.4987 H   0  0  0  0  0  0  0  0  0  0  0  0
   45.1717   -7.8664    5.6680 H   0  0  0  0  0  0  0  0  0  0  0  0
   46.7602   -4.5329    6.3674 H   0  0  0  0  0  0  0  0  0  0  0  0
   46.8317   -2.6571    4.7435 H   0  0  0  0  0  0  0  0  0  0  0  0
   43.1616   -3.2902    3.0172 H   0  0  0  0  0  0  0  0  0  0  0  0
   41.3343   -1.8082    1.7152 H   0  0  0  0  0  0  0  0  0  0  0  0
  1  2  4  0  0  0  0
  2  3  4  0  0  0  0
  3  4  2  0  0  0  0
  4  5  4  0  0  0  0
  2  6  4  0  0  0  0
  5  6  4  0  0  0  0
  5  7  4  0  0  0  0
  7  8  1  0  0  0  0
  8  9  4  0  0  0  0
  9 10  4  0  0  0  0
 10 11  4  0  0  0  0
 11 12  1  0  0  0  0
 12 13  2  0  0  0  0
 11 14  4  0  0  0  0
  8 15  4  0  0  0  0
 14 15  4  0  0  0  0
  7 16  4  0  0  0  0
 16 17  1  0  0  0  0
 17 18  2  0  0  0  0
 16 19  4  0  0  0  0
 18 20  1  0  0  0  0
 19 20  4  0  0  0  0
 20 21  4  0  0  0  0
 21 22  4  0  0  0  0
 22 23  4  0  0  0  0
 23 24  2  0  0  0  0
 24 25  4  0  0  0  0
 22 26  4  0  0  0  0
 25 26  4  0  0  0  0
 25 27  4  0  0  0  0
 27 28  1  0  0  0  0
 28 29  4  0  0  0  0
 29 30  4  0  0  0  0
 30 31  4  0  0  0  0
 31 32  1  0  0  0  0
 32 33  2  0  0  0  0
 31 34  4  0  0  0  0
 28 35  4  0  0  0  0
 34 35  4  0  0  0  0
 27 36  4  0  0  0  0
 36 37  1  0  0  0  0
 37 38  2  0  0  0  0
  1 39  4  0  0  0  0
 38 39  1  0  0  0  0
 36 40  4  0  0  0  0
 39 40  4  0  0  0  0
  1 41  1  0  0  0  0
  3 42  1  0  0  0  0
  4 43  1  0  0  0  0
  6 44  1  0  0  0  0
  9 45  1  0  0  0  0
 10 46  1  0  0  0  0
 12 47  1  0  0  0  0
 14 48  1  0  0  0  0
 15 49  1  0  0  0  0
 17 50  1  0  0  0  0
 18 51  1  0  0  0  0
 23 52  1  0  0  0  0
 24 53  1  0  0  0  0
 26 54  1  0  0  0  0
 29 55  1  0  0  0  0
 30 56  1  0  0  0  0
 32 57  1  0  0  0  0
 34 58  1  0  0  0  0
 35 59  1  0  0  0  0
 37 60  1  0  0  0  0
 38 61  1  0  0  0  0
 62 63  4  0  0  0  0
 63 64  4  0  0  0  0
 64 65  2  0  0  0  0
 65 66  4  0  0  0  0
 63 67  4  0  0  0  0
 66 67  4  0  0  0  0
 66 68  4  0  0  0  0
 68 69  1  0  0  0  0
 69 70  4  0  0  0  0
 70 71  4  0  0  0  0
 71 72  4  0  0  0  0
 72 73  1  0  0  0  0
 73 74  2  0  0  0  0
 72 75  4  0  0  0  0
 69 76  4  0  0  0  0
 75 76  4  0  0  0  0
 68 77  4  0  0  0  0
 77 78  1  0  0  0  0
 78 79  2  0  0  0  0
 77 80  4  0  0  0  0
 79 81  1  0  0  0  0
 80 81  4  0  0  0  0
 81 82  4  0  0  0  0
 82 83  4  0  0  0  0
 83 84  4  0  0  0  0
 84 85  2  0  0  0  0
 85 86  4  0  0  0  0
 83 87  4  0  0  0  0
 86 87  4  0  0  0  0
 86 88  4  0  0  0  0
 88 89  1  0  0  0  0
 89 90  4  0  0  0  0
 90 91  4  0  0  0  0
 91 92  4  0  0  0  0
 92 93  1  0  0  0  0
 93 94  2  0  0  0  0
 92 95  4  0  0  0  0
 89 96  4  0  0  0  0
 95 96  4  0  0  0  0
 88 97  4  0  0  0  0
 97 98  1  0  0  0  0
 98 99  2  0  0  0  0
 62100  4  0  0  0  0
 99100  1  0  0  0  0
 97101  4  0  0  0  0
100101  4  0  0  0  0
 62102  1  0  0  0  0
 64103  1  0  0  0  0
 65104  1  0  0  0  0
 67105  1  0  0  0  0
 70106  1  0  0  0  0
 71107  1  0  0  0  0
 73108  1  0  0  0  0
 75109  1  0  0  0  0
 76110  1  0  0  0  0
 78111  1  0  0  0  0
 79112  1  0  0  0  0
 84113  1  0  0  0  0
 85114  1  0  0  0  0
 87115  1  0  0  0  0
 90116  1  0  0  0  0
 91117  1  0  0  0  0
 93118  1  0  0  0  0
 95119  1  0  0  0  0
 96120  1  0  0  0  0
 98121  1  0  0  0  0
 99122  1  0  0  0  0
 21123  4  0  0  0  0
123124  3  0  0  0  0
124125  4  0  0  0  0
125126  3  0  0  0  0
126127  4  0  0  0  0
127128  3  0  0  0  0
128129  4  0  0  0  0
129130  3  0  0  0  0
131132  3  0  0  0  0
132133  4  0  0  0  0
133134  3  0  0  0  0
134135  4  0  0  0  0
135136  3  0  0  0  0
136137  4  0  0  0  0
 82138  4  0  0  0  0
137138  3  0  0  0  0
130139  4  0  0  0  0
139140  4  0  0  0  0
140141  4  0  0  0  0
141142  2  0  0  0  0
142143  4  0  0  0  0
140144  4  0  0  0  0
143144  4  0  0  0  0
143145  4  0  0  0  0
145146  1  0  0  0  0
146147  4  0  0  0  0
147148  4  0  0  0  0
148149  4  0  0  0  0
149150  1  0  0  0  0
150151  2  0  0  0  0
149152  4  0  0  0  0
146153  4  0  0  0  0
152153  4  0  0  0  0
145154  4  0  0  0  0
154155  1  0  0  0  0
155156  2  0  0  0  0
154157  4  0  0  0  0
156158  1  0  0  0  0
157158  4  0  0  0  0
131159  4  0  0  0  0
158159  4  0  0  0  0
159160  4  0  0  0  0
160161  4  0  0  0  0
161162  2  0  0  0  0
162163  4  0  0  0  0
160164  4  0  0  0  0
163164  4  0  0  0  0
163165  4  0  0  0  0
165166  1  0  0  0  0
166167  4  0  0  0  0
167168  4  0  0  0  0
168169  4  0  0  0  0
169170  1  0  0  0  0
170171  2  0  0  0  0
169172  4  0  0  0  0
166173  4  0  0  0  0
172173  4  0  0  0  0
165174  4  0  0  0  0
174175  1  0  0  0  0
175176  2  0  0  0  0
139177  4  0  0  0  0
176177  1  0  0  0  0
174178  4  0  0  0  0
177178  4  0  0  0  0
141179  1  0  0  0  0
142180  1  0  0  0  0
144181  1  0  0  0  0
147182  1  0  0  0  0
148183  1  0  0  0  0
150184  1  0  0  0  0
152185  1  0  0  0  0
153186  1  0  0  0  0
155187  1  0  0  0  0
156188  1  0  0  0  0
161189  1  0  0  0  0
162190  1  0  0  0  0
164191  1  0  0  0  0
167192  1  0  0  0  0
168193  1  0  0  0  0
170194  1  0  0  0  0
172195  1  0  0  0  0
173196  1  0  0  0  0
175197  1  0  0  0  0
176198  1  0  0  0  0
M  END
