 xtb: 6.5.1 (b24c23e)
          07302202533D

205234  0     0  0            999 V2000
   36.0927    0.0589   -0.0605 Ni  0  0  0  0  0  0  0  0  0  0  0  0
   32.7073    0.1679   -0.1815 C   0  0  0  0  0  0  0  0  0  0  0  0
   33.3474    0.9400    0.7663 C   0  0  0  0  0  0  0  0  0  0  0  0
   32.6633    1.7425    1.7329 C   0  0  0  0  0  0  0  0  0  0  0  0
   33.6147    2.4176    2.4208 C   0  0  0  0  0  0  0  0  0  0  0  0
   34.8788    2.0437    1.8581 C   0  0  0  0  0  0  0  0  0  0  0  0
   34.7063    1.1014    0.8748 N   0  0  0  0  0  0  0  0  0  0  0  0
   36.0913    2.6235    2.2134 C   0  0  0  0  0  0  0  0  0  0  0  0
   36.0986    3.7225    3.2047 C   0  0  0  0  0  0  0  0  0  0  0  0
   35.3785    4.8986    2.9773 C   0  0  0  0  0  0  0  0  0  0  0  0
   35.3999    5.9294    3.8975 C   0  0  0  0  0  0  0  0  0  0  0  0
   36.1393    5.8117    5.0809 C   0  0  0  0  0  0  0  0  0  0  0  0
   36.0882    6.8502    5.9987 N   0  0  0  0  0  0  0  0  0  0  0  0
   37.1681    7.0110    6.9635 C   0  0  0  0  0  0  0  0  0  0  0  0
   36.8467    4.6302    5.3216 C   0  0  0  0  0  0  0  0  0  0  0  0
   36.8302    3.6080    4.3883 C   0  0  0  0  0  0  0  0  0  0  0  0
   37.2999    2.2185    1.6593 C   0  0  0  0  0  0  0  0  0  0  0  0
   38.5526    2.8577    1.9245 C   0  0  0  0  0  0  0  0  0  0  0  0
   39.5052    2.1347    1.2867 C   0  0  0  0  0  0  0  0  0  0  0  0
   37.4807    1.1369    0.8271 N   0  0  0  0  0  0  0  0  0  0  0  0
   38.8326    1.0596    0.6312 C   0  0  0  0  0  0  0  0  0  0  0  0
   39.5007    0.0211   -0.0238 C   0  0  0  0  0  0  0  0  0  0  0  0
   38.8246   -1.0194   -0.6680 C   0  0  0  0  0  0  0  0  0  0  0  0
   39.4863   -2.1326   -1.2686 C   0  0  0  0  0  0  0  0  0  0  0  0
   38.5283   -2.8689   -1.8830 C   0  0  0  0  0  0  0  0  0  0  0  0
   37.2855   -2.1915   -1.6711 C   0  0  0  0  0  0  0  0  0  0  0  0
   37.4750   -1.0797   -0.8809 N   0  0  0  0  0  0  0  0  0  0  0  0
   36.0842   -2.5739   -2.2552 C   0  0  0  0  0  0  0  0  0  0  0  0
   36.0802   -3.7139   -3.1992 C   0  0  0  0  0  0  0  0  0  0  0  0
   36.8648   -3.6870   -4.3536 C   0  0  0  0  0  0  0  0  0  0  0  0
   36.8625   -4.7455   -5.2457 C   0  0  0  0  0  0  0  0  0  0  0  0
   36.0804   -5.8759   -4.9916 C   0  0  0  0  0  0  0  0  0  0  0  0
   36.0046   -6.9441   -5.8729 N   0  0  0  0  0  0  0  0  0  0  0  0
   37.1055   -7.1987   -6.7925 C   0  0  0  0  0  0  0  0  0  0  0  0
   35.2892   -5.9064   -3.8364 C   0  0  0  0  0  0  0  0  0  0  0  0
   35.2873   -4.8395   -2.9581 C   0  0  0  0  0  0  0  0  0  0  0  0
   34.8877   -1.9150   -1.9953 C   0  0  0  0  0  0  0  0  0  0  0  0
   33.6447   -2.2270   -2.6371 C   0  0  0  0  0  0  0  0  0  0  0  0
   32.6970   -1.4533   -2.0562 C   0  0  0  0  0  0  0  0  0  0  0  0
   33.3626   -0.6632   -1.0666 C   0  0  0  0  0  0  0  0  0  0  0  0
   34.7108   -0.9233   -1.0633 N   0  0  0  0  0  0  0  0  0  0  0  0
   31.6251    0.2074   -0.2251 H   0  0  0  0  0  0  0  0  0  0  0  0
   31.5923    1.7688    1.8579 H   0  0  0  0  0  0  0  0  0  0  0  0
   33.4839    3.1074    3.2387 H   0  0  0  0  0  0  0  0  0  0  0  0
   34.8176    5.0124    2.0560 H   0  0  0  0  0  0  0  0  0  0  0  0
   34.8441    6.8409    3.7043 H   0  0  0  0  0  0  0  0  0  0  0  0
   35.8118    7.7297    5.5793 H   0  0  0  0  0  0  0  0  0  0  0  0
   38.1483    7.0234    6.4732 H   0  0  0  0  0  0  0  0  0  0  0  0
   37.1419    6.2001    7.6926 H   0  0  0  0  0  0  0  0  0  0  0  0
   37.0148    7.9549    7.4863 H   0  0  0  0  0  0  0  0  0  0  0  0
   37.4107    4.5014    6.2372 H   0  0  0  0  0  0  0  0  0  0  0  0
   37.3780    2.6936    4.5892 H   0  0  0  0  0  0  0  0  0  0  0  0
   38.6770    3.7503    2.5158 H   0  0  0  0  0  0  0  0  0  0  0  0
   40.5703    2.2998    1.2573 H   0  0  0  0  0  0  0  0  0  0  0  0
   40.5474   -2.3161   -1.2157 H   0  0  0  0  0  0  0  0  0  0  0  0
   38.6438   -3.7909   -2.4291 H   0  0  0  0  0  0  0  0  0  0  0  0
   37.4687   -2.8117   -4.5668 H   0  0  0  0  0  0  0  0  0  0  0  0
   37.4692   -4.6840   -6.1407 H   0  0  0  0  0  0  0  0  0  0  0  0
   35.6658   -7.7911   -5.4325 H   0  0  0  0  0  0  0  0  0  0  0  0
   37.1501   -6.4136   -7.5485 H   0  0  0  0  0  0  0  0  0  0  0  0
   36.9162   -8.1503   -7.2892 H   0  0  0  0  0  0  0  0  0  0  0  0
   38.0665   -7.2487   -6.2676 H   0  0  0  0  0  0  0  0  0  0  0  0
   34.6760   -6.7780   -3.6327 H   0  0  0  0  0  0  0  0  0  0  0  0
   34.6823   -4.8844   -2.0591 H   0  0  0  0  0  0  0  0  0  0  0  0
   33.5259   -2.9430   -3.4341 H   0  0  0  0  0  0  0  0  0  0  0  0
   31.6396   -1.4094   -2.2639 H   0  0  0  0  0  0  0  0  0  0  0  0
   62.9272    0.0336   -0.0328 Ni  0  0  0  0  0  0  0  0  0  0  0  0
   66.3135    0.1018   -0.1390 C   0  0  0  0  0  0  0  0  0  0  0  0
   65.6690   -0.9907   -0.6825 C   0  0  0  0  0  0  0  0  0  0  0  0
   66.3482   -2.1189   -1.2410 C   0  0  0  0  0  0  0  0  0  0  0  0
   65.3946   -2.9283   -1.7606 C   0  0  0  0  0  0  0  0  0  0  0  0
   64.1344   -2.2828   -1.5377 C   0  0  0  0  0  0  0  0  0  0  0  0
   64.3104   -1.1181   -0.8328 N   0  0  0  0  0  0  0  0  0  0  0  0
   62.9232   -2.7428   -2.0421 C   0  0  0  0  0  0  0  0  0  0  0  0
   62.9157   -3.9487   -2.8999 C   0  0  0  0  0  0  0  0  0  0  0  0
   63.6588   -3.9922   -4.0829 C   0  0  0  0  0  0  0  0  0  0  0  0
   63.6436   -5.1167   -4.8861 C   0  0  0  0  0  0  0  0  0  0  0  0
   62.8877   -6.2389   -4.5253 C   0  0  0  0  0  0  0  0  0  0  0  0
   62.9490   -7.3649   -5.3324 N   0  0  0  0  0  0  0  0  0  0  0  0
   61.8640   -8.3364   -5.2971 C   0  0  0  0  0  0  0  0  0  0  0  0
   62.1543   -6.2060   -3.3356 C   0  0  0  0  0  0  0  0  0  0  0  0
   62.1651   -5.0707   -2.5436 C   0  0  0  0  0  0  0  0  0  0  0  0
   61.7172   -2.1050   -1.7760 C   0  0  0  0  0  0  0  0  0  0  0  0
   60.4649   -2.4933   -2.3493 C   0  0  0  0  0  0  0  0  0  0  0  0
   59.5131   -1.7165   -1.7765 C   0  0  0  0  0  0  0  0  0  0  0  0
   61.5378   -1.0626   -0.8947 N   0  0  0  0  0  0  0  0  0  0  0  0
   60.1865   -0.8521   -0.8616 C   0  0  0  0  0  0  0  0  0  0  0  0
   59.5199    0.0087    0.0154 C   0  0  0  0  0  0  0  0  0  0  0  0
   60.1977    0.8669    0.8865 C   0  0  0  0  0  0  0  0  0  0  0  0
   59.5382    1.7010    1.8389 C   0  0  0  0  0  0  0  0  0  0  0  0
   60.4967    2.4689    2.4126 C   0  0  0  0  0  0  0  0  0  0  0  0
   61.7379    2.1118    1.7959 C   0  0  0  0  0  0  0  0  0  0  0  0
   61.5470    1.0907    0.8920 N   0  0  0  0  0  0  0  0  0  0  0  0
   62.9398    2.7674    2.0340 C   0  0  0  0  0  0  0  0  0  0  0  0
   62.9451    3.9434    2.9326 C   0  0  0  0  0  0  0  0  0  0  0  0
   62.1598    5.0624    2.6496 C   0  0  0  0  0  0  0  0  0  0  0  0
   62.1605    6.1670    3.4841 C   0  0  0  0  0  0  0  0  0  0  0  0
   62.9414    6.1703    4.6435 C   0  0  0  0  0  0  0  0  0  0  0  0
   63.0132    7.2658    5.4910 N   0  0  0  0  0  0  0  0  0  0  0  0
   61.9076    8.2134    5.5378 C   0  0  0  0  0  0  0  0  0  0  0  0
   63.7346    5.0521    4.9292 C   0  0  0  0  0  0  0  0  0  0  0  0
   63.7380    3.9591    4.0836 C   0  0  0  0  0  0  0  0  0  0  0  0
   64.1362    2.3611    1.4535 C   0  0  0  0  0  0  0  0  0  0  0  0
   65.3818    3.0513    1.6156 C   0  0  0  0  0  0  0  0  0  0  0  0
   66.3294    2.3015    1.0041 C   0  0  0  0  0  0  0  0  0  0  0  0
   65.6609    1.1598    0.4598 C   0  0  0  0  0  0  0  0  0  0  0  0
   64.3114    1.2248    0.7040 N   0  0  0  0  0  0  0  0  0  0  0  0
   67.3964    0.1258   -0.1767 H   0  0  0  0  0  0  0  0  0  0  0  0
   67.4175   -2.2588   -1.2245 H   0  0  0  0  0  0  0  0  0  0  0  0
   65.5215   -3.8802   -2.2501 H   0  0  0  0  0  0  0  0  0  0  0  0
   64.2339   -3.1238   -4.3853 H   0  0  0  0  0  0  0  0  0  0  0  0
   64.2185   -5.1341   -5.8061 H   0  0  0  0  0  0  0  0  0  0  0  0
   63.2484   -7.1541   -6.2767 H   0  0  0  0  0  0  0  0  0  0  0  0
   60.8886   -7.8569   -5.4390 H   0  0  0  0  0  0  0  0  0  0  0  0
   61.8678   -8.8664   -4.3436 H   0  0  0  0  0  0  0  0  0  0  0  0
   62.0311   -9.0573   -6.0973 H   0  0  0  0  0  0  0  0  0  0  0  0
   61.5754   -7.0654   -3.0203 H   0  0  0  0  0  0  0  0  0  0  0  0
   61.5985   -5.0605   -1.6188 H   0  0  0  0  0  0  0  0  0  0  0  0
   60.3399   -3.2571   -3.0995 H   0  0  0  0  0  0  0  0  0  0  0  0
   58.4484   -1.7194   -1.9461 H   0  0  0  0  0  0  0  0  0  0  0  0
   58.4780    1.6884    2.0341 H   0  0  0  0  0  0  0  0  0  0  0  0
   60.3827    3.2094    3.1874 H   0  0  0  0  0  0  0  0  0  0  0  0
   61.5561    5.0754    1.7486 H   0  0  0  0  0  0  0  0  0  0  0  0
   61.5530    7.0255    3.2256 H   0  0  0  0  0  0  0  0  0  0  0  0
   63.3541    7.0247    6.4138 H   0  0  0  0  0  0  0  0  0  0  0  0
   61.8646    8.7836    4.6088 H   0  0  0  0  0  0  0  0  0  0  0  0
   62.0897    8.9030    6.3620 H   0  0  0  0  0  0  0  0  0  0  0  0
   60.9484    7.7067    5.6942 H   0  0  0  0  0  0  0  0  0  0  0  0
   64.3475    5.0476    5.8244 H   0  0  0  0  0  0  0  0  0  0  0  0
   64.3437    3.0930    4.3270 H   0  0  0  0  0  0  0  0  0  0  0  0
   65.5024    3.9918    2.1284 H   0  0  0  0  0  0  0  0  0  0  0  0
   67.3884    2.4876    0.9201 H   0  0  0  0  0  0  0  0  0  0  0  0
   42.1273    0.0179   -0.0318 C   0  0  0  0  0  0  0  0  0  0  0  0
   40.9056    0.0163   -0.0250 C   0  0  0  0  0  0  0  0  0  0  0  0
   43.4773    0.0206   -0.0371 C   0  0  0  0  0  0  0  0  0  0  0  0
   44.6991    0.0258   -0.0420 C   0  0  0  0  0  0  0  0  0  0  0  0
   55.5437    0.0053    0.0327 C   0  0  0  0  0  0  0  0  0  0  0  0
   54.3219    0.0062    0.0276 C   0  0  0  0  0  0  0  0  0  0  0  0
   56.8935    0.0048    0.0336 C   0  0  0  0  0  0  0  0  0  0  0  0
   58.1152    0.0063    0.0263 C   0  0  0  0  0  0  0  0  0  0  0  0
   49.5105    0.0296   -0.0280 Ni  0  0  0  0  0  0  0  0  0  0  0  0
   46.1032    0.0291   -0.0431 C   0  0  0  0  0  0  0  0  0  0  0  0
   46.7804   -1.0615   -0.5981 C   0  0  0  0  0  0  0  0  0  0  0  0
   46.1232   -2.2127   -1.1268 C   0  0  0  0  0  0  0  0  0  0  0  0
   47.0816   -2.9731   -1.7121 C   0  0  0  0  0  0  0  0  0  0  0  0
   48.3203   -2.2765   -1.5482 C   0  0  0  0  0  0  0  0  0  0  0  0
   48.1294   -1.1273   -0.8147 N   0  0  0  0  0  0  0  0  0  0  0  0
   49.5210   -2.6700   -2.1287 C   0  0  0  0  0  0  0  0  0  0  0  0
   49.5244   -3.8345   -3.0406 C   0  0  0  0  0  0  0  0  0  0  0  0
   50.3438   -4.9387   -2.7872 C   0  0  0  0  0  0  0  0  0  0  0  0
   50.3463   -6.0275   -3.6378 C   0  0  0  0  0  0  0  0  0  0  0  0
   49.5357   -6.0406   -4.7797 C   0  0  0  0  0  0  0  0  0  0  0  0
   49.5374   -7.1751   -5.5770 N   0  0  0  0  0  0  0  0  0  0  0  0
   49.1105   -7.0827   -6.9666 C   0  0  0  0  0  0  0  0  0  0  0  0
   48.7098   -4.9420   -5.0347 C   0  0  0  0  0  0  0  0  0  0  0  0
   48.7078   -3.8586   -4.1729 C   0  0  0  0  0  0  0  0  0  0  0  0
   50.7189   -2.0096   -1.8792 C   0  0  0  0  0  0  0  0  0  0  0  0
   51.9645   -2.3410   -2.4997 C   0  0  0  0  0  0  0  0  0  0  0  0
   52.9180   -1.5941   -1.8896 C   0  0  0  0  0  0  0  0  0  0  0  0
   50.9011   -1.0196   -0.9399 N   0  0  0  0  0  0  0  0  0  0  0  0
   52.2504   -0.7983   -0.9110 C   0  0  0  0  0  0  0  0  0  0  0  0
   52.9179    0.0114    0.0139 C   0  0  0  0  0  0  0  0  0  0  0  0
   52.2372    0.8325    0.9185 C   0  0  0  0  0  0  0  0  0  0  0  0
   52.8895    1.6322    1.9043 C   0  0  0  0  0  0  0  0  0  0  0  0
   51.9309    2.4016    2.4774 C   0  0  0  0  0  0  0  0  0  0  0  0
   50.6974    2.0769    1.8298 C   0  0  0  0  0  0  0  0  0  0  0  0
   50.8905    1.0718    0.9093 N   0  0  0  0  0  0  0  0  0  0  0  0
   49.5005    2.7511    2.0449 C   0  0  0  0  0  0  0  0  0  0  0  0
   49.4970    3.9287    2.9399 C   0  0  0  0  0  0  0  0  0  0  0  0
   48.6660    3.9721    4.0612 C   0  0  0  0  0  0  0  0  0  0  0  0
   48.6626    5.0668    4.9085 C   0  0  0  0  0  0  0  0  0  0  0  0
   49.4973    6.1579    4.6492 C   0  0  0  0  0  0  0  0  0  0  0  0
   49.4942    7.3029    5.4315 N   0  0  0  0  0  0  0  0  0  0  0  0
   49.0603    7.2274    6.8200 C   0  0  0  0  0  0  0  0  0  0  0  0
   50.3225    6.1252    3.5182 C   0  0  0  0  0  0  0  0  0  0  0  0
   50.3259    5.0248    2.6826 C   0  0  0  0  0  0  0  0  0  0  0  0
   48.3070    2.3546    1.4523 C   0  0  0  0  0  0  0  0  0  0  0  0
   47.0670    3.0534    1.5958 C   0  0  0  0  0  0  0  0  0  0  0  0
   46.1129    2.2828    1.0170 C   0  0  0  0  0  0  0  0  0  0  0  0
   46.7748    1.1252    0.5084 C   0  0  0  0  0  0  0  0  0  0  0  0
   48.1221    1.1953    0.7330 N   0  0  0  0  0  0  0  0  0  0  0  0
   45.0640   -2.4009   -1.0549 H   0  0  0  0  0  0  0  0  0  0  0  0
   46.9685   -3.9242   -2.2064 H   0  0  0  0  0  0  0  0  0  0  0  0
   50.9683   -4.9481   -1.9006 H   0  0  0  0  0  0  0  0  0  0  0  0
   50.9786   -6.8826   -3.4230 H   0  0  0  0  0  0  0  0  0  0  0  0
   50.3774   -7.7301   -5.4672 H   0  0  0  0  0  0  0  0  0  0  0  0
   48.0378   -6.8909   -7.0162 H   0  0  0  0  0  0  0  0  0  0  0  0
   49.6441   -6.2882   -7.5009 H   0  0  0  0  0  0  0  0  0  0  0  0
   49.3158   -8.0398   -7.4461 H   0  0  0  0  0  0  0  0  0  0  0  0
   48.0658   -4.9257   -5.9053 H   0  0  0  0  0  0  0  0  0  0  0  0
   48.0769   -3.0044   -4.3933 H   0  0  0  0  0  0  0  0  0  0  0  0
   52.0858   -3.0508   -3.3017 H   0  0  0  0  0  0  0  0  0  0  0  0
   53.9800   -1.5745   -2.0749 H   0  0  0  0  0  0  0  0  0  0  0  0
   53.9458    1.6005    2.1183 H   0  0  0  0  0  0  0  0  0  0  0  0
   52.0408    3.1224    3.2712 H   0  0  0  0  0  0  0  0  0  0  0  0
   48.0280    3.1239    4.2847 H   0  0  0  0  0  0  0  0  0  0  0  0
   48.0078    5.0655    5.7712 H   0  0  0  0  0  0  0  0  0  0  0  0
   50.3357    7.8556    5.3195 H   0  0  0  0  0  0  0  0  0  0  0  0
   49.5929    6.4409    7.3667 H   0  0  0  0  0  0  0  0  0  0  0  0
   49.2611    8.1910    7.2884 H   0  0  0  0  0  0  0  0  0  0  0  0
   47.9880    7.0338    6.8665 H   0  0  0  0  0  0  0  0  0  0  0  0
   50.9621    6.9741    3.3001 H   0  0  0  0  0  0  0  0  0  0  0  0
   50.9630    5.0186    1.8050 H   0  0  0  0  0  0  0  0  0  0  0  0
   46.9500    4.0120    2.0745 H   0  0  0  0  0  0  0  0  0  0  0  0
   45.0542    2.4691    0.9347 H   0  0  0  0  0  0  0  0  0  0  0  0
  2  3  4  0  0  0  0
  3  4  4  0  0  0  0
  4  5  2  0  0  0  0
  5  6  4  0  0  0  0
  1  7  1  0  0  0  0
  3  7  4  0  0  0  0
  6  7  4  0  0  0  0
  6  8  4  0  0  0  0
  8  9  1  0  0  0  0
  9 10  4  0  0  0  0
 10 11  4  0  0  0  0
 11 12  4  0  0  0  0
 12 13  1  0  0  0  0
 13 14  1  0  0  0  0
 12 15  4  0  0  0  0
  9 16  4  0  0  0  0
 15 16  4  0  0  0  0
  8 17  4  0  0  0  0
 17 18  4  0  0  0  0
 18 19  2  0  0  0  0
  1 20  1  0  0  0  0
 17 20  4  0  0  0  0
 19 21  4  0  0  0  0
 20 21  4  0  0  0  0
 21 22  4  0  0  0  0
 22 23  4  0  0  0  0
 23 24  4  0  0  0  0
 24 25  2  0  0  0  0
 25 26  4  0  0  0  0
  1 27  1  0  0  0  0
 23 27  4  0  0  0  0
 26 27  4  0  0  0  0
 26 28  4  0  0  0  0
 28 29  1  0  0  0  0
 29 30  4  0  0  0  0
 30 31  4  0  0  0  0
 31 32  4  0  0  0  0
 32 33  1  0  0  0  0
 33 34  1  0  0  0  0
 32 35  4  0  0  0  0
 29 36  4  0  0  0  0
 35 36  4  0  0  0  0
 28 37  4  0  0  0  0
 37 38  4  0  0  0  0
 38 39  2  0  0  0  0
  2 40  4  0  0  0  0
 39 40  4  0  0  0  0
  1 41  1  0  0  0  0
 37 41  4  0  0  0  0
 40 41  4  0  0  0  0
  2 42  1  0  0  0  0
  4 43  1  0  0  0  0
  5 44  1  0  0  0  0
 10 45  1  0  0  0  0
 11 46  1  0  0  0  0
 13 47  1  0  0  0  0
 14 48  1  0  0  0  0
 14 49  1  0  0  0  0
 14 50  1  0  0  0  0
 15 51  1  0  0  0  0
 16 52  1  0  0  0  0
 18 53  1  0  0  0  0
 19 54  1  0  0  0  0
 24 55  1  0  0  0  0
 25 56  1  0  0  0  0
 30 57  1  0  0  0  0
 31 58  1  0  0  0  0
 33 59  1  0  0  0  0
 34 60  1  0  0  0  0
 34 61  1  0  0  0  0
 34 62  1  0  0  0  0
 35 63  1  0  0  0  0
 36 64  1  0  0  0  0
 38 65  1  0  0  0  0
 39 66  1  0  0  0  0
 68 69  4  0  0  0  0
 69 70  4  0  0  0  0
 70 71  2  0  0  0  0
 71 72  4  0  0  0  0
 67 73  1  0  0  0  0
 69 73  4  0  0  0  0
 72 73  4  0  0  0  0
 72 74  4  0  0  0  0
 74 75  1  0  0  0  0
 75 76  4  0  0  0  0
 76 77  4  0  0  0  0
 77 78  4  0  0  0  0
 78 79  1  0  0  0  0
 79 80  1  0  0  0  0
 78 81  4  0  0  0  0
 75 82  4  0  0  0  0
 81 82  4  0  0  0  0
 74 83  4  0  0  0  0
 83 84  4  0  0  0  0
 84 85  2  0  0  0  0
 67 86  1  0  0  0  0
 83 86  4  0  0  0  0
 85 87  4  0  0  0  0
 86 87  4  0  0  0  0
 87 88  4  0  0  0  0
 88 89  4  0  0  0  0
 89 90  4  0  0  0  0
 90 91  2  0  0  0  0
 91 92  4  0  0  0  0
 67 93  1  0  0  0  0
 89 93  4  0  0  0  0
 92 93  4  0  0  0  0
 92 94  4  0  0  0  0
 94 95  1  0  0  0  0
 95 96  4  0  0  0  0
 96 97  4  0  0  0  0
 97 98  4  0  0  0  0
 98 99  1  0  0  0  0
 99100  1  0  0  0  0
 98101  4  0  0  0  0
 95102  4  0  0  0  0
101102  4  0  0  0  0
 94103  4  0  0  0  0
103104  4  0  0  0  0
104105  2  0  0  0  0
 68106  4  0  0  0  0
105106  4  0  0  0  0
 67107  1  0  0  0  0
103107  4  0  0  0  0
106107  4  0  0  0  0
 68108  1  0  0  0  0
 70109  1  0  0  0  0
 71110  1  0  0  0  0
 76111  1  0  0  0  0
 77112  1  0  0  0  0
 79113  1  0  0  0  0
 80114  1  0  0  0  0
 80115  1  0  0  0  0
 80116  1  0  0  0  0
 81117  1  0  0  0  0
 82118  1  0  0  0  0
 84119  1  0  0  0  0
 85120  1  0  0  0  0
 90121  1  0  0  0  0
 91122  1  0  0  0  0
 96123  1  0  0  0  0
 97124  1  0  0  0  0
 99125  1  0  0  0  0
100126  1  0  0  0  0
100127  1  0  0  0  0
100128  1  0  0  0  0
101129  1  0  0  0  0
102130  1  0  0  0  0
104131  1  0  0  0  0
105132  1  0  0  0  0
 22134  4  0  0  0  0
133134  3  0  0  0  0
133135  4  0  0  0  0
135136  3  0  0  0  0
137138  3  0  0  0  0
137139  4  0  0  0  0
 88140  4  0  0  0  0
139140  3  0  0  0  0
136142  4  0  0  0  0
142143  4  0  0  0  0
143144  4  0  0  0  0
144145  2  0  0  0  0
145146  4  0  0  0  0
141147  1  0  0  0  0
143147  4  0  0  0  0
146147  4  0  0  0  0
146148  4  0  0  0  0
148149  1  0  0  0  0
149150  4  0  0  0  0
150151  4  0  0  0  0
151152  4  0  0  0  0
152153  1  0  0  0  0
153154  1  0  0  0  0
152155  4  0  0  0  0
149156  4  0  0  0  0
155156  4  0  0  0  0
148157  4  0  0  0  0
157158  4  0  0  0  0
158159  2  0  0  0  0
141160  1  0  0  0  0
157160  4  0  0  0  0
159161  4  0  0  0  0
160161  4  0  0  0  0
138162  4  0  0  0  0
161162  4  0  0  0  0
162163  4  0  0  0  0
163164  4  0  0  0  0
164165  2  0  0  0  0
165166  4  0  0  0  0
141167  1  0  0  0  0
163167  4  0  0  0  0
166167  4  0  0  0  0
166168  4  0  0  0  0
168169  1  0  0  0  0
169170  4  0  0  0  0
170171  4  0  0  0  0
171172  4  0  0  0  0
172173  1  0  0  0  0
173174  1  0  0  0  0
172175  4  0  0  0  0
169176  4  0  0  0  0
175176  4  0  0  0  0
168177  4  0  0  0  0
177178  4  0  0  0  0
178179  2  0  0  0  0
142180  4  0  0  0  0
179180  4  0  0  0  0
141181  1  0  0  0  0
177181  4  0  0  0  0
180181  4  0  0  0  0
144182  1  0  0  0  0
145183  1  0  0  0  0
150184  1  0  0  0  0
151185  1  0  0  0  0
153186  1  0  0  0  0
154187  1  0  0  0  0
154188  1  0  0  0  0
154189  1  0  0  0  0
155190  1  0  0  0  0
156191  1  0  0  0  0
158192  1  0  0  0  0
159193  1  0  0  0  0
164194  1  0  0  0  0
165195  1  0  0  0  0
170196  1  0  0  0  0
171197  1  0  0  0  0
173198  1  0  0  0  0
174199  1  0  0  0  0
174200  1  0  0  0  0
174201  1  0  0  0  0
175202  1  0  0  0  0
176203  1  0  0  0  0
178204  1  0  0  0  0
179205  1  0  0  0  0
M  END
