 xtb: 6.5.1 (b24c23e)
          07302222583D

138151  0     0  0            999 V2000
   14.2422    0.6716   -0.0043 C   0  0  0  0  0  0  0  0  0  0  0  0
   14.8431    0.6971   -1.2564 C   0  0  0  0  0  0  0  0  0  0  0  0
   14.1868    0.8532   -2.5091 C   0  0  0  0  0  0  0  0  0  0  0  0
   15.1292    0.7514   -3.4939 C   0  0  0  0  0  0  0  0  0  0  0  0
   16.3945    0.5470   -2.8739 C   0  0  0  0  0  0  0  0  0  0  0  0
   16.1712    0.5226   -1.5259 N   0  0  0  0  0  0  0  0  0  0  0  0
   17.6359    0.3687   -3.4963 C   0  0  0  0  0  0  0  0  0  0  0  0
   17.6523    0.4166   -4.9774 C   0  0  0  0  0  0  0  0  0  0  0  0
   18.0820   -0.6860   -5.7180 C   0  0  0  0  0  0  0  0  0  0  0  0
   18.0771   -0.6649   -7.1023 C   0  0  0  0  0  0  0  0  0  0  0  0
   17.6411    0.4741   -7.7852 C   0  0  0  0  0  0  0  0  0  0  0  0
   17.6604    0.5677   -9.1696 N   0  0  0  0  0  0  0  0  0  0  0  0
   17.5854   -0.6458   -9.9724 C   0  0  0  0  0  0  0  0  0  0  0  0
   17.2298    1.5904   -7.0468 C   0  0  0  0  0  0  0  0  0  0  0  0
   17.2293    1.5573   -5.6650 C   0  0  0  0  0  0  0  0  0  0  0  0
   18.8417    0.1563   -2.8226 C   0  0  0  0  0  0  0  0  0  0  0  0
   20.1330    0.0869   -3.4816 C   0  0  0  0  0  0  0  0  0  0  0  0
   21.0537   -0.0581   -2.5055 C   0  0  0  0  0  0  0  0  0  0  0  0
   18.9995    0.0488   -1.4744 N   0  0  0  0  0  0  0  0  0  0  0  0
   20.3233   -0.0833   -1.2534 C   0  0  0  0  0  0  0  0  0  0  0  0
   20.9622   -0.2130   -0.0033 C   0  0  0  0  0  0  0  0  0  0  0  0
   20.3304   -0.2721    1.2541 C   0  0  0  0  0  0  0  0  0  0  0  0
   20.9766   -0.4209    2.5092 C   0  0  0  0  0  0  0  0  0  0  0  0
   20.0130   -0.4398    3.4803 C   0  0  0  0  0  0  0  0  0  0  0  0
   18.7477   -0.3027    2.8465 C   0  0  0  0  0  0  0  0  0  0  0  0
   18.9919   -0.2024    1.5019 N   0  0  0  0  0  0  0  0  0  0  0  0
   17.4928   -0.2301    3.4639 C   0  0  0  0  0  0  0  0  0  0  0  0
   17.4552   -0.4295    4.9301 C   0  0  0  0  0  0  0  0  0  0  0  0
   16.9283    0.5476    5.7772 C   0  0  0  0  0  0  0  0  0  0  0  0
   16.8806    0.3582    7.1478 C   0  0  0  0  0  0  0  0  0  0  0  0
   17.3632   -0.8271    7.7104 C   0  0  0  0  0  0  0  0  0  0  0  0
   17.2819   -1.0978    9.0678 N   0  0  0  0  0  0  0  0  0  0  0  0
   17.1929   -0.0006   10.0214 C   0  0  0  0  0  0  0  0  0  0  0  0
   17.8890   -1.8122    6.8651 C   0  0  0  0  0  0  0  0  0  0  0  0
   17.9390   -1.6117    5.4989 C   0  0  0  0  0  0  0  0  0  0  0  0
   16.2903    0.0189    2.7917 C   0  0  0  0  0  0  0  0  0  0  0  0
   14.9851    0.0577    3.4324 C   0  0  0  0  0  0  0  0  0  0  0  0
   14.0899    0.3325    2.4619 C   0  0  0  0  0  0  0  0  0  0  0  0
   14.8437    0.4382    1.2257 C   0  0  0  0  0  0  0  0  0  0  0  0
   16.1639    0.2409    1.4615 N   0  0  0  0  0  0  0  0  0  0  0  0
   13.1668    0.8194    0.0005 H   0  0  0  0  0  0  0  0  0  0  0  0
   13.1264    1.0088   -2.6286 H   0  0  0  0  0  0  0  0  0  0  0  0
   14.9648    0.8016   -4.5581 H   0  0  0  0  0  0  0  0  0  0  0  0
   16.8942    0.3715   -0.8304 H   0  0  0  0  0  0  0  0  0  0  0  0
   18.4049   -1.5822   -5.1994 H   0  0  0  0  0  0  0  0  0  0  0  0
   18.4129   -1.5395   -7.6458 H   0  0  0  0  0  0  0  0  0  0  0  0
   17.0499    1.2969   -9.5188 H   0  0  0  0  0  0  0  0  0  0  0  0
   16.7384   -1.2745   -9.6744 H   0  0  0  0  0  0  0  0  0  0  0  0
   17.4671   -0.3528  -11.0155 H   0  0  0  0  0  0  0  0  0  0  0  0
   18.5089   -1.2176   -9.8733 H   0  0  0  0  0  0  0  0  0  0  0  0
   16.9087    2.4861   -7.5682 H   0  0  0  0  0  0  0  0  0  0  0  0
   16.9165    2.4332   -5.1070 H   0  0  0  0  0  0  0  0  0  0  0  0
   20.2942    0.1661   -4.5446 H   0  0  0  0  0  0  0  0  0  0  0  0
   22.1250   -0.1397   -2.5980 H   0  0  0  0  0  0  0  0  0  0  0  0
   22.0434   -0.4996    2.6432 H   0  0  0  0  0  0  0  0  0  0  0  0
   20.1649   -0.5222    4.5442 H   0  0  0  0  0  0  0  0  0  0  0  0
   18.2710   -0.0758    0.7991 H   0  0  0  0  0  0  0  0  0  0  0  0
   16.5692    1.4805    5.3564 H   0  0  0  0  0  0  0  0  0  0  0  0
   16.4652    1.1376    7.7748 H   0  0  0  0  0  0  0  0  0  0  0  0
   17.9304   -1.8170    9.3646 H   0  0  0  0  0  0  0  0  0  0  0  0
   16.2290    0.5008    9.9252 H   0  0  0  0  0  0  0  0  0  0  0  0
   17.9961    0.7301    9.8723 H   0  0  0  0  0  0  0  0  0  0  0  0
   17.2689   -0.4198   11.0248 H   0  0  0  0  0  0  0  0  0  0  0  0
   18.2549   -2.7405    7.2911 H   0  0  0  0  0  0  0  0  0  0  0  0
   18.3355   -2.3905    4.8565 H   0  0  0  0  0  0  0  0  0  0  0  0
   14.7986   -0.1204    4.4792 H   0  0  0  0  0  0  0  0  0  0  0  0
   13.0194    0.4408    2.5414 H   0  0  0  0  0  0  0  0  0  0  0  0
   34.2978    0.5869   -0.0236 C   0  0  0  0  0  0  0  0  0  0  0  0
   33.6964    0.6880    1.2244 C   0  0  0  0  0  0  0  0  0  0  0  0
   34.3530    0.9056    2.4677 C   0  0  0  0  0  0  0  0  0  0  0  0
   33.4072    0.8769    3.4542 C   0  0  0  0  0  0  0  0  0  0  0  0
   32.1401    0.6555    2.8438 C   0  0  0  0  0  0  0  0  0  0  0  0
   32.3654    0.5489    1.5002 N   0  0  0  0  0  0  0  0  0  0  0  0
   30.8958    0.5307    3.4735 C   0  0  0  0  0  0  0  0  0  0  0  0
   30.8781    0.6765    4.9481 C   0  0  0  0  0  0  0  0  0  0  0  0
   30.4361   -0.3686    5.7611 C   0  0  0  0  0  0  0  0  0  0  0  0
   30.4362   -0.2519    7.1407 C   0  0  0  0  0  0  0  0  0  0  0  0
   30.8799    0.9277    7.7452 C   0  0  0  0  0  0  0  0  0  0  0  0
   30.8546    1.1181    9.1195 N   0  0  0  0  0  0  0  0  0  0  0  0
   30.9114   -0.0367   10.0060 C   0  0  0  0  0  0  0  0  0  0  0  0
   31.3057    1.9861    6.9334 C   0  0  0  0  0  0  0  0  0  0  0  0
   31.3107    1.8575    5.5572 C   0  0  0  0  0  0  0  0  0  0  0  0
   29.6886    0.2881    2.8127 C   0  0  0  0  0  0  0  0  0  0  0  0
   28.3967    0.2650    3.4738 C   0  0  0  0  0  0  0  0  0  0  0  0
   27.4757    0.0664    2.5076 C   0  0  0  0  0  0  0  0  0  0  0  0
   29.5305    0.1027    1.4729 N   0  0  0  0  0  0  0  0  0  0  0  0
   28.2061   -0.0344    1.2594 C   0  0  0  0  0  0  0  0  0  0  0  0
   27.5659   -0.2271    0.0180 C   0  0  0  0  0  0  0  0  0  0  0  0
   28.1963   -0.3502   -1.2354 C   0  0  0  0  0  0  0  0  0  0  0  0
   27.5479   -0.5509   -2.4820 C   0  0  0  0  0  0  0  0  0  0  0  0
   28.5099   -0.6162   -3.4525 C   0  0  0  0  0  0  0  0  0  0  0  0
   29.7769   -0.4590   -2.8265 C   0  0  0  0  0  0  0  0  0  0  0  0
   29.5349   -0.2994   -1.4872 N   0  0  0  0  0  0  0  0  0  0  0  0
   31.0315   -0.4218   -3.4473 C   0  0  0  0  0  0  0  0  0  0  0  0
   31.0651   -0.6742   -4.9055 C   0  0  0  0  0  0  0  0  0  0  0  0
   31.5981    0.2696   -5.7860 C   0  0  0  0  0  0  0  0  0  0  0  0
   31.6386    0.0351   -7.1498 C   0  0  0  0  0  0  0  0  0  0  0  0
   31.1426   -1.1632   -7.6714 C   0  0  0  0  0  0  0  0  0  0  0  0
   31.2138   -1.4774   -9.0202 N   0  0  0  0  0  0  0  0  0  0  0  0
   31.3014   -0.4105  -10.0078 C   0  0  0  0  0  0  0  0  0  0  0  0
   30.6128   -2.1160   -6.7924 C   0  0  0  0  0  0  0  0  0  0  0  0
   30.5700   -1.8706   -5.4332 C   0  0  0  0  0  0  0  0  0  0  0  0
   32.2377   -0.1599   -2.7868 C   0  0  0  0  0  0  0  0  0  0  0  0
   33.5425   -0.1673   -3.4296 C   0  0  0  0  0  0  0  0  0  0  0  0
   34.4431    0.1336   -2.4720 C   0  0  0  0  0  0  0  0  0  0  0  0
   33.6925    0.3041   -1.2411 C   0  0  0  0  0  0  0  0  0  0  0  0
   32.3691    0.1160   -1.4673 N   0  0  0  0  0  0  0  0  0  0  0  0
   35.3754    0.7175   -0.0347 H   0  0  0  0  0  0  0  0  0  0  0  0
   35.4155    1.0515    2.5809 H   0  0  0  0  0  0  0  0  0  0  0  0
   33.5703    0.9870    4.5141 H   0  0  0  0  0  0  0  0  0  0  0  0
   31.6416    0.3690    0.8124 H   0  0  0  0  0  0  0  0  0  0  0  0
   30.1068   -1.2957    5.3044 H   0  0  0  0  0  0  0  0  0  0  0  0
   30.0904   -1.0839    7.7419 H   0  0  0  0  0  0  0  0  0  0  0  0
   31.4708    1.8637    9.4206 H   0  0  0  0  0  0  0  0  0  0  0  0
   31.7544   -0.6926    9.7601 H   0  0  0  0  0  0  0  0  0  0  0  0
   31.0246    0.3279   11.0270 H   0  0  0  0  0  0  0  0  0  0  0  0
   29.9831   -0.6053    9.9396 H   0  0  0  0  0  0  0  0  0  0  0  0
   31.6338    2.9125    7.3930 H   0  0  0  0  0  0  0  0  0  0  0  0
   31.6345    2.6895    4.9413 H   0  0  0  0  0  0  0  0  0  0  0  0
   28.2354    0.4075    4.5301 H   0  0  0  0  0  0  0  0  0  0  0  0
   26.4040   -0.0048    2.6042 H   0  0  0  0  0  0  0  0  0  0  0  0
   26.4804   -0.6297   -2.6113 H   0  0  0  0  0  0  0  0  0  0  0  0
   28.3561   -0.7435   -4.5117 H   0  0  0  0  0  0  0  0  0  0  0  0
   30.2572   -0.1458   -0.7913 H   0  0  0  0  0  0  0  0  0  0  0  0
   31.9677    1.2121   -5.3970 H   0  0  0  0  0  0  0  0  0  0  0  0
   32.0587    0.7897   -7.8034 H   0  0  0  0  0  0  0  0  0  0  0  0
   30.5581   -2.2008   -9.2897 H   0  0  0  0  0  0  0  0  0  0  0  0
   32.2692    0.0874   -9.9352 H   0  0  0  0  0  0  0  0  0  0  0  0
   30.5041    0.3296   -9.8741 H   0  0  0  0  0  0  0  0  0  0  0  0
   31.2139   -0.8596  -10.9971 H   0  0  0  0  0  0  0  0  0  0  0  0
   30.2375   -3.0547   -7.1863 H   0  0  0  0  0  0  0  0  0  0  0  0
   30.1697   -2.6246   -4.7641 H   0  0  0  0  0  0  0  0  0  0  0  0
   33.7245   -0.3916   -4.4683 H   0  0  0  0  0  0  0  0  0  0  0  0
   35.5150    0.2222   -2.5567 H   0  0  0  0  0  0  0  0  0  0  0  0
   23.5891   -0.3005    0.0085 C   0  0  0  0  0  0  0  0  0  0  0  0
   22.3668   -0.2777    0.0035 C   0  0  0  0  0  0  0  0  0  0  0  0
   24.9386   -0.3040    0.0116 C   0  0  0  0  0  0  0  0  0  0  0  0
   26.1610   -0.2856    0.0149 C   0  0  0  0  0  0  0  0  0  0  0  0
  1  2  4  0  0  0  0
  2  3  4  0  0  0  0
  3  4  2  0  0  0  0
  4  5  4  0  0  0  0
  2  6  4  0  0  0  0
  5  6  4  0  0  0  0
  5  7  4  0  0  0  0
  7  8  1  0  0  0  0
  8  9  4  0  0  0  0
  9 10  4  0  0  0  0
 10 11  4  0  0  0  0
 11 12  1  0  0  0  0
 12 13  1  0  0  0  0
 11 14  4  0  0  0  0
  8 15  4  0  0  0  0
 14 15  4  0  0  0  0
  7 16  4  0  0  0  0
 16 17  1  0  0  0  0
 17 18  2  0  0  0  0
 16 19  4  0  0  0  0
 18 20  1  0  0  0  0
 19 20  4  0  0  0  0
 20 21  4  0  0  0  0
 21 22  4  0  0  0  0
 22 23  4  0  0  0  0
 23 24  2  0  0  0  0
 24 25  4  0  0  0  0
 22 26  4  0  0  0  0
 25 26  4  0  0  0  0
 25 27  4  0  0  0  0
 27 28  1  0  0  0  0
 28 29  4  0  0  0  0
 29 30  4  0  0  0  0
 30 31  4  0  0  0  0
 31 32  1  0  0  0  0
 32 33  1  0  0  0  0
 31 34  4  0  0  0  0
 28 35  4  0  0  0  0
 34 35  4  0  0  0  0
 27 36  4  0  0  0  0
 36 37  1  0  0  0  0
 37 38  2  0  0  0  0
  1 39  4  0  0  0  0
 38 39  1  0  0  0  0
 36 40  4  0  0  0  0
 39 40  4  0  0  0  0
  1 41  1  0  0  0  0
  3 42  1  0  0  0  0
  4 43  1  0  0  0  0
  6 44  1  0  0  0  0
  9 45  1  0  0  0  0
 10 46  1  0  0  0  0
 12 47  1  0  0  0  0
 13 48  1  0  0  0  0
 13 49  1  0  0  0  0
 13 50  1  0  0  0  0
 14 51  1  0  0  0  0
 15 52  1  0  0  0  0
 17 53  1  0  0  0  0
 18 54  1  0  0  0  0
 23 55  1  0  0  0  0
 24 56  1  0  0  0  0
 26 57  1  0  0  0  0
 29 58  1  0  0  0  0
 30 59  1  0  0  0  0
 32 60  1  0  0  0  0
 33 61  1  0  0  0  0
 33 62  1  0  0  0  0
 33 63  1  0  0  0  0
 34 64  1  0  0  0  0
 35 65  1  0  0  0  0
 37 66  1  0  0  0  0
 38 67  1  0  0  0  0
 68 69  4  0  0  0  0
 69 70  4  0  0  0  0
 70 71  2  0  0  0  0
 71 72  4  0  0  0  0
 69 73  4  0  0  0  0
 72 73  4  0  0  0  0
 72 74  4  0  0  0  0
 74 75  1  0  0  0  0
 75 76  4  0  0  0  0
 76 77  4  0  0  0  0
 77 78  4  0  0  0  0
 78 79  1  0  0  0  0
 79 80  1  0  0  0  0
 78 81  4  0  0  0  0
 75 82  4  0  0  0  0
 81 82  4  0  0  0  0
 74 83  4  0  0  0  0
 83 84  1  0  0  0  0
 84 85  2  0  0  0  0
 83 86  4  0  0  0  0
 85 87  1  0  0  0  0
 86 87  4  0  0  0  0
 87 88  4  0  0  0  0
 88 89  4  0  0  0  0
 89 90  4  0  0  0  0
 90 91  2  0  0  0  0
 91 92  4  0  0  0  0
 89 93  4  0  0  0  0
 92 93  4  0  0  0  0
 92 94  4  0  0  0  0
 94 95  1  0  0  0  0
 95 96  4  0  0  0  0
 96 97  4  0  0  0  0
 97 98  4  0  0  0  0
 98 99  1  0  0  0  0
 99100  1  0  0  0  0
 98101  4  0  0  0  0
 95102  4  0  0  0  0
101102  4  0  0  0  0
 94103  4  0  0  0  0
103104  1  0  0  0  0
104105  2  0  0  0  0
 68106  4  0  0  0  0
105106  1  0  0  0  0
103107  4  0  0  0  0
106107  4  0  0  0  0
 68108  1  0  0  0  0
 70109  1  0  0  0  0
 71110  1  0  0  0  0
 73111  1  0  0  0  0
 76112  1  0  0  0  0
 77113  1  0  0  0  0
 79114  1  0  0  0  0
 80115  1  0  0  0  0
 80116  1  0  0  0  0
 80117  1  0  0  0  0
 81118  1  0  0  0  0
 82119  1  0  0  0  0
 84120  1  0  0  0  0
 85121  1  0  0  0  0
 90122  1  0  0  0  0
 91123  1  0  0  0  0
 93124  1  0  0  0  0
 96125  1  0  0  0  0
 97126  1  0  0  0  0
 99127  1  0  0  0  0
100128  1  0  0  0  0
100129  1  0  0  0  0
100130  1  0  0  0  0
101131  1  0  0  0  0
102132  1  0  0  0  0
104133  1  0  0  0  0
105134  1  0  0  0  0
 21136  4  0  0  0  0
135136  3  0  0  0  0
135137  4  0  0  0  0
 88138  4  0  0  0  0
137138  3  0  0  0  0
M  END
