600

C 137.547824 -0.028396 0.078406
C 138.281700 1.194663 0.709568
C 137.687630 2.215167 1.416589
C 138.712715 3.136789 1.755873
C 139.897133 2.651943 1.234958
N 139.629922 1.439392 0.649793
C 141.317275 3.356867 1.272653
C 141.309009 4.791496 1.593222
C 140.999431 5.683442 0.627611
C 140.930500 7.164390 0.833694
N 141.377297 7.553602 2.169306
C 141.615947 6.623655 3.154483
C 141.609800 5.305153 2.924098
C 142.443274 2.657471 0.969140
C 143.742693 3.295251 0.939697
C 144.645530 2.388595 0.583990
N 142.641136 1.344856 0.629688
C 143.970152 1.121402 0.378011
C 144.636468 -0.002312 0.001185
C 143.858629 -1.372161 -0.195835
C 144.398480 -2.639624 -0.096469
C 143.372464 -3.566946 -0.406747
C 142.231128 -2.841168 -0.676854
N 142.523926 -1.509852 -0.491048
C 140.817906 -3.423930 -1.100874
C 140.827788 -4.758280 -1.714153
C 140.436245 -5.829398 -0.989536
C 140.365643 -7.228564 -1.517135
N 140.923344 -7.338416 -2.864318
C 141.227298 -6.220277 -3.608928
C 141.209194 -4.981294 -3.102815
C 139.696541 -2.681890 -0.904655
C 138.376187 -3.145959 -1.291858
C 137.490019 -2.212758 -0.955772
C 138.210811 -1.117085 -0.354829
N 139.531897 -1.439844 -0.357654
H 136.470640 0.022571 -0.023297
H 136.637179 2.294552 1.649753
H 138.596439 4.062886 2.298240
H 140.324825 0.817048 0.244869
H 140.772210 5.314293 -0.368960
H 139.898782 7.502482 0.685656
H 141.559052 7.668507 0.092232
H 141.075114 8.464270 2.490418
H 141.821890 7.029040 4.138878
H 141.817377 4.578557 3.702398
H 143.945919 4.329048 1.157219
H 145.696935 2.583623 0.475993
H 145.421255 -2.874886 0.157097
H 143.457360 -4.643017 -0.437986
H 141.841098 -0.757092 -0.514867
H 140.127538 -5.674670 0.041755
H 139.320665 -7.557244 -1.529762
H 140.921179 -7.899141 -0.853436
H 140.598480 -8.131380 -3.402910
H 141.489826 -6.407599 -4.644342
H 141.460171 -4.108493 -3.696627
H 138.152478 -4.080614 -1.773212
H 136.427319 -2.255147 -1.111701
C 242.949710 -0.020851 0.080556
C 242.215834 -1.392894 -0.027775
C 242.809904 -2.632794 0.035126
C 241.784819 -3.594825 -0.162351
C 240.600401 -2.908224 -0.349453
N 240.867612 -1.569355 -0.207572
C 239.180259 -3.527134 -0.688994
C 239.188525 -4.915251 -1.172788
C 239.498103 -5.164237 -2.463516
C 239.567034 -6.531368 -3.069014
N 239.120237 -7.566137 -2.139176
C 238.881587 -7.295172 -0.811791
C 238.887734 -6.053277 -0.312571
C 238.054259 -2.772805 -0.578257
C 236.754841 -3.299269 -0.939460
C 235.852004 -2.341298 -0.763829
N 237.856397 -1.478421 -0.174826
C 236.527381 -1.155869 -0.270914
C 235.861065 -0.002312 0.001185
C 236.638904 1.265630 0.555824
C 236.099053 2.290337 1.308360
C 237.125070 3.241923 1.533490
C 238.266406 2.767537 0.921388
N 237.973607 1.538250 0.377531
C 239.679627 3.486272 0.868239
C 239.669745 4.943463 1.050431
C 240.061289 5.471739 2.230807
C 240.131890 6.938848 2.519975
N 239.574189 7.742317 1.433050
C 239.270235 7.184622 0.210898
C 239.288339 5.864961 -0.012093
C 240.800993 2.752259 0.643847
C 242.121347 3.350723 0.559420
C 243.007515 2.380538 0.353123
C 242.286722 1.132676 0.286257
N 240.965637 1.408444 0.453987
H 244.026894 -0.010554 -0.032736
H 243.860354 -2.823159 0.191424
H 241.901095 -4.667706 -0.189607
H 240.172709 -0.827050 -0.223629
H 239.725324 -4.325230 -3.115814
H 240.598752 -6.740644 -3.373029
H 238.938481 -6.568930 -3.964832
H 239.422420 -8.509280 -2.346322
H 238.675644 -8.158554 -0.188940
H 238.680156 -5.846070 0.731823
H 236.551614 -4.292443 -1.299539
H 234.800599 -2.450105 -0.958406
H 235.076278 2.356603 1.647849
H 237.040174 4.172829 2.074155
H 238.656436 0.911113 -0.039499
H 240.369995 4.796645 3.025634
H 241.176868 7.224815 2.682496
H 239.576355 7.158857 3.437452
H 239.899053 8.700072 1.393338
H 239.007707 7.889587 -0.570252
H 239.037362 5.436265 -0.976777
H 242.345055 4.398716 0.643036
H 244.070215 2.498752 0.242958
C 146.652725 -0.002312 0.001185
C 147.874642 -0.002312 0.001185
C 157.398995 -0.002312 0.001185
C 158.620913 -0.002312 0.001185
C 168.145266 -0.002312 0.001185
C 169.367184 -0.002312 0.001185
C 178.891537 -0.002312 0.001185
C 180.113455 -0.002312 0.001185
C 189.637808 -0.002312 0.001185
C 190.859726 -0.002312 0.001185
C 200.384079 -0.002312 0.001185
C 201.605996 -0.002312 0.001185
C 211.130350 -0.002312 0.001185
C 212.352267 -0.002312 0.001185
C 221.876620 -0.002312 0.001185
C 223.098538 -0.002312 0.001185
C 232.622891 -0.002312 0.001185
C 233.844809 -0.002312 0.001185
C 149.024936 0.000678 -0.000347
C 149.800628 -0.146888 1.378750
C 149.227451 -0.127673 2.634610
C 150.267950 -0.267469 3.580754
C 151.453967 -0.366350 2.882309
N 151.160801 -0.286701 1.540745
C 152.893569 -0.513772 3.527808
C 152.917178 -0.763785 4.978332
C 152.856262 -2.035097 5.429824
C 152.915523 -2.422740 6.874541
N 152.878560 -1.257958 7.758320
C 153.049904 0.018528 7.271450
C 153.062396 0.301723 5.963325
C 154.019482 -0.405011 2.774738
C 155.331587 -0.484053 3.382702
C 156.243508 -0.323385 2.432745
N 154.216272 -0.213646 1.432937
C 155.561107 -0.159539 1.164306
C 156.243969 0.000678 -0.000347
C 155.466917 0.105972 -1.381179
C 156.033389 0.017403 -2.637215
C 154.992958 0.152333 -3.584391
C 153.814498 0.317068 -2.885361
N 154.110385 0.272663 -1.543227
C 152.378521 0.496478 -3.528416
C 152.359295 0.764865 -4.975476
C 152.463526 2.038421 -5.412528
C 152.412248 2.444490 -6.852386
N 152.407411 1.289477 -7.749979
C 152.191487 0.014415 -7.276979
C 152.172706 -0.283191 -5.972204
C 151.252011 0.399991 -2.774572
C 149.940879 0.515678 -3.378274
C 149.027923 0.361306 -2.428499
C 149.709152 0.163926 -1.163929
N 151.054066 0.194054 -1.434923
H 148.177425 -0.016036 2.856520
H 150.163640 -0.283723 4.655603
H 151.845530 -0.287171 0.788265
H 152.775019 -2.841543 4.705852
H 153.834823 -2.988832 7.059553
H 152.067194 -3.071244 7.116061
H 153.243821 -1.411502 8.689940
H 153.171723 0.791197 8.022742
H 153.192260 1.311512 5.588700
H 155.541637 -0.634559 4.426640
H 157.304752 -0.332587 2.600607
H 157.078911 -0.134006 -2.857185
H 155.091924 0.125963 -4.659805
H 153.428378 0.310140 -0.789418
H 152.575739 2.833224 -4.679843
H 151.511157 3.042322 -7.027351
H 153.280404 3.067910 -7.089792
H 152.042391 1.466726 -8.677412
H 152.038177 -0.744335 -8.036421
H 152.006000 -1.291547 -5.608695
H 149.732093 0.686142 -4.419418
H 147.966852 0.395841 -2.594112
C 159.771207 0.000678 -0.000347
C 160.546899 -0.146888 1.378750
C 159.973722 -0.127673 2.634610
C 161.014221 -0.267469 3.580754
C 162.200238 -0.366350 2.882309
N 161.907072 -0.286701 1.540745
C 163.639840 -0.513772 3.527808
C 163.663449 -0.763785 4.978332
C 163.602533 -2.035097 5.429824
C 163.661794 -2.422740 6.874541
N 163.624831 -1.257958 7.758320
C 163.796175 0.018528 7.271450
C 163.808667 0.301723 5.963325
C 164.765753 -0.405011 2.774738
C 166.077858 -0.484053 3.382702
C 166.989778 -0.323385 2.432745
N 164.962543 -0.213646 1.432937
C 166.307378 -0.159539 1.164306
C 166.990240 0.000678 -0.000347
C 166.213188 0.105972 -1.381179
C 166.779660 0.017403 -2.637215
C 165.739229 0.152333 -3.584391
C 164.560769 0.317068 -2.885361
N 164.856656 0.272663 -1.543227
C 163.124792 0.496478 -3.528416
C 163.105566 0.764865 -4.975476
C 163.209796 2.038421 -5.412528
C 163.158519 2.444490 -6.852386
N 163.153682 1.289477 -7.749979
C 162.937758 0.014415 -7.276979
C 162.918977 -0.283191 -5.972204
C 161.998282 0.399991 -2.774572
C 160.687150 0.515678 -3.378274
C 159.774194 0.361306 -2.428499
C 160.455423 0.163926 -1.163929
N 161.800337 0.194054 -1.434923
H 158.923696 -0.016036 2.856520
H 160.909911 -0.283723 4.655603
H 162.591801 -0.287171 0.788265
H 163.521290 -2.841543 4.705852
H 164.581094 -2.988832 7.059553
H 162.813465 -3.071244 7.116061
H 163.990092 -1.411502 8.689940
H 163.917994 0.791197 8.022742
H 163.938531 1.311512 5.588700
H 166.287908 -0.634559 4.426640
H 168.051022 -0.332587 2.600607
H 167.825181 -0.134006 -2.857185
H 165.838195 0.125963 -4.659805
H 164.174648 0.310140 -0.789418
H 163.322010 2.833224 -4.679843
H 162.257428 3.042322 -7.027351
H 164.026675 3.067910 -7.089792
H 162.788662 1.466726 -8.677412
H 162.784448 -0.744335 -8.036421
H 162.752271 -1.291547 -5.608695
H 160.478364 0.686142 -4.419418
H 158.713123 0.395841 -2.594112
C 170.517478 0.000678 -0.000347
C 171.293170 -0.146888 1.378750
C 170.719993 -0.127673 2.634610
C 171.760491 -0.267469 3.580754
C 172.946509 -0.366350 2.882309
N 172.653343 -0.286701 1.540745
C 174.386111 -0.513772 3.527808
C 174.409719 -0.763785 4.978332
C 174.348804 -2.035097 5.429824
C 174.408065 -2.422740 6.874541
N 174.371102 -1.257958 7.758320
C 174.542446 0.018528 7.271450
C 174.554938 0.301723 5.963325
C 175.512024 -0.405011 2.774738
C 176.824129 -0.484053 3.382702
C 177.736049 -0.323385 2.432745
N 175.708814 -0.213646 1.432937
C 177.053649 -0.159539 1.164306
C 177.736510 0.000678 -0.000347
C 176.959459 0.105972 -1.381179
C 177.525931 0.017403 -2.637215
C 176.485500 0.152333 -3.584391
C 175.307040 0.317068 -2.885361
N 175.602926 0.272663 -1.543227
C 173.871062 0.496478 -3.528416
C 173.851836 0.764865 -4.975476
C 173.956067 2.038421 -5.412528
C 173.904790 2.444490 -6.852386
N 173.899953 1.289477 -7.749979
C 173.684029 0.014415 -7.276979
C 173.665248 -0.283191 -5.972204
C 172.744553 0.399991 -2.774572
C 171.433421 0.515678 -3.378274
C 170.520465 0.361306 -2.428499
C 171.201694 0.163926 -1.163929
N 172.546608 0.194054 -1.434923
H 169.669967 -0.016036 2.856520
H 171.656182 -0.283723 4.655603
H 173.338072 -0.287171 0.788265
H 174.267561 -2.841543 4.705852
H 175.327365 -2.988832 7.059553
H 173.559736 -3.071244 7.116061
H 174.736363 -1.411502 8.689940
H 174.664265 0.791197 8.022742
H 174.684801 1.311512 5.588700
H 177.034179 -0.634559 4.426640
H 178.797293 -0.332587 2.600607
H 178.571452 -0.134006 -2.857185
H 176.584466 0.125963 -4.659805
H 174.920919 0.310140 -0.789418
H 174.068280 2.833224 -4.679843
H 173.003699 3.042322 -7.027351
H 174.772946 3.067910 -7.089792
H 173.534933 1.466726 -8.677412
H 173.530719 -0.744335 -8.036421
H 173.498542 -1.291547 -5.608695
H 171.224634 0.686142 -4.419418
H 169.459394 0.395841 -2.594112
C 181.263748 0.000678 -0.000347
C 182.039441 -0.146888 1.378750
C 181.466264 -0.127673 2.634610
C 182.506762 -0.267469 3.580754
C 183.692780 -0.366350 2.882309
N 183.399613 -0.286701 1.540745
C 185.132382 -0.513772 3.527808
C 185.155990 -0.763785 4.978332
C 185.095075 -2.035097 5.429824
C 185.154336 -2.422740 6.874541
N 185.117373 -1.257958 7.758320
C 185.288716 0.018528 7.271450
C 185.301209 0.301723 5.963325
C 186.258295 -0.405011 2.774738
C 187.570400 -0.484053 3.382702
C 188.482320 -0.323385 2.432745
N 186.455085 -0.213646 1.432937
C 187.799920 -0.159539 1.164306
C 188.482781 0.000678 -0.000347
C 187.705729 0.105972 -1.381179
C 188.272202 0.017403 -2.637215
C 187.231771 0.152333 -3.584391
C 186.053311 0.317068 -2.885361
N 186.349197 0.272663 -1.543227
C 184.617333 0.496478 -3.528416
C 184.598107 0.764865 -4.975476
C 184.702338 2.038421 -5.412528
C 184.651061 2.444490 -6.852386
N 184.646223 1.289477 -7.749979
C 184.430299 0.014415 -7.276979
C 184.411519 -0.283191 -5.972204
C 183.490823 0.399991 -2.774572
C 182.179691 0.515678 -3.378274
C 181.266736 0.361306 -2.428499
C 181.947964 0.163926 -1.163929
N 183.292878 0.194054 -1.434923
H 180.416238 -0.016036 2.856520
H 182.402453 -0.283723 4.655603
H 184.084343 -0.287171 0.788265
H 185.013832 -2.841543 4.705852
H 186.073636 -2.988832 7.059553
H 184.306007 -3.071244 7.116061
H 185.482634 -1.411502 8.689940
H 185.410535 0.791197 8.022742
H 185.431072 1.311512 5.588700
H 187.780449 -0.634559 4.426640
H 189.543564 -0.332587 2.600607
H 189.317723 -0.134006 -2.857185
H 187.330736 0.125963 -4.659805
H 185.667190 0.310140 -0.789418
H 184.814551 2.833224 -4.679843
H 183.749970 3.042322 -7.027351
H 185.519217 3.067910 -7.089792
H 184.281204 1.466726 -8.677412
H 184.276990 -0.744335 -8.036421
H 184.244813 -1.291547 -5.608695
H 181.970905 0.686142 -4.419418
H 180.205665 0.395841 -2.594112
C 192.010019 0.000678 -0.000347
C 192.785712 -0.146888 1.378750
C 192.212535 -0.127673 2.634610
C 193.253033 -0.267469 3.580754
C 194.439050 -0.366350 2.882309
N 194.145884 -0.286701 1.540745
C 195.878653 -0.513772 3.527808
C 195.902261 -0.763785 4.978332
C 195.841346 -2.035097 5.429824
C 195.900607 -2.422740 6.874541
N 195.863643 -1.257958 7.758320
C 196.034987 0.018528 7.271450
C 196.047480 0.301723 5.963325
C 197.004566 -0.405011 2.774738
C 198.316671 -0.484053 3.382702
C 199.228591 -0.323385 2.432745
N 197.201356 -0.213646 1.432937
C 198.546191 -0.159539 1.164306
C 199.229052 0.000678 -0.000347
C 198.452000 0.105972 -1.381179
C 199.018472 0.017403 -2.637215
C 197.978042 0.152333 -3.584391
C 196.799582 0.317068 -2.885361
N 197.095468 0.272663 -1.543227
C 195.363604 0.496478 -3.528416
C 195.344378 0.764865 -4.975476
C 195.448609 2.038421 -5.412528
C 195.397332 2.444490 -6.852386
N 195.392494 1.289477 -7.749979
C 195.176570 0.014415 -7.276979
C 195.157790 -0.283191 -5.972204
C 194.237094 0.399991 -2.774572
C 192.925962 0.515678 -3.378274
C 192.013007 0.361306 -2.428499
C 192.694235 0.163926 -1.163929
N 194.039149 0.194054 -1.434923
H 191.162509 -0.016036 2.856520
H 193.148724 -0.283723 4.655603
H 194.830614 -0.287171 0.788265
H 195.760103 -2.841543 4.705852
H 196.819907 -2.988832 7.059553
H 195.052278 -3.071244 7.116061
H 196.228904 -1.411502 8.689940
H 196.156806 0.791197 8.022742
H 196.177343 1.311512 5.588700
H 198.526720 -0.634559 4.426640
H 200.289835 -0.332587 2.600607
H 200.063994 -0.134006 -2.857185
H 198.077007 0.125963 -4.659805
H 196.413461 0.310140 -0.789418
H 195.560822 2.833224 -4.679843
H 194.496240 3.042322 -7.027351
H 196.265488 3.067910 -7.089792
H 195.027474 1.466726 -8.677412
H 195.023260 -0.744335 -8.036421
H 194.991084 -1.291547 -5.608695
H 192.717176 0.686142 -4.419418
H 190.951935 0.395841 -2.594112
C 202.756290 0.000678 -0.000347
C 203.531983 -0.146888 1.378750
C 202.958805 -0.127673 2.634610
C 203.999304 -0.267469 3.580754
C 205.185321 -0.366350 2.882309
N 204.892155 -0.286701 1.540745
C 206.624923 -0.513772 3.527808
C 206.648532 -0.763785 4.978332
C 206.587616 -2.035097 5.429824
C 206.646877 -2.422740 6.874541
N 206.609914 -1.257958 7.758320
C 206.781258 0.018528 7.271450
C 206.793751 0.301723 5.963325
C 207.750836 -0.405011 2.774738
C 209.062941 -0.484053 3.382702
C 209.974862 -0.323385 2.432745
N 207.947627 -0.213646 1.432937
C 209.292462 -0.159539 1.164306
C 209.975323 0.000678 -0.000347
C 209.198271 0.105972 -1.381179
C 209.764743 0.017403 -2.637215
C 208.724313 0.152333 -3.584391
C 207.545853 0.317068 -2.885361
N 207.841739 0.272663 -1.543227
C 206.109875 0.496478 -3.528416
C 206.090649 0.764865 -4.975476
C 206.194880 2.038421 -5.412528
C 206.143602 2.444490 -6.852386
N 206.138765 1.289477 -7.749979
C 205.922841 0.014415 -7.276979
C 205.904061 -0.283191 -5.972204
C 204.983365 0.399991 -2.774572
C 203.672233 0.515678 -3.378274
C 202.759277 0.361306 -2.428499
C 203.440506 0.163926 -1.163929
N 204.785420 0.194054 -1.434923
H 201.908780 -0.016036 2.856520
H 203.894995 -0.283723 4.655603
H 205.576885 -0.287171 0.788265
H 206.506374 -2.841543 4.705852
H 207.566178 -2.988832 7.059553
H 205.798548 -3.071244 7.116061
H 206.975175 -1.411502 8.689940
H 206.903077 0.791197 8.022742
H 206.923614 1.311512 5.588700
H 209.272991 -0.634559 4.426640
H 211.036106 -0.332587 2.600607
H 210.810265 -0.134006 -2.857185
H 208.823278 0.125963 -4.659805
H 207.159732 0.310140 -0.789418
H 206.307093 2.833224 -4.679843
H 205.242511 3.042322 -7.027351
H 207.011759 3.067910 -7.089792
H 205.773745 1.466726 -8.677412
H 205.769531 -0.744335 -8.036421
H 205.737354 -1.291547 -5.608695
H 203.463447 0.686142 -4.419418
H 201.698206 0.395841 -2.594112
C 213.502561 0.000678 -0.000347
C 214.278253 -0.146888 1.378750
C 213.705076 -0.127673 2.634610
C 214.745575 -0.267469 3.580754
C 215.931592 -0.366350 2.882309
N 215.638426 -0.286701 1.540745
C 217.371194 -0.513772 3.527808
C 217.394803 -0.763785 4.978332
C 217.333887 -2.035097 5.429824
C 217.393148 -2.422740 6.874541
N 217.356185 -1.257958 7.758320
C 217.527529 0.018528 7.271450
C 217.540021 0.301723 5.963325
C 218.497107 -0.405011 2.774738
C 219.809212 -0.484053 3.382702
C 220.721133 -0.323385 2.432745
N 218.693897 -0.213646 1.432937
C 220.038732 -0.159539 1.164306
C 220.721594 0.000678 -0.000347
C 219.944542 0.105972 -1.381179
C 220.511014 0.017403 -2.637215
C 219.470583 0.152333 -3.584391
C 218.292123 0.317068 -2.885361
N 218.588010 0.272663 -1.543227
C 216.856146 0.496478 -3.528416
C 216.836920 0.764865 -4.975476
C 216.941150 2.038421 -5.412528
C 216.889873 2.444490 -6.852386
N 216.885036 1.289477 -7.749979
C 216.669112 0.014415 -7.276979
C 216.650331 -0.283191 -5.972204
C 215.729636 0.399991 -2.774572
C 214.418504 0.515678 -3.378274
C 213.505548 0.361306 -2.428499
C 214.186777 0.163926 -1.163929
N 215.531691 0.194054 -1.434923
H 212.655050 -0.016036 2.856520
H 214.641265 -0.283723 4.655603
H 216.323155 -0.287171 0.788265
H 217.252644 -2.841543 4.705852
H 218.312448 -2.988832 7.059553
H 216.544819 -3.071244 7.116061
H 217.721446 -1.411502 8.689940
H 217.649348 0.791197 8.022742
H 217.669885 1.311512 5.588700
H 220.019262 -0.634559 4.426640
H 221.782377 -0.332587 2.600607
H 221.556536 -0.134006 -2.857185
H 219.569549 0.125963 -4.659805
H 217.906003 0.310140 -0.789418
H 217.053364 2.833224 -4.679843
H 215.988782 3.042322 -7.027351
H 217.758029 3.067910 -7.089792
H 216.520016 1.466726 -8.677412
H 216.515802 -0.744335 -8.036421
H 216.483625 -1.291547 -5.608695
H 214.209718 0.686142 -4.419418
H 212.444477 0.395841 -2.594112
C 224.248832 0.000678 -0.000347
C 225.024524 -0.146888 1.378750
C 224.451347 -0.127673 2.634610
C 225.491846 -0.267469 3.580754
C 226.677863 -0.366350 2.882309
N 226.384697 -0.286701 1.540745
C 228.117465 -0.513772 3.527808
C 228.141074 -0.763785 4.978332
C 228.080158 -2.035097 5.429824
C 228.139419 -2.422740 6.874541
N 228.102456 -1.257958 7.758320
C 228.273800 0.018528 7.271450
C 228.286292 0.301723 5.963325
C 229.243378 -0.405011 2.774738
C 230.555483 -0.484053 3.382702
C 231.467403 -0.323385 2.432745
N 229.440168 -0.213646 1.432937
C 230.785003 -0.159539 1.164306
C 231.467865 0.000678 -0.000347
C 230.690813 0.105972 -1.381179
C 231.257285 0.017403 -2.637215
C 230.216854 0.152333 -3.584391
C 229.038394 0.317068 -2.885361
N 229.334281 0.272663 -1.543227
C 227.602417 0.496478 -3.528416
C 227.583191 0.764865 -4.975476
C 227.687421 2.038421 -5.412528
C 227.636144 2.444490 -6.852386
N 227.631307 1.289477 -7.749979
C 227.415383 0.014415 -7.276979
C 227.396602 -0.283191 -5.972204
C 226.475907 0.399991 -2.774572
C 225.164775 0.515678 -3.378274
C 224.251819 0.361306 -2.428499
C 224.933048 0.163926 -1.163929
N 226.277962 0.194054 -1.434923
H 223.401321 -0.016036 2.856520
H 225.387536 -0.283723 4.655603
H 227.069426 -0.287171 0.788265
H 227.998915 -2.841543 4.705852
H 229.058719 -2.988832 7.059553
H 227.291090 -3.071244 7.116061
H 228.467717 -1.411502 8.689940
H 228.395619 0.791197 8.022742
H 228.416156 1.311512 5.588700
H 230.765533 -0.634559 4.426640
H 232.528647 -0.332587 2.600607
H 232.302806 -0.134006 -2.857185
H 230.315820 0.125963 -4.659805
H 228.652273 0.310140 -0.789418
H 227.799635 2.833224 -4.679843
H 226.735053 3.042322 -7.027351
H 228.504300 3.067910 -7.089792
H 227.266287 1.466726 -8.677412
H 227.262073 -0.744335 -8.036421
H 227.229896 -1.291547 -5.608695
H 224.955989 0.686142 -4.419418
H 223.190748 0.395841 -2.594112
