 xtb: 6.5.1 (b24c23e)
          07302203343D

233262  0     0  0            999 V2000
   30.4707    0.0488   -0.0729 Co  0  0  0  0  0  0  0  0  0  0  0  0
   27.0848    0.1453   -0.2115 C   0  0  0  0  0  0  0  0  0  0  0  0
   27.7400    1.1578    0.4548 C   0  0  0  0  0  0  0  0  0  0  0  0
   27.0676    2.2428    1.1033 C   0  0  0  0  0  0  0  0  0  0  0  0
   28.0294    3.0829    1.5511 C   0  0  0  0  0  0  0  0  0  0  0  0
   29.2870    2.5131    1.1658 C   0  0  0  0  0  0  0  0  0  0  0  0
   29.1016    1.3121    0.5289 N   0  0  0  0  0  0  0  0  0  0  0  0
   30.4995    3.1639    1.3237 C   0  0  0  0  0  0  0  0  0  0  0  0
   30.5150    4.5219    1.9359 C   0  0  0  0  0  0  0  0  0  0  0  0
   30.3196    5.6512    1.1357 C   0  0  0  0  0  0  0  0  0  0  0  0
   30.0893    5.4947   -0.3439 C   0  0  0  0  0  0  0  0  0  0  0  0
   30.3390    6.9128    1.7190 C   0  0  0  0  0  0  0  0  0  0  0  0
   30.5481    7.0654    3.0857 C   0  0  0  0  0  0  0  0  0  0  0  0
   30.5876    8.4372    3.7030 C   0  0  0  0  0  0  0  0  0  0  0  0
   30.7419    5.9342    3.8720 C   0  0  0  0  0  0  0  0  0  0  0  0
   30.7278    4.6631    3.3103 C   0  0  0  0  0  0  0  0  0  0  0  0
   30.9395    3.4431    4.1666 C   0  0  0  0  0  0  0  0  0  0  0  0
   31.6966    2.6033    0.9154 C   0  0  0  0  0  0  0  0  0  0  0  0
   32.9575    3.2724    1.0253 C   0  0  0  0  0  0  0  0  0  0  0  0
   33.9034    2.3863    0.6333 C   0  0  0  0  0  0  0  0  0  0  0  0
   31.8657    1.3254    0.4323 N   0  0  0  0  0  0  0  0  0  0  0  0
   33.2175    1.1796    0.2922 C   0  0  0  0  0  0  0  0  0  0  0  0
   33.8795   -0.0042   -0.0386 C   0  0  0  0  0  0  0  0  0  0  0  0
   33.1896   -1.1775   -0.3490 C   0  0  0  0  0  0  0  0  0  0  0  0
   33.8442   -2.4163   -0.6315 C   0  0  0  0  0  0  0  0  0  0  0  0
   32.8752   -3.2975   -0.9750 C   0  0  0  0  0  0  0  0  0  0  0  0
   31.6330   -2.5882   -0.9106 C   0  0  0  0  0  0  0  0  0  0  0  0
   31.8348   -1.2940   -0.4858 N   0  0  0  0  0  0  0  0  0  0  0  0
   30.4303   -3.1221   -1.3366 C   0  0  0  0  0  0  0  0  0  0  0  0
   30.4089   -4.5098   -1.8781 C   0  0  0  0  0  0  0  0  0  0  0  0
   30.6695   -4.7344   -3.2333 C   0  0  0  0  0  0  0  0  0  0  0  0
   30.9781   -3.5748   -4.1423 C   0  0  0  0  0  0  0  0  0  0  0  0
   30.6426   -6.0330   -3.7270 C   0  0  0  0  0  0  0  0  0  0  0  0
   30.3626   -7.1103   -2.8916 C   0  0  0  0  0  0  0  0  0  0  0  0
   30.3196   -8.5079   -3.4480 C   0  0  0  0  0  0  0  0  0  0  0  0
   30.1067   -6.8748   -1.5453 C   0  0  0  0  0  0  0  0  0  0  0  0
   30.1271   -5.5838   -1.0296 C   0  0  0  0  0  0  0  0  0  0  0  0
   29.8491   -5.3361    0.4291 C   0  0  0  0  0  0  0  0  0  0  0  0
   29.2461   -2.4042   -1.2924 C   0  0  0  0  0  0  0  0  0  0  0  0
   27.9939   -2.9152   -1.7669 C   0  0  0  0  0  0  0  0  0  0  0  0
   27.0545   -1.9901   -1.4617 C   0  0  0  0  0  0  0  0  0  0  0  0
   27.7340   -0.9199   -0.7959 C   0  0  0  0  0  0  0  0  0  0  0  0
   29.0829   -1.1647   -0.7282 N   0  0  0  0  0  0  0  0  0  0  0  0
   26.0031    0.1810   -0.2657 H   0  0  0  0  0  0  0  0  0  0  0  0
   25.9962    2.3326    1.1882 H   0  0  0  0  0  0  0  0  0  0  0  0
   27.9190    4.0136    2.0840 H   0  0  0  0  0  0  0  0  0  0  0  0
   29.1604    4.9506   -0.5261 H   0  0  0  0  0  0  0  0  0  0  0  0
   30.9031    4.9265   -0.7977 H   0  0  0  0  0  0  0  0  0  0  0  0
   30.0249    6.4665   -0.8325 H   0  0  0  0  0  0  0  0  0  0  0  0
   30.1877    7.7896    1.0979 H   0  0  0  0  0  0  0  0  0  0  0  0
   30.2239    8.4113    4.7305 H   0  0  0  0  0  0  0  0  0  0  0  0
   31.6149    8.8091    3.7163 H   0  0  0  0  0  0  0  0  0  0  0  0
   29.9803    9.1390    3.1309 H   0  0  0  0  0  0  0  0  0  0  0  0
   30.9054    6.0439    4.9391 H   0  0  0  0  0  0  0  0  0  0  0  0
   31.8433    2.9156    3.8554 H   0  0  0  0  0  0  0  0  0  0  0  0
   31.0399    3.7169    5.2164 H   0  0  0  0  0  0  0  0  0  0  0  0
   30.0990    2.7547    4.0618 H   0  0  0  0  0  0  0  0  0  0  0  0
   33.0835    4.2877    1.3649 H   0  0  0  0  0  0  0  0  0  0  0  0
   34.9726    2.5161    0.5849 H   0  0  0  0  0  0  0  0  0  0  0  0
   34.9095   -2.5716   -0.5730 H   0  0  0  0  0  0  0  0  0  0  0  0
   32.9744   -4.3321   -1.2609 H   0  0  0  0  0  0  0  0  0  0  0  0
   30.1694   -2.8424   -4.1124 H   0  0  0  0  0  0  0  0  0  0  0  0
   31.1092   -3.9105   -5.1706 H   0  0  0  0  0  0  0  0  0  0  0  0
   31.8932   -3.0745   -3.8192 H   0  0  0  0  0  0  0  0  0  0  0  0
   30.8443   -6.2084   -4.7787 H   0  0  0  0  0  0  0  0  0  0  0  0
   31.1121   -8.6557   -4.1825 H   0  0  0  0  0  0  0  0  0  0  0  0
   30.4314   -9.2474   -2.6550 H   0  0  0  0  0  0  0  0  0  0  0  0
   29.3623   -8.6814   -3.9450 H   0  0  0  0  0  0  0  0  0  0  0  0
   29.8889   -7.7085   -0.8858 H   0  0  0  0  0  0  0  0  0  0  0  0
   28.9471   -4.7318    0.5444 H   0  0  0  0  0  0  0  0  0  0  0  0
   30.6765   -4.7905    0.8863 H   0  0  0  0  0  0  0  0  0  0  0  0
   29.7102   -6.2751    0.9639 H   0  0  0  0  0  0  0  0  0  0  0  0
   27.8707   -3.8652   -2.2617 H   0  0  0  0  0  0  0  0  0  0  0  0
   25.9926   -2.0156   -1.6482 H   0  0  0  0  0  0  0  0  0  0  0  0
   62.4291    0.0016   -0.1049 Co  0  0  0  0  0  0  0  0  0  0  0  0
   65.8092    0.0124   -0.2438 C   0  0  0  0  0  0  0  0  0  0  0  0
   65.1494   -1.1793   -0.4543 C   0  0  0  0  0  0  0  0  0  0  0  0
   65.8110   -2.4228   -0.7117 C   0  0  0  0  0  0  0  0  0  0  0  0
   64.8443   -3.3245   -1.0031 C   0  0  0  0  0  0  0  0  0  0  0  0
   63.5941   -2.6265   -0.9345 C   0  0  0  0  0  0  0  0  0  0  0  0
   63.7880   -1.3244   -0.5475 N   0  0  0  0  0  0  0  0  0  0  0  0
   62.3883   -3.1685   -1.3490 C   0  0  0  0  0  0  0  0  0  0  0  0
   62.3643   -4.5609   -1.8774 C   0  0  0  0  0  0  0  0  0  0  0  0
   62.6437   -4.8042   -3.2250 C   0  0  0  0  0  0  0  0  0  0  0  0
   62.9741   -3.6585   -4.1441 C   0  0  0  0  0  0  0  0  0  0  0  0
   62.6148   -6.1091   -3.7035 C   0  0  0  0  0  0  0  0  0  0  0  0
   62.3142   -7.1733   -2.8600 C   0  0  0  0  0  0  0  0  0  0  0  0
   62.2662   -8.5804   -3.3914 C   0  0  0  0  0  0  0  0  0  0  0  0
   62.0370   -6.9189   -1.5204 C   0  0  0  0  0  0  0  0  0  0  0  0
   62.0585   -5.6225   -1.0206 C   0  0  0  0  0  0  0  0  0  0  0  0
   61.7555   -5.3545    0.4295 C   0  0  0  0  0  0  0  0  0  0  0  0
   61.2049   -2.4522   -1.3006 C   0  0  0  0  0  0  0  0  0  0  0  0
   59.9513   -2.9565   -1.7734 C   0  0  0  0  0  0  0  0  0  0  0  0
   59.0093   -2.0472   -1.4256 C   0  0  0  0  0  0  0  0  0  0  0  0
   61.0372   -1.2237   -0.7036 N   0  0  0  0  0  0  0  0  0  0  0  0
   59.6894   -0.9966   -0.7349 C   0  0  0  0  0  0  0  0  0  0  0  0
   59.0284    0.0276   -0.0539 C   0  0  0  0  0  0  0  0  0  0  0  0
   59.7229    1.0258    0.6325 C   0  0  0  0  0  0  0  0  0  0  0  0
   59.0793    2.0636    1.3752 C   0  0  0  0  0  0  0  0  0  0  0  0
   60.0494    2.9310    1.7513 C   0  0  0  0  0  0  0  0  0  0  0  0
   61.2819    2.4210    1.2307 C   0  0  0  0  0  0  0  0  0  0  0  0
   61.0748    1.2212    0.5882 N   0  0  0  0  0  0  0  0  0  0  0  0
   62.4743    3.1226    1.2575 C   0  0  0  0  0  0  0  0  0  0  0  0
   62.4941    4.4885    1.8514 C   0  0  0  0  0  0  0  0  0  0  0  0
   62.1611    5.5947    1.0639 C   0  0  0  0  0  0  0  0  0  0  0  0
   61.7780    5.4030   -0.3794 C   0  0  0  0  0  0  0  0  0  0  0  0
   62.1850    6.8650    1.6267 C   0  0  0  0  0  0  0  0  0  0  0  0
   62.5325    7.0495    2.9614 C   0  0  0  0  0  0  0  0  0  0  0  0
   62.5720    8.4340    3.5500 C   0  0  0  0  0  0  0  0  0  0  0  0
   62.8601    5.9416    3.7354 C   0  0  0  0  0  0  0  0  0  0  0  0
   62.8443    4.6615    3.1932 C   0  0  0  0  0  0  0  0  0  0  0  0
   63.2000    3.4668    4.0373 C   0  0  0  0  0  0  0  0  0  0  0  0
   63.6477    2.6009    0.7364 C   0  0  0  0  0  0  0  0  0  0  0  0
   64.8942    3.3080    0.7189 C   0  0  0  0  0  0  0  0  0  0  0  0
   65.8336    2.4330    0.2892 C   0  0  0  0  0  0  0  0  0  0  0  0
   65.1600    1.1926    0.0482 C   0  0  0  0  0  0  0  0  0  0  0  0
   63.8130    1.3179    0.2803 N   0  0  0  0  0  0  0  0  0  0  0  0
   66.8914    0.0191   -0.2977 H   0  0  0  0  0  0  0  0  0  0  0  0
   66.8797   -2.5637   -0.6765 H   0  0  0  0  0  0  0  0  0  0  0  0
   64.9478   -4.3667   -1.2591 H   0  0  0  0  0  0  0  0  0  0  0  0
   63.9120   -3.1891   -3.8399 H   0  0  0  0  0  0  0  0  0  0  0  0
   62.1918   -2.8986   -4.1021 H   0  0  0  0  0  0  0  0  0  0  0  0
   63.0751   -4.0020   -5.1732 H   0  0  0  0  0  0  0  0  0  0  0  0
   62.8315   -6.2980   -4.7498 H   0  0  0  0  0  0  0  0  0  0  0  0
   62.5987   -9.2919   -2.6350 H   0  0  0  0  0  0  0  0  0  0  0  0
   61.2417   -8.8374   -3.6706 H   0  0  0  0  0  0  0  0  0  0  0  0
   62.8957   -8.6847   -4.2753 H   0  0  0  0  0  0  0  0  0  0  0  0
   61.8017   -7.7433   -0.8552 H   0  0  0  0  0  0  0  0  0  0  0  0
   60.8512   -4.7496    0.5205 H   0  0  0  0  0  0  0  0  0  0  0  0
   61.6073   -6.2861    0.9748 H   0  0  0  0  0  0  0  0  0  0  0  0
   62.5743   -4.8019    0.8936 H   0  0  0  0  0  0  0  0  0  0  0  0
   59.8259   -3.8911   -2.2959 H   0  0  0  0  0  0  0  0  0  0  0  0
   57.9453   -2.0774   -1.5968 H   0  0  0  0  0  0  0  0  0  0  0  0
   58.0190    2.1118    1.5646 H   0  0  0  0  0  0  0  0  0  0  0  0
   59.9559    3.8440    2.3169 H   0  0  0  0  0  0  0  0  0  0  0  0
   62.5639    4.8667   -0.9140 H   0  0  0  0  0  0  0  0  0  0  0  0
   61.6125    6.3624   -0.8688 H   0  0  0  0  0  0  0  0  0  0  0  0
   60.8626    4.8124   -0.4517 H   0  0  0  0  0  0  0  0  0  0  0  0
   61.9272    7.7241    1.0159 H   0  0  0  0  0  0  0  0  0  0  0  0
   61.7764    9.0537    3.1353 H   0  0  0  0  0  0  0  0  0  0  0  0
   62.4642    8.3999    4.6343 H   0  0  0  0  0  0  0  0  0  0  0  0
   63.5274    8.9099    3.3170 H   0  0  0  0  0  0  0  0  0  0  0  0
   63.1304    6.0754    4.7778 H   0  0  0  0  0  0  0  0  0  0  0  0
   64.1088    2.9945    3.6587 H   0  0  0  0  0  0  0  0  0  0  0  0
   62.3999    2.7252    4.0034 H   0  0  0  0  0  0  0  0  0  0  0  0
   63.3651    3.7581    5.0742 H   0  0  0  0  0  0  0  0  0  0  0  0
   65.0151    4.3387    1.0116 H   0  0  0  0  0  0  0  0  0  0  0  0
   66.8924    2.5881    0.1551 H   0  0  0  0  0  0  0  0  0  0  0  0
   39.0794   -0.0365   -0.0343 C   0  0  0  0  0  0  0  0  0  0  0  0
   37.8508   -0.0373   -0.0393 C   0  0  0  0  0  0  0  0  0  0  0  0
   36.5070   -0.0309   -0.0443 C   0  0  0  0  0  0  0  0  0  0  0  0
   35.2831   -0.0184   -0.0421 C   0  0  0  0  0  0  0  0  0  0  0  0
   40.4229   -0.0391   -0.0324 C   0  0  0  0  0  0  0  0  0  0  0  0
   41.6471   -0.0468   -0.0239 C   0  0  0  0  0  0  0  0  0  0  0  0
   55.0572    0.0547   -0.0420 C   0  0  0  0  0  0  0  0  0  0  0  0
   53.8287    0.0516   -0.0375 C   0  0  0  0  0  0  0  0  0  0  0  0
   52.4850    0.0491   -0.0350 C   0  0  0  0  0  0  0  0  0  0  0  0
   51.2611    0.0345   -0.0251 C   0  0  0  0  0  0  0  0  0  0  0  0
   56.4012    0.0491   -0.0459 C   0  0  0  0  0  0  0  0  0  0  0  0
   57.6249    0.0442   -0.0459 C   0  0  0  0  0  0  0  0  0  0  0  0
   46.4535    0.0112   -0.0250 Co  0  0  0  0  0  0  0  0  0  0  0  0
   43.0492   -0.0472   -0.0204 C   0  0  0  0  0  0  0  0  0  0  0  0
   43.7265    0.3786    1.1259 C   0  0  0  0  0  0  0  0  0  0  0  0
   43.0649    0.8216    2.3124 C   0  0  0  0  0  0  0  0  0  0  0  0
   44.0203    0.9460    3.2657 C   0  0  0  0  0  0  0  0  0  0  0  0
   45.2612    0.5823    2.6530 C   0  0  0  0  0  0  0  0  0  0  0  0
   45.0744    0.2776    1.3251 N   0  0  0  0  0  0  0  0  0  0  0  0
   46.4486    0.4285    3.3500 C   0  0  0  0  0  0  0  0  0  0  0  0
   46.4425    0.6135    4.8275 C   0  0  0  0  0  0  0  0  0  0  0  0
   46.7452    1.8625    5.3773 C   0  0  0  0  0  0  0  0  0  0  0  0
   47.0820    3.0196    4.4751 C   0  0  0  0  0  0  0  0  0  0  0  0
   46.7319    2.0210    6.7580 C   0  0  0  0  0  0  0  0  0  0  0  0
   46.4229    0.9553    7.5973 C   0  0  0  0  0  0  0  0  0  0  0  0
   46.4317    1.1359    9.0911 C   0  0  0  0  0  0  0  0  0  0  0  0
   46.1261   -0.2834    7.0384 C   0  0  0  0  0  0  0  0  0  0  0  0
   46.1315   -0.4651    5.6604 C   0  0  0  0  0  0  0  0  0  0  0  0
   45.8044   -1.8072    5.0621 C   0  0  0  0  0  0  0  0  0  0  0  0
   47.6409    0.1127    2.7205 C   0  0  0  0  0  0  0  0  0  0  0  0
   48.8857   -0.0402    3.4102 C   0  0  0  0  0  0  0  0  0  0  0  0
   49.8460   -0.1439    2.4600 C   0  0  0  0  0  0  0  0  0  0  0  0
   47.8302    0.0462    1.3593 N   0  0  0  0  0  0  0  0  0  0  0  0
   49.1826   -0.0595    1.1971 C   0  0  0  0  0  0  0  0  0  0  0  0
   49.8588    0.0171   -0.0233 C   0  0  0  0  0  0  0  0  0  0  0  0
   49.1769    0.0726   -1.2421 C   0  0  0  0  0  0  0  0  0  0  0  0
   49.8324    0.1766   -2.5074 C   0  0  0  0  0  0  0  0  0  0  0  0
   48.8738    0.0289   -3.4541 C   0  0  0  0  0  0  0  0  0  0  0  0
   47.6380   -0.1662   -2.7596 C   0  0  0  0  0  0  0  0  0  0  0  0
   47.8302   -0.0933   -1.3998 N   0  0  0  0  0  0  0  0  0  0  0  0
   46.4541   -0.5265   -3.3824 C   0  0  0  0  0  0  0  0  0  0  0  0
   46.4540   -0.7345   -4.8568 C   0  0  0  0  0  0  0  0  0  0  0  0
   46.1070    0.3189   -5.7075 C   0  0  0  0  0  0  0  0  0  0  0  0
   45.7306    1.6582   -5.1321 C   0  0  0  0  0  0  0  0  0  0  0  0
   46.1120    0.1151   -7.0824 C   0  0  0  0  0  0  0  0  0  0  0  0
   46.4545   -1.1209   -7.6207 C   0  0  0  0  0  0  0  0  0  0  0  0
   46.4754   -1.3253   -9.1113 C   0  0  0  0  0  0  0  0  0  0  0  0
   46.7984   -2.1616   -6.7637 C   0  0  0  0  0  0  0  0  0  0  0  0
   46.8022   -1.9806   -5.3858 C   0  0  0  0  0  0  0  0  0  0  0  0
   47.1776   -3.1102   -4.4642 C   0  0  0  0  0  0  0  0  0  0  0  0
   45.2707   -0.6928   -2.6826 C   0  0  0  0  0  0  0  0  0  0  0  0
   44.0331   -1.0717   -3.2934 C   0  0  0  0  0  0  0  0  0  0  0  0
   43.0743   -0.9347   -2.3457 C   0  0  0  0  0  0  0  0  0  0  0  0
   43.7314   -0.4757   -1.1625 C   0  0  0  0  0  0  0  0  0  0  0  0
   45.0806   -0.3825   -1.3557 N   0  0  0  0  0  0  0  0  0  0  0  0
   42.0037    0.9937    2.3930 H   0  0  0  0  0  0  0  0  0  0  0  0
   43.9106    1.2454    4.2954 H   0  0  0  0  0  0  0  0  0  0  0  0
   47.9972    2.8098    3.9180 H   0  0  0  0  0  0  0  0  0  0  0  0
   47.2268    3.9329    5.0513 H   0  0  0  0  0  0  0  0  0  0  0  0
   46.2814    3.1838    3.7517 H   0  0  0  0  0  0  0  0  0  0  0  0
   46.9643    2.9908    7.1855 H   0  0  0  0  0  0  0  0  0  0  0  0
   47.4377    0.9623    9.4803 H   0  0  0  0  0  0  0  0  0  0  0  0
   45.7552    0.4294    9.5723 H   0  0  0  0  0  0  0  0  0  0  0  0
   46.1347    2.1496    9.3612 H   0  0  0  0  0  0  0  0  0  0  0  0
   45.8848   -1.1205    7.6853 H   0  0  0  0  0  0  0  0  0  0  0  0
   44.8959   -1.7409    4.4602 H   0  0  0  0  0  0  0  0  0  0  0  0
   46.6133   -2.1401    4.4094 H   0  0  0  0  0  0  0  0  0  0  0  0
   45.6523   -2.5538    5.8409 H   0  0  0  0  0  0  0  0  0  0  0  0
   48.9941   -0.0481    4.4827 H   0  0  0  0  0  0  0  0  0  0  0  0
   50.9110   -0.2556    2.5849 H   0  0  0  0  0  0  0  0  0  0  0  0
   50.8916    0.3308   -2.6365 H   0  0  0  0  0  0  0  0  0  0  0  0
   48.9784    0.0377   -4.5270 H   0  0  0  0  0  0  0  0  0  0  0  0
   44.8151    1.5722   -4.5434 H   0  0  0  0  0  0  0  0  0  0  0  0
   45.5680    2.3896   -5.9232 H   0  0  0  0  0  0  0  0  0  0  0  0
   46.5187    2.0240   -4.4717 H   0  0  0  0  0  0  0  0  0  0  0  0
   45.8433    0.9327   -7.7432 H   0  0  0  0  0  0  0  0  0  0  0  0
   46.1952   -2.3476   -9.3666 H   0  0  0  0  0  0  0  0  0  0  0  0
   47.4813   -1.1435   -9.4970 H   0  0  0  0  0  0  0  0  0  0  0  0
   45.7916   -0.6369   -9.6083 H   0  0  0  0  0  0  0  0  0  0  0  0
   47.0664   -3.1292   -7.1751 H   0  0  0  0  0  0  0  0  0  0  0  0
   47.3470   -4.0294   -5.0241 H   0  0  0  0  0  0  0  0  0  0  0  0
   46.3861   -3.2845   -3.7333 H   0  0  0  0  0  0  0  0  0  0  0  0
   48.0891   -2.8627   -3.9163 H   0  0  0  0  0  0  0  0  0  0  0  0
   43.9276   -1.3842   -4.3197 H   0  0  0  0  0  0  0  0  0  0  0  0
   42.0136   -1.1093   -2.4272 H   0  0  0  0  0  0  0  0  0  0  0  0
  2  3  4  0  0  0  0
  3  4  1  0  0  0  0
  4  5  2  0  0  0  0
  5  6  4  0  0  0  0
  1  7  1  0  0  0  0
  3  7  4  0  0  0  0
  6  7  4  0  0  0  0
  6  8  4  0  0  0  0
  8  9  1  0  0  0  0
  9 10  4  0  0  0  0
 10 11  1  0  0  0  0
 10 12  4  0  0  0  0
 12 13  4  0  0  0  0
 13 14  1  0  0  0  0
 13 15  4  0  0  0  0
  9 16  4  0  0  0  0
 15 16  4  0  0  0  0
 16 17  1  0  0  0  0
  8 18  4  0  0  0  0
 18 19  4  0  0  0  0
 19 20  2  0  0  0  0
  1 21  1  0  0  0  0
 18 21  4  0  0  0  0
 20 22  4  0  0  0  0
 21 22  4  0  0  0  0
 22 23  4  0  0  0  0
 23 24  4  0  0  0  0
 24 25  4  0  0  0  0
 25 26  2  0  0  0  0
 26 27  4  0  0  0  0
  1 28  1  0  0  0  0
 24 28  4  0  0  0  0
 27 28  4  0  0  0  0
 27 29  4  0  0  0  0
 29 30  1  0  0  0  0
 30 31  4  0  0  0  0
 31 32  1  0  0  0  0
 31 33  4  0  0  0  0
 33 34  4  0  0  0  0
 34 35  1  0  0  0  0
 34 36  4  0  0  0  0
 30 37  4  0  0  0  0
 36 37  4  0  0  0  0
 37 38  1  0  0  0  0
 29 39  4  0  0  0  0
 39 40  4  0  0  0  0
 40 41  2  0  0  0  0
  2 42  4  0  0  0  0
 41 42  1  0  0  0  0
  1 43  1  0  0  0  0
 39 43  4  0  0  0  0
 42 43  4  0  0  0  0
  2 44  1  0  0  0  0
  4 45  1  0  0  0  0
  5 46  1  0  0  0  0
 11 47  1  0  0  0  0
 11 48  1  0  0  0  0
 11 49  1  0  0  0  0
 12 50  1  0  0  0  0
 14 51  1  0  0  0  0
 14 52  1  0  0  0  0
 14 53  1  0  0  0  0
 15 54  1  0  0  0  0
 17 55  1  0  0  0  0
 17 56  1  0  0  0  0
 17 57  1  0  0  0  0
 19 58  1  0  0  0  0
 20 59  1  0  0  0  0
 25 60  1  0  0  0  0
 26 61  1  0  0  0  0
 32 62  1  0  0  0  0
 32 63  1  0  0  0  0
 32 64  1  0  0  0  0
 33 65  1  0  0  0  0
 35 66  1  0  0  0  0
 35 67  1  0  0  0  0
 35 68  1  0  0  0  0
 36 69  1  0  0  0  0
 38 70  1  0  0  0  0
 38 71  1  0  0  0  0
 38 72  1  0  0  0  0
 40 73  1  0  0  0  0
 41 74  1  0  0  0  0
 76 77  4  0  0  0  0
 77 78  1  0  0  0  0
 78 79  2  0  0  0  0
 79 80  4  0  0  0  0
 75 81  1  0  0  0  0
 77 81  4  0  0  0  0
 80 81  4  0  0  0  0
 80 82  4  0  0  0  0
 82 83  1  0  0  0  0
 83 84  4  0  0  0  0
 84 85  1  0  0  0  0
 84 86  4  0  0  0  0
 86 87  4  0  0  0  0
 87 88  1  0  0  0  0
 87 89  4  0  0  0  0
 83 90  4  0  0  0  0
 89 90  4  0  0  0  0
 90 91  1  0  0  0  0
 82 92  4  0  0  0  0
 92 93  4  0  0  0  0
 93 94  2  0  0  0  0
 75 95  1  0  0  0  0
 92 95  4  0  0  0  0
 94 96  4  0  0  0  0
 95 96  4  0  0  0  0
 96 97  4  0  0  0  0
 97 98  4  0  0  0  0
 98 99  4  0  0  0  0
 99100  2  0  0  0  0
100101  4  0  0  0  0
 75102  1  0  0  0  0
 98102  4  0  0  0  0
101102  4  0  0  0  0
101103  4  0  0  0  0
103104  1  0  0  0  0
104105  4  0  0  0  0
105106  1  0  0  0  0
105107  4  0  0  0  0
107108  4  0  0  0  0
108109  1  0  0  0  0
108110  4  0  0  0  0
104111  4  0  0  0  0
110111  4  0  0  0  0
111112  1  0  0  0  0
103113  4  0  0  0  0
113114  4  0  0  0  0
114115  2  0  0  0  0
 76116  4  0  0  0  0
115116  1  0  0  0  0
 75117  1  0  0  0  0
113117  4  0  0  0  0
116117  4  0  0  0  0
 76118  1  0  0  0  0
 78119  1  0  0  0  0
 79120  1  0  0  0  0
 85121  1  0  0  0  0
 85122  1  0  0  0  0
 85123  1  0  0  0  0
 86124  1  0  0  0  0
 88125  1  0  0  0  0
 88126  1  0  0  0  0
 88127  1  0  0  0  0
 89128  1  0  0  0  0
 91129  1  0  0  0  0
 91130  1  0  0  0  0
 91131  1  0  0  0  0
 93132  1  0  0  0  0
 94133  1  0  0  0  0
 99134  1  0  0  0  0
100135  1  0  0  0  0
106136  1  0  0  0  0
106137  1  0  0  0  0
106138  1  0  0  0  0
107139  1  0  0  0  0
109140  1  0  0  0  0
109141  1  0  0  0  0
109142  1  0  0  0  0
110143  1  0  0  0  0
112144  1  0  0  0  0
112145  1  0  0  0  0
112146  1  0  0  0  0
114147  1  0  0  0  0
115148  1  0  0  0  0
149150  3  0  0  0  0
150151  4  0  0  0  0
 23152  4  0  0  0  0
151152  3  0  0  0  0
149153  4  0  0  0  0
153154  3  0  0  0  0
155156  3  0  0  0  0
156157  4  0  0  0  0
157158  3  0  0  0  0
155159  4  0  0  0  0
 97160  4  0  0  0  0
159160  3  0  0  0  0
154162  4  0  0  0  0
162163  4  0  0  0  0
163164  4  0  0  0  0
164165  2  0  0  0  0
165166  4  0  0  0  0
161167  1  0  0  0  0
163167  4  0  0  0  0
166167  4  0  0  0  0
166168  4  0  0  0  0
168169  1  0  0  0  0
169170  4  0  0  0  0
170171  1  0  0  0  0
170172  4  0  0  0  0
172173  4  0  0  0  0
173174  1  0  0  0  0
173175  4  0  0  0  0
169176  4  0  0  0  0
175176  4  0  0  0  0
176177  1  0  0  0  0
168178  4  0  0  0  0
178179  4  0  0  0  0
179180  2  0  0  0  0
161181  1  0  0  0  0
178181  4  0  0  0  0
180182  4  0  0  0  0
181182  4  0  0  0  0
158183  4  0  0  0  0
182183  4  0  0  0  0
183184  4  0  0  0  0
184185  4  0  0  0  0
185186  2  0  0  0  0
186187  4  0  0  0  0
161188  1  0  0  0  0
184188  4  0  0  0  0
187188  4  0  0  0  0
187189  4  0  0  0  0
189190  1  0  0  0  0
190191  4  0  0  0  0
191192  1  0  0  0  0
191193  4  0  0  0  0
193194  4  0  0  0  0
194195  1  0  0  0  0
194196  4  0  0  0  0
190197  4  0  0  0  0
196197  4  0  0  0  0
197198  1  0  0  0  0
189199  4  0  0  0  0
199200  4  0  0  0  0
200201  2  0  0  0  0
162202  4  0  0  0  0
201202  4  0  0  0  0
161203  1  0  0  0  0
199203  4  0  0  0  0
202203  4  0  0  0  0
164204  1  0  0  0  0
165205  1  0  0  0  0
171206  1  0  0  0  0
171207  1  0  0  0  0
171208  1  0  0  0  0
172209  1  0  0  0  0
174210  1  0  0  0  0
174211  1  0  0  0  0
174212  1  0  0  0  0
175213  1  0  0  0  0
177214  1  0  0  0  0
177215  1  0  0  0  0
177216  1  0  0  0  0
179217  1  0  0  0  0
180218  1  0  0  0  0
185219  1  0  0  0  0
186220  1  0  0  0  0
192221  1  0  0  0  0
192222  1  0  0  0  0
192223  1  0  0  0  0
193224  1  0  0  0  0
195225  1  0  0  0  0
195226  1  0  0  0  0
195227  1  0  0  0  0
196228  1  0  0  0  0
198229  1  0  0  0  0
198230  1  0  0  0  0
198231  1  0  0  0  0
200232  1  0  0  0  0
201233  1  0  0  0  0
M  END
