 xtb: 6.5.1 (b24c23e)
          07302203143D

209238  0     0  0            999 V2000
   33.5209    0.0582   -0.0623 Ni  0  0  0  0  0  0  0  0  0  0  0  0
   30.1345    0.1353   -0.1288 C   0  0  0  0  0  0  0  0  0  0  0  0
   30.7827    0.8963    0.8226 C   0  0  0  0  0  0  0  0  0  0  0  0
   30.1088    1.6741    1.8161 C   0  0  0  0  0  0  0  0  0  0  0  0
   31.0649    2.3594    2.4873 C   0  0  0  0  0  0  0  0  0  0  0  0
   32.3210    2.0157    1.8887 C   0  0  0  0  0  0  0  0  0  0  0  0
   32.1410    1.0789    0.9018 N   0  0  0  0  0  0  0  0  0  0  0  0
   33.5311    2.6194    2.2130 C   0  0  0  0  0  0  0  0  0  0  0  0
   33.5388    3.7187    3.2035 C   0  0  0  0  0  0  0  0  0  0  0  0
   32.7773    4.8728    2.9983 C   0  0  0  0  0  0  0  0  0  0  0  0
   32.7887    5.9006    3.9219 C   0  0  0  0  0  0  0  0  0  0  0  0
   33.5592    5.8018    5.0871 C   0  0  0  0  0  0  0  0  0  0  0  0
   33.4937    6.8324    6.0126 N   0  0  0  0  0  0  0  0  0  0  0  0
   34.5917    7.0294    6.9498 C   0  0  0  0  0  0  0  0  0  0  0  0
   34.3114    4.6436    5.3041 C   0  0  0  0  0  0  0  0  0  0  0  0
   34.3042    3.6244    4.3673 C   0  0  0  0  0  0  0  0  0  0  0  0
   34.7330    2.2322    1.6325 C   0  0  0  0  0  0  0  0  0  0  0  0
   35.9833    2.8866    1.8708 C   0  0  0  0  0  0  0  0  0  0  0  0
   36.9336    2.1633    1.2294 C   0  0  0  0  0  0  0  0  0  0  0  0
   34.9117    1.1446    0.8074 N   0  0  0  0  0  0  0  0  0  0  0  0
   36.2614    1.0748    0.5959 C   0  0  0  0  0  0  0  0  0  0  0  0
   36.9283    0.0302   -0.0519 C   0  0  0  0  0  0  0  0  0  0  0  0
   36.2492   -1.0128   -0.6896 C   0  0  0  0  0  0  0  0  0  0  0  0
   36.9069   -2.1275   -1.2918 C   0  0  0  0  0  0  0  0  0  0  0  0
   35.9463   -2.8601   -1.9067 C   0  0  0  0  0  0  0  0  0  0  0  0
   34.7054   -2.1800   -1.6921 C   0  0  0  0  0  0  0  0  0  0  0  0
   34.8989   -1.0703   -0.8999 N   0  0  0  0  0  0  0  0  0  0  0  0
   33.5018   -2.5562   -2.2760 C   0  0  0  0  0  0  0  0  0  0  0  0
   33.4902   -3.6941   -3.2219 C   0  0  0  0  0  0  0  0  0  0  0  0
   34.2775   -3.6748   -4.3747 C   0  0  0  0  0  0  0  0  0  0  0  0
   34.2688   -4.7345   -5.2654 C   0  0  0  0  0  0  0  0  0  0  0  0
   33.4773   -5.8585   -5.0115 C   0  0  0  0  0  0  0  0  0  0  0  0
   33.3980   -6.9282   -5.8903 N   0  0  0  0  0  0  0  0  0  0  0  0
   34.5054   -7.1981   -6.7977 C   0  0  0  0  0  0  0  0  0  0  0  0
   32.6814   -5.8803   -3.8594 C   0  0  0  0  0  0  0  0  0  0  0  0
   32.6863   -4.8124   -2.9825 C   0  0  0  0  0  0  0  0  0  0  0  0
   32.3070   -1.8975   -2.0059 C   0  0  0  0  0  0  0  0  0  0  0  0
   31.0603   -2.2017   -2.6441 C   0  0  0  0  0  0  0  0  0  0  0  0
   30.1142   -1.4430   -2.0410 C   0  0  0  0  0  0  0  0  0  0  0  0
   30.7846   -0.6690   -1.0422 C   0  0  0  0  0  0  0  0  0  0  0  0
   32.1343   -0.9213   -1.0572 N   0  0  0  0  0  0  0  0  0  0  0  0
   29.0513    0.1634   -0.1535 H   0  0  0  0  0  0  0  0  0  0  0  0
   29.0412    1.6790    1.9685 H   0  0  0  0  0  0  0  0  0  0  0  0
   30.9422    3.0370    3.3166 H   0  0  0  0  0  0  0  0  0  0  0  0
   32.1904    4.9717    2.0917 H   0  0  0  0  0  0  0  0  0  0  0  0
   32.1993    6.7945    3.7463 H   0  0  0  0  0  0  0  0  0  0  0  0
   33.1726    7.7030    5.6064 H   0  0  0  0  0  0  0  0  0  0  0  0
   35.5576    7.0770    6.4341 H   0  0  0  0  0  0  0  0  0  0  0  0
   34.6130    6.2168    7.6772 H   0  0  0  0  0  0  0  0  0  0  0  0
   34.4187    7.9665    7.4788 H   0  0  0  0  0  0  0  0  0  0  0  0
   34.9015    4.5300    6.2052 H   0  0  0  0  0  0  0  0  0  0  0  0
   34.8849    2.7269    4.5515 H   0  0  0  0  0  0  0  0  0  0  0  0
   36.1077    3.7878    2.4488 H   0  0  0  0  0  0  0  0  0  0  0  0
   37.9966    2.3374    1.1830 H   0  0  0  0  0  0  0  0  0  0  0  0
   37.9676   -2.3137   -1.2408 H   0  0  0  0  0  0  0  0  0  0  0  0
   36.0588   -3.7815   -2.4545 H   0  0  0  0  0  0  0  0  0  0  0  0
   34.8887   -2.8045   -4.5879 H   0  0  0  0  0  0  0  0  0  0  0  0
   34.8779   -4.6794   -6.1593 H   0  0  0  0  0  0  0  0  0  0  0  0
   33.0447   -7.7700   -5.4516 H   0  0  0  0  0  0  0  0  0  0  0  0
   34.5609   -6.4214   -7.5616 H   0  0  0  0  0  0  0  0  0  0  0  0
   34.3156   -8.1541   -7.2857 H   0  0  0  0  0  0  0  0  0  0  0  0
   35.4611   -7.2472   -6.2635 H   0  0  0  0  0  0  0  0  0  0  0  0
   32.0598   -6.7461   -3.6568 H   0  0  0  0  0  0  0  0  0  0  0  0
   32.0784   -4.8510   -2.0851 H   0  0  0  0  0  0  0  0  0  0  0  0
   30.9377   -2.9030   -3.4535 H   0  0  0  0  0  0  0  0  0  0  0  0
   29.0550   -1.3995   -2.2394 H   0  0  0  0  0  0  0  0  0  0  0  0
   65.5013    0.0127   -0.0058 Ni  0  0  0  0  0  0  0  0  0  0  0  0
   68.8866    0.0816   -0.1238 C   0  0  0  0  0  0  0  0  0  0  0  0
   68.2405   -1.0147   -0.6577 C   0  0  0  0  0  0  0  0  0  0  0  0
   68.9172   -2.1446   -1.2159 C   0  0  0  0  0  0  0  0  0  0  0  0
   67.9621   -2.9500   -1.7388 C   0  0  0  0  0  0  0  0  0  0  0  0
   66.7033   -2.3022   -1.5149 C   0  0  0  0  0  0  0  0  0  0  0  0
   66.8816   -1.1395   -0.8078 N   0  0  0  0  0  0  0  0  0  0  0  0
   65.4910   -2.7591   -2.0200 C   0  0  0  0  0  0  0  0  0  0  0  0
   65.4847   -3.9554   -2.8913 C   0  0  0  0  0  0  0  0  0  0  0  0
   66.2226   -3.9784   -4.0782 C   0  0  0  0  0  0  0  0  0  0  0  0
   66.2082   -5.0909   -4.8979 C   0  0  0  0  0  0  0  0  0  0  0  0
   65.4585   -6.2213   -4.5500 C   0  0  0  0  0  0  0  0  0  0  0  0
   65.5183   -7.3344   -5.3752 N   0  0  0  0  0  0  0  0  0  0  0  0
   64.4283   -8.3012   -5.3582 C   0  0  0  0  0  0  0  0  0  0  0  0
   64.7326   -6.2100   -3.3553 C   0  0  0  0  0  0  0  0  0  0  0  0
   64.7421   -5.0863   -2.5467 C   0  0  0  0  0  0  0  0  0  0  0  0
   64.2854   -2.1252   -1.7446 C   0  0  0  0  0  0  0  0  0  0  0  0
   63.0301   -2.5145   -2.3110 C   0  0  0  0  0  0  0  0  0  0  0  0
   62.0802   -1.7427   -1.7284 C   0  0  0  0  0  0  0  0  0  0  0  0
   64.1090   -1.0870   -0.8575 N   0  0  0  0  0  0  0  0  0  0  0  0
   62.7575   -0.8798   -0.8148 C   0  0  0  0  0  0  0  0  0  0  0  0
   62.0948   -0.0217    0.0682 C   0  0  0  0  0  0  0  0  0  0  0  0
   62.7776    0.8361    0.9364 C   0  0  0  0  0  0  0  0  0  0  0  0
   62.1246    1.6663    1.8966 C   0  0  0  0  0  0  0  0  0  0  0  0
   63.0851    2.4409    2.4579 C   0  0  0  0  0  0  0  0  0  0  0  0
   64.3208    2.0918    1.8258 C   0  0  0  0  0  0  0  0  0  0  0  0
   64.1256    1.0671    0.9269 N   0  0  0  0  0  0  0  0  0  0  0  0
   65.5201    2.7598    2.0421 C   0  0  0  0  0  0  0  0  0  0  0  0
   65.5280    3.9462    2.9264 C   0  0  0  0  0  0  0  0  0  0  0  0
   64.7237    5.0520    2.6440 C   0  0  0  0  0  0  0  0  0  0  0  0
   64.7303    6.1695    3.4610 C   0  0  0  0  0  0  0  0  0  0  0  0
   65.5371    6.2000    4.6022 C   0  0  0  0  0  0  0  0  0  0  0  0
   65.6165    7.3101    5.4294 N   0  0  0  0  0  0  0  0  0  0  0  0
   64.5002    8.2443    5.4903 C   0  0  0  0  0  0  0  0  0  0  0  0
   66.3483    5.0948    4.8879 C   0  0  0  0  0  0  0  0  0  0  0  0
   66.3452    3.9886    4.0597 C   0  0  0  0  0  0  0  0  0  0  0  0
   66.7122    2.3563    1.4503 C   0  0  0  0  0  0  0  0  0  0  0  0
   67.9557    3.0549    1.5913 C   0  0  0  0  0  0  0  0  0  0  0  0
   68.9023    2.2991    0.9853 C   0  0  0  0  0  0  0  0  0  0  0  0
   68.2348    1.1467    0.4632 C   0  0  0  0  0  0  0  0  0  0  0  0
   66.8865    1.2109    0.7148 N   0  0  0  0  0  0  0  0  0  0  0  0
   69.9694    0.1055   -0.1644 H   0  0  0  0  0  0  0  0  0  0  0  0
   69.9861   -2.2871   -1.1986 H   0  0  0  0  0  0  0  0  0  0  0  0
   68.0866   -3.9009   -2.2310 H   0  0  0  0  0  0  0  0  0  0  0  0
   66.7925   -3.1031   -4.3701 H   0  0  0  0  0  0  0  0  0  0  0  0
   66.7780   -5.0920   -5.8212 H   0  0  0  0  0  0  0  0  0  0  0  0
   65.8165   -7.1071   -6.3162 H   0  0  0  0  0  0  0  0  0  0  0  0
   63.4553   -7.8131   -5.4849 H   0  0  0  0  0  0  0  0  0  0  0  0
   64.4329   -8.8536   -4.4176 H   0  0  0  0  0  0  0  0  0  0  0  0
   64.5885   -9.0037   -6.1760 H   0  0  0  0  0  0  0  0  0  0  0  0
   64.1607   -7.0773   -3.0493 H   0  0  0  0  0  0  0  0  0  0  0  0
   64.1812   -5.0927   -1.6183 H   0  0  0  0  0  0  0  0  0  0  0  0
   62.9019   -3.2760   -3.0629 H   0  0  0  0  0  0  0  0  0  0  0  0
   61.0143   -1.7481   -1.8905 H   0  0  0  0  0  0  0  0  0  0  0  0
   61.0669    1.6466    2.1051 H   0  0  0  0  0  0  0  0  0  0  0  0
   62.9761    3.1809    3.2339 H   0  0  0  0  0  0  0  0  0  0  0  0
   64.1007    5.0447    1.7561 H   0  0  0  0  0  0  0  0  0  0  0  0
   64.1079    7.0174    3.2025 H   0  0  0  0  0  0  0  0  0  0  0  0
   65.9850    7.0892    6.3467 H   0  0  0  0  0  0  0  0  0  0  0  0
   64.4226    8.7960    4.5525 H   0  0  0  0  0  0  0  0  0  0  0  0
   64.6967    8.9518    6.2958 H   0  0  0  0  0  0  0  0  0  0  0  0
   63.5530    7.7281    5.6842 H   0  0  0  0  0  0  0  0  0  0  0  0
   66.9811    5.1111    5.7691 H   0  0  0  0  0  0  0  0  0  0  0  0
   66.9654    3.1329    4.3035 H   0  0  0  0  0  0  0  0  0  0  0  0
   68.0761    4.0043    2.0873 H   0  0  0  0  0  0  0  0  0  0  0  0
   69.9598    2.4886    0.8905 H   0  0  0  0  0  0  0  0  0  0  0  0
   42.1290   -0.0041   -0.0316 C   0  0  0  0  0  0  0  0  0  0  0  0
   40.9008    0.0031   -0.0418 C   0  0  0  0  0  0  0  0  0  0  0  0
   39.5561    0.0113   -0.0493 C   0  0  0  0  0  0  0  0  0  0  0  0
   38.3325    0.0214   -0.0508 C   0  0  0  0  0  0  0  0  0  0  0  0
   43.4735   -0.0087   -0.0249 C   0  0  0  0  0  0  0  0  0  0  0  0
   44.6974   -0.0101   -0.0189 C   0  0  0  0  0  0  0  0  0  0  0  0
   58.1226   -0.0136    0.0818 C   0  0  0  0  0  0  0  0  0  0  0  0
   56.8944   -0.0059    0.0706 C   0  0  0  0  0  0  0  0  0  0  0  0
   55.5501    0.0013    0.0557 C   0  0  0  0  0  0  0  0  0  0  0  0
   54.3265    0.0081    0.0379 C   0  0  0  0  0  0  0  0  0  0  0  0
   59.4672   -0.0163    0.0857 C   0  0  0  0  0  0  0  0  0  0  0  0
   60.6908   -0.0220    0.0832 C   0  0  0  0  0  0  0  0  0  0  0  0
   49.5120    0.0189   -0.0147 Ni  0  0  0  0  0  0  0  0  0  0  0  0
   46.1010   -0.0031   -0.0163 C   0  0  0  0  0  0  0  0  0  0  0  0
   46.7824   -1.0823   -0.5885 C   0  0  0  0  0  0  0  0  0  0  0  0
   46.1269   -2.2261   -1.1350 C   0  0  0  0  0  0  0  0  0  0  0  0
   47.0873   -2.9793   -1.7257 C   0  0  0  0  0  0  0  0  0  0  0  0
   48.3256   -2.2859   -1.5463 C   0  0  0  0  0  0  0  0  0  0  0  0
   48.1320   -1.1442   -0.8018 N   0  0  0  0  0  0  0  0  0  0  0  0
   49.5297   -2.6822   -2.1169 C   0  0  0  0  0  0  0  0  0  0  0  0
   49.5364   -3.8440   -3.0330 C   0  0  0  0  0  0  0  0  0  0  0  0
   50.3367   -4.9593   -2.7684 C   0  0  0  0  0  0  0  0  0  0  0  0
   50.3447   -6.0429   -3.6255 C   0  0  0  0  0  0  0  0  0  0  0  0
   49.5601   -6.0390   -4.7857 C   0  0  0  0  0  0  0  0  0  0  0  0
   49.5672   -7.1680   -5.5903 N   0  0  0  0  0  0  0  0  0  0  0  0
   49.1761   -7.0622   -6.9895 C   0  0  0  0  0  0  0  0  0  0  0  0
   48.7525   -4.9292   -5.0514 C   0  0  0  0  0  0  0  0  0  0  0  0
   48.7438   -3.8516   -4.1824 C   0  0  0  0  0  0  0  0  0  0  0  0
   50.7286   -2.0288   -1.8560 C   0  0  0  0  0  0  0  0  0  0  0  0
   51.9773   -2.3720   -2.4637 C   0  0  0  0  0  0  0  0  0  0  0  0
   52.9291   -1.6224   -1.8547 C   0  0  0  0  0  0  0  0  0  0  0  0
   50.9077   -1.0311   -0.9242 N   0  0  0  0  0  0  0  0  0  0  0  0
   52.2572   -0.8127   -0.8907 C   0  0  0  0  0  0  0  0  0  0  0  0
   52.9231    0.0145    0.0198 C   0  0  0  0  0  0  0  0  0  0  0  0
   52.2412    0.8531    0.9075 C   0  0  0  0  0  0  0  0  0  0  0  0
   52.8966    1.6796    1.8688 C   0  0  0  0  0  0  0  0  0  0  0  0
   51.9364    2.4489    2.4387 C   0  0  0  0  0  0  0  0  0  0  0  0
   50.6985    2.0953    1.8150 C   0  0  0  0  0  0  0  0  0  0  0  0
   50.8922    1.0782    0.9079 N   0  0  0  0  0  0  0  0  0  0  0  0
   49.4943    2.7491    2.0494 C   0  0  0  0  0  0  0  0  0  0  0  0
   49.4889    3.9321    2.9381 C   0  0  0  0  0  0  0  0  0  0  0  0
   48.6960    3.9603    4.0869 C   0  0  0  0  0  0  0  0  0  0  0  0
   48.6930    5.0598    4.9281 C   0  0  0  0  0  0  0  0  0  0  0  0
   49.4887    6.1710    4.6340 C   0  0  0  0  0  0  0  0  0  0  0  0
   49.4824    7.3200    5.4097 N   0  0  0  0  0  0  0  0  0  0  0  0
   49.0986    7.2427    6.8128 C   0  0  0  0  0  0  0  0  0  0  0  0
   50.2747    6.1533    3.4749 C   0  0  0  0  0  0  0  0  0  0  0  0
   50.2790    5.0478    2.6460 C   0  0  0  0  0  0  0  0  0  0  0  0
   48.2961    2.3297    1.4835 C   0  0  0  0  0  0  0  0  0  0  0  0
   47.0485    3.0084    1.6546 C   0  0  0  0  0  0  0  0  0  0  0  0
   46.0971    2.2305    1.0817 C   0  0  0  0  0  0  0  0  0  0  0  0
   46.7678    1.0883    0.5502 C   0  0  0  0  0  0  0  0  0  0  0  0
   48.1168    1.1728    0.7587 N   0  0  0  0  0  0  0  0  0  0  0  0
   45.0674   -2.4145   -1.0696 H   0  0  0  0  0  0  0  0  0  0  0  0
   46.9762   -3.9235   -2.2334 H   0  0  0  0  0  0  0  0  0  0  0  0
   50.9418   -4.9814   -1.8686 H   0  0  0  0  0  0  0  0  0  0  0  0
   50.9618   -6.9069   -3.4022 H   0  0  0  0  0  0  0  0  0  0  0  0
   50.3968   -7.7350   -5.4632 H   0  0  0  0  0  0  0  0  0  0  0  0
   48.1103   -6.8429   -7.0642 H   0  0  0  0  0  0  0  0  0  0  0  0
   49.7427   -6.2807   -7.5088 H   0  0  0  0  0  0  0  0  0  0  0  0
   49.3683   -8.0235   -7.4661 H   0  0  0  0  0  0  0  0  0  0  0  0
   48.1287   -4.8995   -5.9362 H   0  0  0  0  0  0  0  0  0  0  0  0
   48.1277   -2.9886   -4.4104 H   0  0  0  0  0  0  0  0  0  0  0  0
   52.1018   -3.0913   -3.2566 H   0  0  0  0  0  0  0  0  0  0  0  0
   53.9923   -1.6083   -2.0327 H   0  0  0  0  0  0  0  0  0  0  0  0
   53.9558    1.6650    2.0691 H   0  0  0  0  0  0  0  0  0  0  0  0
   52.0476    3.1871    3.2161 H   0  0  0  0  0  0  0  0  0  0  0  0
   48.0885    3.0970    4.3364 H   0  0  0  0  0  0  0  0  0  0  0  0
   48.0689    5.0466    5.8132 H   0  0  0  0  0  0  0  0  0  0  0  0
   50.3033    7.8954    5.2650 H   0  0  0  0  0  0  0  0  0  0  0  0
   49.6689    6.4727    7.3449 H   0  0  0  0  0  0  0  0  0  0  0  0
   49.2920    8.2137    7.2687 H   0  0  0  0  0  0  0  0  0  0  0  0
   48.0335    7.0234    6.8977 H   0  0  0  0  0  0  0  0  0  0  0  0
   50.8832    7.0175    3.2300 H   0  0  0  0  0  0  0  0  0  0  0  0
   50.8859    5.0521    1.7472 H   0  0  0  0  0  0  0  0  0  0  0  0
   46.9252    3.9595    2.1463 H   0  0  0  0  0  0  0  0  0  0  0  0
   45.0347    2.4021    1.0175 H   0  0  0  0  0  0  0  0  0  0  0  0
  2  3  4  0  0  0  0
  3  4  4  0  0  0  0
  4  5  2  0  0  0  0
  5  6  4  0  0  0  0
  1  7  1  0  0  0  0
  3  7  4  0  0  0  0
  6  7  4  0  0  0  0
  6  8  4  0  0  0  0
  8  9  1  0  0  0  0
  9 10  4  0  0  0  0
 10 11  4  0  0  0  0
 11 12  4  0  0  0  0
 12 13  1  0  0  0  0
 13 14  1  0  0  0  0
 12 15  4  0  0  0  0
  9 16  4  0  0  0  0
 15 16  4  0  0  0  0
  8 17  4  0  0  0  0
 17 18  4  0  0  0  0
 18 19  2  0  0  0  0
  1 20  1  0  0  0  0
 17 20  4  0  0  0  0
 19 21  4  0  0  0  0
 20 21  4  0  0  0  0
 21 22  4  0  0  0  0
 22 23  4  0  0  0  0
 23 24  4  0  0  0  0
 24 25  2  0  0  0  0
 25 26  4  0  0  0  0
  1 27  1  0  0  0  0
 23 27  4  0  0  0  0
 26 27  4  0  0  0  0
 26 28  4  0  0  0  0
 28 29  1  0  0  0  0
 29 30  4  0  0  0  0
 30 31  4  0  0  0  0
 31 32  4  0  0  0  0
 32 33  1  0  0  0  0
 33 34  1  0  0  0  0
 32 35  4  0  0  0  0
 29 36  4  0  0  0  0
 35 36  4  0  0  0  0
 28 37  4  0  0  0  0
 37 38  4  0  0  0  0
 38 39  2  0  0  0  0
  2 40  4  0  0  0  0
 39 40  4  0  0  0  0
  1 41  1  0  0  0  0
 37 41  4  0  0  0  0
 40 41  4  0  0  0  0
  2 42  1  0  0  0  0
  4 43  1  0  0  0  0
  5 44  1  0  0  0  0
 10 45  1  0  0  0  0
 11 46  1  0  0  0  0
 13 47  1  0  0  0  0
 14 48  1  0  0  0  0
 14 49  1  0  0  0  0
 14 50  1  0  0  0  0
 15 51  1  0  0  0  0
 16 52  1  0  0  0  0
 18 53  1  0  0  0  0
 19 54  1  0  0  0  0
 24 55  1  0  0  0  0
 25 56  1  0  0  0  0
 30 57  1  0  0  0  0
 31 58  1  0  0  0  0
 33 59  1  0  0  0  0
 34 60  1  0  0  0  0
 34 61  1  0  0  0  0
 34 62  1  0  0  0  0
 35 63  1  0  0  0  0
 36 64  1  0  0  0  0
 38 65  1  0  0  0  0
 39 66  1  0  0  0  0
 68 69  4  0  0  0  0
 69 70  4  0  0  0  0
 70 71  2  0  0  0  0
 71 72  4  0  0  0  0
 67 73  1  0  0  0  0
 69 73  4  0  0  0  0
 72 73  4  0  0  0  0
 72 74  4  0  0  0  0
 74 75  1  0  0  0  0
 75 76  4  0  0  0  0
 76 77  4  0  0  0  0
 77 78  4  0  0  0  0
 78 79  1  0  0  0  0
 79 80  1  0  0  0  0
 78 81  4  0  0  0  0
 75 82  4  0  0  0  0
 81 82  4  0  0  0  0
 74 83  4  0  0  0  0
 83 84  4  0  0  0  0
 84 85  2  0  0  0  0
 67 86  1  0  0  0  0
 83 86  4  0  0  0  0
 85 87  4  0  0  0  0
 86 87  4  0  0  0  0
 87 88  4  0  0  0  0
 88 89  4  0  0  0  0
 89 90  4  0  0  0  0
 90 91  2  0  0  0  0
 91 92  4  0  0  0  0
 67 93  1  0  0  0  0
 89 93  4  0  0  0  0
 92 93  4  0  0  0  0
 92 94  4  0  0  0  0
 94 95  1  0  0  0  0
 95 96  4  0  0  0  0
 96 97  4  0  0  0  0
 97 98  4  0  0  0  0
 98 99  1  0  0  0  0
 99100  1  0  0  0  0
 98101  4  0  0  0  0
 95102  4  0  0  0  0
101102  4  0  0  0  0
 94103  4  0  0  0  0
103104  4  0  0  0  0
104105  2  0  0  0  0
 68106  4  0  0  0  0
105106  4  0  0  0  0
 67107  1  0  0  0  0
103107  4  0  0  0  0
106107  4  0  0  0  0
 68108  1  0  0  0  0
 70109  1  0  0  0  0
 71110  1  0  0  0  0
 76111  1  0  0  0  0
 77112  1  0  0  0  0
 79113  1  0  0  0  0
 80114  1  0  0  0  0
 80115  1  0  0  0  0
 80116  1  0  0  0  0
 81117  1  0  0  0  0
 82118  1  0  0  0  0
 84119  1  0  0  0  0
 85120  1  0  0  0  0
 90121  1  0  0  0  0
 91122  1  0  0  0  0
 96123  1  0  0  0  0
 97124  1  0  0  0  0
 99125  1  0  0  0  0
100126  1  0  0  0  0
100127  1  0  0  0  0
100128  1  0  0  0  0
101129  1  0  0  0  0
102130  1  0  0  0  0
104131  1  0  0  0  0
105132  1  0  0  0  0
133134  3  0  0  0  0
134135  4  0  0  0  0
 22136  4  0  0  0  0
135136  3  0  0  0  0
133137  4  0  0  0  0
137138  3  0  0  0  0
139140  3  0  0  0  0
140141  4  0  0  0  0
141142  3  0  0  0  0
139143  4  0  0  0  0
 88144  4  0  0  0  0
143144  3  0  0  0  0
138146  4  0  0  0  0
146147  4  0  0  0  0
147148  4  0  0  0  0
148149  2  0  0  0  0
149150  4  0  0  0  0
145151  1  0  0  0  0
147151  4  0  0  0  0
150151  4  0  0  0  0
150152  4  0  0  0  0
152153  1  0  0  0  0
153154  4  0  0  0  0
154155  4  0  0  0  0
155156  4  0  0  0  0
156157  1  0  0  0  0
157158  1  0  0  0  0
156159  4  0  0  0  0
153160  4  0  0  0  0
159160  4  0  0  0  0
152161  4  0  0  0  0
161162  4  0  0  0  0
162163  2  0  0  0  0
145164  1  0  0  0  0
161164  4  0  0  0  0
163165  4  0  0  0  0
164165  4  0  0  0  0
142166  4  0  0  0  0
165166  4  0  0  0  0
166167  4  0  0  0  0
167168  4  0  0  0  0
168169  2  0  0  0  0
169170  4  0  0  0  0
145171  1  0  0  0  0
167171  4  0  0  0  0
170171  4  0  0  0  0
170172  4  0  0  0  0
172173  1  0  0  0  0
173174  4  0  0  0  0
174175  4  0  0  0  0
175176  4  0  0  0  0
176177  1  0  0  0  0
177178  1  0  0  0  0
176179  4  0  0  0  0
173180  4  0  0  0  0
179180  4  0  0  0  0
172181  4  0  0  0  0
181182  4  0  0  0  0
182183  2  0  0  0  0
146184  4  0  0  0  0
183184  4  0  0  0  0
145185  1  0  0  0  0
181185  4  0  0  0  0
184185  4  0  0  0  0
148186  1  0  0  0  0
149187  1  0  0  0  0
154188  1  0  0  0  0
155189  1  0  0  0  0
157190  1  0  0  0  0
158191  1  0  0  0  0
158192  1  0  0  0  0
158193  1  0  0  0  0
159194  1  0  0  0  0
160195  1  0  0  0  0
162196  1  0  0  0  0
163197  1  0  0  0  0
168198  1  0  0  0  0
169199  1  0  0  0  0
174200  1  0  0  0  0
175201  1  0  0  0  0
177202  1  0  0  0  0
178203  1  0  0  0  0
178204  1  0  0  0  0
178205  1  0  0  0  0
179206  1  0  0  0  0
180207  1  0  0  0  0
182208  1  0  0  0  0
183209  1  0  0  0  0
M  END
