 xtb: 6.5.1 (b24c23e)
          07302202043D

254293  0     0  0            999 V2000
   34.2030    0.3795    0.3028 Co  0  0  0  0  0  0  0  0  0  0  0  0
   30.8348    0.2385    0.2512 C   0  0  0  0  0  0  0  0  0  0  0  0
   31.5383   -0.9269    0.4675 C   0  0  0  0  0  0  0  0  0  0  0  0
   30.9260   -2.1999    0.6986 C   0  0  0  0  0  0  0  0  0  0  0  0
   31.9157   -3.1224    0.6411 C   0  0  0  0  0  0  0  0  0  0  0  0
   33.1309   -2.4115    0.3686 C   0  0  0  0  0  0  0  0  0  0  0  0
   32.8977   -1.0606    0.3323 N   0  0  0  0  0  0  0  0  0  0  0  0
   34.3454   -3.0186    0.0758 C   0  0  0  0  0  0  0  0  0  0  0  0
   34.4036   -4.4929   -0.0465 C   0  0  0  0  0  0  0  0  0  0  0  0
   33.6525   -5.1519   -0.9439 C   0  0  0  0  0  0  0  0  0  0  0  0
   33.6765   -6.6502   -1.0831 C   0  0  0  0  0  0  0  0  0  0  0  0
   34.8128   -7.2350   -0.3691 N   0  0  0  0  0  0  0  0  0  0  0  0
   35.4407   -6.5630    0.6416 C   0  0  0  0  0  0  0  0  0  0  0  0
   35.3040   -5.2353    0.8204 C   0  0  0  0  0  0  0  0  0  0  0  0
   35.5072   -2.2795   -0.0938 C   0  0  0  0  0  0  0  0  0  0  0  0
   36.7826   -2.8465   -0.4145 C   0  0  0  0  0  0  0  0  0  0  0  0
   37.6954   -1.8532   -0.2872 C   0  0  0  0  0  0  0  0  0  0  0  0
   35.6311   -0.9306    0.1503 N   0  0  0  0  0  0  0  0  0  0  0  0
   36.9736   -0.6803    0.0925 C   0  0  0  0  0  0  0  0  0  0  0  0
   37.5863    0.5152    0.4759 C   0  0  0  0  0  0  0  0  0  0  0  0
   36.8446    1.6637    0.7602 C   0  0  0  0  0  0  0  0  0  0  0  0
   37.4308    2.9049    1.1566 C   0  0  0  0  0  0  0  0  0  0  0  0
   36.4410    3.8297    1.1221 C   0  0  0  0  0  0  0  0  0  0  0  0
   35.2532    3.1491    0.7021 C   0  0  0  0  0  0  0  0  0  0  0  0
   35.5017    1.8056    0.5437 N   0  0  0  0  0  0  0  0  0  0  0  0
   34.0557    3.7835    0.4025 C   0  0  0  0  0  0  0  0  0  0  0  0
   33.9989    5.2624    0.4423 C   0  0  0  0  0  0  0  0  0  0  0  0
   33.1476    5.9133    1.2519 C   0  0  0  0  0  0  0  0  0  0  0  0
   33.0586    7.4149    1.3021 C   0  0  0  0  0  0  0  0  0  0  0  0
   34.1979    8.0404    0.6286 N   0  0  0  0  0  0  0  0  0  0  0  0
   34.9372    7.3613   -0.2986 C   0  0  0  0  0  0  0  0  0  0  0  0
   34.9030    6.0196   -0.4078 C   0  0  0  0  0  0  0  0  0  0  0  0
   32.9105    3.0665    0.0827 C   0  0  0  0  0  0  0  0  0  0  0  0
   31.6501    3.6620   -0.2545 C   0  0  0  0  0  0  0  0  0  0  0  0
   30.7371    2.6622   -0.2749 C   0  0  0  0  0  0  0  0  0  0  0  0
   31.4440    1.4549    0.0265 C   0  0  0  0  0  0  0  0  0  0  0  0
   32.7845    1.7036    0.1806 N   0  0  0  0  0  0  0  0  0  0  0  0
   29.7520    0.1940    0.2426 H   0  0  0  0  0  0  0  0  0  0  0  0
   29.8716   -2.3493    0.8696 H   0  0  0  0  0  0  0  0  0  0  0  0
   31.8431   -4.1902    0.7705 H   0  0  0  0  0  0  0  0  0  0  0  0
   32.9769   -4.6315   -1.6128 H   0  0  0  0  0  0  0  0  0  0  0  0
   33.7565   -6.9316   -2.1425 H   0  0  0  0  0  0  0  0  0  0  0  0
   32.7322   -7.0827   -0.7036 H   0  0  0  0  0  0  0  0  0  0  0  0
   34.7961   -8.2421   -0.3088 H   0  0  0  0  0  0  0  0  0  0  0  0
   36.1129   -7.1678    1.2416 H   0  0  0  0  0  0  0  0  0  0  0  0
   35.8423   -4.7161    1.6004 H   0  0  0  0  0  0  0  0  0  0  0  0
   36.9477   -3.8751   -0.6913 H   0  0  0  0  0  0  0  0  0  0  0  0
   38.7634   -1.8955   -0.4292 H   0  0  0  0  0  0  0  0  0  0  0  0
   38.4701    3.0369    1.4118 H   0  0  0  0  0  0  0  0  0  0  0  0
   36.4988    4.8806    1.3550 H   0  0  0  0  0  0  0  0  0  0  0  0
   32.4685    5.3832    1.9094 H   0  0  0  0  0  0  0  0  0  0  0  0
   33.0466    7.7595    2.3456 H   0  0  0  0  0  0  0  0  0  0  0  0
   32.1149    7.7558    0.8375 H   0  0  0  0  0  0  0  0  0  0  0  0
   34.1164    9.0389    0.5080 H   0  0  0  0  0  0  0  0  0  0  0  0
   35.6065    7.9794   -0.8884 H   0  0  0  0  0  0  0  0  0  0  0  0
   35.5286    5.4984   -1.1183 H   0  0  0  0  0  0  0  0  0  0  0  0
   31.4960    4.7120   -0.4442 H   0  0  0  0  0  0  0  0  0  0  0  0
   29.6781    2.7176   -0.4720 H   0  0  0  0  0  0  0  0  0  0  0  0
   89.5981    0.2209    0.0968 Co  0  0  0  0  0  0  0  0  0  0  0  0
   92.9197    0.6197   -0.2862 C   0  0  0  0  0  0  0  0  0  0  0  0
   92.1937    1.6661    0.2445 C   0  0  0  0  0  0  0  0  0  0  0  0
   92.7707    2.8876    0.7163 C   0  0  0  0  0  0  0  0  0  0  0  0
   91.7413    3.6891    1.0798 C   0  0  0  0  0  0  0  0  0  0  0  0
   90.5340    2.9734    0.7842 C   0  0  0  0  0  0  0  0  0  0  0  0
   90.8269    1.7071    0.3415 N   0  0  0  0  0  0  0  0  0  0  0  0
   89.2666    3.5394    0.7790 C   0  0  0  0  0  0  0  0  0  0  0  0
   89.0956    4.9675    1.1293 C   0  0  0  0  0  0  0  0  0  0  0  0
   89.7235    5.9464    0.4577 C   0  0  0  0  0  0  0  0  0  0  0  0
   89.5679    7.4023    0.8071 C   0  0  0  0  0  0  0  0  0  0  0  0
   88.4363    7.6170    1.7103 N   0  0  0  0  0  0  0  0  0  0  0  0
   87.9318    6.6028    2.4742 C   0  0  0  0  0  0  0  0  0  0  0  0
   88.1939    5.3071    2.2182 C   0  0  0  0  0  0  0  0  0  0  0  0
   88.1455    2.8103    0.4043 C   0  0  0  0  0  0  0  0  0  0  0  0
   86.8490    3.3812    0.1981 C   0  0  0  0  0  0  0  0  0  0  0  0
   86.0066    2.3545   -0.0710 C   0  0  0  0  0  0  0  0  0  0  0  0
   88.1035    1.4490    0.2221 N   0  0  0  0  0  0  0  0  0  0  0  0
   86.7863    1.1585   -0.0074 C   0  0  0  0  0  0  0  0  0  0  0  0
   86.2297   -0.1222    0.0305 C   0  0  0  0  0  0  0  0  0  0  0  0
   87.0206   -1.2611    0.2018 C   0  0  0  0  0  0  0  0  0  0  0  0
   86.4918   -2.5685    0.4282 C   0  0  0  0  0  0  0  0  0  0  0  0
   87.5479   -3.4179    0.4410 C   0  0  0  0  0  0  0  0  0  0  0  0
   88.7157   -2.6296    0.1831 C   0  0  0  0  0  0  0  0  0  0  0  0
   88.3828   -1.2958    0.1054 N   0  0  0  0  0  0  0  0  0  0  0  0
   89.9656   -3.1561   -0.1076 C   0  0  0  0  0  0  0  0  0  0  0  0
   90.1513   -4.6249   -0.1300 C   0  0  0  0  0  0  0  0  0  0  0  0
   91.0548   -5.2230    0.6635 C   0  0  0  0  0  0  0  0  0  0  0  0
   91.2840   -6.7103    0.6612 C   0  0  0  0  0  0  0  0  0  0  0  0
   90.2203   -7.4138   -0.0578 N   0  0  0  0  0  0  0  0  0  0  0  0
   89.4343   -6.7714   -0.9728 C   0  0  0  0  0  0  0  0  0  0  0  0
   89.3376   -5.4294   -1.0266 C   0  0  0  0  0  0  0  0  0  0  0  0
   91.0451   -2.3397   -0.4234 C   0  0  0  0  0  0  0  0  0  0  0  0
   92.3065   -2.8190   -0.9083 C   0  0  0  0  0  0  0  0  0  0  0  0
   93.1240   -1.7439   -1.0072 C   0  0  0  0  0  0  0  0  0  0  0  0
   92.3673   -0.6117   -0.5650 C   0  0  0  0  0  0  0  0  0  0  0  0
   91.0769   -0.9784   -0.2713 N   0  0  0  0  0  0  0  0  0  0  0  0
   93.9843    0.7544   -0.4381 H   0  0  0  0  0  0  0  0  0  0  0  0
   93.8301    3.0836    0.7677 H   0  0  0  0  0  0  0  0  0  0  0  0
   91.7833    4.6811    1.4998 H   0  0  0  0  0  0  0  0  0  0  0  0
   90.3856    5.7345   -0.3736 H   0  0  0  0  0  0  0  0  0  0  0  0
   89.3963    7.9940   -0.1031 H   0  0  0  0  0  0  0  0  0  0  0  0
   90.4960    7.7840    1.2714 H   0  0  0  0  0  0  0  0  0  0  0  0
   88.3695    8.5516    2.0848 H   0  0  0  0  0  0  0  0  0  0  0  0
   87.2479    6.9182    3.2556 H   0  0  0  0  0  0  0  0  0  0  0  0
   87.7482    4.5174    2.8061 H   0  0  0  0  0  0  0  0  0  0  0  0
   86.6254    4.4346    0.2478 H   0  0  0  0  0  0  0  0  0  0  0  0
   84.9479    2.3858   -0.2725 H   0  0  0  0  0  0  0  0  0  0  0  0
   85.4453   -2.7898    0.5642 H   0  0  0  0  0  0  0  0  0  0  0  0
   87.5454   -4.4848    0.5945 H   0  0  0  0  0  0  0  0  0  0  0  0
   91.6774   -4.6552    1.3451 H   0  0  0  0  0  0  0  0  0  0  0  0
   91.3104   -7.0916    1.6918 H   0  0  0  0  0  0  0  0  0  0  0  0
   92.2636   -6.9438    0.2045 H   0  0  0  0  0  0  0  0  0  0  0  0
   90.4005   -8.3939   -0.2171 H   0  0  0  0  0  0  0  0  0  0  0  0
   88.8401   -7.4263   -1.6019 H   0  0  0  0  0  0  0  0  0  0  0  0
   88.6800   -4.9423   -1.7323 H   0  0  0  0  0  0  0  0  0  0  0  0
   92.5220   -3.8477   -1.1484 H   0  0  0  0  0  0  0  0  0  0  0  0
   94.1536   -1.7045   -1.3261 H   0  0  0  0  0  0  0  0  0  0  0  0
   38.9869    0.5662    0.5557 C   0  0  0  0  0  0  0  0  0  0  0  0
   40.2091    0.6014    0.6202 C   0  0  0  0  0  0  0  0  0  0  0  0
   41.5503    0.6422    0.6764 C   0  0  0  0  0  0  0  0  0  0  0  0
   42.7800    0.6717    0.7148 C   0  0  0  0  0  0  0  0  0  0  0  0
   44.1173    0.7058    0.7475 C   0  0  0  0  0  0  0  0  0  0  0  0
   45.3477    0.7332    0.7671 C   0  0  0  0  0  0  0  0  0  0  0  0
   46.6898    0.7679    0.7775 C   0  0  0  0  0  0  0  0  0  0  0  0
   47.9142    0.7982    0.7777 C   0  0  0  0  0  0  0  0  0  0  0  0
   57.4960    0.9901    0.6045 C   0  0  0  0  0  0  0  0  0  0  0  0
   58.7210    0.9930    0.5836 C   0  0  0  0  0  0  0  0  0  0  0  0
   60.0629    0.9909    0.5668 C   0  0  0  0  0  0  0  0  0  0  0  0
   61.2943    0.9812    0.5554 C   0  0  0  0  0  0  0  0  0  0  0  0
   62.6314    0.9715    0.5499 C   0  0  0  0  0  0  0  0  0  0  0  0
   63.8628    0.9599    0.5489 C   0  0  0  0  0  0  0  0  0  0  0  0
   65.2045    0.9499    0.5608 C   0  0  0  0  0  0  0  0  0  0  0  0
   66.4297    0.9421    0.5836 C   0  0  0  0  0  0  0  0  0  0  0  0
   75.9296    0.0403    0.1868 C   0  0  0  0  0  0  0  0  0  0  0  0
   77.1401   -0.1218    0.0953 C   0  0  0  0  0  0  0  0  0  0  0  0
   78.4740   -0.2564    0.0175 C   0  0  0  0  0  0  0  0  0  0  0  0
   79.7013   -0.3346   -0.0336 C   0  0  0  0  0  0  0  0  0  0  0  0
   81.0385   -0.3766   -0.0682 C   0  0  0  0  0  0  0  0  0  0  0  0
   82.2692   -0.3768   -0.0778 C   0  0  0  0  0  0  0  0  0  0  0  0
   83.6115   -0.3301   -0.0623 C   0  0  0  0  0  0  0  0  0  0  0  0
   84.8330   -0.2529   -0.0276 C   0  0  0  0  0  0  0  0  0  0  0  0
   52.7052    0.9146    0.7070 Co  0  0  0  0  0  0  0  0  0  0  0  0
   49.3163    0.8343    0.7639 C   0  0  0  0  0  0  0  0  0  0  0  0
   49.9636    1.8250    0.0189 C   0  0  0  0  0  0  0  0  0  0  0  0
   49.2816    2.8516   -0.7026 C   0  0  0  0  0  0  0  0  0  0  0  0
   50.2103    3.4629   -1.4788 C   0  0  0  0  0  0  0  0  0  0  0  0
   51.4541    2.7968   -1.2358 C   0  0  0  0  0  0  0  0  0  0  0  0
   51.3014    1.8410   -0.2589 N   0  0  0  0  0  0  0  0  0  0  0  0
   52.6078    2.9871   -1.9846 C   0  0  0  0  0  0  0  0  0  0  0  0
   52.5595    3.8756   -3.1667 C   0  0  0  0  0  0  0  0  0  0  0  0
   51.7059    3.6429   -4.1780 C   0  0  0  0  0  0  0  0  0  0  0  0
   51.6633    4.4922   -5.4188 C   0  0  0  0  0  0  0  0  0  0  0  0
   52.3971    5.7448   -5.2327 N   0  0  0  0  0  0  0  0  0  0  0  0
   53.3493    5.8768   -4.2618 C   0  0  0  0  0  0  0  0  0  0  0  0
   53.4565    5.0172   -3.2308 C   0  0  0  0  0  0  0  0  0  0  0  0
   53.8026    2.3586   -1.6599 C   0  0  0  0  0  0  0  0  0  0  0  0
   55.0103    2.4702   -2.4204 C   0  0  0  0  0  0  0  0  0  0  0  0
   55.9937    1.9045   -1.6778 C   0  0  0  0  0  0  0  0  0  0  0  0
   54.0323    1.6594   -0.4982 N   0  0  0  0  0  0  0  0  0  0  0  0
   55.3808    1.4395   -0.4743 C   0  0  0  0  0  0  0  0  0  0  0  0
   56.0947    0.9746    0.6340 C   0  0  0  0  0  0  0  0  0  0  0  0
   55.4438    0.4878    1.7726 C   0  0  0  0  0  0  0  0  0  0  0  0
   56.1220    0.0501    2.9506 C   0  0  0  0  0  0  0  0  0  0  0  0
   55.1926   -0.5542    3.7315 C   0  0  0  0  0  0  0  0  0  0  0  0
   53.9524   -0.4944    3.0186 C   0  0  0  0  0  0  0  0  0  0  0  0
   54.1075    0.2148    1.8501 N   0  0  0  0  0  0  0  0  0  0  0  0
   52.8010   -1.1799    3.3824 C   0  0  0  0  0  0  0  0  0  0  0  0
   52.8446   -2.1022    4.5382 C   0  0  0  0  0  0  0  0  0  0  0  0
   53.7108   -3.1282    4.5823 C   0  0  0  0  0  0  0  0  0  0  0  0
   53.7839   -4.0825    5.7434 C   0  0  0  0  0  0  0  0  0  0  0  0
   52.6194   -3.9467    6.6201 N   0  0  0  0  0  0  0  0  0  0  0  0
   51.8660   -2.8070    6.6307 C   0  0  0  0  0  0  0  0  0  0  0  0
   51.9127   -1.9009    5.6357 C   0  0  0  0  0  0  0  0  0  0  0  0
   51.6091   -1.0289    2.6850 C   0  0  0  0  0  0  0  0  0  0  0  0
   50.4045   -1.7466    2.9741 C   0  0  0  0  0  0  0  0  0  0  0  0
   49.4225   -1.1774    2.2328 C   0  0  0  0  0  0  0  0  0  0  0  0
   50.0327   -0.1227    1.4872 C   0  0  0  0  0  0  0  0  0  0  0  0
   51.3797   -0.0805    1.7167 N   0  0  0  0  0  0  0  0  0  0  0  0
   48.2266    3.0594   -0.6223 H   0  0  0  0  0  0  0  0  0  0  0  0
   50.0753    4.2880   -2.1591 H   0  0  0  0  0  0  0  0  0  0  0  0
   51.0483    2.7813   -4.1798 H   0  0  0  0  0  0  0  0  0  0  0  0
   52.0815    3.9352   -6.2777 H   0  0  0  0  0  0  0  0  0  0  0  0
   50.6224    4.7389   -5.6717 H   0  0  0  0  0  0  0  0  0  0  0  0
   52.5197    6.2887   -6.0737 H   0  0  0  0  0  0  0  0  0  0  0  0
   53.9624    6.7684   -4.3452 H   0  0  0  0  0  0  0  0  0  0  0  0
   54.1709    5.1811   -2.4367 H   0  0  0  0  0  0  0  0  0  0  0  0
   55.0864    2.9286   -3.3932 H   0  0  0  0  0  0  0  0  0  0  0  0
   57.0435    1.8119   -1.9057 H   0  0  0  0  0  0  0  0  0  0  0  0
   57.1747    0.1878    3.1386 H   0  0  0  0  0  0  0  0  0  0  0  0
   55.3256   -1.0029    4.7025 H   0  0  0  0  0  0  0  0  0  0  0  0
   54.4101   -3.3180    3.7764 H   0  0  0  0  0  0  0  0  0  0  0  0
   54.7108   -3.9090    6.3207 H   0  0  0  0  0  0  0  0  0  0  0  0
   53.8198   -5.1193    5.3803 H   0  0  0  0  0  0  0  0  0  0  0  0
   52.6833   -4.4633    7.4844 H   0  0  0  0  0  0  0  0  0  0  0  0
   51.1760   -2.7248    7.4645 H   0  0  0  0  0  0  0  0  0  0  0  0
   51.2778   -1.0264    5.6427 H   0  0  0  0  0  0  0  0  0  0  0  0
   50.3288   -2.5725    3.6627 H   0  0  0  0  0  0  0  0  0  0  0  0
   48.3748   -1.4291    2.1924 H   0  0  0  0  0  0  0  0  0  0  0  0
   71.2184    0.8123    0.6127 Co  0  0  0  0  0  0  0  0  0  0  0  0
   67.8310    0.9304    0.6162 C   0  0  0  0  0  0  0  0  0  0  0  0
   68.5398    1.8413   -0.1761 C   0  0  0  0  0  0  0  0  0  0  0  0
   67.9261    2.8934   -0.9212 C   0  0  0  0  0  0  0  0  0  0  0  0
   68.9165    3.5075   -1.6147 C   0  0  0  0  0  0  0  0  0  0  0  0
   70.1245    2.7945   -1.3263 C   0  0  0  0  0  0  0  0  0  0  0  0
   69.8877    1.8182   -0.3837 N   0  0  0  0  0  0  0  0  0  0  0  0
   71.3092    2.9380   -2.0331 C   0  0  0  0  0  0  0  0  0  0  0  0
   71.3906    3.9120   -3.1438 C   0  0  0  0  0  0  0  0  0  0  0  0
   70.5612    3.8571   -4.1990 C   0  0  0  0  0  0  0  0  0  0  0  0
   70.6652    4.8027   -5.3644 C   0  0  0  0  0  0  0  0  0  0  0  0
   71.5243    5.9462   -5.0506 N   0  0  0  0  0  0  0  0  0  0  0  0
   72.4497    5.8854   -4.0466 C   0  0  0  0  0  0  0  0  0  0  0  0
   72.4153    4.9416   -3.0871 C   0  0  0  0  0  0  0  0  0  0  0  0
   72.4224    2.1492   -1.7642 C   0  0  0  0  0  0  0  0  0  0  0  0
   73.5952    2.1062   -2.5833 C   0  0  0  0  0  0  0  0  0  0  0  0
   74.4861    1.3040   -1.9499 C   0  0  0  0  0  0  0  0  0  0  0  0
   72.5777    1.3456   -0.6624 N   0  0  0  0  0  0  0  0  0  0  0  0
   73.8615    0.8785   -0.7374 C   0  0  0  0  0  0  0  0  0  0  0  0
   74.5513    0.2698    0.3137 C   0  0  0  0  0  0  0  0  0  0  0  0
   73.9234   -0.0215    1.5296 C   0  0  0  0  0  0  0  0  0  0  0  0
   74.6190   -0.4484    2.7011 C   0  0  0  0  0  0  0  0  0  0  0  0
   73.6761   -0.7062    3.6409 C   0  0  0  0  0  0  0  0  0  0  0  0
   72.4047   -0.4781    3.0228 C   0  0  0  0  0  0  0  0  0  0  0  0
   72.5762    0.0101    1.7469 N   0  0  0  0  0  0  0  0  0  0  0  0
   71.1871   -0.8655    3.5643 C   0  0  0  0  0  0  0  0  0  0  0  0
   71.1510   -1.5374    4.8823 C   0  0  0  0  0  0  0  0  0  0  0  0
   71.8202   -2.6777    5.1181 C   0  0  0  0  0  0  0  0  0  0  0  0
   71.8019   -3.3709    6.4538 C   0  0  0  0  0  0  0  0  0  0  0  0
   70.7470   -2.8392    7.3186 N   0  0  0  0  0  0  0  0  0  0  0  0
   70.2029   -1.6046    7.1029 C   0  0  0  0  0  0  0  0  0  0  0  0
   70.3398   -0.9483    5.9353 C   0  0  0  0  0  0  0  0  0  0  0  0
   69.9910   -0.6859    2.8798 C   0  0  0  0  0  0  0  0  0  0  0  0
   68.7367   -1.2381    3.2927 C   0  0  0  0  0  0  0  0  0  0  0  0
   67.8024   -0.7821    2.4228 C   0  0  0  0  0  0  0  0  0  0  0  0
   68.4857    0.0659    1.4975 C   0  0  0  0  0  0  0  0  0  0  0  0
   69.8307    0.0712    1.7454 N   0  0  0  0  0  0  0  0  0  0  0  0
   66.8741    3.1287   -0.8965 H   0  0  0  0  0  0  0  0  0  0  0  0
   68.8427    4.3574   -2.2735 H   0  0  0  0  0  0  0  0  0  0  0  0
   69.8174    3.0751   -4.2988 H   0  0  0  0  0  0  0  0  0  0  0  0
   71.0553    4.2717   -6.2527 H   0  0  0  0  0  0  0  0  0  0  0  0
   69.6698    5.1857   -5.6301 H   0  0  0  0  0  0  0  0  0  0  0  0
   71.7457    6.5322   -5.8417 H   0  0  0  0  0  0  0  0  0  0  0  0
   73.1664    6.7003   -4.0395 H   0  0  0  0  0  0  0  0  0  0  0  0
   73.1162    4.9516   -2.2645 H   0  0  0  0  0  0  0  0  0  0  0  0
   73.7084    2.6197   -3.5245 H   0  0  0  0  0  0  0  0  0  0  0  0
   75.4860    1.0356   -2.2510 H   0  0  0  0  0  0  0  0  0  0  0  0
   75.6913   -0.5253    2.7833 H   0  0  0  0  0  0  0  0  0  0  0  0
   73.8200   -1.0310    4.6584 H   0  0  0  0  0  0  0  0  0  0  0  0
   72.4168   -3.1579    4.3514 H   0  0  0  0  0  0  0  0  0  0  0  0
   72.7836   -3.2637    6.9509 H   0  0  0  0  0  0  0  0  0  0  0  0
   71.6247   -4.4474    6.3198 H   0  0  0  0  0  0  0  0  0  0  0  0
   70.7841   -3.1638    8.2732 H   0  0  0  0  0  0  0  0  0  0  0  0
   69.5936   -1.2273    7.9179 H   0  0  0  0  0  0  0  0  0  0  0  0
   69.8624    0.0067    5.7685 H   0  0  0  0  0  0  0  0  0  0  0  0
   68.6012   -1.8951    4.1365 H   0  0  0  0  0  0  0  0  0  0  0  0
   66.7412   -0.9719    2.4110 H   0  0  0  0  0  0  0  0  0  0  0  0
  2  3  4  0  0  0  0
  3  4  1  0  0  0  0
  4  5  2  0  0  0  0
  5  6  4  0  0  0  0
  1  7  1  0  0  0  0
  3  7  4  0  0  0  0
  6  7  4  0  0  0  0
  6  8  4  0  0  0  0
  8  9  1  0  0  0  0
  9 10  2  0  0  0  0
 10 11  1  0  0  0  0
 11 12  1  0  0  0  0
 12 13  1  0  0  0  0
  9 14  1  0  0  0  0
 13 14  2  0  0  0  0
  8 15  4  0  0  0  0
 15 16  4  0  0  0  0
 16 17  2  0  0  0  0
  1 18  1  0  0  0  0
 15 18  4  0  0  0  0
 17 19  4  0  0  0  0
 18 19  4  0  0  0  0
 19 20  4  0  0  0  0
 20 21  4  0  0  0  0
 21 22  4  0  0  0  0
 22 23  2  0  0  0  0
 23 24  4  0  0  0  0
  1 25  1  0  0  0  0
 21 25  4  0  0  0  0
 24 25  4  0  0  0  0
 24 26  4  0  0  0  0
 26 27  1  0  0  0  0
 27 28  2  0  0  0  0
 28 29  1  0  0  0  0
 29 30  1  0  0  0  0
 30 31  1  0  0  0  0
 27 32  1  0  0  0  0
 31 32  2  0  0  0  0
 26 33  4  0  0  0  0
 33 34  4  0  0  0  0
 34 35  2  0  0  0  0
  2 36  4  0  0  0  0
 35 36  1  0  0  0  0
  1 37  1  0  0  0  0
 33 37  4  0  0  0  0
 36 37  4  0  0  0  0
  2 38  1  0  0  0  0
  4 39  1  0  0  0  0
  5 40  1  0  0  0  0
 10 41  1  0  0  0  0
 11 42  1  0  0  0  0
 11 43  1  0  0  0  0
 12 44  1  0  0  0  0
 13 45  1  0  0  0  0
 14 46  1  0  0  0  0
 16 47  1  0  0  0  0
 17 48  1  0  0  0  0
 22 49  1  0  0  0  0
 23 50  1  0  0  0  0
 28 51  1  0  0  0  0
 29 52  1  0  0  0  0
 29 53  1  0  0  0  0
 30 54  1  0  0  0  0
 31 55  1  0  0  0  0
 32 56  1  0  0  0  0
 34 57  1  0  0  0  0
 35 58  1  0  0  0  0
 60 61  4  0  0  0  0
 61 62  4  0  0  0  0
 62 63  2  0  0  0  0
 63 64  4  0  0  0  0
 59 65  1  0  0  0  0
 61 65  4  0  0  0  0
 64 65  4  0  0  0  0
 64 66  4  0  0  0  0
 66 67  1  0  0  0  0
 67 68  2  0  0  0  0
 68 69  1  0  0  0  0
 69 70  1  0  0  0  0
 70 71  1  0  0  0  0
 67 72  1  0  0  0  0
 71 72  2  0  0  0  0
 66 73  4  0  0  0  0
 73 74  4  0  0  0  0
 74 75  2  0  0  0  0
 59 76  1  0  0  0  0
 73 76  4  0  0  0  0
 75 77  4  0  0  0  0
 76 77  4  0  0  0  0
 77 78  4  0  0  0  0
 78 79  4  0  0  0  0
 79 80  4  0  0  0  0
 80 81  2  0  0  0  0
 81 82  4  0  0  0  0
 59 83  1  0  0  0  0
 79 83  4  0  0  0  0
 82 83  4  0  0  0  0
 82 84  4  0  0  0  0
 84 85  1  0  0  0  0
 85 86  2  0  0  0  0
 86 87  1  0  0  0  0
 87 88  1  0  0  0  0
 88 89  1  0  0  0  0
 85 90  1  0  0  0  0
 89 90  2  0  0  0  0
 84 91  4  0  0  0  0
 91 92  4  0  0  0  0
 92 93  2  0  0  0  0
 60 94  4  0  0  0  0
 93 94  1  0  0  0  0
 59 95  1  0  0  0  0
 91 95  4  0  0  0  0
 94 95  4  0  0  0  0
 60 96  1  0  0  0  0
 62 97  1  0  0  0  0
 63 98  1  0  0  0  0
 68 99  1  0  0  0  0
 69100  1  0  0  0  0
 69101  1  0  0  0  0
 70102  1  0  0  0  0
 71103  1  0  0  0  0
 72104  1  0  0  0  0
 74105  1  0  0  0  0
 75106  1  0  0  0  0
 80107  1  0  0  0  0
 81108  1  0  0  0  0
 86109  1  0  0  0  0
 87110  1  0  0  0  0
 87111  1  0  0  0  0
 88112  1  0  0  0  0
 89113  1  0  0  0  0
 90114  1  0  0  0  0
 92115  1  0  0  0  0
 93116  1  0  0  0  0
 20117  4  0  0  0  0
117118  3  0  0  0  0
118119  4  0  0  0  0
119120  3  0  0  0  0
120121  4  0  0  0  0
121122  3  0  0  0  0
122123  4  0  0  0  0
123124  3  0  0  0  0
125126  3  0  0  0  0
126127  4  0  0  0  0
127128  3  0  0  0  0
128129  4  0  0  0  0
129130  3  0  0  0  0
130131  4  0  0  0  0
131132  3  0  0  0  0
133134  3  0  0  0  0
134135  4  0  0  0  0
135136  3  0  0  0  0
136137  4  0  0  0  0
137138  3  0  0  0  0
138139  4  0  0  0  0
 78140  4  0  0  0  0
139140  3  0  0  0  0
124142  4  0  0  0  0
142143  4  0  0  0  0
143144  4  0  0  0  0
144145  2  0  0  0  0
145146  4  0  0  0  0
141147  1  0  0  0  0
143147  4  0  0  0  0
146147  4  0  0  0  0
146148  4  0  0  0  0
148149  1  0  0  0  0
149150  2  0  0  0  0
150151  1  0  0  0  0
151152  1  0  0  0  0
152153  1  0  0  0  0
149154  1  0  0  0  0
153154  2  0  0  0  0
148155  4  0  0  0  0
155156  4  0  0  0  0
156157  2  0  0  0  0
141158  1  0  0  0  0
155158  4  0  0  0  0
157159  4  0  0  0  0
158159  4  0  0  0  0
125160  4  0  0  0  0
159160  4  0  0  0  0
160161  4  0  0  0  0
161162  4  0  0  0  0
162163  2  0  0  0  0
163164  4  0  0  0  0
141165  1  0  0  0  0
161165  4  0  0  0  0
164165  4  0  0  0  0
164166  4  0  0  0  0
166167  1  0  0  0  0
167168  2  0  0  0  0
168169  1  0  0  0  0
169170  1  0  0  0  0
170171  1  0  0  0  0
167172  1  0  0  0  0
171172  2  0  0  0  0
166173  4  0  0  0  0
173174  4  0  0  0  0
174175  2  0  0  0  0
142176  4  0  0  0  0
175176  4  0  0  0  0
141177  1  0  0  0  0
173177  4  0  0  0  0
176177  4  0  0  0  0
144178  1  0  0  0  0
145179  1  0  0  0  0
150180  1  0  0  0  0
151181  1  0  0  0  0
151182  1  0  0  0  0
152183  1  0  0  0  0
153184  1  0  0  0  0
154185  1  0  0  0  0
156186  1  0  0  0  0
157187  1  0  0  0  0
162188  1  0  0  0  0
163189  1  0  0  0  0
168190  1  0  0  0  0
169191  1  0  0  0  0
169192  1  0  0  0  0
170193  1  0  0  0  0
171194  1  0  0  0  0
172195  1  0  0  0  0
174196  1  0  0  0  0
175197  1  0  0  0  0
132199  4  0  0  0  0
199200  4  0  0  0  0
200201  4  0  0  0  0
201202  2  0  0  0  0
202203  4  0  0  0  0
198204  1  0  0  0  0
200204  4  0  0  0  0
203204  4  0  0  0  0
203205  4  0  0  0  0
205206  1  0  0  0  0
206207  2  0  0  0  0
207208  1  0  0  0  0
208209  1  0  0  0  0
209210  1  0  0  0  0
206211  1  0  0  0  0
210211  2  0  0  0  0
205212  4  0  0  0  0
212213  4  0  0  0  0
213214  2  0  0  0  0
198215  1  0  0  0  0
212215  4  0  0  0  0
214216  4  0  0  0  0
215216  4  0  0  0  0
133217  4  0  0  0  0
216217  4  0  0  0  0
217218  4  0  0  0  0
218219  4  0  0  0  0
219220  2  0  0  0  0
220221  4  0  0  0  0
198222  1  0  0  0  0
218222  4  0  0  0  0
221222  4  0  0  0  0
221223  4  0  0  0  0
223224  1  0  0  0  0
224225  2  0  0  0  0
225226  1  0  0  0  0
226227  1  0  0  0  0
227228  1  0  0  0  0
224229  1  0  0  0  0
228229  2  0  0  0  0
223230  4  0  0  0  0
230231  4  0  0  0  0
231232  2  0  0  0  0
199233  4  0  0  0  0
232233  4  0  0  0  0
198234  1  0  0  0  0
230234  4  0  0  0  0
233234  4  0  0  0  0
201235  1  0  0  0  0
202236  1  0  0  0  0
207237  1  0  0  0  0
208238  1  0  0  0  0
208239  1  0  0  0  0
209240  1  0  0  0  0
210241  1  0  0  0  0
211242  1  0  0  0  0
213243  1  0  0  0  0
214244  1  0  0  0  0
219245  1  0  0  0  0
220246  1  0  0  0  0
225247  1  0  0  0  0
226248  1  0  0  0  0
226249  1  0  0  0  0
227250  1  0  0  0  0
228251  1  0  0  0  0
229252  1  0  0  0  0
231253  1  0  0  0  0
232254  1  0  0  0  0
M  END
