 xtb: 6.5.1 (b24c23e)
          07292222053D

 76 91  0     0  0            999 V2000
    7.8606   -0.0356    0.0239 Co  0  0  0  0  0  0  0  0  0  0  0  0
    4.6935   -0.6320    0.9964 C   0  0  0  0  0  0  0  0  0  0  0  0
    5.2333   -1.4331    0.0106 C   0  0  0  0  0  0  0  0  0  0  0  0
    4.5120   -2.4704   -0.6658 C   0  0  0  0  0  0  0  0  0  0  0  0
    5.3278   -2.9426   -1.6381 C   0  0  0  0  0  0  0  0  0  0  0  0
    6.5670   -2.2329   -1.5167 C   0  0  0  0  0  0  0  0  0  0  0  0
    6.4876   -1.2925   -0.5232 N   0  0  0  0  0  0  0  0  0  0  0  0
    7.7173   -2.5692   -2.2012 C   0  0  0  0  0  0  0  0  0  0  0  0
    8.9548   -2.0524   -1.8809 C   0  0  0  0  0  0  0  0  0  0  0  0
   10.1940   -2.5792   -2.3657 C   0  0  0  0  0  0  0  0  0  0  0  0
   11.1802   -1.9017   -1.7292 C   0  0  0  0  0  0  0  0  0  0  0  0
    9.1824   -1.0335   -0.9874 N   0  0  0  0  0  0  0  0  0  0  0  0
   10.5406   -0.9235   -0.9037 C   0  0  0  0  0  0  0  0  0  0  0  0
   11.2301    0.1040   -0.2519 C   0  0  0  0  0  0  0  0  0  0  0  0
   10.5546    1.1990    0.2983 C   0  0  0  0  0  0  0  0  0  0  0  0
   11.2039    2.4054    0.7099 C   0  0  0  0  0  0  0  0  0  0  0  0
   10.2269    3.2640    1.0905 C   0  0  0  0  0  0  0  0  0  0  0  0
    8.9883    2.5573    0.9645 C   0  0  0  0  0  0  0  0  0  0  0  0
    9.2024    1.3019    0.4448 N   0  0  0  0  0  0  0  0  0  0  0  0
    7.7869    3.0197    1.4564 C   0  0  0  0  0  0  0  0  0  0  0  0
    6.6643    2.2223    1.5601 C   0  0  0  0  0  0  0  0  0  0  0  0
    5.4923    2.5756    2.3050 C   0  0  0  0  0  0  0  0  0  0  0  0
    4.6653    1.5040    2.2619 C   0  0  0  0  0  0  0  0  0  0  0  0
    5.3091    0.5190    1.4433 C   0  0  0  0  0  0  0  0  0  0  0  0
    6.5423    0.9621    1.0391 N   0  0  0  0  0  0  0  0  0  0  0  0
    3.6987   -0.8605    1.3607 H   0  0  0  0  0  0  0  0  0  0  0  0
    3.5026   -2.7664   -0.4273 H   0  0  0  0  0  0  0  0  0  0  0  0
    5.1393   -3.7212   -2.3603 H   0  0  0  0  0  0  0  0  0  0  0  0
    7.6627   -3.3509   -2.9498 H   0  0  0  0  0  0  0  0  0  0  0  0
   10.2786   -3.3831   -3.0795 H   0  0  0  0  0  0  0  0  0  0  0  0
   12.2481   -2.0176   -1.8229 H   0  0  0  0  0  0  0  0  0  0  0  0
   12.2699    2.5653    0.6809 H   0  0  0  0  0  0  0  0  0  0  0  0
   10.3198    4.2735    1.4583 H   0  0  0  0  0  0  0  0  0  0  0  0
    7.7509    4.0191    1.8741 H   0  0  0  0  0  0  0  0  0  0  0  0
    5.3514    3.5187    2.8091 H   0  0  0  0  0  0  0  0  0  0  0  0
    3.6917    1.3828    2.7099 H   0  0  0  0  0  0  0  0  0  0  0  0
   21.1987    0.0105    0.0456 Co  0  0  0  0  0  0  0  0  0  0  0  0
   24.3616   -0.1904    1.1802 C   0  0  0  0  0  0  0  0  0  0  0  0
   23.8052    1.0624    1.0204 C   0  0  0  0  0  0  0  0  0  0  0  0
   24.5094    2.2883    1.2564 C   0  0  0  0  0  0  0  0  0  0  0  0
   23.6952    3.2904    0.8481 C   0  0  0  0  0  0  0  0  0  0  0  0
   22.4724    2.6787    0.4185 C   0  0  0  0  0  0  0  0  0  0  0  0
   22.5589    1.3145    0.5087 N   0  0  0  0  0  0  0  0  0  0  0  0
   21.3294    3.3828    0.0977 C   0  0  0  0  0  0  0  0  0  0  0  0
   20.0981    2.7803   -0.0487 C   0  0  0  0  0  0  0  0  0  0  0  0
   18.8582    3.4939   -0.0947 C   0  0  0  0  0  0  0  0  0  0  0  0
   17.8733    2.5632   -0.0772 C   0  0  0  0  0  0  0  0  0  0  0  0
   19.8727    1.4245   -0.0532 N   0  0  0  0  0  0  0  0  0  0  0  0
   18.5154    1.2845   -0.0819 C   0  0  0  0  0  0  0  0  0  0  0  0
   17.8289    0.0779   -0.2538 C   0  0  0  0  0  0  0  0  0  0  0  0
   18.5070   -1.1099   -0.5482 C   0  0  0  0  0  0  0  0  0  0  0  0
   17.8582   -2.2953   -1.0177 C   0  0  0  0  0  0  0  0  0  0  0  0
   18.8374   -3.1827   -1.3185 C   0  0  0  0  0  0  0  0  0  0  0  0
   20.0780   -2.5561   -0.9758 C   0  0  0  0  0  0  0  0  0  0  0  0
   19.8613   -1.2741   -0.5281 N   0  0  0  0  0  0  0  0  0  0  0  0
   21.2909   -3.2105   -0.9600 C   0  0  0  0  0  0  0  0  0  0  0  0
   22.4217   -2.6758   -0.3758 C   0  0  0  0  0  0  0  0  0  0  0  0
   23.6113   -3.4242   -0.0961 C   0  0  0  0  0  0  0  0  0  0  0  0
   24.4324   -2.6043    0.6021 C   0  0  0  0  0  0  0  0  0  0  0  0
   23.7672   -1.3381    0.6972 C   0  0  0  0  0  0  0  0  0  0  0  0
   22.5307   -1.3994    0.1081 N   0  0  0  0  0  0  0  0  0  0  0  0
   25.3542   -0.2638    1.6089 H   0  0  0  0  0  0  0  0  0  0  0  0
   25.5084    2.3499    1.6583 H   0  0  0  0  0  0  0  0  0  0  0  0
   23.8745    4.3539    0.8573 H   0  0  0  0  0  0  0  0  0  0  0  0
   21.3811    4.4649    0.0667 H   0  0  0  0  0  0  0  0  0  0  0  0
   18.7720    4.5688   -0.1071 H   0  0  0  0  0  0  0  0  0  0  0  0
   16.8051    2.7102   -0.0915 H   0  0  0  0  0  0  0  0  0  0  0  0
   16.7908   -2.4064   -1.1222 H   0  0  0  0  0  0  0  0  0  0  0  0
   18.7456   -4.1851   -1.7055 H   0  0  0  0  0  0  0  0  0  0  0  0
   21.3319   -4.2294   -1.3271 H   0  0  0  0  0  0  0  0  0  0  0  0
   23.7664   -4.4524   -0.3826 H   0  0  0  0  0  0  0  0  0  0  0  0
   25.4143   -2.8086    0.9991 H   0  0  0  0  0  0  0  0  0  0  0  0
   13.8551    0.0871   -0.2449 C   0  0  0  0  0  0  0  0  0  0  0  0
   12.6327    0.0967   -0.2520 C   0  0  0  0  0  0  0  0  0  0  0  0
   15.2038    0.0837   -0.2424 C   0  0  0  0  0  0  0  0  0  0  0  0
   16.4263    0.0818   -0.2517 C   0  0  0  0  0  0  0  0  0  0  0  0
  2  3  4  0  0  0  0
  3  4  1  0  0  0  0
  4  5  2  0  0  0  0
  5  6  1  0  0  0  0
  1  7  1  0  0  0  0
  3  7  4  0  0  0  0
  6  7  4  0  0  0  0
  6  8  4  0  0  0  0
  8  9  4  0  0  0  0
  9 10  4  0  0  0  0
 10 11  2  0  0  0  0
  1 12  1  0  0  0  0
  9 12  4  0  0  0  0
 11 13  4  0  0  0  0
 12 13  4  0  0  0  0
 13 14  4  0  0  0  0
 14 15  4  0  0  0  0
 15 16  4  0  0  0  0
 16 17  2  0  0  0  0
 17 18  1  0  0  0  0
  1 19  1  0  0  0  0
 15 19  4  0  0  0  0
 18 19  4  0  0  0  0
 18 20  4  0  0  0  0
 20 21  4  0  0  0  0
 21 22  1  0  0  0  0
 22 23  2  0  0  0  0
  2 24  4  0  0  0  0
 23 24  1  0  0  0  0
  1 25  1  0  0  0  0
 21 25  4  0  0  0  0
 24 25  4  0  0  0  0
  2 26  1  0  0  0  0
  4 27  1  0  0  0  0
  5 28  1  0  0  0  0
  8 29  1  0  0  0  0
 10 30  1  0  0  0  0
 11 31  1  0  0  0  0
 16 32  1  0  0  0  0
 17 33  1  0  0  0  0
 20 34  1  0  0  0  0
 22 35  1  0  0  0  0
 23 36  1  0  0  0  0
 38 39  4  0  0  0  0
 39 40  1  0  0  0  0
 40 41  2  0  0  0  0
 41 42  1  0  0  0  0
 37 43  1  0  0  0  0
 39 43  4  0  0  0  0
 42 43  4  0  0  0  0
 42 44  4  0  0  0  0
 44 45  4  0  0  0  0
 45 46  1  0  0  0  0
 46 47  2  0  0  0  0
 37 48  1  0  0  0  0
 45 48  4  0  0  0  0
 47 49  4  0  0  0  0
 48 49  4  0  0  0  0
 49 50  4  0  0  0  0
 50 51  4  0  0  0  0
 51 52  4  0  0  0  0
 52 53  2  0  0  0  0
 53 54  1  0  0  0  0
 37 55  1  0  0  0  0
 51 55  4  0  0  0  0
 54 55  4  0  0  0  0
 54 56  4  0  0  0  0
 56 57  4  0  0  0  0
 57 58  1  0  0  0  0
 58 59  2  0  0  0  0
 38 60  4  0  0  0  0
 59 60  1  0  0  0  0
 37 61  1  0  0  0  0
 57 61  4  0  0  0  0
 60 61  4  0  0  0  0
 38 62  1  0  0  0  0
 40 63  1  0  0  0  0
 41 64  1  0  0  0  0
 44 65  1  0  0  0  0
 46 66  1  0  0  0  0
 47 67  1  0  0  0  0
 52 68  1  0  0  0  0
 53 69  1  0  0  0  0
 56 70  1  0  0  0  0
 58 71  1  0  0  0  0
 59 72  1  0  0  0  0
 14 74  4  0  0  0  0
 73 74  3  0  0  0  0
 73 75  4  0  0  0  0
 50 76  4  0  0  0  0
 75 76  3  0  0  0  0
M  END
