 xtb: 6.5.1 (b24c23e)
          07292215593D

115138  0     0  0            999 V2000
   16.1720   -0.0269   -0.0106 Fe  0  0  0  0  0  0  0  0  0  0  0  0
   12.7609   -0.1047    0.0646 C   0  0  0  0  0  0  0  0  0  0  0  0
   13.4092   -0.9620   -0.8010 C   0  0  0  0  0  0  0  0  0  0  0  0
   12.7320   -1.8791   -1.6707 C   0  0  0  0  0  0  0  0  0  0  0  0
   13.6908   -2.5359   -2.3650 C   0  0  0  0  0  0  0  0  0  0  0  0
   14.9506   -2.0202   -1.9150 C   0  0  0  0  0  0  0  0  0  0  0  0
   14.7657   -1.0588   -0.9598 N   0  0  0  0  0  0  0  0  0  0  0  0
   16.1717   -2.4567   -2.3911 C   0  0  0  0  0  0  0  0  0  0  0  0
   17.3902   -1.9823   -1.9571 C   0  0  0  0  0  0  0  0  0  0  0  0
   18.6480   -2.4594   -2.4487 C   0  0  0  0  0  0  0  0  0  0  0  0
   19.6090   -1.7734   -1.7852 C   0  0  0  0  0  0  0  0  0  0  0  0
   17.5830   -1.0108   -1.0042 N   0  0  0  0  0  0  0  0  0  0  0  0
   18.9339   -0.8782   -0.8949 C   0  0  0  0  0  0  0  0  0  0  0  0
   19.6042    0.0112   -0.0453 C   0  0  0  0  0  0  0  0  0  0  0  0
   18.9312    0.8974    0.8056 C   0  0  0  0  0  0  0  0  0  0  0  0
   19.6041    1.8257    1.6632 C   0  0  0  0  0  0  0  0  0  0  0  0
   18.6413    2.5127    2.3232 C   0  0  0  0  0  0  0  0  0  0  0  0
   17.3849    1.9975    1.8680 C   0  0  0  0  0  0  0  0  0  0  0  0
   17.5802    1.0075    0.9347 N   0  0  0  0  0  0  0  0  0  0  0  0
   16.1649    2.4431    2.3276 C   0  0  0  0  0  0  0  0  0  0  0  0
   14.9455    1.9451    1.9109 C   0  0  0  0  0  0  0  0  0  0  0  0
   13.6845    2.4086    2.4115 C   0  0  0  0  0  0  0  0  0  0  0  0
   12.7277    1.6887    1.7799 C   0  0  0  0  0  0  0  0  0  0  0  0
   13.4071    0.7898    0.8931 C   0  0  0  0  0  0  0  0  0  0  0  0
   14.7635    0.9557    0.9842 N   0  0  0  0  0  0  0  0  0  0  0  0
   11.6774   -0.1314    0.0909 H   0  0  0  0  0  0  0  0  0  0  0  0
   11.6605   -1.9883   -1.7272 H   0  0  0  0  0  0  0  0  0  0  0  0
   13.5781   -3.3027   -3.1151 H   0  0  0  0  0  0  0  0  0  0  0  0
   16.1715   -3.2290   -3.1523 H   0  0  0  0  0  0  0  0  0  0  0  0
   18.7599   -3.2222   -3.2029 H   0  0  0  0  0  0  0  0  0  0  0  0
   20.6804   -1.8513   -1.8782 H   0  0  0  0  0  0  0  0  0  0  0  0
   20.6753    1.9253    1.7357 H   0  0  0  0  0  0  0  0  0  0  0  0
   18.7511    3.2973    3.0550 H   0  0  0  0  0  0  0  0  0  0  0  0
   16.1615    3.2327    3.0707 H   0  0  0  0  0  0  0  0  0  0  0  0
   13.5699    3.1847    3.1517 H   0  0  0  0  0  0  0  0  0  0  0  0
   11.6560    1.7455    1.8876 H   0  0  0  0  0  0  0  0  0  0  0  0
   43.0914   -0.0000    0.0023 Fe  0  0  0  0  0  0  0  0  0  0  0  0
   46.5014   -0.0074    0.0483 C   0  0  0  0  0  0  0  0  0  0  0  0
   45.8559    1.2124    0.0529 C   0  0  0  0  0  0  0  0  0  0  0  0
   46.5353    2.4750    0.0716 C   0  0  0  0  0  0  0  0  0  0  0  0
   45.5778    3.4308    0.1237 C   0  0  0  0  0  0  0  0  0  0  0  0
   44.3165    2.7494    0.1378 C   0  0  0  0  0  0  0  0  0  0  0  0
   44.4991    1.3949    0.0776 N   0  0  0  0  0  0  0  0  0  0  0  0
   43.0982    3.3918    0.2431 C   0  0  0  0  0  0  0  0  0  0  0  0
   41.8800    2.7480    0.2621 C   0  0  0  0  0  0  0  0  0  0  0  0
   40.6244    3.4255    0.3874 C   0  0  0  0  0  0  0  0  0  0  0  0
   39.6621    2.4748    0.3177 C   0  0  0  0  0  0  0  0  0  0  0  0
   41.6850    1.3941    0.1302 N   0  0  0  0  0  0  0  0  0  0  0  0
   40.3340    1.2221    0.1473 C   0  0  0  0  0  0  0  0  0  0  0  0
   39.6618    0.0068   -0.0333 C   0  0  0  0  0  0  0  0  0  0  0  0
   40.3323   -1.2108   -0.2036 C   0  0  0  0  0  0  0  0  0  0  0  0
   39.6588   -2.4604   -0.3906 C   0  0  0  0  0  0  0  0  0  0  0  0
   40.6187   -3.4143   -0.4480 C   0  0  0  0  0  0  0  0  0  0  0  0
   41.8744   -2.7422   -0.2963 C   0  0  0  0  0  0  0  0  0  0  0  0
   41.6821   -1.3880   -0.1635 N   0  0  0  0  0  0  0  0  0  0  0  0
   43.0895   -3.3906   -0.2531 C   0  0  0  0  0  0  0  0  0  0  0  0
   44.3073   -2.7535   -0.1137 C   0  0  0  0  0  0  0  0  0  0  0  0
   45.5646   -3.4409   -0.0659 C   0  0  0  0  0  0  0  0  0  0  0  0
   46.5244   -2.4899    0.0191 C   0  0  0  0  0  0  0  0  0  0  0  0
   45.8506   -1.2241    0.0228 C   0  0  0  0  0  0  0  0  0  0  0  0
   44.4942   -1.4002   -0.0434 N   0  0  0  0  0  0  0  0  0  0  0  0
   47.5854   -0.0100    0.0643 H   0  0  0  0  0  0  0  0  0  0  0  0
   47.6073    2.5914    0.0505 H   0  0  0  0  0  0  0  0  0  0  0  0
   45.6926    4.5028    0.1548 H   0  0  0  0  0  0  0  0  0  0  0  0
   43.1007    4.4733    0.3200 H   0  0  0  0  0  0  0  0  0  0  0  0
   40.5143    4.4913    0.5095 H   0  0  0  0  0  0  0  0  0  0  0  0
   38.5915    2.5926    0.3692 H   0  0  0  0  0  0  0  0  0  0  0  0
   38.5888   -2.5736   -0.4614 H   0  0  0  0  0  0  0  0  0  0  0  0
   40.5070   -4.4793   -0.5762 H   0  0  0  0  0  0  0  0  0  0  0  0
   43.0901   -4.4718   -0.3347 H   0  0  0  0  0  0  0  0  0  0  0  0
   45.6752   -4.5133   -0.0981 H   0  0  0  0  0  0  0  0  0  0  0  0
   47.5948   -2.6112    0.0719 H   0  0  0  0  0  0  0  0  0  0  0  0
   22.2288    0.0192   -0.0623 C   0  0  0  0  0  0  0  0  0  0  0  0
   21.0047    0.0187   -0.0519 C   0  0  0  0  0  0  0  0  0  0  0  0
   23.5746    0.0176   -0.0628 C   0  0  0  0  0  0  0  0  0  0  0  0
   24.7990    0.0115   -0.0643 C   0  0  0  0  0  0  0  0  0  0  0  0
   35.6907    0.0198   -0.0563 C   0  0  0  0  0  0  0  0  0  0  0  0
   34.4667    0.0197   -0.0503 C   0  0  0  0  0  0  0  0  0  0  0  0
   37.0370    0.0223   -0.0518 C   0  0  0  0  0  0  0  0  0  0  0  0
   38.2608    0.0106   -0.0433 C   0  0  0  0  0  0  0  0  0  0  0  0
   29.6326   -0.0103   -0.0209 Fe  0  0  0  0  0  0  0  0  0  0  0  0
   26.1983    0.0042   -0.0513 C   0  0  0  0  0  0  0  0  0  0  0  0
   26.8690    0.9171    0.7747 C   0  0  0  0  0  0  0  0  0  0  0  0
   26.1975    1.8510    1.6261 C   0  0  0  0  0  0  0  0  0  0  0  0
   27.1600    2.6072    2.2080 C   0  0  0  0  0  0  0  0  0  0  0  0
   28.4129    2.1325    1.7043 C   0  0  0  0  0  0  0  0  0  0  0  0
   28.2188    1.0792    0.8448 N   0  0  0  0  0  0  0  0  0  0  0  0
   29.6279    2.7182    1.9940 C   0  0  0  0  0  0  0  0  0  0  0  0
   30.8435    2.2828    1.5072 C   0  0  0  0  0  0  0  0  0  0  0  0
   32.0914    2.9230    1.7924 C   0  0  0  0  0  0  0  0  0  0  0  0
   33.0551    2.1693    1.2090 C   0  0  0  0  0  0  0  0  0  0  0  0
   31.0409    1.1611    0.7408 N   0  0  0  0  0  0  0  0  0  0  0  0
   32.3898    1.0715    0.5766 C   0  0  0  0  0  0  0  0  0  0  0  0
   33.0668    0.0114   -0.0414 C   0  0  0  0  0  0  0  0  0  0  0  0
   32.3968   -1.0645   -0.6397 C   0  0  0  0  0  0  0  0  0  0  0  0
   33.0685   -2.1673   -1.2564 C   0  0  0  0  0  0  0  0  0  0  0  0
   32.1066   -2.9541   -1.7974 C   0  0  0  0  0  0  0  0  0  0  0  0
   30.8539   -2.3247   -1.5088 C   0  0  0  0  0  0  0  0  0  0  0  0
   31.0471   -1.1791   -0.7771 N   0  0  0  0  0  0  0  0  0  0  0  0
   29.6389   -2.7829   -1.9755 C   0  0  0  0  0  0  0  0  0  0  0  0
   28.4231   -2.1859   -1.7131 C   0  0  0  0  0  0  0  0  0  0  0  0
   27.1750   -2.6613   -2.2279 C   0  0  0  0  0  0  0  0  0  0  0  0
   26.2106   -1.8725   -1.6943 C   0  0  0  0  0  0  0  0  0  0  0  0
   26.8757   -0.9243   -0.8538 C   0  0  0  0  0  0  0  0  0  0  0  0
   28.2247   -1.1053   -0.8895 N   0  0  0  0  0  0  0  0  0  0  0  0
   25.1278    1.9089    1.7479 H   0  0  0  0  0  0  0  0  0  0  0  0
   27.0503    3.4192    2.9091 H   0  0  0  0  0  0  0  0  0  0  0  0
   29.6267    3.5872    2.6428 H   0  0  0  0  0  0  0  0  0  0  0  0
   32.1974    3.8282    2.3688 H   0  0  0  0  0  0  0  0  0  0  0  0
   34.1224    2.3224    1.2053 H   0  0  0  0  0  0  0  0  0  0  0  0
   34.1380   -2.3030   -1.2693 H   0  0  0  0  0  0  0  0  0  0  0  0
   32.2168   -3.8738   -2.3496 H   0  0  0  0  0  0  0  0  0  0  0  0
   29.6404   -3.6712   -2.5976 H   0  0  0  0  0  0  0  0  0  0  0  0
   27.0697   -3.4939   -2.9051 H   0  0  0  0  0  0  0  0  0  0  0  0
   25.1432   -1.9194   -1.8388 H   0  0  0  0  0  0  0  0  0  0  0  0
  2  3  4  0  0  0  0
  3  4  1  0  0  0  0
  4  5  2  0  0  0  0
  5  6  4  0  0  0  0
  1  7  1  0  0  0  0
  3  7  4  0  0  0  0
  6  7  4  0  0  0  0
  6  8  4  0  0  0  0
  8  9  4  0  0  0  0
  9 10  4  0  0  0  0
 10 11  2  0  0  0  0
  1 12  1  0  0  0  0
  9 12  4  0  0  0  0
 11 13  4  0  0  0  0
 12 13  4  0  0  0  0
 13 14  4  0  0  0  0
 14 15  4  0  0  0  0
 15 16  4  0  0  0  0
 16 17  2  0  0  0  0
 17 18  4  0  0  0  0
  1 19  1  0  0  0  0
 15 19  4  0  0  0  0
 18 19  4  0  0  0  0
 18 20  4  0  0  0  0
 20 21  4  0  0  0  0
 21 22  4  0  0  0  0
 22 23  2  0  0  0  0
  2 24  4  0  0  0  0
 23 24  1  0  0  0  0
  1 25  1  0  0  0  0
 21 25  4  0  0  0  0
 24 25  4  0  0  0  0
  2 26  1  0  0  0  0
  4 27  1  0  0  0  0
  5 28  1  0  0  0  0
  8 29  1  0  0  0  0
 10 30  1  0  0  0  0
 11 31  1  0  0  0  0
 16 32  1  0  0  0  0
 17 33  1  0  0  0  0
 20 34  1  0  0  0  0
 22 35  1  0  0  0  0
 23 36  1  0  0  0  0
 38 39  4  0  0  0  0
 39 40  1  0  0  0  0
 40 41  2  0  0  0  0
 41 42  4  0  0  0  0
 37 43  1  0  0  0  0
 39 43  4  0  0  0  0
 42 43  4  0  0  0  0
 42 44  4  0  0  0  0
 44 45  4  0  0  0  0
 45 46  4  0  0  0  0
 46 47  2  0  0  0  0
 37 48  1  0  0  0  0
 45 48  4  0  0  0  0
 47 49  4  0  0  0  0
 48 49  4  0  0  0  0
 49 50  4  0  0  0  0
 50 51  4  0  0  0  0
 51 52  4  0  0  0  0
 52 53  2  0  0  0  0
 53 54  4  0  0  0  0
 37 55  1  0  0  0  0
 51 55  4  0  0  0  0
 54 55  4  0  0  0  0
 54 56  4  0  0  0  0
 56 57  4  0  0  0  0
 57 58  4  0  0  0  0
 58 59  2  0  0  0  0
 38 60  4  0  0  0  0
 59 60  1  0  0  0  0
 37 61  1  0  0  0  0
 57 61  4  0  0  0  0
 60 61  4  0  0  0  0
 38 62  1  0  0  0  0
 40 63  1  0  0  0  0
 41 64  1  0  0  0  0
 44 65  1  0  0  0  0
 46 66  1  0  0  0  0
 47 67  1  0  0  0  0
 52 68  1  0  0  0  0
 53 69  1  0  0  0  0
 56 70  1  0  0  0  0
 58 71  1  0  0  0  0
 59 72  1  0  0  0  0
 14 74  4  0  0  0  0
 73 74  3  0  0  0  0
 73 75  4  0  0  0  0
 75 76  3  0  0  0  0
 77 78  3  0  0  0  0
 77 79  4  0  0  0  0
 50 80  4  0  0  0  0
 79 80  3  0  0  0  0
 76 82  4  0  0  0  0
 82 83  4  0  0  0  0
 83 84  4  0  0  0  0
 84 85  2  0  0  0  0
 85 86  4  0  0  0  0
 81 87  1  0  0  0  0
 83 87  4  0  0  0  0
 86 87  4  0  0  0  0
 86 88  4  0  0  0  0
 88 89  4  0  0  0  0
 89 90  4  0  0  0  0
 90 91  2  0  0  0  0
 81 92  1  0  0  0  0
 89 92  4  0  0  0  0
 91 93  4  0  0  0  0
 92 93  4  0  0  0  0
 78 94  4  0  0  0  0
 93 94  4  0  0  0  0
 94 95  4  0  0  0  0
 95 96  4  0  0  0  0
 96 97  2  0  0  0  0
 97 98  4  0  0  0  0
 81 99  1  0  0  0  0
 95 99  4  0  0  0  0
 98 99  4  0  0  0  0
 98100  4  0  0  0  0
100101  4  0  0  0  0
101102  4  0  0  0  0
102103  2  0  0  0  0
 82104  4  0  0  0  0
103104  4  0  0  0  0
 81105  1  0  0  0  0
101105  4  0  0  0  0
104105  4  0  0  0  0
 84106  1  0  0  0  0
 85107  1  0  0  0  0
 88108  1  0  0  0  0
 90109  1  0  0  0  0
 91110  1  0  0  0  0
 96111  1  0  0  0  0
 97112  1  0  0  0  0
100113  1  0  0  0  0
102114  1  0  0  0  0
103115  1  0  0  0  0
M  END
