189

Co 35.239824 0.055855 -0.451327
C 31.895368 0.211650 -0.362894
C 32.546789 1.373881 -0.261762
C 31.884039 2.670467 -0.190565
C 32.815721 3.597488 -0.067154
C 34.127033 2.934735 -0.040542
N 33.963026 1.522315 -0.174380
C 35.313492 3.560119 0.107860
C 35.349390 5.030299 0.283857
C 34.860601 5.616708 1.462533
C 34.904977 7.012029 1.638639
C 34.385398 7.633191 2.876901
O 34.436260 9.014776 3.043849
O 33.891898 6.919089 3.791457
C 35.452530 7.811443 0.620114
C 35.946317 7.227619 -0.549453
C 35.897491 5.842826 -0.718156
C 36.611470 2.835441 0.114230
C 37.889135 3.451962 0.491832
C 38.832194 2.542228 0.354077
N 36.765717 1.595461 -0.236467
C 38.163379 1.333265 -0.110772
C 38.768338 0.178565 -0.433538
C 38.015716 -1.012651 -0.885548
C 38.555467 -2.034226 -1.538226
C 37.521814 -3.038756 -1.697234
C 36.420058 -2.565752 -1.126223
N 36.642012 -1.261726 -0.587054
C 35.148488 -3.323340 -1.001573
C 35.184398 -4.798182 -1.157027
C 35.929073 -5.578820 -0.261508
C 35.980691 -6.965385 -0.413716
C 35.294944 -7.583580 -1.462303
C 34.550009 -6.816484 -2.376086
C 33.825311 -7.465267 -3.491017
O 33.087761 -6.698478 -4.389537
O 33.867892 -8.716840 -3.638036
C 34.504233 -5.420056 -2.217420
C 33.980697 -2.701472 -0.748920
C 32.679219 -3.343026 -0.570097
C 31.808398 -2.366456 -0.403154
C 32.545151 -1.105031 -0.460868
N 33.811830 -1.288056 -0.662068
H 30.811779 0.228973 -0.372236
H 30.818823 2.857584 -0.235926
H 32.617934 4.659293 -0.000384
H 34.448686 4.981120 2.237573
H 34.083009 9.450312 3.887537
H 35.501448 8.887810 0.726371
H 36.368479 7.850875 -1.327181
H 36.284598 5.402610 -1.629005
H 38.050470 4.467941 0.827497
H 39.884565 2.693929 0.553893
H 39.581816 -2.121810 -1.868661
H 37.639273 -4.005029 -2.170433
H 36.465963 -5.112618 0.555640
H 36.554237 -7.563236 0.282814
H 35.350067 -8.660715 -1.558589
H 32.587749 -7.132671 -5.156150
H 33.944585 -4.809894 -2.916343
H 32.447151 -4.399880 -0.569191
H 30.744891 -2.491397 -0.247333
Co 54.983345 0.300366 -0.410328
C 58.327801 0.124246 -0.377549
C 57.676380 -1.007406 -0.661049
C 58.339130 -2.256301 -1.016670
C 57.407448 -3.172874 -1.202386
C 56.096136 -2.555050 -0.961051
N 56.260143 -1.176224 -0.626862
C 54.909677 -3.194636 -1.024755
C 54.873779 -4.641813 -1.337932
C 55.362568 -5.580614 -0.414998
C 55.318192 -6.957064 -0.703654
C 55.837771 -7.948151 0.264271
O 55.786909 -9.308628 -0.028560
O 56.331271 -7.571418 1.361736
C 54.770639 -7.380529 -1.927227
C 54.276852 -6.447144 -2.842394
C 54.325678 -5.083062 -2.550174
C 53.611699 -2.511670 -0.782356
C 52.334034 -3.217639 -0.626505
C 51.390975 -2.312728 -0.459987
N 53.457452 -1.225118 -0.709413
C 52.059790 -1.018262 -0.505068
C 51.454831 0.178565 -0.433538
C 52.207453 1.452067 -0.472272
C 51.667702 2.630661 -0.756033
C 52.701355 3.632116 -0.578684
C 53.803111 2.998728 -0.193189
N 53.581157 1.590156 -0.108860
C 55.074681 3.674222 0.171755
C 55.038771 5.119107 0.505872
C 54.294096 5.564946 1.607043
C 54.242478 6.925323 1.915433
C 54.928225 7.851738 1.125842
C 55.673160 7.424657 0.011823
C 56.397858 8.401628 -0.830507
O 57.135408 7.969859 -1.929997
O 56.355277 9.632703 -0.561243
C 55.718936 6.052850 -0.293680
C 56.242472 3.003955 0.207747
C 57.543950 3.552092 0.586055
C 58.414771 2.574480 0.425326
C 57.678018 1.400872 -0.040687
N 56.411339 1.639514 -0.171182
H 59.411390 0.110918 -0.392031
H 59.404346 -2.418388 -1.120584
H 57.605235 -4.198385 -1.485611
H 55.774483 -5.232594 0.524970
H 56.140160 -9.995540 0.626919
H 54.721721 -8.432686 -2.177874
H 53.854690 -6.782630 -3.780880
H 53.938571 -4.369819 -3.267615
H 52.172699 -4.287540 -0.640594
H 50.338604 -2.521309 -0.320581
H 50.641353 2.821237 -1.039827
H 52.583896 4.699889 -0.710821
H 53.757206 4.857703 2.227431
H 53.668932 7.263280 2.768877
H 54.873102 8.901368 1.386165
H 57.635420 8.630360 -2.513055
H 56.278584 5.704037 -1.153401
H 57.776018 4.550847 0.931638
H 59.478278 2.641761 0.613378
C 39.855047 0.178565 -0.433538
C 41.076965 0.178565 -0.433538
C 49.146204 0.178565 -0.433538
C 50.368122 0.178565 -0.433538
Co 44.899039 -0.311398 0.254328
C 41.977062 -0.374694 0.909720
C 42.313969 -1.385272 0.107439
C 42.010485 -1.442027 -1.324271
C 42.853041 -2.284136 -1.902922
C 43.825760 -2.707234 -0.892769
N 43.465144 -2.176048 0.379561
C 45.050319 -3.192143 -1.166714
C 45.334492 -3.886279 -2.450951
C 44.468086 -4.889866 -2.922003
C 44.731254 -5.559715 -4.131081
C 43.815563 -6.611377 -4.626300
O 44.089963 -7.276428 -5.818697
O 42.778993 -6.914581 -3.975318
C 45.879601 -5.218254 -4.864482
C 46.746956 -4.228194 -4.398844
C 46.479685 -3.565924 -3.199827
C 46.181410 -2.792278 -0.304170
C 47.314743 -3.642347 0.064950
C 48.221837 -2.867133 0.640626
N 46.396255 -1.552065 -0.000124
C 47.681510 -1.509158 0.607413
C 48.338846 -0.374694 0.909720
C 47.729836 0.961451 0.687999
C 48.401586 2.098270 0.551990
C 47.423692 3.156271 0.325601
C 46.217755 2.596319 0.351716
N 46.328891 1.190492 0.575059
C 44.917206 3.319609 0.203704
C 44.909498 4.798297 0.114590
C 44.421511 5.433579 -1.036538
C 44.412608 6.826942 -1.118854
C 44.889935 7.596991 -0.055392
C 45.382499 6.977575 1.107418
C 45.888947 7.788123 2.236860
O 46.377352 7.166875 3.383397
O 45.883639 9.047393 2.172255
C 45.386727 5.573485 1.183643
C 43.748325 2.645946 0.215929
C 42.396871 3.205125 0.304434
C 41.580211 2.177933 0.505011
C 42.399731 0.966666 0.503331
N 43.651790 1.237827 0.348280
H 41.237717 -0.884834 -1.837879
H 42.889007 -2.483967 -2.965939
H 43.593238 -5.151542 -2.338744
H 43.469457 -7.997450 -6.167055
H 46.109420 -5.715815 -5.798230
H 47.629127 -3.971507 -4.971052
H 47.161414 -2.794221 -2.864549
H 47.413771 -4.704937 -0.113078
H 49.186924 -3.192786 1.005206
H 49.476187 2.218882 0.580295
H 47.645816 4.203520 0.170416
H 44.051066 4.848614 -1.869546
H 44.035510 7.312100 -2.009908
H 44.873087 8.676099 -0.143676
H 46.726172 7.712626 4.162297
H 45.756065 5.076743 2.072893
H 42.105273 4.247010 0.281604
H 40.511409 2.240153 0.660857
