 xtb: 6.5.1 (b24c23e)
          07292223043D

189218  0     0  0            999 V2000
   34.3491    0.0159   -0.2135 Co  0  0  0  0  0  0  0  0  0  0  0  0
   31.0556   -0.2388    0.4312 C   0  0  0  0  0  0  0  0  0  0  0  0
   31.5715    1.0101    0.1524 C   0  0  0  0  0  0  0  0  0  0  0  0
   30.7891    2.2045    0.0546 C   0  0  0  0  0  0  0  0  0  0  0  0
   31.6605    3.2283   -0.1070 C   0  0  0  0  0  0  0  0  0  0  0  0
   32.9774    2.6613   -0.0656 C   0  0  0  0  0  0  0  0  0  0  0  0
   32.9059    1.2936    0.0145 N   0  0  0  0  0  0  0  0  0  0  0  0
   34.1481    3.3978    0.0597 C   0  0  0  0  0  0  0  0  0  0  0  0
   34.0740    4.8742    0.1421 C   0  0  0  0  0  0  0  0  0  0  0  0
   33.3198    5.4957    1.1336 C   0  0  0  0  0  0  0  0  0  0  0  0
   33.2554    6.8865    1.2058 C   0  0  0  0  0  0  0  0  0  0  0  0
   32.4321    7.4882    2.2850 C   0  0  0  0  0  0  0  0  0  0  0  0
   32.4436    8.8289    2.2841 O   0  0  0  0  0  0  0  0  0  0  0  0
   31.8037    6.8543    3.0936 O   0  0  0  0  0  0  0  0  0  0  0  0
   33.9488    7.6679    0.2815 C   0  0  0  0  0  0  0  0  0  0  0  0
   34.7031    7.0516   -0.7047 C   0  0  0  0  0  0  0  0  0  0  0  0
   34.7687    5.6673   -0.7747 C   0  0  0  0  0  0  0  0  0  0  0  0
   35.3899    2.7852    0.1603 C   0  0  0  0  0  0  0  0  0  0  0  0
   36.6087    3.4727    0.4626 C   0  0  0  0  0  0  0  0  0  0  0  0
   37.6078    2.5635    0.3524 C   0  0  0  0  0  0  0  0  0  0  0  0
   35.6393    1.4555   -0.0823 N   0  0  0  0  0  0  0  0  0  0  0  0
   36.9998    1.3282   -0.0290 C   0  0  0  0  0  0  0  0  0  0  0  0
   37.7165    0.2232   -0.4982 C   0  0  0  0  0  0  0  0  0  0  0  0
   37.0692   -0.9345   -0.9438 C   0  0  0  0  0  0  0  0  0  0  0  0
   37.7346   -2.0293   -1.5753 C   0  0  0  0  0  0  0  0  0  0  0  0
   36.8130   -3.0101   -1.7320 C   0  0  0  0  0  0  0  0  0  0  0  0
   35.5938   -2.5244   -1.1580 C   0  0  0  0  0  0  0  0  0  0  0  0
   35.7486   -1.2190   -0.7464 N   0  0  0  0  0  0  0  0  0  0  0  0
   34.4828   -3.3111   -0.8959 C   0  0  0  0  0  0  0  0  0  0  0  0
   34.5146   -4.7533   -1.2302 C   0  0  0  0  0  0  0  0  0  0  0  0
   35.4915   -5.5918   -0.6882 C   0  0  0  0  0  0  0  0  0  0  0  0
   35.5147   -6.9439   -1.0007 C   0  0  0  0  0  0  0  0  0  0  0  0
   34.5655   -7.4754   -1.8577 C   0  0  0  0  0  0  0  0  0  0  0  0
   33.5824   -6.6484   -2.4034 C   0  0  0  0  0  0  0  0  0  0  0  0
   32.5810   -7.2563   -3.3153 C   0  0  0  0  0  0  0  0  0  0  0  0
   31.6749   -6.3823   -3.7773 O   0  0  0  0  0  0  0  0  0  0  0  0
   32.5621   -8.4202   -3.6245 O   0  0  0  0  0  0  0  0  0  0  0  0
   33.5569   -5.2917   -2.0875 C   0  0  0  0  0  0  0  0  0  0  0  0
   33.3446   -2.7910   -0.2891 C   0  0  0  0  0  0  0  0  0  0  0  0
   32.2278   -3.5765    0.1481 C   0  0  0  0  0  0  0  0  0  0  0  0
   31.2758   -2.7075    0.5632 C   0  0  0  0  0  0  0  0  0  0  0  0
   31.8070   -1.3926    0.3667 C   0  0  0  0  0  0  0  0  0  0  0  0
   33.0995   -1.4585   -0.0933 N   0  0  0  0  0  0  0  0  0  0  0  0
   30.0013   -0.3214    0.6673 H   0  0  0  0  0  0  0  0  0  0  0  0
   29.7122    2.2352    0.1000 H   0  0  0  0  0  0  0  0  0  0  0  0
   31.4438    4.2768   -0.2306 H   0  0  0  0  0  0  0  0  0  0  0  0
   32.7887    4.9057    1.8725 H   0  0  0  0  0  0  0  0  0  0  0  0
   31.8845    9.1417    3.0138 H   0  0  0  0  0  0  0  0  0  0  0  0
   33.8956    8.7483    0.3381 H   0  0  0  0  0  0  0  0  0  0  0  0
   35.2439    7.6526   -1.4270 H   0  0  0  0  0  0  0  0  0  0  0  0
   35.3514    5.1915   -1.5557 H   0  0  0  0  0  0  0  0  0  0  0  0
   36.6791    4.5138    0.7325 H   0  0  0  0  0  0  0  0  0  0  0  0
   38.6665    2.7089    0.4924 H   0  0  0  0  0  0  0  0  0  0  0  0
   38.7742   -2.0343   -1.8590 H   0  0  0  0  0  0  0  0  0  0  0  0
   36.9409   -3.9806   -2.1828 H   0  0  0  0  0  0  0  0  0  0  0  0
   36.2252   -5.1820   -0.0032 H   0  0  0  0  0  0  0  0  0  0  0  0
   36.2767   -7.5830   -0.5696 H   0  0  0  0  0  0  0  0  0  0  0  0
   34.5698   -8.5291   -2.1127 H   0  0  0  0  0  0  0  0  0  0  0  0
   31.0609   -6.8551   -4.3623 H   0  0  0  0  0  0  0  0  0  0  0  0
   32.7999   -4.6492   -2.5214 H   0  0  0  0  0  0  0  0  0  0  0  0
   32.1928   -4.6539    0.1389 H   0  0  0  0  0  0  0  0  0  0  0  0
   30.2911   -2.9173    0.9496 H   0  0  0  0  0  0  0  0  0  0  0  0
   55.8661    0.1324   -0.1082 Co  0  0  0  0  0  0  0  0  0  0  0  0
   59.1727   -0.0346    0.4932 C   0  0  0  0  0  0  0  0  0  0  0  0
   58.5644   -1.1087   -0.1231 C   0  0  0  0  0  0  0  0  0  0  0  0
   59.2541   -2.2760   -0.5817 C   0  0  0  0  0  0  0  0  0  0  0  0
   58.3062   -3.1551   -0.9844 C   0  0  0  0  0  0  0  0  0  0  0  0
   57.0359   -2.5367   -0.7365 C   0  0  0  0  0  0  0  0  0  0  0  0
   57.2102   -1.2529   -0.2851 N   0  0  0  0  0  0  0  0  0  0  0  0
   55.8159   -3.1996   -0.7711 C   0  0  0  0  0  0  0  0  0  0  0  0
   55.7819   -4.6462   -1.0829 C   0  0  0  0  0  0  0  0  0  0  0  0
   56.5101   -5.5563   -0.3216 C   0  0  0  0  0  0  0  0  0  0  0  0
   56.4714   -6.9179   -0.6187 C   0  0  0  0  0  0  0  0  0  0  0  0
   57.2693   -7.8374    0.2315 C   0  0  0  0  0  0  0  0  0  0  0  0
   57.1579   -9.1260   -0.1217 O   0  0  0  0  0  0  0  0  0  0  0  0
   57.9588   -7.4839    1.1535 O   0  0  0  0  0  0  0  0  0  0  0  0
   55.7008   -7.3796   -1.6856 C   0  0  0  0  0  0  0  0  0  0  0  0
   54.9728   -6.4759   -2.4439 C   0  0  0  0  0  0  0  0  0  0  0  0
   55.0093   -5.1213   -2.1460 C   0  0  0  0  0  0  0  0  0  0  0  0
   54.6240   -2.5501   -0.4786 C   0  0  0  0  0  0  0  0  0  0  0  0
   53.3577   -3.2028   -0.3379 C   0  0  0  0  0  0  0  0  0  0  0  0
   52.4283   -2.2258   -0.2003 C   0  0  0  0  0  0  0  0  0  0  0  0
   54.4735   -1.1883   -0.3690 N   0  0  0  0  0  0  0  0  0  0  0  0
   53.1252   -0.9811   -0.2719 C   0  0  0  0  0  0  0  0  0  0  0  0
   52.4959    0.2584   -0.4234 C   0  0  0  0  0  0  0  0  0  0  0  0
   53.2336    1.4430   -0.5269 C   0  0  0  0  0  0  0  0  0  0  0  0
   52.6664    2.7157   -0.8401 C   0  0  0  0  0  0  0  0  0  0  0  0
   53.6538    3.6321   -0.6899 C   0  0  0  0  0  0  0  0  0  0  0  0
   54.8170    2.9166   -0.2585 C   0  0  0  0  0  0  0  0  0  0  0  0
   54.5638    1.5631   -0.2425 N   0  0  0  0  0  0  0  0  0  0  0  0
   55.9687    3.5108    0.2354 C   0  0  0  0  0  0  0  0  0  0  0  0
   56.0318    4.9849    0.3575 C   0  0  0  0  0  0  0  0  0  0  0  0
   55.0859    5.6784    1.1163 C   0  0  0  0  0  0  0  0  0  0  0  0
   55.1499    7.0597    1.2353 C   0  0  0  0  0  0  0  0  0  0  0  0
   56.1564    7.7661    0.5984 C   0  0  0  0  0  0  0  0  0  0  0  0
   57.1086    7.0846   -0.1613 C   0  0  0  0  0  0  0  0  0  0  0  0
   58.1739    7.8773   -0.8255 C   0  0  0  0  0  0  0  0  0  0  0  0
   59.0427    7.1312   -1.5232 O   0  0  0  0  0  0  0  0  0  0  0  0
   58.2705    9.0758   -0.7579 O   0  0  0  0  0  0  0  0  0  0  0  0
   57.0462    5.6979   -0.2790 C   0  0  0  0  0  0  0  0  0  0  0  0
   57.0603    2.7560    0.6502 C   0  0  0  0  0  0  0  0  0  0  0  0
   58.2265    3.2939    1.2879 C   0  0  0  0  0  0  0  0  0  0  0  0
   59.1206    2.2817    1.3880 C   0  0  0  0  0  0  0  0  0  0  0  0
   58.5027    1.1290    0.8058 C   0  0  0  0  0  0  0  0  0  0  0  0
   57.2160    1.4150    0.4205 N   0  0  0  0  0  0  0  0  0  0  0  0
   60.2327   -0.0949    0.7092 H   0  0  0  0  0  0  0  0  0  0  0  0
   60.3265   -2.3890   -0.5889 H   0  0  0  0  0  0  0  0  0  0  0  0
   58.4418   -4.1397   -1.4017 H   0  0  0  0  0  0  0  0  0  0  0  0
   57.1008   -5.2192    0.5231 H   0  0  0  0  0  0  0  0  0  0  0  0
   57.7050   -9.6583    0.4786 H   0  0  0  0  0  0  0  0  0  0  0  0
   55.6739   -8.4376   -1.9163 H   0  0  0  0  0  0  0  0  0  0  0  0
   54.3725   -6.8276   -3.2754 H   0  0  0  0  0  0  0  0  0  0  0  0
   54.4465   -4.4186   -2.7504 H   0  0  0  0  0  0  0  0  0  0  0  0
   53.2105   -4.2706   -0.3350 H   0  0  0  0  0  0  0  0  0  0  0  0
   51.3629   -2.3255   -0.0727 H   0  0  0  0  0  0  0  0  0  0  0  0
   51.6443    2.8734   -1.1432 H   0  0  0  0  0  0  0  0  0  0  0  0
   53.6067    4.6972   -0.8488 H   0  0  0  0  0  0  0  0  0  0  0  0
   54.3071    5.1263    1.6303 H   0  0  0  0  0  0  0  0  0  0  0  0
   54.4112    7.5836    1.8311 H   0  0  0  0  0  0  0  0  0  0  0  0
   56.2210    8.8451    0.6810 H   0  0  0  0  0  0  0  0  0  0  0  0
   59.7023    7.7209   -1.9233 H   0  0  0  0  0  0  0  0  0  0  0  0
   57.7791    5.1725   -0.8799 H   0  0  0  0  0  0  0  0  0  0  0  0
   58.3330    4.3156    1.6147 H   0  0  0  0  0  0  0  0  0  0  0  0
   60.1179    2.2994    1.7979 H   0  0  0  0  0  0  0  0  0  0  0  0
   39.1166    0.2977   -0.5808 C   0  0  0  0  0  0  0  0  0  0  0  0
   40.3304    0.3660   -0.6593 C   0  0  0  0  0  0  0  0  0  0  0  0
   49.8811    0.3576   -0.6080 C   0  0  0  0  0  0  0  0  0  0  0  0
   51.0954    0.3116   -0.5199 C   0  0  0  0  0  0  0  0  0  0  0  0
   45.1059    0.4837   -0.8845 Co  0  0  0  0  0  0  0  0  0  0  0  0
   41.7286    0.4314   -0.7629 C   0  0  0  0  0  0  0  0  0  0  0  0
   42.3901   -0.4640   -1.6131 C   0  0  0  0  0  0  0  0  0  0  0  0
   41.7305   -1.3611   -2.5069 C   0  0  0  0  0  0  0  0  0  0  0  0
   42.6897   -2.1553   -3.0430 C   0  0  0  0  0  0  0  0  0  0  0  0
   43.9294   -1.7623   -2.4437 C   0  0  0  0  0  0  0  0  0  0  0  0
   43.7400   -0.6610   -1.6390 N   0  0  0  0  0  0  0  0  0  0  0  0
   45.1040   -2.4990   -2.4973 C   0  0  0  0  0  0  0  0  0  0  0  0
   45.1230   -3.7892   -3.2204 C   0  0  0  0  0  0  0  0  0  0  0  0
   44.2160   -4.7976   -2.9054 C   0  0  0  0  0  0  0  0  0  0  0  0
   44.2411   -6.0111   -3.5911 C   0  0  0  0  0  0  0  0  0  0  0  0
   43.2438   -7.0440   -3.2121 C   0  0  0  0  0  0  0  0  0  0  0  0
   43.3623   -8.1832   -3.9081 O   0  0  0  0  0  0  0  0  0  0  0  0
   42.3990   -6.8946   -2.3666 O   0  0  0  0  0  0  0  0  0  0  0  0
   45.1794   -6.2248   -4.6007 C   0  0  0  0  0  0  0  0  0  0  0  0
   46.0858   -5.2239   -4.9143 C   0  0  0  0  0  0  0  0  0  0  0  0
   46.0614   -4.0168   -4.2308 C   0  0  0  0  0  0  0  0  0  0  0  0
   46.2604   -2.0795   -1.8481 C   0  0  0  0  0  0  0  0  0  0  0  0
   47.4495   -2.8623   -1.7101 C   0  0  0  0  0  0  0  0  0  0  0  0
   48.3895   -2.0505   -1.1648 C   0  0  0  0  0  0  0  0  0  0  0  0
   46.4570   -0.8195   -1.3412 N   0  0  0  0  0  0  0  0  0  0  0  0
   47.7760   -0.7740   -0.9826 C   0  0  0  0  0  0  0  0  0  0  0  0
   48.4826    0.4059   -0.7233 C   0  0  0  0  0  0  0  0  0  0  0  0
   47.8288    1.6419   -0.6386 C   0  0  0  0  0  0  0  0  0  0  0  0
   48.4975    2.8996   -0.5393 C   0  0  0  0  0  0  0  0  0  0  0  0
   47.5418    3.8358   -0.3191 C   0  0  0  0  0  0  0  0  0  0  0  0
   46.2938    3.1381   -0.2445 C   0  0  0  0  0  0  0  0  0  0  0  0
   46.4778    1.8034   -0.5286 N   0  0  0  0  0  0  0  0  0  0  0  0
   45.1127    3.6818    0.2406 C   0  0  0  0  0  0  0  0  0  0  0  0
   45.0944    5.0845    0.7118 C   0  0  0  0  0  0  0  0  0  0  0  0
   44.1923    5.9979    0.1606 C   0  0  0  0  0  0  0  0  0  0  0  0
   44.1674    7.3160    0.5938 C   0  0  0  0  0  0  0  0  0  0  0  0
   45.0367    7.7374    1.5863 C   0  0  0  0  0  0  0  0  0  0  0  0
   45.9370    6.8323    2.1505 C   0  0  0  0  0  0  0  0  0  0  0  0
   46.8474    7.3205    3.2172 C   0  0  0  0  0  0  0  0  0  0  0  0
   47.6746    6.3771    3.6897 O   0  0  0  0  0  0  0  0  0  0  0  0
   46.8610    8.4506    3.6330 O   0  0  0  0  0  0  0  0  0  0  0  0
   45.9654    5.5100    1.7129 C   0  0  0  0  0  0  0  0  0  0  0  0
   43.9470    2.9302    0.3410 C   0  0  0  0  0  0  0  0  0  0  0  0
   42.7504    3.3616    0.9960 C   0  0  0  0  0  0  0  0  0  0  0  0
   41.8093    2.4154    0.7520 C   0  0  0  0  0  0  0  0  0  0  0  0
   42.4284    1.4218   -0.0658 C   0  0  0  0  0  0  0  0  0  0  0  0
   43.7518    1.7097   -0.2551 N   0  0  0  0  0  0  0  0  0  0  0  0
   40.6704   -1.3649   -2.7009 H   0  0  0  0  0  0  0  0  0  0  0  0
   42.5746   -2.9440   -3.7683 H   0  0  0  0  0  0  0  0  0  0  0  0
   43.4924   -4.6584   -2.1096 H   0  0  0  0  0  0  0  0  0  0  0  0
   42.6790   -8.8034   -3.6059 H   0  0  0  0  0  0  0  0  0  0  0  0
   45.1961   -7.1677   -5.1337 H   0  0  0  0  0  0  0  0  0  0  0  0
   46.8170   -5.3825   -5.6988 H   0  0  0  0  0  0  0  0  0  0  0  0
   46.7645   -3.2332   -4.4903 H   0  0  0  0  0  0  0  0  0  0  0  0
   47.5428   -3.8995   -1.9883 H   0  0  0  0  0  0  0  0  0  0  0  0
   49.4145   -2.2796   -0.9244 H   0  0  0  0  0  0  0  0  0  0  0  0
   49.5625    3.0369   -0.6297 H   0  0  0  0  0  0  0  0  0  0  0  0
   47.6643    4.9001   -0.2019 H   0  0  0  0  0  0  0  0  0  0  0  0
   43.5184    5.6718   -0.6237 H   0  0  0  0  0  0  0  0  0  0  0  0
   43.4662    8.0149    0.1524 H   0  0  0  0  0  0  0  0  0  0  0  0
   45.0301    8.7632    1.9372 H   0  0  0  0  0  0  0  0  0  0  0  0
   48.2292    6.7721    4.3822 H   0  0  0  0  0  0  0  0  0  0  0  0
   46.6526    4.8055    2.1663 H   0  0  0  0  0  0  0  0  0  0  0  0
   42.6555    4.2657    1.5751 H   0  0  0  0  0  0  0  0  0  0  0  0
   40.7818    2.3900    1.0765 H   0  0  0  0  0  0  0  0  0  0  0  0
  2  3  4  0  0  0  0
  3  4  1  0  0  0  0
  4  5  2  0  0  0  0
  5  6  4  0  0  0  0
  1  7  1  0  0  0  0
  3  7  4  0  0  0  0
  6  7  4  0  0  0  0
  6  8  4  0  0  0  0
  8  9  1  0  0  0  0
  9 10  4  0  0  0  0
 10 11  4  0  0  0  0
 11 12  1  0  0  0  0
 12 13  4  0  0  0  0
 12 14  2  0  0  0  0
 11 15  4  0  0  0  0
 15 16  4  0  0  0  0
  9 17  4  0  0  0  0
 16 17  4  0  0  0  0
  8 18  4  0  0  0  0
 18 19  4  0  0  0  0
 19 20  2  0  0  0  0
  1 21  1  0  0  0  0
 18 21  4  0  0  0  0
 20 22  4  0  0  0  0
 21 22  4  0  0  0  0
 22 23  4  0  0  0  0
 23 24  4  0  0  0  0
 24 25  4  0  0  0  0
 25 26  2  0  0  0  0
 26 27  4  0  0  0  0
  1 28  1  0  0  0  0
 24 28  4  0  0  0  0
 27 28  4  0  0  0  0
 27 29  4  0  0  0  0
 29 30  1  0  0  0  0
 30 31  4  0  0  0  0
 31 32  4  0  0  0  0
 32 33  4  0  0  0  0
 33 34  4  0  0  0  0
 34 35  1  0  0  0  0
 35 36  4  0  0  0  0
 35 37  2  0  0  0  0
 30 38  4  0  0  0  0
 34 38  4  0  0  0  0
 29 39  4  0  0  0  0
 39 40  4  0  0  0  0
 40 41  2  0  0  0  0
  2 42  4  0  0  0  0
 41 42  1  0  0  0  0
  1 43  1  0  0  0  0
 39 43  4  0  0  0  0
 42 43  4  0  0  0  0
  2 44  1  0  0  0  0
  4 45  1  0  0  0  0
  5 46  1  0  0  0  0
 10 47  1  0  0  0  0
 13 48  1  0  0  0  0
 15 49  1  0  0  0  0
 16 50  1  0  0  0  0
 17 51  1  0  0  0  0
 19 52  1  0  0  0  0
 20 53  1  0  0  0  0
 25 54  1  0  0  0  0
 26 55  1  0  0  0  0
 31 56  1  0  0  0  0
 32 57  1  0  0  0  0
 33 58  1  0  0  0  0
 36 59  1  0  0  0  0
 38 60  1  0  0  0  0
 40 61  1  0  0  0  0
 41 62  1  0  0  0  0
 64 65  4  0  0  0  0
 65 66  1  0  0  0  0
 66 67  2  0  0  0  0
 67 68  4  0  0  0  0
 63 69  1  0  0  0  0
 65 69  4  0  0  0  0
 68 69  4  0  0  0  0
 68 70  4  0  0  0  0
 70 71  1  0  0  0  0
 71 72  4  0  0  0  0
 72 73  4  0  0  0  0
 73 74  1  0  0  0  0
 74 75  4  0  0  0  0
 74 76  2  0  0  0  0
 73 77  4  0  0  0  0
 77 78  4  0  0  0  0
 71 79  4  0  0  0  0
 78 79  4  0  0  0  0
 70 80  4  0  0  0  0
 80 81  4  0  0  0  0
 81 82  2  0  0  0  0
 63 83  1  0  0  0  0
 80 83  4  0  0  0  0
 82 84  4  0  0  0  0
 83 84  4  0  0  0  0
 84 85  4  0  0  0  0
 85 86  4  0  0  0  0
 86 87  4  0  0  0  0
 87 88  2  0  0  0  0
 88 89  4  0  0  0  0
 63 90  1  0  0  0  0
 86 90  4  0  0  0  0
 89 90  4  0  0  0  0
 89 91  4  0  0  0  0
 91 92  1  0  0  0  0
 92 93  4  0  0  0  0
 93 94  4  0  0  0  0
 94 95  4  0  0  0  0
 95 96  4  0  0  0  0
 96 97  1  0  0  0  0
 97 98  4  0  0  0  0
 97 99  2  0  0  0  0
 92100  4  0  0  0  0
 96100  4  0  0  0  0
 91101  4  0  0  0  0
101102  4  0  0  0  0
102103  2  0  0  0  0
 64104  4  0  0  0  0
103104  1  0  0  0  0
 63105  1  0  0  0  0
101105  4  0  0  0  0
104105  4  0  0  0  0
 64106  1  0  0  0  0
 66107  1  0  0  0  0
 67108  1  0  0  0  0
 72109  1  0  0  0  0
 75110  1  0  0  0  0
 77111  1  0  0  0  0
 78112  1  0  0  0  0
 79113  1  0  0  0  0
 81114  1  0  0  0  0
 82115  1  0  0  0  0
 87116  1  0  0  0  0
 88117  1  0  0  0  0
 93118  1  0  0  0  0
 94119  1  0  0  0  0
 95120  1  0  0  0  0
 98121  1  0  0  0  0
100122  1  0  0  0  0
102123  1  0  0  0  0
103124  1  0  0  0  0
 23125  1  0  0  0  0
125126  3  0  0  0  0
 85128  4  0  0  0  0
127128  3  0  0  0  0
126130  4  0  0  0  0
130131  4  0  0  0  0
131132  4  0  0  0  0
132133  2  0  0  0  0
133134  4  0  0  0  0
129135  1  0  0  0  0
131135  4  0  0  0  0
134135  4  0  0  0  0
134136  4  0  0  0  0
136137  1  0  0  0  0
137138  4  0  0  0  0
138139  4  0  0  0  0
139140  1  0  0  0  0
140141  4  0  0  0  0
140142  2  0  0  0  0
139143  4  0  0  0  0
143144  4  0  0  0  0
137145  4  0  0  0  0
144145  4  0  0  0  0
136146  4  0  0  0  0
146147  4  0  0  0  0
147148  2  0  0  0  0
129149  1  0  0  0  0
146149  4  0  0  0  0
148150  4  0  0  0  0
149150  4  0  0  0  0
127151  4  0  0  0  0
150151  4  0  0  0  0
151152  4  0  0  0  0
152153  4  0  0  0  0
153154  2  0  0  0  0
154155  4  0  0  0  0
129156  1  0  0  0  0
152156  4  0  0  0  0
155156  4  0  0  0  0
155157  4  0  0  0  0
157158  1  0  0  0  0
158159  4  0  0  0  0
159160  4  0  0  0  0
160161  4  0  0  0  0
161162  4  0  0  0  0
162163  1  0  0  0  0
163164  4  0  0  0  0
163165  2  0  0  0  0
158166  4  0  0  0  0
162166  4  0  0  0  0
157167  4  0  0  0  0
167168  4  0  0  0  0
168169  2  0  0  0  0
130170  4  0  0  0  0
169170  4  0  0  0  0
129171  1  0  0  0  0
167171  4  0  0  0  0
170171  4  0  0  0  0
132172  1  0  0  0  0
133173  1  0  0  0  0
138174  1  0  0  0  0
141175  1  0  0  0  0
143176  1  0  0  0  0
144177  1  0  0  0  0
145178  1  0  0  0  0
147179  1  0  0  0  0
148180  1  0  0  0  0
153181  1  0  0  0  0
154182  1  0  0  0  0
159183  1  0  0  0  0
160184  1  0  0  0  0
161185  1  0  0  0  0
164186  1  0  0  0  0
166187  1  0  0  0  0
168188  1  0  0  0  0
169189  1  0  0  0  0
M  END
