 xtb: 6.5.1 (b24c23e)
          07302215293D

268295  0     0  0            999 V2000
   46.2635   -0.0871    0.0752 C   0  0  0  0  0  0  0  0  0  0  0  0
   46.8809   -1.3191   -0.0977 C   0  0  0  0  0  0  0  0  0  0  0  0
   46.2382   -2.5827   -0.2239 C   0  0  0  0  0  0  0  0  0  0  0  0
   47.2058   -3.5322   -0.3947 C   0  0  0  0  0  0  0  0  0  0  0  0
   48.4708   -2.8776   -0.3872 C   0  0  0  0  0  0  0  0  0  0  0  0
   48.2245   -1.5482   -0.1946 N   0  0  0  0  0  0  0  0  0  0  0  0
   49.7373   -3.4581   -0.5224 C   0  0  0  0  0  0  0  0  0  0  0  0
   50.9487   -2.7652   -0.4549 C   0  0  0  0  0  0  0  0  0  0  0  0
   52.2486   -3.3817   -0.6526 C   0  0  0  0  0  0  0  0  0  0  0  0
   53.1629   -2.4011   -0.5049 C   0  0  0  0  0  0  0  0  0  0  0  0
   51.0945   -1.4329   -0.2175 N   0  0  0  0  0  0  0  0  0  0  0  0
   52.4201   -1.1859   -0.2310 C   0  0  0  0  0  0  0  0  0  0  0  0
   53.0491    0.0568   -0.0161 C   0  0  0  0  0  0  0  0  0  0  0  0
   52.4066    1.2907    0.1965 C   0  0  0  0  0  0  0  0  0  0  0  0
   53.0443    2.5381    0.4298 C   0  0  0  0  0  0  0  0  0  0  0  0
   52.0721    3.4882    0.5754 C   0  0  0  0  0  0  0  0  0  0  0  0
   50.8092    2.8498    0.4273 C   0  0  0  0  0  0  0  0  0  0  0  0
   49.5430    3.4382    0.5172 C   0  0  0  0  0  0  0  0  0  0  0  0
   49.5023    4.9033    0.7329 C   0  0  0  0  0  0  0  0  0  0  0  0
   50.0784    5.7727   -0.1976 C   0  0  0  0  0  0  0  0  0  0  0  0
   50.0376    7.1397    0.0051 C   0  0  0  0  0  0  0  0  0  0  0  0
   49.4247    7.6642    1.1447 C   0  0  0  0  0  0  0  0  0  0  0  0
   49.4089    9.1361    1.3190 C   0  0  0  0  0  0  0  0  0  0  0  0
   48.7940    9.5374    2.4419 O   0  0  0  0  0  0  0  0  0  0  0  0
   49.8943    9.9184    0.5418 O   0  0  0  0  0  0  0  0  0  0  0  0
   48.8504    6.8008    2.0783 C   0  0  0  0  0  0  0  0  0  0  0  0
   48.8882    5.4332    1.8709 C   0  0  0  0  0  0  0  0  0  0  0  0
   48.3301    2.7471    0.4213 C   0  0  0  0  0  0  0  0  0  0  0  0
   47.0207    3.3799    0.4651 C   0  0  0  0  0  0  0  0  0  0  0  0
   46.1138    2.3897    0.3456 C   0  0  0  0  0  0  0  0  0  0  0  0
   46.8677    1.1551    0.2156 C   0  0  0  0  0  0  0  0  0  0  0  0
   48.1988    1.4100    0.2559 N   0  0  0  0  0  0  0  0  0  0  0  0
   51.0634    1.5220    0.2084 N   0  0  0  0  0  0  0  0  0  0  0  0
   49.7766   -4.9211   -0.7564 C   0  0  0  0  0  0  0  0  0  0  0  0
   49.1653   -5.4721   -1.8857 C   0  0  0  0  0  0  0  0  0  0  0  0
   49.2010   -6.8372   -2.1103 C   0  0  0  0  0  0  0  0  0  0  0  0
   49.8465   -7.6767   -1.2020 C   0  0  0  0  0  0  0  0  0  0  0  0
   49.9098   -9.1451   -1.3952 C   0  0  0  0  0  0  0  0  0  0  0  0
   49.2954   -9.5668   -2.5110 O   0  0  0  0  0  0  0  0  0  0  0  0
   50.4532   -9.9083   -0.6379 O   0  0  0  0  0  0  0  0  0  0  0  0
   50.4562   -7.1311   -0.0706 C   0  0  0  0  0  0  0  0  0  0  0  0
   50.4235   -5.7665    0.1492 C   0  0  0  0  0  0  0  0  0  0  0  0
   45.1786   -0.1066    0.0975 H   0  0  0  0  0  0  0  0  0  0  0  0
   45.1713   -2.7328   -0.1820 H   0  0  0  0  0  0  0  0  0  0  0  0
   47.0623   -4.5946   -0.5065 H   0  0  0  0  0  0  0  0  0  0  0  0
   48.9448   -0.8367   -0.1303 H   0  0  0  0  0  0  0  0  0  0  0  0
   52.4168   -4.4204   -0.8864 H   0  0  0  0  0  0  0  0  0  0  0  0
   54.2365   -2.4652   -0.5800 H   0  0  0  0  0  0  0  0  0  0  0  0
   54.1117    2.6793    0.4833 H   0  0  0  0  0  0  0  0  0  0  0  0
   52.2139    4.5370    0.7788 H   0  0  0  0  0  0  0  0  0  0  0  0
   50.5418    5.3692   -1.0909 H   0  0  0  0  0  0  0  0  0  0  0  0
   50.4774    7.8198   -0.7162 H   0  0  0  0  0  0  0  0  0  0  0  0
   48.8265   10.5071    2.4805 H   0  0  0  0  0  0  0  0  0  0  0  0
   48.3773    7.2030    2.9663 H   0  0  0  0  0  0  0  0  0  0  0  0
   48.4546    4.7621    2.6038 H   0  0  0  0  0  0  0  0  0  0  0  0
   46.8443    4.4393    0.5600 H   0  0  0  0  0  0  0  0  0  0  0  0
   45.0373    2.4575    0.3330 H   0  0  0  0  0  0  0  0  0  0  0  0
   50.3450    0.8162    0.0842 H   0  0  0  0  0  0  0  0  0  0  0  0
   48.6762   -4.8191   -2.5998 H   0  0  0  0  0  0  0  0  0  0  0  0
   48.7301   -7.2555   -2.9920 H   0  0  0  0  0  0  0  0  0  0  0  0
   49.3828  -10.5324   -2.5636 H   0  0  0  0  0  0  0  0  0  0  0  0
   50.9524   -7.7931    0.6306 H   0  0  0  0  0  0  0  0  0  0  0  0
   50.8860   -5.3465    1.0350 H   0  0  0  0  0  0  0  0  0  0  0  0
  101.0764    0.0935    0.1057 C   0  0  0  0  0  0  0  0  0  0  0  0
  100.4515    1.2690    0.5013 C   0  0  0  0  0  0  0  0  0  0  0  0
  101.0862    2.4599    0.9539 C   0  0  0  0  0  0  0  0  0  0  0  0
  100.1128    3.3809    1.2203 C   0  0  0  0  0  0  0  0  0  0  0  0
   98.8520    2.7854    0.9291 C   0  0  0  0  0  0  0  0  0  0  0  0
   99.1066    1.5102    0.5119 N   0  0  0  0  0  0  0  0  0  0  0  0
   97.5820    3.3605    1.0533 C   0  0  0  0  0  0  0  0  0  0  0  0
   96.3758    2.7035    0.7958 C   0  0  0  0  0  0  0  0  0  0  0  0
   95.0732    3.3412    0.8683 C   0  0  0  0  0  0  0  0  0  0  0  0
   94.1650    2.3896    0.5696 C   0  0  0  0  0  0  0  0  0  0  0  0
   96.2382    1.3990    0.4333 N   0  0  0  0  0  0  0  0  0  0  0  0
   94.9143    1.1767    0.3039 C   0  0  0  0  0  0  0  0  0  0  0  0
   94.2923   -0.0452   -0.0218 C   0  0  0  0  0  0  0  0  0  0  0  0
   94.9422   -1.2497   -0.3490 C   0  0  0  0  0  0  0  0  0  0  0  0
   94.3132   -2.4833   -0.6642 C   0  0  0  0  0  0  0  0  0  0  0  0
   95.2912   -3.3936   -0.9544 C   0  0  0  0  0  0  0  0  0  0  0  0
   96.5490   -2.7400   -0.8319 C   0  0  0  0  0  0  0  0  0  0  0  0
   97.8187   -3.2944   -1.0284 C   0  0  0  0  0  0  0  0  0  0  0  0
   97.8683   -4.7036   -1.4823 C   0  0  0  0  0  0  0  0  0  0  0  0
   97.2727   -5.0790   -2.6899 C   0  0  0  0  0  0  0  0  0  0  0  0
   97.3240   -6.3934   -3.1153 C   0  0  0  0  0  0  0  0  0  0  0  0
   97.9673   -7.3596   -2.3394 C   0  0  0  0  0  0  0  0  0  0  0  0
   97.9947   -8.7556   -2.8374 C   0  0  0  0  0  0  0  0  0  0  0  0
   98.6414   -9.6036   -2.0234 O   0  0  0  0  0  0  0  0  0  0  0  0
   97.4925   -9.1191   -3.8705 O   0  0  0  0  0  0  0  0  0  0  0  0
   98.5603   -6.9914   -1.1313 C   0  0  0  0  0  0  0  0  0  0  0  0
   98.5117   -5.6743   -0.7097 C   0  0  0  0  0  0  0  0  0  0  0  0
   99.0272   -2.6179   -0.8280 C   0  0  0  0  0  0  0  0  0  0  0  0
  100.3398   -3.1906   -1.0852 C   0  0  0  0  0  0  0  0  0  0  0  0
  101.2406   -2.2416   -0.7608 C   0  0  0  0  0  0  0  0  0  0  0  0
  100.4796   -1.0857   -0.3200 C   0  0  0  0  0  0  0  0  0  0  0  0
   99.1504   -1.3448   -0.3848 N   0  0  0  0  0  0  0  0  0  0  0  0
   96.2864   -1.4504   -0.4532 N   0  0  0  0  0  0  0  0  0  0  0  0
   97.5303    4.7745    1.4936 C   0  0  0  0  0  0  0  0  0  0  0  0
   98.1496    5.7746    0.7394 C   0  0  0  0  0  0  0  0  0  0  0  0
   98.1001    7.0963    1.1469 C   0  0  0  0  0  0  0  0  0  0  0  0
   97.4323    7.4392    2.3229 C   0  0  0  0  0  0  0  0  0  0  0  0
   97.3524    8.8392    2.8036 C   0  0  0  0  0  0  0  0  0  0  0  0
   97.9769    9.7177    2.0045 O   0  0  0  0  0  0  0  0  0  0  0  0
   96.7882    9.1813    3.8115 O   0  0  0  0  0  0  0  0  0  0  0  0
   96.8145    6.4430    3.0815 C   0  0  0  0  0  0  0  0  0  0  0  0
   96.8612    5.1240    2.6700 C   0  0  0  0  0  0  0  0  0  0  0  0
  102.1614    0.1089    0.1315 H   0  0  0  0  0  0  0  0  0  0  0  0
  102.1521    2.5810    1.0627 H   0  0  0  0  0  0  0  0  0  0  0  0
  100.2497    4.3825    1.5944 H   0  0  0  0  0  0  0  0  0  0  0  0
   98.3908    0.8406    0.2500 H   0  0  0  0  0  0  0  0  0  0  0  0
   94.8993    4.3791    1.1015 H   0  0  0  0  0  0  0  0  0  0  0  0
   93.0916    2.4769    0.5177 H   0  0  0  0  0  0  0  0  0  0  0  0
   93.2472   -2.6446   -0.6626 H   0  0  0  0  0  0  0  0  0  0  0  0
   95.1567   -4.4296   -1.2193 H   0  0  0  0  0  0  0  0  0  0  0  0
   96.7861   -4.3281   -3.3020 H   0  0  0  0  0  0  0  0  0  0  0  0
   96.8695   -6.6895   -4.0544 H   0  0  0  0  0  0  0  0  0  0  0  0
   98.6149  -10.4899   -2.4191 H   0  0  0  0  0  0  0  0  0  0  0  0
   99.0568   -7.7387   -0.5237 H   0  0  0  0  0  0  0  0  0  0  0  0
   98.9602   -5.3917    0.2360 H   0  0  0  0  0  0  0  0  0  0  0  0
  100.5222   -4.1794   -1.4740 H   0  0  0  0  0  0  0  0  0  0  0  0
  102.3171   -2.2858   -0.8136 H   0  0  0  0  0  0  0  0  0  0  0  0
   97.0000   -0.7519   -0.2730 H   0  0  0  0  0  0  0  0  0  0  0  0
   98.6555    5.5116   -0.1828 H   0  0  0  0  0  0  0  0  0  0  0  0
   98.5773    7.8665    0.5526 H   0  0  0  0  0  0  0  0  0  0  0  0
   97.8774   10.6049    2.3864 H   0  0  0  0  0  0  0  0  0  0  0  0
   96.3008    6.7200    3.9954 H   0  0  0  0  0  0  0  0  0  0  0  0
   96.3921    4.3505    3.2673 H   0  0  0  0  0  0  0  0  0  0  0  0
   58.2519    0.1221    0.0211 C   0  0  0  0  0  0  0  0  0  0  0  0
   57.0239    0.1128    0.0083 C   0  0  0  0  0  0  0  0  0  0  0  0
   55.6791    0.0991   -0.0026 C   0  0  0  0  0  0  0  0  0  0  0  0
   54.4557    0.0805   -0.0127 C   0  0  0  0  0  0  0  0  0  0  0  0
   59.5965    0.1273    0.0331 C   0  0  0  0  0  0  0  0  0  0  0  0
   60.8203    0.1270    0.0451 C   0  0  0  0  0  0  0  0  0  0  0  0
   74.2856   -0.0561   -0.0647 C   0  0  0  0  0  0  0  0  0  0  0  0
   73.0567   -0.0493   -0.0680 C   0  0  0  0  0  0  0  0  0  0  0  0
   71.7133   -0.0359   -0.0628 C   0  0  0  0  0  0  0  0  0  0  0  0
   70.4890   -0.0140   -0.0540 C   0  0  0  0  0  0  0  0  0  0  0  0
   75.6290   -0.0573   -0.0546 C   0  0  0  0  0  0  0  0  0  0  0  0
   76.8533   -0.0569   -0.0350 C   0  0  0  0  0  0  0  0  0  0  0  0
   90.3175   -0.0989   -0.0025 C   0  0  0  0  0  0  0  0  0  0  0  0
   89.0895   -0.0963    0.0132 C   0  0  0  0  0  0  0  0  0  0  0  0
   87.7449   -0.0872    0.0300 C   0  0  0  0  0  0  0  0  0  0  0  0
   86.5213   -0.0702    0.0455 C   0  0  0  0  0  0  0  0  0  0  0  0
   91.6623   -0.0913   -0.0144 C   0  0  0  0  0  0  0  0  0  0  0  0
   92.8858   -0.0746   -0.0239 C   0  0  0  0  0  0  0  0  0  0  0  0
   62.2260    0.1226    0.0480 C   0  0  0  0  0  0  0  0  0  0  0  0
   62.8561    1.0599   -0.7924 C   0  0  0  0  0  0  0  0  0  0  0  0
   62.2103    1.9930   -1.6444 C   0  0  0  0  0  0  0  0  0  0  0  0
   63.1777    2.7261   -2.2751 C   0  0  0  0  0  0  0  0  0  0  0  0
   64.4433    2.2651   -1.8203 C   0  0  0  0  0  0  0  0  0  0  0  0
   64.1982    1.2527   -0.9323 N   0  0  0  0  0  0  0  0  0  0  0  0
   65.7051    2.7260   -2.2160 C   0  0  0  0  0  0  0  0  0  0  0  0
   66.9295    2.2083   -1.7904 C   0  0  0  0  0  0  0  0  0  0  0  0
   68.2184    2.7479   -2.1858 C   0  0  0  0  0  0  0  0  0  0  0  0
   69.1532    1.9874   -1.5796 C   0  0  0  0  0  0  0  0  0  0  0  0
   67.1027    1.1554   -0.9447 N   0  0  0  0  0  0  0  0  0  0  0  0
   68.4340    0.9938   -0.8069 C   0  0  0  0  0  0  0  0  0  0  0  0
   69.0852    0.0120   -0.0328 C   0  0  0  0  0  0  0  0  0  0  0  0
   68.4534   -0.9489    0.7805 C   0  0  0  0  0  0  0  0  0  0  0  0
   69.0967   -1.9492    1.5543 C   0  0  0  0  0  0  0  0  0  0  0  0
   68.1298   -2.6567    2.2148 C   0  0  0  0  0  0  0  0  0  0  0  0
   66.8674   -2.1028    1.8678 C   0  0  0  0  0  0  0  0  0  0  0  0
   65.6071   -2.5247    2.3087 C   0  0  0  0  0  0  0  0  0  0  0  0
   65.5916   -3.6290    3.2984 C   0  0  0  0  0  0  0  0  0  0  0  0
   64.9692   -4.8433    2.9972 C   0  0  0  0  0  0  0  0  0  0  0  0
   64.9562   -5.8694    3.9239 C   0  0  0  0  0  0  0  0  0  0  0  0
   65.5608   -5.6994    5.1708 C   0  0  0  0  0  0  0  0  0  0  0  0
   65.5172   -6.8269    6.1327 C   0  0  0  0  0  0  0  0  0  0  0  0
   66.1231   -6.5604    7.2996 O   0  0  0  0  0  0  0  0  0  0  0  0
   64.9942   -7.8894    5.9119 O   0  0  0  0  0  0  0  0  0  0  0  0
   66.1827   -4.4886    5.4770 C   0  0  0  0  0  0  0  0  0  0  0  0
   66.1994   -3.4649    4.5458 C   0  0  0  0  0  0  0  0  0  0  0  0
   64.3829   -1.9932    1.8985 C   0  0  0  0  0  0  0  0  0  0  0  0
   63.0969   -2.4288    2.4140 C   0  0  0  0  0  0  0  0  0  0  0  0
   62.1615   -1.6957    1.7761 C   0  0  0  0  0  0  0  0  0  0  0  0
   62.8778   -0.8048    0.8846 C   0  0  0  0  0  0  0  0  0  0  0  0
   64.2087   -0.9985    0.9860 N   0  0  0  0  0  0  0  0  0  0  0  0
   67.1133   -1.0808    0.9905 N   0  0  0  0  0  0  0  0  0  0  0  0
   65.7200    3.8620   -3.1693 C   0  0  0  0  0  0  0  0  0  0  0  0
   65.1595    5.0912   -2.8115 C   0  0  0  0  0  0  0  0  0  0  0  0
   65.1738    6.1501   -3.7005 C   0  0  0  0  0  0  0  0  0  0  0  0
   65.7430    5.9982   -4.9662 C   0  0  0  0  0  0  0  0  0  0  0  0
   65.7303    7.1616   -5.8853 C   0  0  0  0  0  0  0  0  0  0  0  0
   66.3026    6.9137   -7.0730 O   0  0  0  0  0  0  0  0  0  0  0  0
   65.2576    8.2362   -5.6151 O   0  0  0  0  0  0  0  0  0  0  0  0
   66.3013    4.7723   -5.3294 C   0  0  0  0  0  0  0  0  0  0  0  0
   66.2909    3.7154   -4.4359 C   0  0  0  0  0  0  0  0  0  0  0  0
   61.1420    2.0820   -1.7574 H   0  0  0  0  0  0  0  0  0  0  0  0
   63.0296    3.5102   -2.9995 H   0  0  0  0  0  0  0  0  0  0  0  0
   64.9173    0.7194   -0.4550 H   0  0  0  0  0  0  0  0  0  0  0  0
   68.3661    3.6007   -2.8283 H   0  0  0  0  0  0  0  0  0  0  0  0
   70.2268    2.0751   -1.6264 H   0  0  0  0  0  0  0  0  0  0  0  0
   70.1629   -2.1038    1.5917 H   0  0  0  0  0  0  0  0  0  0  0  0
   68.2758   -3.4951    2.8761 H   0  0  0  0  0  0  0  0  0  0  0  0
   64.5095   -4.9814    2.0252 H   0  0  0  0  0  0  0  0  0  0  0  0
   64.4790   -6.8160    3.6952 H   0  0  0  0  0  0  0  0  0  0  0  0
   66.0501   -7.3428    7.8699 H   0  0  0  0  0  0  0  0  0  0  0  0
   66.6502   -4.3507    6.4447 H   0  0  0  0  0  0  0  0  0  0  0  0
   66.6709   -2.5194    4.7892 H   0  0  0  0  0  0  0  0  0  0  0  0
   62.9516   -3.1836    3.1695 H   0  0  0  0  0  0  0  0  0  0  0  0
   61.0896   -1.7269    1.8878 H   0  0  0  0  0  0  0  0  0  0  0  0
   66.3955   -0.5082    0.5591 H   0  0  0  0  0  0  0  0  0  0  0  0
   64.7284    5.2151   -1.8246 H   0  0  0  0  0  0  0  0  0  0  0  0
   64.7460    7.1084   -3.4270 H   0  0  0  0  0  0  0  0  0  0  0  0
   66.2547    7.7200   -7.6119 H   0  0  0  0  0  0  0  0  0  0  0  0
   66.7408    4.6490   -6.3121 H   0  0  0  0  0  0  0  0  0  0  0  0
   66.7135    2.7591   -4.7227 H   0  0  0  0  0  0  0  0  0  0  0  0
   78.2572   -0.0475   -0.0109 C   0  0  0  0  0  0  0  0  0  0  0  0
   78.8921    0.8891   -0.8498 C   0  0  0  0  0  0  0  0  0  0  0  0
   78.2517    1.7995   -1.7297 C   0  0  0  0  0  0  0  0  0  0  0  0
   79.2208    2.5523   -2.3345 C   0  0  0  0  0  0  0  0  0  0  0  0
   80.4818    2.1269   -1.8345 C   0  0  0  0  0  0  0  0  0  0  0  0
   80.2328    1.1121   -0.9499 N   0  0  0  0  0  0  0  0  0  0  0  0
   81.7438    2.6236   -2.1835 C   0  0  0  0  0  0  0  0  0  0  0  0
   82.9658    2.1351   -1.7171 C   0  0  0  0  0  0  0  0  0  0  0  0
   84.2537    2.7107   -2.0623 C   0  0  0  0  0  0  0  0  0  0  0  0
   85.1867    1.9591   -1.4425 C   0  0  0  0  0  0  0  0  0  0  0  0
   83.1365    1.0742   -0.8817 N   0  0  0  0  0  0  0  0  0  0  0  0
   84.4670    0.9365   -0.7091 C   0  0  0  0  0  0  0  0  0  0  0  0
   85.1158   -0.0525    0.0564 C   0  0  0  0  0  0  0  0  0  0  0  0
   84.4822   -1.0292    0.8479 C   0  0  0  0  0  0  0  0  0  0  0  0
   85.1237   -2.0264    1.6273 C   0  0  0  0  0  0  0  0  0  0  0  0
   84.1542   -2.7420    2.2751 C   0  0  0  0  0  0  0  0  0  0  0  0
   82.8919   -2.1978    1.9125 C   0  0  0  0  0  0  0  0  0  0  0  0
   81.6293   -2.6300    2.3374 C   0  0  0  0  0  0  0  0  0  0  0  0
   81.6118   -3.7278    3.3343 C   0  0  0  0  0  0  0  0  0  0  0  0
   81.0072   -4.9512    3.0339 C   0  0  0  0  0  0  0  0  0  0  0  0
   80.9946   -5.9710    3.9676 C   0  0  0  0  0  0  0  0  0  0  0  0
   81.5813   -5.7854    5.2209 C   0  0  0  0  0  0  0  0  0  0  0  0
   81.5383   -6.9065    6.1901 C   0  0  0  0  0  0  0  0  0  0  0  0
   82.1282   -6.6257    7.3619 O   0  0  0  0  0  0  0  0  0  0  0  0
   81.0296   -7.9763    5.9706 O   0  0  0  0  0  0  0  0  0  0  0  0
   82.1851   -4.5653    5.5263 C   0  0  0  0  0  0  0  0  0  0  0  0
   82.2019   -3.5482    4.5881 C   0  0  0  0  0  0  0  0  0  0  0  0
   80.4066   -2.1147    1.9042 C   0  0  0  0  0  0  0  0  0  0  0  0
   79.1169   -2.5608    2.4009 C   0  0  0  0  0  0  0  0  0  0  0  0
   78.1844   -1.8452    1.7392 C   0  0  0  0  0  0  0  0  0  0  0  0
   78.9058   -0.9545    0.8516 C   0  0  0  0  0  0  0  0  0  0  0  0
   80.2364   -1.1302    0.9791 N   0  0  0  0  0  0  0  0  0  0  0  0
   83.1404   -1.1731    1.0399 N   0  0  0  0  0  0  0  0  0  0  0  0
   81.7644    3.7645   -3.1303 C   0  0  0  0  0  0  0  0  0  0  0  0
   81.1484    4.9731   -2.7940 C   0  0  0  0  0  0  0  0  0  0  0  0
   81.1733    6.0383   -3.6751 C   0  0  0  0  0  0  0  0  0  0  0  0
   81.8096    5.9139   -4.9116 C   0  0  0  0  0  0  0  0  0  0  0  0
   81.8087    7.0838   -5.8223 C   0  0  0  0  0  0  0  0  0  0  0  0
   82.4531    6.8649   -6.9783 O   0  0  0  0  0  0  0  0  0  0  0  0
   81.2866    8.1402   -5.5715 O   0  0  0  0  0  0  0  0  0  0  0  0
   82.4225    4.7081   -5.2540 C   0  0  0  0  0  0  0  0  0  0  0  0
   82.4004    3.6448   -4.3686 C   0  0  0  0  0  0  0  0  0  0  0  0
   77.1858    1.8612   -1.8780 H   0  0  0  0  0  0  0  0  0  0  0  0
   79.0771    3.3271   -3.0696 H   0  0  0  0  0  0  0  0  0  0  0  0
   80.9491    0.6010   -0.4450 H   0  0  0  0  0  0  0  0  0  0  0  0
   84.4020    3.5792   -2.6832 H   0  0  0  0  0  0  0  0  0  0  0  0
   86.2589    2.0712   -1.4549 H   0  0  0  0  0  0  0  0  0  0  0  0
   86.1906   -2.1717    1.6785 H   0  0  0  0  0  0  0  0  0  0  0  0
   84.2984   -3.5796    2.9378 H   0  0  0  0  0  0  0  0  0  0  0  0
   80.5618   -5.1015    2.0571 H   0  0  0  0  0  0  0  0  0  0  0  0
   80.5316   -6.9248    3.7395 H   0  0  0  0  0  0  0  0  0  0  0  0
   82.0565   -7.4050    7.9367 H   0  0  0  0  0  0  0  0  0  0  0  0
   82.6387   -4.4153    6.4989 H   0  0  0  0  0  0  0  0  0  0  0  0
   82.6598   -2.5957    4.8305 H   0  0  0  0  0  0  0  0  0  0  0  0
   78.9672   -3.3104    3.1608 H   0  0  0  0  0  0  0  0  0  0  0  0
   77.1110   -1.8890    1.8316 H   0  0  0  0  0  0  0  0  0  0  0  0
   82.4237   -0.6056    0.5999 H   0  0  0  0  0  0  0  0  0  0  0  0
   80.6663    5.0769   -1.8285 H   0  0  0  0  0  0  0  0  0  0  0  0
   80.7031    6.9809   -3.4175 H   0  0  0  0  0  0  0  0  0  0  0  0
   82.4081    7.6738   -7.5135 H   0  0  0  0  0  0  0  0  0  0  0  0
   82.9139    4.6058   -6.2143 H   0  0  0  0  0  0  0  0  0  0  0  0
   82.8658    2.7040   -4.6401 H   0  0  0  0  0  0  0  0  0  0  0  0
  1  2  4  0  0  0  0
  2  3  4  0  0  0  0
  3  4  2  0  0  0  0
  4  5  4  0  0  0  0
  2  6  4  0  0  0  0
  5  6  4  0  0  0  0
  5  7  4  0  0  0  0
  7  8  4  0  0  0  0
  8  9  1  0  0  0  0
  9 10  2  0  0  0  0
  8 11  4  0  0  0  0
 10 12  1  0  0  0  0
 11 12  4  0  0  0  0
 12 13  4  0  0  0  0
 13 14  4  0  0  0  0
 14 15  4  0  0  0  0
 15 16  2  0  0  0  0
 16 17  4  0  0  0  0
 17 18  4  0  0  0  0
 18 19  1  0  0  0  0
 19 20  4  0  0  0  0
 20 21  4  0  0  0  0
 21 22  4  0  0  0  0
 22 23  1  0  0  0  0
 23 24  4  0  0  0  0
 23 25  2  0  0  0  0
 22 26  4  0  0  0  0
 19 27  4  0  0  0  0
 26 27  4  0  0  0  0
 18 28  4  0  0  0  0
 28 29  1  0  0  0  0
 29 30  2  0  0  0  0
  1 31  4  0  0  0  0
 30 31  1  0  0  0  0
 28 32  4  0  0  0  0
 31 32  4  0  0  0  0
 14 33  4  0  0  0  0
 17 33  4  0  0  0  0
  7 34  1  0  0  0  0
 34 35  4  0  0  0  0
 35 36  4  0  0  0  0
 36 37  4  0  0  0  0
 37 38  1  0  0  0  0
 38 39  4  0  0  0  0
 38 40  2  0  0  0  0
 37 41  4  0  0  0  0
 34 42  4  0  0  0  0
 41 42  4  0  0  0  0
  1 43  1  0  0  0  0
  3 44  1  0  0  0  0
  4 45  1  0  0  0  0
  6 46  1  0  0  0  0
  9 47  1  0  0  0  0
 10 48  1  0  0  0  0
 15 49  1  0  0  0  0
 16 50  1  0  0  0  0
 20 51  1  0  0  0  0
 21 52  1  0  0  0  0
 24 53  1  0  0  0  0
 26 54  1  0  0  0  0
 27 55  1  0  0  0  0
 29 56  1  0  0  0  0
 30 57  1  0  0  0  0
 33 58  1  0  0  0  0
 35 59  1  0  0  0  0
 36 60  1  0  0  0  0
 39 61  1  0  0  0  0
 41 62  1  0  0  0  0
 42 63  1  0  0  0  0
 64 65  4  0  0  0  0
 65 66  4  0  0  0  0
 66 67  2  0  0  0  0
 67 68  4  0  0  0  0
 65 69  4  0  0  0  0
 68 69  4  0  0  0  0
 68 70  4  0  0  0  0
 70 71  4  0  0  0  0
 71 72  1  0  0  0  0
 72 73  2  0  0  0  0
 71 74  4  0  0  0  0
 73 75  1  0  0  0  0
 74 75  4  0  0  0  0
 75 76  4  0  0  0  0
 76 77  4  0  0  0  0
 77 78  4  0  0  0  0
 78 79  2  0  0  0  0
 79 80  4  0  0  0  0
 80 81  4  0  0  0  0
 81 82  1  0  0  0  0
 82 83  4  0  0  0  0
 83 84  4  0  0  0  0
 84 85  4  0  0  0  0
 85 86  1  0  0  0  0
 86 87  4  0  0  0  0
 86 88  2  0  0  0  0
 85 89  4  0  0  0  0
 82 90  4  0  0  0  0
 89 90  4  0  0  0  0
 81 91  4  0  0  0  0
 91 92  1  0  0  0  0
 92 93  2  0  0  0  0
 64 94  4  0  0  0  0
 93 94  1  0  0  0  0
 91 95  4  0  0  0  0
 94 95  4  0  0  0  0
 77 96  4  0  0  0  0
 80 96  4  0  0  0  0
 70 97  1  0  0  0  0
 97 98  4  0  0  0  0
 98 99  4  0  0  0  0
 99100  4  0  0  0  0
100101  1  0  0  0  0
101102  4  0  0  0  0
101103  2  0  0  0  0
100104  4  0  0  0  0
 97105  4  0  0  0  0
104105  4  0  0  0  0
 64106  1  0  0  0  0
 66107  1  0  0  0  0
 67108  1  0  0  0  0
 69109  1  0  0  0  0
 72110  1  0  0  0  0
 73111  1  0  0  0  0
 78112  1  0  0  0  0
 79113  1  0  0  0  0
 83114  1  0  0  0  0
 84115  1  0  0  0  0
 87116  1  0  0  0  0
 89117  1  0  0  0  0
 90118  1  0  0  0  0
 92119  1  0  0  0  0
 93120  1  0  0  0  0
 96121  1  0  0  0  0
 98122  1  0  0  0  0
 99123  1  0  0  0  0
102124  1  0  0  0  0
104125  1  0  0  0  0
105126  1  0  0  0  0
127128  3  0  0  0  0
128129  4  0  0  0  0
 13130  4  0  0  0  0
129130  3  0  0  0  0
127131  4  0  0  0  0
131132  3  0  0  0  0
133134  3  0  0  0  0
134135  4  0  0  0  0
135136  3  0  0  0  0
133137  4  0  0  0  0
137138  3  0  0  0  0
139140  3  0  0  0  0
140141  4  0  0  0  0
141142  3  0  0  0  0
139143  4  0  0  0  0
 76144  4  0  0  0  0
143144  3  0  0  0  0
132145  4  0  0  0  0
145146  4  0  0  0  0
146147  4  0  0  0  0
147148  2  0  0  0  0
148149  4  0  0  0  0
146150  4  0  0  0  0
149150  4  0  0  0  0
149151  4  0  0  0  0
151152  4  0  0  0  0
152153  1  0  0  0  0
153154  2  0  0  0  0
152155  4  0  0  0  0
154156  1  0  0  0  0
155156  4  0  0  0  0
136157  4  0  0  0  0
156157  4  0  0  0  0
157158  4  0  0  0  0
158159  4  0  0  0  0
159160  2  0  0  0  0
160161  4  0  0  0  0
161162  4  0  0  0  0
162163  1  0  0  0  0
163164  4  0  0  0  0
164165  4  0  0  0  0
165166  4  0  0  0  0
166167  1  0  0  0  0
167168  4  0  0  0  0
167169  2  0  0  0  0
166170  4  0  0  0  0
163171  4  0  0  0  0
170171  4  0  0  0  0
162172  4  0  0  0  0
172173  1  0  0  0  0
173174  2  0  0  0  0
145175  4  0  0  0  0
174175  1  0  0  0  0
172176  4  0  0  0  0
175176  4  0  0  0  0
158177  4  0  0  0  0
161177  4  0  0  0  0
151178  1  0  0  0  0
178179  4  0  0  0  0
179180  4  0  0  0  0
180181  4  0  0  0  0
181182  1  0  0  0  0
182183  4  0  0  0  0
182184  2  0  0  0  0
181185  4  0  0  0  0
178186  4  0  0  0  0
185186  4  0  0  0  0
147187  1  0  0  0  0
148188  1  0  0  0  0
150189  1  0  0  0  0
153190  1  0  0  0  0
154191  1  0  0  0  0
159192  1  0  0  0  0
160193  1  0  0  0  0
164194  1  0  0  0  0
165195  1  0  0  0  0
168196  1  0  0  0  0
170197  1  0  0  0  0
171198  1  0  0  0  0
173199  1  0  0  0  0
174200  1  0  0  0  0
177201  1  0  0  0  0
179202  1  0  0  0  0
180203  1  0  0  0  0
183204  1  0  0  0  0
185205  1  0  0  0  0
186206  1  0  0  0  0
138207  4  0  0  0  0
207208  4  0  0  0  0
208209  4  0  0  0  0
209210  2  0  0  0  0
210211  4  0  0  0  0
208212  4  0  0  0  0
211212  4  0  0  0  0
211213  4  0  0  0  0
213214  4  0  0  0  0
214215  1  0  0  0  0
215216  2  0  0  0  0
214217  4  0  0  0  0
216218  1  0  0  0  0
217218  4  0  0  0  0
142219  4  0  0  0  0
218219  4  0  0  0  0
219220  4  0  0  0  0
220221  4  0  0  0  0
221222  2  0  0  0  0
222223  4  0  0  0  0
223224  4  0  0  0  0
224225  1  0  0  0  0
225226  4  0  0  0  0
226227  4  0  0  0  0
227228  4  0  0  0  0
228229  1  0  0  0  0
229230  4  0  0  0  0
229231  2  0  0  0  0
228232  4  0  0  0  0
225233  4  0  0  0  0
232233  4  0  0  0  0
224234  4  0  0  0  0
234235  1  0  0  0  0
235236  2  0  0  0  0
207237  4  0  0  0  0
236237  1  0  0  0  0
234238  4  0  0  0  0
237238  4  0  0  0  0
220239  4  0  0  0  0
223239  4  0  0  0  0
213240  1  0  0  0  0
240241  4  0  0  0  0
241242  4  0  0  0  0
242243  4  0  0  0  0
243244  1  0  0  0  0
244245  4  0  0  0  0
244246  2  0  0  0  0
243247  4  0  0  0  0
240248  4  0  0  0  0
247248  4  0  0  0  0
209249  1  0  0  0  0
210250  1  0  0  0  0
212251  1  0  0  0  0
215252  1  0  0  0  0
216253  1  0  0  0  0
221254  1  0  0  0  0
222255  1  0  0  0  0
226256  1  0  0  0  0
227257  1  0  0  0  0
230258  1  0  0  0  0
232259  1  0  0  0  0
233260  1  0  0  0  0
235261  1  0  0  0  0
236262  1  0  0  0  0
239263  1  0  0  0  0
241264  1  0  0  0  0
242265  1  0  0  0  0
245266  1  0  0  0  0
247267  1  0  0  0  0
248268  1  0  0  0  0
M  END
