 xtb: 6.5.1 (b24c23e)
          07302212533D

231260  0     0  0            999 V2000
   26.0161    0.0759   -0.0407 Cu  0  0  0  0  0  0  0  0  0  0  0  0
   22.6099    0.1978   -0.1238 C   0  0  0  0  0  0  0  0  0  0  0  0
   23.2439    1.0472    0.7708 C   0  0  0  0  0  0  0  0  0  0  0  0
   22.5692    1.9444    1.6655 C   0  0  0  0  0  0  0  0  0  0  0  0
   23.5279    2.5845    2.3797 C   0  0  0  0  0  0  0  0  0  0  0  0
   24.7973    2.0896    1.9222 C   0  0  0  0  0  0  0  0  0  0  0  0
   24.5936    1.1572    0.9464 N   0  0  0  0  0  0  0  0  0  0  0  0
   26.0391    2.4895    2.4173 C   0  0  0  0  0  0  0  0  0  0  0  0
   27.2707    1.9962    1.9898 C   0  0  0  0  0  0  0  0  0  0  0  0
   28.5457    2.4449    2.4725 C   0  0  0  0  0  0  0  0  0  0  0  0
   29.4949    1.7489    1.7973 C   0  0  0  0  0  0  0  0  0  0  0  0
   27.4636    1.0371    1.0305 N   0  0  0  0  0  0  0  0  0  0  0  0
   28.8071    0.8715    0.8971 C   0  0  0  0  0  0  0  0  0  0  0  0
   29.4457   -0.0178    0.0144 C   0  0  0  0  0  0  0  0  0  0  0  0
   28.7879   -0.8823   -0.8787 C   0  0  0  0  0  0  0  0  0  0  0  0
   29.4550   -1.8097   -1.7436 C   0  0  0  0  0  0  0  0  0  0  0  0
   28.4910   -2.4679   -2.4354 C   0  0  0  0  0  0  0  0  0  0  0  0
   27.2277   -1.9412   -2.0034 C   0  0  0  0  0  0  0  0  0  0  0  0
   25.9851   -2.3644   -2.4723 C   0  0  0  0  0  0  0  0  0  0  0  0
   25.9697   -3.4278   -3.5174 C   0  0  0  0  0  0  0  0  0  0  0  0
   26.4086   -3.1519   -4.8189 C   0  0  0  0  0  0  0  0  0  0  0  0
   26.8251   -1.8782   -5.0476 O   0  0  0  0  0  0  0  0  0  0  0  0
   27.2983   -1.4984   -6.3240 C   0  0  0  0  0  0  0  0  0  0  0  0
   26.3916   -4.1480   -5.7949 C   0  0  0  0  0  0  0  0  0  0  0  0
   25.9398   -5.4165   -5.4641 C   0  0  0  0  0  0  0  0  0  0  0  0
   25.5016   -5.7133   -4.1823 C   0  0  0  0  0  0  0  0  0  0  0  0
   25.5142   -4.7161   -3.2077 C   0  0  0  0  0  0  0  0  0  0  0  0
   25.1112   -4.9103   -1.9237 O   0  0  0  0  0  0  0  0  0  0  0  0
   24.6315   -6.1725   -1.5073 C   0  0  0  0  0  0  0  0  0  0  0  0
   24.7528   -1.8709   -2.0417 C   0  0  0  0  0  0  0  0  0  0  0  0
   23.4750   -2.2779   -2.5586 C   0  0  0  0  0  0  0  0  0  0  0  0
   22.5315   -1.5574   -1.9032 C   0  0  0  0  0  0  0  0  0  0  0  0
   23.2245   -0.7012   -0.9826 C   0  0  0  0  0  0  0  0  0  0  0  0
   24.5695   -0.9121   -1.0878 N   0  0  0  0  0  0  0  0  0  0  0  0
   27.4422   -0.9784   -1.0521 N   0  0  0  0  0  0  0  0  0  0  0  0
   26.0492    3.5290    3.4864 C   0  0  0  0  0  0  0  0  0  0  0  0
   26.4030    3.1909    4.7991 C   0  0  0  0  0  0  0  0  0  0  0  0
   26.7155    1.8851    5.0119 O   0  0  0  0  0  0  0  0  0  0  0  0
   27.0921    1.4399    6.2991 C   0  0  0  0  0  0  0  0  0  0  0  0
   26.4099    4.1621    5.7998 C   0  0  0  0  0  0  0  0  0  0  0  0
   26.0675    5.4678    5.4825 C   0  0  0  0  0  0  0  0  0  0  0  0
   25.7161    5.8263    4.1898 C   0  0  0  0  0  0  0  0  0  0  0  0
   25.7046    4.8541    3.1901 C   0  0  0  0  0  0  0  0  0  0  0  0
   25.3809    5.1075    1.8940 O   0  0  0  0  0  0  0  0  0  0  0  0
   25.0186    6.4121    1.4890 C   0  0  0  0  0  0  0  0  0  0  0  0
   21.5257    0.2382   -0.1520 H   0  0  0  0  0  0  0  0  0  0  0  0
   21.4980    2.0550    1.7316 H   0  0  0  0  0  0  0  0  0  0  0  0
   23.3971    3.3267    3.1508 H   0  0  0  0  0  0  0  0  0  0  0  0
   28.6890    3.2001    3.2284 H   0  0  0  0  0  0  0  0  0  0  0  0
   30.5671    1.8173    1.8906 H   0  0  0  0  0  0  0  0  0  0  0  0
   30.5243   -1.9371   -1.8013 H   0  0  0  0  0  0  0  0  0  0  0  0
   28.6171   -3.2437   -3.1732 H   0  0  0  0  0  0  0  0  0  0  0  0
   26.5206   -1.6070   -7.0897 H   0  0  0  0  0  0  0  0  0  0  0  0
   27.5774   -0.4461   -6.2437 H   0  0  0  0  0  0  0  0  0  0  0  0
   28.1789   -2.0831   -6.6163 H   0  0  0  0  0  0  0  0  0  0  0  0
   26.7250   -3.9443   -6.8036 H   0  0  0  0  0  0  0  0  0  0  0  0
   25.9286   -6.1916   -6.2226 H   0  0  0  0  0  0  0  0  0  0  0  0
   25.1559   -6.7122   -3.9521 H   0  0  0  0  0  0  0  0  0  0  0  0
   24.3701   -6.0655   -0.4528 H   0  0  0  0  0  0  0  0  0  0  0  0
   23.7385   -6.4690   -2.0709 H   0  0  0  0  0  0  0  0  0  0  0  0
   25.3995   -6.9486   -1.6107 H   0  0  0  0  0  0  0  0  0  0  0  0
   23.3288   -3.0194   -3.3277 H   0  0  0  0  0  0  0  0  0  0  0  0
   21.4598   -1.5890   -2.0243 H   0  0  0  0  0  0  0  0  0  0  0  0
   27.2959    0.3718    6.2036 H   0  0  0  0  0  0  0  0  0  0  0  0
   26.2859    1.5887    7.0277 H   0  0  0  0  0  0  0  0  0  0  0  0
   27.9974    1.9491    6.6514 H   0  0  0  0  0  0  0  0  0  0  0  0
   26.6779    3.9108    6.8173 H   0  0  0  0  0  0  0  0  0  0  0  0
   26.0748    6.2235    6.2603 H   0  0  0  0  0  0  0  0  0  0  0  0
   25.4556    6.8532    3.9706 H   0  0  0  0  0  0  0  0  0  0  0  0
   25.8367    7.1248    1.6500 H   0  0  0  0  0  0  0  0  0  0  0  0
   24.8030    6.3498    0.4207 H   0  0  0  0  0  0  0  0  0  0  0  0
   24.1233    6.7627    2.0168 H   0  0  0  0  0  0  0  0  0  0  0  0
   63.2399    0.0092   -0.0836 Cu  0  0  0  0  0  0  0  0  0  0  0  0
   66.6436    0.1631   -0.2114 C   0  0  0  0  0  0  0  0  0  0  0  0
   66.0157   -0.6020   -1.1830 C   0  0  0  0  0  0  0  0  0  0  0  0
   66.6960   -1.3389   -2.2103 C   0  0  0  0  0  0  0  0  0  0  0  0
   65.7424   -1.9622   -2.9460 C   0  0  0  0  0  0  0  0  0  0  0  0
   64.4707   -1.6055   -2.3794 C   0  0  0  0  0  0  0  0  0  0  0  0
   64.6679   -0.7802   -1.3102 N   0  0  0  0  0  0  0  0  0  0  0  0
   63.2329   -2.0527   -2.8431 C   0  0  0  0  0  0  0  0  0  0  0  0
   61.9992   -1.7227   -2.2848 C   0  0  0  0  0  0  0  0  0  0  0  0
   60.7277   -2.1498   -2.7956 C   0  0  0  0  0  0  0  0  0  0  0  0
   59.7743   -1.6009   -2.0012 C   0  0  0  0  0  0  0  0  0  0  0  0
   61.7999   -0.9227   -1.1903 N   0  0  0  0  0  0  0  0  0  0  0  0
   60.4560   -0.8348   -1.0004 C   0  0  0  0  0  0  0  0  0  0  0  0
   59.8120   -0.1102    0.0185 C   0  0  0  0  0  0  0  0  0  0  0  0
   60.4643    0.6455    1.0092 C   0  0  0  0  0  0  0  0  0  0  0  0
   59.7924    1.3478    2.0621 C   0  0  0  0  0  0  0  0  0  0  0  0
   60.7517    1.9475    2.8114 C   0  0  0  0  0  0  0  0  0  0  0  0
   62.0166    1.6214    2.2167 C   0  0  0  0  0  0  0  0  0  0  0  0
   63.2554    2.0431    2.6968 C   0  0  0  0  0  0  0  0  0  0  0  0
   63.2635    2.9206    3.9023 C   0  0  0  0  0  0  0  0  0  0  0  0
   62.8070    4.2426    3.8206 C   0  0  0  0  0  0  0  0  0  0  0  0
   62.3810    4.6488    2.5952 O   0  0  0  0  0  0  0  0  0  0  0  0
   61.8924    5.9613    2.4062 C   0  0  0  0  0  0  0  0  0  0  0  0
   62.8174    5.0631    4.9482 C   0  0  0  0  0  0  0  0  0  0  0  0
   63.2802    4.5568    6.1533 C   0  0  0  0  0  0  0  0  0  0  0  0
   63.7358    3.2513    6.2584 C   0  0  0  0  0  0  0  0  0  0  0  0
   63.7298    2.4323    5.1298 C   0  0  0  0  0  0  0  0  0  0  0  0
   64.1500    1.1391    5.1331 O   0  0  0  0  0  0  0  0  0  0  0  0
   64.6401    0.5492    6.3200 C   0  0  0  0  0  0  0  0  0  0  0  0
   64.4898    1.7123    2.1362 C   0  0  0  0  0  0  0  0  0  0  0  0
   65.7631    2.1820    2.6091 C   0  0  0  0  0  0  0  0  0  0  0  0
   66.7102    1.6577    1.7924 C   0  0  0  0  0  0  0  0  0  0  0  0
   66.0239    0.8662    0.8110 C   0  0  0  0  0  0  0  0  0  0  0  0
   64.6792    0.9170    1.0432 N   0  0  0  0  0  0  0  0  0  0  0  0
   61.8080    0.8233    1.1224 N   0  0  0  0  0  0  0  0  0  0  0  0
   63.2297   -2.9521   -4.0325 C   0  0  0  0  0  0  0  0  0  0  0  0
   62.9028   -4.3073   -3.8941 C   0  0  0  0  0  0  0  0  0  0  0  0
   62.6093   -4.7212   -2.6330 O   0  0  0  0  0  0  0  0  0  0  0  0
   62.2613   -6.0682   -2.3848 C   0  0  0  0  0  0  0  0  0  0  0  0
   62.9018   -5.1493   -5.0059 C   0  0  0  0  0  0  0  0  0  0  0  0
   63.2231   -4.6312   -6.2514 C   0  0  0  0  0  0  0  0  0  0  0  0
   63.5477   -3.2927   -6.4128 C   0  0  0  0  0  0  0  0  0  0  0  0
   63.5533   -2.4519   -5.3003 C   0  0  0  0  0  0  0  0  0  0  0  0
   63.8515   -1.1264   -5.3567 O   0  0  0  0  0  0  0  0  0  0  0  0
   64.1890   -0.5210   -6.5882 C   0  0  0  0  0  0  0  0  0  0  0  0
   67.7269    0.2143   -0.2535 H   0  0  0  0  0  0  0  0  0  0  0  0
   67.7670   -1.3703   -2.3363 H   0  0  0  0  0  0  0  0  0  0  0  0
   65.8781   -2.6087   -3.7982 H   0  0  0  0  0  0  0  0  0  0  0  0
   60.5896   -2.7849   -3.6558 H   0  0  0  0  0  0  0  0  0  0  0  0
   58.7030   -1.6982   -2.0779 H   0  0  0  0  0  0  0  0  0  0  0  0
   58.7235    1.3680    2.2037 H   0  0  0  0  0  0  0  0  0  0  0  0
   60.6214    2.5569    3.6911 H   0  0  0  0  0  0  0  0  0  0  0  0
   62.6624    6.7118    2.6228 H   0  0  0  0  0  0  0  0  0  0  0  0
   61.6096    6.0316    1.3542 H   0  0  0  0  0  0  0  0  0  0  0  0
   61.0113    6.1557    3.0296 H   0  0  0  0  0  0  0  0  0  0  0  0
   62.4705    6.0864    4.8950 H   0  0  0  0  0  0  0  0  0  0  0  0
   63.2864    5.1943    7.0306 H   0  0  0  0  0  0  0  0  0  0  0  0
   64.0898    2.8826    7.2118 H   0  0  0  0  0  0  0  0  0  0  0  0
   64.9137   -0.4750    6.0598 H   0  0  0  0  0  0  0  0  0  0  0  0
   65.5275    1.0747    6.6934 H   0  0  0  0  0  0  0  0  0  0  0  0
   63.8742    0.5289    7.1048 H   0  0  0  0  0  0  0  0  0  0  0  0
   65.9039    2.8325    3.4574 H   0  0  0  0  0  0  0  0  0  0  0  0
   67.7802    1.7895    1.8357 H   0  0  0  0  0  0  0  0  0  0  0  0
   62.0689   -6.1397   -1.3126 H   0  0  0  0  0  0  0  0  0  0  0  0
   63.0786   -6.7499   -2.6500 H   0  0  0  0  0  0  0  0  0  0  0  0
   61.3563   -6.3568   -2.9329 H   0  0  0  0  0  0  0  0  0  0  0  0
   62.6546   -6.1980   -4.9094 H   0  0  0  0  0  0  0  0  0  0  0  0
   63.2203   -5.2856   -7.1162 H   0  0  0  0  0  0  0  0  0  0  0  0
   63.7921   -2.9156   -7.3968 H   0  0  0  0  0  0  0  0  0  0  0  0
   63.3646   -0.5883   -7.3086 H   0  0  0  0  0  0  0  0  0  0  0  0
   64.3860    0.5295   -6.3665 H   0  0  0  0  0  0  0  0  0  0  0  0
   65.0890   -0.9715   -7.0243 H   0  0  0  0  0  0  0  0  0  0  0  0
   30.8512   -0.0427    0.0245 C   0  0  0  0  0  0  0  0  0  0  0  0
   32.0756   -0.0566    0.0251 C   0  0  0  0  0  0  0  0  0  0  0  0
   33.4189   -0.0670    0.0239 C   0  0  0  0  0  0  0  0  0  0  0  0
   34.6496   -0.0685    0.0221 C   0  0  0  0  0  0  0  0  0  0  0  0
   35.9881   -0.0678    0.0166 C   0  0  0  0  0  0  0  0  0  0  0  0
   37.2189   -0.0641    0.0114 C   0  0  0  0  0  0  0  0  0  0  0  0
   38.5620   -0.0578    0.0061 C   0  0  0  0  0  0  0  0  0  0  0  0
   39.7866   -0.0520    0.0044 C   0  0  0  0  0  0  0  0  0  0  0  0
   49.4723   -0.0979    0.0482 C   0  0  0  0  0  0  0  0  0  0  0  0
   50.6970   -0.1159    0.0555 C   0  0  0  0  0  0  0  0  0  0  0  0
   52.0397   -0.1335    0.0621 C   0  0  0  0  0  0  0  0  0  0  0  0
   53.2704   -0.1467    0.0677 C   0  0  0  0  0  0  0  0  0  0  0  0
   54.6087   -0.1552    0.0698 C   0  0  0  0  0  0  0  0  0  0  0  0
   55.8394   -0.1576    0.0696 C   0  0  0  0  0  0  0  0  0  0  0  0
   57.1825   -0.1518    0.0598 C   0  0  0  0  0  0  0  0  0  0  0  0
   58.4070   -0.1396    0.0460 C   0  0  0  0  0  0  0  0  0  0  0  0
   44.6296   -0.0487    0.0245 Cu  0  0  0  0  0  0  0  0  0  0  0  0
   41.1917   -0.0475    0.0089 C   0  0  0  0  0  0  0  0  0  0  0  0
   41.8353   -0.0501    1.2600 C   0  0  0  0  0  0  0  0  0  0  0  0
   41.1526   -0.0800    2.5192 C   0  0  0  0  0  0  0  0  0  0  0  0
   42.1061   -0.0706    3.4849 C   0  0  0  0  0  0  0  0  0  0  0  0
   43.3774   -0.0305    2.8209 C   0  0  0  0  0  0  0  0  0  0  0  0
   43.1791   -0.0223    1.4658 N   0  0  0  0  0  0  0  0  0  0  0  0
   44.6142   -0.0204    3.4655 C   0  0  0  0  0  0  0  0  0  0  0  0
   45.8567   -0.0246    2.8321 C   0  0  0  0  0  0  0  0  0  0  0  0
   47.1224    0.0191    3.5067 C   0  0  0  0  0  0  0  0  0  0  0  0
   48.0845    0.0015    2.5497 C   0  0  0  0  0  0  0  0  0  0  0  0
   46.0671   -0.0588    1.4793 N   0  0  0  0  0  0  0  0  0  0  0  0
   47.4128   -0.0467    1.2852 C   0  0  0  0  0  0  0  0  0  0  0  0
   48.0675   -0.0797    0.0404 C   0  0  0  0  0  0  0  0  0  0  0  0
   47.4241   -0.0923   -1.2107 C   0  0  0  0  0  0  0  0  0  0  0  0
   48.1062   -0.1391   -2.4696 C   0  0  0  0  0  0  0  0  0  0  0  0
   47.1527   -0.1261   -3.4354 C   0  0  0  0  0  0  0  0  0  0  0  0
   45.8819   -0.0683   -2.7715 C   0  0  0  0  0  0  0  0  0  0  0  0
   44.6452   -0.0515   -3.4163 C   0  0  0  0  0  0  0  0  0  0  0  0
   44.6535   -0.0424   -4.9074 C   0  0  0  0  0  0  0  0  0  0  0  0
   44.2297   -1.1675   -5.6267 C   0  0  0  0  0  0  0  0  0  0  0  0
   43.8344   -2.2338   -4.8820 O   0  0  0  0  0  0  0  0  0  0  0  0
   43.3746   -3.4139   -5.5091 C   0  0  0  0  0  0  0  0  0  0  0  0
   44.2402   -1.1580   -7.0212 C   0  0  0  0  0  0  0  0  0  0  0  0
   44.6702   -0.0220   -7.6901 C   0  0  0  0  0  0  0  0  0  0  0  0
   45.0924    1.1040   -6.9996 C   0  0  0  0  0  0  0  0  0  0  0  0
   45.0865    1.0929   -5.6051 C   0  0  0  0  0  0  0  0  0  0  0  0
   45.4735    2.1478   -4.8401 O   0  0  0  0  0  0  0  0  0  0  0  0
   45.9416    3.3367   -5.4441 C   0  0  0  0  0  0  0  0  0  0  0  0
   43.4025   -0.0431   -2.7833 C   0  0  0  0  0  0  0  0  0  0  0  0
   42.1371    0.0014   -3.4584 C   0  0  0  0  0  0  0  0  0  0  0  0
   41.1748   -0.0002   -2.5013 C   0  0  0  0  0  0  0  0  0  0  0  0
   41.8462   -0.0386   -1.2363 C   0  0  0  0  0  0  0  0  0  0  0  0
   43.1918   -0.0626   -1.4302 N   0  0  0  0  0  0  0  0  0  0  0  0
   46.0805   -0.0524   -1.4167 N   0  0  0  0  0  0  0  0  0  0  0  0
   44.6071   -0.0069    4.9564 C   0  0  0  0  0  0  0  0  0  0  0  0
   45.0283   -1.1321    5.6773 C   0  0  0  0  0  0  0  0  0  0  0  0
   45.4197   -2.2009    4.9341 O   0  0  0  0  0  0  0  0  0  0  0  0
   45.8813   -3.3796    5.5625 C   0  0  0  0  0  0  0  0  0  0  0  0
   45.0189   -1.1202    7.0718 C   0  0  0  0  0  0  0  0  0  0  0  0
   44.5929    0.0183    7.7391 C   0  0  0  0  0  0  0  0  0  0  0  0
   44.1738    1.1444    7.0470 C   0  0  0  0  0  0  0  0  0  0  0  0
   44.1784    1.1310    5.6526 C   0  0  0  0  0  0  0  0  0  0  0  0
   43.7942    2.1859    4.8861 O   0  0  0  0  0  0  0  0  0  0  0  0
   43.3268    3.3759    5.4883 C   0  0  0  0  0  0  0  0  0  0  0  0
   40.0811   -0.1087    2.6379 H   0  0  0  0  0  0  0  0  0  0  0  0
   41.9673   -0.0925    4.5538 H   0  0  0  0  0  0  0  0  0  0  0  0
   47.2519    0.0602    4.5762 H   0  0  0  0  0  0  0  0  0  0  0  0
   49.1552    0.0235    2.6775 H   0  0  0  0  0  0  0  0  0  0  0  0
   49.1773   -0.1797   -2.5881 H   0  0  0  0  0  0  0  0  0  0  0  0
   47.2911   -0.1568   -4.5041 H   0  0  0  0  0  0  0  0  0  0  0  0
   42.4874   -3.2220   -6.1247 H   0  0  0  0  0  0  0  0  0  0  0  0
   43.1101   -4.1022   -4.7042 H   0  0  0  0  0  0  0  0  0  0  0  0
   44.1553   -3.8695   -6.1303 H   0  0  0  0  0  0  0  0  0  0  0  0
   43.9187   -2.0228   -7.5859 H   0  0  0  0  0  0  0  0  0  0  0  0
   44.6765   -0.0140   -8.7746 H   0  0  0  0  0  0  0  0  0  0  0  0
   45.4207    1.9769   -7.5476 H   0  0  0  0  0  0  0  0  0  0  0  0
   46.1969    4.0127   -4.6259 H   0  0  0  0  0  0  0  0  0  0  0  0
   45.1687    3.8022   -6.0677 H   0  0  0  0  0  0  0  0  0  0  0  0
   46.8359    3.1533   -6.0518 H   0  0  0  0  0  0  0  0  0  0  0  0
   42.0078    0.0315   -4.5283 H   0  0  0  0  0  0  0  0  0  0  0  0
   40.1044    0.0272   -2.6292 H   0  0  0  0  0  0  0  0  0  0  0  0
   45.1018   -3.8350    6.1853 H   0  0  0  0  0  0  0  0  0  0  0  0
   46.1455   -4.0688    4.7583 H   0  0  0  0  0  0  0  0  0  0  0  0
   46.7690   -3.1859    6.1767 H   0  0  0  0  0  0  0  0  0  0  0  0
   45.3380   -1.9852    7.6376 H   0  0  0  0  0  0  0  0  0  0  0  0
   44.5875    0.0281    8.8236 H   0  0  0  0  0  0  0  0  0  0  0  0
   43.8489    2.0194    7.5939 H   0  0  0  0  0  0  0  0  0  0  0  0
   44.1003    3.8425    6.1105 H   0  0  0  0  0  0  0  0  0  0  0  0
   42.4330    3.1936    6.0972 H   0  0  0  0  0  0  0  0  0  0  0  0
   43.0708    4.0505    4.6692 H   0  0  0  0  0  0  0  0  0  0  0  0
  2  3  4  0  0  0  0
  3  4  1  0  0  0  0
  4  5  2  0  0  0  0
  5  6  4  0  0  0  0
  1  7  1  0  0  0  0
  3  7  4  0  0  0  0
  6  7  4  0  0  0  0
  6  8  4  0  0  0  0
  8  9  4  0  0  0  0
  9 10  4  0  0  0  0
 10 11  2  0  0  0  0
  1 12  1  0  0  0  0
  9 12  4  0  0  0  0
 11 13  4  0  0  0  0
 12 13  4  0  0  0  0
 13 14  4  0  0  0  0
 14 15  4  0  0  0  0
 15 16  4  0  0  0  0
 16 17  2  0  0  0  0
 17 18  4  0  0  0  0
 18 19  4  0  0  0  0
 19 20  1  0  0  0  0
 20 21  4  0  0  0  0
 21 22  1  0  0  0  0
 22 23  1  0  0  0  0
 21 24  4  0  0  0  0
 24 25  4  0  0  0  0
 25 26  4  0  0  0  0
 20 27  4  0  0  0  0
 26 27  4  0  0  0  0
 27 28  1  0  0  0  0
 28 29  1  0  0  0  0
 19 30  4  0  0  0  0
 30 31  4  0  0  0  0
 31 32  2  0  0  0  0
  2 33  4  0  0  0  0
 32 33  1  0  0  0  0
  1 34  1  0  0  0  0
 30 34  4  0  0  0  0
 33 34  4  0  0  0  0
  1 35  1  0  0  0  0
 15 35  4  0  0  0  0
 18 35  4  0  0  0  0
  8 36  1  0  0  0  0
 36 37  4  0  0  0  0
 37 38  1  0  0  0  0
 38 39  1  0  0  0  0
 37 40  4  0  0  0  0
 40 41  4  0  0  0  0
 41 42  4  0  0  0  0
 36 43  4  0  0  0  0
 42 43  4  0  0  0  0
 43 44  1  0  0  0  0
 44 45  1  0  0  0  0
  2 46  1  0  0  0  0
  4 47  1  0  0  0  0
  5 48  1  0  0  0  0
 10 49  1  0  0  0  0
 11 50  1  0  0  0  0
 16 51  1  0  0  0  0
 17 52  1  0  0  0  0
 23 53  1  0  0  0  0
 23 54  1  0  0  0  0
 23 55  1  0  0  0  0
 24 56  1  0  0  0  0
 25 57  1  0  0  0  0
 26 58  1  0  0  0  0
 29 59  1  0  0  0  0
 29 60  1  0  0  0  0
 29 61  1  0  0  0  0
 31 62  1  0  0  0  0
 32 63  1  0  0  0  0
 39 64  1  0  0  0  0
 39 65  1  0  0  0  0
 39 66  1  0  0  0  0
 40 67  1  0  0  0  0
 41 68  1  0  0  0  0
 42 69  1  0  0  0  0
 45 70  1  0  0  0  0
 45 71  1  0  0  0  0
 45 72  1  0  0  0  0
 74 75  4  0  0  0  0
 75 76  1  0  0  0  0
 76 77  2  0  0  0  0
 77 78  4  0  0  0  0
 73 79  1  0  0  0  0
 75 79  4  0  0  0  0
 78 79  4  0  0  0  0
 78 80  4  0  0  0  0
 80 81  4  0  0  0  0
 81 82  4  0  0  0  0
 82 83  2  0  0  0  0
 73 84  1  0  0  0  0
 81 84  4  0  0  0  0
 83 85  4  0  0  0  0
 84 85  4  0  0  0  0
 85 86  4  0  0  0  0
 86 87  4  0  0  0  0
 87 88  4  0  0  0  0
 88 89  2  0  0  0  0
 89 90  4  0  0  0  0
 90 91  4  0  0  0  0
 91 92  1  0  0  0  0
 92 93  4  0  0  0  0
 93 94  1  0  0  0  0
 94 95  1  0  0  0  0
 93 96  4  0  0  0  0
 96 97  4  0  0  0  0
 97 98  4  0  0  0  0
 92 99  4  0  0  0  0
 98 99  4  0  0  0  0
 99100  1  0  0  0  0
100101  1  0  0  0  0
 91102  4  0  0  0  0
102103  4  0  0  0  0
103104  2  0  0  0  0
 74105  4  0  0  0  0
104105  1  0  0  0  0
 73106  1  0  0  0  0
102106  4  0  0  0  0
105106  4  0  0  0  0
 73107  1  0  0  0  0
 87107  4  0  0  0  0
 90107  4  0  0  0  0
 80108  1  0  0  0  0
108109  4  0  0  0  0
109110  1  0  0  0  0
110111  1  0  0  0  0
109112  4  0  0  0  0
112113  4  0  0  0  0
113114  4  0  0  0  0
108115  4  0  0  0  0
114115  4  0  0  0  0
115116  1  0  0  0  0
116117  1  0  0  0  0
 74118  1  0  0  0  0
 76119  1  0  0  0  0
 77120  1  0  0  0  0
 82121  1  0  0  0  0
 83122  1  0  0  0  0
 88123  1  0  0  0  0
 89124  1  0  0  0  0
 95125  1  0  0  0  0
 95126  1  0  0  0  0
 95127  1  0  0  0  0
 96128  1  0  0  0  0
 97129  1  0  0  0  0
 98130  1  0  0  0  0
101131  1  0  0  0  0
101132  1  0  0  0  0
101133  1  0  0  0  0
103134  1  0  0  0  0
104135  1  0  0  0  0
111136  1  0  0  0  0
111137  1  0  0  0  0
111138  1  0  0  0  0
112139  1  0  0  0  0
113140  1  0  0  0  0
114141  1  0  0  0  0
117142  1  0  0  0  0
117143  1  0  0  0  0
117144  1  0  0  0  0
 14145  4  0  0  0  0
145146  3  0  0  0  0
146147  4  0  0  0  0
147148  3  0  0  0  0
148149  4  0  0  0  0
149150  3  0  0  0  0
150151  4  0  0  0  0
151152  3  0  0  0  0
153154  3  0  0  0  0
154155  4  0  0  0  0
155156  3  0  0  0  0
156157  4  0  0  0  0
157158  3  0  0  0  0
158159  4  0  0  0  0
 86160  4  0  0  0  0
159160  3  0  0  0  0
152162  4  0  0  0  0
162163  4  0  0  0  0
163164  4  0  0  0  0
164165  2  0  0  0  0
165166  4  0  0  0  0
161167  1  0  0  0  0
163167  4  0  0  0  0
166167  4  0  0  0  0
166168  4  0  0  0  0
168169  4  0  0  0  0
169170  4  0  0  0  0
170171  2  0  0  0  0
161172  1  0  0  0  0
169172  4  0  0  0  0
171173  4  0  0  0  0
172173  4  0  0  0  0
153174  4  0  0  0  0
173174  4  0  0  0  0
174175  4  0  0  0  0
175176  4  0  0  0  0
176177  2  0  0  0  0
177178  4  0  0  0  0
178179  4  0  0  0  0
179180  1  0  0  0  0
180181  4  0  0  0  0
181182  1  0  0  0  0
182183  1  0  0  0  0
181184  4  0  0  0  0
184185  4  0  0  0  0
185186  4  0  0  0  0
180187  4  0  0  0  0
186187  4  0  0  0  0
187188  1  0  0  0  0
188189  1  0  0  0  0
179190  4  0  0  0  0
190191  4  0  0  0  0
191192  2  0  0  0  0
162193  4  0  0  0  0
192193  4  0  0  0  0
161194  1  0  0  0  0
190194  4  0  0  0  0
193194  4  0  0  0  0
161195  1  0  0  0  0
175195  4  0  0  0  0
178195  4  0  0  0  0
168196  1  0  0  0  0
196197  4  0  0  0  0
197198  1  0  0  0  0
198199  1  0  0  0  0
197200  4  0  0  0  0
200201  4  0  0  0  0
201202  4  0  0  0  0
196203  4  0  0  0  0
202203  4  0  0  0  0
203204  1  0  0  0  0
204205  1  0  0  0  0
164206  1  0  0  0  0
165207  1  0  0  0  0
170208  1  0  0  0  0
171209  1  0  0  0  0
176210  1  0  0  0  0
177211  1  0  0  0  0
183212  1  0  0  0  0
183213  1  0  0  0  0
183214  1  0  0  0  0
184215  1  0  0  0  0
185216  1  0  0  0  0
186217  1  0  0  0  0
189218  1  0  0  0  0
189219  1  0  0  0  0
189220  1  0  0  0  0
191221  1  0  0  0  0
192222  1  0  0  0  0
199223  1  0  0  0  0
199224  1  0  0  0  0
199225  1  0  0  0  0
200226  1  0  0  0  0
201227  1  0  0  0  0
202228  1  0  0  0  0
205229  1  0  0  0  0
205230  1  0  0  0  0
205231  1  0  0  0  0
M  END
