574

C 119.038642 0.052484 0.005078
C 119.763496 -1.001450 0.896361
C 119.148045 -1.988626 1.632446
C 120.169472 -2.692764 2.320239
C 121.375149 -2.105313 1.986791
N 121.118169 -1.101798 1.086908
C 122.803202 -2.490674 2.557059
C 122.852704 -3.437961 3.695815
C 123.102091 -4.796360 3.477473
C 123.154697 -5.686952 4.553908
C 123.000145 -5.226649 5.864400
N 122.961487 -6.137868 6.934468
C 122.676558 -3.882116 6.073258
C 122.625188 -2.987798 4.999733
C 123.931852 -1.933653 2.039420
C 125.241147 -2.214033 2.592162
C 126.142674 -1.517675 1.910004
N 124.124891 -1.056028 1.004051
C 125.459056 -0.766137 0.875841
C 126.128962 0.038824 0.008004
C 125.354430 0.818856 -1.138537
C 125.908810 1.312018 -2.303404
C 124.883755 1.979465 -3.017568
C 123.727056 1.863514 -2.277454
N 124.013292 1.117992 -1.157464
C 122.310007 2.466359 -2.657117
C 122.260226 3.548121 -3.665418
C 122.040410 3.248212 -5.013514
C 121.991337 4.270681 -5.965360
C 122.114475 5.607808 -5.578011
N 122.154279 6.623952 -6.548945
C 122.404463 5.898693 -4.241184
C 122.456291 4.878701 -3.285843
C 121.187838 1.991388 -2.056473
C 119.862569 2.503848 -2.357329
C 118.978991 1.833095 -1.624546
C 119.704216 0.873863 -0.828382
N 121.026677 1.014277 -1.113605
H 117.959640 0.118161 0.074341
H 118.085383 -2.172778 1.679663
H 120.037453 -3.521698 3.000426
H 121.821939 -0.523914 0.633949
H 123.249918 -5.149487 2.460215
H 123.328390 -6.738840 4.352241
H 123.189960 -5.695429 7.819021
H 123.527186 -6.961387 6.754801
H 122.470398 -3.508916 7.071197
H 122.400688 -1.936187 5.165972
H 125.457210 -2.862308 3.422234
H 127.198873 -1.530971 2.106278
H 126.940273 1.215881 -2.605257
H 124.980135 2.489959 -3.963811
H 123.324570 0.801276 -0.479933
H 121.914876 2.209711 -5.310386
H 121.847040 4.006061 -7.007311
H 121.607072 6.387389 -7.369337
H 121.903541 7.527951 -6.162853
H 122.584103 6.920369 -3.922466
H 122.654393 5.108223 -2.241044
H 119.630931 3.290296 -3.052638
H 117.913973 1.976578 -1.620311
C 241.285313 0.039104 0.021972
C 240.560459 0.665281 -1.208095
C 241.175910 1.155677 -2.337630
C 240.154483 1.663898 -3.180591
C 238.948806 1.473874 -2.532379
N 239.205786 0.827776 -1.349421
C 237.520752 1.940711 -3.038118
C 237.471251 2.832209 -4.221059
C 237.221864 2.308523 -5.493330
C 237.169257 3.152344 -6.606808
C 237.323810 4.533429 -6.458919
N 237.362468 5.366327 -7.591017
C 237.647397 5.044708 -5.197973
C 237.698767 4.204573 -4.081535
C 236.392102 1.564424 -2.377338
C 235.082807 2.038247 -2.776873
C 234.181281 1.533730 -1.942776
N 236.199064 0.757607 -1.285890
C 234.864898 0.699206 -0.974338
C 234.194993 0.038824 0.008004
C 234.969525 -0.898564 1.029920
C 234.415145 -1.919500 1.776790
C 235.440199 -2.461793 2.590075
C 236.596898 -1.767916 2.307680
N 236.310662 -0.848468 1.325438
C 238.013948 -1.999399 2.981461
C 238.063729 -2.733109 4.265420
C 238.283545 -4.114059 4.282274
C 238.332617 -4.806396 5.495585
C 238.209480 -4.123069 6.708437
N 238.169676 -4.835435 7.919963
C 237.919491 -2.755155 6.685381
C 237.867664 -2.058848 5.473680
C 239.136116 -1.523519 2.381537
C 240.461386 -1.698994 2.949285
C 241.344964 -1.139333 2.128517
C 240.619738 -0.584055 1.012422
N 239.297278 -0.829532 1.214434
H 242.364315 0.121569 0.070038
H 242.238572 1.159458 -2.527701
H 240.286502 2.136128 -4.143286
H 238.502016 0.519228 -0.683148
H 237.074037 1.237425 -5.604060
H 236.995565 2.715097 -7.584537
H 237.133994 6.328706 -7.362953
H 236.796769 5.002806 -8.351487
H 237.853557 6.101598 -5.063278
H 237.923266 4.607270 -3.095961
H 234.866745 2.697758 -3.598045
H 233.125082 1.721740 -2.000677
H 233.383682 -2.235347 1.752351
H 235.343820 -3.265947 3.303740
H 236.999385 -0.261497 0.861950
H 238.409079 -4.640914 3.339384
H 238.476914 -5.881258 5.476665
H 238.716883 -5.688202 7.877606
H 238.420414 -4.252542 8.711491
H 237.739852 -2.210890 7.606890
H 237.669562 -0.989254 5.457782
H 240.693024 -2.195677 3.874089
H 242.409982 -1.102346 2.267216
C 129.952420 0.051555 0.010529
C 128.700149 0.032374 0.006181
C 131.266088 0.050789 0.012462
C 132.769221 0.032374 0.006181
C 144.086799 0.051555 0.010529
C 142.834528 0.032374 0.006181
C 145.400467 0.050789 0.012462
C 146.903601 0.032374 0.006181
C 158.221178 0.051555 0.010529
C 156.968907 0.032374 0.006181
C 159.534846 0.050789 0.012462
C 161.037980 0.032374 0.006181
C 172.355557 0.051555 0.010529
C 171.103287 0.032374 0.006181
C 173.669225 0.050789 0.012462
C 175.172359 0.032374 0.006181
C 186.489936 0.051555 0.010529
C 185.237666 0.032374 0.006181
C 187.803604 0.050789 0.012462
C 189.306738 0.032374 0.006181
C 200.624315 0.051555 0.010529
C 199.372045 0.032374 0.006181
C 201.937983 0.050789 0.012462
C 203.441117 0.032374 0.006181
C 214.758694 0.051555 0.010529
C 213.506424 0.032374 0.006181
C 216.072363 0.050789 0.012462
C 217.575496 0.032374 0.006181
C 228.893074 0.051555 0.010529
C 227.640803 0.032374 0.006181
C 230.206742 0.050789 0.012462
C 231.709875 0.032374 0.006181
C 134.182612 -0.013744 -0.002796
C 134.975257 -0.599902 1.237835
C 134.466764 -1.410335 2.232666
C 135.503378 -1.622849 3.177239
C 136.614397 -0.941972 2.725769
N 136.304550 -0.386823 1.509412
C 138.004123 -0.810808 3.473550
C 137.998264 -0.903461 4.952227
C 138.457832 -2.057340 5.595996
C 138.449155 -2.139421 6.991730
C 138.019541 -1.056773 7.764231
N 137.926032 -1.177742 9.161570
C 137.490055 0.063869 7.117922
C 137.498314 0.150594 5.722214
C 139.138850 -0.573516 2.763535
C 140.425822 -0.384316 3.400901
C 141.333497 -0.165371 2.455736
N 139.346815 -0.445461 1.417872
C 140.671190 -0.203613 1.167449
C 141.335296 -0.013744 -0.002796
C 140.542638 -0.063386 -1.373992
C 141.050944 -0.416533 -2.607672
C 140.014349 -0.239352 -3.559534
C 138.903525 0.208996 -2.876270
N 139.213477 0.239976 -1.539608
C 137.513831 0.624388 -3.511722
C 137.519512 1.121708 -4.907309
C 138.017136 2.394777 -5.199677
C 138.024996 2.864787 -6.516728
C 137.497465 2.088228 -7.552396
N 137.590732 2.527522 -8.884410
C 137.070205 0.788019 -7.268899
C 137.061846 0.313779 -5.953657
C 136.379128 0.562639 -2.765633
C 135.092138 0.987549 -3.276928
C 134.184439 0.816125 -2.322023
C 134.846750 0.273273 -1.153057
N 136.171178 0.149983 -1.478421
H 133.457300 -1.788475 2.287723
H 135.441051 -2.190010 4.093962
H 136.966533 0.071505 0.889877
H 138.818372 -2.890012 4.996029
H 138.790721 -3.055418 7.462143
H 138.618456 -1.817520 9.536058
H 137.940461 -0.274679 9.623679
H 137.072621 0.887298 7.687949
H 137.109140 1.034965 5.222710
H 140.621262 -0.404634 4.458046
H 142.377737 0.012368 2.636785
H 142.060278 -0.742834 -2.807276
H 140.076528 -0.399587 -4.625544
H 138.551580 0.417393 -0.789588
H 138.404730 3.011682 -4.392036
H 138.440590 3.846969 -6.716231
H 136.899622 2.085340 -9.480980
H 137.574096 3.539559 -8.953582
H 136.730206 0.130665 -8.062179
H 136.703059 -0.688539 -5.730246
H 134.896724 1.385431 -4.256566
H 133.140167 1.050616 -2.418459
C 148.316991 -0.013744 -0.002796
C 149.109636 -0.599902 1.237835
C 148.601143 -1.410335 2.232666
C 149.637757 -1.622849 3.177239
C 150.748776 -0.941972 2.725769
N 150.438929 -0.386823 1.509412
C 152.138502 -0.810808 3.473550
C 152.132643 -0.903461 4.952227
C 152.592211 -2.057340 5.595996
C 152.583534 -2.139421 6.991730
C 152.153921 -1.056773 7.764231
N 152.060411 -1.177742 9.161570
C 151.624434 0.063869 7.117922
C 151.632693 0.150594 5.722214
C 153.273229 -0.573516 2.763535
C 154.560201 -0.384316 3.400901
C 155.467877 -0.165371 2.455736
N 153.481194 -0.445461 1.417872
C 154.805569 -0.203613 1.167449
C 155.469675 -0.013744 -0.002796
C 154.677017 -0.063386 -1.373992
C 155.185323 -0.416533 -2.607672
C 154.148728 -0.239352 -3.559534
C 153.037904 0.208996 -2.876270
N 153.347856 0.239976 -1.539608
C 151.648210 0.624388 -3.511722
C 151.653891 1.121708 -4.907309
C 152.151515 2.394777 -5.199677
C 152.159375 2.864787 -6.516728
C 151.631844 2.088228 -7.552396
N 151.725111 2.527522 -8.884410
C 151.204584 0.788019 -7.268899
C 151.196225 0.313779 -5.953657
C 150.513507 0.562639 -2.765633
C 149.226517 0.987549 -3.276928
C 148.318818 0.816125 -2.322023
C 148.981129 0.273273 -1.153057
N 150.305557 0.149983 -1.478421
H 147.591679 -1.788475 2.287723
H 149.575430 -2.190010 4.093962
H 151.100912 0.071505 0.889877
H 152.952752 -2.890012 4.996029
H 152.925101 -3.055418 7.462143
H 152.752835 -1.817520 9.536058
H 152.074840 -0.274679 9.623679
H 151.207000 0.887298 7.687949
H 151.243519 1.034965 5.222710
H 154.755641 -0.404634 4.458046
H 156.512116 0.012368 2.636785
H 156.194657 -0.742834 -2.807276
H 154.210908 -0.399587 -4.625544
H 152.685959 0.417393 -0.789588
H 152.539110 3.011682 -4.392036
H 152.574969 3.846969 -6.716231
H 151.034001 2.085340 -9.480980
H 151.708475 3.539559 -8.953582
H 150.864585 0.130665 -8.062179
H 150.837439 -0.688539 -5.730246
H 149.031103 1.385431 -4.256566
H 147.274546 1.050616 -2.418459
C 162.451370 -0.013744 -0.002796
C 163.244015 -0.599902 1.237835
C 162.735522 -1.410335 2.232666
C 163.772136 -1.622849 3.177239
C 164.883156 -0.941972 2.725769
N 164.573308 -0.386823 1.509412
C 166.272881 -0.810808 3.473550
C 166.267022 -0.903461 4.952227
C 166.726590 -2.057340 5.595996
C 166.717913 -2.139421 6.991730
C 166.288300 -1.056773 7.764231
N 166.194791 -1.177742 9.161570
C 165.758813 0.063869 7.117922
C 165.767072 0.150594 5.722214
C 167.407608 -0.573516 2.763535
C 168.694580 -0.384316 3.400901
C 169.602256 -0.165371 2.455736
N 167.615573 -0.445461 1.417872
C 168.939948 -0.203613 1.167449
C 169.604054 -0.013744 -0.002796
C 168.811396 -0.063386 -1.373992
C 169.319702 -0.416533 -2.607672
C 168.283107 -0.239352 -3.559534
C 167.172284 0.208996 -2.876270
N 167.482235 0.239976 -1.539608
C 165.782589 0.624388 -3.511722
C 165.788271 1.121708 -4.907309
C 166.285894 2.394777 -5.199677
C 166.293754 2.864787 -6.516728
C 165.766223 2.088228 -7.552396
N 165.859490 2.527522 -8.884410
C 165.338963 0.788019 -7.268899
C 165.330604 0.313779 -5.953657
C 164.647887 0.562639 -2.765633
C 163.360896 0.987549 -3.276928
C 162.453197 0.816125 -2.322023
C 163.115508 0.273273 -1.153057
N 164.439936 0.149983 -1.478421
H 161.726058 -1.788475 2.287723
H 163.709809 -2.190010 4.093962
H 165.235291 0.071505 0.889877
H 167.087131 -2.890012 4.996029
H 167.059480 -3.055418 7.462143
H 166.887215 -1.817520 9.536058
H 166.209219 -0.274679 9.623679
H 165.341379 0.887298 7.687949
H 165.377898 1.034965 5.222710
H 168.890020 -0.404634 4.458046
H 170.646495 0.012368 2.636785
H 170.329036 -0.742834 -2.807276
H 168.345287 -0.399587 -4.625544
H 166.820338 0.417393 -0.789588
H 166.673489 3.011682 -4.392036
H 166.709348 3.846969 -6.716231
H 165.168380 2.085340 -9.480980
H 165.842854 3.539559 -8.953582
H 164.998965 0.130665 -8.062179
H 164.971818 -0.688539 -5.730246
H 163.165482 1.385431 -4.256566
H 161.408925 1.050616 -2.418459
C 176.585749 -0.013744 -0.002796
C 177.378394 -0.599902 1.237835
C 176.869902 -1.410335 2.232666
C 177.906516 -1.622849 3.177239
C 179.017535 -0.941972 2.725769
N 178.707688 -0.386823 1.509412
C 180.407260 -0.810808 3.473550
C 180.401402 -0.903461 4.952227
C 180.860969 -2.057340 5.595996
C 180.852292 -2.139421 6.991730
C 180.422679 -1.056773 7.764231
N 180.329170 -1.177742 9.161570
C 179.893192 0.063869 7.117922
C 179.901451 0.150594 5.722214
C 181.541987 -0.573516 2.763535
C 182.828959 -0.384316 3.400901
C 183.736635 -0.165371 2.455736
N 181.749953 -0.445461 1.417872
C 183.074328 -0.203613 1.167449
C 183.738434 -0.013744 -0.002796
C 182.945776 -0.063386 -1.373992
C 183.454081 -0.416533 -2.607672
C 182.417486 -0.239352 -3.559534
C 181.306663 0.208996 -2.876270
N 181.616614 0.239976 -1.539608
C 179.916969 0.624388 -3.511722
C 179.922650 1.121708 -4.907309
C 180.420274 2.394777 -5.199677
C 180.428133 2.864787 -6.516728
C 179.900602 2.088228 -7.552396
N 179.993870 2.527522 -8.884410
C 179.473342 0.788019 -7.268899
C 179.464983 0.313779 -5.953657
C 178.782266 0.562639 -2.765633
C 177.495275 0.987549 -3.276928
C 176.587576 0.816125 -2.322023
C 177.249887 0.273273 -1.153057
N 178.574316 0.149983 -1.478421
H 175.860437 -1.788475 2.287723
H 177.844188 -2.190010 4.093962
H 179.369670 0.071505 0.889877
H 181.221510 -2.890012 4.996029
H 181.193859 -3.055418 7.462143
H 181.021594 -1.817520 9.536058
H 180.343598 -0.274679 9.623679
H 179.475758 0.887298 7.687949
H 179.512277 1.034965 5.222710
H 183.024399 -0.404634 4.458046
H 184.780874 0.012368 2.636785
H 184.463415 -0.742834 -2.807276
H 182.479666 -0.399587 -4.625544
H 180.954717 0.417393 -0.789588
H 180.807868 3.011682 -4.392036
H 180.843727 3.846969 -6.716231
H 179.302759 2.085340 -9.480980
H 179.977233 3.539559 -8.953582
H 179.133344 0.130665 -8.062179
H 179.106197 -0.688539 -5.730246
H 177.299861 1.385431 -4.256566
H 175.543304 1.050616 -2.418459
C 190.720128 -0.013744 -0.002796
C 191.512773 -0.599902 1.237835
C 191.004281 -1.410335 2.232666
C 192.040895 -1.622849 3.177239
C 193.151914 -0.941972 2.725769
N 192.842067 -0.386823 1.509412
C 194.541639 -0.810808 3.473550
C 194.535781 -0.903461 4.952227
C 194.995348 -2.057340 5.595996
C 194.986672 -2.139421 6.991730
C 194.557058 -1.056773 7.764231
N 194.463549 -1.177742 9.161570
C 194.027571 0.063869 7.117922
C 194.035830 0.150594 5.722214
C 195.676366 -0.573516 2.763535
C 196.963338 -0.384316 3.400901
C 197.871014 -0.165371 2.455736
N 195.884332 -0.445461 1.417872
C 197.208707 -0.203613 1.167449
C 197.872813 -0.013744 -0.002796
C 197.080155 -0.063386 -1.373992
C 197.588460 -0.416533 -2.607672
C 196.551866 -0.239352 -3.559534
C 195.441042 0.208996 -2.876270
N 195.750993 0.239976 -1.539608
C 194.051348 0.624388 -3.511722
C 194.057029 1.121708 -4.907309
C 194.554653 2.394777 -5.199677
C 194.562513 2.864787 -6.516728
C 194.034982 2.088228 -7.552396
N 194.128249 2.527522 -8.884410
C 193.607721 0.788019 -7.268899
C 193.599362 0.313779 -5.953657
C 192.916645 0.562639 -2.765633
C 191.629654 0.987549 -3.276928
C 190.721956 0.816125 -2.322023
C 191.384267 0.273273 -1.153057
N 192.708695 0.149983 -1.478421
H 189.994816 -1.788475 2.287723
H 191.978568 -2.190010 4.093962
H 193.504049 0.071505 0.889877
H 195.355889 -2.890012 4.996029
H 195.328238 -3.055418 7.462143
H 195.155973 -1.817520 9.536058
H 194.477977 -0.274679 9.623679
H 193.610137 0.887298 7.687949
H 193.646656 1.034965 5.222710
H 197.158778 -0.404634 4.458046
H 198.915253 0.012368 2.636785
H 198.597794 -0.742834 -2.807276
H 196.614045 -0.399587 -4.625544
H 195.089096 0.417393 -0.789588
H 194.942247 3.011682 -4.392036
H 194.978106 3.846969 -6.716231
H 193.437138 2.085340 -9.480980
H 194.111612 3.539559 -8.953582
H 193.267723 0.130665 -8.062179
H 193.240576 -0.688539 -5.730246
H 191.434241 1.385431 -4.256566
H 189.677684 1.050616 -2.418459
C 204.854507 -0.013744 -0.002796
C 205.647152 -0.599902 1.237835
C 205.138660 -1.410335 2.232666
C 206.175274 -1.622849 3.177239
C 207.286293 -0.941972 2.725769
N 206.976446 -0.386823 1.509412
C 208.676019 -0.810808 3.473550
C 208.670160 -0.903461 4.952227
C 209.129727 -2.057340 5.595996
C 209.121051 -2.139421 6.991730
C 208.691437 -1.056773 7.764231
N 208.597928 -1.177742 9.161570
C 208.161951 0.063869 7.117922
C 208.170209 0.150594 5.722214
C 209.810746 -0.573516 2.763535
C 211.097717 -0.384316 3.400901
C 212.005393 -0.165371 2.455736
N 210.018711 -0.445461 1.417872
C 211.343086 -0.203613 1.167449
C 212.007192 -0.013744 -0.002796
C 211.214534 -0.063386 -1.373992
C 211.722840 -0.416533 -2.607672
C 210.686245 -0.239352 -3.559534
C 209.575421 0.208996 -2.876270
N 209.885372 0.239976 -1.539608
C 208.185727 0.624388 -3.511722
C 208.191408 1.121708 -4.907309
C 208.689032 2.394777 -5.199677
C 208.696892 2.864787 -6.516728
C 208.169361 2.088228 -7.552396
N 208.262628 2.527522 -8.884410
C 207.742100 0.788019 -7.268899
C 207.733741 0.313779 -5.953657
C 207.051024 0.562639 -2.765633
C 205.764034 0.987549 -3.276928
C 204.856335 0.816125 -2.322023
C 205.518646 0.273273 -1.153057
N 206.843074 0.149983 -1.478421
H 204.129196 -1.788475 2.287723
H 206.112947 -2.190010 4.093962
H 207.638428 0.071505 0.889877
H 209.490268 -2.890012 4.996029
H 209.462617 -3.055418 7.462143
H 209.290352 -1.817520 9.536058
H 208.612357 -0.274679 9.623679
H 207.744517 0.887298 7.687949
H 207.781036 1.034965 5.222710
H 211.293157 -0.404634 4.458046
H 213.049632 0.012368 2.636785
H 212.732174 -0.742834 -2.807276
H 210.748424 -0.399587 -4.625544
H 209.223475 0.417393 -0.789588
H 209.076626 3.011682 -4.392036
H 209.112485 3.846969 -6.716231
H 207.571517 2.085340 -9.480980
H 208.245992 3.539559 -8.953582
H 207.402102 0.130665 -8.062179
H 207.374955 -0.688539 -5.730246
H 205.568620 1.385431 -4.256566
H 203.812063 1.050616 -2.418459
C 218.988887 -0.013744 -0.002796
C 219.781532 -0.599902 1.237835
C 219.273039 -1.410335 2.232666
C 220.309653 -1.622849 3.177239
C 221.420672 -0.941972 2.725769
N 221.110825 -0.386823 1.509412
C 222.810398 -0.810808 3.473550
C 222.804539 -0.903461 4.952227
C 223.264107 -2.057340 5.595996
C 223.255430 -2.139421 6.991730
C 222.825816 -1.056773 7.764231
N 222.732307 -1.177742 9.161570
C 222.296330 0.063869 7.117922
C 222.304588 0.150594 5.722214
C 223.945125 -0.573516 2.763535
C 225.232097 -0.384316 3.400901
C 226.139772 -0.165371 2.455736
N 224.153090 -0.445461 1.417872
C 225.477465 -0.203613 1.167449
C 226.141571 -0.013744 -0.002796
C 225.348913 -0.063386 -1.373992
C 225.857219 -0.416533 -2.607672
C 224.820624 -0.239352 -3.559534
C 223.709800 0.208996 -2.876270
N 224.019751 0.239976 -1.539608
C 222.320106 0.624388 -3.511722
C 222.325787 1.121708 -4.907309
C 222.823411 2.394777 -5.199677
C 222.831271 2.864787 -6.516728
C 222.303740 2.088228 -7.552396
N 222.397007 2.527522 -8.884410
C 221.876479 0.788019 -7.268899
C 221.868120 0.313779 -5.953657
C 221.185403 0.562639 -2.765633
C 219.898413 0.987549 -3.276928
C 218.990714 0.816125 -2.322023
C 219.653025 0.273273 -1.153057
N 220.977453 0.149983 -1.478421
H 218.263575 -1.788475 2.287723
H 220.247326 -2.190010 4.093962
H 221.772807 0.071505 0.889877
H 223.624647 -2.890012 4.996029
H 223.596996 -3.055418 7.462143
H 223.424731 -1.817520 9.536058
H 222.746736 -0.274679 9.623679
H 221.878896 0.887298 7.687949
H 221.915415 1.034965 5.222710
H 225.427536 -0.404634 4.458046
H 227.184012 0.012368 2.636785
H 226.866553 -0.742834 -2.807276
H 224.882803 -0.399587 -4.625544
H 223.357854 0.417393 -0.789588
H 223.211005 3.011682 -4.392036
H 223.246864 3.846969 -6.716231
H 221.705897 2.085340 -9.480980
H 222.380371 3.539559 -8.953582
H 221.536481 0.130665 -8.062179
H 221.509334 -0.688539 -5.730246
H 219.702999 1.385431 -4.256566
H 217.946442 1.050616 -2.418459
