476

C 71.467631 -0.028120 -0.024695
C 72.192819 -1.406890 0.018488
C 71.575175 -2.632787 0.112116
C 72.597099 -3.615689 0.083260
C 73.805480 -2.955896 -0.027233
N 73.548435 -1.608355 -0.034958
C 75.239202 -3.625979 -0.148959
C 75.291281 -5.111862 -0.296446
C 75.220640 -5.704119 -1.578603
C 75.110471 -4.858199 -2.820392
C 75.259009 -7.103320 -1.697912
C 75.373539 -7.922363 -0.569577
C 75.377690 -9.413785 -0.711985
C 75.427082 -7.331591 0.697303
C 75.392576 -5.935586 0.848979
C 75.462219 -5.338904 2.230572
C 76.365465 -2.861396 -0.145954
C 77.678375 -3.450827 -0.306711
C 78.579854 -2.476859 -0.290958
N 76.555041 -1.508980 -0.020450
C 77.892149 -1.213779 -0.102494
C 78.563825 -0.032719 -0.035761
C 77.791819 1.335223 0.213658
C 78.362225 2.525527 0.622909
C 77.334767 3.497518 0.681226
C 76.160130 2.873820 0.319405
N 76.441072 1.550039 0.069312
C 74.732707 3.565515 0.214708
C 74.675259 5.056654 0.208795
C 74.810432 5.766514 -1.006360
C 75.006616 5.040378 -2.311614
C 74.750960 7.170146 -0.999025
C 74.569521 7.879742 0.192689
C 74.465681 9.374416 0.181165
C 74.425564 7.171690 1.390625
C 74.486146 5.768520 1.416399
C 74.320251 5.046090 2.727782
C 73.613317 2.800294 0.122692
C 72.283984 3.376122 0.018419
C 71.402181 2.383506 -0.040263
C 72.132836 1.141195 0.016319
N 73.456658 1.441907 0.105428
H 70.386573 -0.027288 -0.099483
H 70.511870 -2.800946 0.181923
H 72.466321 -4.686332 0.124112
H 74.253898 -0.875271 -0.069908
H 74.209103 -4.238699 -2.788916
H 75.042189 -5.479922 -3.719872
H 75.993725 -4.222356 -2.933057
H 75.200477 -7.553708 -2.685647
H 74.353081 -9.796414 -0.678312
H 75.836352 -9.715080 -1.659540
H 75.956631 -9.882293 0.090842
H 75.498396 -7.960518 1.581117
H 74.561008 -4.756478 2.445303
H 75.532896 -6.118773 2.996716
H 76.347082 -4.703490 2.334016
H 77.894861 -4.497284 -0.427822
H 79.638883 -2.627195 -0.392653
H 79.405470 2.687695 0.846876
H 77.440028 4.537286 0.953352
H 75.746465 0.840804 -0.153008
H 75.090459 5.742941 -3.148060
H 75.928958 4.451744 -2.292411
H 74.153764 4.387463 -2.521959
H 74.843806 7.710124 -1.937940
H 74.908906 9.801531 1.086267
H 73.415460 9.676089 0.125702
H 74.999126 9.800509 -0.674467
H 74.261677 7.713703 2.318564
H 74.302627 5.749614 3.567607
H 73.377031 4.491890 2.744755
H 75.154853 4.361444 2.905524
H 72.050426 4.425490 -0.004700
H 70.335046 2.483010 -0.118929
C 162.464586 -0.036749 -0.024476
C 161.739398 1.342434 -0.051430
C 162.357042 2.571505 -0.020233
C 161.335118 3.551670 -0.099011
C 160.126737 2.887114 -0.175825
N 160.383782 1.540922 -0.115046
C 158.693015 3.550143 -0.331453
C 158.640936 5.026609 -0.554274
C 158.711577 5.552930 -1.864877
C 158.821746 4.644986 -3.062065
C 158.673208 6.944259 -2.055151
C 158.558678 7.819594 -0.969906
C 158.554528 9.301850 -1.187936
C 158.505135 7.293980 0.325366
C 158.539641 5.907488 0.547802
C 158.469999 5.381802 1.957938
C 157.566752 2.786701 -0.289589
C 156.253843 3.367199 -0.480098
C 155.352364 2.395291 -0.414860
N 157.377176 1.442412 -0.095506
C 156.040069 1.143423 -0.162439
C 155.368392 -0.032719 -0.035761
C 156.140398 -1.386214 0.282866
C 155.569992 -2.554178 0.752090
C 156.597450 -3.521948 0.859735
C 157.772087 -2.917448 0.466681
N 157.491145 -1.608089 0.149625
C 159.199510 -3.613571 0.397277
C 159.256959 -5.103082 0.467163
C 159.121785 -5.873789 -0.710339
C 158.925601 -5.214935 -2.050815
C 159.181257 -7.275234 -0.631670
C 159.362697 -7.923340 0.594572
C 159.466537 -9.416667 0.659035
C 159.506654 -7.155314 1.754970
C 159.446071 -5.752648 1.709390
C 159.611966 -4.964496 2.982358
C 160.318900 -2.854016 0.266484
C 161.648233 -3.434399 0.191615
C 162.530037 -2.446048 0.082555
C 161.799382 -1.202468 0.075920
N 160.475559 -1.498261 0.180198
H 163.545645 -0.041381 -0.099125
H 163.420348 2.742995 0.040937
H 161.465897 4.623006 -0.112630
H 159.678320 0.807009 -0.112689
H 159.723114 4.027887 -2.999141
H 158.890029 5.220186 -3.991983
H 157.938492 4.004238 -3.142264
H 158.731740 7.343859 -3.064502
H 159.579137 9.685697 -1.173755
H 158.095865 9.554594 -2.149580
H 157.975586 9.810559 -0.409960
H 158.433821 7.967017 1.176070
H 159.371210 4.811043 2.201995
H 158.399321 6.199605 2.683452
H 157.585135 4.752468 2.093545
H 156.037357 4.406148 -0.654242
H 154.293334 2.540264 -0.524065
H 154.526747 -2.704752 0.984010
H 156.492190 -4.546541 1.184360
H 158.185753 -0.911072 -0.108456
H 158.841758 -5.959106 -2.850470
H 158.003260 -4.626087 -2.061556
H 159.778453 -4.573557 -2.294074
H 159.088412 -7.862237 -1.541924
H 159.023312 -9.797225 1.584676
H 160.516757 -9.720769 0.618977
H 158.933091 -9.885700 -0.173834
H 159.670540 -7.649460 2.709259
H 159.629590 -5.624423 3.856856
H 160.555187 -4.410150 2.971140
H 158.777365 -4.271700 3.125071
H 161.881791 -4.483585 0.221864
H 163.597171 -2.549423 0.009049
C 84.944584 -0.031616 -0.027272
C 83.735644 -0.045071 -0.035719
C 82.314116 -0.036252 -0.047702
C 81.102446 -0.028813 -0.036839
C 86.361188 -0.038291 -0.026738
C 87.581884 -0.028813 -0.036839
C 101.257268 -0.031616 -0.027272
C 100.048329 -0.045071 -0.035719
C 98.626800 -0.036252 -0.047702
C 97.415130 -0.028813 -0.036839
C 102.673873 -0.038291 -0.026738
C 103.894568 -0.028813 -0.036839
C 117.569953 -0.031616 -0.027272
C 116.361013 -0.045071 -0.035719
C 114.939484 -0.036252 -0.047702
C 113.727815 -0.028813 -0.036839
C 118.986557 -0.038291 -0.026738
C 120.207253 -0.028813 -0.036839
C 133.882637 -0.031616 -0.027272
C 132.673698 -0.045071 -0.035719
C 131.252169 -0.036252 -0.047702
C 130.040499 -0.028813 -0.036839
C 135.299241 -0.038291 -0.026738
C 136.519937 -0.028813 -0.036839
C 150.195321 -0.031616 -0.027272
C 148.986382 -0.045071 -0.035719
C 147.564853 -0.036252 -0.047702
C 146.353184 -0.028813 -0.036839
C 151.611926 -0.038291 -0.026738
C 152.832621 -0.028813 -0.036839
C 88.908240 0.019501 0.021856
C 89.696628 -0.765497 1.151866
C 89.169121 -1.263206 2.326160
C 90.204633 -1.966224 2.991800
C 91.336163 -1.865392 2.211311
N 91.034661 -1.075977 1.128965
C 92.735229 -2.556786 2.491520
C 92.742599 -3.788827 3.334993
C 92.482812 -5.049794 2.749633
C 92.200310 -5.178611 1.275309
C 92.502372 -6.203655 3.551197
C 92.765415 -6.127290 4.922838
C 92.826821 -7.371919 5.754141
C 93.032405 -4.878911 5.494774
C 93.013940 -3.706131 4.720946
C 93.313589 -2.384134 5.378719
C 93.867813 -2.058233 1.927751
C 95.159624 -2.685093 2.119366
C 96.068428 -1.986017 1.449253
N 94.073958 -0.974988 1.117907
C 95.401677 -0.878473 0.793713
C 96.068577 0.019501 0.021856
C 95.280137 1.208065 -0.669828
C 95.804635 2.422539 -1.063200
C 94.769483 3.140700 -1.713405
C 93.640228 2.349414 -1.685099
N 93.943733 1.205573 -0.989025
C 92.241255 2.682547 -2.353961
C 92.235465 3.629974 -3.508036
C 92.504993 3.158541 -4.813723
C 92.787138 1.701007 -5.072642
C 92.508199 4.061784 -5.889690
C 92.238139 5.420619 -5.694130
C 92.278173 6.375370 -6.848461
C 91.985681 5.884273 -4.398728
C 91.976983 5.005814 -3.302174
C 91.690555 5.545826 -1.925206
C 91.109213 2.078140 -1.904260
C 89.817497 2.320912 -2.512117
C 88.909184 1.596858 -1.868280
C 89.575870 0.855627 -0.816180
N 90.904166 1.182296 -0.890999
H 88.147827 -1.156558 2.658096
H 90.129007 -2.504406 3.924718
H 91.704459 -0.750750 0.437393
H 91.309489 -4.607089 1.000308
H 93.056474 -4.835252 0.688139
H 92.011705 -6.220237 0.997211
H 92.313538 -7.171237 3.093055
H 92.498618 -7.173191 6.779474
H 92.168969 -8.146713 5.347730
H 93.851205 -7.754664 5.779017
H 93.261110 -4.811529 6.555431
H 92.515088 -1.661187 5.185196
H 93.389033 -2.491815 6.466823
H 94.267820 -1.984698 5.021752
H 95.356164 -3.568317 2.701177
H 97.116848 -2.219737 1.412087
H 96.824643 2.748892 -0.924124
H 94.845011 4.116148 -2.170258
H 93.275926 0.486623 -0.724897
H 92.959047 1.513873 -6.137305
H 91.935575 1.083956 -4.771174
H 93.686442 1.380357 -4.539025
H 92.721526 3.694218 -6.890540
H 91.949591 5.886086 -7.771517
H 93.296446 6.749940 -6.987913
H 91.609696 7.225673 -6.677269
H 91.791388 6.941310 -4.234479
H 92.528645 5.350060 -1.248183
H 91.543532 6.632319 -1.948337
H 90.774782 5.105144 -1.520091
H 89.621315 2.973520 -3.344177
H 87.861025 1.579690 -2.103920
C 105.220924 0.019501 0.021856
C 106.009313 -0.765497 1.151866
C 105.481805 -1.263206 2.326160
C 106.517318 -1.966224 2.991800
C 107.648847 -1.865392 2.211311
N 107.347345 -1.075977 1.128965
C 109.047913 -2.556786 2.491520
C 109.055283 -3.788827 3.334993
C 108.795497 -5.049794 2.749633
C 108.512994 -5.178611 1.275309
C 108.815056 -6.203655 3.551197
C 109.078099 -6.127290 4.922838
C 109.139505 -7.371919 5.754141
C 109.345089 -4.878911 5.494774
C 109.326625 -3.706131 4.720946
C 109.626273 -2.384134 5.378719
C 110.180498 -2.058233 1.927751
C 111.472308 -2.685093 2.119366
C 112.381113 -1.986017 1.449253
N 110.386642 -0.974988 1.117907
C 111.714362 -0.878473 0.793713
C 112.381261 0.019501 0.021856
C 111.592821 1.208065 -0.669828
C 112.117319 2.422539 -1.063200
C 111.082167 3.140700 -1.713405
C 109.952913 2.349414 -1.685099
N 110.256418 1.205573 -0.989025
C 108.553939 2.682547 -2.353961
C 108.548150 3.629974 -3.508036
C 108.817678 3.158541 -4.813723
C 109.099822 1.701007 -5.072642
C 108.820883 4.061784 -5.889690
C 108.550824 5.420619 -5.694130
C 108.590857 6.375370 -6.848461
C 108.298366 5.884273 -4.398728
C 108.289668 5.005814 -3.302174
C 108.003239 5.545826 -1.925206
C 107.421897 2.078140 -1.904260
C 106.130181 2.320912 -2.512117
C 105.221869 1.596858 -1.868280
C 105.888554 0.855627 -0.816180
N 107.216850 1.182296 -0.890999
H 104.460512 -1.156558 2.658096
H 106.441691 -2.504406 3.924718
H 108.017143 -0.750750 0.437393
H 107.622174 -4.607089 1.000308
H 109.369159 -4.835252 0.688139
H 108.324389 -6.220237 0.997211
H 108.626223 -7.171237 3.093055
H 108.811302 -7.173191 6.779474
H 108.481654 -8.146713 5.347730
H 110.163889 -7.754664 5.779017
H 109.573794 -4.811529 6.555431
H 108.827773 -1.661187 5.185196
H 109.701718 -2.491815 6.466823
H 110.580504 -1.984698 5.021752
H 111.668849 -3.568317 2.701177
H 113.429532 -2.219737 1.412087
H 113.137327 2.748892 -0.924124
H 111.157696 4.116148 -2.170258
H 109.588611 0.486623 -0.724897
H 109.271732 1.513873 -6.137305
H 108.248259 1.083956 -4.771174
H 109.999126 1.380357 -4.539025
H 109.034210 3.694218 -6.890540
H 108.262275 5.886086 -7.771517
H 109.609130 6.749940 -6.987913
H 107.922381 7.225673 -6.677269
H 108.104072 6.941310 -4.234479
H 108.841329 5.350060 -1.248183
H 107.856217 6.632319 -1.948337
H 107.087466 5.105144 -1.520091
H 105.933999 2.973520 -3.344177
H 104.173709 1.579690 -2.103920
C 121.533609 0.019501 0.021856
C 122.321997 -0.765497 1.151866
C 121.794489 -1.263206 2.326160
C 122.830002 -1.966224 2.991800
C 123.961532 -1.865392 2.211311
N 123.660030 -1.075977 1.128965
C 125.360598 -2.556786 2.491520
C 125.367968 -3.788827 3.334993
C 125.108181 -5.049794 2.749633
C 124.825679 -5.178611 1.275309
C 125.127740 -6.203655 3.551197
C 125.390783 -6.127290 4.922838
C 125.452190 -7.371919 5.754141
C 125.657773 -4.878911 5.494774
C 125.639309 -3.706131 4.720946
C 125.938957 -2.384134 5.378719
C 126.493182 -2.058233 1.927751
C 127.784992 -2.685093 2.119366
C 128.693797 -1.986017 1.449253
N 126.699327 -0.974988 1.117907
C 128.027046 -0.878473 0.793713
C 128.693946 0.019501 0.021856
C 127.905506 1.208065 -0.669828
C 128.430003 2.422539 -1.063200
C 127.394851 3.140700 -1.713405
C 126.265597 2.349414 -1.685099
N 126.569102 1.205573 -0.989025
C 124.866624 2.682547 -2.353961
C 124.860834 3.629974 -3.508036
C 125.130362 3.158541 -4.813723
C 125.412506 1.701007 -5.072642
C 125.133567 4.061784 -5.889690
C 124.863508 5.420619 -5.694130
C 124.903541 6.375370 -6.848461
C 124.611050 5.884273 -4.398728
C 124.602352 5.005814 -3.302174
C 124.315923 5.545826 -1.925206
C 123.734582 2.078140 -1.904260
C 122.442866 2.320912 -2.512117
C 121.534553 1.596858 -1.868280
C 122.201238 0.855627 -0.816180
N 123.529534 1.182296 -0.890999
H 120.773196 -1.156558 2.658096
H 122.754376 -2.504406 3.924718
H 124.329828 -0.750750 0.437393
H 123.934858 -4.607089 1.000308
H 125.681843 -4.835252 0.688139
H 124.637074 -6.220237 0.997211
H 124.938907 -7.171237 3.093055
H 125.123987 -7.173191 6.779474
H 124.794338 -8.146713 5.347730
H 126.476574 -7.754664 5.779017
H 125.886478 -4.811529 6.555431
H 125.140457 -1.661187 5.185196
H 126.014402 -2.491815 6.466823
H 126.893188 -1.984698 5.021752
H 127.981533 -3.568317 2.701177
H 129.742216 -2.219737 1.412087
H 129.450012 2.748892 -0.924124
H 127.470380 4.116148 -2.170258
H 125.901295 0.486623 -0.724897
H 125.584416 1.513873 -6.137305
H 124.560944 1.083956 -4.771174
H 126.311810 1.380357 -4.539025
H 125.346894 3.694218 -6.890540
H 124.574960 5.886086 -7.771517
H 125.921815 6.749940 -6.987913
H 124.235065 7.225673 -6.677269
H 124.416756 6.941310 -4.234479
H 125.154013 5.350060 -1.248183
H 124.168901 6.632319 -1.948337
H 123.400151 5.105144 -1.520091
H 122.246684 2.973520 -3.344177
H 120.486393 1.579690 -2.103920
C 137.846293 0.019501 0.021856
C 138.634682 -0.765497 1.151866
C 138.107174 -1.263206 2.326160
C 139.142686 -1.966224 2.991800
C 140.274216 -1.865392 2.211311
N 139.972714 -1.075977 1.128965
C 141.673282 -2.556786 2.491520
C 141.680652 -3.788827 3.334993
C 141.420865 -5.049794 2.749633
C 141.138363 -5.178611 1.275309
C 141.440425 -6.203655 3.551197
C 141.703468 -6.127290 4.922838
C 141.764874 -7.371919 5.754141
C 141.970458 -4.878911 5.494774
C 141.951993 -3.706131 4.720946
C 142.251642 -2.384134 5.378719
C 142.805866 -2.058233 1.927751
C 144.097677 -2.685093 2.119366
C 145.006481 -1.986017 1.449253
N 143.012011 -0.974988 1.117907
C 144.339731 -0.878473 0.793713
C 145.006630 0.019501 0.021856
C 144.218190 1.208065 -0.669828
C 144.742688 2.422539 -1.063200
C 143.707536 3.140700 -1.713405
C 142.578281 2.349414 -1.685099
N 142.881787 1.205573 -0.989025
C 141.179308 2.682547 -2.353961
C 141.173518 3.629974 -3.508036
C 141.443046 3.158541 -4.813723
C 141.725191 1.701007 -5.072642
C 141.446252 4.061784 -5.889690
C 141.176193 5.420619 -5.694130
C 141.216226 6.375370 -6.848461
C 140.923735 5.884273 -4.398728
C 140.915036 5.005814 -3.302174
C 140.628608 5.545826 -1.925206
C 140.047266 2.078140 -1.904260
C 138.755550 2.320912 -2.512117
C 137.847238 1.596858 -1.868280
C 138.513923 0.855627 -0.816180
N 139.842219 1.182296 -0.890999
H 137.085880 -1.156558 2.658096
H 139.067060 -2.504406 3.924718
H 140.642512 -0.750750 0.437393
H 140.247542 -4.607089 1.000308
H 141.994527 -4.835252 0.688139
H 140.949758 -6.220237 0.997211
H 141.251592 -7.171237 3.093055
H 141.436671 -7.173191 6.779474
H 141.107022 -8.146713 5.347730
H 142.789258 -7.754664 5.779017
H 142.199163 -4.811529 6.555431
H 141.453142 -1.661187 5.185196
H 142.327086 -2.491815 6.466823
H 143.205873 -1.984698 5.021752
H 144.294217 -3.568317 2.701177
H 146.054901 -2.219737 1.412087
H 145.762696 2.748892 -0.924124
H 143.783065 4.116148 -2.170258
H 142.213979 0.486623 -0.724897
H 141.897100 1.513873 -6.137305
H 140.873628 1.083956 -4.771174
H 142.624495 1.380357 -4.539025
H 141.659579 3.694218 -6.890540
H 140.887644 5.886086 -7.771517
H 142.234499 6.749940 -6.987913
H 140.547749 7.225673 -6.677269
H 140.729441 6.941310 -4.234479
H 141.466698 5.350060 -1.248183
H 140.481586 6.632319 -1.948337
H 139.712835 5.105144 -1.520091
H 138.559368 2.973520 -3.344177
H 136.799078 1.579690 -2.103920
