 xtb: 6.5.1 (b24c23e)
          07272203283D

224251  0     0  0            999 V2000
   40.2077    0.0431    0.0779 C   0  0  0  0  0  0  0  0  0  0  0  0
   40.8131    1.2765    0.2804 C   0  0  0  0  0  0  0  0  0  0  0  0
   40.1580    2.5262    0.4671 C   0  0  0  0  0  0  0  0  0  0  0  0
   41.1177    3.4825    0.6446 C   0  0  0  0  0  0  0  0  0  0  0  0
   42.3902    2.8458    0.5823 C   0  0  0  0  0  0  0  0  0  0  0  0
   42.1557    1.5203    0.3500 N   0  0  0  0  0  0  0  0  0  0  0  0
   43.6519    3.4358    0.7157 C   0  0  0  0  0  0  0  0  0  0  0  0
   43.6796    4.8904    0.9976 C   0  0  0  0  0  0  0  0  0  0  0  0
   44.2959    5.7855    0.1236 C   0  0  0  0  0  0  0  0  0  0  0  0
   44.2923    7.1377    0.4270 C   0  0  0  0  0  0  0  0  0  0  0  0
   43.7288    7.6325    1.5245 N   0  0  0  0  0  0  0  0  0  0  0  0
   43.1426    6.7861    2.3650 C   0  0  0  0  0  0  0  0  0  0  0  0
   43.0894    5.4186    2.1454 C   0  0  0  0  0  0  0  0  0  0  0  0
   44.8701    2.7604    0.6089 C   0  0  0  0  0  0  0  0  0  0  0  0
   46.1628    3.3833    0.8305 C   0  0  0  0  0  0  0  0  0  0  0  0
   47.0880    2.4206    0.6393 C   0  0  0  0  0  0  0  0  0  0  0  0
   45.0316    1.4420    0.3110 N   0  0  0  0  0  0  0  0  0  0  0  0
   46.3605    1.2109    0.3068 C   0  0  0  0  0  0  0  0  0  0  0  0
   47.0021   -0.0121    0.0274 C   0  0  0  0  0  0  0  0  0  0  0  0
   46.3700   -1.2415   -0.2366 C   0  0  0  0  0  0  0  0  0  0  0  0
   47.0145   -2.4648   -0.5600 C   0  0  0  0  0  0  0  0  0  0  0  0
   46.0501   -3.4181   -0.7358 C   0  0  0  0  0  0  0  0  0  0  0  0
   44.7848   -2.8058   -0.5195 C   0  0  0  0  0  0  0  0  0  0  0  0
   45.0295   -1.4895   -0.2301 N   0  0  0  0  0  0  0  0  0  0  0  0
   43.5243   -3.4064   -0.6101 C   0  0  0  0  0  0  0  0  0  0  0  0
   43.4977   -4.8573   -0.9075 C   0  0  0  0  0  0  0  0  0  0  0  0
   44.1002   -5.7849   -0.0580 C   0  0  0  0  0  0  0  0  0  0  0  0
   44.0469   -7.1318   -0.3808 C   0  0  0  0  0  0  0  0  0  0  0  0
   43.4490   -7.5916   -1.4751 N   0  0  0  0  0  0  0  0  0  0  0  0
   42.8740   -6.7141   -2.2915 C   0  0  0  0  0  0  0  0  0  0  0  0
   42.8699   -5.3493   -2.0517 C   0  0  0  0  0  0  0  0  0  0  0  0
   42.3051   -2.7403   -0.4476 C   0  0  0  0  0  0  0  0  0  0  0  0
   41.0043   -3.3903   -0.4924 C   0  0  0  0  0  0  0  0  0  0  0  0
   40.0866   -2.4215   -0.3012 C   0  0  0  0  0  0  0  0  0  0  0  0
   40.8257   -1.1829   -0.1296 C   0  0  0  0  0  0  0  0  0  0  0  0
   42.1587   -1.4149   -0.2128 N   0  0  0  0  0  0  0  0  0  0  0  0
   39.1223    0.0474    0.0842 H   0  0  0  0  0  0  0  0  0  0  0  0
   39.0885    2.6629    0.4589 H   0  0  0  0  0  0  0  0  0  0  0  0
   40.9638    4.5385    0.7970 H   0  0  0  0  0  0  0  0  0  0  0  0
   42.8830    0.8212    0.2426 H   0  0  0  0  0  0  0  0  0  0  0  0
   44.7578    5.4287   -0.7892 H   0  0  0  0  0  0  0  0  0  0  0  0
   44.7623    7.8541   -0.2405 H   0  0  0  0  0  0  0  0  0  0  0  0
   42.6942    7.2197    3.2542 H   0  0  0  0  0  0  0  0  0  0  0  0
   42.6117    4.7657    2.8663 H   0  0  0  0  0  0  0  0  0  0  0  0
   46.3187    4.4122    1.1115 H   0  0  0  0  0  0  0  0  0  0  0  0
   48.1600    2.4944    0.7255 H   0  0  0  0  0  0  0  0  0  0  0  0
   48.0808   -2.5891   -0.6563 H   0  0  0  0  0  0  0  0  0  0  0  0
   46.1988   -4.4512   -1.0045 H   0  0  0  0  0  0  0  0  0  0  0  0
   44.3061   -0.8010   -0.0502 H   0  0  0  0  0  0  0  0  0  0  0  0
   44.5876   -5.4585    0.8530 H   0  0  0  0  0  0  0  0  0  0  0  0
   44.5046   -7.8728    0.2681 H   0  0  0  0  0  0  0  0  0  0  0  0
   42.3957   -7.1198   -3.1782 H   0  0  0  0  0  0  0  0  0  0  0  0
   42.4003   -4.6699   -2.7529 H   0  0  0  0  0  0  0  0  0  0  0  0
   40.8411   -4.4461   -0.6372 H   0  0  0  0  0  0  0  0  0  0  0  0
   39.0118   -2.5064   -0.2672 H   0  0  0  0  0  0  0  0  0  0  0  0
   79.6963   -0.0091    0.0450 C   0  0  0  0  0  0  0  0  0  0  0  0
   79.1051   -1.2116   -0.3194 C   0  0  0  0  0  0  0  0  0  0  0  0
   79.7738   -2.4099   -0.6973 C   0  0  0  0  0  0  0  0  0  0  0  0
   78.8244   -3.3499   -0.9828 C   0  0  0  0  0  0  0  0  0  0  0  0
   77.5445   -2.7589   -0.7785 C   0  0  0  0  0  0  0  0  0  0  0  0
   77.7649   -1.4694   -0.3857 N   0  0  0  0  0  0  0  0  0  0  0  0
   76.2897   -3.3474   -0.9693 C   0  0  0  0  0  0  0  0  0  0  0  0
   76.2829   -4.7658   -1.4014 C   0  0  0  0  0  0  0  0  0  0  0  0
   75.7302   -5.1478   -2.6233 C   0  0  0  0  0  0  0  0  0  0  0  0
   75.7521   -6.4850   -2.9866 C   0  0  0  0  0  0  0  0  0  0  0  0
   76.2761   -7.4357   -2.2194 N   0  0  0  0  0  0  0  0  0  0  0  0
   76.8027   -7.0807   -1.0520 C   0  0  0  0  0  0  0  0  0  0  0  0
   76.8326   -5.7692   -0.6043 C   0  0  0  0  0  0  0  0  0  0  0  0
   75.0618   -2.7068   -0.7867 C   0  0  0  0  0  0  0  0  0  0  0  0
   73.7771   -3.3619   -0.9546 C   0  0  0  0  0  0  0  0  0  0  0  0
   72.8372   -2.4331   -0.6846 C   0  0  0  0  0  0  0  0  0  0  0  0
   74.8798   -1.4120   -0.4071 N   0  0  0  0  0  0  0  0  0  0  0  0
   73.5463   -1.2164   -0.3401 C   0  0  0  0  0  0  0  0  0  0  0  0
   72.8870   -0.0179   -0.0018 C   0  0  0  0  0  0  0  0  0  0  0  0
   73.5065    1.1988    0.3413 C   0  0  0  0  0  0  0  0  0  0  0  0
   72.8482    2.4117    0.6752 C   0  0  0  0  0  0  0  0  0  0  0  0
   73.8028    3.3523    0.9454 C   0  0  0  0  0  0  0  0  0  0  0  0
   75.0767    2.7371    0.8000 C   0  0  0  0  0  0  0  0  0  0  0  0
   74.8459    1.4387    0.4287 N   0  0  0  0  0  0  0  0  0  0  0  0
   76.3300    3.3342    0.9713 C   0  0  0  0  0  0  0  0  0  0  0  0
   76.3391    4.7615    1.3703 C   0  0  0  0  0  0  0  0  0  0  0  0
   75.7749    5.1857    2.5729 C   0  0  0  0  0  0  0  0  0  0  0  0
   75.8106    6.5326    2.8982 C   0  0  0  0  0  0  0  0  0  0  0  0
   76.3563    7.4540    2.1110 N   0  0  0  0  0  0  0  0  0  0  0  0
   76.8951    7.0584    0.9621 C   0  0  0  0  0  0  0  0  0  0  0  0
   76.9131    5.7346    0.5527 C   0  0  0  0  0  0  0  0  0  0  0  0
   77.5589    2.6902    0.7966 C   0  0  0  0  0  0  0  0  0  0  0  0
   78.8507    3.3151    1.0368 C   0  0  0  0  0  0  0  0  0  0  0  0
   79.7828    2.3760    0.7792 C   0  0  0  0  0  0  0  0  0  0  0  0
   79.0616    1.1768    0.3900 C   0  0  0  0  0  0  0  0  0  0  0  0
   77.7250    1.4010    0.4180 N   0  0  0  0  0  0  0  0  0  0  0  0
   80.7815   -0.0042    0.0571 H   0  0  0  0  0  0  0  0  0  0  0  0
   80.8451   -2.5223   -0.7471 H   0  0  0  0  0  0  0  0  0  0  0  0
   78.9897   -4.3622   -1.3141 H   0  0  0  0  0  0  0  0  0  0  0  0
   77.0309   -0.8000   -0.1801 H   0  0  0  0  0  0  0  0  0  0  0  0
   75.3032   -4.4053   -3.2868 H   0  0  0  0  0  0  0  0  0  0  0  0
   75.3312   -6.8059   -3.9350 H   0  0  0  0  0  0  0  0  0  0  0  0
   77.2201   -7.8799   -0.4464 H   0  0  0  0  0  0  0  0  0  0  0  0
   77.2616   -5.5289    0.3614 H   0  0  0  0  0  0  0  0  0  0  0  0
   73.6347   -4.3941   -1.2304 H   0  0  0  0  0  0  0  0  0  0  0  0
   71.7651   -2.5385   -0.7115 H   0  0  0  0  0  0  0  0  0  0  0  0
   71.7789    2.5415    0.7035 H   0  0  0  0  0  0  0  0  0  0  0  0
   73.6411    4.3829    1.2160 H   0  0  0  0  0  0  0  0  0  0  0  0
   75.5762    0.7592    0.2429 H   0  0  0  0  0  0  0  0  0  0  0  0
   75.3306    4.4689    3.2532 H   0  0  0  0  0  0  0  0  0  0  0  0
   75.3821    6.8861    3.8315 H   0  0  0  0  0  0  0  0  0  0  0  0
   77.3314    7.8343    0.3398 H   0  0  0  0  0  0  0  0  0  0  0  0
   77.3529    5.4597   -0.3986 H   0  0  0  0  0  0  0  0  0  0  0  0
   78.9980    4.3297    1.3701 H   0  0  0  0  0  0  0  0  0  0  0  0
   80.8567    2.4544    0.8443 H   0  0  0  0  0  0  0  0  0  0  0  0
   48.4113   -0.0199    0.0078 C   0  0  0  0  0  0  0  0  0  0  0  0
   49.6281   -0.0237   -0.0133 C   0  0  0  0  0  0  0  0  0  0  0  0
   59.3237   -0.0020   -0.0596 C   0  0  0  0  0  0  0  0  0  0  0  0
   60.5420    0.0019   -0.0508 C   0  0  0  0  0  0  0  0  0  0  0  0
   70.2591   -0.0174   -0.0034 C   0  0  0  0  0  0  0  0  0  0  0  0
   71.4764   -0.0192   -0.0018 C   0  0  0  0  0  0  0  0  0  0  0  0
   51.0362   -0.0252   -0.0359 C   0  0  0  0  0  0  0  0  0  0  0  0
   51.6686   -1.2547    0.2281 C   0  0  0  0  0  0  0  0  0  0  0  0
   51.0336   -2.4773    0.5664 C   0  0  0  0  0  0  0  0  0  0  0  0
   52.0035   -3.4329    0.7027 C   0  0  0  0  0  0  0  0  0  0  0  0
   53.2601   -2.8209    0.4448 C   0  0  0  0  0  0  0  0  0  0  0  0
   53.0086   -1.5014    0.1810 N   0  0  0  0  0  0  0  0  0  0  0  0
   54.5195   -3.4335    0.4456 C   0  0  0  0  0  0  0  0  0  0  0  0
   54.5418   -4.8963    0.6809 C   0  0  0  0  0  0  0  0  0  0  0  0
   55.2386   -5.4424    1.7588 C   0  0  0  0  0  0  0  0  0  0  0  0
   55.2291   -6.8155    1.9449 C   0  0  0  0  0  0  0  0  0  0  0  0
   54.5854   -7.6516    1.1364 N   0  0  0  0  0  0  0  0  0  0  0  0
   53.9217   -7.1403    0.1047 C   0  0  0  0  0  0  0  0  0  0  0  0
   53.8681   -5.7810   -0.1608 C   0  0  0  0  0  0  0  0  0  0  0  0
   55.7395   -2.7842    0.2476 C   0  0  0  0  0  0  0  0  0  0  0  0
   57.0133   -3.4734    0.1502 C   0  0  0  0  0  0  0  0  0  0  0  0
   57.9532   -2.5172    0.0001 C   0  0  0  0  0  0  0  0  0  0  0  0
   55.9248   -1.4406    0.1268 N   0  0  0  0  0  0  0  0  0  0  0  0
   57.2545   -1.2482    0.0055 C   0  0  0  0  0  0  0  0  0  0  0  0
   57.9162   -0.0051   -0.0680 C   0  0  0  0  0  0  0  0  0  0  0  0
   57.2803    1.2497   -0.1485 C   0  0  0  0  0  0  0  0  0  0  0  0
   57.9115    2.5194   -0.1675 C   0  0  0  0  0  0  0  0  0  0  0  0
   56.9411    3.4723   -0.3161 C   0  0  0  0  0  0  0  0  0  0  0  0
   55.6864    2.8097   -0.3940 C   0  0  0  0  0  0  0  0  0  0  0  0
   55.9399    1.4703   -0.2663 N   0  0  0  0  0  0  0  0  0  0  0  0
   54.4284    3.3992   -0.5726 C   0  0  0  0  0  0  0  0  0  0  0  0
   54.4146    4.8636   -0.7986 C   0  0  0  0  0  0  0  0  0  0  0  0
   53.7287    5.7248    0.0575 C   0  0  0  0  0  0  0  0  0  0  0  0
   53.7464    7.0869   -0.1973 C   0  0  0  0  0  0  0  0  0  0  0  0
   54.3875    7.6225   -1.2313 N   0  0  0  0  0  0  0  0  0  0  0  0
   55.0420    6.8090   -2.0536 C   0  0  0  0  0  0  0  0  0  0  0  0
   55.0875    5.4350   -1.8786 C   0  0  0  0  0  0  0  0  0  0  0  0
   53.2057    2.7260   -0.5566 C   0  0  0  0  0  0  0  0  0  0  0  0
   51.9274    3.3603   -0.8247 C   0  0  0  0  0  0  0  0  0  0  0  0
   50.9873    2.4052   -0.6696 C   0  0  0  0  0  0  0  0  0  0  0  0
   51.6926    1.1892   -0.3165 C   0  0  0  0  0  0  0  0  0  0  0  0
   53.0235    1.4058   -0.2798 N   0  0  0  0  0  0  0  0  0  0  0  0
   49.9710   -2.6011    0.6975 H   0  0  0  0  0  0  0  0  0  0  0  0
   51.8625   -4.4674    0.9698 H   0  0  0  0  0  0  0  0  0  0  0  0
   53.7222   -0.8072   -0.0138 H   0  0  0  0  0  0  0  0  0  0  0  0
   55.7672   -4.7980    2.4511 H   0  0  0  0  0  0  0  0  0  0  0  0
   55.7606   -7.2629    2.7798 H   0  0  0  0  0  0  0  0  0  0  0  0
   53.4091   -7.8485   -0.5398 H   0  0  0  0  0  0  0  0  0  0  0  0
   53.3253   -5.4119   -1.0230 H   0  0  0  0  0  0  0  0  0  0  0  0
   57.1469   -4.5427    0.1734 H   0  0  0  0  0  0  0  0  0  0  0  0
   59.0171   -2.6370   -0.1224 H   0  0  0  0  0  0  0  0  0  0  0  0
   58.9722    2.6792   -0.0685 H   0  0  0  0  0  0  0  0  0  0  0  0
   57.0800    4.5403   -0.3547 H   0  0  0  0  0  0  0  0  0  0  0  0
   55.2278    0.7478   -0.2600 H   0  0  0  0  0  0  0  0  0  0  0  0
   53.2023    5.3343    0.9202 H   0  0  0  0  0  0  0  0  0  0  0  0
   53.2223    7.7773    0.4570 H   0  0  0  0  0  0  0  0  0  0  0  0
   55.5541    7.2756   -2.8900 H   0  0  0  0  0  0  0  0  0  0  0  0
   55.6234    4.8097   -2.5829 H   0  0  0  0  0  0  0  0  0  0  0  0
   51.7905    4.3910   -1.1089 H   0  0  0  0  0  0  0  0  0  0  0  0
   49.9197    2.4875   -0.7938 H   0  0  0  0  0  0  0  0  0  0  0  0
   61.9494    0.0007   -0.0376 C   0  0  0  0  0  0  0  0  0  0  0  0
   62.5775   -1.2022    0.3415 C   0  0  0  0  0  0  0  0  0  0  0  0
   61.9379   -2.3932    0.7696 C   0  0  0  0  0  0  0  0  0  0  0  0
   62.9050   -3.3321    1.0031 C   0  0  0  0  0  0  0  0  0  0  0  0
   64.1660   -2.7405    0.7208 C   0  0  0  0  0  0  0  0  0  0  0  0
   63.9186   -1.4485    0.3411 N   0  0  0  0  0  0  0  0  0  0  0  0
   65.4234   -3.3481    0.8222 C   0  0  0  0  0  0  0  0  0  0  0  0
   65.4267   -4.7853    1.1874 C   0  0  0  0  0  0  0  0  0  0  0  0
   66.0439   -5.2372    2.3533 C   0  0  0  0  0  0  0  0  0  0  0  0
   66.0178   -6.5906    2.6506 C   0  0  0  0  0  0  0  0  0  0  0  0
   65.4305   -7.4926    1.8707 N   0  0  0  0  0  0  0  0  0  0  0  0
   64.8413   -7.0707    0.7566 C   0  0  0  0  0  0  0  0  0  0  0  0
   64.8103   -5.7382    0.3769 C   0  0  0  0  0  0  0  0  0  0  0  0
   66.6535   -2.7232    0.6123 C   0  0  0  0  0  0  0  0  0  0  0  0
   67.9299   -3.4116    0.6845 C   0  0  0  0  0  0  0  0  0  0  0  0
   68.8787   -2.4805    0.4570 C   0  0  0  0  0  0  0  0  0  0  0  0
   66.8475   -1.4079    0.3199 N   0  0  0  0  0  0  0  0  0  0  0  0
   68.1823   -1.2296    0.2324 C   0  0  0  0  0  0  0  0  0  0  0  0
   68.8495   -0.0116   -0.0035 C   0  0  0  0  0  0  0  0  0  0  0  0
   68.2238    1.2280   -0.2363 C   0  0  0  0  0  0  0  0  0  0  0  0
   68.8667    2.4742   -0.4499 C   0  0  0  0  0  0  0  0  0  0  0  0
   67.8998    3.4174   -0.6665 C   0  0  0  0  0  0  0  0  0  0  0  0
   66.6360    2.7697   -0.6083 C   0  0  0  0  0  0  0  0  0  0  0  0
   66.8818    1.4515   -0.3315 N   0  0  0  0  0  0  0  0  0  0  0  0
   65.3777    3.3519   -0.8042 C   0  0  0  0  0  0  0  0  0  0  0  0
   65.3645    4.7985   -1.1301 C   0  0  0  0  0  0  0  0  0  0  0  0
   64.7254    5.7162   -0.2967 C   0  0  0  0  0  0  0  0  0  0  0  0
   64.7417    7.0605   -0.6326 C   0  0  0  0  0  0  0  0  0  0  0  0
   65.3381    7.5267   -1.7252 N   0  0  0  0  0  0  0  0  0  0  0  0
   65.9450    6.6585   -2.5277 C   0  0  0  0  0  0  0  0  0  0  0  0
   65.9879    5.2965   -2.2736 C   0  0  0  0  0  0  0  0  0  0  0  0
   64.1498    2.6931   -0.7230 C   0  0  0  0  0  0  0  0  0  0  0  0
   62.8796    3.3194   -1.0425 C   0  0  0  0  0  0  0  0  0  0  0  0
   61.9310    2.3819   -0.8401 C   0  0  0  0  0  0  0  0  0  0  0  0
   62.6205    1.1876   -0.3964 C   0  0  0  0  0  0  0  0  0  0  0  0
   63.9526    1.3966   -0.3570 N   0  0  0  0  0  0  0  0  0  0  0  0
   60.8742   -2.5079    0.8949 H   0  0  0  0  0  0  0  0  0  0  0  0
   62.7597   -4.3413    1.3519 H   0  0  0  0  0  0  0  0  0  0  0  0
   64.6338   -0.7720    0.0964 H   0  0  0  0  0  0  0  0  0  0  0  0
   66.5238   -4.5361    3.0256 H   0  0  0  0  0  0  0  0  0  0  0  0
   66.4880   -6.9659    3.5548 H   0  0  0  0  0  0  0  0  0  0  0  0
   64.3731   -7.8314    0.1387 H   0  0  0  0  0  0  0  0  0  0  0  0
   64.3285   -5.4419   -0.5474 H   0  0  0  0  0  0  0  0  0  0  0  0
   68.0611   -4.4646    0.8733 H   0  0  0  0  0  0  0  0  0  0  0  0
   69.9489   -2.6050    0.4396 H   0  0  0  0  0  0  0  0  0  0  0  0
   69.9336    2.6248   -0.4393 H   0  0  0  0  0  0  0  0  0  0  0  0
   68.0485    4.4695   -0.8463 H   0  0  0  0  0  0  0  0  0  0  0  0
   66.1650    0.7432   -0.2144 H   0  0  0  0  0  0  0  0  0  0  0  0
   64.2354    5.3822    0.6101 H   0  0  0  0  0  0  0  0  0  0  0  0
   64.2549    7.7942    0.0034 H   0  0  0  0  0  0  0  0  0  0  0  0
   66.4197    7.0690   -3.4142 H   0  0  0  0  0  0  0  0  0  0  0  0
   66.4838    4.6251   -2.9646 H   0  0  0  0  0  0  0  0  0  0  0  0
   62.7542    4.3311   -1.3928 H   0  0  0  0  0  0  0  0  0  0  0  0
   60.8664    2.4636   -0.9856 H   0  0  0  0  0  0  0  0  0  0  0  0
  1  2  4  0  0  0  0
  2  3  4  0  0  0  0
  3  4  2  0  0  0  0
  4  5  4  0  0  0  0
  2  6  4  0  0  0  0
  5  6  4  0  0  0  0
  5  7  4  0  0  0  0
  7  8  1  0  0  0  0
  8  9  4  0  0  0  0
  9 10  4  0  0  0  0
 10 11  4  0  0  0  0
 11 12  4  0  0  0  0
  8 13  4  0  0  0  0
 12 13  4  0  0  0  0
  7 14  4  0  0  0  0
 14 15  1  0  0  0  0
 15 16  2  0  0  0  0
 14 17  4  0  0  0  0
 16 18  1  0  0  0  0
 17 18  4  0  0  0  0
 18 19  4  0  0  0  0
 19 20  4  0  0  0  0
 20 21  4  0  0  0  0
 21 22  2  0  0  0  0
 22 23  4  0  0  0  0
 20 24  4  0  0  0  0
 23 24  4  0  0  0  0
 23 25  4  0  0  0  0
 25 26  1  0  0  0  0
 26 27  4  0  0  0  0
 27 28  4  0  0  0  0
 28 29  4  0  0  0  0
 29 30  4  0  0  0  0
 26 31  4  0  0  0  0
 30 31  4  0  0  0  0
 25 32  4  0  0  0  0
 32 33  1  0  0  0  0
 33 34  2  0  0  0  0
  1 35  4  0  0  0  0
 34 35  1  0  0  0  0
 32 36  4  0  0  0  0
 35 36  4  0  0  0  0
  1 37  1  0  0  0  0
  3 38  1  0  0  0  0
  4 39  1  0  0  0  0
  6 40  1  0  0  0  0
  9 41  1  0  0  0  0
 10 42  1  0  0  0  0
 12 43  1  0  0  0  0
 13 44  1  0  0  0  0
 15 45  1  0  0  0  0
 16 46  1  0  0  0  0
 21 47  1  0  0  0  0
 22 48  1  0  0  0  0
 24 49  1  0  0  0  0
 27 50  1  0  0  0  0
 28 51  1  0  0  0  0
 30 52  1  0  0  0  0
 31 53  1  0  0  0  0
 33 54  1  0  0  0  0
 34 55  1  0  0  0  0
 56 57  4  0  0  0  0
 57 58  4  0  0  0  0
 58 59  2  0  0  0  0
 59 60  4  0  0  0  0
 57 61  4  0  0  0  0
 60 61  4  0  0  0  0
 60 62  4  0  0  0  0
 62 63  1  0  0  0  0
 63 64  4  0  0  0  0
 64 65  4  0  0  0  0
 65 66  4  0  0  0  0
 66 67  4  0  0  0  0
 63 68  4  0  0  0  0
 67 68  4  0  0  0  0
 62 69  4  0  0  0  0
 69 70  1  0  0  0  0
 70 71  2  0  0  0  0
 69 72  4  0  0  0  0
 71 73  1  0  0  0  0
 72 73  4  0  0  0  0
 73 74  4  0  0  0  0
 74 75  4  0  0  0  0
 75 76  4  0  0  0  0
 76 77  2  0  0  0  0
 77 78  4  0  0  0  0
 75 79  4  0  0  0  0
 78 79  4  0  0  0  0
 78 80  4  0  0  0  0
 80 81  1  0  0  0  0
 81 82  4  0  0  0  0
 82 83  4  0  0  0  0
 83 84  4  0  0  0  0
 84 85  4  0  0  0  0
 81 86  4  0  0  0  0
 85 86  4  0  0  0  0
 80 87  4  0  0  0  0
 87 88  1  0  0  0  0
 88 89  2  0  0  0  0
 56 90  4  0  0  0  0
 89 90  1  0  0  0  0
 87 91  4  0  0  0  0
 90 91  4  0  0  0  0
 56 92  1  0  0  0  0
 58 93  1  0  0  0  0
 59 94  1  0  0  0  0
 61 95  1  0  0  0  0
 64 96  1  0  0  0  0
 65 97  1  0  0  0  0
 67 98  1  0  0  0  0
 68 99  1  0  0  0  0
 70100  1  0  0  0  0
 71101  1  0  0  0  0
 76102  1  0  0  0  0
 77103  1  0  0  0  0
 79104  1  0  0  0  0
 82105  1  0  0  0  0
 83106  1  0  0  0  0
 85107  1  0  0  0  0
 86108  1  0  0  0  0
 88109  1  0  0  0  0
 89110  1  0  0  0  0
 19111  4  0  0  0  0
111112  3  0  0  0  0
113114  3  0  0  0  0
 74116  4  0  0  0  0
115116  3  0  0  0  0
112117  4  0  0  0  0
117118  4  0  0  0  0
118119  4  0  0  0  0
119120  2  0  0  0  0
120121  4  0  0  0  0
118122  4  0  0  0  0
121122  4  0  0  0  0
121123  4  0  0  0  0
123124  1  0  0  0  0
124125  4  0  0  0  0
125126  4  0  0  0  0
126127  4  0  0  0  0
127128  4  0  0  0  0
124129  4  0  0  0  0
128129  4  0  0  0  0
123130  4  0  0  0  0
130131  1  0  0  0  0
131132  2  0  0  0  0
130133  4  0  0  0  0
132134  1  0  0  0  0
133134  4  0  0  0  0
113135  4  0  0  0  0
134135  4  0  0  0  0
135136  4  0  0  0  0
136137  4  0  0  0  0
137138  2  0  0  0  0
138139  4  0  0  0  0
136140  4  0  0  0  0
139140  4  0  0  0  0
139141  4  0  0  0  0
141142  1  0  0  0  0
142143  4  0  0  0  0
143144  4  0  0  0  0
144145  4  0  0  0  0
145146  4  0  0  0  0
142147  4  0  0  0  0
146147  4  0  0  0  0
141148  4  0  0  0  0
148149  1  0  0  0  0
149150  2  0  0  0  0
117151  4  0  0  0  0
150151  1  0  0  0  0
148152  4  0  0  0  0
151152  4  0  0  0  0
119153  1  0  0  0  0
120154  1  0  0  0  0
122155  1  0  0  0  0
125156  1  0  0  0  0
126157  1  0  0  0  0
128158  1  0  0  0  0
129159  1  0  0  0  0
131160  1  0  0  0  0
132161  1  0  0  0  0
137162  1  0  0  0  0
138163  1  0  0  0  0
140164  1  0  0  0  0
143165  1  0  0  0  0
144166  1  0  0  0  0
146167  1  0  0  0  0
147168  1  0  0  0  0
149169  1  0  0  0  0
150170  1  0  0  0  0
114171  4  0  0  0  0
171172  4  0  0  0  0
172173  4  0  0  0  0
173174  2  0  0  0  0
174175  4  0  0  0  0
172176  4  0  0  0  0
175176  4  0  0  0  0
175177  4  0  0  0  0
177178  1  0  0  0  0
178179  4  0  0  0  0
179180  4  0  0  0  0
180181  4  0  0  0  0
181182  4  0  0  0  0
178183  4  0  0  0  0
182183  4  0  0  0  0
177184  4  0  0  0  0
184185  1  0  0  0  0
185186  2  0  0  0  0
184187  4  0  0  0  0
186188  1  0  0  0  0
187188  4  0  0  0  0
115189  4  0  0  0  0
188189  4  0  0  0  0
189190  4  0  0  0  0
190191  4  0  0  0  0
191192  2  0  0  0  0
192193  4  0  0  0  0
190194  4  0  0  0  0
193194  4  0  0  0  0
193195  4  0  0  0  0
195196  1  0  0  0  0
196197  4  0  0  0  0
197198  4  0  0  0  0
198199  4  0  0  0  0
199200  4  0  0  0  0
196201  4  0  0  0  0
200201  4  0  0  0  0
195202  4  0  0  0  0
202203  1  0  0  0  0
203204  2  0  0  0  0
171205  4  0  0  0  0
204205  1  0  0  0  0
202206  4  0  0  0  0
205206  4  0  0  0  0
173207  1  0  0  0  0
174208  1  0  0  0  0
176209  1  0  0  0  0
179210  1  0  0  0  0
180211  1  0  0  0  0
182212  1  0  0  0  0
183213  1  0  0  0  0
185214  1  0  0  0  0
186215  1  0  0  0  0
191216  1  0  0  0  0
192217  1  0  0  0  0
194218  1  0  0  0  0
197219  1  0  0  0  0
198220  1  0  0  0  0
200221  1  0  0  0  0
201222  1  0  0  0  0
203223  1  0  0  0  0
204224  1  0  0  0  0
M  END
