 xtb: 6.5.1 (b24c23e)
          07302201483D

118137  0     0  0            999 V2000
   16.8861   -0.0554   -0.0607 Co  0  0  0  0  0  0  0  0  0  0  0  0
   13.5268   -0.1065   -0.3701 C   0  0  0  0  0  0  0  0  0  0  0  0
   14.2134   -1.2940   -0.5021 C   0  0  0  0  0  0  0  0  0  0  0  0
   13.5764   -2.5569   -0.7208 C   0  0  0  0  0  0  0  0  0  0  0  0
   14.5244   -3.5057   -0.5378 C   0  0  0  0  0  0  0  0  0  0  0  0
   15.7458   -2.8205   -0.2311 C   0  0  0  0  0  0  0  0  0  0  0  0
   15.5541   -1.4627   -0.2585 N   0  0  0  0  0  0  0  0  0  0  0  0
   16.9138   -3.4519    0.1777 C   0  0  0  0  0  0  0  0  0  0  0  0
   16.9166   -4.9260    0.3404 C   0  0  0  0  0  0  0  0  0  0  0  0
   16.7389   -5.7636   -0.7604 C   0  0  0  0  0  0  0  0  0  0  0  0
   16.7365   -7.1416   -0.6071 C   0  0  0  0  0  0  0  0  0  0  0  0
   16.9069   -7.6965    0.6590 C   0  0  0  0  0  0  0  0  0  0  0  0
   16.9044   -9.0402    0.8550 O   0  0  0  0  0  0  0  0  0  0  0  0
   17.0868   -6.8697    1.7664 C   0  0  0  0  0  0  0  0  0  0  0  0
   17.0947   -5.4957    1.6029 C   0  0  0  0  0  0  0  0  0  0  0  0
   18.0820   -2.7464    0.4234 C   0  0  0  0  0  0  0  0  0  0  0  0
   19.3283   -3.3616    0.7687 C   0  0  0  0  0  0  0  0  0  0  0  0
   20.2784   -2.4004    0.6747 C   0  0  0  0  0  0  0  0  0  0  0  0
   18.2655   -1.4055    0.1685 N   0  0  0  0  0  0  0  0  0  0  0  0
   19.6116   -1.2012    0.2780 C   0  0  0  0  0  0  0  0  0  0  0  0
   20.2791   -0.0190   -0.0525 C   0  0  0  0  0  0  0  0  0  0  0  0
   19.5896    1.1610   -0.3385 C   0  0  0  0  0  0  0  0  0  0  0  0
   20.2337    2.3936   -0.6643 C   0  0  0  0  0  0  0  0  0  0  0  0
   19.2710    3.3472   -0.6654 C   0  0  0  0  0  0  0  0  0  0  0  0
   18.0398    2.6915   -0.3430 C   0  0  0  0  0  0  0  0  0  0  0  0
   18.2395    1.3367   -0.2099 N   0  0  0  0  0  0  0  0  0  0  0  0
   16.8391    3.3521   -0.1230 C   0  0  0  0  0  0  0  0  0  0  0  0
   16.8249    4.8319   -0.1264 C   0  0  0  0  0  0  0  0  0  0  0  0
   17.6258    5.5523    0.7639 C   0  0  0  0  0  0  0  0  0  0  0  0
   17.6195    6.9355    0.7631 C   0  0  0  0  0  0  0  0  0  0  0  0
   16.8127    7.6229   -0.1423 C   0  0  0  0  0  0  0  0  0  0  0  0
   16.8350    8.9801   -0.1204 O   0  0  0  0  0  0  0  0  0  0  0  0
   16.0128    6.9186   -1.0393 C   0  0  0  0  0  0  0  0  0  0  0  0
   16.0194    5.5327   -1.0253 C   0  0  0  0  0  0  0  0  0  0  0  0
   15.6494    2.6599    0.0651 C   0  0  0  0  0  0  0  0  0  0  0  0
   14.3781    3.2842    0.2873 C   0  0  0  0  0  0  0  0  0  0  0  0
   13.4405    2.3130    0.1782 C   0  0  0  0  0  0  0  0  0  0  0  0
   14.1420    1.0930   -0.0791 C   0  0  0  0  0  0  0  0  0  0  0  0
   15.4968    1.3054   -0.0907 N   0  0  0  0  0  0  0  0  0  0  0  0
   12.4474   -0.1225   -0.4649 H   0  0  0  0  0  0  0  0  0  0  0  0
   12.5304   -2.6819   -0.9516 H   0  0  0  0  0  0  0  0  0  0  0  0
   14.4143   -4.5769   -0.5859 H   0  0  0  0  0  0  0  0  0  0  0  0
   16.6189   -5.3331   -1.7482 H   0  0  0  0  0  0  0  0  0  0  0  0
   16.6033   -7.7892   -1.4671 H   0  0  0  0  0  0  0  0  0  0  0  0
   16.7710   -9.5173    0.0251 H   0  0  0  0  0  0  0  0  0  0  0  0
   17.2165   -7.3151    2.7450 H   0  0  0  0  0  0  0  0  0  0  0  0
   17.2231   -4.8516    2.4655 H   0  0  0  0  0  0  0  0  0  0  0  0
   19.4531   -4.4015    1.0228 H   0  0  0  0  0  0  0  0  0  0  0  0
   21.3390   -2.4830    0.8487 H   0  0  0  0  0  0  0  0  0  0  0  0
   21.2887    2.5019   -0.8575 H   0  0  0  0  0  0  0  0  0  0  0  0
   19.3738    4.4003   -0.8707 H   0  0  0  0  0  0  0  0  0  0  0  0
   18.2450    5.0180    1.4758 H   0  0  0  0  0  0  0  0  0  0  0  0
   18.2334    7.4962    1.4571 H   0  0  0  0  0  0  0  0  0  0  0  0
   16.2414    9.3533   -0.7858 H   0  0  0  0  0  0  0  0  0  0  0  0
   15.3911    7.4574   -1.7464 H   0  0  0  0  0  0  0  0  0  0  0  0
   15.4089    4.9867   -1.7358 H   0  0  0  0  0  0  0  0  0  0  0  0
   14.2342    4.3323    0.4943 H   0  0  0  0  0  0  0  0  0  0  0  0
   12.3687    2.3950    0.2659 H   0  0  0  0  0  0  0  0  0  0  0  0
   27.7017    0.0461   -0.0680 Co  0  0  0  0  0  0  0  0  0  0  0  0
   31.0609    0.0523   -0.3816 C   0  0  0  0  0  0  0  0  0  0  0  0
   30.3743    1.2086   -0.6826 C   0  0  0  0  0  0  0  0  0  0  0  0
   31.0113    2.4271   -1.0802 C   0  0  0  0  0  0  0  0  0  0  0  0
   30.0633    3.3923   -1.0352 C   0  0  0  0  0  0  0  0  0  0  0  0
   28.8419    2.7581   -0.6334 C   0  0  0  0  0  0  0  0  0  0  0  0
   29.0336    1.4105   -0.4656 N   0  0  0  0  0  0  0  0  0  0  0  0
   27.6739    3.4417   -0.3194 C   0  0  0  0  0  0  0  0  0  0  0  0
   27.6712    4.9239   -0.3699 C   0  0  0  0  0  0  0  0  0  0  0  0
   27.8488    5.5949   -1.5794 C   0  0  0  0  0  0  0  0  0  0  0  0
   27.8512    6.9806   -1.6254 C   0  0  0  0  0  0  0  0  0  0  0  0
   27.6808    7.7114   -0.4521 C   0  0  0  0  0  0  0  0  0  0  0  0
   27.6833    9.0693   -0.4508 O   0  0  0  0  0  0  0  0  0  0  0  0
   27.5009    7.0520    0.7625 C   0  0  0  0  0  0  0  0  0  0  0  0
   27.4930    5.6688    0.7978 C   0  0  0  0  0  0  0  0  0  0  0  0
   26.5058    2.7787    0.0249 C   0  0  0  0  0  0  0  0  0  0  0  0
   25.2594    3.4371    0.2784 C   0  0  0  0  0  0  0  0  0  0  0  0
   24.3094    2.4724    0.3233 C   0  0  0  0  0  0  0  0  0  0  0  0
   26.3223    1.4152   -0.0349 N   0  0  0  0  0  0  0  0  0  0  0  0
   24.9761    1.2287    0.1028 C   0  0  0  0  0  0  0  0  0  0  0  0
   24.3086    0.0112   -0.0547 C   0  0  0  0  0  0  0  0  0  0  0  0
   24.9981   -1.1976   -0.1684 C   0  0  0  0  0  0  0  0  0  0  0  0
   24.3540   -2.4642   -0.3140 C   0  0  0  0  0  0  0  0  0  0  0  0
   25.3168   -3.4080   -0.1782 C   0  0  0  0  0  0  0  0  0  0  0  0
   26.5479   -2.7129    0.0467 C   0  0  0  0  0  0  0  0  0  0  0  0
   26.3482   -1.3530   -0.0160 N   0  0  0  0  0  0  0  0  0  0  0  0
   27.7486   -3.3351    0.3592 C   0  0  0  0  0  0  0  0  0  0  0  0
   27.7628   -4.8001    0.5681 C   0  0  0  0  0  0  0  0  0  0  0  0
   26.9619   -5.3852    1.5526 C   0  0  0  0  0  0  0  0  0  0  0  0
   26.9683   -6.7543    1.7503 C   0  0  0  0  0  0  0  0  0  0  0  0
   27.7750   -7.5644    0.9528 C   0  0  0  0  0  0  0  0  0  0  0  0
   27.7527   -8.9045    1.1692 O   0  0  0  0  0  0  0  0  0  0  0  0
   28.5750   -6.9962   -0.0359 C   0  0  0  0  0  0  0  0  0  0  0  0
   28.5683   -5.6226   -0.2209 C   0  0  0  0  0  0  0  0  0  0  0  0
   28.9384   -2.6230    0.4460 C   0  0  0  0  0  0  0  0  0  0  0  0
   30.2096   -3.2090    0.7555 C   0  0  0  0  0  0  0  0  0  0  0  0
   31.1473   -2.2635    0.5082 C   0  0  0  0  0  0  0  0  0  0  0  0
   30.4458   -1.0930    0.0785 C   0  0  0  0  0  0  0  0  0  0  0  0
   29.0910   -1.3049    0.0976 N   0  0  0  0  0  0  0  0  0  0  0  0
   32.1403    0.0546   -0.4776 H   0  0  0  0  0  0  0  0  0  0  0  0
   32.0574    2.5176   -1.3265 H   0  0  0  0  0  0  0  0  0  0  0  0
   30.1734    4.4455   -1.2366 H   0  0  0  0  0  0  0  0  0  0  0  0
   27.9689    5.0271   -2.4953 H   0  0  0  0  0  0  0  0  0  0  0  0
   27.9844    7.4982   -2.5694 H   0  0  0  0  0  0  0  0  0  0  0  0
   27.8168    9.4225   -1.3407 H   0  0  0  0  0  0  0  0  0  0  0  0
   27.3712    7.6333    1.6671 H   0  0  0  0  0  0  0  0  0  0  0  0
   27.3646    5.1551    1.7440 H   0  0  0  0  0  0  0  0  0  0  0  0
   25.1346    4.5027    0.3807 H   0  0  0  0  0  0  0  0  0  0  0  0
   23.2487    2.5791    0.4837 H   0  0  0  0  0  0  0  0  0  0  0  0
   23.2990   -2.5990   -0.4896 H   0  0  0  0  0  0  0  0  0  0  0  0
   25.2140   -4.4797   -0.2303 H   0  0  0  0  0  0  0  0  0  0  0  0
   26.3427   -4.7544    2.1805 H   0  0  0  0  0  0  0  0  0  0  0  0
   26.3544   -7.2095    2.5175 H   0  0  0  0  0  0  0  0  0  0  0  0
   28.3464   -9.3693    0.5643 H   0  0  0  0  0  0  0  0  0  0  0  0
   29.1966   -7.6308   -0.6584 H   0  0  0  0  0  0  0  0  0  0  0  0
   29.1789   -5.1841   -1.0024 H   0  0  0  0  0  0  0  0  0  0  0  0
   30.3536   -4.2166    1.1108 H   0  0  0  0  0  0  0  0  0  0  0  0
   32.2191   -2.3321    0.6067 H   0  0  0  0  0  0  0  0  0  0  0  0
   21.6854   -0.0091   -0.0627 C   0  0  0  0  0  0  0  0  0  0  0  0
   22.9023   -0.0000   -0.0633 C   0  0  0  0  0  0  0  0  0  0  0  0
  2  3  4  0  0  0  0
  3  4  1  0  0  0  0
  4  5  2  0  0  0  0
  5  6  4  0  0  0  0
  1  7  1  0  0  0  0
  3  7  4  0  0  0  0
  6  7  4  0  0  0  0
  6  8  4  0  0  0  0
  8  9  1  0  0  0  0
  9 10  4  0  0  0  0
 10 11  4  0  0  0  0
 11 12  4  0  0  0  0
 12 13  1  0  0  0  0
 12 14  4  0  0  0  0
  9 15  4  0  0  0  0
 14 15  4  0  0  0  0
  8 16  4  0  0  0  0
 16 17  4  0  0  0  0
 17 18  2  0  0  0  0
  1 19  1  0  0  0  0
 16 19  4  0  0  0  0
 18 20  4  0  0  0  0
 19 20  4  0  0  0  0
 20 21  4  0  0  0  0
 21 22  4  0  0  0  0
 22 23  4  0  0  0  0
 23 24  2  0  0  0  0
 24 25  4  0  0  0  0
  1 26  1  0  0  0  0
 22 26  4  0  0  0  0
 25 26  4  0  0  0  0
 25 27  4  0  0  0  0
 27 28  1  0  0  0  0
 28 29  4  0  0  0  0
 29 30  4  0  0  0  0
 30 31  4  0  0  0  0
 31 32  1  0  0  0  0
 31 33  4  0  0  0  0
 28 34  4  0  0  0  0
 33 34  4  0  0  0  0
 27 35  4  0  0  0  0
 35 36  4  0  0  0  0
 36 37  2  0  0  0  0
  2 38  4  0  0  0  0
 37 38  4  0  0  0  0
  1 39  1  0  0  0  0
 35 39  4  0  0  0  0
 38 39  4  0  0  0  0
  2 40  1  0  0  0  0
  4 41  1  0  0  0  0
  5 42  1  0  0  0  0
 10 43  1  0  0  0  0
 11 44  1  0  0  0  0
 13 45  1  0  0  0  0
 14 46  1  0  0  0  0
 15 47  1  0  0  0  0
 17 48  1  0  0  0  0
 18 49  1  0  0  0  0
 23 50  1  0  0  0  0
 24 51  1  0  0  0  0
 29 52  1  0  0  0  0
 30 53  1  0  0  0  0
 32 54  1  0  0  0  0
 33 55  1  0  0  0  0
 34 56  1  0  0  0  0
 36 57  1  0  0  0  0
 37 58  1  0  0  0  0
 60 61  4  0  0  0  0
 61 62  1  0  0  0  0
 62 63  2  0  0  0  0
 63 64  4  0  0  0  0
 59 65  1  0  0  0  0
 61 65  4  0  0  0  0
 64 65  4  0  0  0  0
 64 66  4  0  0  0  0
 66 67  1  0  0  0  0
 67 68  4  0  0  0  0
 68 69  4  0  0  0  0
 69 70  4  0  0  0  0
 70 71  1  0  0  0  0
 70 72  4  0  0  0  0
 67 73  4  0  0  0  0
 72 73  4  0  0  0  0
 66 74  4  0  0  0  0
 74 75  4  0  0  0  0
 75 76  2  0  0  0  0
 59 77  1  0  0  0  0
 74 77  4  0  0  0  0
 76 78  4  0  0  0  0
 77 78  4  0  0  0  0
 78 79  4  0  0  0  0
 79 80  4  0  0  0  0
 80 81  4  0  0  0  0
 81 82  2  0  0  0  0
 82 83  4  0  0  0  0
 59 84  1  0  0  0  0
 80 84  4  0  0  0  0
 83 84  4  0  0  0  0
 83 85  4  0  0  0  0
 85 86  1  0  0  0  0
 86 87  4  0  0  0  0
 87 88  4  0  0  0  0
 88 89  4  0  0  0  0
 89 90  1  0  0  0  0
 89 91  4  0  0  0  0
 86 92  4  0  0  0  0
 91 92  4  0  0  0  0
 85 93  4  0  0  0  0
 93 94  4  0  0  0  0
 94 95  2  0  0  0  0
 60 96  4  0  0  0  0
 95 96  4  0  0  0  0
 59 97  1  0  0  0  0
 93 97  4  0  0  0  0
 96 97  4  0  0  0  0
 60 98  1  0  0  0  0
 62 99  1  0  0  0  0
 63100  1  0  0  0  0
 68101  1  0  0  0  0
 69102  1  0  0  0  0
 71103  1  0  0  0  0
 72104  1  0  0  0  0
 73105  1  0  0  0  0
 75106  1  0  0  0  0
 76107  1  0  0  0  0
 81108  1  0  0  0  0
 82109  1  0  0  0  0
 87110  1  0  0  0  0
 88111  1  0  0  0  0
 90112  1  0  0  0  0
 91113  1  0  0  0  0
 92114  1  0  0  0  0
 94115  1  0  0  0  0
 95116  1  0  0  0  0
 21117  1  0  0  0  0
 79118  1  0  0  0  0
117118  3  0  0  0  0
M  END
