504

C 60.166258 -0.016286 -0.015378
C 60.894214 1.359321 0.080598
C 60.286459 2.593847 0.062148
C 61.308818 3.562879 0.234387
C 62.506029 2.885202 0.360333
N 62.246756 1.545882 0.210971
C 63.927586 3.521815 0.652308
C 63.964360 4.936331 1.084850
C 64.251735 5.948106 0.170195
C 64.263278 7.255590 0.623913
N 64.009226 7.620091 1.902798
C 63.735022 6.611580 2.763814
C 63.699606 5.273808 2.410539
C 65.058796 2.773335 0.553295
C 66.363136 3.310467 0.884002
C 67.266002 2.351070 0.718160
N 65.255652 1.469800 0.182099
C 66.587326 1.154501 0.261260
C 67.255249 -0.000319 -0.001453
C 66.475785 -1.278837 -0.525578
C 67.010336 -2.311866 -1.270244
C 65.984870 -3.269353 -1.470789
C 64.850665 -2.789123 -0.851475
N 65.144437 -1.552564 -0.327244
C 63.444761 -3.517945 -0.774122
C 63.420250 -4.988590 -0.918422
C 63.816868 -5.803669 0.139366
C 63.791580 -7.175179 -0.046550
N 63.407260 -7.781903 -1.194508
C 63.029324 -6.959927 -2.201434
C 63.020311 -5.578497 -2.116605
C 62.318351 -2.790470 -0.558809
C 60.999138 -3.390203 -0.459844
C 60.112710 -2.418912 -0.262289
C 60.831477 -1.169475 -0.214485
N 62.151551 -1.444761 -0.388687
H 59.089550 -0.030355 0.104583
H 59.228209 2.775720 -0.045674
H 61.179960 4.633521 0.286460
H 62.947010 0.808288 0.202200
H 64.463963 5.705077 -0.865384
H 64.485744 8.071664 -0.055685
H 63.536112 6.915514 3.786291
H 63.475108 4.501118 3.137897
H 66.576737 4.309095 1.221048
H 68.319619 2.466522 0.895846
H 68.028879 -2.378837 -1.621426
H 66.067411 -4.205520 -2.002174
H 64.464727 -0.921313 0.088956
H 64.134137 -5.365796 1.079628
H 64.091801 -7.843758 0.753644
H 62.721435 -7.456936 -3.115468
H 62.707683 -4.961204 -2.952061
H 60.770360 -4.438332 -0.529344
H 59.050649 -2.537756 -0.146341
C 219.583435 0.020253 -0.006519
C 218.855480 -1.246549 -0.551237
C 219.463234 -2.335529 -1.133058
C 218.440876 -3.275836 -1.423769
C 217.243665 -2.731100 -1.001429
N 217.502938 -1.472105 -0.520788
C 215.822107 -3.430743 -1.033451
C 215.785334 -4.886283 -1.296800
C 215.497959 -5.366782 -2.573280
C 215.486416 -6.736874 -2.768784
N 215.740468 -7.646634 -1.798863
C 216.014672 -7.144470 -0.571560
C 216.050088 -5.793456 -0.272896
C 214.690898 -2.720034 -0.778661
C 213.386558 -3.348982 -0.730688
C 212.483692 -2.420170 -0.438703
N 214.494042 -1.391247 -0.511608
C 213.162368 -1.147219 -0.296829
C 212.494445 -0.000319 -0.001453
C 213.273909 1.376271 0.118196
C 212.739358 2.635643 -0.070641
C 213.764824 3.578651 0.189619
C 214.899029 2.868102 0.520209
N 214.605257 1.528763 0.419873
C 216.304933 3.480559 0.922777
C 216.329444 4.853977 1.468066
C 215.932825 5.094068 2.781697
C 215.958114 6.398421 3.244587
N 216.342434 7.463540 2.501993
C 216.720369 7.194024 1.230417
C 216.729383 5.927150 0.673123
C 217.431342 2.735256 0.780991
C 218.750556 3.223062 1.143648
C 219.636984 2.269152 0.874407
C 218.918217 1.136571 0.344652
N 217.598143 1.461072 0.315878
H 220.660144 -0.022183 0.106564
H 220.521485 -2.447823 -1.312206
H 218.569734 -4.251432 -1.867839
H 216.802684 -0.812403 -0.190763
H 215.285730 -4.676440 -3.382549
H 215.263950 -7.151063 -3.746679
H 216.213582 -7.882952 0.198166
H 216.274586 -5.439708 0.727585
H 213.172957 -4.391081 -0.888448
H 211.430075 -2.604183 -0.333628
H 211.720815 2.856020 -0.352151
H 213.682282 4.654233 0.146015
H 215.284967 0.776990 0.500737
H 215.615557 4.274176 3.416994
H 215.657893 6.626261 4.262131
H 217.028259 8.054472 0.645521
H 217.042011 5.761052 -0.352279
H 218.979334 4.186626 1.561915
H 220.699044 2.321694 1.031910
C 70.270228 -0.004626 0.004129
C 71.635216 -0.018302 -0.009687
C 73.399191 -0.006116 -0.016530
C 74.056708 -0.009450 -0.026671
C 75.636342 0.005036 -0.034853
C 76.746656 0.004976 -0.025567
C 78.329875 0.028987 -0.001026
C 79.473955 0.032469 0.012573
C 80.816198 0.017319 0.015676
C 81.936905 -0.004626 0.004129
C 91.507554 -0.004626 0.004129
C 92.872542 -0.018302 -0.009687
C 94.636517 -0.006116 -0.016530
C 95.294035 -0.009450 -0.026671
C 96.873668 0.005036 -0.034853
C 97.983982 0.004976 -0.025567
C 99.567201 0.028987 -0.001026
C 100.711281 0.032469 0.012573
C 102.053524 0.017319 0.015676
C 103.174231 -0.004626 0.004129
C 112.744881 -0.004626 0.004129
C 114.109868 -0.018302 -0.009687
C 115.873844 -0.006116 -0.016530
C 116.531361 -0.009450 -0.026671
C 118.110995 0.005036 -0.034853
C 119.221309 0.004976 -0.025567
C 120.804528 0.028987 -0.001026
C 121.948608 0.032469 0.012573
C 123.290851 0.017319 0.015676
C 124.411558 -0.004626 0.004129
C 133.982207 -0.004626 0.004129
C 135.347195 -0.018302 -0.009687
C 137.111170 -0.006116 -0.016530
C 137.768688 -0.009450 -0.026671
C 139.348321 0.005036 -0.034853
C 140.458635 0.004976 -0.025567
C 142.041854 0.028987 -0.001026
C 143.185934 0.032469 0.012573
C 144.528177 0.017319 0.015676
C 145.648884 -0.004626 0.004129
C 155.219533 -0.004626 0.004129
C 156.584521 -0.018302 -0.009687
C 158.348497 -0.006116 -0.016530
C 159.006014 -0.009450 -0.026671
C 160.585648 0.005036 -0.034853
C 161.695961 0.004976 -0.025567
C 163.279181 0.028987 -0.001026
C 164.423260 0.032469 0.012573
C 165.765504 0.017319 0.015676
C 166.886211 -0.004626 0.004129
C 176.456860 -0.004626 0.004129
C 177.821848 -0.018302 -0.009687
C 179.585823 -0.006116 -0.016530
C 180.243341 -0.009450 -0.026671
C 181.822974 0.005036 -0.034853
C 182.933288 0.004976 -0.025567
C 184.516507 0.028987 -0.001026
C 185.660587 0.032469 0.012573
C 187.002830 0.017319 0.015676
C 188.123537 -0.004626 0.004129
C 197.694186 -0.004626 0.004129
C 199.059174 -0.018302 -0.009687
C 200.823150 -0.006116 -0.016530
C 201.480667 -0.009450 -0.026671
C 203.060301 0.005036 -0.034853
C 204.170614 0.004976 -0.025567
C 205.753833 0.028987 -0.001026
C 206.897913 0.032469 0.012573
C 208.240157 0.017319 0.015676
C 209.360864 -0.004626 0.004129
C 83.201766 0.001108 -0.000399
C 83.997547 -1.244391 0.570713
C 83.497152 -2.239749 1.383232
C 84.535353 -3.185593 1.583976
C 85.638837 -2.734889 0.890398
N 85.323611 -1.517325 0.343087
C 87.027408 -3.480392 0.744413
C 87.020053 -4.957066 0.822514
C 87.437704 -5.607954 1.982660
C 87.396410 -6.991354 2.008590
N 86.971897 -7.759637 0.977990
C 86.572515 -7.094722 -0.131931
C 86.575841 -5.715907 -0.257830
C 88.162994 -2.771097 0.515185
C 89.450010 -3.407182 0.321287
C 90.358594 -2.459347 0.117302
N 88.371210 -1.424993 0.403506
C 89.696361 -1.171984 0.170167
C 90.360073 0.001108 -0.000399
C 89.562953 1.367586 0.068613
C 90.055954 2.590957 0.472206
C 89.018117 3.542983 0.302633
C 87.922044 2.868675 -0.192180
N 88.240450 1.535635 -0.258826
C 86.536861 3.505655 -0.612276
C 86.548622 4.899210 -1.105565
C 86.152689 5.948452 -0.278358
C 86.195637 7.234934 -0.786819
N 86.601608 7.544984 -2.039923
C 86.980491 6.501845 -2.815281
C 86.974426 5.180979 -2.401626
C 85.400183 2.764088 -0.556834
C 84.114017 3.282642 -0.974939
C 83.204752 2.328345 -0.808747
C 83.865878 1.153396 -0.278021
N 85.190478 1.475079 -0.153910
H 82.493746 -2.292010 1.773050
H 84.478053 -4.099130 2.153430
H 85.982504 -0.892429 -0.114346
H 87.787472 -5.035396 2.835331
H 87.713957 -7.534323 2.892011
H 86.235243 -7.721008 -0.951736
H 86.244816 -5.230797 -1.169261
H 89.647197 -4.464432 0.328647
H 91.403600 -2.637615 -0.059063
H 91.055641 2.782993 0.829847
H 89.070872 4.602571 0.502147
H 87.586435 0.786547 -0.466014
H 85.817884 5.749969 0.733905
H 85.893551 8.078675 -0.175353
H 87.302559 6.762199 -3.817744
H 87.288628 4.379930 -3.061782
H 83.917776 4.266468 -1.362636
H 82.159666 2.429103 -1.038007
C 104.439092 0.001108 -0.000399
C 105.234873 -1.244391 0.570713
C 104.734479 -2.239749 1.383232
C 105.772680 -3.185593 1.583976
C 106.876164 -2.734889 0.890398
N 106.560938 -1.517325 0.343087
C 108.264735 -3.480392 0.744413
C 108.257379 -4.957066 0.822514
C 108.675031 -5.607954 1.982660
C 108.633737 -6.991354 2.008590
N 108.209224 -7.759637 0.977990
C 107.809842 -7.094722 -0.131931
C 107.813167 -5.715907 -0.257830
C 109.400320 -2.771097 0.515185
C 110.687336 -3.407182 0.321287
C 111.595920 -2.459347 0.117302
N 109.608537 -1.424993 0.403506
C 110.933687 -1.171984 0.170167
C 111.597400 0.001108 -0.000399
C 110.800280 1.367586 0.068613
C 111.293281 2.590957 0.472206
C 110.255443 3.542983 0.302633
C 109.159371 2.868675 -0.192180
N 109.477776 1.535635 -0.258826
C 107.774188 3.505655 -0.612276
C 107.785949 4.899210 -1.105565
C 107.390015 5.948452 -0.278358
C 107.432964 7.234934 -0.786819
N 107.838934 7.544984 -2.039923
C 108.217818 6.501845 -2.815281
C 108.211752 5.180979 -2.401626
C 106.637509 2.764088 -0.556834
C 105.351344 3.282642 -0.974939
C 104.442078 2.328345 -0.808747
C 105.103204 1.153396 -0.278021
N 106.427805 1.475079 -0.153910
H 103.731073 -2.292010 1.773050
H 105.715380 -4.099130 2.153430
H 107.219830 -0.892429 -0.114346
H 109.024799 -5.035396 2.835331
H 108.951283 -7.534323 2.892011
H 107.472569 -7.721008 -0.951736
H 107.482142 -5.230797 -1.169261
H 110.884524 -4.464432 0.328647
H 112.640926 -2.637615 -0.059063
H 112.292967 2.782993 0.829847
H 110.308198 4.602571 0.502147
H 108.823762 0.786547 -0.466014
H 107.055211 5.749969 0.733905
H 107.130878 8.078675 -0.175353
H 108.539885 6.762199 -3.817744
H 108.525955 4.379930 -3.061782
H 105.155102 4.266468 -1.362636
H 103.396992 2.429103 -1.038007
C 125.676419 0.001108 -0.000399
C 126.472199 -1.244391 0.570713
C 125.971805 -2.239749 1.383232
C 127.010006 -3.185593 1.583976
C 128.113490 -2.734889 0.890398
N 127.798264 -1.517325 0.343087
C 129.502061 -3.480392 0.744413
C 129.494705 -4.957066 0.822514
C 129.912357 -5.607954 1.982660
C 129.871063 -6.991354 2.008590
N 129.446550 -7.759637 0.977990
C 129.047168 -7.094722 -0.131931
C 129.050494 -5.715907 -0.257830
C 130.637647 -2.771097 0.515185
C 131.924663 -3.407182 0.321287
C 132.833246 -2.459347 0.117302
N 130.845863 -1.424993 0.403506
C 132.171014 -1.171984 0.170167
C 132.834726 0.001108 -0.000399
C 132.037606 1.367586 0.068613
C 132.530607 2.590957 0.472206
C 131.492770 3.542983 0.302633
C 130.396697 2.868675 -0.192180
N 130.715103 1.535635 -0.258826
C 129.011514 3.505655 -0.612276
C 129.023275 4.899210 -1.105565
C 128.627342 5.948452 -0.278358
C 128.670290 7.234934 -0.786819
N 129.076261 7.544984 -2.039923
C 129.455144 6.501845 -2.815281
C 129.449079 5.180979 -2.401626
C 127.874836 2.764088 -0.556834
C 126.588670 3.282642 -0.974939
C 125.679404 2.328345 -0.808747
C 126.340531 1.153396 -0.278021
N 127.665131 1.475079 -0.153910
H 124.968399 -2.292010 1.773050
H 126.952706 -4.099130 2.153430
H 128.457157 -0.892429 -0.114346
H 130.262125 -5.035396 2.835331
H 130.188609 -7.534323 2.892011
H 128.709896 -7.721008 -0.951736
H 128.719469 -5.230797 -1.169261
H 132.121850 -4.464432 0.328647
H 133.878252 -2.637615 -0.059063
H 133.530294 2.782993 0.829847
H 131.545525 4.602571 0.502147
H 130.061088 0.786547 -0.466014
H 128.292537 5.749969 0.733905
H 128.368204 8.078675 -0.175353
H 129.777211 6.762199 -3.817744
H 129.763281 4.379930 -3.061782
H 126.392429 4.266468 -1.362636
H 124.634319 2.429103 -1.038007
C 146.913745 0.001108 -0.000399
C 147.709526 -1.244391 0.570713
C 147.209131 -2.239749 1.383232
C 148.247333 -3.185593 1.583976
C 149.350817 -2.734889 0.890398
N 149.035591 -1.517325 0.343087
C 150.739388 -3.480392 0.744413
C 150.732032 -4.957066 0.822514
C 151.149684 -5.607954 1.982660
C 151.108389 -6.991354 2.008590
N 150.683877 -7.759637 0.977990
C 150.284495 -7.094722 -0.131931
C 150.287820 -5.715907 -0.257830
C 151.874973 -2.771097 0.515185
C 153.161989 -3.407182 0.321287
C 154.070573 -2.459347 0.117302
N 152.083190 -1.424993 0.403506
C 153.408340 -1.171984 0.170167
C 154.072053 0.001108 -0.000399
C 153.274933 1.367586 0.068613
C 153.767934 2.590957 0.472206
C 152.730096 3.542983 0.302633
C 151.634024 2.868675 -0.192180
N 151.952429 1.535635 -0.258826
C 150.248840 3.505655 -0.612276
C 150.260602 4.899210 -1.105565
C 149.864668 5.948452 -0.278358
C 149.907617 7.234934 -0.786819
N 150.313587 7.544984 -2.039923
C 150.692471 6.501845 -2.815281
C 150.686405 5.180979 -2.401626
C 149.112162 2.764088 -0.556834
C 147.825996 3.282642 -0.974939
C 146.916731 2.328345 -0.808747
C 147.577857 1.153396 -0.278021
N 148.902458 1.475079 -0.153910
H 146.205726 -2.292010 1.773050
H 148.190033 -4.099130 2.153430
H 149.694483 -0.892429 -0.114346
H 151.499452 -5.035396 2.835331
H 151.425936 -7.534323 2.892011
H 149.947222 -7.721008 -0.951736
H 149.956795 -5.230797 -1.169261
H 153.359177 -4.464432 0.328647
H 155.115579 -2.637615 -0.059063
H 154.767620 2.782993 0.829847
H 152.782851 4.602571 0.502147
H 151.298414 0.786547 -0.466014
H 149.529863 5.749969 0.733905
H 149.605531 8.078675 -0.175353
H 151.014538 6.762199 -3.817744
H 151.000608 4.379930 -3.061782
H 147.629755 4.266468 -1.362636
H 145.871645 2.429103 -1.038007
C 168.151072 0.001108 -0.000399
C 168.946852 -1.244391 0.570713
C 168.446458 -2.239749 1.383232
C 169.484659 -3.185593 1.583976
C 170.588143 -2.734889 0.890398
N 170.272917 -1.517325 0.343087
C 171.976714 -3.480392 0.744413
C 171.969358 -4.957066 0.822514
C 172.387010 -5.607954 1.982660
C 172.345716 -6.991354 2.008590
N 171.921203 -7.759637 0.977990
C 171.521821 -7.094722 -0.131931
C 171.525147 -5.715907 -0.257830
C 173.112299 -2.771097 0.515185
C 174.399315 -3.407182 0.321287
C 175.307899 -2.459347 0.117302
N 173.320516 -1.424993 0.403506
C 174.645666 -1.171984 0.170167
C 175.309379 0.001108 -0.000399
C 174.512259 1.367586 0.068613
C 175.005260 2.590957 0.472206
C 173.967422 3.542983 0.302633
C 172.871350 2.868675 -0.192180
N 173.189756 1.535635 -0.258826
C 171.486167 3.505655 -0.612276
C 171.497928 4.899210 -1.105565
C 171.101994 5.948452 -0.278358
C 171.144943 7.234934 -0.786819
N 171.550914 7.544984 -2.039923
C 171.929797 6.501845 -2.815281
C 171.923732 5.180979 -2.401626
C 170.349489 2.764088 -0.556834
C 169.063323 3.282642 -0.974939
C 168.154057 2.328345 -0.808747
C 168.815184 1.153396 -0.278021
N 170.139784 1.475079 -0.153910
H 167.443052 -2.292010 1.773050
H 169.427359 -4.099130 2.153430
H 170.931810 -0.892429 -0.114346
H 172.736778 -5.035396 2.835331
H 172.663262 -7.534323 2.892011
H 171.184549 -7.721008 -0.951736
H 171.194122 -5.230797 -1.169261
H 174.596503 -4.464432 0.328647
H 176.352905 -2.637615 -0.059063
H 176.004947 2.782993 0.829847
H 174.020178 4.602571 0.502147
H 172.535741 0.786547 -0.466014
H 170.767190 5.749969 0.733905
H 170.842857 8.078675 -0.175353
H 172.251864 6.762199 -3.817744
H 172.237934 4.379930 -3.061782
H 168.867082 4.266468 -1.362636
H 167.108971 2.429103 -1.038007
C 189.388398 0.001108 -0.000399
C 190.184179 -1.244391 0.570713
C 189.683784 -2.239749 1.383232
C 190.721986 -3.185593 1.583976
C 191.825470 -2.734889 0.890398
N 191.510244 -1.517325 0.343087
C 193.214041 -3.480392 0.744413
C 193.206685 -4.957066 0.822514
C 193.624337 -5.607954 1.982660
C 193.583042 -6.991354 2.008590
N 193.158530 -7.759637 0.977990
C 192.759148 -7.094722 -0.131931
C 192.762473 -5.715907 -0.257830
C 194.349626 -2.771097 0.515185
C 195.636642 -3.407182 0.321287
C 196.545226 -2.459347 0.117302
N 194.557843 -1.424993 0.403506
C 195.882993 -1.171984 0.170167
C 196.546705 0.001108 -0.000399
C 195.749586 1.367586 0.068613
C 196.242586 2.590957 0.472206
C 195.204749 3.542983 0.302633
C 194.108677 2.868675 -0.192180
N 194.427082 1.535635 -0.258826
C 192.723493 3.505655 -0.612276
C 192.735254 4.899210 -1.105565
C 192.339321 5.948452 -0.278358
C 192.382270 7.234934 -0.786819
N 192.788240 7.544984 -2.039923
C 193.167124 6.501845 -2.815281
C 193.161058 5.180979 -2.401626
C 191.586815 2.764088 -0.556834
C 190.300649 3.282642 -0.974939
C 189.391384 2.328345 -0.808747
C 190.052510 1.153396 -0.278021
N 191.377111 1.475079 -0.153910
H 188.680379 -2.292010 1.773050
H 190.664686 -4.099130 2.153430
H 192.169136 -0.892429 -0.114346
H 193.974105 -5.035396 2.835331
H 193.900589 -7.534323 2.892011
H 192.421875 -7.721008 -0.951736
H 192.431448 -5.230797 -1.169261
H 195.833830 -4.464432 0.328647
H 197.590232 -2.637615 -0.059063
H 197.242273 2.782993 0.829847
H 195.257504 4.602571 0.502147
H 193.773067 0.786547 -0.466014
H 192.004516 5.749969 0.733905
H 192.080183 8.078675 -0.175353
H 193.489191 6.762199 -3.817744
H 193.475261 4.379930 -3.061782
H 190.104408 4.266468 -1.362636
H 188.346298 2.429103 -1.038007
