490

C 93.271365 -0.057093 0.066490
C 93.999964 1.222975 0.579539
C 93.389839 2.329443 1.125018
C 94.411436 3.275496 1.398165
C 95.611367 2.715747 1.005174
N 95.353099 1.445993 0.552470
C 97.034902 3.414043 1.036195
C 98.163224 2.701464 0.770631
C 99.467021 3.330509 0.718710
C 100.367648 2.404474 0.411863
N 98.358720 1.373344 0.495388
C 99.688872 1.131348 0.268555
C 100.356200 -0.013603 -0.036053
C 99.581614 -1.394845 -0.145291
C 100.129184 -2.651457 0.027856
C 99.104596 -3.601089 -0.208574
C 97.957020 -2.898567 -0.507041
C 96.544285 -3.523798 -0.869587
C 96.512853 -4.910203 -1.390011
C 96.149540 -5.974799 -0.555522
C 96.130092 -7.288725 -1.039410
C 95.698563 -8.415353 -0.151613
C 96.465077 -7.526728 -2.380113
C 96.847712 -6.474294 -3.223951
C 97.178058 -6.726180 -4.663076
C 96.859717 -5.167056 -2.721088
C 95.419057 -2.777996 -0.715818
C 94.094719 -3.277631 -1.040958
C 93.210174 -2.321784 -0.772564
C 93.934744 -1.176580 -0.278146
N 95.256444 -1.495797 -0.269576
N 98.244325 -1.556744 -0.415212
C 97.074034 4.869806 1.315354
C 97.344668 5.333894 2.608387
C 97.372956 6.706621 2.883855
C 97.709553 7.187072 4.261996
C 97.143313 7.616209 1.841576
C 96.854588 7.167301 0.544746
C 96.636419 8.140065 -0.573473
C 96.832106 5.790501 0.289272
H 92.192612 -0.023073 -0.027301
H 92.330561 2.448933 1.292066
H 94.283511 4.264207 1.813420
H 96.054753 0.780493 0.236208
H 99.678209 4.371903 0.884736
H 101.420201 2.589940 0.301097
H 101.155352 -2.865683 0.284627
H 99.193129 -4.676605 -0.168592
H 95.876797 -5.753107 0.474938
H 94.645448 -8.654108 -0.333702
H 96.304286 -9.308887 -0.339291
H 95.821042 -8.155820 0.905766
H 96.427487 -8.540916 -2.769526
H 97.922875 -6.009572 -5.023575
H 97.599699 -7.727658 -4.798243
H 96.275996 -6.637216 -5.275706
H 97.133387 -4.326320 -3.356446
H 93.864726 -4.251418 -1.434368
H 92.145463 -2.381614 -0.906931
H 97.557013 -0.810382 -0.482121
H 97.540467 4.602378 3.390642
H 97.319955 6.500437 5.021155
H 97.264758 8.168848 4.453643
H 98.794457 7.264469 4.376776
H 97.189660 8.683582 2.040923
H 96.222173 9.081805 -0.198366
H 97.584308 8.348559 -1.078166
H 95.925201 7.741700 -1.304410
H 96.631228 5.410562 -0.711060
C 168.588273 -0.027872 0.074413
C 167.859674 -1.391772 -0.129483
C 168.469799 -2.622234 -0.217692
C 167.448202 -3.576680 -0.459889
C 166.248271 -2.895076 -0.516272
N 166.506539 -1.570564 -0.265508
C 164.824736 -3.513387 -0.842265
C 163.696414 -2.764263 -0.711471
C 162.392617 -3.280909 -1.074061
C 161.491990 -2.326715 -0.871059
N 163.500918 -1.479030 -0.278069
C 162.170766 -1.155593 -0.351579
C 161.503437 -0.013603 -0.036053
C 162.278024 1.233614 0.567449
C 161.730454 2.230617 1.351692
C 162.755042 3.169602 1.627385
C 163.902618 2.714096 1.014904
C 165.315352 3.436830 1.017876
C 165.346784 4.896225 1.269127
C 165.710098 5.393419 2.527115
C 165.729546 6.771806 2.773282
C 166.161074 7.295605 4.108613
C 165.394560 7.654503 1.736471
C 165.011926 7.172527 0.476559
C 164.681580 8.116926 -0.638179
C 164.999921 5.790326 0.250146
C 166.440581 2.715511 0.773816
C 167.764919 3.310957 0.745622
C 168.649464 2.350461 0.494374
C 167.924894 1.112364 0.342530
N 166.603193 1.383523 0.511188
N 163.615313 1.509694 0.416291
C 164.785604 -4.910756 -1.336770
C 164.514970 -5.964485 -0.455313
C 164.486681 -7.288329 -0.911054
C 164.150085 -8.399174 0.035586
C 164.716325 -7.546777 -2.270061
C 165.005050 -6.504231 -3.162464
C 165.223219 -6.778838 -4.618924
C 165.027532 -5.186972 -2.687410
H 169.667025 -0.009850 -0.023716
H 169.529077 -2.809745 -0.133891
H 167.576127 -4.639729 -0.600996
H 165.804885 -0.836459 -0.202249
H 162.181429 -4.263519 -1.456869
H 160.439436 -2.430817 -1.060346
H 160.704285 2.285782 1.681512
H 162.666509 4.077590 2.205219
H 165.982840 4.681528 3.304422
H 167.214190 7.593641 4.072082
H 165.555351 8.161547 4.398040
H 166.038596 6.537457 4.890036
H 165.432151 8.726484 1.912750
H 163.936762 7.680600 -1.311310
H 164.259938 9.049498 -0.248903
H 165.583641 8.349637 -1.211830
H 164.726251 5.385729 -0.722900
H 167.994912 4.350092 0.898041
H 169.714175 2.469974 0.408639
H 164.302625 0.899374 -0.018499
H 164.319171 -5.728356 0.589332
H 164.539682 -8.190110 1.037626
H 164.594880 -9.343277 -0.294993
H 163.065180 -8.523953 0.095545
H 164.669977 -8.568641 -2.637238
H 165.637465 -7.781069 -4.770950
H 164.275330 -6.703811 -5.159808
H 165.934437 -6.065789 -5.048487
H 165.228410 -4.353732 -3.358773
C 102.584813 -0.013603 -0.036053
C 103.806731 -0.013603 -0.036053
C 113.678432 -0.013603 -0.036053
C 114.900350 -0.013603 -0.036053
C 124.772051 -0.013603 -0.036053
C 125.993968 -0.013603 -0.036053
C 135.865669 -0.013603 -0.036053
C 137.087587 -0.013603 -0.036053
C 146.959288 -0.013603 -0.036053
C 148.181206 -0.013603 -0.036053
C 158.052907 -0.013603 -0.036053
C 159.274825 -0.013603 -0.036053
C 105.167428 0.006001 0.015906
C 105.958813 -1.133770 0.781860
C 105.445803 -1.999948 1.726157
C 106.482537 -2.898988 2.084131
C 107.598541 -2.549139 1.353381
N 107.290287 -1.430209 0.620470
C 108.991358 -3.304191 1.347475
C 110.125352 -2.638655 1.003386
C 111.413431 -3.296248 0.923958
C 112.320418 -2.397467 0.556689
N 110.332115 -1.330378 0.662475
C 111.656843 -1.120203 0.387022
C 112.320605 0.006001 0.015906
C 111.528514 1.369010 -0.146606
C 112.038975 2.641732 0.012789
C 111.002502 3.556614 -0.303287
C 109.889130 2.814609 -0.637804
C 108.497163 3.382657 -1.136510
C 108.502425 4.693355 -1.828838
C 108.074713 5.849276 -1.163303
C 108.095412 7.094055 -1.804773
C 107.671425 8.327536 -1.067703
C 108.574063 7.175059 -3.120207
C 108.994766 6.025915 -3.804956
C 109.532927 6.118621 -5.199899
C 108.965341 4.790224 -3.145945
C 107.363166 2.653919 -0.962367
C 106.075289 3.099986 -1.452363
C 105.168185 2.179837 -1.143134
C 105.831531 1.101459 -0.437712
N 107.156241 1.440569 -0.365921
N 110.198518 1.487998 -0.468427
C 108.985722 -4.748484 1.681352
C 108.524155 -5.683530 0.747995
C 108.490283 -7.048754 1.059734
C 107.953203 -8.031099 0.064201
C 108.905148 -7.469220 2.331711
C 109.382749 -6.547335 3.273988
C 109.799592 -6.995026 4.641522
C 109.408309 -5.186707 2.942850
H 104.433545 -2.001758 2.100609
H 106.417875 -3.721954 2.780084
H 107.954646 -0.883750 0.080217
H 111.608615 -4.336133 1.116796
H 113.365483 -2.603077 0.413588
H 113.049396 2.887253 0.302469
H 111.065370 4.634517 -0.306332
H 107.726761 5.755645 -0.135871
H 108.535527 8.786521 -0.577119
H 107.224286 9.055583 -1.752771
H 106.918048 8.092213 -0.308138
H 108.618731 8.141154 -3.616212
H 109.318826 5.204209 -5.763094
H 110.615921 6.273373 -5.173854
H 109.070174 6.949458 -5.742982
H 109.305012 3.883946 -3.644515
H 105.879977 4.013123 -1.985913
H 104.123286 2.242746 -1.386123
H 109.534925 0.721154 -0.526077
H 108.187991 -5.324749 -0.223421
H 108.403628 -9.018963 0.207172
H 108.183090 -7.715497 -0.959022
H 106.867771 -8.119161 0.172968
H 108.856459 -8.523815 2.590008
H 110.587310 -6.348064 5.041907
H 110.199664 -8.014000 4.614322
H 108.942098 -6.970724 5.321060
H 109.754873 -4.443636 3.659277
C 116.261046 0.006001 0.015906
C 117.052432 -1.133770 0.781860
C 116.539422 -1.999948 1.726157
C 117.576155 -2.898988 2.084131
C 118.692160 -2.549139 1.353381
N 118.383906 -1.430209 0.620470
C 120.084977 -3.304191 1.347475
C 121.218971 -2.638655 1.003386
C 122.507050 -3.296248 0.923958
C 123.414037 -2.397467 0.556689
N 121.425734 -1.330378 0.662475
C 122.750462 -1.120203 0.387022
C 123.414224 0.006001 0.015906
C 122.622133 1.369010 -0.146606
C 123.132593 2.641732 0.012789
C 122.096121 3.556614 -0.303287
C 120.982749 2.814609 -0.637804
C 119.590781 3.382657 -1.136510
C 119.596044 4.693355 -1.828838
C 119.168331 5.849276 -1.163303
C 119.189031 7.094055 -1.804773
C 118.765044 8.327536 -1.067703
C 119.667682 7.175059 -3.120207
C 120.088385 6.025915 -3.804956
C 120.626546 6.118621 -5.199899
C 120.058960 4.790224 -3.145945
C 118.456785 2.653919 -0.962367
C 117.168908 3.099986 -1.452363
C 116.261803 2.179837 -1.143134
C 116.925150 1.101459 -0.437712
N 118.249860 1.440569 -0.365921
N 121.292137 1.487998 -0.468427
C 120.079341 -4.748484 1.681352
C 119.617774 -5.683530 0.747995
C 119.583902 -7.048754 1.059734
C 119.046822 -8.031099 0.064201
C 119.998767 -7.469220 2.331711
C 120.476368 -6.547335 3.273988
C 120.893211 -6.995026 4.641522
C 120.501928 -5.186707 2.942850
H 115.527164 -2.001758 2.100609
H 117.511494 -3.721954 2.780084
H 119.048265 -0.883750 0.080217
H 122.702234 -4.336133 1.116796
H 124.459102 -2.603077 0.413588
H 124.143014 2.887253 0.302469
H 122.158989 4.634517 -0.306332
H 118.820380 5.755645 -0.135871
H 119.629146 8.786521 -0.577119
H 118.317904 9.055583 -1.752771
H 118.011667 8.092213 -0.308138
H 119.712349 8.141154 -3.616212
H 120.412444 5.204209 -5.763094
H 121.709540 6.273373 -5.173854
H 120.163793 6.949458 -5.742982
H 120.398631 3.883946 -3.644515
H 116.973596 4.013123 -1.985913
H 115.216905 2.242746 -1.386123
H 120.628544 0.721154 -0.526077
H 119.281610 -5.324749 -0.223421
H 119.497247 -9.018963 0.207172
H 119.276709 -7.715497 -0.959022
H 117.961390 -8.119161 0.172968
H 119.950077 -8.523815 2.590008
H 121.680928 -6.348064 5.041907
H 121.293282 -8.014000 4.614322
H 120.035716 -6.970724 5.321060
H 120.848492 -4.443636 3.659277
C 127.354665 0.006001 0.015906
C 128.146050 -1.133770 0.781860
C 127.633041 -1.999948 1.726157
C 128.669774 -2.898988 2.084131
C 129.785778 -2.549139 1.353381
N 129.477525 -1.430209 0.620470
C 131.178596 -3.304191 1.347475
C 132.312590 -2.638655 1.003386
C 133.600668 -3.296248 0.923958
C 134.507656 -2.397467 0.556689
N 132.519352 -1.330378 0.662475
C 133.844081 -1.120203 0.387022
C 134.507843 0.006001 0.015906
C 133.715751 1.369010 -0.146606
C 134.226212 2.641732 0.012789
C 133.189739 3.556614 -0.303287
C 132.076368 2.814609 -0.637804
C 130.684400 3.382657 -1.136510
C 130.689663 4.693355 -1.828838
C 130.261950 5.849276 -1.163303
C 130.282649 7.094055 -1.804773
C 129.858663 8.327536 -1.067703
C 130.761301 7.175059 -3.120207
C 131.182004 6.025915 -3.804956
C 131.720165 6.118621 -5.199899
C 131.152578 4.790224 -3.145945
C 129.550404 2.653919 -0.962367
C 128.262526 3.099986 -1.452363
C 127.355422 2.179837 -1.143134
C 128.018769 1.101459 -0.437712
N 129.343479 1.440569 -0.365921
N 132.385756 1.487998 -0.468427
C 131.172960 -4.748484 1.681352
C 130.711393 -5.683530 0.747995
C 130.677521 -7.048754 1.059734
C 130.140441 -8.031099 0.064201
C 131.092386 -7.469220 2.331711
C 131.569987 -6.547335 3.273988
C 131.986830 -6.995026 4.641522
C 131.595547 -5.186707 2.942850
H 126.620783 -2.001758 2.100609
H 128.605113 -3.721954 2.780084
H 130.141884 -0.883750 0.080217
H 133.795853 -4.336133 1.116796
H 135.552721 -2.603077 0.413588
H 135.236633 2.887253 0.302469
H 133.252608 4.634517 -0.306332
H 129.913999 5.755645 -0.135871
H 130.722765 8.786521 -0.577119
H 129.411523 9.055583 -1.752771
H 129.105286 8.092213 -0.308138
H 130.805968 8.141154 -3.616212
H 131.506063 5.204209 -5.763094
H 132.803158 6.273373 -5.173854
H 131.257412 6.949458 -5.742982
H 131.492249 3.883946 -3.644515
H 128.067215 4.013123 -1.985913
H 126.310523 2.242746 -1.386123
H 131.722163 0.721154 -0.526077
H 130.375228 -5.324749 -0.223421
H 130.590866 -9.018963 0.207172
H 130.370328 -7.715497 -0.959022
H 129.055009 -8.119161 0.172968
H 131.043696 -8.523815 2.590008
H 132.774547 -6.348064 5.041907
H 132.386901 -8.014000 4.614322
H 131.129335 -6.970724 5.321060
H 131.942110 -4.443636 3.659277
C 138.448284 0.006001 0.015906
C 139.239669 -1.133770 0.781860
C 138.726659 -1.999948 1.726157
C 139.763393 -2.898988 2.084131
C 140.879397 -2.549139 1.353381
N 140.571144 -1.430209 0.620470
C 142.272215 -3.304191 1.347475
C 143.406208 -2.638655 1.003386
C 144.694287 -3.296248 0.923958
C 145.601275 -2.397467 0.556689
N 143.612971 -1.330378 0.662475
C 144.937700 -1.120203 0.387022
C 145.601462 0.006001 0.015906
C 144.809370 1.369010 -0.146606
C 145.319831 2.641732 0.012789
C 144.283358 3.556614 -0.303287
C 143.169986 2.814609 -0.637804
C 141.778019 3.382657 -1.136510
C 141.783282 4.693355 -1.828838
C 141.355569 5.849276 -1.163303
C 141.376268 7.094055 -1.804773
C 140.952282 8.327536 -1.067703
C 141.854919 7.175059 -3.120207
C 142.275622 6.025915 -3.804956
C 142.813784 6.118621 -5.199899
C 142.246197 4.790224 -3.145945
C 140.644023 2.653919 -0.962367
C 139.356145 3.099986 -1.452363
C 138.449041 2.179837 -1.143134
C 139.112387 1.101459 -0.437712
N 140.437097 1.440569 -0.365921
N 143.479375 1.487998 -0.468427
C 142.266579 -4.748484 1.681352
C 141.805012 -5.683530 0.747995
C 141.771140 -7.048754 1.059734
C 141.234059 -8.031099 0.064201
C 142.186005 -7.469220 2.331711
C 142.663605 -6.547335 3.273988
C 143.080449 -6.995026 4.641522
C 142.689166 -5.186707 2.942850
H 137.714402 -2.001758 2.100609
H 139.698732 -3.721954 2.780084
H 141.235503 -0.883750 0.080217
H 144.889472 -4.336133 1.116796
H 146.646339 -2.603077 0.413588
H 146.330252 2.887253 0.302469
H 144.346226 4.634517 -0.306332
H 141.007618 5.755645 -0.135871
H 141.816384 8.786521 -0.577119
H 140.505142 9.055583 -1.752771
H 140.198905 8.092213 -0.308138
H 141.899587 8.141154 -3.616212
H 142.599682 5.204209 -5.763094
H 143.896777 6.273373 -5.173854
H 142.351030 6.949458 -5.742982
H 142.585868 3.883946 -3.644515
H 139.160834 4.013123 -1.985913
H 137.404142 2.242746 -1.386123
H 142.815782 0.721154 -0.526077
H 141.468847 -5.324749 -0.223421
H 141.684485 -9.018963 0.207172
H 141.463947 -7.715497 -0.959022
H 140.148628 -8.119161 0.172968
H 142.137315 -8.523815 2.590008
H 143.868166 -6.348064 5.041907
H 143.480520 -8.014000 4.614322
H 142.222954 -6.970724 5.321060
H 143.035729 -4.443636 3.659277
C 149.541903 0.006001 0.015906
C 150.333288 -1.133770 0.781860
C 149.820278 -1.999948 1.726157
C 150.857012 -2.898988 2.084131
C 151.973016 -2.549139 1.353381
N 151.664762 -1.430209 0.620470
C 153.365834 -3.304191 1.347475
C 154.499827 -2.638655 1.003386
C 155.787906 -3.296248 0.923958
C 156.694893 -2.397467 0.556689
N 154.706590 -1.330378 0.662475
C 156.031319 -1.120203 0.387022
C 156.695080 0.006001 0.015906
C 155.902989 1.369010 -0.146606
C 156.413450 2.641732 0.012789
C 155.376977 3.556614 -0.303287
C 154.263605 2.814609 -0.637804
C 152.871638 3.382657 -1.136510
C 152.876900 4.693355 -1.828838
C 152.449188 5.849276 -1.163303
C 152.469887 7.094055 -1.804773
C 152.045901 8.327536 -1.067703
C 152.948538 7.175059 -3.120207
C 153.369241 6.025915 -3.804956
C 153.907402 6.118621 -5.199899
C 153.339816 4.790224 -3.145945
C 151.737641 2.653919 -0.962367
C 150.449764 3.099986 -1.452363
C 149.542660 2.179837 -1.143134
C 150.206006 1.101459 -0.437712
N 151.530716 1.440569 -0.365921
N 154.572994 1.487998 -0.468427
C 153.360197 -4.748484 1.681352
C 152.898631 -5.683530 0.747995
C 152.864759 -7.048754 1.059734
C 152.327678 -8.031099 0.064201
C 153.279623 -7.469220 2.331711
C 153.757224 -6.547335 3.273988
C 154.174067 -6.995026 4.641522
C 153.782785 -5.186707 2.942850
H 148.808020 -2.001758 2.100609
H 150.792351 -3.721954 2.780084
H 152.329122 -0.883750 0.080217
H 155.983091 -4.336133 1.116796
H 157.739958 -2.603077 0.413588
H 157.423871 2.887253 0.302469
H 155.439845 4.634517 -0.306332
H 152.101237 5.755645 -0.135871
H 152.910003 8.786521 -0.577119
H 151.598761 9.055583 -1.752771
H 151.292523 8.092213 -0.308138
H 152.993206 8.141154 -3.616212
H 153.693301 5.204209 -5.763094
H 154.990396 6.273373 -5.173854
H 153.444649 6.949458 -5.742982
H 153.679487 3.883946 -3.644515
H 150.254452 4.013123 -1.985913
H 148.497761 2.242746 -1.386123
H 153.909400 0.721154 -0.526077
H 152.562466 -5.324749 -0.223421
H 152.778103 -9.018963 0.207172
H 152.557566 -7.715497 -0.959022
H 151.242247 -8.119161 0.172968
H 153.230934 -8.523815 2.590008
H 154.961785 -6.348064 5.041907
H 154.574139 -8.014000 4.614322
H 153.316573 -6.970724 5.321060
H 154.129348 -4.443636 3.659277
