 xtb: 6.5.1 (b24c23e)
          07302210073D

187222  0     0  0            999 V2000
   32.2765   -0.0060   -0.0521 Zn  0  0  0  0  0  0  0  0  0  0  0  0
   28.8689   -0.0349   -0.1372 C   0  0  0  0  0  0  0  0  0  0  0  0
   29.5022   -1.2575   -0.3233 C   0  0  0  0  0  0  0  0  0  0  0  0
   28.8313   -2.5129   -0.5157 C   0  0  0  0  0  0  0  0  0  0  0  0
   29.7925   -3.4589   -0.6566 C   0  0  0  0  0  0  0  0  0  0  0  0
   31.0638   -2.7898   -0.5636 C   0  0  0  0  0  0  0  0  0  0  0  0
   30.8525   -1.4596   -0.3520 N   0  0  0  0  0  0  0  0  0  0  0  0
   32.3181   -3.4083   -0.6440 C   0  0  0  0  0  0  0  0  0  0  0  0
   32.3360   -4.8680   -0.9002 C   0  0  0  0  0  0  0  0  0  0  0  0
   32.9025   -5.7432    0.0319 C   0  0  0  0  0  0  0  0  0  0  0  0
   32.9199   -7.1060   -0.2023 C   0  0  0  0  0  0  0  0  0  0  0  0
   32.3709   -7.5992   -1.3828 C   0  0  0  0  0  0  0  0  0  0  0  0
   32.3896   -9.0284   -1.6357 N   0  0  0  0  0  0  0  0  0  0  0  0
   31.8990   -9.4195   -2.6640 O   0  0  0  0  0  0  0  0  0  0  0  0
   32.8943   -9.7362   -0.8019 O   0  0  0  0  0  0  0  0  0  0  0  0
   31.8042   -6.7452   -2.3249 C   0  0  0  0  0  0  0  0  0  0  0  0
   31.7869   -5.3848   -2.0779 C   0  0  0  0  0  0  0  0  0  0  0  0
   33.5563   -2.7693   -0.5085 C   0  0  0  0  0  0  0  0  0  0  0  0
   34.8385   -3.4024   -0.6525 C   0  0  0  0  0  0  0  0  0  0  0  0
   35.7806   -2.4420   -0.4735 C   0  0  0  0  0  0  0  0  0  0  0  0
   33.7438   -1.4369   -0.2583 N   0  0  0  0  0  0  0  0  0  0  0  0
   35.0849   -1.2129   -0.2272 C   0  0  0  0  0  0  0  0  0  0  0  0
   35.7112    0.0277    0.0067 C   0  0  0  0  0  0  0  0  0  0  0  0
   35.0536    1.2538    0.2296 C   0  0  0  0  0  0  0  0  0  0  0  0
   35.7162    2.4930    0.5130 C   0  0  0  0  0  0  0  0  0  0  0  0
   34.7497    3.4326    0.6719 C   0  0  0  0  0  0  0  0  0  0  0  0
   33.4859    2.7775    0.4736 C   0  0  0  0  0  0  0  0  0  0  0  0
   33.7080    1.4515    0.2170 N   0  0  0  0  0  0  0  0  0  0  0  0
   32.2312    3.3924    0.5613 C   0  0  0  0  0  0  0  0  0  0  0  0
   32.2078    4.8486    0.8356 C   0  0  0  0  0  0  0  0  0  0  0  0
   31.5861    5.3378    1.9890 C   0  0  0  0  0  0  0  0  0  0  0  0
   31.5597    6.6947    2.2534 C   0  0  0  0  0  0  0  0  0  0  0  0
   32.1562    7.5734    1.3532 C   0  0  0  0  0  0  0  0  0  0  0  0
   32.1281    8.9992    1.6237 N   0  0  0  0  0  0  0  0  0  0  0  0
   31.5756    9.3656    2.6295 O   0  0  0  0  0  0  0  0  0  0  0  0
   32.6588    9.7292    0.8259 O   0  0  0  0  0  0  0  0  0  0  0  0
   32.7782    7.1080    0.1980 C   0  0  0  0  0  0  0  0  0  0  0  0
   32.8034    5.7485   -0.0539 C   0  0  0  0  0  0  0  0  0  0  0  0
   30.9933    2.7530    0.4140 C   0  0  0  0  0  0  0  0  0  0  0  0
   29.7079    3.4008    0.4438 C   0  0  0  0  0  0  0  0  0  0  0  0
   28.7712    2.4405    0.2462 C   0  0  0  0  0  0  0  0  0  0  0  0
   29.4718    1.1972    0.0836 C   0  0  0  0  0  0  0  0  0  0  0  0
   30.8153    1.4211    0.1839 N   0  0  0  0  0  0  0  0  0  0  0  0
   27.7838   -0.0436   -0.1659 H   0  0  0  0  0  0  0  0  0  0  0  0
   27.7607   -2.6429   -0.5304 H   0  0  0  0  0  0  0  0  0  0  0  0
   29.6571   -4.5192   -0.7985 H   0  0  0  0  0  0  0  0  0  0  0  0
   33.3157   -5.3482    0.9526 H   0  0  0  0  0  0  0  0  0  0  0  0
   33.3507   -7.7920    0.5171 H   0  0  0  0  0  0  0  0  0  0  0  0
   31.3877   -7.1536   -3.2378 H   0  0  0  0  0  0  0  0  0  0  0  0
   31.3603   -4.7086   -2.8096 H   0  0  0  0  0  0  0  0  0  0  0  0
   34.9970   -4.4449   -0.8766 H   0  0  0  0  0  0  0  0  0  0  0  0
   36.8531   -2.5479   -0.5105 H   0  0  0  0  0  0  0  0  0  0  0  0
   36.7845    2.6184    0.5893 H   0  0  0  0  0  0  0  0  0  0  0  0
   34.8801    4.4748    0.9151 H   0  0  0  0  0  0  0  0  0  0  0  0
   31.1362    4.6427    2.6884 H   0  0  0  0  0  0  0  0  0  0  0  0
   31.0858    7.0816    3.1475 H   0  0  0  0  0  0  0  0  0  0  0  0
   33.2310    7.8128   -0.4890 H   0  0  0  0  0  0  0  0  0  0  0  0
   33.2726    5.3753   -0.9568 H   0  0  0  0  0  0  0  0  0  0  0  0
   29.5475    4.4578    0.5837 H   0  0  0  0  0  0  0  0  0  0  0  0
   27.6994    2.5533    0.2043 H   0  0  0  0  0  0  0  0  0  0  0  0
   59.2356    0.0533   -0.0172 Zn  0  0  0  0  0  0  0  0  0  0  0  0
   62.6420    0.1110   -0.1227 C   0  0  0  0  0  0  0  0  0  0  0  0
   62.0120    1.3150    0.1670 C   0  0  0  0  0  0  0  0  0  0  0  0
   62.6862    2.5512    0.4508 C   0  0  0  0  0  0  0  0  0  0  0  0
   61.7276    3.4826    0.6793 C   0  0  0  0  0  0  0  0  0  0  0  0
   60.4544    2.8284    0.5253 C   0  0  0  0  0  0  0  0  0  0  0  0
   60.6623    1.5146    0.2260 N   0  0  0  0  0  0  0  0  0  0  0  0
   59.2016    3.4344    0.6857 C   0  0  0  0  0  0  0  0  0  0  0  0
   59.1866    4.8843    0.9919 C   0  0  0  0  0  0  0  0  0  0  0  0
   58.6212    5.3485    2.1839 C   0  0  0  0  0  0  0  0  0  0  0  0
   58.6070    6.6998    2.4769 C   0  0  0  0  0  0  0  0  0  0  0  0
   59.1585    7.5978    1.5672 C   0  0  0  0  0  0  0  0  0  0  0  0
   59.1440    9.0176    1.8683 N   0  0  0  0  0  0  0  0  0  0  0  0
   59.6403    9.7639    1.0635 O   0  0  0  0  0  0  0  0  0  0  0  0
   58.6374    9.3629    2.9052 O   0  0  0  0  0  0  0  0  0  0  0  0
   59.7238    7.1572    0.3736 C   0  0  0  0  0  0  0  0  0  0  0  0
   59.7375    5.8032    0.0931 C   0  0  0  0  0  0  0  0  0  0  0  0
   57.9621    2.7921    0.5805 C   0  0  0  0  0  0  0  0  0  0  0  0
   56.6811    3.4358    0.6827 C   0  0  0  0  0  0  0  0  0  0  0  0
   55.7369    2.4772    0.5046 C   0  0  0  0  0  0  0  0  0  0  0  0
   57.7717    1.4605    0.3284 N   0  0  0  0  0  0  0  0  0  0  0  0
   56.4300    1.2419    0.2842 C   0  0  0  0  0  0  0  0  0  0  0  0
   55.8015   -0.0005    0.0665 C   0  0  0  0  0  0  0  0  0  0  0  0
   56.4570   -1.2247   -0.1731 C   0  0  0  0  0  0  0  0  0  0  0  0
   55.7930   -2.4825   -0.3516 C   0  0  0  0  0  0  0  0  0  0  0  0
   56.7571   -3.4130   -0.5683 C   0  0  0  0  0  0  0  0  0  0  0  0
   58.0206   -2.7287   -0.5354 C   0  0  0  0  0  0  0  0  0  0  0  0
   57.8011   -1.4020   -0.2809 N   0  0  0  0  0  0  0  0  0  0  0  0
   59.2729   -3.3306   -0.7074 C   0  0  0  0  0  0  0  0  0  0  0  0
   59.2907   -4.7824   -1.0041 C   0  0  0  0  0  0  0  0  0  0  0  0
   59.9271   -5.6737   -0.1343 C   0  0  0  0  0  0  0  0  0  0  0  0
   59.9472   -7.0293   -0.4061 C   0  0  0  0  0  0  0  0  0  0  0  0
   59.3299   -7.4994   -1.5620 C   0  0  0  0  0  0  0  0  0  0  0  0
   59.3519   -8.9209   -1.8547 N   0  0  0  0  0  0  0  0  0  0  0  0
   59.9178   -9.6428   -1.0739 O   0  0  0  0  0  0  0  0  0  0  0  0
   58.8032   -9.2920   -2.8609 O   0  0  0  0  0  0  0  0  0  0  0  0
   58.6928   -6.6293   -2.4424 C   0  0  0  0  0  0  0  0  0  0  0  0
   58.6738   -5.2762   -2.1580 C   0  0  0  0  0  0  0  0  0  0  0  0
   60.5118   -2.6816   -0.6260 C   0  0  0  0  0  0  0  0  0  0  0  0
   61.7944   -3.2928   -0.8588 C   0  0  0  0  0  0  0  0  0  0  0  0
   62.7330   -2.3280   -0.6951 C   0  0  0  0  0  0  0  0  0  0  0  0
   62.0362   -1.1143   -0.3715 C   0  0  0  0  0  0  0  0  0  0  0  0
   60.6931   -1.3600   -0.3443 N   0  0  0  0  0  0  0  0  0  0  0  0
   63.7268    0.1296   -0.1575 H   0  0  0  0  0  0  0  0  0  0  0  0
   63.7571    2.6763    0.4777 H   0  0  0  0  0  0  0  0  0  0  0  0
   61.8662    4.5192    0.9415 H   0  0  0  0  0  0  0  0  0  0  0  0
   58.2064    4.6385    2.8899 H   0  0  0  0  0  0  0  0  0  0  0  0
   58.1771    7.0676    3.4009 H   0  0  0  0  0  0  0  0  0  0  0  0
   60.1421    7.8766   -0.3200 H   0  0  0  0  0  0  0  0  0  0  0  0
   60.1627    5.4492   -0.8388 H   0  0  0  0  0  0  0  0  0  0  0  0
   56.5248    4.4887    0.8536 H   0  0  0  0  0  0  0  0  0  0  0  0
   54.6646    2.5906    0.5141 H   0  0  0  0  0  0  0  0  0  0  0  0
   54.7256   -2.6290   -0.3069 H   0  0  0  0  0  0  0  0  0  0  0  0
   56.6258   -4.4718   -0.7234 H   0  0  0  0  0  0  0  0  0  0  0  0
   60.3933   -5.2971    0.7687 H   0  0  0  0  0  0  0  0  0  0  0  0
   60.4323   -7.7275    0.2654 H   0  0  0  0  0  0  0  0  0  0  0  0
   58.2237   -7.0197   -3.3375 H   0  0  0  0  0  0  0  0  0  0  0  0
   58.1925   -4.5874   -2.8425 H   0  0  0  0  0  0  0  0  0  0  0  0
   61.9515   -4.3253   -1.1266 H   0  0  0  0  0  0  0  0  0  0  0  0
   63.8037   -2.4166   -0.7904 H   0  0  0  0  0  0  0  0  0  0  0  0
   38.3394    0.0438    0.0147 C   0  0  0  0  0  0  0  0  0  0  0  0
   37.1173    0.0409    0.0164 C   0  0  0  0  0  0  0  0  0  0  0  0
   39.6890    0.0436    0.0107 C   0  0  0  0  0  0  0  0  0  0  0  0
   40.9112    0.0375    0.0036 C   0  0  0  0  0  0  0  0  0  0  0  0
   51.8239   -0.0256    0.0891 C   0  0  0  0  0  0  0  0  0  0  0  0
   50.6017   -0.0223    0.0811 C   0  0  0  0  0  0  0  0  0  0  0  0
   53.1735   -0.0236    0.0903 C   0  0  0  0  0  0  0  0  0  0  0  0
   54.3956   -0.0176    0.0851 C   0  0  0  0  0  0  0  0  0  0  0  0
   45.7566    0.0063    0.0200 Zn  0  0  0  0  0  0  0  0  0  0  0  0
   42.3168    0.0285    0.0017 C   0  0  0  0  0  0  0  0  0  0  0  0
   42.9523   -1.2281    0.0607 C   0  0  0  0  0  0  0  0  0  0  0  0
   42.2660   -2.4831    0.1462 C   0  0  0  0  0  0  0  0  0  0  0  0
   43.2152   -3.4533    0.1740 C   0  0  0  0  0  0  0  0  0  0  0  0
   44.4912   -2.7980    0.0973 C   0  0  0  0  0  0  0  0  0  0  0  0
   44.2949   -1.4448    0.0396 N   0  0  0  0  0  0  0  0  0  0  0  0
   45.7344   -3.4414    0.1130 C   0  0  0  0  0  0  0  0  0  0  0  0
   45.7238   -4.9235    0.1458 C   0  0  0  0  0  0  0  0  0  0  0  0
   46.2943   -5.6117    1.2211 C   0  0  0  0  0  0  0  0  0  0  0  0
   46.2847   -6.9941    1.2564 C   0  0  0  0  0  0  0  0  0  0  0  0
   45.7040   -7.6962    0.2039 C   0  0  0  0  0  0  0  0  0  0  0  0
   45.6936   -9.1477    0.2345 N   0  0  0  0  0  0  0  0  0  0  0  0
   45.1722   -9.7213   -0.6873 O   0  0  0  0  0  0  0  0  0  0  0  0
   46.2069   -9.6892    1.1801 O   0  0  0  0  0  0  0  0  0  0  0  0
   45.1328   -7.0307   -0.8771 C   0  0  0  0  0  0  0  0  0  0  0  0
   45.1429   -5.6481   -0.8997 C   0  0  0  0  0  0  0  0  0  0  0  0
   46.9861   -2.8147    0.1005 C   0  0  0  0  0  0  0  0  0  0  0  0
   48.2540   -3.4891    0.0664 C   0  0  0  0  0  0  0  0  0  0  0  0
   49.2155   -2.5309    0.0532 C   0  0  0  0  0  0  0  0  0  0  0  0
   47.1996   -1.4629    0.0898 N   0  0  0  0  0  0  0  0  0  0  0  0
   48.5449   -1.2646    0.0678 C   0  0  0  0  0  0  0  0  0  0  0  0
   49.1962   -0.0148    0.0653 C   0  0  0  0  0  0  0  0  0  0  0  0
   48.5602    1.2427    0.0406 C   0  0  0  0  0  0  0  0  0  0  0  0
   49.2453    2.5012    0.0607 C   0  0  0  0  0  0  0  0  0  0  0  0
   48.2964    3.4705    0.0051 C   0  0  0  0  0  0  0  0  0  0  0  0
   47.0219    2.8107   -0.0573 C   0  0  0  0  0  0  0  0  0  0  0  0
   47.2185    1.4568   -0.0221 N   0  0  0  0  0  0  0  0  0  0  0  0
   45.7793    3.4530   -0.1141 C   0  0  0  0  0  0  0  0  0  0  0  0
   45.7906    4.9334   -0.1884 C   0  0  0  0  0  0  0  0  0  0  0  0
   46.3991    5.5797   -1.2691 C   0  0  0  0  0  0  0  0  0  0  0  0
   46.4075    6.9601   -1.3497 C   0  0  0  0  0  0  0  0  0  0  0  0
   45.8067    7.7029   -0.3373 C   0  0  0  0  0  0  0  0  0  0  0  0
   45.8130    9.1526   -0.4166 N   0  0  0  0  0  0  0  0  0  0  0  0
   46.3547    9.6567   -1.3670 O   0  0  0  0  0  0  0  0  0  0  0  0
   45.2757    9.7622    0.4723 O   0  0  0  0  0  0  0  0  0  0  0  0
   45.1994    7.0798    0.7494 C   0  0  0  0  0  0  0  0  0  0  0  0
   45.1920    5.6986    0.8174 C   0  0  0  0  0  0  0  0  0  0  0  0
   44.5277    2.8261   -0.1098 C   0  0  0  0  0  0  0  0  0  0  0  0
   43.2609    3.4955   -0.2146 C   0  0  0  0  0  0  0  0  0  0  0  0
   42.2992    2.5381   -0.1771 C   0  0  0  0  0  0  0  0  0  0  0  0
   42.9688    1.2763   -0.0628 C   0  0  0  0  0  0  0  0  0  0  0  0
   44.3136    1.4766   -0.0310 N   0  0  0  0  0  0  0  0  0  0  0  0
   41.1948   -2.5996    0.1865 H   0  0  0  0  0  0  0  0  0  0  0  0
   43.0652   -4.5178    0.2538 H   0  0  0  0  0  0  0  0  0  0  0  0
   46.7322   -5.0535    2.0405 H   0  0  0  0  0  0  0  0  0  0  0  0
   46.7184   -7.5356    2.0885 H   0  0  0  0  0  0  0  0  0  0  0  0
   44.6910   -7.6004   -1.6858 H   0  0  0  0  0  0  0  0  0  0  0  0
   44.7124   -5.1184   -1.7415 H   0  0  0  0  0  0  0  0  0  0  0  0
   48.3910   -4.5581    0.0420 H   0  0  0  0  0  0  0  0  0  0  0  0
   50.2854   -2.6627    0.0280 H   0  0  0  0  0  0  0  0  0  0  0  0
   50.3155    2.6209    0.1168 H   0  0  0  0  0  0  0  0  0  0  0  0
   48.4454    4.5381    0.0197 H   0  0  0  0  0  0  0  0  0  0  0  0
   46.8521    4.9898   -2.0574 H   0  0  0  0  0  0  0  0  0  0  0  0
   46.8702    7.4689   -2.1868 H   0  0  0  0  0  0  0  0  0  0  0  0
   44.7432    7.6807    1.5268 H   0  0  0  0  0  0  0  0  0  0  0  0
   44.7333    5.2020    1.6645 H   0  0  0  0  0  0  0  0  0  0  0  0
   43.1248    4.5599   -0.3175 H   0  0  0  0  0  0  0  0  0  0  0  0
   41.2301    2.6670   -0.2315 H   0  0  0  0  0  0  0  0  0  0  0  0
  2  3  4  0  0  0  0
  3  4  1  0  0  0  0
  4  5  2  0  0  0  0
  5  6  4  0  0  0  0
  1  7  1  0  0  0  0
  3  7  4  0  0  0  0
  6  7  4  0  0  0  0
  6  8  4  0  0  0  0
  8  9  1  0  0  0  0
  9 10  4  0  0  0  0
 10 11  4  0  0  0  0
 11 12  4  0  0  0  0
 12 13  1  0  0  0  0
 13 14  2  0  0  0  0
 13 15  2  0  0  0  0
 14 15  1  0  0  0  0
 12 16  4  0  0  0  0
  9 17  4  0  0  0  0
 16 17  4  0  0  0  0
  8 18  4  0  0  0  0
 18 19  4  0  0  0  0
 19 20  2  0  0  0  0
  1 21  1  0  0  0  0
 18 21  4  0  0  0  0
 20 22  4  0  0  0  0
 21 22  4  0  0  0  0
 22 23  4  0  0  0  0
 23 24  4  0  0  0  0
 24 25  4  0  0  0  0
 25 26  2  0  0  0  0
 26 27  4  0  0  0  0
  1 28  1  0  0  0  0
 24 28  4  0  0  0  0
 27 28  4  0  0  0  0
 27 29  4  0  0  0  0
 29 30  1  0  0  0  0
 30 31  4  0  0  0  0
 31 32  4  0  0  0  0
 32 33  4  0  0  0  0
 33 34  1  0  0  0  0
 34 35  2  0  0  0  0
 34 36  2  0  0  0  0
 35 36  1  0  0  0  0
 33 37  4  0  0  0  0
 30 38  4  0  0  0  0
 37 38  4  0  0  0  0
 29 39  4  0  0  0  0
 39 40  4  0  0  0  0
 40 41  2  0  0  0  0
  2 42  4  0  0  0  0
 41 42  1  0  0  0  0
  1 43  1  0  0  0  0
 39 43  4  0  0  0  0
 42 43  4  0  0  0  0
  2 44  1  0  0  0  0
  4 45  1  0  0  0  0
  5 46  1  0  0  0  0
 10 47  1  0  0  0  0
 11 48  1  0  0  0  0
 16 49  1  0  0  0  0
 17 50  1  0  0  0  0
 19 51  1  0  0  0  0
 20 52  1  0  0  0  0
 25 53  1  0  0  0  0
 26 54  1  0  0  0  0
 31 55  1  0  0  0  0
 32 56  1  0  0  0  0
 37 57  1  0  0  0  0
 38 58  1  0  0  0  0
 40 59  1  0  0  0  0
 41 60  1  0  0  0  0
 62 63  4  0  0  0  0
 63 64  1  0  0  0  0
 64 65  2  0  0  0  0
 65 66  4  0  0  0  0
 61 67  1  0  0  0  0
 63 67  4  0  0  0  0
 66 67  4  0  0  0  0
 66 68  4  0  0  0  0
 68 69  1  0  0  0  0
 69 70  4  0  0  0  0
 70 71  4  0  0  0  0
 71 72  4  0  0  0  0
 72 73  1  0  0  0  0
 73 74  2  0  0  0  0
 73 75  2  0  0  0  0
 74 75  1  0  0  0  0
 72 76  4  0  0  0  0
 69 77  4  0  0  0  0
 76 77  4  0  0  0  0
 68 78  4  0  0  0  0
 78 79  4  0  0  0  0
 79 80  2  0  0  0  0
 61 81  1  0  0  0  0
 78 81  4  0  0  0  0
 80 82  4  0  0  0  0
 81 82  4  0  0  0  0
 82 83  4  0  0  0  0
 83 84  4  0  0  0  0
 84 85  4  0  0  0  0
 85 86  2  0  0  0  0
 86 87  4  0  0  0  0
 61 88  1  0  0  0  0
 84 88  4  0  0  0  0
 87 88  4  0  0  0  0
 87 89  4  0  0  0  0
 89 90  1  0  0  0  0
 90 91  4  0  0  0  0
 91 92  4  0  0  0  0
 92 93  4  0  0  0  0
 93 94  1  0  0  0  0
 94 95  2  0  0  0  0
 94 96  2  0  0  0  0
 95 96  1  0  0  0  0
 93 97  4  0  0  0  0
 90 98  4  0  0  0  0
 97 98  4  0  0  0  0
 89 99  4  0  0  0  0
 99100  4  0  0  0  0
100101  2  0  0  0  0
 62102  4  0  0  0  0
101102  1  0  0  0  0
 61103  1  0  0  0  0
 99103  4  0  0  0  0
102103  4  0  0  0  0
 62104  1  0  0  0  0
 64105  1  0  0  0  0
 65106  1  0  0  0  0
 70107  1  0  0  0  0
 71108  1  0  0  0  0
 76109  1  0  0  0  0
 77110  1  0  0  0  0
 79111  1  0  0  0  0
 80112  1  0  0  0  0
 85113  1  0  0  0  0
 86114  1  0  0  0  0
 91115  1  0  0  0  0
 92116  1  0  0  0  0
 97117  1  0  0  0  0
 98118  1  0  0  0  0
100119  1  0  0  0  0
101120  1  0  0  0  0
 23122  4  0  0  0  0
121122  3  0  0  0  0
121123  4  0  0  0  0
123124  3  0  0  0  0
125126  3  0  0  0  0
125127  4  0  0  0  0
 83128  4  0  0  0  0
127128  3  0  0  0  0
124130  4  0  0  0  0
130131  4  0  0  0  0
131132  4  0  0  0  0
132133  2  0  0  0  0
133134  4  0  0  0  0
129135  1  0  0  0  0
131135  4  0  0  0  0
134135  4  0  0  0  0
134136  4  0  0  0  0
136137  1  0  0  0  0
137138  4  0  0  0  0
138139  4  0  0  0  0
139140  4  0  0  0  0
140141  1  0  0  0  0
141142  2  0  0  0  0
141143  2  0  0  0  0
142143  1  0  0  0  0
140144  4  0  0  0  0
137145  4  0  0  0  0
144145  4  0  0  0  0
136146  4  0  0  0  0
146147  4  0  0  0  0
147148  2  0  0  0  0
129149  1  0  0  0  0
146149  4  0  0  0  0
148150  4  0  0  0  0
149150  4  0  0  0  0
126151  4  0  0  0  0
150151  4  0  0  0  0
151152  4  0  0  0  0
152153  4  0  0  0  0
153154  2  0  0  0  0
154155  4  0  0  0  0
129156  1  0  0  0  0
152156  4  0  0  0  0
155156  4  0  0  0  0
155157  4  0  0  0  0
157158  1  0  0  0  0
158159  4  0  0  0  0
159160  4  0  0  0  0
160161  4  0  0  0  0
161162  1  0  0  0  0
162163  2  0  0  0  0
162164  2  0  0  0  0
163164  1  0  0  0  0
161165  4  0  0  0  0
158166  4  0  0  0  0
165166  4  0  0  0  0
157167  4  0  0  0  0
167168  4  0  0  0  0
168169  2  0  0  0  0
130170  4  0  0  0  0
169170  4  0  0  0  0
129171  1  0  0  0  0
167171  4  0  0  0  0
170171  4  0  0  0  0
132172  1  0  0  0  0
133173  1  0  0  0  0
138174  1  0  0  0  0
139175  1  0  0  0  0
144176  1  0  0  0  0
145177  1  0  0  0  0
147178  1  0  0  0  0
148179  1  0  0  0  0
153180  1  0  0  0  0
154181  1  0  0  0  0
159182  1  0  0  0  0
160183  1  0  0  0  0
165184  1  0  0  0  0
166185  1  0  0  0  0
168186  1  0  0  0  0
169187  1  0  0  0  0
M  END
