 xtb: 6.5.1 (b24c23e)
          07302207203D

183212  0     0  0            999 V2000
   34.2006    0.0305    0.0297 Cu  0  0  0  0  0  0  0  0  0  0  0  0
   30.7935    0.0639    0.0921 C   0  0  0  0  0  0  0  0  0  0  0  0
   31.4198    1.1739   -0.4553 C   0  0  0  0  0  0  0  0  0  0  0  0
   30.7388    2.2828   -1.0588 C   0  0  0  0  0  0  0  0  0  0  0  0
   31.6922    3.1615   -1.4582 C   0  0  0  0  0  0  0  0  0  0  0  0
   32.9636    2.6051   -1.0842 C   0  0  0  0  0  0  0  0  0  0  0  0
   32.7678    1.3918   -0.4896 N   0  0  0  0  0  0  0  0  0  0  0  0
   34.2033    3.2177   -1.2864 C   0  0  0  0  0  0  0  0  0  0  0  0
   34.2157    4.5784   -1.8722 C   0  0  0  0  0  0  0  0  0  0  0  0
   34.9007    4.8287   -3.0644 C   0  0  0  0  0  0  0  0  0  0  0  0
   34.9150    6.0937   -3.6238 C   0  0  0  0  0  0  0  0  0  0  0  0
   34.2536    7.1481   -2.9889 C   0  0  0  0  0  0  0  0  0  0  0  0
   34.2342    8.4069   -3.5641 N   0  0  0  0  0  0  0  0  0  0  0  0
   33.5635    6.9063   -1.7983 C   0  0  0  0  0  0  0  0  0  0  0  0
   33.5456    5.6355   -1.2513 C   0  0  0  0  0  0  0  0  0  0  0  0
   35.4373    2.6387   -0.9764 C   0  0  0  0  0  0  0  0  0  0  0  0
   36.6987    3.3162   -1.0568 C   0  0  0  0  0  0  0  0  0  0  0  0
   37.6528    2.4233   -0.6892 C   0  0  0  0  0  0  0  0  0  0  0  0
   35.6428    1.3541   -0.5464 N   0  0  0  0  0  0  0  0  0  0  0  0
   36.9863    1.1953   -0.3840 C   0  0  0  0  0  0  0  0  0  0  0  0
   37.6388    0.0027   -0.0188 C   0  0  0  0  0  0  0  0  0  0  0  0
   36.9788   -1.1821    0.3585 C   0  0  0  0  0  0  0  0  0  0  0  0
   37.6340   -2.4231    0.6346 C   0  0  0  0  0  0  0  0  0  0  0  0
   36.6757   -3.3034    1.0222 C   0  0  0  0  0  0  0  0  0  0  0  0
   35.4240   -2.6044    0.9851 C   0  0  0  0  0  0  0  0  0  0  0  0
   35.6381   -1.3204    0.5578 N   0  0  0  0  0  0  0  0  0  0  0  0
   34.1899   -3.1622    1.3323 C   0  0  0  0  0  0  0  0  0  0  0  0
   34.1936   -4.5277    1.9061 C   0  0  0  0  0  0  0  0  0  0  0  0
   34.9194   -4.8065    3.0675 C   0  0  0  0  0  0  0  0  0  0  0  0
   34.9231   -6.0767    3.6154 C   0  0  0  0  0  0  0  0  0  0  0  0
   34.2088   -7.1078    2.9997 C   0  0  0  0  0  0  0  0  0  0  0  0
   34.1795   -8.3706    3.5659 N   0  0  0  0  0  0  0  0  0  0  0  0
   33.4777   -6.8375    1.8401 C   0  0  0  0  0  0  0  0  0  0  0  0
   33.4716   -5.5618    1.3045 C   0  0  0  0  0  0  0  0  0  0  0  0
   32.9559   -2.5236    1.1794 C   0  0  0  0  0  0  0  0  0  0  0  0
   31.6887   -3.0552    1.6005 C   0  0  0  0  0  0  0  0  0  0  0  0
   30.7388   -2.1556    1.2412 C   0  0  0  0  0  0  0  0  0  0  0  0
   31.4184   -1.0590    0.6144 C   0  0  0  0  0  0  0  0  0  0  0  0
   32.7621   -1.3042    0.5965 N   0  0  0  0  0  0  0  0  0  0  0  0
   29.7086    0.0746    0.1130 H   0  0  0  0  0  0  0  0  0  0  0  0
   29.6686    2.3595   -1.1704 H   0  0  0  0  0  0  0  0  0  0  0  0
   31.5534    4.0987   -1.9729 H   0  0  0  0  0  0  0  0  0  0  0  0
   35.4101    4.0137   -3.5672 H   0  0  0  0  0  0  0  0  0  0  0  0
   35.4405    6.2717   -4.5558 H   0  0  0  0  0  0  0  0  0  0  0  0
   34.9896    8.5944   -4.2040 H   0  0  0  0  0  0  0  0  0  0  0  0
   34.0422    9.1638   -2.9276 H   0  0  0  0  0  0  0  0  0  0  0  0
   33.0460    7.7205   -1.3027 H   0  0  0  0  0  0  0  0  0  0  0  0
   33.0244    5.4615   -0.3162 H   0  0  0  0  0  0  0  0  0  0  0  0
   36.8326    4.3494   -1.3337 H   0  0  0  0  0  0  0  0  0  0  0  0
   38.7151    2.5831   -0.6143 H   0  0  0  0  0  0  0  0  0  0  0  0
   38.6911   -2.5996    0.5267 H   0  0  0  0  0  0  0  0  0  0  0  0
   36.8007   -4.3411    1.2862 H   0  0  0  0  0  0  0  0  0  0  0  0
   35.4690   -4.0097    3.5566 H   0  0  0  0  0  0  0  0  0  0  0  0
   35.4808   -6.2772    4.5237 H   0  0  0  0  0  0  0  0  0  0  0  0
   34.9563   -8.5840    4.1710 H   0  0  0  0  0  0  0  0  0  0  0  0
   33.9406   -9.1163    2.9319 H   0  0  0  0  0  0  0  0  0  0  0  0
   32.9188   -7.6331    1.3594 H   0  0  0  0  0  0  0  0  0  0  0  0
   32.9178   -5.3658    0.3928 H   0  0  0  0  0  0  0  0  0  0  0  0
   31.5501   -3.9906    2.1184 H   0  0  0  0  0  0  0  0  0  0  0  0
   29.6723   -2.2109    1.3941 H   0  0  0  0  0  0  0  0  0  0  0  0
   56.0272   -0.0360    0.0668 Cu  0  0  0  0  0  0  0  0  0  0  0  0
   59.4330   -0.0227    0.1391 C   0  0  0  0  0  0  0  0  0  0  0  0
   58.7996   -1.0852    0.7667 C   0  0  0  0  0  0  0  0  0  0  0  0
   59.4754   -2.1948    1.3750 C   0  0  0  0  0  0  0  0  0  0  0  0
   58.5172   -3.0161    1.8724 C   0  0  0  0  0  0  0  0  0  0  0  0
   57.2470   -2.4065    1.5865 C   0  0  0  0  0  0  0  0  0  0  0  0
   57.4497   -1.2397    0.9074 N   0  0  0  0  0  0  0  0  0  0  0  0
   56.0030   -2.9344    1.9437 C   0  0  0  0  0  0  0  0  0  0  0  0
   55.9885   -4.1829    2.7423 C   0  0  0  0  0  0  0  0  0  0  0  0
   55.3546   -5.3294    2.2566 C   0  0  0  0  0  0  0  0  0  0  0  0
   55.3400   -6.4995    2.9947 C   0  0  0  0  0  0  0  0  0  0  0  0
   55.9495   -6.5433    4.2511 C   0  0  0  0  0  0  0  0  0  0  0  0
   55.9688   -7.7222    4.9769 N   0  0  0  0  0  0  0  0  0  0  0  0
   56.5897   -5.4028    4.7424 C   0  0  0  0  0  0  0  0  0  0  0  0
   56.6082   -4.2397    3.9931 C   0  0  0  0  0  0  0  0  0  0  0  0
   54.7700   -2.3713    1.6034 C   0  0  0  0  0  0  0  0  0  0  0  0
   53.4968   -2.8534    2.0568 C   0  0  0  0  0  0  0  0  0  0  0  0
   52.5495   -2.0425    1.5198 C   0  0  0  0  0  0  0  0  0  0  0  0
   54.5781   -1.2713    0.8099 N   0  0  0  0  0  0  0  0  0  0  0  0
   53.2351   -1.0592    0.7376 C   0  0  0  0  0  0  0  0  0  0  0  0
   52.5977   -0.0414    0.0060 C   0  0  0  0  0  0  0  0  0  0  0  0
   53.2574    0.9745   -0.7082 C   0  0  0  0  0  0  0  0  0  0  0  0
   52.5972    1.9494   -1.5218 C   0  0  0  0  0  0  0  0  0  0  0  0
   53.5604    2.7589   -2.0319 C   0  0  0  0  0  0  0  0  0  0  0  0
   54.8181    2.2860   -1.5283 C   0  0  0  0  0  0  0  0  0  0  0  0
   54.6015    1.1907   -0.7343 N   0  0  0  0  0  0  0  0  0  0  0  0
   56.0605    2.8536   -1.8242 C   0  0  0  0  0  0  0  0  0  0  0  0
   56.0713    4.0928   -2.6370 C   0  0  0  0  0  0  0  0  0  0  0  0
   55.4043    5.2390   -2.1973 C   0  0  0  0  0  0  0  0  0  0  0  0
   55.4118    6.3986   -2.9520 C   0  0  0  0  0  0  0  0  0  0  0  0
   56.0784    6.4319   -4.1794 C   0  0  0  0  0  0  0  0  0  0  0  0
   56.1191    7.6012   -4.9200 N   0  0  0  0  0  0  0  0  0  0  0  0
   56.7526    5.2919   -4.6243 C   0  0  0  0  0  0  0  0  0  0  0  0
   56.7478    4.1395   -3.8586 C   0  0  0  0  0  0  0  0  0  0  0  0
   57.2922    2.3377   -1.4107 C   0  0  0  0  0  0  0  0  0  0  0  0
   58.5685    2.9567   -1.6437 C   0  0  0  0  0  0  0  0  0  0  0  0
   59.5108    2.1464   -1.1000 C   0  0  0  0  0  0  0  0  0  0  0  0
   58.8183    1.0335   -0.5172 C   0  0  0  0  0  0  0  0  0  0  0  0
   57.4747    1.1760   -0.7172 N   0  0  0  0  0  0  0  0  0  0  0  0
   60.5180   -0.0181    0.1626 H   0  0  0  0  0  0  0  0  0  0  0  0
   60.5462   -2.3241    1.3983 H   0  0  0  0  0  0  0  0  0  0  0  0
   58.6519   -3.9597    2.3763 H   0  0  0  0  0  0  0  0  0  0  0  0
   54.8861   -5.3055    1.2787 H   0  0  0  0  0  0  0  0  0  0  0  0
   54.8545   -7.3862    2.6014 H   0  0  0  0  0  0  0  0  0  0  0  0
   55.2373   -8.3754    4.7457 H   0  0  0  0  0  0  0  0  0  0  0  0
   56.1149   -7.6090    5.9674 H   0  0  0  0  0  0  0  0  0  0  0  0
   57.0680   -5.4322    5.7154 H   0  0  0  0  0  0  0  0  0  0  0  0
   57.0907   -3.3532    4.3903 H   0  0  0  0  0  0  0  0  0  0  0  0
   53.3502   -3.6906    2.7200 H   0  0  0  0  0  0  0  0  0  0  0  0
   51.4806   -2.0915    1.6505 H   0  0  0  0  0  0  0  0  0  0  0  0
   51.5337    1.9930   -1.6922 H   0  0  0  0  0  0  0  0  0  0  0  0
   53.4341    3.5895   -2.7074 H   0  0  0  0  0  0  0  0  0  0  0  0
   54.8918    5.2241   -1.2416 H   0  0  0  0  0  0  0  0  0  0  0  0
   54.8994    7.2852   -2.5946 H   0  0  0  0  0  0  0  0  0  0  0  0
   55.3701    8.2487   -4.7332 H   0  0  0  0  0  0  0  0  0  0  0  0
   56.3129    7.4764   -5.9008 H   0  0  0  0  0  0  0  0  0  0  0  0
   57.2753    5.3129   -5.5745 H   0  0  0  0  0  0  0  0  0  0  0  0
   57.2570    3.2529   -4.2207 H   0  0  0  0  0  0  0  0  0  0  0  0
   58.7174    3.8993   -2.1456 H   0  0  0  0  0  0  0  0  0  0  0  0
   60.5804    2.2850   -1.0766 H   0  0  0  0  0  0  0  0  0  0  0  0
   39.0489   -0.0064   -0.0323 C   0  0  0  0  0  0  0  0  0  0  0  0
   40.2674   -0.0126   -0.0374 C   0  0  0  0  0  0  0  0  0  0  0  0
   49.9714   -0.0366   -0.0179 C   0  0  0  0  0  0  0  0  0  0  0  0
   51.1884   -0.0393   -0.0106 C   0  0  0  0  0  0  0  0  0  0  0  0
   45.1230   -0.0272   -0.0265 Cu  0  0  0  0  0  0  0  0  0  0  0  0
   41.6773   -0.0202   -0.0449 C   0  0  0  0  0  0  0  0  0  0  0  0
   42.3366    1.1351   -0.5063 C   0  0  0  0  0  0  0  0  0  0  0  0
   41.6720    2.3102   -0.9801 C   0  0  0  0  0  0  0  0  0  0  0  0
   42.6308    3.2334   -1.2446 C   0  0  0  0  0  0  0  0  0  0  0  0
   43.8943    2.6204   -0.9533 C   0  0  0  0  0  0  0  0  0  0  0  0
   43.6823    1.3414   -0.5095 N   0  0  0  0  0  0  0  0  0  0  0  0
   45.1322    3.2597   -1.0510 C   0  0  0  0  0  0  0  0  0  0  0  0
   45.1347    4.6857   -1.4652 C   0  0  0  0  0  0  0  0  0  0  0  0
   44.6901    5.0657   -2.7330 C   0  0  0  0  0  0  0  0  0  0  0  0
   44.6913    6.3960   -3.1153 C   0  0  0  0  0  0  0  0  0  0  0  0
   45.1386    7.3796   -2.2299 C   0  0  0  0  0  0  0  0  0  0  0  0
   45.0944    8.7165   -2.5905 N   0  0  0  0  0  0  0  0  0  0  0  0
   45.5752    7.0081   -0.9561 C   0  0  0  0  0  0  0  0  0  0  0  0
   45.5783    5.6749   -0.5851 C   0  0  0  0  0  0  0  0  0  0  0  0
   46.3687    2.6686   -0.7823 C   0  0  0  0  0  0  0  0  0  0  0  0
   47.6376    3.3266   -0.9060 C   0  0  0  0  0  0  0  0  0  0  0  0
   48.5925    2.4069   -0.6139 C   0  0  0  0  0  0  0  0  0  0  0  0
   46.5714    1.3623   -0.4252 N   0  0  0  0  0  0  0  0  0  0  0  0
   47.9161    1.1797   -0.3219 C   0  0  0  0  0  0  0  0  0  0  0  0
   48.5625   -0.0308   -0.0153 C   0  0  0  0  0  0  0  0  0  0  0  0
   47.9081   -1.2383    0.2886 C   0  0  0  0  0  0  0  0  0  0  0  0
   48.5733   -2.4864    0.5061 C   0  0  0  0  0  0  0  0  0  0  0  0
   47.6129   -3.4032    0.7921 C   0  0  0  0  0  0  0  0  0  0  0  0
   46.3537   -2.7173    0.7577 C   0  0  0  0  0  0  0  0  0  0  0  0
   46.5644   -1.4048    0.4287 N   0  0  0  0  0  0  0  0  0  0  0  0
   45.1135   -3.3025    1.0279 C   0  0  0  0  0  0  0  0  0  0  0  0
   45.1082   -4.7130    1.4811 C   0  0  0  0  0  0  0  0  0  0  0  0
   44.4034   -5.6881    0.7704 C   0  0  0  0  0  0  0  0  0  0  0  0
   44.4026   -7.0079    1.1853 C   0  0  0  0  0  0  0  0  0  0  0  0
   45.1088   -7.3831    2.3311 C   0  0  0  0  0  0  0  0  0  0  0  0
   45.0711   -8.6935    2.7762 N   0  0  0  0  0  0  0  0  0  0  0  0
   45.8045   -6.4122    3.0560 C   0  0  0  0  0  0  0  0  0  0  0  0
   45.8079   -5.0965    2.6283 C   0  0  0  0  0  0  0  0  0  0  0  0
   43.8787   -2.6595    0.9057 C   0  0  0  0  0  0  0  0  0  0  0  0
   42.6185   -3.2263    1.2892 C   0  0  0  0  0  0  0  0  0  0  0  0
   41.6633   -2.3088    0.9905 C   0  0  0  0  0  0  0  0  0  0  0  0
   42.3297   -1.1756    0.4267 C   0  0  0  0  0  0  0  0  0  0  0  0
   43.6723   -1.4017    0.4030 N   0  0  0  0  0  0  0  0  0  0  0  0
   40.6059    2.4124   -1.0919 H   0  0  0  0  0  0  0  0  0  0  0  0
   42.4947    4.2425   -1.5982 H   0  0  0  0  0  0  0  0  0  0  0  0
   44.3563    4.3064   -3.4318 H   0  0  0  0  0  0  0  0  0  0  0  0
   44.3476    6.6793   -4.1043 H   0  0  0  0  0  0  0  0  0  0  0  0
   45.1009    8.8878   -3.5837 H   0  0  0  0  0  0  0  0  0  0  0  0
   45.7172    9.3154   -2.0717 H   0  0  0  0  0  0  0  0  0  0  0  0
   45.9125    7.7683   -0.2598 H   0  0  0  0  0  0  0  0  0  0  0  0
   45.9119    5.3945    0.4081 H   0  0  0  0  0  0  0  0  0  0  0  0
   47.7783    4.3569   -1.1904 H   0  0  0  0  0  0  0  0  0  0  0  0
   49.6619    2.5415   -0.5962 H   0  0  0  0  0  0  0  0  0  0  0  0
   49.6377   -2.6403    0.4315 H   0  0  0  0  0  0  0  0  0  0  0  0
   47.7433   -4.4553    0.9878 H   0  0  0  0  0  0  0  0  0  0  0  0
   43.8682   -5.4088   -0.1307 H   0  0  0  0  0  0  0  0  0  0  0  0
   43.8577   -7.7566    0.6206 H   0  0  0  0  0  0  0  0  0  0  0  0
   45.8348   -8.9617    3.3760 H   0  0  0  0  0  0  0  0  0  0  0  0
   44.8492   -9.3768    2.0699 H   0  0  0  0  0  0  0  0  0  0  0  0
   46.3423   -6.6949    3.9544 H   0  0  0  0  0  0  0  0  0  0  0  0
   46.3424   -4.3473    3.2021 H   0  0  0  0  0  0  0  0  0  0  0  0
   42.4850   -4.1917    1.7499 H   0  0  0  0  0  0  0  0  0  0  0  0
   40.6010   -2.3819    1.1528 H   0  0  0  0  0  0  0  0  0  0  0  0
  2  3  4  0  0  0  0
  3  4  4  0  0  0  0
  4  5  2  0  0  0  0
  5  6  4  0  0  0  0
  1  7  1  0  0  0  0
  3  7  4  0  0  0  0
  6  7  4  0  0  0  0
  6  8  4  0  0  0  0
  8  9  1  0  0  0  0
  9 10  4  0  0  0  0
 10 11  4  0  0  0  0
 11 12  4  0  0  0  0
 12 13  1  0  0  0  0
 12 14  4  0  0  0  0
  9 15  4  0  0  0  0
 14 15  4  0  0  0  0
  8 16  4  0  0  0  0
 16 17  4  0  0  0  0
 17 18  2  0  0  0  0
  1 19  1  0  0  0  0
 16 19  4  0  0  0  0
 18 20  4  0  0  0  0
 19 20  4  0  0  0  0
 20 21  4  0  0  0  0
 21 22  4  0  0  0  0
 22 23  4  0  0  0  0
 23 24  2  0  0  0  0
 24 25  4  0  0  0  0
  1 26  1  0  0  0  0
 22 26  4  0  0  0  0
 25 26  4  0  0  0  0
 25 27  4  0  0  0  0
 27 28  1  0  0  0  0
 28 29  4  0  0  0  0
 29 30  4  0  0  0  0
 30 31  4  0  0  0  0
 31 32  1  0  0  0  0
 31 33  4  0  0  0  0
 28 34  4  0  0  0  0
 33 34  4  0  0  0  0
 27 35  4  0  0  0  0
 35 36  4  0  0  0  0
 36 37  2  0  0  0  0
  2 38  4  0  0  0  0
 37 38  4  0  0  0  0
  1 39  1  0  0  0  0
 35 39  4  0  0  0  0
 38 39  4  0  0  0  0
  2 40  1  0  0  0  0
  4 41  1  0  0  0  0
  5 42  1  0  0  0  0
 10 43  1  0  0  0  0
 11 44  1  0  0  0  0
 13 45  1  0  0  0  0
 13 46  1  0  0  0  0
 14 47  1  0  0  0  0
 15 48  1  0  0  0  0
 17 49  1  0  0  0  0
 18 50  1  0  0  0  0
 23 51  1  0  0  0  0
 24 52  1  0  0  0  0
 29 53  1  0  0  0  0
 30 54  1  0  0  0  0
 32 55  1  0  0  0  0
 32 56  1  0  0  0  0
 33 57  1  0  0  0  0
 34 58  1  0  0  0  0
 36 59  1  0  0  0  0
 37 60  1  0  0  0  0
 62 63  4  0  0  0  0
 63 64  4  0  0  0  0
 64 65  2  0  0  0  0
 65 66  4  0  0  0  0
 61 67  1  0  0  0  0
 63 67  4  0  0  0  0
 66 67  4  0  0  0  0
 66 68  4  0  0  0  0
 68 69  1  0  0  0  0
 69 70  4  0  0  0  0
 70 71  4  0  0  0  0
 71 72  4  0  0  0  0
 72 73  1  0  0  0  0
 72 74  4  0  0  0  0
 69 75  4  0  0  0  0
 74 75  4  0  0  0  0
 68 76  4  0  0  0  0
 76 77  4  0  0  0  0
 77 78  2  0  0  0  0
 61 79  1  0  0  0  0
 76 79  4  0  0  0  0
 78 80  4  0  0  0  0
 79 80  4  0  0  0  0
 80 81  4  0  0  0  0
 81 82  4  0  0  0  0
 82 83  4  0  0  0  0
 83 84  2  0  0  0  0
 84 85  4  0  0  0  0
 61 86  1  0  0  0  0
 82 86  4  0  0  0  0
 85 86  4  0  0  0  0
 85 87  4  0  0  0  0
 87 88  1  0  0  0  0
 88 89  4  0  0  0  0
 89 90  4  0  0  0  0
 90 91  4  0  0  0  0
 91 92  1  0  0  0  0
 91 93  4  0  0  0  0
 88 94  4  0  0  0  0
 93 94  4  0  0  0  0
 87 95  4  0  0  0  0
 95 96  4  0  0  0  0
 96 97  2  0  0  0  0
 62 98  4  0  0  0  0
 97 98  4  0  0  0  0
 61 99  1  0  0  0  0
 95 99  4  0  0  0  0
 98 99  4  0  0  0  0
 62100  1  0  0  0  0
 64101  1  0  0  0  0
 65102  1  0  0  0  0
 70103  1  0  0  0  0
 71104  1  0  0  0  0
 73105  1  0  0  0  0
 73106  1  0  0  0  0
 74107  1  0  0  0  0
 75108  1  0  0  0  0
 77109  1  0  0  0  0
 78110  1  0  0  0  0
 83111  1  0  0  0  0
 84112  1  0  0  0  0
 89113  1  0  0  0  0
 90114  1  0  0  0  0
 92115  1  0  0  0  0
 92116  1  0  0  0  0
 93117  1  0  0  0  0
 94118  1  0  0  0  0
 96119  1  0  0  0  0
 97120  1  0  0  0  0
 21121  4  0  0  0  0
121122  3  0  0  0  0
 81124  4  0  0  0  0
123124  3  0  0  0  0
122126  4  0  0  0  0
126127  4  0  0  0  0
127128  4  0  0  0  0
128129  2  0  0  0  0
129130  4  0  0  0  0
125131  1  0  0  0  0
127131  4  0  0  0  0
130131  4  0  0  0  0
130132  4  0  0  0  0
132133  1  0  0  0  0
133134  4  0  0  0  0
134135  4  0  0  0  0
135136  4  0  0  0  0
136137  1  0  0  0  0
136138  4  0  0  0  0
133139  4  0  0  0  0
138139  4  0  0  0  0
132140  4  0  0  0  0
140141  4  0  0  0  0
141142  2  0  0  0  0
125143  1  0  0  0  0
140143  4  0  0  0  0
142144  4  0  0  0  0
143144  4  0  0  0  0
123145  4  0  0  0  0
144145  4  0  0  0  0
145146  4  0  0  0  0
146147  4  0  0  0  0
147148  2  0  0  0  0
148149  4  0  0  0  0
125150  1  0  0  0  0
146150  4  0  0  0  0
149150  4  0  0  0  0
149151  4  0  0  0  0
151152  1  0  0  0  0
152153  4  0  0  0  0
153154  4  0  0  0  0
154155  4  0  0  0  0
155156  1  0  0  0  0
155157  4  0  0  0  0
152158  4  0  0  0  0
157158  4  0  0  0  0
151159  4  0  0  0  0
159160  4  0  0  0  0
160161  2  0  0  0  0
126162  4  0  0  0  0
161162  4  0  0  0  0
125163  1  0  0  0  0
159163  4  0  0  0  0
162163  4  0  0  0  0
128164  1  0  0  0  0
129165  1  0  0  0  0
134166  1  0  0  0  0
135167  1  0  0  0  0
137168  1  0  0  0  0
137169  1  0  0  0  0
138170  1  0  0  0  0
139171  1  0  0  0  0
141172  1  0  0  0  0
142173  1  0  0  0  0
147174  1  0  0  0  0
148175  1  0  0  0  0
153176  1  0  0  0  0
154177  1  0  0  0  0
156178  1  0  0  0  0
156179  1  0  0  0  0
157180  1  0  0  0  0
158181  1  0  0  0  0
160182  1  0  0  0  0
161183  1  0  0  0  0
M  END
