 xtb: 6.5.1 (b24c23e)
          07302214313D

122141  0     0  0            999 V2000
   15.6023    0.0197   -0.0008 Cu  0  0  0  0  0  0  0  0  0  0  0  0
   12.1994    0.0412    0.1508 C   0  0  0  0  0  0  0  0  0  0  0  0
   12.8400    1.2571    0.3360 C   0  0  0  0  0  0  0  0  0  0  0  0
   12.1708    2.5098    0.5414 C   0  0  0  0  0  0  0  0  0  0  0  0
   13.1340    3.4535    0.6832 C   0  0  0  0  0  0  0  0  0  0  0  0
   14.4017    2.7828    0.5771 C   0  0  0  0  0  0  0  0  0  0  0  0
   14.1918    1.4523    0.3577 N   0  0  0  0  0  0  0  0  0  0  0  0
   15.6502    3.4043    0.6645 C   0  0  0  0  0  0  0  0  0  0  0  0
   15.6702    4.8579    0.9578 C   0  0  0  0  0  0  0  0  0  0  0  0
   15.1340    5.3449    2.1522 C   0  0  0  0  0  0  0  0  0  0  0  0
   15.1524    6.6992    2.4332 C   0  0  0  0  0  0  0  0  0  0  0  0
   15.7058    7.5975    1.5159 C   0  0  0  0  0  0  0  0  0  0  0  0
   15.7241    8.9920    1.8009 C   0  0  0  0  0  0  0  0  0  0  0  0
   15.7367   10.1193    2.0316 N   0  0  0  0  0  0  0  0  0  0  0  0
   16.2413    7.1158    0.3177 C   0  0  0  0  0  0  0  0  0  0  0  0
   16.2244    5.7595    0.0461 C   0  0  0  0  0  0  0  0  0  0  0  0
   16.8799    2.7627    0.5021 C   0  0  0  0  0  0  0  0  0  0  0  0
   18.1619    3.3903    0.6562 C   0  0  0  0  0  0  0  0  0  0  0  0
   19.1013    2.4371    0.4316 C   0  0  0  0  0  0  0  0  0  0  0  0
   17.0591    1.4390    0.1996 N   0  0  0  0  0  0  0  0  0  0  0  0
   18.4013    1.2204    0.1475 C   0  0  0  0  0  0  0  0  0  0  0  0
   19.0283   -0.0048   -0.1400 C   0  0  0  0  0  0  0  0  0  0  0  0
   18.3626   -1.2196   -0.3801 C   0  0  0  0  0  0  0  0  0  0  0  0
   19.0199   -2.4459   -0.7195 C   0  0  0  0  0  0  0  0  0  0  0  0
   18.0517   -3.3853   -0.8678 C   0  0  0  0  0  0  0  0  0  0  0  0
   16.7955   -2.7397   -0.6096 C   0  0  0  0  0  0  0  0  0  0  0  0
   17.0175   -1.4186   -0.3243 N   0  0  0  0  0  0  0  0  0  0  0  0
   15.5481   -3.3651   -0.6643 C   0  0  0  0  0  0  0  0  0  0  0  0
   15.5226   -4.8202   -0.9505 C   0  0  0  0  0  0  0  0  0  0  0  0
   14.8815   -5.3053   -2.0928 C   0  0  0  0  0  0  0  0  0  0  0  0
   14.8536   -6.6617   -2.3633 C   0  0  0  0  0  0  0  0  0  0  0  0
   15.4649   -7.5636   -1.4873 C   0  0  0  0  0  0  0  0  0  0  0  0
   15.4334   -8.9604   -1.7598 C   0  0  0  0  0  0  0  0  0  0  0  0
   15.4064  -10.0893   -1.9806 N   0  0  0  0  0  0  0  0  0  0  0  0
   16.1062   -7.0835   -0.3415 C   0  0  0  0  0  0  0  0  0  0  0  0
   16.1353   -5.7253   -0.0808 C   0  0  0  0  0  0  0  0  0  0  0  0
   14.3201   -2.7277   -0.4685 C   0  0  0  0  0  0  0  0  0  0  0  0
   13.0397   -3.3825   -0.4599 C   0  0  0  0  0  0  0  0  0  0  0  0
   12.1049   -2.4269   -0.2333 C   0  0  0  0  0  0  0  0  0  0  0  0
   12.8054   -1.1826   -0.0903 C   0  0  0  0  0  0  0  0  0  0  0  0
   14.1472   -1.3947   -0.2331 N   0  0  0  0  0  0  0  0  0  0  0  0
   11.1154    0.0481    0.1997 H   0  0  0  0  0  0  0  0  0  0  0  0
   11.1001    2.6380    0.5618 H   0  0  0  0  0  0  0  0  0  0  0  0
   13.0044    4.5132    0.8333 H   0  0  0  0  0  0  0  0  0  0  0  0
   14.7151    4.6500    2.8714 H   0  0  0  0  0  0  0  0  0  0  0  0
   14.7399    7.0685    3.3648 H   0  0  0  0  0  0  0  0  0  0  0  0
   16.6680    7.8097   -0.3971 H   0  0  0  0  0  0  0  0  0  0  0  0
   16.6298    5.3911   -0.8895 H   0  0  0  0  0  0  0  0  0  0  0  0
   18.3200    4.4239    0.9183 H   0  0  0  0  0  0  0  0  0  0  0  0
   20.1744    2.5380    0.4614 H   0  0  0  0  0  0  0  0  0  0  0  0
   20.0856   -2.5615   -0.8360 H   0  0  0  0  0  0  0  0  0  0  0  0
   18.1724   -4.4209   -1.1416 H   0  0  0  0  0  0  0  0  0  0  0  0
   14.4157   -4.6081   -2.7801 H   0  0  0  0  0  0  0  0  0  0  0  0
   14.3590   -7.0299   -3.2546 H   0  0  0  0  0  0  0  0  0  0  0  0
   16.5781   -7.7801    0.3415 H   0  0  0  0  0  0  0  0  0  0  0  0
   16.6230   -5.3577    0.8150 H   0  0  0  0  0  0  0  0  0  0  0  0
   12.8840   -4.4405   -0.5964 H   0  0  0  0  0  0  0  0  0  0  0  0
   11.0352   -2.5418   -0.1569 H   0  0  0  0  0  0  0  0  0  0  0  0
   31.6296   -0.0205   -0.0000 Cu  0  0  0  0  0  0  0  0  0  0  0  0
   35.0325   -0.0341    0.1510 C   0  0  0  0  0  0  0  0  0  0  0  0
   34.3920   -1.2387    0.4001 C   0  0  0  0  0  0  0  0  0  0  0  0
   35.0613   -2.4788    0.6712 C   0  0  0  0  0  0  0  0  0  0  0  0
   34.0980   -3.4136    0.8634 C   0  0  0  0  0  0  0  0  0  0  0  0
   32.8303   -2.7494    0.7225 C   0  0  0  0  0  0  0  0  0  0  0  0
   33.0403   -1.4324    0.4326 N   0  0  0  0  0  0  0  0  0  0  0  0
   31.5819   -3.3652    0.8434 C   0  0  0  0  0  0  0  0  0  0  0  0
   31.5606   -4.8005    1.2162 C   0  0  0  0  0  0  0  0  0  0  0  0
   32.0947   -5.2208    2.4366 C   0  0  0  0  0  0  0  0  0  0  0  0
   32.0702   -6.5568    2.7943 C   0  0  0  0  0  0  0  0  0  0  0  0
   31.5128   -7.5036    1.9298 C   0  0  0  0  0  0  0  0  0  0  0  0
   31.4862   -8.8792    2.2946 C   0  0  0  0  0  0  0  0  0  0  0  0
   31.4658   -9.9907    2.5922 N   0  0  0  0  0  0  0  0  0  0  0  0
   30.9812   -7.0889    0.7050 C   0  0  0  0  0  0  0  0  0  0  0  0
   31.0041   -5.7504    0.3565 C   0  0  0  0  0  0  0  0  0  0  0  0
   30.3521   -2.7330    0.6474 C   0  0  0  0  0  0  0  0  0  0  0  0
   29.0700   -3.3517    0.8347 C   0  0  0  0  0  0  0  0  0  0  0  0
   28.1306   -2.4116    0.5603 C   0  0  0  0  0  0  0  0  0  0  0  0
   30.1727   -1.4272    0.2755 N   0  0  0  0  0  0  0  0  0  0  0  0
   28.8305   -1.2116    0.2125 C   0  0  0  0  0  0  0  0  0  0  0  0
   28.2035   -0.0030   -0.1384 C   0  0  0  0  0  0  0  0  0  0  0  0
   28.8694    1.1972   -0.4424 C   0  0  0  0  0  0  0  0  0  0  0  0
   28.2119    2.4037   -0.8462 C   0  0  0  0  0  0  0  0  0  0  0  0
   29.1799    3.3338   -1.0448 C   0  0  0  0  0  0  0  0  0  0  0  0
   30.4363    2.7029   -0.7529 C   0  0  0  0  0  0  0  0  0  0  0  0
   30.2144    1.3989   -0.3977 N   0  0  0  0  0  0  0  0  0  0  0  0
   31.6837    3.3247   -0.8412 C   0  0  0  0  0  0  0  0  0  0  0  0
   31.7073    4.7621   -1.2058 C   0  0  0  0  0  0  0  0  0  0  0  0
   32.3463    5.1856   -2.3734 C   0  0  0  0  0  0  0  0  0  0  0  0
   32.3674    6.5248   -2.7196 C   0  0  0  0  0  0  0  0  0  0  0  0
   31.7512    7.4714   -1.8956 C   0  0  0  0  0  0  0  0  0  0  0  0
   31.7727    8.8505   -2.2476 C   0  0  0  0  0  0  0  0  0  0  0  0
   31.7901    9.9651   -2.5332 N   0  0  0  0  0  0  0  0  0  0  0  0
   31.1135    7.0533   -0.7239 C   0  0  0  0  0  0  0  0  0  0  0  0
   31.0912    5.7118   -0.3873 C   0  0  0  0  0  0  0  0  0  0  0  0
   32.9117    2.6986   -0.6122 C   0  0  0  0  0  0  0  0  0  0  0  0
   34.1920    3.3529   -0.6386 C   0  0  0  0  0  0  0  0  0  0  0  0
   35.1269    2.4105   -0.3621 C   0  0  0  0  0  0  0  0  0  0  0  0
   34.4265    1.1754   -0.1536 C   0  0  0  0  0  0  0  0  0  0  0  0
   33.0846    1.3798   -0.3069 N   0  0  0  0  0  0  0  0  0  0  0  0
   36.1165   -0.0385    0.1998 H   0  0  0  0  0  0  0  0  0  0  0  0
   36.1320   -2.6060    0.6977 H   0  0  0  0  0  0  0  0  0  0  0  0
   34.2275   -4.4639    1.0695 H   0  0  0  0  0  0  0  0  0  0  0  0
   32.5160   -4.4878    3.1153 H   0  0  0  0  0  0  0  0  0  0  0  0
   32.4805   -6.8740    3.7459 H   0  0  0  0  0  0  0  0  0  0  0  0
   30.5521   -7.8207    0.0306 H   0  0  0  0  0  0  0  0  0  0  0  0
   30.6009   -5.4344   -0.5990 H   0  0  0  0  0  0  0  0  0  0  0  0
   28.9119   -4.3699    1.1510 H   0  0  0  0  0  0  0  0  0  0  0  0
   27.0575   -2.5109    0.5956 H   0  0  0  0  0  0  0  0  0  0  0  0
   27.1461    2.5129   -0.9682 H   0  0  0  0  0  0  0  0  0  0  0  0
   29.0589    4.3533   -1.3735 H   0  0  0  0  0  0  0  0  0  0  0  0
   32.8151    4.4532   -3.0209 H   0  0  0  0  0  0  0  0  0  0  0  0
   32.8596    6.8449   -3.6305 H   0  0  0  0  0  0  0  0  0  0  0  0
   30.6382    7.7848   -0.0808 H   0  0  0  0  0  0  0  0  0  0  0  0
   30.6057    5.3927    0.5280 H   0  0  0  0  0  0  0  0  0  0  0  0
   34.3476    4.4022   -0.8309 H   0  0  0  0  0  0  0  0  0  0  0  0
   36.1967    2.5293   -0.2922 H   0  0  0  0  0  0  0  0  0  0  0  0
   24.2299   -0.0046   -0.2192 C   0  0  0  0  0  0  0  0  0  0  0  0
   23.0020   -0.0134   -0.2178 C   0  0  0  0  0  0  0  0  0  0  0  0
   21.6572   -0.0115   -0.2046 C   0  0  0  0  0  0  0  0  0  0  0  0
   20.4339   -0.0145   -0.1831 C   0  0  0  0  0  0  0  0  0  0  0  0
   25.5748    0.0003   -0.2060 C   0  0  0  0  0  0  0  0  0  0  0  0
   26.7980    0.0055   -0.1831 C   0  0  0  0  0  0  0  0  0  0  0  0
  2  3  4  0  0  0  0
  3  4  1  0  0  0  0
  4  5  2  0  0  0  0
  5  6  4  0  0  0  0
  1  7  1  0  0  0  0
  3  7  4  0  0  0  0
  6  7  4  0  0  0  0
  6  8  4  0  0  0  0
  8  9  1  0  0  0  0
  9 10  4  0  0  0  0
 10 11  4  0  0  0  0
 11 12  4  0  0  0  0
 12 13  1  0  0  0  0
 13 14  3  0  0  0  0
 12 15  4  0  0  0  0
  9 16  4  0  0  0  0
 15 16  4  0  0  0  0
  8 17  4  0  0  0  0
 17 18  4  0  0  0  0
 18 19  2  0  0  0  0
  1 20  1  0  0  0  0
 17 20  4  0  0  0  0
 19 21  4  0  0  0  0
 20 21  4  0  0  0  0
 21 22  4  0  0  0  0
 22 23  4  0  0  0  0
 23 24  4  0  0  0  0
 24 25  2  0  0  0  0
 25 26  4  0  0  0  0
  1 27  1  0  0  0  0
 23 27  4  0  0  0  0
 26 27  4  0  0  0  0
 26 28  4  0  0  0  0
 28 29  1  0  0  0  0
 29 30  4  0  0  0  0
 30 31  4  0  0  0  0
 31 32  4  0  0  0  0
 32 33  1  0  0  0  0
 33 34  3  0  0  0  0
 32 35  4  0  0  0  0
 29 36  4  0  0  0  0
 35 36  4  0  0  0  0
 28 37  4  0  0  0  0
 37 38  4  0  0  0  0
 38 39  2  0  0  0  0
  2 40  4  0  0  0  0
 39 40  1  0  0  0  0
  1 41  1  0  0  0  0
 37 41  4  0  0  0  0
 40 41  4  0  0  0  0
  2 42  1  0  0  0  0
  4 43  1  0  0  0  0
  5 44  1  0  0  0  0
 10 45  1  0  0  0  0
 11 46  1  0  0  0  0
 15 47  1  0  0  0  0
 16 48  1  0  0  0  0
 18 49  1  0  0  0  0
 19 50  1  0  0  0  0
 24 51  1  0  0  0  0
 25 52  1  0  0  0  0
 30 53  1  0  0  0  0
 31 54  1  0  0  0  0
 35 55  1  0  0  0  0
 36 56  1  0  0  0  0
 38 57  1  0  0  0  0
 39 58  1  0  0  0  0
 60 61  4  0  0  0  0
 61 62  1  0  0  0  0
 62 63  2  0  0  0  0
 63 64  4  0  0  0  0
 59 65  1  0  0  0  0
 61 65  4  0  0  0  0
 64 65  4  0  0  0  0
 64 66  4  0  0  0  0
 66 67  1  0  0  0  0
 67 68  4  0  0  0  0
 68 69  4  0  0  0  0
 69 70  4  0  0  0  0
 70 71  1  0  0  0  0
 71 72  3  0  0  0  0
 70 73  4  0  0  0  0
 67 74  4  0  0  0  0
 73 74  4  0  0  0  0
 66 75  4  0  0  0  0
 75 76  4  0  0  0  0
 76 77  2  0  0  0  0
 59 78  1  0  0  0  0
 75 78  4  0  0  0  0
 77 79  4  0  0  0  0
 78 79  4  0  0  0  0
 79 80  4  0  0  0  0
 80 81  4  0  0  0  0
 81 82  4  0  0  0  0
 82 83  2  0  0  0  0
 83 84  4  0  0  0  0
 59 85  1  0  0  0  0
 81 85  4  0  0  0  0
 84 85  4  0  0  0  0
 84 86  4  0  0  0  0
 86 87  1  0  0  0  0
 87 88  4  0  0  0  0
 88 89  4  0  0  0  0
 89 90  4  0  0  0  0
 90 91  1  0  0  0  0
 91 92  3  0  0  0  0
 90 93  4  0  0  0  0
 87 94  4  0  0  0  0
 93 94  4  0  0  0  0
 86 95  4  0  0  0  0
 95 96  4  0  0  0  0
 96 97  2  0  0  0  0
 60 98  4  0  0  0  0
 97 98  1  0  0  0  0
 59 99  1  0  0  0  0
 95 99  4  0  0  0  0
 98 99  4  0  0  0  0
 60100  1  0  0  0  0
 62101  1  0  0  0  0
 63102  1  0  0  0  0
 68103  1  0  0  0  0
 69104  1  0  0  0  0
 73105  1  0  0  0  0
 74106  1  0  0  0  0
 76107  1  0  0  0  0
 77108  1  0  0  0  0
 82109  1  0  0  0  0
 83110  1  0  0  0  0
 88111  1  0  0  0  0
 89112  1  0  0  0  0
 93113  1  0  0  0  0
 94114  1  0  0  0  0
 96115  1  0  0  0  0
 97116  1  0  0  0  0
117118  3  0  0  0  0
118119  4  0  0  0  0
 22120  4  0  0  0  0
119120  3  0  0  0  0
117121  4  0  0  0  0
 80122  4  0  0  0  0
121122  3  0  0  0  0
M  END
