214

C 16.614997 -0.002694 -0.001026
C 17.349430 -1.379852 -0.072912
C 16.762284 -2.623517 -0.137829
C 17.814203 -3.579415 -0.187730
C 19.002655 -2.882229 -0.151341
N 18.710962 -1.546550 -0.081614
C 20.434010 -3.500551 -0.183627
C 21.556572 -2.755744 -0.144744
C 22.841558 -3.408210 -0.178814
C 23.778841 -2.466982 -0.129676
N 21.778403 -1.413527 -0.074668
C 23.127781 -1.169114 -0.061915
C 23.824543 -0.001363 -0.000955
C 23.049878 1.390925 0.071732
C 23.613456 2.651464 0.137546
C 22.555432 3.595622 0.186835
C 21.377521 2.885692 0.149762
N 21.682869 1.548557 0.079954
C 19.944724 3.510255 0.182360
C 18.827203 2.760647 0.143226
C 17.523434 3.385368 0.175831
C 16.606951 2.421314 0.125506
C 17.301006 1.155678 0.059443
N 18.637088 1.416904 0.073082
H 15.532280 0.005523 -0.000600
H 15.701608 -2.821183 -0.148146
H 17.714938 -4.652477 -0.243746
H 19.390987 -0.790511 -0.042152
H 20.512053 -4.579984 -0.239985
H 23.006519 -4.469125 -0.234205
H 24.836881 -2.654381 -0.139464
H 24.668830 2.876240 0.149286
H 22.643859 4.669718 0.242912
H 21.004166 0.790715 0.040388
H 19.863492 4.589134 0.238678
H 17.337460 4.442524 0.231013
H 15.540070 2.550715 0.132256
C 101.247717 -0.000051 -0.001196
C 100.513284 1.356485 -0.249271
C 101.100430 2.581527 -0.473298
C 100.048511 3.523111 -0.645494
C 98.860059 2.836364 -0.519910
N 99.151752 1.520687 -0.279300
C 97.428704 3.445426 -0.631301
C 96.306142 2.711773 -0.497130
C 95.021156 3.354467 -0.614674
C 94.083873 2.427334 -0.445119
N 96.084311 1.389656 -0.255335
C 94.734933 1.148903 -0.211313
C 94.038171 -0.001363 -0.000955
C 94.812836 -1.372801 0.249857
C 94.249258 -2.614462 0.476940
C 95.307282 -3.544481 0.647020
C 96.485193 -2.845184 0.519122
N 96.179845 -1.528072 0.278245
C 97.917990 -3.460395 0.631624
C 99.035511 -2.722012 0.496588
C 100.339280 -3.337379 0.609118
C 101.255763 -2.387762 0.435455
C 100.561708 -1.141077 0.207470
N 99.225626 -1.398391 0.254530
H 102.330434 -0.008146 0.000281
H 102.161106 2.776234 -0.508904
H 100.147776 4.580105 -0.838793
H 98.471727 0.775969 -0.143112
H 97.350661 4.508694 -0.825758
H 94.856195 4.399494 -0.805795
H 93.025833 2.611926 -0.478882
H 93.193884 -2.835871 0.517436
H 95.218855 -4.602493 0.840514
H 96.858548 -0.781580 0.141724
H 97.999222 -4.523119 0.825970
H 100.525254 -4.378705 0.799549
H 102.322644 -2.515225 0.458761
C 27.057417 0.007750 0.005419
C 28.515643 -0.014087 -0.012454
C 29.649572 -0.034840 -0.013945
C 31.010953 -0.047430 -0.016136
C 32.285172 -0.037124 -0.020901
C 33.473634 -0.018326 -0.027057
C 34.825995 0.006459 -0.011189
C 35.926263 0.007750 0.005419
C 45.324782 0.007750 0.005419
C 46.783008 -0.014087 -0.012454
C 47.916936 -0.034840 -0.013945
C 49.278318 -0.047430 -0.016136
C 50.552537 -0.037124 -0.020901
C 51.740999 -0.018326 -0.027057
C 53.093360 0.006459 -0.011189
C 54.193627 0.007750 0.005419
C 63.592146 0.007750 0.005419
C 65.050373 -0.014087 -0.012454
C 66.184301 -0.034840 -0.013945
C 67.545682 -0.047430 -0.016136
C 68.819901 -0.037124 -0.020901
C 70.008364 -0.018326 -0.027057
C 71.360724 0.006459 -0.011189
C 72.460992 0.007750 0.005419
C 81.859511 0.007750 0.005419
C 83.317737 -0.014087 -0.012454
C 84.451665 -0.034840 -0.013945
C 85.813047 -0.047430 -0.016136
C 87.087266 -0.037124 -0.020901
C 88.275728 -0.018326 -0.027057
C 89.628089 0.006459 -0.011189
C 90.728356 0.007750 0.005419
C 37.009296 -0.001363 -0.000951
C 37.789336 1.386172 -0.018277
C 37.237232 2.652274 -0.034100
C 38.305848 3.584897 -0.045732
C 39.476756 2.861269 -0.036673
N 39.158063 1.528242 -0.020031
C 40.909128 3.475937 -0.044320
C 42.034753 2.737885 -0.035112
C 43.315051 3.401282 -0.043365
C 44.259501 2.466310 -0.031703
N 42.264743 1.397393 -0.018405
C 43.616475 1.163840 -0.015480
C 44.318688 -0.001363 -0.000951
C 43.538649 -1.388898 0.016330
C 44.090754 -2.655001 0.032066
C 43.022136 -3.587624 0.043703
C 41.851229 -2.863995 0.034730
N 42.169922 -1.530967 0.018127
C 40.418857 -3.478662 0.042422
C 39.293232 -2.740609 0.033221
C 38.012934 -3.404006 0.041518
C 37.068484 -2.469034 0.029855
C 37.711510 -1.166564 0.013587
N 39.063242 -1.400118 0.016487
H 36.184029 2.887496 -0.037055
H 38.229219 4.661398 -0.059179
H 39.822876 0.757634 -0.010404
H 40.986017 4.557276 -0.057793
H 43.472197 4.464827 -0.056618
H 45.316395 2.660513 -0.034113
H 45.143956 -2.890224 0.034960
H 43.098766 -4.664125 0.057095
H 41.505108 -0.760358 0.008543
H 40.341968 -4.560000 0.055925
H 37.855788 -4.467550 0.054799
H 36.011590 -2.663237 0.032292
C 55.276661 -0.001363 -0.000951
C 56.056701 1.386172 -0.018277
C 55.504596 2.652274 -0.034100
C 56.573213 3.584897 -0.045732
C 57.744121 2.861269 -0.036673
N 57.425428 1.528242 -0.020031
C 59.176493 3.475937 -0.044320
C 60.302118 2.737885 -0.035112
C 61.582415 3.401282 -0.043365
C 62.526866 2.466310 -0.031703
N 60.532107 1.397393 -0.018405
C 61.883839 1.163840 -0.015480
C 62.586053 -0.001363 -0.000951
C 61.806013 -1.388898 0.016330
C 62.358118 -2.655001 0.032066
C 61.289501 -3.587624 0.043703
C 60.118593 -2.863995 0.034730
N 60.437286 -1.530967 0.018127
C 58.686221 -3.478662 0.042422
C 57.560597 -2.740609 0.033221
C 56.280299 -3.404006 0.041518
C 55.335848 -2.469034 0.029855
C 55.978875 -1.166564 0.013587
N 57.330607 -1.400118 0.016487
H 54.451393 2.887496 -0.037055
H 56.496583 4.661398 -0.059179
H 58.090241 0.757634 -0.010404
H 59.253381 4.557276 -0.057793
H 61.739562 4.464827 -0.056618
H 63.583760 2.660513 -0.034113
H 63.411321 -2.890224 0.034960
H 61.366130 -4.664125 0.057095
H 59.772473 -0.760358 0.008543
H 58.609333 -4.560000 0.055925
H 56.123153 -4.467550 0.054799
H 54.278954 -2.663237 0.032292
C 73.544026 -0.001363 -0.000951
C 74.324065 1.386172 -0.018277
C 73.771961 2.652274 -0.034100
C 74.840578 3.584897 -0.045732
C 76.011485 2.861269 -0.036673
N 75.692792 1.528242 -0.020031
C 77.443857 3.475937 -0.044320
C 78.569482 2.737885 -0.035112
C 79.849780 3.401282 -0.043365
C 80.794230 2.466310 -0.031703
N 78.799472 1.397393 -0.018405
C 80.151204 1.163840 -0.015480
C 80.853418 -0.001363 -0.000951
C 80.073378 -1.388898 0.016330
C 80.625483 -2.655001 0.032066
C 79.556865 -3.587624 0.043703
C 78.385958 -2.863995 0.034730
N 78.704651 -1.530967 0.018127
C 76.953586 -3.478662 0.042422
C 75.827961 -2.740609 0.033221
C 74.547663 -3.404006 0.041518
C 73.603213 -2.469034 0.029855
C 74.246239 -1.166564 0.013587
N 75.597971 -1.400118 0.016487
H 72.718758 2.887496 -0.037055
H 74.763948 4.661398 -0.059179
H 76.357606 0.757634 -0.010404
H 77.520746 4.557276 -0.057793
H 80.006926 4.464827 -0.056618
H 81.851124 2.660513 -0.034113
H 81.678685 -2.890224 0.034960
H 79.633495 -4.664125 0.057095
H 78.039837 -0.760358 0.008543
H 76.876697 -4.560000 0.055925
H 74.390518 -4.467550 0.054799
H 72.546319 -2.663237 0.032292
