 xtb: 6.5.1 (b24c23e)
          07262217013D

214238  0     0  0            999 V2000
   18.0126   -0.0598    0.0014 C   0  0  0  0  0  0  0  0  0  0  0  0
   18.6350   -1.3000   -0.0627 C   0  0  0  0  0  0  0  0  0  0  0  0
   18.0195   -2.5832   -0.1266 C   0  0  0  0  0  0  0  0  0  0  0  0
   19.0106   -3.5226   -0.1774 C   0  0  0  0  0  0  0  0  0  0  0  0
   20.2626   -2.8434   -0.1457 C   0  0  0  0  0  0  0  0  0  0  0  0
   19.9848   -1.5089   -0.0767 N   0  0  0  0  0  0  0  0  0  0  0  0
   21.5306   -3.4122   -0.1771 C   0  0  0  0  0  0  0  0  0  0  0  0
   22.7518   -2.7547   -0.1438 C   0  0  0  0  0  0  0  0  0  0  0  0
   24.0284   -3.4464   -0.1791 C   0  0  0  0  0  0  0  0  0  0  0  0
   24.9807   -2.4922   -0.1283 C   0  0  0  0  0  0  0  0  0  0  0  0
   22.9491   -1.4098   -0.0742 N   0  0  0  0  0  0  0  0  0  0  0  0
   24.2823   -1.2210   -0.0633 C   0  0  0  0  0  0  0  0  0  0  0  0
   24.9408    0.0253    0.0004 C   0  0  0  0  0  0  0  0  0  0  0  0
   24.2921    1.2736    0.0603 C   0  0  0  0  0  0  0  0  0  0  0  0
   24.9019    2.5558    0.1221 C   0  0  0  0  0  0  0  0  0  0  0  0
   23.9067    3.4929    0.1659 C   0  0  0  0  0  0  0  0  0  0  0  0
   22.6591    2.8093    0.1327 C   0  0  0  0  0  0  0  0  0  0  0  0
   22.9447    1.4720    0.0688 N   0  0  0  0  0  0  0  0  0  0  0  0
   21.3926    3.3794    0.1609 C   0  0  0  0  0  0  0  0  0  0  0  0
   20.1701    2.7196    0.1314 C   0  0  0  0  0  0  0  0  0  0  0  0
   18.8871    3.4048    0.1679 C   0  0  0  0  0  0  0  0  0  0  0  0
   17.9410    2.4454    0.1244 C   0  0  0  0  0  0  0  0  0  0  0  0
   18.6468    1.1754    0.0607 C   0  0  0  0  0  0  0  0  0  0  0  0
   19.9857    1.3803    0.0672 N   0  0  0  0  0  0  0  0  0  0  0  0
   16.9278   -0.0652    0.0041 H   0  0  0  0  0  0  0  0  0  0  0  0
   16.9541   -2.7501   -0.1323 H   0  0  0  0  0  0  0  0  0  0  0  0
   18.8985   -4.5939   -0.2320 H   0  0  0  0  0  0  0  0  0  0  0  0
   20.6797   -0.7707   -0.0408 H   0  0  0  0  0  0  0  0  0  0  0  0
   21.5595   -4.4957   -0.2332 H   0  0  0  0  0  0  0  0  0  0  0  0
   24.1458   -4.5173   -0.2348 H   0  0  0  0  0  0  0  0  0  0  0  0
   26.0531   -2.6064   -0.1334 H   0  0  0  0  0  0  0  0  0  0  0  0
   25.9665    2.7263    0.1309 H   0  0  0  0  0  0  0  0  0  0  0  0
   24.0153    4.5646    0.2170 H   0  0  0  0  0  0  0  0  0  0  0  0
   22.2523    0.7310    0.0330 H   0  0  0  0  0  0  0  0  0  0  0  0
   21.3653    4.4631    0.2128 H   0  0  0  0  0  0  0  0  0  0  0  0
   18.7637    4.4754    0.2200 H   0  0  0  0  0  0  0  0  0  0  0  0
   16.8674    2.5519    0.1326 H   0  0  0  0  0  0  0  0  0  0  0  0
   99.8691    0.0514   -0.0243 C   0  0  0  0  0  0  0  0  0  0  0  0
   99.2464    1.2749   -0.2361 C   0  0  0  0  0  0  0  0  0  0  0  0
   99.8613    2.5401   -0.4605 C   0  0  0  0  0  0  0  0  0  0  0  0
   98.8699    3.4678   -0.6151 C   0  0  0  0  0  0  0  0  0  0  0  0
   97.6182    2.7987   -0.4911 C   0  0  0  0  0  0  0  0  0  0  0  0
   97.8965    1.4821   -0.2638 N   0  0  0  0  0  0  0  0  0  0  0  0
   96.3500    3.3606   -0.5824 C   0  0  0  0  0  0  0  0  0  0  0  0
   95.1290    2.7119   -0.4679 C   0  0  0  0  0  0  0  0  0  0  0  0
   93.8523    3.3941   -0.5855 C   0  0  0  0  0  0  0  0  0  0  0  0
   92.9002    2.4517   -0.4261 C   0  0  0  0  0  0  0  0  0  0  0  0
   94.9321    1.3846   -0.2399 N   0  0  0  0  0  0  0  0  0  0  0  0
   93.5990    1.1974   -0.2101 C   0  0  0  0  0  0  0  0  0  0  0  0
   92.9407   -0.0328    0.0002 C   0  0  0  0  0  0  0  0  0  0  0  0
   93.5897   -1.2626    0.2211 C   0  0  0  0  0  0  0  0  0  0  0  0
   92.9805   -2.5264    0.4473 C   0  0  0  0  0  0  0  0  0  0  0  0
   93.9759   -3.4487    0.6174 C   0  0  0  0  0  0  0  0  0  0  0  0
   95.2233   -2.7741    0.4987 C   0  0  0  0  0  0  0  0  0  0  0  0
   94.9372   -1.4568    0.2603 N   0  0  0  0  0  0  0  0  0  0  0  0
   96.4900   -3.3354    0.5999 C   0  0  0  0  0  0  0  0  0  0  0  0
   97.7124   -2.6858    0.4789 C   0  0  0  0  0  0  0  0  0  0  0  0
   98.9955   -3.3618    0.5944 C   0  0  0  0  0  0  0  0  0  0  0  0
   99.9413   -2.4174    0.4180 C   0  0  0  0  0  0  0  0  0  0  0  0
   99.2352   -1.1656    0.1965 C   0  0  0  0  0  0  0  0  0  0  0  0
   97.8964   -1.3663    0.2399 N   0  0  0  0  0  0  0  0  0  0  0  0
  100.9539    0.0557   -0.0319 H   0  0  0  0  0  0  0  0  0  0  0  0
  100.9267    2.7039   -0.4960 H   0  0  0  0  0  0  0  0  0  0  0  0
   98.9816    4.5245   -0.7996 H   0  0  0  0  0  0  0  0  0  0  0  0
   97.2019    0.7544   -0.1328 H   0  0  0  0  0  0  0  0  0  0  0  0
   96.3207    4.4298   -0.7666 H   0  0  0  0  0  0  0  0  0  0  0  0
   93.7345    4.4511   -0.7663 H   0  0  0  0  0  0  0  0  0  0  0  0
   91.8278    2.5639   -0.4467 H   0  0  0  0  0  0  0  0  0  0  0  0
   91.9159   -2.6954    0.4748 H   0  0  0  0  0  0  0  0  0  0  0  0
   93.8678   -4.5045    0.8082 H   0  0  0  0  0  0  0  0  0  0  0  0
   95.6293   -0.7261    0.1304 H   0  0  0  0  0  0  0  0  0  0  0  0
   96.5177   -4.4030    0.7931 H   0  0  0  0  0  0  0  0  0  0  0  0
   99.1192   -4.4166    0.7843 H   0  0  0  0  0  0  0  0  0  0  0  0
  101.0149   -2.5233    0.4310 H   0  0  0  0  0  0  0  0  0  0  0  0
   26.3447    0.0356    0.0047 C   0  0  0  0  0  0  0  0  0  0  0  0
   27.5698    0.0462    0.0085 C   0  0  0  0  0  0  0  0  0  0  0  0
   28.9122    0.0536    0.0115 C   0  0  0  0  0  0  0  0  0  0  0  0
   30.1435    0.0578    0.0119 C   0  0  0  0  0  0  0  0  0  0  0  0
   31.4812    0.0600    0.0123 C   0  0  0  0  0  0  0  0  0  0  0  0
   32.7126    0.0611    0.0118 C   0  0  0  0  0  0  0  0  0  0  0  0
   34.0547    0.0612    0.0083 C   0  0  0  0  0  0  0  0  0  0  0  0
   35.2801    0.0579    0.0037 C   0  0  0  0  0  0  0  0  0  0  0  0
   45.0940    0.0005    0.0026 C   0  0  0  0  0  0  0  0  0  0  0  0
   46.3196   -0.0039    0.0024 C   0  0  0  0  0  0  0  0  0  0  0  0
   47.6618   -0.0054    0.0022 C   0  0  0  0  0  0  0  0  0  0  0  0
   48.8935   -0.0074   -0.0007 C   0  0  0  0  0  0  0  0  0  0  0  0
   50.2311   -0.0078   -0.0032 C   0  0  0  0  0  0  0  0  0  0  0  0
   51.4627   -0.0075   -0.0061 C   0  0  0  0  0  0  0  0  0  0  0  0
   52.8050   -0.0053   -0.0085 C   0  0  0  0  0  0  0  0  0  0  0  0
   54.0307   -0.0035   -0.0106 C   0  0  0  0  0  0  0  0  0  0  0  0
   63.8507   -0.0049   -0.0161 C   0  0  0  0  0  0  0  0  0  0  0  0
   65.0763   -0.0035   -0.0263 C   0  0  0  0  0  0  0  0  0  0  0  0
   66.4185   -0.0018   -0.0346 C   0  0  0  0  0  0  0  0  0  0  0  0
   67.6502   -0.0019   -0.0403 C   0  0  0  0  0  0  0  0  0  0  0  0
   68.9878   -0.0019   -0.0410 C   0  0  0  0  0  0  0  0  0  0  0  0
   70.2195   -0.0030   -0.0370 C   0  0  0  0  0  0  0  0  0  0  0  0
   71.5617   -0.0048   -0.0293 C   0  0  0  0  0  0  0  0  0  0  0  0
   72.7873   -0.0087   -0.0190 C   0  0  0  0  0  0  0  0  0  0  0  0
   82.6014   -0.0653   -0.0223 C   0  0  0  0  0  0  0  0  0  0  0  0
   83.8268   -0.0695   -0.0316 C   0  0  0  0  0  0  0  0  0  0  0  0
   85.1690   -0.0704   -0.0374 C   0  0  0  0  0  0  0  0  0  0  0  0
   86.4004   -0.0705   -0.0388 C   0  0  0  0  0  0  0  0  0  0  0  0
   87.7381   -0.0681   -0.0353 C   0  0  0  0  0  0  0  0  0  0  0  0
   88.9694   -0.0629   -0.0279 C   0  0  0  0  0  0  0  0  0  0  0  0
   90.3117   -0.0559   -0.0182 C   0  0  0  0  0  0  0  0  0  0  0  0
   91.5368   -0.0448   -0.0077 C   0  0  0  0  0  0  0  0  0  0  0  0
   36.6830    0.0540    0.0000 C   0  0  0  0  0  0  0  0  0  0  0  0
   37.3312    1.3048   -0.0136 C   0  0  0  0  0  0  0  0  0  0  0  0
   36.7270    2.5896   -0.0271 C   0  0  0  0  0  0  0  0  0  0  0  0
   37.7276    3.5232   -0.0395 C   0  0  0  0  0  0  0  0  0  0  0  0
   38.9710    2.8330   -0.0332 C   0  0  0  0  0  0  0  0  0  0  0  0
   38.6797    1.4966   -0.0176 N   0  0  0  0  0  0  0  0  0  0  0  0
   40.2400    3.4026   -0.0404 C   0  0  0  0  0  0  0  0  0  0  0  0
   41.4684    2.7596   -0.0323 C   0  0  0  0  0  0  0  0  0  0  0  0
   42.7355    3.4695   -0.0392 C   0  0  0  0  0  0  0  0  0  0  0  0
   43.7011    2.5272   -0.0269 C   0  0  0  0  0  0  0  0  0  0  0  0
   41.6844    1.4159   -0.0165 N   0  0  0  0  0  0  0  0  0  0  0  0
   43.0203    1.2456   -0.0128 C   0  0  0  0  0  0  0  0  0  0  0  0
   43.6910    0.0042    0.0016 C   0  0  0  0  0  0  0  0  0  0  0  0
   43.0425   -1.2466    0.0134 C   0  0  0  0  0  0  0  0  0  0  0  0
   43.6463   -2.5316    0.0264 C   0  0  0  0  0  0  0  0  0  0  0  0
   42.6455   -3.4651    0.0329 C   0  0  0  0  0  0  0  0  0  0  0  0
   41.4022   -2.7747    0.0241 C   0  0  0  0  0  0  0  0  0  0  0  0
   41.6939   -1.4381    0.0127 N   0  0  0  0  0  0  0  0  0  0  0  0
   40.1335   -3.3445    0.0269 C   0  0  0  0  0  0  0  0  0  0  0  0
   38.9048   -2.7016    0.0207 C   0  0  0  0  0  0  0  0  0  0  0  0
   37.6377   -3.4114    0.0265 C   0  0  0  0  0  0  0  0  0  0  0  0
   36.6721   -2.4689    0.0201 C   0  0  0  0  0  0  0  0  0  0  0  0
   37.3532   -1.1875    0.0096 C   0  0  0  0  0  0  0  0  0  0  0  0
   38.6892   -1.3581    0.0102 N   0  0  0  0  0  0  0  0  0  0  0  0
   35.6632    2.7654   -0.0276 H   0  0  0  0  0  0  0  0  0  0  0  0
   37.6239    4.5965   -0.0517 H   0  0  0  0  0  0  0  0  0  0  0  0
   39.3647    0.7479   -0.0102 H   0  0  0  0  0  0  0  0  0  0  0  0
   40.2609    4.4880   -0.0532 H   0  0  0  0  0  0  0  0  0  0  0  0
   42.8383    4.5432   -0.0516 H   0  0  0  0  0  0  0  0  0  0  0  0
   44.7719    2.6559   -0.0269 H   0  0  0  0  0  0  0  0  0  0  0  0
   44.7100   -2.7077    0.0302 H   0  0  0  0  0  0  0  0  0  0  0  0
   42.7489   -4.5384    0.0429 H   0  0  0  0  0  0  0  0  0  0  0  0
   41.0090   -0.6894    0.0043 H   0  0  0  0  0  0  0  0  0  0  0  0
   40.1127   -4.4299    0.0358 H   0  0  0  0  0  0  0  0  0  0  0  0
   37.5346   -4.4851    0.0346 H   0  0  0  0  0  0  0  0  0  0  0  0
   35.6014   -2.5973    0.0216 H   0  0  0  0  0  0  0  0  0  0  0  0
   55.4336    0.0004   -0.0088 C   0  0  0  0  0  0  0  0  0  0  0  0
   56.0756    1.2546   -0.0231 C   0  0  0  0  0  0  0  0  0  0  0  0
   55.4656    2.5366   -0.0401 C   0  0  0  0  0  0  0  0  0  0  0  0
   56.4620    3.4748   -0.0475 C   0  0  0  0  0  0  0  0  0  0  0  0
   57.7086    2.7905   -0.0358 C   0  0  0  0  0  0  0  0  0  0  0  0
   57.4233    1.4526   -0.0216 N   0  0  0  0  0  0  0  0  0  0  0  0
   58.9746    3.3668   -0.0383 C   0  0  0  0  0  0  0  0  0  0  0  0
   60.2072    2.7319   -0.0303 C   0  0  0  0  0  0  0  0  0  0  0  0
   61.4696    3.4503   -0.0371 C   0  0  0  0  0  0  0  0  0  0  0  0
   62.4416    2.5145   -0.0305 C   0  0  0  0  0  0  0  0  0  0  0  0
   60.4324    1.3898   -0.0179 N   0  0  0  0  0  0  0  0  0  0  0  0
   61.7694    1.2285   -0.0185 C   0  0  0  0  0  0  0  0  0  0  0  0
   62.4479   -0.0088   -0.0075 C   0  0  0  0  0  0  0  0  0  0  0  0
   61.8058   -1.2629    0.0125 C   0  0  0  0  0  0  0  0  0  0  0  0
   62.4158   -2.5449    0.0321 C   0  0  0  0  0  0  0  0  0  0  0  0
   61.4194   -3.4830    0.0489 C   0  0  0  0  0  0  0  0  0  0  0  0
   60.1728   -2.7986    0.0393 C   0  0  0  0  0  0  0  0  0  0  0  0
   60.4582   -1.4609    0.0181 N   0  0  0  0  0  0  0  0  0  0  0  0
   58.9068   -3.3749    0.0470 C   0  0  0  0  0  0  0  0  0  0  0  0
   57.6742   -2.7401    0.0344 C   0  0  0  0  0  0  0  0  0  0  0  0
   56.4118   -3.4584    0.0405 C   0  0  0  0  0  0  0  0  0  0  0  0
   55.4398   -2.5228    0.0240 C   0  0  0  0  0  0  0  0  0  0  0  0
   56.1120   -1.2368    0.0086 C   0  0  0  0  0  0  0  0  0  0  0  0
   57.4491   -1.3980    0.0147 N   0  0  0  0  0  0  0  0  0  0  0  0
   54.4011    2.7077   -0.0457 H   0  0  0  0  0  0  0  0  0  0  0  0
   56.3535    4.5476   -0.0603 H   0  0  0  0  0  0  0  0  0  0  0  0
   58.1112    0.7067   -0.0106 H   0  0  0  0  0  0  0  0  0  0  0  0
   58.9890    4.4524   -0.0489 H   0  0  0  0  0  0  0  0  0  0  0  0
   61.5652    4.5247   -0.0461 H   0  0  0  0  0  0  0  0  0  0  0  0
   63.5115    2.6503   -0.0326 H   0  0  0  0  0  0  0  0  0  0  0  0
   63.4803   -2.7160    0.0334 H   0  0  0  0  0  0  0  0  0  0  0  0
   61.5279   -4.5557    0.0664 H   0  0  0  0  0  0  0  0  0  0  0  0
   59.7702   -0.7149    0.0072 H   0  0  0  0  0  0  0  0  0  0  0  0
   58.8924   -4.4604    0.0636 H   0  0  0  0  0  0  0  0  0  0  0  0
   56.3162   -4.5328    0.0551 H   0  0  0  0  0  0  0  0  0  0  0  0
   54.3699   -2.6587    0.0222 H   0  0  0  0  0  0  0  0  0  0  0  0
   74.1902   -0.0120   -0.0083 C   0  0  0  0  0  0  0  0  0  0  0  0
   74.8387    1.2387   -0.0248 C   0  0  0  0  0  0  0  0  0  0  0  0
   74.2348    2.5237   -0.0443 C   0  0  0  0  0  0  0  0  0  0  0  0
   75.2356    3.4571   -0.0511 C   0  0  0  0  0  0  0  0  0  0  0  0
   76.4789    2.7669   -0.0377 C   0  0  0  0  0  0  0  0  0  0  0  0
   76.1872    1.4303   -0.0215 N   0  0  0  0  0  0  0  0  0  0  0  0
   77.7477    3.3367   -0.0441 C   0  0  0  0  0  0  0  0  0  0  0  0
   78.9764    2.6939   -0.0396 C   0  0  0  0  0  0  0  0  0  0  0  0
   80.2435    3.4037   -0.0559 C   0  0  0  0  0  0  0  0  0  0  0  0
   81.2091    2.4614   -0.0507 C   0  0  0  0  0  0  0  0  0  0  0  0
   79.1922    1.3505   -0.0231 N   0  0  0  0  0  0  0  0  0  0  0  0
   80.5282    1.1800   -0.0291 C   0  0  0  0  0  0  0  0  0  0  0  0
   81.1986   -0.0613   -0.0121 C   0  0  0  0  0  0  0  0  0  0  0  0
   80.5505   -1.3118    0.0191 C   0  0  0  0  0  0  0  0  0  0  0  0
   81.1547   -2.5964    0.0462 C   0  0  0  0  0  0  0  0  0  0  0  0
   80.1540   -3.5297    0.0749 C   0  0  0  0  0  0  0  0  0  0  0  0
   78.9107   -2.8396    0.0648 C   0  0  0  0  0  0  0  0  0  0  0  0
   79.2019   -1.5035    0.0313 N   0  0  0  0  0  0  0  0  0  0  0  0
   77.6417   -3.4090    0.0818 C   0  0  0  0  0  0  0  0  0  0  0  0
   76.4132   -2.7664    0.0648 C   0  0  0  0  0  0  0  0  0  0  0  0
   75.1462   -3.4763    0.0771 C   0  0  0  0  0  0  0  0  0  0  0  0
   74.1805   -2.5346    0.0485 C   0  0  0  0  0  0  0  0  0  0  0  0
   74.8612   -1.2531    0.0212 C   0  0  0  0  0  0  0  0  0  0  0  0
   76.1970   -1.4230    0.0313 N   0  0  0  0  0  0  0  0  0  0  0  0
   73.1712    2.6997   -0.0511 H   0  0  0  0  0  0  0  0  0  0  0  0
   75.1323    4.5304   -0.0649 H   0  0  0  0  0  0  0  0  0  0  0  0
   76.8721    0.6816   -0.0087 H   0  0  0  0  0  0  0  0  0  0  0  0
   77.7684    4.4220   -0.0572 H   0  0  0  0  0  0  0  0  0  0  0  0
   80.3464    4.4774   -0.0701 H   0  0  0  0  0  0  0  0  0  0  0  0
   82.2798    2.5899   -0.0593 H   0  0  0  0  0  0  0  0  0  0  0  0
   82.2184   -2.7723    0.0443 H   0  0  0  0  0  0  0  0  0  0  0  0
   80.2578   -4.6028    0.1003 H   0  0  0  0  0  0  0  0  0  0  0  0
   78.5170   -0.7548    0.0174 H   0  0  0  0  0  0  0  0  0  0  0  0
   77.6209   -4.4941    0.1088 H   0  0  0  0  0  0  0  0  0  0  0  0
   75.0436   -4.5499    0.1033 H   0  0  0  0  0  0  0  0  0  0  0  0
   73.1098   -2.6635    0.0466 H   0  0  0  0  0  0  0  0  0  0  0  0
  1  2  4  0  0  0  0
  2  3  4  0  0  0  0
  3  4  2  0  0  0  0
  4  5  4  0  0  0  0
  2  6  4  0  0  0  0
  5  6  4  0  0  0  0
  5  7  4  0  0  0  0
  7  8  4  0  0  0  0
  8  9  1  0  0  0  0
  9 10  2  0  0  0  0
  8 11  4  0  0  0  0
 10 12  1  0  0  0  0
 11 12  4  0  0  0  0
 12 13  4  0  0  0  0
 13 14  4  0  0  0  0
 14 15  4  0  0  0  0
 15 16  2  0  0  0  0
 16 17  4  0  0  0  0
 14 18  4  0  0  0  0
 17 18  4  0  0  0  0
 17 19  4  0  0  0  0
 19 20  4  0  0  0  0
 20 21  1  0  0  0  0
 21 22  2  0  0  0  0
  1 23  4  0  0  0  0
 22 23  1  0  0  0  0
 20 24  4  0  0  0  0
 23 24  4  0  0  0  0
  1 25  1  0  0  0  0
  3 26  1  0  0  0  0
  4 27  1  0  0  0  0
  6 28  1  0  0  0  0
  7 29  1  0  0  0  0
  9 30  1  0  0  0  0
 10 31  1  0  0  0  0
 15 32  1  0  0  0  0
 16 33  1  0  0  0  0
 18 34  1  0  0  0  0
 19 35  1  0  0  0  0
 21 36  1  0  0  0  0
 22 37  1  0  0  0  0
 38 39  4  0  0  0  0
 39 40  4  0  0  0  0
 40 41  2  0  0  0  0
 41 42  4  0  0  0  0
 39 43  4  0  0  0  0
 42 43  4  0  0  0  0
 42 44  4  0  0  0  0
 44 45  4  0  0  0  0
 45 46  1  0  0  0  0
 46 47  2  0  0  0  0
 45 48  4  0  0  0  0
 47 49  1  0  0  0  0
 48 49  4  0  0  0  0
 49 50  4  0  0  0  0
 50 51  4  0  0  0  0
 51 52  4  0  0  0  0
 52 53  2  0  0  0  0
 53 54  4  0  0  0  0
 51 55  4  0  0  0  0
 54 55  4  0  0  0  0
 54 56  4  0  0  0  0
 56 57  4  0  0  0  0
 57 58  1  0  0  0  0
 58 59  2  0  0  0  0
 38 60  4  0  0  0  0
 59 60  1  0  0  0  0
 57 61  4  0  0  0  0
 60 61  4  0  0  0  0
 38 62  1  0  0  0  0
 40 63  1  0  0  0  0
 41 64  1  0  0  0  0
 43 65  1  0  0  0  0
 44 66  1  0  0  0  0
 46 67  1  0  0  0  0
 47 68  1  0  0  0  0
 52 69  1  0  0  0  0
 53 70  1  0  0  0  0
 55 71  1  0  0  0  0
 56 72  1  0  0  0  0
 58 73  1  0  0  0  0
 59 74  1  0  0  0  0
 13 75  4  0  0  0  0
 75 76  3  0  0  0  0
 76 77  4  0  0  0  0
 77 78  3  0  0  0  0
 78 79  4  0  0  0  0
 79 80  3  0  0  0  0
 80 81  4  0  0  0  0
 81 82  3  0  0  0  0
 83 84  3  0  0  0  0
 84 85  4  0  0  0  0
 85 86  3  0  0  0  0
 86 87  4  0  0  0  0
 87 88  3  0  0  0  0
 88 89  4  0  0  0  0
 89 90  3  0  0  0  0
 91 92  3  0  0  0  0
 92 93  4  0  0  0  0
 93 94  3  0  0  0  0
 94 95  4  0  0  0  0
 95 96  3  0  0  0  0
 96 97  4  0  0  0  0
 97 98  3  0  0  0  0
 99100  3  0  0  0  0
100101  4  0  0  0  0
101102  3  0  0  0  0
102103  4  0  0  0  0
103104  3  0  0  0  0
104105  4  0  0  0  0
 50106  4  0  0  0  0
105106  3  0  0  0  0
 82107  4  0  0  0  0
107108  4  0  0  0  0
108109  4  0  0  0  0
109110  2  0  0  0  0
110111  4  0  0  0  0
108112  4  0  0  0  0
111112  4  0  0  0  0
111113  4  0  0  0  0
113114  4  0  0  0  0
114115  1  0  0  0  0
115116  2  0  0  0  0
114117  4  0  0  0  0
116118  1  0  0  0  0
117118  4  0  0  0  0
 83119  4  0  0  0  0
118119  4  0  0  0  0
119120  4  0  0  0  0
120121  4  0  0  0  0
121122  2  0  0  0  0
122123  4  0  0  0  0
120124  4  0  0  0  0
123124  4  0  0  0  0
123125  4  0  0  0  0
125126  4  0  0  0  0
126127  1  0  0  0  0
127128  2  0  0  0  0
107129  4  0  0  0  0
128129  1  0  0  0  0
126130  4  0  0  0  0
129130  4  0  0  0  0
109131  1  0  0  0  0
110132  1  0  0  0  0
112133  1  0  0  0  0
113134  1  0  0  0  0
115135  1  0  0  0  0
116136  1  0  0  0  0
121137  1  0  0  0  0
122138  1  0  0  0  0
124139  1  0  0  0  0
125140  1  0  0  0  0
127141  1  0  0  0  0
128142  1  0  0  0  0
 90143  4  0  0  0  0
143144  4  0  0  0  0
144145  4  0  0  0  0
145146  2  0  0  0  0
146147  4  0  0  0  0
144148  4  0  0  0  0
147148  4  0  0  0  0
147149  4  0  0  0  0
149150  4  0  0  0  0
150151  1  0  0  0  0
151152  2  0  0  0  0
150153  4  0  0  0  0
152154  1  0  0  0  0
153154  4  0  0  0  0
 91155  4  0  0  0  0
154155  4  0  0  0  0
155156  4  0  0  0  0
156157  4  0  0  0  0
157158  2  0  0  0  0
158159  4  0  0  0  0
156160  4  0  0  0  0
159160  4  0  0  0  0
159161  4  0  0  0  0
161162  4  0  0  0  0
162163  1  0  0  0  0
163164  2  0  0  0  0
143165  4  0  0  0  0
164165  1  0  0  0  0
162166  4  0  0  0  0
165166  4  0  0  0  0
145167  1  0  0  0  0
146168  1  0  0  0  0
148169  1  0  0  0  0
149170  1  0  0  0  0
151171  1  0  0  0  0
152172  1  0  0  0  0
157173  1  0  0  0  0
158174  1  0  0  0  0
160175  1  0  0  0  0
161176  1  0  0  0  0
163177  1  0  0  0  0
164178  1  0  0  0  0
 98179  4  0  0  0  0
179180  4  0  0  0  0
180181  4  0  0  0  0
181182  2  0  0  0  0
182183  4  0  0  0  0
180184  4  0  0  0  0
183184  4  0  0  0  0
183185  4  0  0  0  0
185186  4  0  0  0  0
186187  1  0  0  0  0
187188  2  0  0  0  0
186189  4  0  0  0  0
188190  1  0  0  0  0
189190  4  0  0  0  0
 99191  4  0  0  0  0
190191  4  0  0  0  0
191192  4  0  0  0  0
192193  4  0  0  0  0
193194  2  0  0  0  0
194195  4  0  0  0  0
192196  4  0  0  0  0
195196  4  0  0  0  0
195197  4  0  0  0  0
197198  4  0  0  0  0
198199  1  0  0  0  0
199200  2  0  0  0  0
179201  4  0  0  0  0
200201  1  0  0  0  0
198202  4  0  0  0  0
201202  4  0  0  0  0
181203  1  0  0  0  0
182204  1  0  0  0  0
184205  1  0  0  0  0
185206  1  0  0  0  0
187207  1  0  0  0  0
188208  1  0  0  0  0
193209  1  0  0  0  0
194210  1  0  0  0  0
196211  1  0  0  0  0
197212  1  0  0  0  0
199213  1  0  0  0  0
200214  1  0  0  0  0
M  END
