 xtb: 6.5.1 (b24c23e)
          07292214133D

232259  0     0  0            999 V2000
   43.3748    0.0127    0.0724 C   0  0  0  0  0  0  0  0  0  0  0  0
   43.9670   -1.1650    0.5096 C   0  0  0  0  0  0  0  0  0  0  0  0
   43.2986   -2.3476    0.9345 C   0  0  0  0  0  0  0  0  0  0  0  0
   44.2482   -3.2629    1.2918 C   0  0  0  0  0  0  0  0  0  0  0  0
   45.5277   -2.6659    1.1050 C   0  0  0  0  0  0  0  0  0  0  0  0
   45.3070   -1.4065    0.6235 N   0  0  0  0  0  0  0  0  0  0  0  0
   46.7821   -3.2383    1.3422 C   0  0  0  0  0  0  0  0  0  0  0  0
   48.0075   -2.6121    1.1023 C   0  0  0  0  0  0  0  0  0  0  0  0
   49.2946   -3.2048    1.4185 C   0  0  0  0  0  0  0  0  0  0  0  0
   50.2302   -2.3049    1.0514 C   0  0  0  0  0  0  0  0  0  0  0  0
   48.1827   -1.3708    0.5716 N   0  0  0  0  0  0  0  0  0  0  0  0
   49.5143   -1.1615    0.5193 C   0  0  0  0  0  0  0  0  0  0  0  0
   50.1680   -0.0098    0.0391 C   0  0  0  0  0  0  0  0  0  0  0  0
   49.5503    1.1605   -0.4392 C   0  0  0  0  0  0  0  0  0  0  0  0
   50.2097    2.3015   -0.9682 C   0  0  0  0  0  0  0  0  0  0  0  0
   49.2557    3.2123   -1.3291 C   0  0  0  0  0  0  0  0  0  0  0  0
   47.9822    2.6572   -1.0243 C   0  0  0  0  0  0  0  0  0  0  0  0
   46.7286    3.2400   -1.2392 C   0  0  0  0  0  0  0  0  0  0  0  0
   46.7172    4.6114   -1.8043 C   0  0  0  0  0  0  0  0  0  0  0  0
   46.1093    4.8625   -3.0353 C   0  0  0  0  0  0  0  0  0  0  0  0
   46.1024    6.1436   -3.5659 C   0  0  0  0  0  0  0  0  0  0  0  0
   46.6971    7.1896   -2.8733 C   0  0  0  0  0  0  0  0  0  0  0  0
   47.3017    6.9487   -1.6470 C   0  0  0  0  0  0  0  0  0  0  0  0
   47.3151    5.6678   -1.1155 C   0  0  0  0  0  0  0  0  0  0  0  0
   45.5029    2.6251   -0.9643 C   0  0  0  0  0  0  0  0  0  0  0  0
   44.2090    3.2669   -1.1376 C   0  0  0  0  0  0  0  0  0  0  0  0
   43.2806    2.3607   -0.7707 C   0  0  0  0  0  0  0  0  0  0  0  0
   44.0062    1.1699   -0.3649 C   0  0  0  0  0  0  0  0  0  0  0  0
   45.3416    1.3686   -0.4853 N   0  0  0  0  0  0  0  0  0  0  0  0
   48.2120    1.4143   -0.4961 N   0  0  0  0  0  0  0  0  0  0  0  0
   46.7922   -4.6148    1.8968 C   0  0  0  0  0  0  0  0  0  0  0  0
   46.2160   -4.8812    3.1396 C   0  0  0  0  0  0  0  0  0  0  0  0
   46.2287   -6.1677    3.6573 C   0  0  0  0  0  0  0  0  0  0  0  0
   46.8106   -7.2035    2.9391 C   0  0  0  0  0  0  0  0  0  0  0  0
   47.3831   -6.9471    1.7006 C   0  0  0  0  0  0  0  0  0  0  0  0
   47.3771   -5.6610    1.1820 C   0  0  0  0  0  0  0  0  0  0  0  0
   42.2895    0.0213    0.0773 H   0  0  0  0  0  0  0  0  0  0  0  0
   42.2275   -2.4708    0.9542 H   0  0  0  0  0  0  0  0  0  0  0  0
   44.0835   -4.2676    1.6462 H   0  0  0  0  0  0  0  0  0  0  0  0
   46.0413   -0.7493    0.3825 H   0  0  0  0  0  0  0  0  0  0  0  0
   49.4404   -4.1707    1.8743 H   0  0  0  0  0  0  0  0  0  0  0  0
   51.3024   -2.3791    1.1364 H   0  0  0  0  0  0  0  0  0  0  0  0
   51.2785    2.4004   -1.0683 H   0  0  0  0  0  0  0  0  0  0  0  0
   49.4167    4.1786   -1.7784 H   0  0  0  0  0  0  0  0  0  0  0  0
   45.6561    4.0444   -3.5840 H   0  0  0  0  0  0  0  0  0  0  0  0
   45.6315    6.3259   -4.5256 H   0  0  0  0  0  0  0  0  0  0  0  0
   46.6892    8.1911   -3.2884 H   0  0  0  0  0  0  0  0  0  0  0  0
   47.7645    7.7628   -1.1001 H   0  0  0  0  0  0  0  0  0  0  0  0
   47.7754    5.4848   -0.1508 H   0  0  0  0  0  0  0  0  0  0  0  0
   44.0576    4.2780   -1.4801 H   0  0  0  0  0  0  0  0  0  0  0  0
   42.2065    2.4613   -0.7573 H   0  0  0  0  0  0  0  0  0  0  0  0
   47.4810    0.7738   -0.2044 H   0  0  0  0  0  0  0  0  0  0  0  0
   45.7735   -4.0710    3.7087 H   0  0  0  0  0  0  0  0  0  0  0  0
   45.7836   -6.3618    4.6269 H   0  0  0  0  0  0  0  0  0  0  0  0
   46.8183   -8.2090    3.3443 H   0  0  0  0  0  0  0  0  0  0  0  0
   47.8363   -7.7533    1.1344 H   0  0  0  0  0  0  0  0  0  0  0  0
   47.8141   -5.4645    0.2093 H   0  0  0  0  0  0  0  0  0  0  0  0
   82.8163    0.0297    0.0814 C   0  0  0  0  0  0  0  0  0  0  0  0
   82.2316    1.1513   -0.4921 C   0  0  0  0  0  0  0  0  0  0  0  0
   82.9070    2.2620   -1.0717 C   0  0  0  0  0  0  0  0  0  0  0  0
   81.9629    3.1472   -1.5101 C   0  0  0  0  0  0  0  0  0  0  0  0
   80.6797    2.6116   -1.2013 C   0  0  0  0  0  0  0  0  0  0  0  0
   80.8931    1.4038   -0.5993 N   0  0  0  0  0  0  0  0  0  0  0  0
   79.4286    3.1806   -1.4620 C   0  0  0  0  0  0  0  0  0  0  0  0
   78.1996    2.5879   -1.1606 C   0  0  0  0  0  0  0  0  0  0  0  0
   76.9164    3.2317   -1.3779 C   0  0  0  0  0  0  0  0  0  0  0  0
   75.9750    2.3530   -0.9760 C   0  0  0  0  0  0  0  0  0  0  0  0
   78.0167    1.3532   -0.6187 N   0  0  0  0  0  0  0  0  0  0  0  0
   76.6832    1.1778   -0.5070 C   0  0  0  0  0  0  0  0  0  0  0  0
   76.0233    0.0229   -0.0458 C   0  0  0  0  0  0  0  0  0  0  0  0
   76.6349   -1.1481    0.4371 C   0  0  0  0  0  0  0  0  0  0  0  0
   75.9700   -2.3199    0.8864 C   0  0  0  0  0  0  0  0  0  0  0  0
   76.9187   -3.2062    1.3156 C   0  0  0  0  0  0  0  0  0  0  0  0
   78.1938   -2.5975    1.1514 C   0  0  0  0  0  0  0  0  0  0  0  0
   79.4422   -3.1435    1.4692 C   0  0  0  0  0  0  0  0  0  0  0  0
   79.4419   -4.4869    2.0982 C   0  0  0  0  0  0  0  0  0  0  0  0
   80.0764   -5.5619    1.4740 C   0  0  0  0  0  0  0  0  0  0  0  0
   80.0715   -6.8172    2.0630 C   0  0  0  0  0  0  0  0  0  0  0  0
   79.4381   -7.0143    3.2826 C   0  0  0  0  0  0  0  0  0  0  0  0
   78.8070   -5.9495    3.9114 C   0  0  0  0  0  0  0  0  0  0  0  0
   78.8058   -4.6937    3.3233 C   0  0  0  0  0  0  0  0  0  0  0  0
   80.6711   -2.5158    1.2420 C   0  0  0  0  0  0  0  0  0  0  0  0
   81.9586   -3.0734    1.6262 C   0  0  0  0  0  0  0  0  0  0  0  0
   82.8929   -2.1846    1.2328 C   0  0  0  0  0  0  0  0  0  0  0  0
   82.1769   -1.0794    0.6203 C   0  0  0  0  0  0  0  0  0  0  0  0
   80.8414   -1.3083    0.6527 N   0  0  0  0  0  0  0  0  0  0  0  0
   77.9711   -1.3616    0.6046 N   0  0  0  0  0  0  0  0  0  0  0  0
   79.4246    4.5152   -2.1108 C   0  0  0  0  0  0  0  0  0  0  0  0
   80.0152    5.6128   -1.4831 C   0  0  0  0  0  0  0  0  0  0  0  0
   80.0097    6.8573   -2.0952 C   0  0  0  0  0  0  0  0  0  0  0  0
   79.4204    7.0200   -3.3416 C   0  0  0  0  0  0  0  0  0  0  0  0
   78.8327    5.9324   -3.9735 C   0  0  0  0  0  0  0  0  0  0  0  0
   78.8320    4.6877   -3.3626 C   0  0  0  0  0  0  0  0  0  0  0  0
   83.9014    0.0275    0.1063 H   0  0  0  0  0  0  0  0  0  0  0  0
   83.9789    2.3559   -1.1441 H   0  0  0  0  0  0  0  0  0  0  0  0
   82.1340    4.0865   -2.0105 H   0  0  0  0  0  0  0  0  0  0  0  0
   80.1553    0.7843   -0.2816 H   0  0  0  0  0  0  0  0  0  0  0  0
   76.7771    4.2256   -1.7713 H   0  0  0  0  0  0  0  0  0  0  0  0
   74.9030    2.4669   -0.9854 H   0  0  0  0  0  0  0  0  0  0  0  0
   74.9010   -2.4595    0.8784 H   0  0  0  0  0  0  0  0  0  0  0  0
   76.7533   -4.1973    1.7053 H   0  0  0  0  0  0  0  0  0  0  0  0
   80.5597   -5.4132    0.5148 H   0  0  0  0  0  0  0  0  0  0  0  0
   80.5633   -7.6463    1.5663 H   0  0  0  0  0  0  0  0  0  0  0  0
   79.4364   -7.9960    3.7425 H   0  0  0  0  0  0  0  0  0  0  0  0
   78.3140   -6.0969    4.8659 H   0  0  0  0  0  0  0  0  0  0  0  0
   78.3247   -3.8603    3.8234 H   0  0  0  0  0  0  0  0  0  0  0  0
   82.1022   -4.0117    2.1375 H   0  0  0  0  0  0  0  0  0  0  0  0
   83.9650   -2.2389    1.3406 H   0  0  0  0  0  0  0  0  0  0  0  0
   78.7043   -0.7022    0.3653 H   0  0  0  0  0  0  0  0  0  0  0  0
   80.4632    5.4915   -0.5030 H   0  0  0  0  0  0  0  0  0  0  0  0
   80.4666    7.7044   -1.5956 H   0  0  0  0  0  0  0  0  0  0  0  0
   79.4187    7.9930   -3.8196 H   0  0  0  0  0  0  0  0  0  0  0  0
   78.3733    6.0535   -4.9483 H   0  0  0  0  0  0  0  0  0  0  0  0
   78.3836    3.8365   -3.8628 H   0  0  0  0  0  0  0  0  0  0  0  0
   51.5779   -0.0150    0.0313 C   0  0  0  0  0  0  0  0  0  0  0  0
   52.7946   -0.0201    0.0205 C   0  0  0  0  0  0  0  0  0  0  0  0
   62.4844   -0.0170   -0.0142 C   0  0  0  0  0  0  0  0  0  0  0  0
   63.7023   -0.0175   -0.0228 C   0  0  0  0  0  0  0  0  0  0  0  0
   73.3956    0.0232   -0.0704 C   0  0  0  0  0  0  0  0  0  0  0  0
   74.6120    0.0241   -0.0631 C   0  0  0  0  0  0  0  0  0  0  0  0
   54.2036   -0.0200    0.0126 C   0  0  0  0  0  0  0  0  0  0  0  0
   54.8294    1.2305    0.1715 C   0  0  0  0  0  0  0  0  0  0  0  0
   54.1838    2.4748    0.3899 C   0  0  0  0  0  0  0  0  0  0  0  0
   55.1492    3.4398    0.4851 C   0  0  0  0  0  0  0  0  0  0  0  0
   56.4137    2.8124    0.3200 C   0  0  0  0  0  0  0  0  0  0  0  0
   56.1701    1.4764    0.1451 N   0  0  0  0  0  0  0  0  0  0  0  0
   57.6725    3.4255    0.3386 C   0  0  0  0  0  0  0  0  0  0  0  0
   58.8978    2.7672    0.2233 C   0  0  0  0  0  0  0  0  0  0  0  0
   60.1770    3.4505    0.1620 C   0  0  0  0  0  0  0  0  0  0  0  0
   61.1188    2.4895    0.0629 C   0  0  0  0  0  0  0  0  0  0  0  0
   59.0834    1.4205    0.1401 N   0  0  0  0  0  0  0  0  0  0  0  0
   60.4151    1.2228    0.0603 C   0  0  0  0  0  0  0  0  0  0  0  0
   61.0766   -0.0201   -0.0118 C   0  0  0  0  0  0  0  0  0  0  0  0
   60.4488   -1.2784   -0.0875 C   0  0  0  0  0  0  0  0  0  0  0  0
   61.0919   -2.5425   -0.1170 C   0  0  0  0  0  0  0  0  0  0  0  0
   60.1256   -3.5057   -0.2191 C   0  0  0  0  0  0  0  0  0  0  0  0
   58.8620   -2.8561   -0.2577 C   0  0  0  0  0  0  0  0  0  0  0  0
   57.6039   -3.4622   -0.3602 C   0  0  0  0  0  0  0  0  0  0  0  0
   57.5951   -4.9378   -0.5220 C   0  0  0  0  0  0  0  0  0  0  0  0
   58.1982   -5.5293   -1.6329 C   0  0  0  0  0  0  0  0  0  0  0  0
   58.1856   -6.9074   -1.7871 C   0  0  0  0  0  0  0  0  0  0  0  0
   57.5775   -7.7110   -0.8323 C   0  0  0  0  0  0  0  0  0  0  0  0
   56.9788   -7.1303    0.2776 C   0  0  0  0  0  0  0  0  0  0  0  0
   56.9843   -5.7523    0.4324 C   0  0  0  0  0  0  0  0  0  0  0  0
   56.3770   -2.7978   -0.3253 C   0  0  0  0  0  0  0  0  0  0  0  0
   55.0948   -3.4577   -0.4954 C   0  0  0  0  0  0  0  0  0  0  0  0
   54.1532   -2.4981   -0.3842 C   0  0  0  0  0  0  0  0  0  0  0  0
   54.8610   -1.2538   -0.1560 C   0  0  0  0  0  0  0  0  0  0  0  0
   56.1937   -1.4618   -0.1387 N   0  0  0  0  0  0  0  0  0  0  0  0
   59.1076   -1.5123   -0.1617 N   0  0  0  0  0  0  0  0  0  0  0  0
   57.6852    4.9014    0.4947 C   0  0  0  0  0  0  0  0  0  0  0  0
   57.0680    5.7206   -0.4518 C   0  0  0  0  0  0  0  0  0  0  0  0
   57.0821    7.0992   -0.3019 C   0  0  0  0  0  0  0  0  0  0  0  0
   57.7067    7.6760    0.7956 C   0  0  0  0  0  0  0  0  0  0  0  0
   58.3211    6.8678    1.7426 C   0  0  0  0  0  0  0  0  0  0  0  0
   58.3136    5.4892    1.5936 C   0  0  0  0  0  0  0  0  0  0  0  0
   53.1172    2.6066    0.4739 H   0  0  0  0  0  0  0  0  0  0  0  0
   55.0001    4.4919    0.6655 H   0  0  0  0  0  0  0  0  0  0  0  0
   56.8894    0.7713    0.0241 H   0  0  0  0  0  0  0  0  0  0  0  0
   60.3137    4.5197    0.1744 H   0  0  0  0  0  0  0  0  0  0  0  0
   62.1875    2.6041   -0.0187 H   0  0  0  0  0  0  0  0  0  0  0  0
   62.1575   -2.6907   -0.0563 H   0  0  0  0  0  0  0  0  0  0  0  0
   60.2727   -4.5728   -0.2522 H   0  0  0  0  0  0  0  0  0  0  0  0
   58.6621   -4.9024   -2.3865 H   0  0  0  0  0  0  0  0  0  0  0  0
   58.6516   -7.3555   -2.6577 H   0  0  0  0  0  0  0  0  0  0  0  0
   57.5699   -8.7883   -0.9532 H   0  0  0  0  0  0  0  0  0  0  0  0
   56.5053   -7.7540    1.0278 H   0  0  0  0  0  0  0  0  0  0  0  0
   56.5267   -5.3011    1.3058 H   0  0  0  0  0  0  0  0  0  0  0  0
   54.9561   -4.5090   -0.6889 H   0  0  0  0  0  0  0  0  0  0  0  0
   53.0822   -2.5958   -0.4603 H   0  0  0  0  0  0  0  0  0  0  0  0
   58.3891   -0.7963   -0.1420 H   0  0  0  0  0  0  0  0  0  0  0  0
   56.5917    5.2731   -1.3171 H   0  0  0  0  0  0  0  0  0  0  0  0
   56.6040    7.7260   -1.0464 H   0  0  0  0  0  0  0  0  0  0  0  0
   57.7149    8.7537    0.9125 H   0  0  0  0  0  0  0  0  0  0  0  0
   58.8081    7.3132    2.6031 H   0  0  0  0  0  0  0  0  0  0  0  0
   58.7832    4.8587    2.3404 H   0  0  0  0  0  0  0  0  0  0  0  0
   65.1099   -0.0085   -0.0345 C   0  0  0  0  0  0  0  0  0  0  0  0
   65.7370    1.1485    0.4670 C   0  0  0  0  0  0  0  0  0  0  0  0
   65.0965    2.2768    1.0405 C   0  0  0  0  0  0  0  0  0  0  0  0
   66.0614    3.1910    1.3644 C   0  0  0  0  0  0  0  0  0  0  0  0
   67.3215    2.6480    0.9935 C   0  0  0  0  0  0  0  0  0  0  0  0
   67.0759    1.4062    0.4709 N   0  0  0  0  0  0  0  0  0  0  0  0
   68.5767    3.2519    1.1345 C   0  0  0  0  0  0  0  0  0  0  0  0
   69.8024    2.6602    0.8236 C   0  0  0  0  0  0  0  0  0  0  0  0
   71.0793    3.3441    0.9259 C   0  0  0  0  0  0  0  0  0  0  0  0
   72.0241    2.4425    0.5877 C   0  0  0  0  0  0  0  0  0  0  0  0
   69.9905    1.3803    0.4014 N   0  0  0  0  0  0  0  0  0  0  0  0
   71.3234    1.2145    0.2688 C   0  0  0  0  0  0  0  0  0  0  0  0
   71.9852    0.0211   -0.0760 C   0  0  0  0  0  0  0  0  0  0  0  0
   71.3621   -1.1896   -0.4298 C   0  0  0  0  0  0  0  0  0  0  0  0
   72.0088   -2.4045   -0.7747 C   0  0  0  0  0  0  0  0  0  0  0  0
   71.0446   -3.3119   -1.1197 C   0  0  0  0  0  0  0  0  0  0  0  0
   69.7799   -2.6734   -1.0036 C   0  0  0  0  0  0  0  0  0  0  0  0
   68.5240   -3.2242   -1.2872 C   0  0  0  0  0  0  0  0  0  0  0  0
   68.5187   -4.6044   -1.8332 C   0  0  0  0  0  0  0  0  0  0  0  0
   69.1524   -4.8869   -3.0443 C   0  0  0  0  0  0  0  0  0  0  0  0
   69.1449   -6.1757   -3.5560 C   0  0  0  0  0  0  0  0  0  0  0  0
   68.5111   -7.1981   -2.8630 C   0  0  0  0  0  0  0  0  0  0  0  0
   67.8808   -6.9257   -1.6564 C   0  0  0  0  0  0  0  0  0  0  0  0
   67.8811   -5.6370   -1.1443 C   0  0  0  0  0  0  0  0  0  0  0  0
   67.2971   -2.5842   -1.1065 C   0  0  0  0  0  0  0  0  0  0  0  0
   66.0209   -3.1632   -1.4854 C   0  0  0  0  0  0  0  0  0  0  0  0
   65.0755   -2.2673   -1.1330 C   0  0  0  0  0  0  0  0  0  0  0  0
   65.7744   -1.1411   -0.5474 C   0  0  0  0  0  0  0  0  0  0  0  0
   67.1066   -1.3504   -0.5620 N   0  0  0  0  0  0  0  0  0  0  0  0
   70.0216   -1.3990   -0.5661 N   0  0  0  0  0  0  0  0  0  0  0  0
   68.5863    4.6359    1.6704 C   0  0  0  0  0  0  0  0  0  0  0  0
   67.9371    5.6657    0.9879 C   0  0  0  0  0  0  0  0  0  0  0  0
   67.9496    6.9577    1.4918 C   0  0  0  0  0  0  0  0  0  0  0  0
   68.6040    7.2360    2.6841 C   0  0  0  0  0  0  0  0  0  0  0  0
   69.2494    6.2163    3.3706 C   0  0  0  0  0  0  0  0  0  0  0  0
   69.2437    4.9243    2.8673 C   0  0  0  0  0  0  0  0  0  0  0  0
   64.0339    2.3672    1.1949 H   0  0  0  0  0  0  0  0  0  0  0  0
   65.9157    4.1520    1.8300 H   0  0  0  0  0  0  0  0  0  0  0  0
   67.7923    0.7687    0.1402 H   0  0  0  0  0  0  0  0  0  0  0  0
   71.2123    4.3763    1.2069 H   0  0  0  0  0  0  0  0  0  0  0  0
   73.0936    2.5730    0.5479 H   0  0  0  0  0  0  0  0  0  0  0  0
   73.0759   -2.5572   -0.7605 H   0  0  0  0  0  0  0  0  0  0  0  0
   71.1940   -4.3357   -1.4216 H   0  0  0  0  0  0  0  0  0  0  0  0
   69.6365   -4.0870   -3.5937 H   0  0  0  0  0  0  0  0  0  0  0  0
   69.6353   -6.3821   -4.5009 H   0  0  0  0  0  0  0  0  0  0  0  0
   68.5081   -8.2057   -3.2630 H   0  0  0  0  0  0  0  0  0  0  0  0
   67.3868   -7.7215   -1.1100 H   0  0  0  0  0  0  0  0  0  0  0  0
   67.3986   -5.4281   -0.1960 H   0  0  0  0  0  0  0  0  0  0  0  0
   65.8887   -4.1172   -1.9694 H   0  0  0  0  0  0  0  0  0  0  0  0
   64.0074   -2.3328   -1.2635 H   0  0  0  0  0  0  0  0  0  0  0  0
   69.3028   -0.7079   -0.3788 H   0  0  0  0  0  0  0  0  0  0  0  0
   67.4368    5.4533    0.0495 H   0  0  0  0  0  0  0  0  0  0  0  0
   67.4469    7.7512    0.9500 H   0  0  0  0  0  0  0  0  0  0  0  0
   68.6111    8.2461    3.0777 H   0  0  0  0  0  0  0  0  0  0  0  0
   69.7594    6.4278    4.3039 H   0  0  0  0  0  0  0  0  0  0  0  0
   69.7376    4.1266    3.4108 H   0  0  0  0  0  0  0  0  0  0  0  0
  1  2  4  0  0  0  0
  2  3  4  0  0  0  0
  3  4  2  0  0  0  0
  4  5  4  0  0  0  0
  2  6  4  0  0  0  0
  5  6  4  0  0  0  0
  5  7  4  0  0  0  0
  7  8  4  0  0  0  0
  8  9  1  0  0  0  0
  9 10  2  0  0  0  0
  8 11  4  0  0  0  0
 10 12  1  0  0  0  0
 11 12  4  0  0  0  0
 12 13  4  0  0  0  0
 13 14  4  0  0  0  0
 14 15  4  0  0  0  0
 15 16  2  0  0  0  0
 16 17  4  0  0  0  0
 17 18  4  0  0  0  0
 18 19  1  0  0  0  0
 19 20  4  0  0  0  0
 20 21  4  0  0  0  0
 21 22  4  0  0  0  0
 22 23  4  0  0  0  0
 19 24  4  0  0  0  0
 23 24  4  0  0  0  0
 18 25  4  0  0  0  0
 25 26  1  0  0  0  0
 26 27  2  0  0  0  0
  1 28  4  0  0  0  0
 27 28  1  0  0  0  0
 25 29  4  0  0  0  0
 28 29  4  0  0  0  0
 14 30  4  0  0  0  0
 17 30  4  0  0  0  0
  7 31  1  0  0  0  0
 31 32  4  0  0  0  0
 32 33  4  0  0  0  0
 33 34  4  0  0  0  0
 34 35  4  0  0  0  0
 31 36  4  0  0  0  0
 35 36  4  0  0  0  0
  1 37  1  0  0  0  0
  3 38  1  0  0  0  0
  4 39  1  0  0  0  0
  6 40  1  0  0  0  0
  9 41  1  0  0  0  0
 10 42  1  0  0  0  0
 15 43  1  0  0  0  0
 16 44  1  0  0  0  0
 20 45  1  0  0  0  0
 21 46  1  0  0  0  0
 22 47  1  0  0  0  0
 23 48  1  0  0  0  0
 24 49  1  0  0  0  0
 26 50  1  0  0  0  0
 27 51  1  0  0  0  0
 30 52  1  0  0  0  0
 32 53  1  0  0  0  0
 33 54  1  0  0  0  0
 34 55  1  0  0  0  0
 35 56  1  0  0  0  0
 36 57  1  0  0  0  0
 58 59  4  0  0  0  0
 59 60  4  0  0  0  0
 60 61  2  0  0  0  0
 61 62  4  0  0  0  0
 59 63  4  0  0  0  0
 62 63  4  0  0  0  0
 62 64  4  0  0  0  0
 64 65  4  0  0  0  0
 65 66  1  0  0  0  0
 66 67  2  0  0  0  0
 65 68  4  0  0  0  0
 67 69  1  0  0  0  0
 68 69  4  0  0  0  0
 69 70  4  0  0  0  0
 70 71  4  0  0  0  0
 71 72  4  0  0  0  0
 72 73  2  0  0  0  0
 73 74  4  0  0  0  0
 74 75  4  0  0  0  0
 75 76  1  0  0  0  0
 76 77  4  0  0  0  0
 77 78  4  0  0  0  0
 78 79  4  0  0  0  0
 79 80  4  0  0  0  0
 76 81  4  0  0  0  0
 80 81  4  0  0  0  0
 75 82  4  0  0  0  0
 82 83  1  0  0  0  0
 83 84  2  0  0  0  0
 58 85  4  0  0  0  0
 84 85  1  0  0  0  0
 82 86  4  0  0  0  0
 85 86  4  0  0  0  0
 71 87  4  0  0  0  0
 74 87  4  0  0  0  0
 64 88  1  0  0  0  0
 88 89  4  0  0  0  0
 89 90  4  0  0  0  0
 90 91  4  0  0  0  0
 91 92  4  0  0  0  0
 88 93  4  0  0  0  0
 92 93  4  0  0  0  0
 58 94  1  0  0  0  0
 60 95  1  0  0  0  0
 61 96  1  0  0  0  0
 63 97  1  0  0  0  0
 66 98  1  0  0  0  0
 67 99  1  0  0  0  0
 72100  1  0  0  0  0
 73101  1  0  0  0  0
 77102  1  0  0  0  0
 78103  1  0  0  0  0
 79104  1  0  0  0  0
 80105  1  0  0  0  0
 81106  1  0  0  0  0
 83107  1  0  0  0  0
 84108  1  0  0  0  0
 87109  1  0  0  0  0
 89110  1  0  0  0  0
 90111  1  0  0  0  0
 91112  1  0  0  0  0
 92113  1  0  0  0  0
 93114  1  0  0  0  0
 13115  4  0  0  0  0
115116  3  0  0  0  0
117118  3  0  0  0  0
 70120  4  0  0  0  0
119120  3  0  0  0  0
116121  4  0  0  0  0
121122  4  0  0  0  0
122123  4  0  0  0  0
123124  2  0  0  0  0
124125  4  0  0  0  0
122126  4  0  0  0  0
125126  4  0  0  0  0
125127  4  0  0  0  0
127128  4  0  0  0  0
128129  1  0  0  0  0
129130  2  0  0  0  0
128131  4  0  0  0  0
130132  1  0  0  0  0
131132  4  0  0  0  0
117133  4  0  0  0  0
132133  4  0  0  0  0
133134  4  0  0  0  0
134135  4  0  0  0  0
135136  2  0  0  0  0
136137  4  0  0  0  0
137138  4  0  0  0  0
138139  1  0  0  0  0
139140  4  0  0  0  0
140141  4  0  0  0  0
141142  4  0  0  0  0
142143  4  0  0  0  0
139144  4  0  0  0  0
143144  4  0  0  0  0
138145  4  0  0  0  0
145146  1  0  0  0  0
146147  2  0  0  0  0
121148  4  0  0  0  0
147148  1  0  0  0  0
145149  4  0  0  0  0
148149  4  0  0  0  0
134150  4  0  0  0  0
137150  4  0  0  0  0
127151  1  0  0  0  0
151152  4  0  0  0  0
152153  4  0  0  0  0
153154  4  0  0  0  0
154155  4  0  0  0  0
151156  4  0  0  0  0
155156  4  0  0  0  0
123157  1  0  0  0  0
124158  1  0  0  0  0
126159  1  0  0  0  0
129160  1  0  0  0  0
130161  1  0  0  0  0
135162  1  0  0  0  0
136163  1  0  0  0  0
140164  1  0  0  0  0
141165  1  0  0  0  0
142166  1  0  0  0  0
143167  1  0  0  0  0
144168  1  0  0  0  0
146169  1  0  0  0  0
147170  1  0  0  0  0
150171  1  0  0  0  0
152172  1  0  0  0  0
153173  1  0  0  0  0
154174  1  0  0  0  0
155175  1  0  0  0  0
156176  1  0  0  0  0
118177  4  0  0  0  0
177178  4  0  0  0  0
178179  4  0  0  0  0
179180  2  0  0  0  0
180181  4  0  0  0  0
178182  4  0  0  0  0
181182  4  0  0  0  0
181183  4  0  0  0  0
183184  4  0  0  0  0
184185  1  0  0  0  0
185186  2  0  0  0  0
184187  4  0  0  0  0
186188  1  0  0  0  0
187188  4  0  0  0  0
119189  4  0  0  0  0
188189  4  0  0  0  0
189190  4  0  0  0  0
190191  4  0  0  0  0
191192  2  0  0  0  0
192193  4  0  0  0  0
193194  4  0  0  0  0
194195  1  0  0  0  0
195196  4  0  0  0  0
196197  4  0  0  0  0
197198  4  0  0  0  0
198199  4  0  0  0  0
195200  4  0  0  0  0
199200  4  0  0  0  0
194201  4  0  0  0  0
201202  1  0  0  0  0
202203  2  0  0  0  0
177204  4  0  0  0  0
203204  1  0  0  0  0
201205  4  0  0  0  0
204205  4  0  0  0  0
190206  4  0  0  0  0
193206  4  0  0  0  0
183207  1  0  0  0  0
207208  4  0  0  0  0
208209  4  0  0  0  0
209210  4  0  0  0  0
210211  4  0  0  0  0
207212  4  0  0  0  0
211212  4  0  0  0  0
179213  1  0  0  0  0
180214  1  0  0  0  0
182215  1  0  0  0  0
185216  1  0  0  0  0
186217  1  0  0  0  0
191218  1  0  0  0  0
192219  1  0  0  0  0
196220  1  0  0  0  0
197221  1  0  0  0  0
198222  1  0  0  0  0
199223  1  0  0  0  0
200224  1  0  0  0  0
202225  1  0  0  0  0
203226  1  0  0  0  0
206227  1  0  0  0  0
208228  1  0  0  0  0
209229  1  0  0  0  0
210230  1  0  0  0  0
211231  1  0  0  0  0
212232  1  0  0  0  0
M  END
