 xtb: 6.5.1 (b24c23e)
          07302210333D

312351  0     0  0            999 V2000
   45.5553    0.0079   -0.0142 Zn  0  0  0  0  0  0  0  0  0  0  0  0
   42.1359    0.0662   -0.0236 C   0  0  0  0  0  0  0  0  0  0  0  0
   42.7759    1.2039    0.4548 C   0  0  0  0  0  0  0  0  0  0  0  0
   42.1162    2.3858    0.9375 C   0  0  0  0  0  0  0  0  0  0  0  0
   43.0860    3.2581    1.3113 C   0  0  0  0  0  0  0  0  0  0  0  0
   44.3501    2.6184    1.0609 C   0  0  0  0  0  0  0  0  0  0  0  0
   44.1273    1.3766    0.5423 N   0  0  0  0  0  0  0  0  0  0  0  0
   45.6037    3.1832    1.3117 C   0  0  0  0  0  0  0  0  0  0  0  0
   45.6221    4.5623    1.8829 C   0  0  0  0  0  0  0  0  0  0  0  0
   45.6328    5.6699    1.0302 C   0  0  0  0  0  0  0  0  0  0  0  0
   45.6300    5.4675   -0.4618 C   0  0  0  0  0  0  0  0  0  0  0  0
   45.6439    6.9498    1.5716 C   0  0  0  0  0  0  0  0  0  0  0  0
   45.6429    7.1427    2.9495 C   0  0  0  0  0  0  0  0  0  0  0  0
   45.6735    8.5344    3.5218 C   0  0  0  0  0  0  0  0  0  0  0  0
   45.6334    6.0338    3.7888 C   0  0  0  0  0  0  0  0  0  0  0  0
   45.6225    4.7447    3.2684 C   0  0  0  0  0  0  0  0  0  0  0  0
   45.6080    3.5483    4.1823 C   0  0  0  0  0  0  0  0  0  0  0  0
   46.8383    2.5759    1.0741 C   0  0  0  0  0  0  0  0  0  0  0  0
   48.1172    3.1745    1.3391 C   0  0  0  0  0  0  0  0  0  0  0  0
   49.0634    2.2731    0.9709 C   0  0  0  0  0  0  0  0  0  0  0  0
   47.0311    1.3246    0.5519 N   0  0  0  0  0  0  0  0  0  0  0  0
   48.3728    1.1164    0.4777 C   0  0  0  0  0  0  0  0  0  0  0  0
   48.9997   -0.0473   -0.0125 C   0  0  0  0  0  0  0  0  0  0  0  0
   48.3364   -1.1911   -0.5012 C   0  0  0  0  0  0  0  0  0  0  0  0
   48.9899   -2.3700   -0.9921 C   0  0  0  0  0  0  0  0  0  0  0  0
   48.0155   -3.2416   -1.3588 C   0  0  0  0  0  0  0  0  0  0  0  0
   46.7562   -2.6016   -1.0964 C   0  0  0  0  0  0  0  0  0  0  0  0
   46.9887   -1.3564   -0.5760 N   0  0  0  0  0  0  0  0  0  0  0  0
   45.5030   -3.1684   -1.3369 C   0  0  0  0  0  0  0  0  0  0  0  0
   45.4767   -4.5477   -1.9073 C   0  0  0  0  0  0  0  0  0  0  0  0
   45.4924   -4.7305   -3.2934 C   0  0  0  0  0  0  0  0  0  0  0  0
   45.5418   -3.5345   -4.2067 C   0  0  0  0  0  0  0  0  0  0  0  0
   45.4612   -6.0185   -3.8134 C   0  0  0  0  0  0  0  0  0  0  0  0
   45.4151   -7.1276   -2.9735 C   0  0  0  0  0  0  0  0  0  0  0  0
   45.3673   -8.5139   -3.5576 C   0  0  0  0  0  0  0  0  0  0  0  0
   45.4002   -6.9345   -1.5969 C   0  0  0  0  0  0  0  0  0  0  0  0
   45.4307   -5.6540   -1.0553 C   0  0  0  0  0  0  0  0  0  0  0  0
   45.4136   -5.4517    0.4366 C   0  0  0  0  0  0  0  0  0  0  0  0
   44.2679   -2.5615   -1.0926 C   0  0  0  0  0  0  0  0  0  0  0  0
   42.9841   -3.1575   -1.3508 C   0  0  0  0  0  0  0  0  0  0  0  0
   42.0425   -2.2520   -0.9840 C   0  0  0  0  0  0  0  0  0  0  0  0
   42.7393   -1.0932   -0.4975 C   0  0  0  0  0  0  0  0  0  0  0  0
   44.0845   -1.3124   -0.5760 N   0  0  0  0  0  0  0  0  0  0  0  0
   41.0505    0.0850   -0.0272 H   0  0  0  0  0  0  0  0  0  0  0  0
   41.0464    2.5192    0.9801 H   0  0  0  0  0  0  0  0  0  0  0  0
   42.9675    4.2485    1.7216 H   0  0  0  0  0  0  0  0  0  0  0  0
   44.7361    4.9202   -0.7676 H   0  0  0  0  0  0  0  0  0  0  0  0
   46.4997    4.8821   -0.7662 H   0  0  0  0  0  0  0  0  0  0  0  0
   45.6507    6.4230   -0.9851 H   0  0  0  0  0  0  0  0  0  0  0  0
   45.6510    7.8095    0.9094 H   0  0  0  0  0  0  0  0  0  0  0  0
   45.2375    8.5542    4.5208 H   0  0  0  0  0  0  0  0  0  0  0  0
   46.7061    8.8841    3.5940 H   0  0  0  0  0  0  0  0  0  0  0  0
   45.1256    9.2282    2.8836 H   0  0  0  0  0  0  0  0  0  0  0  0
   45.6321    6.1746    4.8648 H   0  0  0  0  0  0  0  0  0  0  0  0
   46.4781    2.9166    3.9931 H   0  0  0  0  0  0  0  0  0  0  0  0
   45.6196    3.8557    5.2276 H   0  0  0  0  0  0  0  0  0  0  0  0
   44.7143    2.9469    4.0040 H   0  0  0  0  0  0  0  0  0  0  0  0
   48.2631    4.1593    1.7536 H   0  0  0  0  0  0  0  0  0  0  0  0
   50.1358    2.3743    1.0246 H   0  0  0  0  0  0  0  0  0  0  0  0
   50.0586   -2.5054   -1.0448 H   0  0  0  0  0  0  0  0  0  0  0  0
   48.1301   -4.2317   -1.7706 H   0  0  0  0  0  0  0  0  0  0  0  0
   44.6790   -2.8889   -4.0317 H   0  0  0  0  0  0  0  0  0  0  0  0
   45.5426   -3.8418   -5.2521 H   0  0  0  0  0  0  0  0  0  0  0  0
   46.4419   -2.9477   -4.0135 H   0  0  0  0  0  0  0  0  0  0  0  0
   45.4731   -6.1611   -4.8891 H   0  0  0  0  0  0  0  0  0  0  0  0
   46.1105   -8.6229   -4.3487 H   0  0  0  0  0  0  0  0  0  0  0  0
   45.5555   -9.2672   -2.7927 H   0  0  0  0  0  0  0  0  0  0  0  0
   44.3832   -8.7031   -3.9921 H   0  0  0  0  0  0  0  0  0  0  0  0
   45.3649   -7.7927   -0.9337 H   0  0  0  0  0  0  0  0  0  0  0  0
   44.5302   -4.8814    0.7308 H   0  0  0  0  0  0  0  0  0  0  0  0
   46.2941   -4.8892    0.7529 H   0  0  0  0  0  0  0  0  0  0  0  0
   45.4022   -6.4075    0.9597 H   0  0  0  0  0  0  0  0  0  0  0  0
   42.8342   -4.1434   -1.7618 H   0  0  0  0  0  0  0  0  0  0  0  0
   40.9691   -2.3485   -1.0339 H   0  0  0  0  0  0  0  0  0  0  0  0
   93.7867   -0.0342   -0.0521 Zn  0  0  0  0  0  0  0  0  0  0  0  0
   97.2063   -0.0716   -0.0848 C   0  0  0  0  0  0  0  0  0  0  0  0
   96.5674   -1.2192   -0.5405 C   0  0  0  0  0  0  0  0  0  0  0  0
   97.2282   -2.4030   -1.0169 C   0  0  0  0  0  0  0  0  0  0  0  0
   96.2593   -3.2867   -1.3651 C   0  0  0  0  0  0  0  0  0  0  0  0
   94.9944   -2.6519   -1.1061 C   0  0  0  0  0  0  0  0  0  0  0  0
   95.2160   -1.4018   -0.6071 N   0  0  0  0  0  0  0  0  0  0  0  0
   93.7413   -3.2278   -1.3331 C   0  0  0  0  0  0  0  0  0  0  0  0
   93.7242   -4.6144   -1.8858 C   0  0  0  0  0  0  0  0  0  0  0  0
   93.7267   -4.8146   -3.2691 C   0  0  0  0  0  0  0  0  0  0  0  0
   93.7434   -3.6297   -4.1979 C   0  0  0  0  0  0  0  0  0  0  0  0
   93.7158   -6.1099   -3.7728 C   0  0  0  0  0  0  0  0  0  0  0  0
   93.7041   -7.2083   -2.9191 C   0  0  0  0  0  0  0  0  0  0  0  0
   93.6734   -8.6054   -3.4779 C   0  0  0  0  0  0  0  0  0  0  0  0
   93.7011   -6.9978   -1.5442 C   0  0  0  0  0  0  0  0  0  0  0  0
   93.7116   -5.7107   -1.0191 C   0  0  0  0  0  0  0  0  0  0  0  0
   93.7125   -5.4895    0.4702 C   0  0  0  0  0  0  0  0  0  0  0  0
   92.5060   -2.6236   -1.0910 C   0  0  0  0  0  0  0  0  0  0  0  0
   91.2277   -3.2319   -1.3362 C   0  0  0  0  0  0  0  0  0  0  0  0
   90.2805   -2.3289   -0.9744 C   0  0  0  0  0  0  0  0  0  0  0  0
   92.3118   -1.3656   -0.5861 N   0  0  0  0  0  0  0  0  0  0  0  0
   90.9698   -1.1619   -0.5045 C   0  0  0  0  0  0  0  0  0  0  0  0
   90.3420    0.0069   -0.0276 C   0  0  0  0  0  0  0  0  0  0  0  0
   91.0046    1.1591    0.4420 C   0  0  0  0  0  0  0  0  0  0  0  0
   90.3500    2.3407    0.9248 C   0  0  0  0  0  0  0  0  0  0  0  0
   91.3234    3.2193    1.2767 C   0  0  0  0  0  0  0  0  0  0  0  0
   92.5833    2.5819    1.0111 C   0  0  0  0  0  0  0  0  0  0  0  0
   92.3522    1.3304    0.5055 N   0  0  0  0  0  0  0  0  0  0  0  0
   93.8359    3.1570    1.2344 C   0  0  0  0  0  0  0  0  0  0  0  0
   93.8607    4.5427    1.7892 C   0  0  0  0  0  0  0  0  0  0  0  0
   93.8416    5.6406    0.9235 C   0  0  0  0  0  0  0  0  0  0  0  0
   93.7905    5.4204   -0.5651 C   0  0  0  0  0  0  0  0  0  0  0  0
   93.8712    6.9262    1.4491 C   0  0  0  0  0  0  0  0  0  0  0  0
   93.9188    7.1353    2.8245 C   0  0  0  0  0  0  0  0  0  0  0  0
   93.9645    8.5363    3.3725 C   0  0  0  0  0  0  0  0  0  0  0  0
   93.9372    6.0368    3.6762 C   0  0  0  0  0  0  0  0  0  0  0  0
   93.9085    4.7413    3.1713 C   0  0  0  0  0  0  0  0  0  0  0  0
   93.9293    3.5559    4.0993 C   0  0  0  0  0  0  0  0  0  0  0  0
   95.0717    2.5544    0.9830 C   0  0  0  0  0  0  0  0  0  0  0  0
   96.3549    3.1618    1.2163 C   0  0  0  0  0  0  0  0  0  0  0  0
   97.2974    2.2583    0.8473 C   0  0  0  0  0  0  0  0  0  0  0  0
   96.6018    1.0892    0.3841 C   0  0  0  0  0  0  0  0  0  0  0  0
   95.2563    1.3005    0.4786 N   0  0  0  0  0  0  0  0  0  0  0  0
   98.2918   -0.0833   -0.0962 H   0  0  0  0  0  0  0  0  0  0  0  0
   98.2982   -2.5298   -1.0729 H   0  0  0  0  0  0  0  0  0  0  0  0
   96.3788   -4.2820   -1.7631 H   0  0  0  0  0  0  0  0  0  0  0  0
   94.6378   -3.0275   -4.0267 H   0  0  0  0  0  0  0  0  0  0  0  0
   92.8742   -2.9944   -4.0171 H   0  0  0  0  0  0  0  0  0  0  0  0
   93.7321   -3.9502   -5.2393 H   0  0  0  0  0  0  0  0  0  0  0  0
   93.7188   -6.2650   -4.8469 H   0  0  0  0  0  0  0  0  0  0  0  0
   94.1145   -9.3147   -2.7772 H   0  0  0  0  0  0  0  0  0  0  0  0
   92.6404   -8.9088   -3.6639 H   0  0  0  0  0  0  0  0  0  0  0  0
   94.2164   -8.6577   -4.4220 H   0  0  0  0  0  0  0  0  0  0  0  0
   93.6927   -7.8487   -0.8707 H   0  0  0  0  0  0  0  0  0  0  0  0
   92.8402   -4.9039    0.7667 H   0  0  0  0  0  0  0  0  0  0  0  0
   93.6951   -6.4385    1.0055 H   0  0  0  0  0  0  0  0  0  0  0  0
   94.6040   -4.9349    0.7697 H   0  0  0  0  0  0  0  0  0  0  0  0
   91.0828   -4.2235   -1.7346 H   0  0  0  0  0  0  0  0  0  0  0  0
   89.2082   -2.4357   -1.0179 H   0  0  0  0  0  0  0  0  0  0  0  0
   89.2811    2.4725    0.9833 H   0  0  0  0  0  0  0  0  0  0  0  0
   91.2079    4.2123    1.6812 H   0  0  0  0  0  0  0  0  0  0  0  0
   94.6535    4.8368   -0.8913 H   0  0  0  0  0  0  0  0  0  0  0  0
   93.7877    6.3698   -1.0999 H   0  0  0  0  0  0  0  0  0  0  0  0
   92.8906    4.8641   -0.8347 H   0  0  0  0  0  0  0  0  0  0  0  0
   93.8567    7.7787    0.7777 H   0  0  0  0  0  0  0  0  0  0  0  0
   93.2174    9.1638    2.8845 H   0  0  0  0  0  0  0  0  0  0  0  0
   93.7805    8.5422    4.4468 H   0  0  0  0  0  0  0  0  0  0  0  0
   94.9465    8.9780    3.1890 H   0  0  0  0  0  0  0  0  0  0  0  0
   93.9738    6.1894    4.7500 H   0  0  0  0  0  0  0  0  0  0  0  0
   94.8142    2.9444    3.9117 H   0  0  0  0  0  0  0  0  0  0  0  0
   93.0504    2.9297    3.9342 H   0  0  0  0  0  0  0  0  0  0  0  0
   93.9406    3.8759    5.1408 H   0  0  0  0  0  0  0  0  0  0  0  0
   96.5038    4.1542    1.6118 H   0  0  0  0  0  0  0  0  0  0  0  0
   98.3707    2.3626    0.8807 H   0  0  0  0  0  0  0  0  0  0  0  0
   54.2039   -0.0970   -0.0172 C   0  0  0  0  0  0  0  0  0  0  0  0
   52.9757   -0.0910   -0.0160 C   0  0  0  0  0  0  0  0  0  0  0  0
   51.6300   -0.0800   -0.0158 C   0  0  0  0  0  0  0  0  0  0  0  0
   50.4062   -0.0672   -0.0144 C   0  0  0  0  0  0  0  0  0  0  0  0
   55.5494   -0.1007   -0.0182 C   0  0  0  0  0  0  0  0  0  0  0  0
   56.7734   -0.1012   -0.0191 C   0  0  0  0  0  0  0  0  0  0  0  0
   70.2853   -0.0405   -0.0319 C   0  0  0  0  0  0  0  0  0  0  0  0
   69.0562   -0.0442   -0.0320 C   0  0  0  0  0  0  0  0  0  0  0  0
   67.7119   -0.0476   -0.0315 C   0  0  0  0  0  0  0  0  0  0  0  0
   66.4871   -0.0505   -0.0318 C   0  0  0  0  0  0  0  0  0  0  0  0
   71.6295   -0.0359   -0.0303 C   0  0  0  0  0  0  0  0  0  0  0  0
   72.8543   -0.0328   -0.0285 C   0  0  0  0  0  0  0  0  0  0  0  0
   86.3659    0.0375   -0.0093 C   0  0  0  0  0  0  0  0  0  0  0  0
   85.1377    0.0350   -0.0073 C   0  0  0  0  0  0  0  0  0  0  0  0
   83.7921    0.0351   -0.0069 C   0  0  0  0  0  0  0  0  0  0  0  0
   82.5681    0.0257   -0.0065 C   0  0  0  0  0  0  0  0  0  0  0  0
   87.7116    0.0305   -0.0168 C   0  0  0  0  0  0  0  0  0  0  0  0
   88.9355    0.0238   -0.0196 C   0  0  0  0  0  0  0  0  0  0  0  0
   61.6307   -0.0761   -0.0254 Zn  0  0  0  0  0  0  0  0  0  0  0  0
   58.1795   -0.0964   -0.0205 C   0  0  0  0  0  0  0  0  0  0  0  0
   58.8270    0.0644    1.2216 C   0  0  0  0  0  0  0  0  0  0  0  0
   58.1572    0.2166    2.4802 C   0  0  0  0  0  0  0  0  0  0  0  0
   59.1197    0.3360    3.4309 C   0  0  0  0  0  0  0  0  0  0  0  0
   60.3866    0.2580    2.7596 C   0  0  0  0  0  0  0  0  0  0  0  0
   60.1724    0.0935    1.4175 N   0  0  0  0  0  0  0  0  0  0  0  0
   61.6327    0.3374    3.3856 C   0  0  0  0  0  0  0  0  0  0  0  0
   61.6345    0.5128    4.8682 C   0  0  0  0  0  0  0  0  0  0  0  0
   61.6352    1.7968    5.4196 C   0  0  0  0  0  0  0  0  0  0  0  0
   61.6293    3.0013    4.5162 C   0  0  0  0  0  0  0  0  0  0  0  0
   61.6397    1.9477    6.8016 C   0  0  0  0  0  0  0  0  0  0  0  0
   61.6423    0.8390    7.6411 C   0  0  0  0  0  0  0  0  0  0  0  0
   61.6682    1.0100    9.1361 C   0  0  0  0  0  0  0  0  0  0  0  0
   61.6404   -0.4350    7.0813 C   0  0  0  0  0  0  0  0  0  0  0  0
   61.6358   -0.6088    5.7026 C   0  0  0  0  0  0  0  0  0  0  0  0
   61.6311   -1.9897    5.1028 C   0  0  0  0  0  0  0  0  0  0  0  0
   62.8776    0.2668    2.7568 C   0  0  0  0  0  0  0  0  0  0  0  0
   64.1454    0.3528    3.4254 C   0  0  0  0  0  0  0  0  0  0  0  0
   65.1067    0.2430    2.4722 C   0  0  0  0  0  0  0  0  0  0  0  0
   63.0906    0.1066    1.4135 N   0  0  0  0  0  0  0  0  0  0  0  0
   64.4355    0.0890    1.2148 C   0  0  0  0  0  0  0  0  0  0  0  0
   65.0826   -0.0564   -0.0304 C   0  0  0  0  0  0  0  0  0  0  0  0
   64.4337   -0.2070   -1.2740 C   0  0  0  0  0  0  0  0  0  0  0  0
   65.1032   -0.3489   -2.5339 C   0  0  0  0  0  0  0  0  0  0  0  0
   64.1405   -0.4677   -3.4845 C   0  0  0  0  0  0  0  0  0  0  0  0
   62.8737   -0.4005   -2.8119 C   0  0  0  0  0  0  0  0  0  0  0  0
   63.0887   -0.2408   -1.4688 N   0  0  0  0  0  0  0  0  0  0  0  0
   61.6278   -0.4870   -3.4368 C   0  0  0  0  0  0  0  0  0  0  0  0
   61.6270   -0.6595   -4.9197 C   0  0  0  0  0  0  0  0  0  0  0  0
   61.5851    0.4632   -5.7516 C   0  0  0  0  0  0  0  0  0  0  0  0
   61.5365    1.8420   -5.1489 C   0  0  0  0  0  0  0  0  0  0  0  0
   61.5874    0.2925   -7.1307 C   0  0  0  0  0  0  0  0  0  0  0  0
   61.6293   -0.9795   -7.6934 C   0  0  0  0  0  0  0  0  0  0  0  0
   61.6525   -1.1469   -9.1888 C   0  0  0  0  0  0  0  0  0  0  0  0
   61.6693   -2.0894   -6.8564 C   0  0  0  0  0  0  0  0  0  0  0  0
   61.6678   -1.9416   -5.4740 C   0  0  0  0  0  0  0  0  0  0  0  0
   61.7080   -3.1474   -4.5733 C   0  0  0  0  0  0  0  0  0  0  0  0
   60.3829   -0.4256   -2.8067 C   0  0  0  0  0  0  0  0  0  0  0  0
   59.1150   -0.5211   -3.4739 C   0  0  0  0  0  0  0  0  0  0  0  0
   58.1539   -0.4133   -2.5204 C   0  0  0  0  0  0  0  0  0  0  0  0
   58.8256   -0.2512   -1.2640 C   0  0  0  0  0  0  0  0  0  0  0  0
   60.1706   -0.2635   -1.4640 N   0  0  0  0  0  0  0  0  0  0  0  0
   57.0868    0.2286    2.6111 H   0  0  0  0  0  0  0  0  0  0  0  0
   58.9912    0.4655    4.4937 H   0  0  0  0  0  0  0  0  0  0  0  0
   62.5072    2.9924    3.8673 H   0  0  0  0  0  0  0  0  0  0  0  0
   61.6324    3.9237    5.0962 H   0  0  0  0  0  0  0  0  0  0  0  0
   60.7432    2.9915    3.8785 H   0  0  0  0  0  0  0  0  0  0  0  0
   61.6398    2.9452    7.2290 H   0  0  0  0  0  0  0  0  0  0  0  0
   62.6935    0.9217    9.5028 H   0  0  0  0  0  0  0  0  0  0  0  0
   61.0681    0.2411    9.6240 H   0  0  0  0  0  0  0  0  0  0  0  0
   61.2870    1.9901    9.4232 H   0  0  0  0  0  0  0  0  0  0  0  0
   61.6412   -1.3056    7.7291 H   0  0  0  0  0  0  0  0  0  0  0  0
   60.7464   -2.1280    4.4782 H   0  0  0  0  0  0  0  0  0  0  0  0
   62.5105   -2.1315    4.4715 H   0  0  0  0  0  0  0  0  0  0  0  0
   61.6325   -2.7527    5.8807 H   0  0  0  0  0  0  0  0  0  0  0  0
   64.2752    0.4809    4.4882 H   0  0  0  0  0  0  0  0  0  0  0  0
   66.1773    0.2637    2.6010 H   0  0  0  0  0  0  0  0  0  0  0  0
   66.1735   -0.3552   -2.6658 H   0  0  0  0  0  0  0  0  0  0  0  0
   64.2688   -0.5897   -4.5483 H   0  0  0  0  0  0  0  0  0  0  0  0
   60.6403    1.9552   -4.5356 H   0  0  0  0  0  0  0  0  0  0  0  0
   61.5272    2.6068   -5.9250 H   0  0  0  0  0  0  0  0  0  0  0  0
   62.4034    2.0054   -4.5058 H   0  0  0  0  0  0  0  0  0  0  0  0
   61.5547    1.1640   -7.7766 H   0  0  0  0  0  0  0  0  0  0  0  0
   61.2898   -2.1339   -9.4763 H   0  0  0  0  0  0  0  0  0  0  0  0
   62.6745   -1.0379   -9.5593 H   0  0  0  0  0  0  0  0  0  0  0  0
   61.0355   -0.3892   -9.6729 H   0  0  0  0  0  0  0  0  0  0  0  0
   61.7005   -3.0854   -7.2860 H   0  0  0  0  0  0  0  0  0  0  0  0
   61.7165   -4.0686   -5.1552 H   0  0  0  0  0  0  0  0  0  0  0  0
   60.8377   -3.1569   -3.9143 H   0  0  0  0  0  0  0  0  0  0  0  0
   62.6011   -3.1216   -3.9459 H   0  0  0  0  0  0  0  0  0  0  0  0
   58.9850   -0.6544   -4.5361 H   0  0  0  0  0  0  0  0  0  0  0  0
   57.0834   -0.4398   -2.6480 H   0  0  0  0  0  0  0  0  0  0  0  0
   77.7107   -0.0058   -0.0171 Zn  0  0  0  0  0  0  0  0  0  0  0  0
   74.2588   -0.0264   -0.0253 C   0  0  0  0  0  0  0  0  0  0  0  0
   74.9031    0.1216    1.2211 C   0  0  0  0  0  0  0  0  0  0  0  0
   74.2289    0.2608    2.4787 C   0  0  0  0  0  0  0  0  0  0  0  0
   75.1881    0.3775    3.4332 C   0  0  0  0  0  0  0  0  0  0  0  0
   76.4574    0.3111    2.7653 C   0  0  0  0  0  0  0  0  0  0  0  0
   76.2475    0.1547    1.4211 N   0  0  0  0  0  0  0  0  0  0  0  0
   77.7008    0.3967    3.3952 C   0  0  0  0  0  0  0  0  0  0  0  0
   77.6962    0.5645    4.8787 C   0  0  0  0  0  0  0  0  0  0  0  0
   77.6894    1.8455    5.4370 C   0  0  0  0  0  0  0  0  0  0  0  0
   77.6902    3.0548    4.5402 C   0  0  0  0  0  0  0  0  0  0  0  0
   77.6810    1.9888    6.8199 C   0  0  0  0  0  0  0  0  0  0  0  0
   77.6784    0.8755    7.6533 C   0  0  0  0  0  0  0  0  0  0  0  0
   77.6866    1.0393    9.1494 C   0  0  0  0  0  0  0  0  0  0  0  0
   77.6880   -0.3953    7.0867 C   0  0  0  0  0  0  0  0  0  0  0  0
   77.6965   -0.5616    5.7070 C   0  0  0  0  0  0  0  0  0  0  0  0
   77.7055   -1.9393    5.1000 C   0  0  0  0  0  0  0  0  0  0  0  0
   78.9482    0.3381    2.7697 C   0  0  0  0  0  0  0  0  0  0  0  0
   80.2135    0.4321    3.4420 C   0  0  0  0  0  0  0  0  0  0  0  0
   81.1782    0.3280    2.4918 C   0  0  0  0  0  0  0  0  0  0  0  0
   79.1656    0.1797    1.4273 N   0  0  0  0  0  0  0  0  0  0  0  0
   80.5114    0.1689    1.2324 C   0  0  0  0  0  0  0  0  0  0  0  0
   81.1620    0.0179   -0.0092 C   0  0  0  0  0  0  0  0  0  0  0  0
   80.5189   -0.1420   -1.2537 C   0  0  0  0  0  0  0  0  0  0  0  0
   81.1935   -0.2911   -2.5101 C   0  0  0  0  0  0  0  0  0  0  0  0
   80.2346   -0.4097   -3.4646 C   0  0  0  0  0  0  0  0  0  0  0  0
   78.9651   -0.3350   -2.7977 C   0  0  0  0  0  0  0  0  0  0  0  0
   79.1743   -0.1726   -1.4546 N   0  0  0  0  0  0  0  0  0  0  0  0
   77.7216   -0.4149   -3.4286 C   0  0  0  0  0  0  0  0  0  0  0  0
   77.7261   -0.5908   -4.9111 C   0  0  0  0  0  0  0  0  0  0  0  0
   77.6996    0.5298   -5.7464 C   0  0  0  0  0  0  0  0  0  0  0  0
   77.6714    1.9110   -5.1479 C   0  0  0  0  0  0  0  0  0  0  0  0
   77.6991    0.3548   -7.1251 C   0  0  0  0  0  0  0  0  0  0  0  0
   77.7240   -0.9193   -7.6838 C   0  0  0  0  0  0  0  0  0  0  0  0
   77.7401   -1.0923   -9.1787 C   0  0  0  0  0  0  0  0  0  0  0  0
   77.7536   -2.0270   -6.8434 C   0  0  0  0  0  0  0  0  0  0  0  0
   77.7547   -1.8750   -5.4615 C   0  0  0  0  0  0  0  0  0  0  0  0
   77.7854   -3.0783   -4.5571 C   0  0  0  0  0  0  0  0  0  0  0  0
   76.4742   -0.3452   -2.8047 C   0  0  0  0  0  0  0  0  0  0  0  0
   75.2089   -0.4319   -3.4779 C   0  0  0  0  0  0  0  0  0  0  0  0
   74.2440   -0.3228   -2.5284 C   0  0  0  0  0  0  0  0  0  0  0  0
   74.9105   -0.1693   -1.2683 C   0  0  0  0  0  0  0  0  0  0  0  0
   76.2561   -0.1859   -1.4621 N   0  0  0  0  0  0  0  0  0  0  0  0
   73.1581    0.2672    2.6067 H   0  0  0  0  0  0  0  0  0  0  0  0
   75.0558    0.4986    4.4966 H   0  0  0  0  0  0  0  0  0  0  0  0
   78.5775    3.0534    3.9040 H   0  0  0  0  0  0  0  0  0  0  0  0
   77.6811    3.9741    5.1251 H   0  0  0  0  0  0  0  0  0  0  0  0
   76.8135    3.0445    3.8897 H   0  0  0  0  0  0  0  0  0  0  0  0
   77.6742    2.9839    7.2527 H   0  0  0  0  0  0  0  0  0  0  0  0
   78.7111    0.9807    9.5245 H   0  0  0  0  0  0  0  0  0  0  0  0
   77.1061    0.2502    9.6283 H   0  0  0  0  0  0  0  0  0  0  0  0
   77.2735    2.0060    9.4378 H   0  0  0  0  0  0  0  0  0  0  0  0
   77.6868   -1.2694    7.7297 H   0  0  0  0  0  0  0  0  0  0  0  0
   76.8250   -2.0816    4.4704 H   0  0  0  0  0  0  0  0  0  0  0  0
   78.5890   -2.0705    4.4723 H   0  0  0  0  0  0  0  0  0  0  0  0
   77.7094   -2.7063    5.8739 H   0  0  0  0  0  0  0  0  0  0  0  0
   80.3395    0.5612    4.5052 H   0  0  0  0  0  0  0  0  0  0  0  0
   82.2483    0.3547    2.6235 H   0  0  0  0  0  0  0  0  0  0  0  0
   82.2644   -0.3017   -2.6373 H   0  0  0  0  0  0  0  0  0  0  0  0
   80.3671   -0.5358   -4.5273 H   0  0  0  0  0  0  0  0  0  0  0  0
   76.7804    2.0378   -4.5299 H   0  0  0  0  0  0  0  0  0  0  0  0
   77.6679    2.6733   -5.9264 H   0  0  0  0  0  0  0  0  0  0  0  0
   78.5441    2.0651   -4.5104 H   0  0  0  0  0  0  0  0  0  0  0  0
   77.6770    1.2246   -7.7736 H   0  0  0  0  0  0  0  0  0  0  0  0
   77.3503   -2.0702   -9.4619 H   0  0  0  0  0  0  0  0  0  0  0  0
   78.7639   -1.0124   -9.5516 H   0  0  0  0  0  0  0  0  0  0  0  0
   77.1426   -0.3200   -9.6643 H   0  0  0  0  0  0  0  0  0  0  0  0
   77.7740   -3.0246   -7.2700 H   0  0  0  0  0  0  0  0  0  0  0  0
   77.7924   -4.0012   -5.1361 H   0  0  0  0  0  0  0  0  0  0  0  0
   76.9123   -3.0821   -3.9016 H   0  0  0  0  0  0  0  0  0  0  0  0
   78.6760   -3.0543   -3.9260 H   0  0  0  0  0  0  0  0  0  0  0  0
   75.0831   -0.5608   -4.5412 H   0  0  0  0  0  0  0  0  0  0  0  0
   73.1739   -0.3439   -2.6611 H   0  0  0  0  0  0  0  0  0  0  0  0
  2  3  4  0  0  0  0
  3  4  1  0  0  0  0
  4  5  2  0  0  0  0
  5  6  4  0  0  0  0
  1  7  1  0  0  0  0
  3  7  4  0  0  0  0
  6  7  4  0  0  0  0
  6  8  4  0  0  0  0
  8  9  1  0  0  0  0
  9 10  4  0  0  0  0
 10 11  1  0  0  0  0
 10 12  4  0  0  0  0
 12 13  4  0  0  0  0
 13 14  1  0  0  0  0
 13 15  4  0  0  0  0
  9 16  4  0  0  0  0
 15 16  4  0  0  0  0
 16 17  1  0  0  0  0
  8 18  4  0  0  0  0
 18 19  4  0  0  0  0
 19 20  2  0  0  0  0
  1 21  1  0  0  0  0
 18 21  4  0  0  0  0
 20 22  4  0  0  0  0
 21 22  4  0  0  0  0
 22 23  4  0  0  0  0
 23 24  4  0  0  0  0
 24 25  4  0  0  0  0
 25 26  2  0  0  0  0
 26 27  4  0  0  0  0
  1 28  1  0  0  0  0
 24 28  4  0  0  0  0
 27 28  4  0  0  0  0
 27 29  4  0  0  0  0
 29 30  1  0  0  0  0
 30 31  4  0  0  0  0
 31 32  1  0  0  0  0
 31 33  4  0  0  0  0
 33 34  4  0  0  0  0
 34 35  1  0  0  0  0
 34 36  4  0  0  0  0
 30 37  4  0  0  0  0
 36 37  4  0  0  0  0
 37 38  1  0  0  0  0
 29 39  4  0  0  0  0
 39 40  4  0  0  0  0
 40 41  2  0  0  0  0
  2 42  4  0  0  0  0
 41 42  1  0  0  0  0
  1 43  1  0  0  0  0
 39 43  4  0  0  0  0
 42 43  4  0  0  0  0
  2 44  1  0  0  0  0
  4 45  1  0  0  0  0
  5 46  1  0  0  0  0
 11 47  1  0  0  0  0
 11 48  1  0  0  0  0
 11 49  1  0  0  0  0
 12 50  1  0  0  0  0
 14 51  1  0  0  0  0
 14 52  1  0  0  0  0
 14 53  1  0  0  0  0
 15 54  1  0  0  0  0
 17 55  1  0  0  0  0
 17 56  1  0  0  0  0
 17 57  1  0  0  0  0
 19 58  1  0  0  0  0
 20 59  1  0  0  0  0
 25 60  1  0  0  0  0
 26 61  1  0  0  0  0
 32 62  1  0  0  0  0
 32 63  1  0  0  0  0
 32 64  1  0  0  0  0
 33 65  1  0  0  0  0
 35 66  1  0  0  0  0
 35 67  1  0  0  0  0
 35 68  1  0  0  0  0
 36 69  1  0  0  0  0
 38 70  1  0  0  0  0
 38 71  1  0  0  0  0
 38 72  1  0  0  0  0
 40 73  1  0  0  0  0
 41 74  1  0  0  0  0
 76 77  4  0  0  0  0
 77 78  1  0  0  0  0
 78 79  2  0  0  0  0
 79 80  4  0  0  0  0
 75 81  1  0  0  0  0
 77 81  4  0  0  0  0
 80 81  4  0  0  0  0
 80 82  4  0  0  0  0
 82 83  1  0  0  0  0
 83 84  4  0  0  0  0
 84 85  1  0  0  0  0
 84 86  4  0  0  0  0
 86 87  4  0  0  0  0
 87 88  1  0  0  0  0
 87 89  4  0  0  0  0
 83 90  4  0  0  0  0
 89 90  4  0  0  0  0
 90 91  1  0  0  0  0
 82 92  4  0  0  0  0
 92 93  4  0  0  0  0
 93 94  2  0  0  0  0
 75 95  1  0  0  0  0
 92 95  4  0  0  0  0
 94 96  4  0  0  0  0
 95 96  4  0  0  0  0
 96 97  4  0  0  0  0
 97 98  4  0  0  0  0
 98 99  4  0  0  0  0
 99100  2  0  0  0  0
100101  4  0  0  0  0
 75102  1  0  0  0  0
 98102  4  0  0  0  0
101102  4  0  0  0  0
101103  4  0  0  0  0
103104  1  0  0  0  0
104105  4  0  0  0  0
105106  1  0  0  0  0
105107  4  0  0  0  0
107108  4  0  0  0  0
108109  1  0  0  0  0
108110  4  0  0  0  0
104111  4  0  0  0  0
110111  4  0  0  0  0
111112  1  0  0  0  0
103113  4  0  0  0  0
113114  4  0  0  0  0
114115  2  0  0  0  0
 76116  4  0  0  0  0
115116  1  0  0  0  0
 75117  1  0  0  0  0
113117  4  0  0  0  0
116117  4  0  0  0  0
 76118  1  0  0  0  0
 78119  1  0  0  0  0
 79120  1  0  0  0  0
 85121  1  0  0  0  0
 85122  1  0  0  0  0
 85123  1  0  0  0  0
 86124  1  0  0  0  0
 88125  1  0  0  0  0
 88126  1  0  0  0  0
 88127  1  0  0  0  0
 89128  1  0  0  0  0
 91129  1  0  0  0  0
 91130  1  0  0  0  0
 91131  1  0  0  0  0
 93132  1  0  0  0  0
 94133  1  0  0  0  0
 99134  1  0  0  0  0
100135  1  0  0  0  0
106136  1  0  0  0  0
106137  1  0  0  0  0
106138  1  0  0  0  0
107139  1  0  0  0  0
109140  1  0  0  0  0
109141  1  0  0  0  0
109142  1  0  0  0  0
110143  1  0  0  0  0
112144  1  0  0  0  0
112145  1  0  0  0  0
112146  1  0  0  0  0
114147  1  0  0  0  0
115148  1  0  0  0  0
149150  3  0  0  0  0
150151  4  0  0  0  0
 23152  4  0  0  0  0
151152  3  0  0  0  0
149153  4  0  0  0  0
153154  3  0  0  0  0
155156  3  0  0  0  0
156157  4  0  0  0  0
157158  3  0  0  0  0
155159  4  0  0  0  0
159160  3  0  0  0  0
161162  3  0  0  0  0
162163  4  0  0  0  0
163164  3  0  0  0  0
161165  4  0  0  0  0
 97166  4  0  0  0  0
165166  3  0  0  0  0
154168  4  0  0  0  0
168169  4  0  0  0  0
169170  4  0  0  0  0
170171  2  0  0  0  0
171172  4  0  0  0  0
167173  1  0  0  0  0
169173  4  0  0  0  0
172173  4  0  0  0  0
172174  4  0  0  0  0
174175  1  0  0  0  0
175176  4  0  0  0  0
176177  1  0  0  0  0
176178  4  0  0  0  0
178179  4  0  0  0  0
179180  1  0  0  0  0
179181  4  0  0  0  0
175182  4  0  0  0  0
181182  4  0  0  0  0
182183  1  0  0  0  0
174184  4  0  0  0  0
184185  4  0  0  0  0
185186  2  0  0  0  0
167187  1  0  0  0  0
184187  4  0  0  0  0
186188  4  0  0  0  0
187188  4  0  0  0  0
158189  4  0  0  0  0
188189  4  0  0  0  0
189190  4  0  0  0  0
190191  4  0  0  0  0
191192  2  0  0  0  0
192193  4  0  0  0  0
167194  1  0  0  0  0
190194  4  0  0  0  0
193194  4  0  0  0  0
193195  4  0  0  0  0
195196  1  0  0  0  0
196197  4  0  0  0  0
197198  1  0  0  0  0
197199  4  0  0  0  0
199200  4  0  0  0  0
200201  1  0  0  0  0
200202  4  0  0  0  0
196203  4  0  0  0  0
202203  4  0  0  0  0
203204  1  0  0  0  0
195205  4  0  0  0  0
205206  4  0  0  0  0
206207  2  0  0  0  0
168208  4  0  0  0  0
207208  4  0  0  0  0
167209  1  0  0  0  0
205209  4  0  0  0  0
208209  4  0  0  0  0
170210  1  0  0  0  0
171211  1  0  0  0  0
177212  1  0  0  0  0
177213  1  0  0  0  0
177214  1  0  0  0  0
178215  1  0  0  0  0
180216  1  0  0  0  0
180217  1  0  0  0  0
180218  1  0  0  0  0
181219  1  0  0  0  0
183220  1  0  0  0  0
183221  1  0  0  0  0
183222  1  0  0  0  0
185223  1  0  0  0  0
186224  1  0  0  0  0
191225  1  0  0  0  0
192226  1  0  0  0  0
198227  1  0  0  0  0
198228  1  0  0  0  0
198229  1  0  0  0  0
199230  1  0  0  0  0
201231  1  0  0  0  0
201232  1  0  0  0  0
201233  1  0  0  0  0
202234  1  0  0  0  0
204235  1  0  0  0  0
204236  1  0  0  0  0
204237  1  0  0  0  0
206238  1  0  0  0  0
207239  1  0  0  0  0
160241  4  0  0  0  0
241242  4  0  0  0  0
242243  4  0  0  0  0
243244  2  0  0  0  0
244245  4  0  0  0  0
240246  1  0  0  0  0
242246  4  0  0  0  0
245246  4  0  0  0  0
245247  4  0  0  0  0
247248  1  0  0  0  0
248249  4  0  0  0  0
249250  1  0  0  0  0
249251  4  0  0  0  0
251252  4  0  0  0  0
252253  1  0  0  0  0
252254  4  0  0  0  0
248255  4  0  0  0  0
254255  4  0  0  0  0
255256  1  0  0  0  0
247257  4  0  0  0  0
257258  4  0  0  0  0
258259  2  0  0  0  0
240260  1  0  0  0  0
257260  4  0  0  0  0
259261  4  0  0  0  0
260261  4  0  0  0  0
164262  4  0  0  0  0
261262  4  0  0  0  0
262263  4  0  0  0  0
263264  4  0  0  0  0
264265  2  0  0  0  0
265266  4  0  0  0  0
240267  1  0  0  0  0
263267  4  0  0  0  0
266267  4  0  0  0  0
266268  4  0  0  0  0
268269  1  0  0  0  0
269270  4  0  0  0  0
270271  1  0  0  0  0
270272  4  0  0  0  0
272273  4  0  0  0  0
273274  1  0  0  0  0
273275  4  0  0  0  0
269276  4  0  0  0  0
275276  4  0  0  0  0
276277  1  0  0  0  0
268278  4  0  0  0  0
278279  4  0  0  0  0
279280  2  0  0  0  0
241281  4  0  0  0  0
280281  4  0  0  0  0
240282  1  0  0  0  0
278282  4  0  0  0  0
281282  4  0  0  0  0
243283  1  0  0  0  0
244284  1  0  0  0  0
250285  1  0  0  0  0
250286  1  0  0  0  0
250287  1  0  0  0  0
251288  1  0  0  0  0
253289  1  0  0  0  0
253290  1  0  0  0  0
253291  1  0  0  0  0
254292  1  0  0  0  0
256293  1  0  0  0  0
256294  1  0  0  0  0
256295  1  0  0  0  0
258296  1  0  0  0  0
259297  1  0  0  0  0
264298  1  0  0  0  0
265299  1  0  0  0  0
271300  1  0  0  0  0
271301  1  0  0  0  0
271302  1  0  0  0  0
272303  1  0  0  0  0
274304  1  0  0  0  0
274305  1  0  0  0  0
274306  1  0  0  0  0
275307  1  0  0  0  0
277308  1  0  0  0  0
277309  1  0  0  0  0
277310  1  0  0  0  0
279311  1  0  0  0  0
280312  1  0  0  0  0
M  END
