228

C 31.806197 -0.015470 -0.011077
C 32.531385 -1.394240 0.032106
C 31.913741 -2.620137 0.125734
C 32.935665 -3.603039 0.096878
C 34.144046 -2.943246 -0.013615
N 33.887001 -1.595705 -0.021339
C 35.577768 -3.613329 -0.135341
C 35.629848 -5.099212 -0.282828
C 35.559206 -5.691469 -1.564985
C 35.449037 -4.845549 -2.806774
C 35.597575 -7.090670 -1.684294
C 35.712105 -7.909713 -0.555959
C 35.716256 -9.401135 -0.698367
C 35.765648 -7.318941 0.710922
C 35.731143 -5.922936 0.862597
C 35.800785 -5.326254 2.244191
C 36.704031 -2.848746 -0.132336
C 38.016941 -3.438177 -0.293093
C 38.918420 -2.464209 -0.277340
N 36.893607 -1.496330 -0.006832
C 38.230715 -1.201129 -0.088876
C 38.902391 -0.020069 -0.022143
C 38.130385 1.347873 0.227276
C 38.700792 2.538177 0.636528
C 37.673333 3.510168 0.694844
C 36.498696 2.886470 0.333023
N 36.779638 1.562689 0.082930
C 35.071273 3.578165 0.228326
C 35.013825 5.069304 0.222413
C 35.148998 5.779164 -0.992742
C 35.345182 5.053028 -2.297996
C 35.089527 7.182796 -0.985407
C 34.908087 7.892392 0.206307
C 34.804247 9.387066 0.194784
C 34.764130 7.184340 1.404243
C 34.824712 5.781170 1.430018
C 34.658817 5.058740 2.741400
C 33.951883 2.812944 0.136310
C 32.622550 3.388772 0.032037
C 31.740747 2.396156 -0.026645
C 32.471402 1.153845 0.029938
N 33.795224 1.454557 0.119046
H 30.725139 -0.014638 -0.085865
H 30.850436 -2.788296 0.195541
H 32.804887 -4.673682 0.137731
H 34.592464 -0.862621 -0.056290
H 34.547669 -4.226049 -2.775298
H 35.380755 -5.467272 -3.706254
H 36.332292 -4.209706 -2.919438
H 35.539044 -7.541057 -2.672029
H 34.691647 -9.783764 -0.664694
H 36.174918 -9.702430 -1.645921
H 36.295197 -9.869643 0.104460
H 35.836962 -7.947868 1.594735
H 34.899574 -4.743828 2.458921
H 35.871462 -6.106123 3.010334
H 36.685648 -4.690840 2.347634
H 38.233427 -4.484634 -0.414204
H 39.977449 -2.614545 -0.379035
H 39.744036 2.700345 0.860494
H 37.778594 4.549936 0.966971
H 36.085031 0.853454 -0.139390
H 35.429025 5.755591 -3.134442
H 36.267524 4.464394 -2.278793
H 34.492330 4.400113 -2.508341
H 35.182372 7.722774 -1.924321
H 35.247472 9.814181 1.099885
H 33.754027 9.688739 0.139320
H 35.337692 9.813159 -0.660849
H 34.600243 7.726353 2.332182
H 34.641193 5.762264 3.581225
H 33.715597 4.504540 2.758374
H 35.493419 4.374094 2.919143
H 32.388992 4.438140 0.008919
H 30.673612 2.495660 -0.105311
C 61.769113 -0.024099 -0.010858
C 61.043925 1.355084 -0.037811
C 61.661569 2.584155 -0.006615
C 60.639645 3.564320 -0.085393
C 59.431264 2.899764 -0.162207
N 59.688309 1.553572 -0.101428
C 57.997543 3.562793 -0.317835
C 57.945463 5.039259 -0.540656
C 58.016105 5.565580 -1.851259
C 58.126274 4.657636 -3.048446
C 57.977735 6.956909 -2.041533
C 57.863206 7.832244 -0.956287
C 57.859055 9.314500 -1.174317
C 57.809663 7.306630 0.338984
C 57.844168 5.920138 0.561420
C 57.774526 5.394452 1.971556
C 56.871279 2.799351 -0.275971
C 55.558370 3.379849 -0.466479
C 54.656891 2.407941 -0.401242
N 56.681703 1.455062 -0.081888
C 55.344596 1.156073 -0.148821
C 54.672919 -0.020069 -0.022143
C 55.444925 -1.373564 0.296484
C 54.874519 -2.541528 0.765708
C 55.901978 -3.509298 0.873354
C 57.076614 -2.904798 0.480299
N 56.795672 -1.595439 0.163243
C 58.504037 -3.600921 0.410895
C 58.561486 -5.090432 0.480781
C 58.426312 -5.861139 -0.696721
C 58.230128 -5.202285 -2.037197
C 58.485784 -7.262584 -0.618052
C 58.667224 -7.910690 0.608190
C 58.771064 -9.404017 0.672653
C 58.811181 -7.142664 1.768588
C 58.750598 -5.739998 1.723008
C 58.916493 -4.951846 2.995976
C 59.623427 -2.841366 0.280103
C 60.952761 -3.421749 0.205233
C 61.834564 -2.433398 0.096174
C 61.103909 -1.189818 0.089538
N 59.780086 -1.485611 0.193816
H 62.850172 -0.028731 -0.085507
H 62.724875 2.755645 0.054555
H 60.770424 4.635656 -0.099012
H 58.982847 0.819659 -0.099071
H 59.027641 4.040537 -2.985522
H 58.194556 5.232836 -3.978364
H 57.243019 4.016888 -3.128646
H 58.036267 7.356509 -3.050883
H 58.883664 9.698347 -1.160137
H 57.400392 9.567244 -2.135962
H 57.280113 9.823209 -0.396342
H 57.738349 7.979667 1.189688
H 58.675737 4.823693 2.215613
H 57.703848 6.212255 2.697070
H 56.889662 4.765118 2.107163
H 55.341884 4.418798 -0.640624
H 53.597861 2.552914 -0.510447
H 53.831275 -2.692102 0.997628
H 55.796717 -4.533891 1.197978
H 57.490280 -0.898422 -0.094838
H 58.146286 -5.946456 -2.836852
H 57.307787 -4.613437 -2.047937
H 59.082981 -4.560907 -2.280456
H 58.392939 -7.849587 -1.528306
H 58.327839 -9.784575 1.598294
H 59.821284 -9.708119 0.632595
H 58.237618 -9.873050 -0.160216
H 58.975067 -7.636810 2.722877
H 58.934117 -5.611773 3.870475
H 59.859714 -4.397500 2.984758
H 58.081892 -4.259050 3.138689
H 61.186318 -4.470935 0.235482
H 62.901698 -2.536773 0.022667
C 40.825320 -0.020069 -0.022143
C 42.047238 -0.020069 -0.022143
C 51.528073 -0.020069 -0.022143
C 52.749990 -0.020069 -0.022143
C 43.197216 0.041764 0.046082
C 43.985605 -0.743234 1.176092
C 43.458097 -1.240942 2.350386
C 44.493610 -1.943961 3.016025
C 45.625139 -1.843128 2.235537
N 45.323637 -1.053713 1.153191
C 47.024205 -2.534522 2.515745
C 47.031575 -3.766563 3.359219
C 46.771789 -5.027531 2.773859
C 46.489286 -5.156347 1.299535
C 46.791348 -6.181391 3.575423
C 47.054391 -6.105026 4.947064
C 47.115797 -7.349655 5.778367
C 47.321381 -4.856647 5.519000
C 47.302917 -3.683867 4.745171
C 47.602565 -2.361871 5.402945
C 48.156790 -2.035969 1.951977
C 49.448600 -2.662829 2.143592
C 50.357405 -1.963754 1.473479
N 48.362934 -0.952725 1.142133
C 49.690654 -0.856209 0.817939
C 50.357553 0.041764 0.046082
C 49.569113 1.230329 -0.645602
C 50.093611 2.444803 -1.038974
C 49.058459 3.162964 -1.689180
C 47.929205 2.371678 -1.660874
N 48.232710 1.227837 -0.964799
C 46.530231 2.704811 -2.329735
C 46.524442 3.652237 -3.483811
C 46.793970 3.180804 -4.789498
C 47.076114 1.723271 -5.048417
C 46.797175 4.084047 -5.865465
C 46.527116 5.442883 -5.669905
C 46.567149 6.397633 -6.824235
C 46.274658 5.906536 -4.374502
C 46.265960 5.028078 -3.277948
C 45.979531 5.568090 -1.900981
C 45.398189 2.100404 -1.880034
C 44.106474 2.343176 -2.487891
C 43.198161 1.619122 -1.844054
C 43.864846 0.877890 -0.791954
N 45.193142 1.204560 -0.866773
H 42.436804 -1.134294 2.682322
H 44.417983 -2.482142 3.948943
H 45.993435 -0.728486 0.461619
H 45.598466 -4.584826 1.024534
H 47.345451 -4.812989 0.712364
H 46.300681 -6.197973 1.021437
H 46.602515 -7.148973 3.117281
H 46.787594 -7.150927 6.803699
H 46.457946 -8.124449 5.371956
H 48.140181 -7.732400 5.803243
H 47.550086 -4.789265 6.579657
H 46.804065 -1.638923 5.209421
H 47.678010 -2.469552 6.491048
H 48.556796 -1.962434 5.045978
H 49.645141 -3.546053 2.725402
H 51.405824 -2.197473 1.436313
H 51.113619 2.771156 -0.899898
H 49.133988 4.138412 -2.146033
H 47.564903 0.508887 -0.700671
H 47.248024 1.536136 -6.113080
H 46.224551 1.106220 -4.746948
H 47.975418 1.402621 -4.514799
H 47.010502 3.716482 -6.866314
H 46.238567 5.908350 -7.747291
H 47.585422 6.772204 -6.963688
H 45.898673 7.247937 -6.653043
H 46.080364 6.963574 -4.210253
H 46.817621 5.372324 -1.223957
H 45.832509 6.654583 -1.924111
H 45.063758 5.127408 -1.495866
H 43.910291 2.995784 -3.319951
H 42.150001 1.601954 -2.079694
