 xtb: 6.5.1 (b24c23e)
          07302204413D

220259  0     0  0            999 V2000
   40.9161   -0.0308   -0.0460 Cu  0  0  0  0  0  0  0  0  0  0  0  0
   37.5092   -0.0525   -0.0643 C   0  0  0  0  0  0  0  0  0  0  0  0
   38.1401   -1.2654    0.1674 C   0  0  0  0  0  0  0  0  0  0  0  0
   37.4601   -2.5011    0.4321 C   0  0  0  0  0  0  0  0  0  0  0  0
   38.4151   -3.4437    0.6268 C   0  0  0  0  0  0  0  0  0  0  0  0
   39.6883   -2.7935    0.4730 C   0  0  0  0  0  0  0  0  0  0  0  0
   39.4901   -1.4705    0.2003 N   0  0  0  0  0  0  0  0  0  0  0  0
   40.9307   -3.4158    0.6121 C   0  0  0  0  0  0  0  0  0  0  0  0
   40.9391   -4.8706    0.9003 C   0  0  0  0  0  0  0  0  0  0  0  0
   41.4761   -5.3699    2.0864 C   0  0  0  0  0  0  0  0  0  0  0  0
   41.4581   -6.7369    2.3141 C   0  0  0  0  0  0  0  0  0  0  0  0
   40.9543   -7.6091    1.4468 N   0  0  0  0  0  0  0  0  0  0  0  0
   40.4436   -7.1419    0.3121 C   0  0  0  0  0  0  0  0  0  0  0  0
   40.4105   -5.7924   -0.0025 C   0  0  0  0  0  0  0  0  0  0  0  0
   42.1666   -2.7758    0.5002 C   0  0  0  0  0  0  0  0  0  0  0  0
   43.4404   -3.4324    0.5824 C   0  0  0  0  0  0  0  0  0  0  0  0
   44.3905   -2.4812    0.3982 C   0  0  0  0  0  0  0  0  0  0  0  0
   42.3613   -1.4417    0.2590 N   0  0  0  0  0  0  0  0  0  0  0  0
   43.7064   -1.2387    0.1996 C   0  0  0  0  0  0  0  0  0  0  0  0
   44.3462   -0.0114   -0.0424 C   0  0  0  0  0  0  0  0  0  0  0  0
   43.6926    1.2095   -0.2799 C   0  0  0  0  0  0  0  0  0  0  0  0
   44.3638    2.4499   -0.5291 C   0  0  0  0  0  0  0  0  0  0  0  0
   43.4037    3.3923   -0.7059 C   0  0  0  0  0  0  0  0  0  0  0  0
   42.1365    2.7349   -0.5555 C   0  0  0  0  0  0  0  0  0  0  0  0
   42.3453    1.4045   -0.3053 N   0  0  0  0  0  0  0  0  0  0  0  0
   40.8938    3.3601   -0.6750 C   0  0  0  0  0  0  0  0  0  0  0  0
   40.8859    4.8213   -0.9298 C   0  0  0  0  0  0  0  0  0  0  0  0
   40.3462    5.3515   -2.1010 C   0  0  0  0  0  0  0  0  0  0  0  0
   40.3626    6.7243   -2.2917 C   0  0  0  0  0  0  0  0  0  0  0  0
   40.8680    7.5734   -1.4028 N   0  0  0  0  0  0  0  0  0  0  0  0
   41.3827    7.0764   -0.2826 C   0  0  0  0  0  0  0  0  0  0  0  0
   41.4167    5.7191   -0.0043 C   0  0  0  0  0  0  0  0  0  0  0  0
   39.6580    2.7185   -0.5688 C   0  0  0  0  0  0  0  0  0  0  0  0
   38.3778    3.3673   -0.6569 C   0  0  0  0  0  0  0  0  0  0  0  0
   37.4331    2.4092   -0.4898 C   0  0  0  0  0  0  0  0  0  0  0  0
   38.1265    1.1690   -0.2881 C   0  0  0  0  0  0  0  0  0  0  0  0
   39.4740    1.3860   -0.3355 N   0  0  0  0  0  0  0  0  0  0  0  0
   36.4241   -0.0574   -0.0579 H   0  0  0  0  0  0  0  0  0  0  0  0
   36.3883   -2.6163    0.4689 H   0  0  0  0  0  0  0  0  0  0  0  0
   38.2772   -4.4860    0.8656 H   0  0  0  0  0  0  0  0  0  0  0  0
   41.8883   -4.6952    2.8274 H   0  0  0  0  0  0  0  0  0  0  0  0
   41.8657   -7.1487    3.2327 H   0  0  0  0  0  0  0  0  0  0  0  0
   40.0427   -7.8790   -0.3776 H   0  0  0  0  0  0  0  0  0  0  0  0
   39.9940   -5.4586   -0.9454 H   0  0  0  0  0  0  0  0  0  0  0  0
   43.5850   -4.4884    0.7436 H   0  0  0  0  0  0  0  0  0  0  0  0
   45.4613   -2.6049    0.3847 H   0  0  0  0  0  0  0  0  0  0  0  0
   45.4339    2.5759   -0.5631 H   0  0  0  0  0  0  0  0  0  0  0  0
   43.5378    4.4383   -0.9288 H   0  0  0  0  0  0  0  0  0  0  0  0
   39.9335    4.6970   -2.8594 H   0  0  0  0  0  0  0  0  0  0  0  0
   39.9520    7.1603   -3.1977 H   0  0  0  0  0  0  0  0  0  0  0  0
   41.7859    7.7949    0.4250 H   0  0  0  0  0  0  0  0  0  0  0  0
   41.8365    5.3601    0.9279 H   0  0  0  0  0  0  0  0  0  0  0  0
   38.2286    4.4232   -0.8153 H   0  0  0  0  0  0  0  0  0  0  0  0
   36.3601    2.5193   -0.4931 H   0  0  0  0  0  0  0  0  0  0  0  0
   73.6370    0.0486   -0.0165 Cu  0  0  0  0  0  0  0  0  0  0  0  0
   77.0442    0.0605   -0.0039 C   0  0  0  0  0  0  0  0  0  0  0  0
   76.4164    1.2678   -0.2706 C   0  0  0  0  0  0  0  0  0  0  0  0
   77.0992    2.5074   -0.5091 C   0  0  0  0  0  0  0  0  0  0  0  0
   76.1465    3.4507   -0.7112 C   0  0  0  0  0  0  0  0  0  0  0  0
   74.8720    2.7934   -0.6062 C   0  0  0  0  0  0  0  0  0  0  0  0
   75.0670    1.4704   -0.3311 N   0  0  0  0  0  0  0  0  0  0  0  0
   73.6315    3.4220   -0.7312 C   0  0  0  0  0  0  0  0  0  0  0  0
   73.6286    4.8744   -1.0332 C   0  0  0  0  0  0  0  0  0  0  0  0
   73.1041    5.8009   -0.1329 C   0  0  0  0  0  0  0  0  0  0  0  0
   73.1273    7.1478   -0.4590 C   0  0  0  0  0  0  0  0  0  0  0  0
   73.6247    7.6079   -1.6026 N   0  0  0  0  0  0  0  0  0  0  0  0
   74.1239    6.7309   -2.4676 C   0  0  0  0  0  0  0  0  0  0  0  0
   74.1511    5.3659   -2.2287 C   0  0  0  0  0  0  0  0  0  0  0  0
   72.3937    2.7911   -0.5933 C   0  0  0  0  0  0  0  0  0  0  0  0
   71.1213    3.4356   -0.7561 C   0  0  0  0  0  0  0  0  0  0  0  0
   70.1687    2.4894   -0.5599 C   0  0  0  0  0  0  0  0  0  0  0  0
   72.1958    1.4651   -0.3146 N   0  0  0  0  0  0  0  0  0  0  0  0
   70.8498    1.2595   -0.2864 C   0  0  0  0  0  0  0  0  0  0  0  0
   70.2074    0.0375   -0.0284 C   0  0  0  0  0  0  0  0  0  0  0  0
   70.8573   -1.1795    0.2353 C   0  0  0  0  0  0  0  0  0  0  0  0
   70.1833   -2.4256    0.4454 C   0  0  0  0  0  0  0  0  0  0  0  0
   71.1407   -3.3656    0.6476 C   0  0  0  0  0  0  0  0  0  0  0  0
   72.4090   -2.6982    0.5672 C   0  0  0  0  0  0  0  0  0  0  0  0
   72.2041   -1.3694    0.3062 N   0  0  0  0  0  0  0  0  0  0  0  0
   73.6499   -3.3237    0.7037 C   0  0  0  0  0  0  0  0  0  0  0  0
   73.6538   -4.7748    1.0098 C   0  0  0  0  0  0  0  0  0  0  0  0
   74.2118   -5.6995    0.1279 C   0  0  0  0  0  0  0  0  0  0  0  0
   74.1893   -7.0459    0.4563 C   0  0  0  0  0  0  0  0  0  0  0  0
   73.6615   -7.5074    1.5856 N   0  0  0  0  0  0  0  0  0  0  0  0
   73.1298   -6.6323    2.4331 C   0  0  0  0  0  0  0  0  0  0  0  0
   73.0998   -5.2681    2.1905 C   0  0  0  0  0  0  0  0  0  0  0  0
   74.8874   -2.6899    0.5729 C   0  0  0  0  0  0  0  0  0  0  0  0
   76.1651   -3.3220    0.7612 C   0  0  0  0  0  0  0  0  0  0  0  0
   77.1126   -2.3733    0.5600 C   0  0  0  0  0  0  0  0  0  0  0  0
   76.4233   -1.1519    0.2556 C   0  0  0  0  0  0  0  0  0  0  0  0
   75.0753   -1.3710    0.2747 N   0  0  0  0  0  0  0  0  0  0  0  0
   78.1291    0.0673    0.0127 H   0  0  0  0  0  0  0  0  0  0  0  0
   78.1712    2.6271   -0.5120 H   0  0  0  0  0  0  0  0  0  0  0  0
   76.2862    4.5022   -0.9038 H   0  0  0  0  0  0  0  0  0  0  0  0
   72.6975    5.4727    0.8163 H   0  0  0  0  0  0  0  0  0  0  0  0
   72.7292    7.8888    0.2281 H   0  0  0  0  0  0  0  0  0  0  0  0
   74.5201    7.1368   -3.3938 H   0  0  0  0  0  0  0  0  0  0  0  0
   74.5588    4.6868   -2.9680 H   0  0  0  0  0  0  0  0  0  0  0  0
   70.9791    4.4762   -0.9985 H   0  0  0  0  0  0  0  0  0  0  0  0
   69.0976    2.6063   -0.5960 H   0  0  0  0  0  0  0  0  0  0  0  0
   69.1137   -2.5589    0.4260 H   0  0  0  0  0  0  0  0  0  0  0  0
   71.0043   -4.4208    0.8204 H   0  0  0  0  0  0  0  0  0  0  0  0
   74.6431   -5.3706   -0.8101 H   0  0  0  0  0  0  0  0  0  0  0  0
   74.6137   -7.7851   -0.2168 H   0  0  0  0  0  0  0  0  0  0  0  0
   72.7083   -7.0394    3.3476 H   0  0  0  0  0  0  0  0  0  0  0  0
   72.6651   -4.5908    2.9161 H   0  0  0  0  0  0  0  0  0  0  0  0
   76.3105   -4.3569    1.0264 H   0  0  0  0  0  0  0  0  0  0  0  0
   78.1849   -2.4755    0.6166 H   0  0  0  0  0  0  0  0  0  0  0  0
   45.7568   -0.0053   -0.0497 C   0  0  0  0  0  0  0  0  0  0  0  0
   46.9732   -0.0000   -0.0504 C   0  0  0  0  0  0  0  0  0  0  0  0
   56.6678    0.0170    0.0113 C   0  0  0  0  0  0  0  0  0  0  0  0
   57.8849    0.0143    0.0059 C   0  0  0  0  0  0  0  0  0  0  0  0
   67.5800    0.0240   -0.0468 C   0  0  0  0  0  0  0  0  0  0  0  0
   68.7961    0.0299   -0.0407 C   0  0  0  0  0  0  0  0  0  0  0  0
   51.8200    0.0110   -0.0167 Cu  0  0  0  0  0  0  0  0  0  0  0  0
   48.3831    0.0027   -0.0448 C   0  0  0  0  0  0  0  0  0  0  0  0
   49.0286   -0.9876    0.7156 C   0  0  0  0  0  0  0  0  0  0  0  0
   48.3522   -1.9449    1.5381 C   0  0  0  0  0  0  0  0  0  0  0  0
   49.3061   -2.7349    2.0935 C   0  0  0  0  0  0  0  0  0  0  0  0
   50.5729   -2.2669    1.6083 C   0  0  0  0  0  0  0  0  0  0  0  0
   50.3724   -1.1946    0.7809 N   0  0  0  0  0  0  0  0  0  0  0  0
   51.8112   -2.8216    1.9387 C   0  0  0  0  0  0  0  0  0  0  0  0
   51.8085   -4.0373    2.7865 C   0  0  0  0  0  0  0  0  0  0  0  0
   51.1811   -5.2113    2.3707 C   0  0  0  0  0  0  0  0  0  0  0  0
   51.2077   -6.3220    3.1992 C   0  0  0  0  0  0  0  0  0  0  0  0
   51.8031   -6.3253    4.3876 N   0  0  0  0  0  0  0  0  0  0  0  0
   52.4014   -5.2097    4.7929 C   0  0  0  0  0  0  0  0  0  0  0  0
   52.4334   -4.0510    4.0332 C   0  0  0  0  0  0  0  0  0  0  0  0
   53.0524   -2.3235    1.5367 C   0  0  0  0  0  0  0  0  0  0  0  0
   54.3146   -2.9535    1.7991 C   0  0  0  0  0  0  0  0  0  0  0  0
   55.2735   -2.1622    1.2543 C   0  0  0  0  0  0  0  0  0  0  0  0
   53.2610   -1.1708    0.8274 N   0  0  0  0  0  0  0  0  0  0  0  0
   54.6054   -1.0465    0.6555 C   0  0  0  0  0  0  0  0  0  0  0  0
   55.2587    0.0181    0.0093 C   0  0  0  0  0  0  0  0  0  0  0  0
   54.6102    1.0825   -0.6422 C   0  0  0  0  0  0  0  0  0  0  0  0
   55.2819    2.2047   -1.2246 C   0  0  0  0  0  0  0  0  0  0  0  0
   54.3278    2.9931   -1.7819 C   0  0  0  0  0  0  0  0  0  0  0  0
   53.0650    2.3544   -1.5447 C   0  0  0  0  0  0  0  0  0  0  0  0
   53.2680    1.2007   -0.8355 N   0  0  0  0  0  0  0  0  0  0  0  0
   51.8286    2.8449   -1.9703 C   0  0  0  0  0  0  0  0  0  0  0  0
   51.8352    4.0604   -2.8184 C   0  0  0  0  0  0  0  0  0  0  0  0
   52.4884    4.0785   -4.0506 C   0  0  0  0  0  0  0  0  0  0  0  0
   52.4655    5.2367   -4.8112 C   0  0  0  0  0  0  0  0  0  0  0  0
   51.8502    6.3481   -4.4201 N   0  0  0  0  0  0  0  0  0  0  0  0
   51.2276    6.3406   -3.2457 C   0  0  0  0  0  0  0  0  0  0  0  0
   51.1899    5.2299   -2.4176 C   0  0  0  0  0  0  0  0  0  0  0  0
   50.5877    2.2822   -1.6636 C   0  0  0  0  0  0  0  0  0  0  0  0
   49.3269    2.7417   -2.1722 C   0  0  0  0  0  0  0  0  0  0  0  0
   48.3679    1.9475   -1.6318 C   0  0  0  0  0  0  0  0  0  0  0  0
   49.0353    0.9952   -0.7963 C   0  0  0  0  0  0  0  0  0  0  0  0
   50.3788    1.2096   -0.8386 N   0  0  0  0  0  0  0  0  0  0  0  0
   47.2845   -1.9915    1.6801 H   0  0  0  0  0  0  0  0  0  0  0  0
   49.1679   -3.5509    2.7841 H   0  0  0  0  0  0  0  0  0  0  0  0
   50.6935   -5.2587    1.4042 H   0  0  0  0  0  0  0  0  0  0  0  0
   50.7303   -7.2488    2.8949 H   0  0  0  0  0  0  0  0  0  0  0  0
   52.8767   -5.2428    5.7689 H   0  0  0  0  0  0  0  0  0  0  0  0
   52.9232   -3.1608    4.4095 H   0  0  0  0  0  0  0  0  0  0  0  0
   54.4457   -3.8901    2.3162 H   0  0  0  0  0  0  0  0  0  0  0  0
   56.3395   -2.3214    1.2432 H   0  0  0  0  0  0  0  0  0  0  0  0
   56.3464    2.3708   -1.1931 H   0  0  0  0  0  0  0  0  0  0  0  0
   54.4622    3.9335   -2.2914 H   0  0  0  0  0  0  0  0  0  0  0  0
   52.9932    3.1918   -4.4153 H   0  0  0  0  0  0  0  0  0  0  0  0
   52.9628    5.2729   -5.7762 H   0  0  0  0  0  0  0  0  0  0  0  0
   50.7368    7.2641   -2.9526 H   0  0  0  0  0  0  0  0  0  0  0  0
   50.6800    5.2742   -1.4626 H   0  0  0  0  0  0  0  0  0  0  0  0
   49.1965    3.5553   -2.8671 H   0  0  0  0  0  0  0  0  0  0  0  0
   47.3026    1.9874   -1.7926 H   0  0  0  0  0  0  0  0  0  0  0  0
   62.7323    0.0066   -0.0318 Cu  0  0  0  0  0  0  0  0  0  0  0  0
   59.2940    0.0117   -0.0038 C   0  0  0  0  0  0  0  0  0  0  0  0
   59.9517   -0.7830    0.9519 C   0  0  0  0  0  0  0  0  0  0  0  0
   59.2888   -1.5332    1.9755 C   0  0  0  0  0  0  0  0  0  0  0  0
   60.2502   -2.1928    2.6703 C   0  0  0  0  0  0  0  0  0  0  0  0
   61.5091   -1.8503    2.0727 C   0  0  0  0  0  0  0  0  0  0  0  0
   61.2960   -0.9784    1.0385 N   0  0  0  0  0  0  0  0  0  0  0  0
   62.7509   -2.3290    2.4956 C   0  0  0  0  0  0  0  0  0  0  0  0
   62.7562   -3.3354    3.5843 C   0  0  0  0  0  0  0  0  0  0  0  0
   62.1299   -4.5717    3.4293 C   0  0  0  0  0  0  0  0  0  0  0  0
   62.1638   -5.4824    4.4734 C   0  0  0  0  0  0  0  0  0  0  0  0
   62.7653   -5.2338    5.6323 N   0  0  0  0  0  0  0  0  0  0  0  0
   63.3621   -4.0565    5.7896 C   0  0  0  0  0  0  0  0  0  0  0  0
   63.3867   -3.0841    4.8025 C   0  0  0  0  0  0  0  0  0  0  0  0
   63.9874   -1.9349    1.9800 C   0  0  0  0  0  0  0  0  0  0  0  0
   65.2564   -2.4720    2.3811 C   0  0  0  0  0  0  0  0  0  0  0  0
   66.2081   -1.8138    1.6718 C   0  0  0  0  0  0  0  0  0  0  0  0
   64.1844   -0.9778    1.0213 N   0  0  0  0  0  0  0  0  0  0  0  0
   65.5279   -0.8813    0.8239 C   0  0  0  0  0  0  0  0  0  0  0  0
   66.1691    0.0158   -0.0470 C   0  0  0  0  0  0  0  0  0  0  0  0
   65.5149    0.9030   -0.9180 C   0  0  0  0  0  0  0  0  0  0  0  0
   66.1826    1.8287   -1.7830 C   0  0  0  0  0  0  0  0  0  0  0  0
   65.2214    2.4718   -2.4933 C   0  0  0  0  0  0  0  0  0  0  0  0
   63.9587    1.9347   -2.0728 C   0  0  0  0  0  0  0  0  0  0  0  0
   64.1691    0.9901   -1.1047 N   0  0  0  0  0  0  0  0  0  0  0  0
   62.7158    2.3218   -2.5783 C   0  0  0  0  0  0  0  0  0  0  0  0
   62.7076    3.3106   -3.6830 C   0  0  0  0  0  0  0  0  0  0  0  0
   63.3178    3.0356   -4.9064 C   0  0  0  0  0  0  0  0  0  0  0  0
   63.2801    3.9903   -5.9103 C   0  0  0  0  0  0  0  0  0  0  0  0
   62.6894    5.1720   -5.7644 N   0  0  0  0  0  0  0  0  0  0  0  0
   62.1075    5.4433   -4.6006 C   0  0  0  0  0  0  0  0  0  0  0  0
   62.0878    4.5515   -3.5399 C   0  0  0  0  0  0  0  0  0  0  0  0
   61.4794    1.8517   -2.1312 C   0  0  0  0  0  0  0  0  0  0  0  0
   60.2117    2.1934   -2.7104 C   0  0  0  0  0  0  0  0  0  0  0  0
   59.2599    1.5451   -1.9921 C   0  0  0  0  0  0  0  0  0  0  0  0
   59.9377    0.8012   -0.9735 C   0  0  0  0  0  0  0  0  0  0  0  0
   61.2807    0.9907   -1.0850 N   0  0  0  0  0  0  0  0  0  0  0  0
   58.2243   -1.5387    2.1447 H   0  0  0  0  0  0  0  0  0  0  0  0
   60.1232   -2.8401    3.5228 H   0  0  0  0  0  0  0  0  0  0  0  0
   61.6369   -4.8224    2.4976 H   0  0  0  0  0  0  0  0  0  0  0  0
   61.6871   -6.4533    4.3743 H   0  0  0  0  0  0  0  0  0  0  0  0
   63.8423   -3.8820    6.7480 H   0  0  0  0  0  0  0  0  0  0  0  0
   63.8754   -2.1335    4.9801 H   0  0  0  0  0  0  0  0  0  0  0  0
   65.3979   -3.2592    3.1038 H   0  0  0  0  0  0  0  0  0  0  0  0
   67.2773   -1.9455    1.7117 H   0  0  0  0  0  0  0  0  0  0  0  0
   67.2508    1.9647   -1.8343 H   0  0  0  0  0  0  0  0  0  0  0  0
   65.3519    3.2491   -3.2287 H   0  0  0  0  0  0  0  0  0  0  0  0
   63.8008    2.0803   -5.0746 H   0  0  0  0  0  0  0  0  0  0  0  0
   63.7440    3.7969   -6.8731 H   0  0  0  0  0  0  0  0  0  0  0  0
   61.6357    6.4175   -4.5112 H   0  0  0  0  0  0  0  0  0  0  0  0
   61.6107    4.8204   -2.6050 H   0  0  0  0  0  0  0  0  0  0  0  0
   60.0721    2.8328   -3.5669 H   0  0  0  0  0  0  0  0  0  0  0  0
   58.1927    1.5535   -2.1432 H   0  0  0  0  0  0  0  0  0  0  0  0
  2  3  4  0  0  0  0
  3  4  1  0  0  0  0
  4  5  2  0  0  0  0
  5  6  4  0  0  0  0
  1  7  1  0  0  0  0
  3  7  4  0  0  0  0
  6  7  4  0  0  0  0
  6  8  4  0  0  0  0
  8  9  1  0  0  0  0
  9 10  4  0  0  0  0
 10 11  4  0  0  0  0
 11 12  4  0  0  0  0
 12 13  4  0  0  0  0
  9 14  4  0  0  0  0
 13 14  4  0  0  0  0
  8 15  4  0  0  0  0
 15 16  4  0  0  0  0
 16 17  2  0  0  0  0
  1 18  1  0  0  0  0
 15 18  4  0  0  0  0
 17 19  4  0  0  0  0
 18 19  4  0  0  0  0
 19 20  4  0  0  0  0
 20 21  4  0  0  0  0
 21 22  4  0  0  0  0
 22 23  2  0  0  0  0
 23 24  4  0  0  0  0
  1 25  1  0  0  0  0
 21 25  4  0  0  0  0
 24 25  4  0  0  0  0
 24 26  4  0  0  0  0
 26 27  1  0  0  0  0
 27 28  4  0  0  0  0
 28 29  4  0  0  0  0
 29 30  4  0  0  0  0
 30 31  4  0  0  0  0
 27 32  4  0  0  0  0
 31 32  4  0  0  0  0
 26 33  4  0  0  0  0
 33 34  4  0  0  0  0
 34 35  2  0  0  0  0
  2 36  4  0  0  0  0
 35 36  1  0  0  0  0
  1 37  1  0  0  0  0
 33 37  4  0  0  0  0
 36 37  4  0  0  0  0
  2 38  1  0  0  0  0
  4 39  1  0  0  0  0
  5 40  1  0  0  0  0
 10 41  1  0  0  0  0
 11 42  1  0  0  0  0
 13 43  1  0  0  0  0
 14 44  1  0  0  0  0
 16 45  1  0  0  0  0
 17 46  1  0  0  0  0
 22 47  1  0  0  0  0
 23 48  1  0  0  0  0
 28 49  1  0  0  0  0
 29 50  1  0  0  0  0
 31 51  1  0  0  0  0
 32 52  1  0  0  0  0
 34 53  1  0  0  0  0
 35 54  1  0  0  0  0
 56 57  4  0  0  0  0
 57 58  1  0  0  0  0
 58 59  2  0  0  0  0
 59 60  4  0  0  0  0
 55 61  1  0  0  0  0
 57 61  4  0  0  0  0
 60 61  4  0  0  0  0
 60 62  4  0  0  0  0
 62 63  1  0  0  0  0
 63 64  4  0  0  0  0
 64 65  4  0  0  0  0
 65 66  4  0  0  0  0
 66 67  4  0  0  0  0
 63 68  4  0  0  0  0
 67 68  4  0  0  0  0
 62 69  4  0  0  0  0
 69 70  4  0  0  0  0
 70 71  2  0  0  0  0
 55 72  1  0  0  0  0
 69 72  4  0  0  0  0
 71 73  4  0  0  0  0
 72 73  4  0  0  0  0
 73 74  4  0  0  0  0
 74 75  4  0  0  0  0
 75 76  4  0  0  0  0
 76 77  2  0  0  0  0
 77 78  4  0  0  0  0
 55 79  1  0  0  0  0
 75 79  4  0  0  0  0
 78 79  4  0  0  0  0
 78 80  4  0  0  0  0
 80 81  1  0  0  0  0
 81 82  4  0  0  0  0
 82 83  4  0  0  0  0
 83 84  4  0  0  0  0
 84 85  4  0  0  0  0
 81 86  4  0  0  0  0
 85 86  4  0  0  0  0
 80 87  4  0  0  0  0
 87 88  4  0  0  0  0
 88 89  2  0  0  0  0
 56 90  4  0  0  0  0
 89 90  1  0  0  0  0
 55 91  1  0  0  0  0
 87 91  4  0  0  0  0
 90 91  4  0  0  0  0
 56 92  1  0  0  0  0
 58 93  1  0  0  0  0
 59 94  1  0  0  0  0
 64 95  1  0  0  0  0
 65 96  1  0  0  0  0
 67 97  1  0  0  0  0
 68 98  1  0  0  0  0
 70 99  1  0  0  0  0
 71100  1  0  0  0  0
 76101  1  0  0  0  0
 77102  1  0  0  0  0
 82103  1  0  0  0  0
 83104  1  0  0  0  0
 85105  1  0  0  0  0
 86106  1  0  0  0  0
 88107  1  0  0  0  0
 89108  1  0  0  0  0
 20109  4  0  0  0  0
109110  3  0  0  0  0
111112  3  0  0  0  0
 74114  4  0  0  0  0
113114  3  0  0  0  0
110116  4  0  0  0  0
116117  4  0  0  0  0
117118  4  0  0  0  0
118119  2  0  0  0  0
119120  4  0  0  0  0
115121  1  0  0  0  0
117121  4  0  0  0  0
120121  4  0  0  0  0
120122  4  0  0  0  0
122123  1  0  0  0  0
123124  4  0  0  0  0
124125  4  0  0  0  0
125126  4  0  0  0  0
126127  4  0  0  0  0
123128  4  0  0  0  0
127128  4  0  0  0  0
122129  4  0  0  0  0
129130  4  0  0  0  0
130131  2  0  0  0  0
115132  1  0  0  0  0
129132  4  0  0  0  0
131133  4  0  0  0  0
132133  4  0  0  0  0
111134  4  0  0  0  0
133134  4  0  0  0  0
134135  4  0  0  0  0
135136  4  0  0  0  0
136137  2  0  0  0  0
137138  4  0  0  0  0
115139  1  0  0  0  0
135139  4  0  0  0  0
138139  4  0  0  0  0
138140  4  0  0  0  0
140141  1  0  0  0  0
141142  4  0  0  0  0
142143  4  0  0  0  0
143144  4  0  0  0  0
144145  4  0  0  0  0
141146  4  0  0  0  0
145146  4  0  0  0  0
140147  4  0  0  0  0
147148  4  0  0  0  0
148149  2  0  0  0  0
116150  4  0  0  0  0
149150  4  0  0  0  0
115151  1  0  0  0  0
147151  4  0  0  0  0
150151  4  0  0  0  0
118152  1  0  0  0  0
119153  1  0  0  0  0
124154  1  0  0  0  0
125155  1  0  0  0  0
127156  1  0  0  0  0
128157  1  0  0  0  0
130158  1  0  0  0  0
131159  1  0  0  0  0
136160  1  0  0  0  0
137161  1  0  0  0  0
142162  1  0  0  0  0
143163  1  0  0  0  0
145164  1  0  0  0  0
146165  1  0  0  0  0
148166  1  0  0  0  0
149167  1  0  0  0  0
112169  4  0  0  0  0
169170  4  0  0  0  0
170171  4  0  0  0  0
171172  2  0  0  0  0
172173  4  0  0  0  0
168174  1  0  0  0  0
170174  4  0  0  0  0
173174  4  0  0  0  0
173175  4  0  0  0  0
175176  1  0  0  0  0
176177  4  0  0  0  0
177178  4  0  0  0  0
178179  4  0  0  0  0
179180  4  0  0  0  0
176181  4  0  0  0  0
180181  4  0  0  0  0
175182  4  0  0  0  0
182183  4  0  0  0  0
183184  2  0  0  0  0
168185  1  0  0  0  0
182185  4  0  0  0  0
184186  4  0  0  0  0
185186  4  0  0  0  0
113187  4  0  0  0  0
186187  4  0  0  0  0
187188  4  0  0  0  0
188189  4  0  0  0  0
189190  2  0  0  0  0
190191  4  0  0  0  0
168192  1  0  0  0  0
188192  4  0  0  0  0
191192  4  0  0  0  0
191193  4  0  0  0  0
193194  1  0  0  0  0
194195  4  0  0  0  0
195196  4  0  0  0  0
196197  4  0  0  0  0
197198  4  0  0  0  0
194199  4  0  0  0  0
198199  4  0  0  0  0
193200  4  0  0  0  0
200201  4  0  0  0  0
201202  2  0  0  0  0
169203  4  0  0  0  0
202203  4  0  0  0  0
168204  1  0  0  0  0
200204  4  0  0  0  0
203204  4  0  0  0  0
171205  1  0  0  0  0
172206  1  0  0  0  0
177207  1  0  0  0  0
178208  1  0  0  0  0
180209  1  0  0  0  0
181210  1  0  0  0  0
183211  1  0  0  0  0
184212  1  0  0  0  0
189213  1  0  0  0  0
190214  1  0  0  0  0
195215  1  0  0  0  0
196216  1  0  0  0  0
198217  1  0  0  0  0
199218  1  0  0  0  0
201219  1  0  0  0  0
202220  1  0  0  0  0
M  END
