538

C 88.596699 0.042589 0.002285
C 89.321553 -1.011345 0.893569
C 88.706102 -1.998521 1.629654
C 89.727529 -2.702659 2.317447
C 90.933206 -2.115208 1.983999
N 90.676226 -1.111694 1.084115
C 92.361260 -2.500569 2.554267
C 92.410761 -3.447857 3.693022
C 92.660148 -4.806255 3.474680
C 92.712755 -5.696847 4.551116
C 92.558202 -5.236544 5.861608
N 92.519544 -6.147763 6.931675
C 92.234615 -3.892012 6.070466
C 92.183245 -2.997693 4.996941
C 93.489910 -1.943548 2.036628
C 94.799205 -2.223928 2.589369
C 95.700731 -1.527570 1.907211
N 93.682948 -1.065924 1.001259
C 95.017114 -0.776032 0.873048
C 95.687019 0.028928 0.005212
C 94.912487 0.808961 -1.141330
C 95.466867 1.302122 -2.306197
C 94.441813 1.969570 -3.020360
C 93.285114 1.853619 -2.280246
N 93.571350 1.108096 -1.160256
C 91.868064 2.456463 -2.659909
C 91.818283 3.538226 -3.668211
C 91.598467 3.238317 -5.016306
C 91.549395 4.260786 -5.968152
C 91.672532 5.597912 -5.580804
N 91.712336 6.614056 -6.551738
C 91.962520 5.888798 -4.243977
C 92.014348 4.868806 -3.288635
C 90.745895 1.981493 -2.059265
C 89.420626 2.493952 -2.360121
C 88.537048 1.823200 -1.627338
C 89.262274 0.863968 -0.831174
N 90.584734 1.004381 -1.116397
H 87.517697 0.108266 0.071549
H 87.643440 -2.182673 1.676870
H 89.595510 -3.531593 2.997633
H 91.379996 -0.533809 0.631156
H 92.807975 -5.159383 2.457422
H 92.886447 -6.748736 4.349448
H 92.748018 -5.705325 7.816229
H 93.085243 -6.971282 6.752009
H 92.028455 -3.518811 7.068404
H 91.958745 -1.946083 5.163179
H 95.015267 -2.872203 3.419441
H 96.756930 -1.540867 2.103486
H 96.498330 1.205986 -2.608049
H 94.538192 2.480064 -3.966603
H 92.882627 0.791380 -0.482725
H 91.472933 2.199816 -5.313179
H 91.405098 3.996166 -7.010103
H 91.165129 6.377494 -7.372130
H 91.461598 7.518055 -6.165646
H 92.142160 6.910474 -3.925259
H 92.212450 5.098327 -2.243836
H 89.188988 3.280401 -3.055430
H 87.472030 1.966683 -1.623103
C 226.703477 0.029208 0.019180
C 225.978622 0.655386 -1.210888
C 226.594074 1.145782 -2.340423
C 225.572646 1.654002 -3.183383
C 224.366970 1.463979 -2.535172
N 224.623949 0.817881 -1.352214
C 222.938916 1.930816 -3.040911
C 222.889414 2.822314 -4.223851
C 222.640028 2.298627 -5.496122
C 222.587421 3.142449 -6.609600
C 222.741974 4.523534 -6.461711
N 222.780632 5.356432 -7.593809
C 223.065560 5.034813 -5.200766
C 223.116931 4.194678 -4.084327
C 221.810266 1.554528 -2.380131
C 220.500971 2.028351 -2.779665
C 219.599444 1.523834 -1.945569
N 221.617228 0.747711 -1.288682
C 220.283062 0.689311 -0.977130
C 219.613156 0.028928 0.005212
C 220.387689 -0.908459 1.027128
C 219.833308 -1.929395 1.773998
C 220.858363 -2.471688 2.587283
C 222.015062 -1.777811 2.304888
N 221.728826 -0.858364 1.322646
C 223.432111 -2.009295 2.978668
C 223.481893 -2.743005 4.262628
C 223.701709 -4.123955 4.279482
C 223.750781 -4.816292 5.492793
C 223.627643 -4.132965 6.705645
N 223.587839 -4.845331 7.917171
C 223.337655 -2.765050 6.682588
C 223.285828 -2.068744 5.470888
C 224.554280 -1.533415 2.378744
C 225.879550 -1.708890 2.946492
C 226.763128 -1.149229 2.125725
C 226.037902 -0.593950 1.009629
N 224.715442 -0.839428 1.211642
H 227.782479 0.111674 0.067245
H 227.656735 1.149563 -2.530494
H 225.704665 2.126232 -4.146079
H 223.920180 0.509333 -0.685940
H 222.492201 1.227529 -5.606852
H 222.413729 2.705202 -7.587329
H 222.552158 6.318811 -7.365746
H 222.214933 4.992910 -8.354280
H 223.271720 6.091703 -5.066071
H 223.341430 4.597374 -3.098753
H 220.284909 2.687863 -3.600837
H 218.543246 1.711845 -2.003469
H 218.801846 -2.245243 1.749558
H 220.761984 -3.275842 3.300947
H 222.417548 -0.271392 0.859158
H 223.827243 -4.650809 3.336592
H 223.895078 -5.891153 5.473873
H 224.135047 -5.698097 7.874814
H 223.838578 -4.262437 8.708699
H 223.158015 -2.220785 7.604097
H 223.087726 -0.999149 5.454990
H 226.111188 -2.205572 3.871297
H 227.828146 -1.112241 2.264423
C 98.188578 0.043154 0.015163
C 99.646804 0.021317 -0.002711
C 100.780732 0.000564 -0.004202
C 102.142114 -0.012026 -0.006393
C 103.416333 -0.001720 -0.011158
C 104.604795 0.017078 -0.017314
C 105.957156 0.041863 -0.001446
C 107.057423 0.043154 0.015163
C 116.510921 0.043154 0.015163
C 117.969147 0.021317 -0.002711
C 119.103076 0.000564 -0.004202
C 120.464457 -0.012026 -0.006393
C 121.738676 -0.001720 -0.011158
C 122.927139 0.017078 -0.017314
C 124.279499 0.041863 -0.001446
C 125.379767 0.043154 0.015163
C 134.833265 0.043154 0.015163
C 136.291491 0.021317 -0.002711
C 137.425419 0.000564 -0.004202
C 138.786801 -0.012026 -0.006393
C 140.061020 -0.001720 -0.011158
C 141.249482 0.017078 -0.017314
C 142.601843 0.041863 -0.001446
C 143.702110 0.043154 0.015163
C 153.155608 0.043154 0.015163
C 154.613834 0.021317 -0.002711
C 155.747762 0.000564 -0.004202
C 157.109144 -0.012026 -0.006393
C 158.383363 -0.001720 -0.011158
C 159.571825 0.017078 -0.017314
C 160.924186 0.041863 -0.001446
C 162.024453 0.043154 0.015163
C 171.477951 0.043154 0.015163
C 172.936177 0.021317 -0.002711
C 174.070106 0.000564 -0.004202
C 175.431487 -0.012026 -0.006393
C 176.705706 -0.001720 -0.011158
C 177.894169 0.017078 -0.017314
C 179.246529 0.041863 -0.001446
C 180.346797 0.043154 0.015163
C 189.800295 0.043154 0.015163
C 191.258521 0.021317 -0.002711
C 192.392449 0.000564 -0.004202
C 193.753831 -0.012026 -0.006393
C 195.028050 -0.001720 -0.011158
C 196.216512 0.017078 -0.017314
C 197.568873 0.041863 -0.001446
C 198.669140 0.043154 0.015163
C 208.122638 0.043154 0.015163
C 209.580864 0.021317 -0.002711
C 210.714792 0.000564 -0.004202
C 212.076174 -0.012026 -0.006393
C 213.350393 -0.001720 -0.011158
C 214.538855 0.017078 -0.017314
C 215.891216 0.041863 -0.001446
C 216.991483 0.043154 0.015163
C 108.267986 -0.016516 -0.004125
C 109.060631 -0.602674 1.236506
C 108.552138 -1.413108 2.231337
C 109.588752 -1.625621 3.175910
C 110.699771 -0.944745 2.724441
N 110.389924 -0.389595 1.508083
C 112.089497 -0.813580 3.472221
C 112.083638 -0.906233 4.950898
C 112.543206 -2.060112 5.594667
C 112.534529 -2.142194 6.990401
C 112.104915 -1.059545 7.762902
N 112.011406 -1.180514 9.160241
C 111.575429 0.061097 7.116593
C 111.583688 0.147822 5.720885
C 113.224224 -0.576288 2.762206
C 114.511196 -0.387088 3.399572
C 115.418872 -0.168144 2.454407
N 113.432189 -0.448234 1.416543
C 114.756564 -0.206385 1.166120
C 115.420670 -0.016516 -0.004125
C 114.628012 -0.066158 -1.375321
C 115.136318 -0.419306 -2.609001
C 114.099723 -0.242125 -3.560863
C 112.988899 0.206223 -2.877599
N 113.298851 0.237204 -1.540937
C 111.599205 0.621616 -3.513051
C 111.604886 1.118936 -4.908638
C 112.102510 2.392005 -5.201006
C 112.110370 2.862015 -6.518057
C 111.582839 2.085455 -7.553725
N 111.676106 2.524749 -8.885739
C 111.155579 0.785247 -7.270228
C 111.147220 0.311006 -5.954986
C 110.464502 0.559867 -2.766962
C 109.177512 0.984777 -3.278257
C 108.269813 0.813353 -2.323352
C 108.932124 0.270500 -1.154386
N 110.256552 0.147211 -1.479750
H 107.542674 -1.791247 2.286394
H 109.526425 -2.192783 4.092633
H 111.051907 0.068733 0.888548
H 112.903747 -2.892785 4.994700
H 112.876096 -3.058190 7.460814
H 112.703830 -1.820292 9.534729
H 112.025835 -0.277452 9.622350
H 111.157995 0.884526 7.686620
H 111.194514 1.032193 5.221381
H 114.706636 -0.407406 4.456717
H 116.463111 0.009596 2.635456
H 116.145652 -0.745606 -2.808605
H 114.161903 -0.402359 -4.626873
H 112.636954 0.414621 -0.790917
H 112.490105 3.008910 -4.393365
H 112.525964 3.844197 -6.717560
H 110.984996 2.082568 -9.482309
H 111.659470 3.536787 -8.954911
H 110.815580 0.127892 -8.063508
H 110.788433 -0.691311 -5.731575
H 108.982098 1.382659 -4.257895
H 107.225541 1.047844 -2.419788
C 126.590329 -0.016516 -0.004125
C 127.382974 -0.602674 1.236506
C 126.874482 -1.413108 2.231337
C 127.911096 -1.625621 3.175910
C 129.022115 -0.944745 2.724441
N 128.712268 -0.389595 1.508083
C 130.411840 -0.813580 3.472221
C 130.405982 -0.906233 4.950898
C 130.865549 -2.060112 5.594667
C 130.856872 -2.142194 6.990401
C 130.427259 -1.059545 7.762902
N 130.333750 -1.180514 9.160241
C 129.897772 0.061097 7.116593
C 129.906031 0.147822 5.720885
C 131.546567 -0.576288 2.762206
C 132.833539 -0.387088 3.399572
C 133.741215 -0.168144 2.454407
N 131.754533 -0.448234 1.416543
C 133.078908 -0.206385 1.166120
C 133.743014 -0.016516 -0.004125
C 132.950356 -0.066158 -1.375321
C 133.458661 -0.419306 -2.609001
C 132.422066 -0.242125 -3.560863
C 131.311243 0.206223 -2.877599
N 131.621194 0.237204 -1.540937
C 129.921549 0.621616 -3.513051
C 129.927230 1.118936 -4.908638
C 130.424854 2.392005 -5.201006
C 130.432713 2.862015 -6.518057
C 129.905182 2.085455 -7.553725
N 129.998450 2.524749 -8.885739
C 129.477922 0.785247 -7.270228
C 129.469563 0.311006 -5.954986
C 128.786846 0.559867 -2.766962
C 127.499855 0.984777 -3.278257
C 126.592156 0.813353 -2.323352
C 127.254467 0.270500 -1.154386
N 128.578896 0.147211 -1.479750
H 125.865017 -1.791247 2.286394
H 127.848768 -2.192783 4.092633
H 129.374250 0.068733 0.888548
H 131.226090 -2.892785 4.994700
H 131.198439 -3.058190 7.460814
H 131.026174 -1.820292 9.534729
H 130.348178 -0.277452 9.622350
H 129.480338 0.884526 7.686620
H 129.516857 1.032193 5.221381
H 133.028979 -0.407406 4.456717
H 134.785454 0.009596 2.635456
H 134.467995 -0.745606 -2.808605
H 132.484246 -0.402359 -4.626873
H 130.959297 0.414621 -0.790917
H 130.812448 3.008910 -4.393365
H 130.848307 3.844197 -6.717560
H 129.307339 2.082568 -9.482309
H 129.981813 3.536787 -8.954911
H 129.137924 0.127892 -8.063508
H 129.110777 -0.691311 -5.731575
H 127.304441 1.382659 -4.257895
H 125.547884 1.047844 -2.419788
C 144.912673 -0.016516 -0.004125
C 145.705317 -0.602674 1.236506
C 145.196825 -1.413108 2.231337
C 146.233439 -1.625621 3.175910
C 147.344458 -0.944745 2.724441
N 147.034611 -0.389595 1.508083
C 148.734184 -0.813580 3.472221
C 148.728325 -0.906233 4.950898
C 149.187892 -2.060112 5.594667
C 149.179216 -2.142194 6.990401
C 148.749602 -1.059545 7.762902
N 148.656093 -1.180514 9.160241
C 148.220116 0.061097 7.116593
C 148.228374 0.147822 5.720885
C 149.868911 -0.576288 2.762206
C 151.155883 -0.387088 3.399572
C 152.063558 -0.168144 2.454407
N 150.076876 -0.448234 1.416543
C 151.401251 -0.206385 1.166120
C 152.065357 -0.016516 -0.004125
C 151.272699 -0.066158 -1.375321
C 151.781005 -0.419306 -2.609001
C 150.744410 -0.242125 -3.560863
C 149.633586 0.206223 -2.877599
N 149.943537 0.237204 -1.540937
C 148.243892 0.621616 -3.513051
C 148.249573 1.118936 -4.908638
C 148.747197 2.392005 -5.201006
C 148.755057 2.862015 -6.518057
C 148.227526 2.085455 -7.553725
N 148.320793 2.524749 -8.885739
C 147.800265 0.785247 -7.270228
C 147.791906 0.311006 -5.954986
C 147.109189 0.559867 -2.766962
C 145.822199 0.984777 -3.278257
C 144.914500 0.813353 -2.323352
C 145.576811 0.270500 -1.154386
N 146.901239 0.147211 -1.479750
H 144.187361 -1.791247 2.286394
H 146.171112 -2.192783 4.092633
H 147.696593 0.068733 0.888548
H 149.548433 -2.892785 4.994700
H 149.520782 -3.058190 7.460814
H 149.348517 -1.820292 9.534729
H 148.670522 -0.277452 9.622350
H 147.802682 0.884526 7.686620
H 147.839201 1.032193 5.221381
H 151.351322 -0.407406 4.456717
H 153.107797 0.009596 2.635456
H 152.790339 -0.745606 -2.808605
H 150.806589 -0.402359 -4.626873
H 149.281640 0.414621 -0.790917
H 149.134791 3.008910 -4.393365
H 149.170650 3.844197 -6.717560
H 147.629682 2.082568 -9.482309
H 148.304157 3.536787 -8.954911
H 147.460267 0.127892 -8.063508
H 147.433120 -0.691311 -5.731575
H 145.626785 1.382659 -4.257895
H 143.870228 1.047844 -2.419788
C 163.235016 -0.016516 -0.004125
C 164.027661 -0.602674 1.236506
C 163.519168 -1.413108 2.231337
C 164.555782 -1.625621 3.175910
C 165.666801 -0.944745 2.724441
N 165.356954 -0.389595 1.508083
C 167.056527 -0.813580 3.472221
C 167.050668 -0.906233 4.950898
C 167.510236 -2.060112 5.594667
C 167.501559 -2.142194 6.990401
C 167.071945 -1.059545 7.762902
N 166.978436 -1.180514 9.160241
C 166.542459 0.061097 7.116593
C 166.550718 0.147822 5.720885
C 168.191254 -0.576288 2.762206
C 169.478226 -0.387088 3.399572
C 170.385902 -0.168144 2.454407
N 168.399219 -0.448234 1.416543
C 169.723594 -0.206385 1.166120
C 170.387700 -0.016516 -0.004125
C 169.595042 -0.066158 -1.375321
C 170.103348 -0.419306 -2.609001
C 169.066753 -0.242125 -3.560863
C 167.955929 0.206223 -2.877599
N 168.265881 0.237204 -1.540937
C 166.566235 0.621616 -3.513051
C 166.571916 1.118936 -4.908638
C 167.069540 2.392005 -5.201006
C 167.077400 2.862015 -6.518057
C 166.549869 2.085455 -7.553725
N 166.643136 2.524749 -8.885739
C 166.122609 0.785247 -7.270228
C 166.114250 0.311006 -5.954986
C 165.431532 0.559867 -2.766962
C 164.144542 0.984777 -3.278257
C 163.236843 0.813353 -2.323352
C 163.899154 0.270500 -1.154386
N 165.223582 0.147211 -1.479750
H 162.509704 -1.791247 2.286394
H 164.493455 -2.192783 4.092633
H 166.018937 0.068733 0.888548
H 167.870777 -2.892785 4.994700
H 167.843126 -3.058190 7.460814
H 167.670860 -1.820292 9.534729
H 166.992865 -0.277452 9.622350
H 166.125025 0.884526 7.686620
H 166.161544 1.032193 5.221381
H 169.673666 -0.407406 4.456717
H 171.430141 0.009596 2.635456
H 171.112682 -0.745606 -2.808605
H 169.128933 -0.402359 -4.626873
H 167.603984 0.414621 -0.790917
H 167.457135 3.008910 -4.393365
H 167.492994 3.844197 -6.717560
H 165.952026 2.082568 -9.482309
H 166.626500 3.536787 -8.954911
H 165.782610 0.127892 -8.063508
H 165.755463 -0.691311 -5.731575
H 163.949128 1.382659 -4.257895
H 162.192571 1.047844 -2.419788
C 181.557359 -0.016516 -0.004125
C 182.350004 -0.602674 1.236506
C 181.841512 -1.413108 2.231337
C 182.878126 -1.625621 3.175910
C 183.989145 -0.944745 2.724441
N 183.679298 -0.389595 1.508083
C 185.378870 -0.813580 3.472221
C 185.373012 -0.906233 4.950898
C 185.832579 -2.060112 5.594667
C 185.823902 -2.142194 6.990401
C 185.394289 -1.059545 7.762902
N 185.300780 -1.180514 9.160241
C 184.864802 0.061097 7.116593
C 184.873061 0.147822 5.720885
C 186.513597 -0.576288 2.762206
C 187.800569 -0.387088 3.399572
C 188.708245 -0.168144 2.454407
N 186.721563 -0.448234 1.416543
C 188.045938 -0.206385 1.166120
C 188.710044 -0.016516 -0.004125
C 187.917386 -0.066158 -1.375321
C 188.425691 -0.419306 -2.609001
C 187.389096 -0.242125 -3.560863
C 186.278273 0.206223 -2.877599
N 186.588224 0.237204 -1.540937
C 184.888579 0.621616 -3.513051
C 184.894260 1.118936 -4.908638
C 185.391884 2.392005 -5.201006
C 185.399743 2.862015 -6.518057
C 184.872212 2.085455 -7.553725
N 184.965480 2.524749 -8.885739
C 184.444952 0.785247 -7.270228
C 184.436593 0.311006 -5.954986
C 183.753876 0.559867 -2.766962
C 182.466885 0.984777 -3.278257
C 181.559186 0.813353 -2.323352
C 182.221497 0.270500 -1.154386
N 183.545926 0.147211 -1.479750
H 180.832047 -1.791247 2.286394
H 182.815798 -2.192783 4.092633
H 184.341280 0.068733 0.888548
H 186.193120 -2.892785 4.994700
H 186.165469 -3.058190 7.460814
H 185.993204 -1.820292 9.534729
H 185.315208 -0.277452 9.622350
H 184.447368 0.884526 7.686620
H 184.483887 1.032193 5.221381
H 187.996009 -0.407406 4.456717
H 189.752484 0.009596 2.635456
H 189.435025 -0.745606 -2.808605
H 187.451276 -0.402359 -4.626873
H 185.926327 0.414621 -0.790917
H 185.779478 3.008910 -4.393365
H 185.815337 3.844197 -6.717560
H 184.274369 2.082568 -9.482309
H 184.948843 3.536787 -8.954911
H 184.104954 0.127892 -8.063508
H 184.077807 -0.691311 -5.731575
H 182.271471 1.382659 -4.257895
H 180.514914 1.047844 -2.419788
C 199.879703 -0.016516 -0.004125
C 200.672347 -0.602674 1.236506
C 200.163855 -1.413108 2.231337
C 201.200469 -1.625621 3.175910
C 202.311488 -0.944745 2.724441
N 202.001641 -0.389595 1.508083
C 203.701214 -0.813580 3.472221
C 203.695355 -0.906233 4.950898
C 204.154922 -2.060112 5.594667
C 204.146246 -2.142194 6.990401
C 203.716632 -1.059545 7.762902
N 203.623123 -1.180514 9.160241
C 203.187146 0.061097 7.116593
C 203.195404 0.147822 5.720885
C 204.835941 -0.576288 2.762206
C 206.122913 -0.387088 3.399572
C 207.030588 -0.168144 2.454407
N 205.043906 -0.448234 1.416543
C 206.368281 -0.206385 1.166120
C 207.032387 -0.016516 -0.004125
C 206.239729 -0.066158 -1.375321
C 206.748035 -0.419306 -2.609001
C 205.711440 -0.242125 -3.560863
C 204.600616 0.206223 -2.877599
N 204.910567 0.237204 -1.540937
C 203.210922 0.621616 -3.513051
C 203.216603 1.118936 -4.908638
C 203.714227 2.392005 -5.201006
C 203.722087 2.862015 -6.518057
C 203.194556 2.085455 -7.553725
N 203.287823 2.524749 -8.885739
C 202.767295 0.785247 -7.270228
C 202.758936 0.311006 -5.954986
C 202.076219 0.559867 -2.766962
C 200.789229 0.984777 -3.278257
C 199.881530 0.813353 -2.323352
C 200.543841 0.270500 -1.154386
N 201.868269 0.147211 -1.479750
H 199.154391 -1.791247 2.286394
H 201.138142 -2.192783 4.092633
H 202.663623 0.068733 0.888548
H 204.515463 -2.892785 4.994700
H 204.487812 -3.058190 7.460814
H 204.315547 -1.820292 9.534729
H 203.637552 -0.277452 9.622350
H 202.769712 0.884526 7.686620
H 202.806231 1.032193 5.221381
H 206.318352 -0.407406 4.456717
H 208.074827 0.009596 2.635456
H 207.757369 -0.745606 -2.808605
H 205.773619 -0.402359 -4.626873
H 204.248670 0.414621 -0.790917
H 204.101821 3.008910 -4.393365
H 204.137680 3.844197 -6.717560
H 202.596712 2.082568 -9.482309
H 203.271187 3.536787 -8.954911
H 202.427297 0.127892 -8.063508
H 202.400150 -0.691311 -5.731575
H 200.593815 1.382659 -4.257895
H 198.837258 1.047844 -2.419788
