 xtb: 6.5.1 (b24c23e)
          07302210393D

392433  0     0  0            999 V2000
   71.3745   -0.0831   -0.0713 C   0  0  0  0  0  0  0  0  0  0  0  0
   71.9883   -1.2950   -0.3597 C   0  0  0  0  0  0  0  0  0  0  0  0
   71.3415   -2.5196   -0.6876 C   0  0  0  0  0  0  0  0  0  0  0  0
   72.3067   -3.4667   -0.8826 C   0  0  0  0  0  0  0  0  0  0  0  0
   73.5745   -2.8533   -0.6695 C   0  0  0  0  0  0  0  0  0  0  0  0
   73.3319   -1.5436   -0.3684 N   0  0  0  0  0  0  0  0  0  0  0  0
   74.8403   -3.4431   -0.7659 C   0  0  0  0  0  0  0  0  0  0  0  0
   74.8784   -4.8901   -1.0813 C   0  0  0  0  0  0  0  0  0  0  0  0
   75.5207   -5.3446   -2.2374 C   0  0  0  0  0  0  0  0  0  0  0  0
   75.5530   -6.6934   -2.5338 C   0  0  0  0  0  0  0  0  0  0  0  0
   74.9484   -7.6208   -1.6786 C   0  0  0  0  0  0  0  0  0  0  0  0
   74.9995   -9.0552   -2.0151 C   0  0  0  0  0  0  0  0  0  0  0  0
   75.5348   -9.4925   -3.0014 O   0  0  0  0  0  0  0  0  0  0  0  0
   74.3083   -7.1686   -0.5222 C   0  0  0  0  0  0  0  0  0  0  0  0
   74.2712   -5.8170   -0.2291 C   0  0  0  0  0  0  0  0  0  0  0  0
   76.0538   -2.7723   -0.5897 C   0  0  0  0  0  0  0  0  0  0  0  0
   77.3524   -3.4212   -0.6295 C   0  0  0  0  0  0  0  0  0  0  0  0
   78.2693   -2.4536   -0.4235 C   0  0  0  0  0  0  0  0  0  0  0  0
   76.2028   -1.4429   -0.3400 N   0  0  0  0  0  0  0  0  0  0  0  0
   77.5296   -1.2185   -0.2478 C   0  0  0  0  0  0  0  0  0  0  0  0
   78.1617    0.0220   -0.0301 C   0  0  0  0  0  0  0  0  0  0  0  0
   77.5216    1.2548    0.1967 C   0  0  0  0  0  0  0  0  0  0  0  0
   78.1614    2.5065    0.3985 C   0  0  0  0  0  0  0  0  0  0  0  0
   77.1918    3.4466    0.6113 C   0  0  0  0  0  0  0  0  0  0  0  0
   75.9286    2.7945    0.5537 C   0  0  0  0  0  0  0  0  0  0  0  0
   76.1795    1.4743    0.2900 N   0  0  0  0  0  0  0  0  0  0  0  0
   74.6640    3.3748    0.7029 C   0  0  0  0  0  0  0  0  0  0  0  0
   74.6273    4.8202    1.0227 C   0  0  0  0  0  0  0  0  0  0  0  0
   75.2325    5.3034    2.1874 C   0  0  0  0  0  0  0  0  0  0  0  0
   75.1946    6.6514    2.4865 C   0  0  0  0  0  0  0  0  0  0  0  0
   74.5559    7.5500    1.6254 C   0  0  0  0  0  0  0  0  0  0  0  0
   74.5331    8.9843    1.9650 C   0  0  0  0  0  0  0  0  0  0  0  0
   75.0421    9.4458    2.9542 O   0  0  0  0  0  0  0  0  0  0  0  0
   73.9531    7.0694    0.4603 C   0  0  0  0  0  0  0  0  0  0  0  0
   73.9867    5.7185    0.1641 C   0  0  0  0  0  0  0  0  0  0  0  0
   73.4491    2.6923    0.5732 C   0  0  0  0  0  0  0  0  0  0  0  0
   72.1424    3.2969    0.7836 C   0  0  0  0  0  0  0  0  0  0  0  0
   71.2328    2.3272    0.5615 C   0  0  0  0  0  0  0  0  0  0  0  0
   71.9825    1.1283    0.2296 C   0  0  0  0  0  0  0  0  0  0  0  0
   73.3140    1.3833    0.2565 N   0  0  0  0  0  0  0  0  0  0  0  0
   70.2893   -0.0942   -0.0817 H   0  0  0  0  0  0  0  0  0  0  0  0
   70.2734   -2.6447   -0.7671 H   0  0  0  0  0  0  0  0  0  0  0  0
   72.1594   -4.4981   -1.1593 H   0  0  0  0  0  0  0  0  0  0  0  0
   74.0546   -0.8563   -0.1823 H   0  0  0  0  0  0  0  0  0  0  0  0
   75.9791   -4.6273   -2.9087 H   0  0  0  0  0  0  0  0  0  0  0  0
   76.0443   -7.0529   -3.4315 H   0  0  0  0  0  0  0  0  0  0  0  0
   74.4971   -9.7150   -1.2759 H   0  0  0  0  0  0  0  0  0  0  0  0
   73.8404   -7.8815    0.1491 H   0  0  0  0  0  0  0  0  0  0  0  0
   73.7864   -5.4715    0.6771 H   0  0  0  0  0  0  0  0  0  0  0  0
   77.5178   -4.4757   -0.7794 H   0  0  0  0  0  0  0  0  0  0  0  0
   79.3429   -2.5421   -0.3811 H   0  0  0  0  0  0  0  0  0  0  0  0
   79.2283    2.6590    0.3772 H   0  0  0  0  0  0  0  0  0  0  0  0
   77.3355    4.5009    0.7825 H   0  0  0  0  0  0  0  0  0  0  0  0
   75.4598    0.7680    0.1767 H   0  0  0  0  0  0  0  0  0  0  0  0
   75.7153    4.6083    2.8651 H   0  0  0  0  0  0  0  0  0  0  0  0
   75.6558    7.0325    3.3914 H   0  0  0  0  0  0  0  0  0  0  0  0
   74.0016    9.6197    1.2248 H   0  0  0  0  0  0  0  0  0  0  0  0
   73.4591    7.7600   -0.2155 H   0  0  0  0  0  0  0  0  0  0  0  0
   73.5307    5.3510   -0.7482 H   0  0  0  0  0  0  0  0  0  0  0  0
   71.9696    4.3203    1.0754 H   0  0  0  0  0  0  0  0  0  0  0  0
   70.1571    2.3840    0.6188 H   0  0  0  0  0  0  0  0  0  0  0  0
  158.3111    0.0770   -0.0331 C   0  0  0  0  0  0  0  0  0  0  0  0
  157.6970    1.2470    0.3941 C   0  0  0  0  0  0  0  0  0  0  0  0
  158.3433    2.4541    0.7829 C   0  0  0  0  0  0  0  0  0  0  0  0
  157.3781    3.3512    1.1437 C   0  0  0  0  0  0  0  0  0  0  0  0
  156.1109    2.7174    0.9962 C   0  0  0  0  0  0  0  0  0  0  0  0
  156.3538    1.4560    0.5331 N   0  0  0  0  0  0  0  0  0  0  0  0
  154.8454    3.2630    1.2412 C   0  0  0  0  0  0  0  0  0  0  0  0
  154.8080    4.6482    1.7656 C   0  0  0  0  0  0  0  0  0  0  0  0
  154.1645    5.6603    1.0464 C   0  0  0  0  0  0  0  0  0  0  0  0
  154.1313    6.9516    1.5360 C   0  0  0  0  0  0  0  0  0  0  0  0
  154.7363    7.2609    2.7588 C   0  0  0  0  0  0  0  0  0  0  0  0
  154.6834    8.6454    3.2622 C   0  0  0  0  0  0  0  0  0  0  0  0
  154.1469    9.5507    2.6764 O   0  0  0  0  0  0  0  0  0  0  0  0
  155.3785    6.2507    3.4789 C   0  0  0  0  0  0  0  0  0  0  0  0
  155.4164    4.9589    2.9851 C   0  0  0  0  0  0  0  0  0  0  0  0
  153.6318    2.6027    1.0296 C   0  0  0  0  0  0  0  0  0  0  0  0
  152.3334    3.1705    1.3472 C   0  0  0  0  0  0  0  0  0  0  0  0
  151.4167    2.2422    1.0053 C   0  0  0  0  0  0  0  0  0  0  0  0
  153.4828    1.3467    0.5278 N   0  0  0  0  0  0  0  0  0  0  0  0
  152.1562    1.1053    0.4914 C   0  0  0  0  0  0  0  0  0  0  0  0
  151.5242   -0.0664    0.0297 C   0  0  0  0  0  0  0  0  0  0  0  0
  152.1635   -1.2304   -0.4357 C   0  0  0  0  0  0  0  0  0  0  0  0
  151.5228   -2.4012   -0.9212 C   0  0  0  0  0  0  0  0  0  0  0  0
  152.4926   -3.3010   -1.2657 C   0  0  0  0  0  0  0  0  0  0  0  0
  153.7572   -2.7090   -0.9922 C   0  0  0  0  0  0  0  0  0  0  0  0
  153.5064   -1.4557   -0.5006 N   0  0  0  0  0  0  0  0  0  0  0  0
  155.0222   -3.2665   -1.2092 C   0  0  0  0  0  0  0  0  0  0  0  0
  155.0601   -4.6528   -1.7286 C   0  0  0  0  0  0  0  0  0  0  0  0
  154.4848   -5.6993   -1.0007 C   0  0  0  0  0  0  0  0  0  0  0  0
  154.5239   -6.9919   -1.4864 C   0  0  0  0  0  0  0  0  0  0  0  0
  155.1336   -7.2685   -2.7146 C   0  0  0  0  0  0  0  0  0  0  0  0
  155.1584   -8.6555   -3.2133 C   0  0  0  0  0  0  0  0  0  0  0  0
  154.6764   -9.5878   -2.6224 O   0  0  0  0  0  0  0  0  0  0  0  0
  155.7066   -6.2239   -3.4442 C   0  0  0  0  0  0  0  0  0  0  0  0
  155.6722   -4.9307   -2.9545 C   0  0  0  0  0  0  0  0  0  0  0  0
  156.2371   -2.6131   -0.9732 C   0  0  0  0  0  0  0  0  0  0  0  0
  157.5450   -3.2256   -1.1513 C   0  0  0  0  0  0  0  0  0  0  0  0
  158.4543   -2.2859   -0.8241 C   0  0  0  0  0  0  0  0  0  0  0  0
  157.7036   -1.1052   -0.4344 C   0  0  0  0  0  0  0  0  0  0  0  0
  156.3718   -1.3421   -0.5279 N   0  0  0  0  0  0  0  0  0  0  0  0
  159.3961    0.0971   -0.0492 H   0  0  0  0  0  0  0  0  0  0  0  0
  159.4108    2.6054    0.7765 H   0  0  0  0  0  0  0  0  0  0  0  0
  157.5247    4.3668    1.4738 H   0  0  0  0  0  0  0  0  0  0  0  0
  155.6315    0.7763    0.3195 H   0  0  0  0  0  0  0  0  0  0  0  0
  153.7057    5.4264    0.0925 H   0  0  0  0  0  0  0  0  0  0  0  0
  153.6386    7.7430    0.9815 H   0  0  0  0  0  0  0  0  0  0  0  0
  155.1857    8.7936    4.2420 H   0  0  0  0  0  0  0  0  0  0  0  0
  155.8470    6.4809    4.4303 H   0  0  0  0  0  0  0  0  0  0  0  0
  155.9027    4.1746    3.5543 H   0  0  0  0  0  0  0  0  0  0  0  0
  152.1678    4.1411    1.7856 H   0  0  0  0  0  0  0  0  0  0  0  0
  150.3432    2.2931    1.0916 H   0  0  0  0  0  0  0  0  0  0  0  0
  150.4549   -2.5268   -0.9991 H   0  0  0  0  0  0  0  0  0  0  0  0
  152.3480   -4.2841   -1.6830 H   0  0  0  0  0  0  0  0  0  0  0  0
  154.2266   -0.7925   -0.2340 H   0  0  0  0  0  0  0  0  0  0  0  0
  154.0244   -5.4914   -0.0413 H   0  0  0  0  0  0  0  0  0  0  0  0
  154.0859   -7.8097   -0.9242 H   0  0  0  0  0  0  0  0  0  0  0  0
  155.6644   -8.7781   -4.1947 H   0  0  0  0  0  0  0  0  0  0  0  0
  156.1780   -6.4289   -4.3999 H   0  0  0  0  0  0  0  0  0  0  0  0
  156.1052   -4.1202   -3.5299 H   0  0  0  0  0  0  0  0  0  0  0  0
  157.7187   -4.2410   -1.4691 H   0  0  0  0  0  0  0  0  0  0  0  0
  159.5306   -2.3576   -0.8266 H   0  0  0  0  0  0  0  0  0  0  0  0
   83.3651    0.0768   -0.0492 C   0  0  0  0  0  0  0  0  0  0  0  0
   82.1369    0.0705   -0.0477 C   0  0  0  0  0  0  0  0  0  0  0  0
   80.7920    0.0575   -0.0417 C   0  0  0  0  0  0  0  0  0  0  0  0
   79.5684    0.0440   -0.0355 C   0  0  0  0  0  0  0  0  0  0  0  0
   84.7100    0.0817   -0.0493 C   0  0  0  0  0  0  0  0  0  0  0  0
   85.9338    0.0809   -0.0479 C   0  0  0  0  0  0  0  0  0  0  0  0
   99.4083   -0.0144   -0.0225 C   0  0  0  0  0  0  0  0  0  0  0  0
   98.1792   -0.0087   -0.0230 C   0  0  0  0  0  0  0  0  0  0  0  0
   96.8356    0.0013   -0.0243 C   0  0  0  0  0  0  0  0  0  0  0  0
   95.6110    0.0135   -0.0276 C   0  0  0  0  0  0  0  0  0  0  0  0
  100.7519   -0.0163   -0.0208 C   0  0  0  0  0  0  0  0  0  0  0  0
  101.9766   -0.0232   -0.0190 C   0  0  0  0  0  0  0  0  0  0  0  0
  115.4572   -0.0179   -0.0118 C   0  0  0  0  0  0  0  0  0  0  0  0
  114.2281   -0.0156   -0.0082 C   0  0  0  0  0  0  0  0  0  0  0  0
  112.8844   -0.0147   -0.0053 C   0  0  0  0  0  0  0  0  0  0  0  0
  111.6597   -0.0124   -0.0033 C   0  0  0  0  0  0  0  0  0  0  0  0
  116.8009   -0.0180   -0.0140 C   0  0  0  0  0  0  0  0  0  0  0  0
  118.0256   -0.0201   -0.0140 C   0  0  0  0  0  0  0  0  0  0  0  0
  131.5063   -0.0227   -0.0053 C   0  0  0  0  0  0  0  0  0  0  0  0
  130.2772   -0.0151   -0.0065 C   0  0  0  0  0  0  0  0  0  0  0  0
  128.9335   -0.0110   -0.0050 C   0  0  0  0  0  0  0  0  0  0  0  0
  127.7089   -0.0061   -0.0048 C   0  0  0  0  0  0  0  0  0  0  0  0
  132.8499   -0.0289   -0.0033 C   0  0  0  0  0  0  0  0  0  0  0  0
  134.0745   -0.0383    0.0005 C   0  0  0  0  0  0  0  0  0  0  0  0
  147.5483   -0.1088    0.0303 C   0  0  0  0  0  0  0  0  0  0  0  0
  146.3203   -0.1140    0.0320 C   0  0  0  0  0  0  0  0  0  0  0  0
  144.9752   -0.1126    0.0303 C   0  0  0  0  0  0  0  0  0  0  0  0
  143.7514   -0.1060    0.0287 C   0  0  0  0  0  0  0  0  0  0  0  0
  148.8936   -0.1006    0.0313 C   0  0  0  0  0  0  0  0  0  0  0  0
  150.1171   -0.0878    0.0307 C   0  0  0  0  0  0  0  0  0  0  0  0
   87.3396    0.0760   -0.0437 C   0  0  0  0  0  0  0  0  0  0  0  0
   87.9736    1.0129   -0.8816 C   0  0  0  0  0  0  0  0  0  0  0  0
   87.3326    1.9352   -1.7484 C   0  0  0  0  0  0  0  0  0  0  0  0
   88.3034    2.6657   -2.3772 C   0  0  0  0  0  0  0  0  0  0  0  0
   89.5662    2.2161   -1.9036 C   0  0  0  0  0  0  0  0  0  0  0  0
   89.3163    1.2107   -1.0091 N   0  0  0  0  0  0  0  0  0  0  0  0
   90.8305    2.6825   -2.2859 C   0  0  0  0  0  0  0  0  0  0  0  0
   90.8509    3.8017   -3.2581 C   0  0  0  0  0  0  0  0  0  0  0  0
   91.4480    3.6373   -4.5117 C   0  0  0  0  0  0  0  0  0  0  0  0
   91.4569    4.6765   -5.4218 C   0  0  0  0  0  0  0  0  0  0  0  0
   90.8750    5.9065   -5.0975 C   0  0  0  0  0  0  0  0  0  0  0  0
   90.8969    6.9999   -6.0865 C   0  0  0  0  0  0  0  0  0  0  0  0
   91.3885    6.9017   -7.1815 O   0  0  0  0  0  0  0  0  0  0  0  0
   90.2831    6.0739   -3.8434 C   0  0  0  0  0  0  0  0  0  0  0  0
   90.2685    5.0305   -2.9348 C   0  0  0  0  0  0  0  0  0  0  0  0
   92.0533    2.1834   -1.8336 C   0  0  0  0  0  0  0  0  0  0  0  0
   93.3418    2.7391   -2.2080 C   0  0  0  0  0  0  0  0  0  0  0  0
   94.2755    1.9978   -1.5769 C   0  0  0  0  0  0  0  0  0  0  0  0
   92.2252    1.1396   -0.9765 N   0  0  0  0  0  0  0  0  0  0  0  0
   93.5560    0.9976   -0.8129 C   0  0  0  0  0  0  0  0  0  0  0  0
   94.2066    0.0233   -0.0287 C   0  0  0  0  0  0  0  0  0  0  0  0
   93.5715   -0.9528    0.7639 C   0  0  0  0  0  0  0  0  0  0  0  0
   94.2117   -1.9575    1.5346 C   0  0  0  0  0  0  0  0  0  0  0  0
   93.2408   -2.6889    2.1622 C   0  0  0  0  0  0  0  0  0  0  0  0
   91.9786   -2.1443    1.7995 C   0  0  0  0  0  0  0  0  0  0  0  0
   92.2293   -1.1039    0.9455 N   0  0  0  0  0  0  0  0  0  0  0  0
   90.7148   -2.5883    2.2074 C   0  0  0  0  0  0  0  0  0  0  0  0
   90.6897   -3.7197    3.1652 C   0  0  0  0  0  0  0  0  0  0  0  0
   90.0773   -4.9261    2.8141 C   0  0  0  0  0  0  0  0  0  0  0  0
   90.0487   -5.9833    3.7059 C   0  0  0  0  0  0  0  0  0  0  0  0
   90.6277   -5.8529    4.9705 C   0  0  0  0  0  0  0  0  0  0  0  0
   90.6052   -6.9620    5.9419 C   0  0  0  0  0  0  0  0  0  0  0  0
   91.0899   -6.8969    7.0424 O   0  0  0  0  0  0  0  0  0  0  0  0
   91.2395   -4.6454    5.3227 C   0  0  0  0  0  0  0  0  0  0  0  0
   91.2734   -3.5921    4.4292 C   0  0  0  0  0  0  0  0  0  0  0  0
   89.4920   -2.0567    1.7922 C   0  0  0  0  0  0  0  0  0  0  0  0
   88.2040   -2.5065    2.2905 C   0  0  0  0  0  0  0  0  0  0  0  0
   87.2703   -1.7640    1.6611 C   0  0  0  0  0  0  0  0  0  0  0  0
   87.9893   -0.8567    0.7886 C   0  0  0  0  0  0  0  0  0  0  0  0
   89.3204   -1.0473    0.8960 N   0  0  0  0  0  0  0  0  0  0  0  0
   86.2651    2.0177   -1.8740 H   0  0  0  0  0  0  0  0  0  0  0  0
   88.1589    3.4406   -3.1121 H   0  0  0  0  0  0  0  0  0  0  0  0
   90.0327    0.6845   -0.5201 H   0  0  0  0  0  0  0  0  0  0  0  0
   91.8886    2.6811   -4.7703 H   0  0  0  0  0  0  0  0  0  0  0  0
   91.9114    4.5546   -6.3992 H   0  0  0  0  0  0  0  0  0  0  0  0
   90.4149    7.9385   -5.7390 H   0  0  0  0  0  0  0  0  0  0  0  0
   89.8339    7.0264   -3.5816 H   0  0  0  0  0  0  0  0  0  0  0  0
   89.8189    5.1677   -1.9578 H   0  0  0  0  0  0  0  0  0  0  0  0
   93.4894    3.5895   -2.8536 H   0  0  0  0  0  0  0  0  0  0  0  0
   95.3483    2.1013   -1.6032 H   0  0  0  0  0  0  0  0  0  0  0  0
   95.2788   -2.0995    1.5911 H   0  0  0  0  0  0  0  0  0  0  0  0
   93.3842   -3.5368    2.8117 H   0  0  0  0  0  0  0  0  0  0  0  0
   91.5134   -0.5335    0.5079 H   0  0  0  0  0  0  0  0  0  0  0  0
   89.6367   -5.0333    1.8294 H   0  0  0  0  0  0  0  0  0  0  0  0
   89.5757   -6.9180    3.4230 H   0  0  0  0  0  0  0  0  0  0  0  0
   90.0974   -7.8793    5.5749 H   0  0  0  0  0  0  0  0  0  0  0  0
   91.6827   -4.5517    6.3083 H   0  0  0  0  0  0  0  0  0  0  0  0
   91.7358   -2.6528    4.7109 H   0  0  0  0  0  0  0  0  0  0  0  0
   88.0562   -3.2747    3.0320 H   0  0  0  0  0  0  0  0  0  0  0  0
   86.1978   -1.8005    1.7657 H   0  0  0  0  0  0  0  0  0  0  0  0
  103.3809   -0.0217   -0.0168 C   0  0  0  0  0  0  0  0  0  0  0  0
  104.0086    0.9035   -0.8739 C   0  0  0  0  0  0  0  0  0  0  0  0
  103.3615    1.8044   -1.7582 C   0  0  0  0  0  0  0  0  0  0  0  0
  104.3272    2.5362   -2.3937 C   0  0  0  0  0  0  0  0  0  0  0  0
  105.5926    2.1087   -1.9069 C   0  0  0  0  0  0  0  0  0  0  0  0
  105.3495    1.1130   -0.9993 N   0  0  0  0  0  0  0  0  0  0  0  0
  106.8527    2.5887   -2.2860 C   0  0  0  0  0  0  0  0  0  0  0  0
  106.8645    3.7017   -3.2655 C   0  0  0  0  0  0  0  0  0  0  0  0
  107.4749    3.5388   -4.5128 C   0  0  0  0  0  0  0  0  0  0  0  0
  107.4819    4.5749   -5.4266 C   0  0  0  0  0  0  0  0  0  0  0  0
  106.8842    5.7999   -5.1124 C   0  0  0  0  0  0  0  0  0  0  0  0
  106.9083    6.8914   -6.1036 C   0  0  0  0  0  0  0  0  0  0  0  0
  107.4172    6.7962   -7.1908 O   0  0  0  0  0  0  0  0  0  0  0  0
  106.2768    5.9649   -3.8654 C   0  0  0  0  0  0  0  0  0  0  0  0
  106.2643    4.9247   -2.9532 C   0  0  0  0  0  0  0  0  0  0  0  0
  108.0802    2.1114   -1.8228 C   0  0  0  0  0  0  0  0  0  0  0  0
  109.3624    2.6831   -2.1946 C   0  0  0  0  0  0  0  0  0  0  0  0
  110.3038    1.9573   -1.5570 C   0  0  0  0  0  0  0  0  0  0  0  0
  108.2630    1.0749   -0.9592 N   0  0  0  0  0  0  0  0  0  0  0  0
  109.5952    0.9512   -0.7909 C   0  0  0  0  0  0  0  0  0  0  0  0
  110.2553   -0.0130   -0.0022 C   0  0  0  0  0  0  0  0  0  0  0  0
  109.6279   -0.9898    0.7959 C   0  0  0  0  0  0  0  0  0  0  0  0
  110.2753   -1.9859    1.5712 C   0  0  0  0  0  0  0  0  0  0  0  0
  109.3096   -2.7188    2.2053 C   0  0  0  0  0  0  0  0  0  0  0  0
  108.0437   -2.1835    1.8421 C   0  0  0  0  0  0  0  0  0  0  0  0
  108.2867   -1.1475    0.9807 N   0  0  0  0  0  0  0  0  0  0  0  0
  106.7834   -2.6306    2.2587 C   0  0  0  0  0  0  0  0  0  0  0  0
  106.7712   -3.7541    3.2261 C   0  0  0  0  0  0  0  0  0  0  0  0
  106.1670   -4.9683    2.8882 C   0  0  0  0  0  0  0  0  0  0  0  0
  106.1573   -6.0204    3.7865 C   0  0  0  0  0  0  0  0  0  0  0  0
  106.7475   -5.8771    5.0444 C   0  0  0  0  0  0  0  0  0  0  0  0
  106.7495   -6.9820    6.0209 C   0  0  0  0  0  0  0  0  0  0  0  0
  107.2481   -6.9067    7.1145 O   0  0  0  0  0  0  0  0  0  0  0  0
  107.3490   -4.6609    5.3844 C   0  0  0  0  0  0  0  0  0  0  0  0
  107.3638   -3.6126    4.4846 C   0  0  0  0  0  0  0  0  0  0  0  0
  105.5557   -2.1109    1.8441 C   0  0  0  0  0  0  0  0  0  0  0  0
  104.2730   -2.5619    2.3545 C   0  0  0  0  0  0  0  0  0  0  0  0
  103.3315   -1.8333    1.7201 C   0  0  0  0  0  0  0  0  0  0  0  0
  104.0405   -0.9340    0.8316 C   0  0  0  0  0  0  0  0  0  0  0  0
  105.3729   -1.1140    0.9353 N   0  0  0  0  0  0  0  0  0  0  0  0
  102.2939    1.8732   -1.8900 H   0  0  0  0  0  0  0  0  0  0  0  0
  104.1777    3.2980   -3.1412 H   0  0  0  0  0  0  0  0  0  0  0  0
  106.0689    0.6026   -0.4981 H   0  0  0  0  0  0  0  0  0  0  0  0
  107.9285    2.5866   -4.7634 H   0  0  0  0  0  0  0  0  0  0  0  0
  107.9478    4.4546   -6.3987 H   0  0  0  0  0  0  0  0  0  0  0  0
  106.4126    7.8260   -5.7647 H   0  0  0  0  0  0  0  0  0  0  0  0
  105.8146    6.9134   -3.6116 H   0  0  0  0  0  0  0  0  0  0  0  0
  105.8035    5.0605   -1.9811 H   0  0  0  0  0  0  0  0  0  0  0  0
  109.5011    3.5326   -2.8433 H   0  0  0  0  0  0  0  0  0  0  0  0
  111.3753    2.0752   -1.5796 H   0  0  0  0  0  0  0  0  0  0  0  0
  111.3433   -2.1213    1.6266 H   0  0  0  0  0  0  0  0  0  0  0  0
  109.4595   -3.5619    2.8597 H   0  0  0  0  0  0  0  0  0  0  0  0
  107.5672   -0.5839    0.5404 H   0  0  0  0  0  0  0  0  0  0  0  0
  105.7188   -5.0859    1.9080 H   0  0  0  0  0  0  0  0  0  0  0  0
  105.6915   -6.9616    3.5133 H   0  0  0  0  0  0  0  0  0  0  0  0
  106.2475   -7.9066    5.6644 H   0  0  0  0  0  0  0  0  0  0  0  0
  107.8005   -4.5570    6.3652 H   0  0  0  0  0  0  0  0  0  0  0  0
  107.8191   -2.6670    4.7565 H   0  0  0  0  0  0  0  0  0  0  0  0
  104.1339   -3.3213    3.1067 H   0  0  0  0  0  0  0  0  0  0  0  0
  102.2598   -1.8749    1.8302 H   0  0  0  0  0  0  0  0  0  0  0  0
  119.4300   -0.0182   -0.0145 C   0  0  0  0  0  0  0  0  0  0  0  0
  120.0568    0.9073   -0.8721 C   0  0  0  0  0  0  0  0  0  0  0  0
  119.4091    1.8082   -1.7558 C   0  0  0  0  0  0  0  0  0  0  0  0
  120.3743    2.5396   -2.3926 C   0  0  0  0  0  0  0  0  0  0  0  0
  121.6401    2.1120   -1.9070 C   0  0  0  0  0  0  0  0  0  0  0  0
  121.3976    1.1167   -0.9988 N   0  0  0  0  0  0  0  0  0  0  0  0
  122.8999    2.5915   -2.2876 C   0  0  0  0  0  0  0  0  0  0  0  0
  122.9126    3.7029   -3.2689 C   0  0  0  0  0  0  0  0  0  0  0  0
  123.5241    3.5370   -4.5154 C   0  0  0  0  0  0  0  0  0  0  0  0
  123.5351    4.5720   -5.4303 C   0  0  0  0  0  0  0  0  0  0  0  0
  122.9403    5.7990   -5.1181 C   0  0  0  0  0  0  0  0  0  0  0  0
  122.9702    6.8898   -6.1099 C   0  0  0  0  0  0  0  0  0  0  0  0
  123.4808    6.7921   -7.1961 O   0  0  0  0  0  0  0  0  0  0  0  0
  122.3310    5.9667   -3.8724 C   0  0  0  0  0  0  0  0  0  0  0  0
  122.3145    4.9275   -2.9590 C   0  0  0  0  0  0  0  0  0  0  0  0
  124.1278    2.1150   -1.8244 C   0  0  0  0  0  0  0  0  0  0  0  0
  125.4096    2.6871   -2.1970 C   0  0  0  0  0  0  0  0  0  0  0  0
  126.3516    1.9623   -1.5590 C   0  0  0  0  0  0  0  0  0  0  0  0
  124.3114    1.0793   -0.9601 N   0  0  0  0  0  0  0  0  0  0  0  0
  125.6437    0.9565   -0.7921 C   0  0  0  0  0  0  0  0  0  0  0  0
  126.3045   -0.0071   -0.0035 C   0  0  0  0  0  0  0  0  0  0  0  0
  125.6779   -0.9844    0.7945 C   0  0  0  0  0  0  0  0  0  0  0  0
  126.3262   -1.9806    1.5689 C   0  0  0  0  0  0  0  0  0  0  0  0
  125.3612   -2.7143    2.2031 C   0  0  0  0  0  0  0  0  0  0  0  0
  124.0949   -2.1793    1.8408 C   0  0  0  0  0  0  0  0  0  0  0  0
  124.3369   -1.1428    0.9799 N   0  0  0  0  0  0  0  0  0  0  0  0
  122.8349   -2.6273    2.2577 C   0  0  0  0  0  0  0  0  0  0  0  0
  122.8247   -3.7517    3.2240 C   0  0  0  0  0  0  0  0  0  0  0  0
  122.2223   -4.9665    2.8852 C   0  0  0  0  0  0  0  0  0  0  0  0
  122.2172   -6.0204    3.7814 C   0  0  0  0  0  0  0  0  0  0  0  0
  122.8103   -5.8784    5.0381 C   0  0  0  0  0  0  0  0  0  0  0  0
  122.8186   -6.9857    6.0118 C   0  0  0  0  0  0  0  0  0  0  0  0
  123.3201   -6.9117    7.1042 O   0  0  0  0  0  0  0  0  0  0  0  0
  123.4094   -4.6613    5.3793 C   0  0  0  0  0  0  0  0  0  0  0  0
  123.4194   -3.6112    4.4816 C   0  0  0  0  0  0  0  0  0  0  0  0
  121.6068   -2.1079    1.8439 C   0  0  0  0  0  0  0  0  0  0  0  0
  120.3246   -2.5599    2.3545 C   0  0  0  0  0  0  0  0  0  0  0  0
  119.3825   -1.8310    1.7213 C   0  0  0  0  0  0  0  0  0  0  0  0
  120.0907   -0.9308    0.8329 C   0  0  0  0  0  0  0  0  0  0  0  0
  121.4231   -1.1103    0.9358 N   0  0  0  0  0  0  0  0  0  0  0  0
  118.3413    1.8772   -1.8865 H   0  0  0  0  0  0  0  0  0  0  0  0
  120.2242    3.3013   -3.1401 H   0  0  0  0  0  0  0  0  0  0  0  0
  122.1174    0.6063   -0.4982 H   0  0  0  0  0  0  0  0  0  0  0  0
  123.9760    2.5835   -4.7641 H   0  0  0  0  0  0  0  0  0  0  0  0
  124.0025    4.4496   -6.4014 H   0  0  0  0  0  0  0  0  0  0  0  0
  122.4764    7.8261   -5.7728 H   0  0  0  0  0  0  0  0  0  0  0  0
  121.8709    6.9166   -3.6203 H   0  0  0  0  0  0  0  0  0  0  0  0
  121.8527    5.0655   -1.9877 H   0  0  0  0  0  0  0  0  0  0  0  0
  125.5478    3.5363   -2.8462 H   0  0  0  0  0  0  0  0  0  0  0  0
  127.4230    2.0808   -1.5819 H   0  0  0  0  0  0  0  0  0  0  0  0
  127.3943   -2.1157    1.6237 H   0  0  0  0  0  0  0  0  0  0  0  0
  125.5118   -3.5578    2.8568 H   0  0  0  0  0  0  0  0  0  0  0  0
  123.6170   -0.5793    0.5402 H   0  0  0  0  0  0  0  0  0  0  0  0
  121.7723   -5.0833    1.9058 H   0  0  0  0  0  0  0  0  0  0  0  0
  121.7532   -6.9623    3.5073 H   0  0  0  0  0  0  0  0  0  0  0  0
  122.3187   -7.9110    5.6544 H   0  0  0  0  0  0  0  0  0  0  0  0
  123.8630   -4.5584    6.3592 H   0  0  0  0  0  0  0  0  0  0  0  0
  123.8733   -2.6651    4.7543 H   0  0  0  0  0  0  0  0  0  0  0  0
  120.1863   -3.3200    3.1061 H   0  0  0  0  0  0  0  0  0  0  0  0
  118.3109   -1.8734    1.8319 H   0  0  0  0  0  0  0  0  0  0  0  0
  135.4789   -0.0469    0.0039 C   0  0  0  0  0  0  0  0  0  0  0  0
  136.1145    0.8786   -0.8468 C   0  0  0  0  0  0  0  0  0  0  0  0
  135.4749    1.7886   -1.7277 C   0  0  0  0  0  0  0  0  0  0  0  0
  136.4463    2.5176   -2.3575 C   0  0  0  0  0  0  0  0  0  0  0  0
  137.7082    2.0799   -1.8702 C   0  0  0  0  0  0  0  0  0  0  0  0
  137.4568    1.0808   -0.9683 N   0  0  0  0  0  0  0  0  0  0  0  0
  138.9722    2.5540   -2.2421 C   0  0  0  0  0  0  0  0  0  0  0  0
  138.9998    3.6700   -3.2174 C   0  0  0  0  0  0  0  0  0  0  0  0
  139.6257    3.5068   -4.4572 C   0  0  0  0  0  0  0  0  0  0  0  0
  139.6551    4.5464   -5.3664 C   0  0  0  0  0  0  0  0  0  0  0  0
  139.0645    5.7756   -5.0551 C   0  0  0  0  0  0  0  0  0  0  0  0
  139.1158    6.8718   -6.0400 C   0  0  0  0  0  0  0  0  0  0  0  0
  139.6384    6.7758   -7.1206 O   0  0  0  0  0  0  0  0  0  0  0  0
  138.4398    5.9403   -3.8166 C   0  0  0  0  0  0  0  0  0  0  0  0
  138.4049    4.8965   -2.9090 C   0  0  0  0  0  0  0  0  0  0  0  0
  140.1944    2.0657   -1.7746 C   0  0  0  0  0  0  0  0  0  0  0  0
  141.4823    2.6342   -2.1322 C   0  0  0  0  0  0  0  0  0  0  0  0
  142.4155    1.8960   -1.4971 C   0  0  0  0  0  0  0  0  0  0  0  0
  140.3652    1.0198   -0.9213 N   0  0  0  0  0  0  0  0  0  0  0  0
  141.6964    0.8851   -0.7471 C   0  0  0  0  0  0  0  0  0  0  0  0
  142.3453   -0.0966    0.0269 C   0  0  0  0  0  0  0  0  0  0  0  0
  141.7105   -1.0805    0.8083 C   0  0  0  0  0  0  0  0  0  0  0  0
  142.3499   -2.0914    1.5713 C   0  0  0  0  0  0  0  0  0  0  0  0
  141.3788   -2.8201    2.2015 C   0  0  0  0  0  0  0  0  0  0  0  0
  140.1174   -2.2677    1.8477 C   0  0  0  0  0  0  0  0  0  0  0  0
  140.3681   -1.2271    0.9948 N   0  0  0  0  0  0  0  0  0  0  0  0
  138.8535   -2.7033    2.2660 C   0  0  0  0  0  0  0  0  0  0  0  0
  138.8342   -3.8301    3.2293 C   0  0  0  0  0  0  0  0  0  0  0  0
  138.2176   -5.0379    2.8909 C   0  0  0  0  0  0  0  0  0  0  0  0
  138.2076   -6.0941    3.7844 C   0  0  0  0  0  0  0  0  0  0  0  0
  138.8094   -5.9613    5.0380 C   0  0  0  0  0  0  0  0  0  0  0  0
  138.8140   -7.0717    6.0082 C   0  0  0  0  0  0  0  0  0  0  0  0
  139.3221   -7.0052    7.0980 O   0  0  0  0  0  0  0  0  0  0  0  0
  139.4217   -4.7509    5.3792 C   0  0  0  0  0  0  0  0  0  0  0  0
  139.4369   -3.6987    4.4841 C   0  0  0  0  0  0  0  0  0  0  0  0
  137.6314   -2.1675    1.8560 C   0  0  0  0  0  0  0  0  0  0  0  0
  136.3439   -2.6075    2.3639 C   0  0  0  0  0  0  0  0  0  0  0  0
  135.4104   -1.8660    1.7326 C   0  0  0  0  0  0  0  0  0  0  0  0
  136.1292   -0.9695    0.8487 C   0  0  0  0  0  0  0  0  0  0  0  0
  137.4594   -1.1639    0.9523 N   0  0  0  0  0  0  0  0  0  0  0  0
  134.4080    1.8647   -1.8613 H   0  0  0  0  0  0  0  0  0  0  0  0
  136.3033    3.2843   -3.1013 H   0  0  0  0  0  0  0  0  0  0  0  0
  138.1725    0.5634   -0.4689 H   0  0  0  0  0  0  0  0  0  0  0  0
  140.0750    2.5518   -4.7051 H   0  0  0  0  0  0  0  0  0  0  0  0
  140.1345    4.4261   -6.3319 H   0  0  0  0  0  0  0  0  0  0  0  0
  138.6267    7.8107   -5.7032 H   0  0  0  0  0  0  0  0  0  0  0  0
  137.9827    6.8919   -3.5654 H   0  0  0  0  0  0  0  0  0  0  0  0
  137.9320    5.0327   -1.9429 H   0  0  0  0  0  0  0  0  0  0  0  0
  141.6301    3.4904   -2.7699 H   0  0  0  0  0  0  0  0  0  0  0  0
  143.4877    2.0078   -1.5119 H   0  0  0  0  0  0  0  0  0  0  0  0
  143.4167   -2.2382    1.6221 H   0  0  0  0  0  0  0  0  0  0  0  0
  141.5218   -3.6709    2.8472 H   0  0  0  0  0  0  0  0  0  0  0  0
  139.6528   -0.6515    0.5633 H   0  0  0  0  0  0  0  0  0  0  0  0
  137.7613   -5.1479    1.9137 H   0  0  0  0  0  0  0  0  0  0  0  0
  137.7332   -7.0308    3.5105 H   0  0  0  0  0  0  0  0  0  0  0  0
  138.3057   -7.9923    5.6503 H   0  0  0  0  0  0  0  0  0  0  0  0
  139.8819   -4.6549    6.3568 H   0  0  0  0  0  0  0  0  0  0  0  0
  139.9016   -2.7578    4.7566 H   0  0  0  0  0  0  0  0  0  0  0  0
  136.1968   -3.3693    3.1121 H   0  0  0  0  0  0  0  0  0  0  0  0
  134.3383   -1.8972    1.8420 H   0  0  0  0  0  0  0  0  0  0  0  0
  1  2  4  0  0  0  0
  2  3  4  0  0  0  0
  3  4  2  0  0  0  0
  4  5  4  0  0  0  0
  2  6  4  0  0  0  0
  5  6  4  0  0  0  0
  5  7  4  0  0  0  0
  7  8  1  0  0  0  0
  8  9  4  0  0  0  0
  9 10  4  0  0  0  0
 10 11  4  0  0  0  0
 11 12  1  0  0  0  0
 12 13  2  0  0  0  0
 11 14  4  0  0  0  0
  8 15  4  0  0  0  0
 14 15  4  0  0  0  0
  7 16  4  0  0  0  0
 16 17  1  0  0  0  0
 17 18  2  0  0  0  0
 16 19  4  0  0  0  0
 18 20  1  0  0  0  0
 19 20  4  0  0  0  0
 20 21  4  0  0  0  0
 21 22  4  0  0  0  0
 22 23  4  0  0  0  0
 23 24  2  0  0  0  0
 24 25  4  0  0  0  0
 22 26  4  0  0  0  0
 25 26  4  0  0  0  0
 25 27  4  0  0  0  0
 27 28  1  0  0  0  0
 28 29  4  0  0  0  0
 29 30  4  0  0  0  0
 30 31  4  0  0  0  0
 31 32  1  0  0  0  0
 32 33  2  0  0  0  0
 31 34  4  0  0  0  0
 28 35  4  0  0  0  0
 34 35  4  0  0  0  0
 27 36  4  0  0  0  0
 36 37  1  0  0  0  0
 37 38  2  0  0  0  0
  1 39  4  0  0  0  0
 38 39  1  0  0  0  0
 36 40  4  0  0  0  0
 39 40  4  0  0  0  0
  1 41  1  0  0  0  0
  3 42  1  0  0  0  0
  4 43  1  0  0  0  0
  6 44  1  0  0  0  0
  9 45  1  0  0  0  0
 10 46  1  0  0  0  0
 12 47  1  0  0  0  0
 14 48  1  0  0  0  0
 15 49  1  0  0  0  0
 17 50  1  0  0  0  0
 18 51  1  0  0  0  0
 23 52  1  0  0  0  0
 24 53  1  0  0  0  0
 26 54  1  0  0  0  0
 29 55  1  0  0  0  0
 30 56  1  0  0  0  0
 32 57  1  0  0  0  0
 34 58  1  0  0  0  0
 35 59  1  0  0  0  0
 37 60  1  0  0  0  0
 38 61  1  0  0  0  0
 62 63  4  0  0  0  0
 63 64  4  0  0  0  0
 64 65  2  0  0  0  0
 65 66  4  0  0  0  0
 63 67  4  0  0  0  0
 66 67  4  0  0  0  0
 66 68  4  0  0  0  0
 68 69  1  0  0  0  0
 69 70  4  0  0  0  0
 70 71  4  0  0  0  0
 71 72  4  0  0  0  0
 72 73  1  0  0  0  0
 73 74  2  0  0  0  0
 72 75  4  0  0  0  0
 69 76  4  0  0  0  0
 75 76  4  0  0  0  0
 68 77  4  0  0  0  0
 77 78  1  0  0  0  0
 78 79  2  0  0  0  0
 77 80  4  0  0  0  0
 79 81  1  0  0  0  0
 80 81  4  0  0  0  0
 81 82  4  0  0  0  0
 82 83  4  0  0  0  0
 83 84  4  0  0  0  0
 84 85  2  0  0  0  0
 85 86  4  0  0  0  0
 83 87  4  0  0  0  0
 86 87  4  0  0  0  0
 86 88  4  0  0  0  0
 88 89  1  0  0  0  0
 89 90  4  0  0  0  0
 90 91  4  0  0  0  0
 91 92  4  0  0  0  0
 92 93  1  0  0  0  0
 93 94  2  0  0  0  0
 92 95  4  0  0  0  0
 89 96  4  0  0  0  0
 95 96  4  0  0  0  0
 88 97  4  0  0  0  0
 97 98  1  0  0  0  0
 98 99  2  0  0  0  0
 62100  4  0  0  0  0
 99100  1  0  0  0  0
 97101  4  0  0  0  0
100101  4  0  0  0  0
 62102  1  0  0  0  0
 64103  1  0  0  0  0
 65104  1  0  0  0  0
 67105  1  0  0  0  0
 70106  1  0  0  0  0
 71107  1  0  0  0  0
 73108  1  0  0  0  0
 75109  1  0  0  0  0
 76110  1  0  0  0  0
 78111  1  0  0  0  0
 79112  1  0  0  0  0
 84113  1  0  0  0  0
 85114  1  0  0  0  0
 87115  1  0  0  0  0
 90116  1  0  0  0  0
 91117  1  0  0  0  0
 93118  1  0  0  0  0
 95119  1  0  0  0  0
 96120  1  0  0  0  0
 98121  1  0  0  0  0
 99122  1  0  0  0  0
123124  3  0  0  0  0
124125  4  0  0  0  0
 21126  4  0  0  0  0
125126  3  0  0  0  0
123127  4  0  0  0  0
127128  3  0  0  0  0
129130  3  0  0  0  0
130131  4  0  0  0  0
131132  3  0  0  0  0
129133  4  0  0  0  0
133134  3  0  0  0  0
135136  3  0  0  0  0
136137  4  0  0  0  0
137138  3  0  0  0  0
135139  4  0  0  0  0
139140  3  0  0  0  0
141142  3  0  0  0  0
142143  4  0  0  0  0
143144  3  0  0  0  0
141145  4  0  0  0  0
145146  3  0  0  0  0
147148  3  0  0  0  0
148149  4  0  0  0  0
149150  3  0  0  0  0
147151  4  0  0  0  0
 82152  4  0  0  0  0
151152  3  0  0  0  0
128153  4  0  0  0  0
153154  4  0  0  0  0
154155  4  0  0  0  0
155156  2  0  0  0  0
156157  4  0  0  0  0
154158  4  0  0  0  0
157158  4  0  0  0  0
157159  4  0  0  0  0
159160  1  0  0  0  0
160161  4  0  0  0  0
161162  4  0  0  0  0
162163  4  0  0  0  0
163164  1  0  0  0  0
164165  2  0  0  0  0
163166  4  0  0  0  0
160167  4  0  0  0  0
166167  4  0  0  0  0
159168  4  0  0  0  0
168169  1  0  0  0  0
169170  2  0  0  0  0
168171  4  0  0  0  0
170172  1  0  0  0  0
171172  4  0  0  0  0
132173  4  0  0  0  0
172173  4  0  0  0  0
173174  4  0  0  0  0
174175  4  0  0  0  0
175176  2  0  0  0  0
176177  4  0  0  0  0
174178  4  0  0  0  0
177178  4  0  0  0  0
177179  4  0  0  0  0
179180  1  0  0  0  0
180181  4  0  0  0  0
181182  4  0  0  0  0
182183  4  0  0  0  0
183184  1  0  0  0  0
184185  2  0  0  0  0
183186  4  0  0  0  0
180187  4  0  0  0  0
186187  4  0  0  0  0
179188  4  0  0  0  0
188189  1  0  0  0  0
189190  2  0  0  0  0
153191  4  0  0  0  0
190191  1  0  0  0  0
188192  4  0  0  0  0
191192  4  0  0  0  0
155193  1  0  0  0  0
156194  1  0  0  0  0
158195  1  0  0  0  0
161196  1  0  0  0  0
162197  1  0  0  0  0
164198  1  0  0  0  0
166199  1  0  0  0  0
167200  1  0  0  0  0
169201  1  0  0  0  0
170202  1  0  0  0  0
175203  1  0  0  0  0
176204  1  0  0  0  0
178205  1  0  0  0  0
181206  1  0  0  0  0
182207  1  0  0  0  0
184208  1  0  0  0  0
186209  1  0  0  0  0
187210  1  0  0  0  0
189211  1  0  0  0  0
190212  1  0  0  0  0
134213  4  0  0  0  0
213214  4  0  0  0  0
214215  4  0  0  0  0
215216  2  0  0  0  0
216217  4  0  0  0  0
214218  4  0  0  0  0
217218  4  0  0  0  0
217219  4  0  0  0  0
219220  1  0  0  0  0
220221  4  0  0  0  0
221222  4  0  0  0  0
222223  4  0  0  0  0
223224  1  0  0  0  0
224225  2  0  0  0  0
223226  4  0  0  0  0
220227  4  0  0  0  0
226227  4  0  0  0  0
219228  4  0  0  0  0
228229  1  0  0  0  0
229230  2  0  0  0  0
228231  4  0  0  0  0
230232  1  0  0  0  0
231232  4  0  0  0  0
138233  4  0  0  0  0
232233  4  0  0  0  0
233234  4  0  0  0  0
234235  4  0  0  0  0
235236  2  0  0  0  0
236237  4  0  0  0  0
234238  4  0  0  0  0
237238  4  0  0  0  0
237239  4  0  0  0  0
239240  1  0  0  0  0
240241  4  0  0  0  0
241242  4  0  0  0  0
242243  4  0  0  0  0
243244  1  0  0  0  0
244245  2  0  0  0  0
243246  4  0  0  0  0
240247  4  0  0  0  0
246247  4  0  0  0  0
239248  4  0  0  0  0
248249  1  0  0  0  0
249250  2  0  0  0  0
213251  4  0  0  0  0
250251  1  0  0  0  0
248252  4  0  0  0  0
251252  4  0  0  0  0
215253  1  0  0  0  0
216254  1  0  0  0  0
218255  1  0  0  0  0
221256  1  0  0  0  0
222257  1  0  0  0  0
224258  1  0  0  0  0
226259  1  0  0  0  0
227260  1  0  0  0  0
229261  1  0  0  0  0
230262  1  0  0  0  0
235263  1  0  0  0  0
236264  1  0  0  0  0
238265  1  0  0  0  0
241266  1  0  0  0  0
242267  1  0  0  0  0
244268  1  0  0  0  0
246269  1  0  0  0  0
247270  1  0  0  0  0
249271  1  0  0  0  0
250272  1  0  0  0  0
140273  4  0  0  0  0
273274  4  0  0  0  0
274275  4  0  0  0  0
275276  2  0  0  0  0
276277  4  0  0  0  0
274278  4  0  0  0  0
277278  4  0  0  0  0
277279  4  0  0  0  0
279280  1  0  0  0  0
280281  4  0  0  0  0
281282  4  0  0  0  0
282283  4  0  0  0  0
283284  1  0  0  0  0
284285  2  0  0  0  0
283286  4  0  0  0  0
280287  4  0  0  0  0
286287  4  0  0  0  0
279288  4  0  0  0  0
288289  1  0  0  0  0
289290  2  0  0  0  0
288291  4  0  0  0  0
290292  1  0  0  0  0
291292  4  0  0  0  0
144293  4  0  0  0  0
292293  4  0  0  0  0
293294  4  0  0  0  0
294295  4  0  0  0  0
295296  2  0  0  0  0
296297  4  0  0  0  0
294298  4  0  0  0  0
297298  4  0  0  0  0
297299  4  0  0  0  0
299300  1  0  0  0  0
300301  4  0  0  0  0
301302  4  0  0  0  0
302303  4  0  0  0  0
303304  1  0  0  0  0
304305  2  0  0  0  0
303306  4  0  0  0  0
300307  4  0  0  0  0
306307  4  0  0  0  0
299308  4  0  0  0  0
308309  1  0  0  0  0
309310  2  0  0  0  0
273311  4  0  0  0  0
310311  1  0  0  0  0
308312  4  0  0  0  0
311312  4  0  0  0  0
275313  1  0  0  0  0
276314  1  0  0  0  0
278315  1  0  0  0  0
281316  1  0  0  0  0
282317  1  0  0  0  0
284318  1  0  0  0  0
286319  1  0  0  0  0
287320  1  0  0  0  0
289321  1  0  0  0  0
290322  1  0  0  0  0
295323  1  0  0  0  0
296324  1  0  0  0  0
298325  1  0  0  0  0
301326  1  0  0  0  0
302327  1  0  0  0  0
304328  1  0  0  0  0
306329  1  0  0  0  0
307330  1  0  0  0  0
309331  1  0  0  0  0
310332  1  0  0  0  0
146333  4  0  0  0  0
333334  4  0  0  0  0
334335  4  0  0  0  0
335336  2  0  0  0  0
336337  4  0  0  0  0
334338  4  0  0  0  0
337338  4  0  0  0  0
337339  4  0  0  0  0
339340  1  0  0  0  0
340341  4  0  0  0  0
341342  4  0  0  0  0
342343  4  0  0  0  0
343344  1  0  0  0  0
344345  2  0  0  0  0
343346  4  0  0  0  0
340347  4  0  0  0  0
346347  4  0  0  0  0
339348  4  0  0  0  0
348349  1  0  0  0  0
349350  2  0  0  0  0
348351  4  0  0  0  0
350352  1  0  0  0  0
351352  4  0  0  0  0
150353  4  0  0  0  0
352353  4  0  0  0  0
353354  4  0  0  0  0
354355  4  0  0  0  0
355356  2  0  0  0  0
356357  4  0  0  0  0
354358  4  0  0  0  0
357358  4  0  0  0  0
357359  4  0  0  0  0
359360  1  0  0  0  0
360361  4  0  0  0  0
361362  4  0  0  0  0
362363  4  0  0  0  0
363364  1  0  0  0  0
364365  2  0  0  0  0
363366  4  0  0  0  0
360367  4  0  0  0  0
366367  4  0  0  0  0
359368  4  0  0  0  0
368369  1  0  0  0  0
369370  2  0  0  0  0
333371  4  0  0  0  0
370371  1  0  0  0  0
368372  4  0  0  0  0
371372  4  0  0  0  0
335373  1  0  0  0  0
336374  1  0  0  0  0
338375  1  0  0  0  0
341376  1  0  0  0  0
342377  1  0  0  0  0
344378  1  0  0  0  0
346379  1  0  0  0  0
347380  1  0  0  0  0
349381  1  0  0  0  0
350382  1  0  0  0  0
355383  1  0  0  0  0
356384  1  0  0  0  0
358385  1  0  0  0  0
361386  1  0  0  0  0
362387  1  0  0  0  0
364388  1  0  0  0  0
366389  1  0  0  0  0
367390  1  0  0  0  0
369391  1  0  0  0  0
370392  1  0  0  0  0
M  END
