488

C 104.089205 1.201986 -0.176662
C 104.988807 1.591339 -1.385919
C 104.899779 2.743284 -2.142032
C 105.986974 2.720122 -3.055389
C 106.665554 1.532360 -2.855788
N 106.095451 0.888088 -1.783487
C 107.957657 1.008552 -3.619155
C 107.829602 0.684606 -5.068051
C 108.132446 -0.602663 -5.534730
C 107.899191 -0.977822 -6.861633
C 107.284021 -0.096274 -7.746884
N 106.937556 -0.482909 -9.065348
C 106.065079 -1.649124 -9.091792
C 107.020551 1.207157 -7.309961
C 107.292364 1.587221 -5.987443
C 109.062035 0.734957 -2.867769
C 110.337707 0.368393 -3.448972
C 111.195010 0.129192 -2.462363
N 109.234866 0.722904 -1.507784
C 110.503754 0.309114 -1.196441
C 111.096061 0.063221 -0.000791
C 110.269400 0.137549 1.367005
C 110.802617 0.033988 2.634243
C 109.726672 0.011654 3.557396
C 108.562789 0.082015 2.825210
N 108.900154 0.226598 1.496287
C 107.090387 -0.023783 3.429452
C 106.956244 -0.488558 4.829939
C 106.719675 0.428168 5.860731
C 106.605791 -0.006569 7.185005
C 106.756181 -1.361559 7.518047
N 106.585027 -1.863681 8.822165
C 106.771580 -0.951102 9.935938
C 106.976089 -2.267338 6.471538
C 107.091658 -1.837312 5.145425
C 106.012366 0.262495 2.657363
C 104.641423 0.123478 3.121115
C 103.823620 0.462545 2.126584
C 104.643480 0.822769 0.990209
N 105.943805 0.687178 1.362394
H 103.015513 1.241114 -0.291817
H 104.169684 3.530934 -2.020773
H 106.244184 3.493605 -3.767815
H 106.526647 0.144537 -1.249027
H 108.524306 -1.340309 -4.832377
H 108.179144 -1.976928 -7.172499
H 106.511382 0.306243 -9.543073
H 105.202281 -1.524603 -8.426302
H 105.682174 -1.791241 -10.104020
H 106.601836 -2.564849 -8.814656
H 106.538156 1.918715 -7.970132
H 107.066720 2.598539 -5.664528
H 110.562412 0.331103 -4.495035
H 112.223150 -0.152757 -2.601623
H 111.850264 -0.051661 2.878701
H 109.800413 -0.099263 4.627581
H 108.237152 0.346771 0.731564
H 106.622835 1.487317 5.615739
H 106.412180 0.745506 7.948880
H 107.095592 -2.734108 8.930924
H 105.962136 -0.214739 9.983073
H 107.742615 -0.441050 9.884105
H 106.746042 -1.522085 10.872767
H 107.054427 -3.330820 6.672858
H 107.267471 -2.551474 4.343873
H 104.335439 -0.217192 4.093083
H 102.750061 0.442238 2.149911
C 197.862007 1.209467 0.116839
C 196.962406 1.659919 1.304691
C 197.051434 2.848888 2.001136
C 195.964239 2.872286 2.914487
C 195.285658 1.675898 2.775655
N 195.855761 0.977835 1.737569
C 193.993555 1.191660 3.564716
C 194.121610 0.941947 5.028234
C 193.818766 -0.319876 5.559886
C 194.052022 -0.626949 6.904178
C 194.667191 0.298553 7.743370
N 195.013656 -0.020412 9.079818
C 195.886133 -1.183766 9.165640
C 194.930661 1.578033 7.240612
C 194.658848 1.890228 5.900449
C 192.889177 0.880141 2.828244
C 191.613506 0.543662 3.427367
C 190.756202 0.254510 2.454225
N 192.716346 0.798820 1.470639
C 191.447459 0.369706 1.180780
C 190.855152 0.063221 -0.000791
C 191.681813 0.067771 -1.370597
C 191.148596 -0.100214 -2.630913
C 192.224540 -0.169549 -3.551729
C 193.388424 -0.061978 -2.824079
N 193.051059 0.150118 -1.504247
C 194.860826 -0.198421 -3.422147
C 194.994968 -0.733939 -4.797137
C 195.231538 0.129083 -5.873293
C 195.345421 -0.372554 -7.173700
C 195.195032 -1.742751 -7.437280
N 195.366186 -2.310659 -8.714125
C 195.179633 -1.456005 -9.872942
C 194.975123 -2.594040 -6.345986
C 194.859555 -2.097014 -5.043502
C 195.938847 0.126818 -2.665644
C 197.309790 -0.035644 -3.121712
C 198.127592 0.353649 -2.145746
C 197.307733 0.771297 -1.029198
N 196.007407 0.616921 -1.393992
H 198.935700 1.254410 0.229851
H 197.781528 3.629338 1.839909
H 195.707028 3.681059 3.586584
H 195.424565 0.208022 1.241683
H 193.426906 -1.092345 4.896024
H 193.772069 -1.608921 7.265540
H 195.439830 0.792052 9.516720
H 196.748931 -1.093309 8.494671
H 196.269039 -1.274130 10.183794
H 195.349376 -2.112420 8.935515
H 195.413056 2.322299 7.863675
H 194.884492 2.883782 5.526432
H 191.388800 0.559711 4.473971
H 189.728062 -0.019979 2.607667
H 190.100948 -0.198205 -2.870690
H 192.150799 -0.334842 -4.614874
H 193.714060 0.309093 -0.746639
H 195.328378 1.199337 -5.682577
H 195.539033 0.339630 -7.974897
H 194.855620 -3.185496 -8.778399
H 195.989076 -0.722999 -9.957529
H 194.208598 -0.943974 -9.847161
H 195.205171 -2.073973 -10.779466
H 194.896785 -3.666397 -6.492866
H 194.683742 -2.769414 -4.206609
H 197.615774 -0.425388 -4.075062
H 199.201152 0.332180 -2.168008
C 114.693284 0.075657 0.001651
C 113.441013 0.056476 -0.002697
C 116.006952 0.074891 0.003584
C 117.510086 0.056476 -0.002697
C 128.911308 0.075657 0.001651
C 127.659037 0.056476 -0.002697
C 130.224976 0.074891 0.003584
C 131.728110 0.056476 -0.002697
C 143.129332 0.075657 0.001651
C 141.877061 0.056476 -0.002697
C 144.443000 0.074891 0.003584
C 145.946133 0.056476 -0.002697
C 157.347355 0.075657 0.001651
C 156.095085 0.056476 -0.002697
C 158.661024 0.074891 0.003584
C 160.164157 0.056476 -0.002697
C 171.565379 0.075657 0.001651
C 170.313109 0.056476 -0.002697
C 172.879047 0.074891 0.003584
C 174.382181 0.056476 -0.002697
C 185.783403 0.075657 0.001651
C 184.531133 0.056476 -0.002697
C 187.097071 0.074891 0.003584
C 188.600205 0.056476 -0.002697
C 118.999548 -0.029779 0.000517
C 119.774718 0.017487 1.387143
C 119.193611 0.031856 2.639600
C 120.235701 0.069394 3.593504
C 121.429644 0.077766 2.902217
N 121.140572 0.046839 1.558512
C 122.869712 0.113456 3.564232
C 122.931287 0.181723 5.045515
C 122.996846 -0.985764 5.808551
C 123.027977 -0.913371 7.205495
C 122.961310 0.319374 7.874299
N 123.037190 0.322549 9.278584
C 122.557083 1.494881 9.985267
C 122.950860 1.483396 7.095358
C 122.919805 1.417338 5.696765
C 123.997423 0.084652 2.806462
C 125.311272 0.111718 3.415936
C 126.221236 0.067883 2.452072
N 124.192294 0.029472 1.451218
C 125.536980 0.016820 1.175213
C 126.220688 -0.029779 0.000517
C 125.445832 -0.070878 -1.386554
C 126.026659 -0.070623 -2.639584
C 124.984649 -0.109718 -3.593719
C 123.790925 -0.131157 -2.902069
N 124.080310 -0.106977 -1.558050
C 122.351587 -0.172903 -3.562748
C 122.283515 -0.241165 -5.043546
C 122.233944 0.928466 -5.805647
C 122.160985 0.863084 -7.202642
C 122.104871 -0.368861 -7.866790
N 122.073884 -0.498033 -9.267403
C 121.532650 0.605846 -10.038121
C 122.212445 -1.534517 -7.091749
C 122.284903 -1.475457 -5.695907
C 121.223298 -0.145389 -2.805044
C 119.909107 -0.175625 -3.414239
C 118.998825 -0.132077 -2.450757
C 119.683048 -0.077541 -1.174162
N 121.027744 -0.088142 -1.450030
H 118.136345 0.014088 2.854600
H 120.125278 0.086072 4.667666
H 121.827933 0.037121 0.808693
H 123.031645 -1.948318 5.303628
H 123.100649 -1.840400 7.765936
H 122.656069 -0.544157 9.648468
H 121.525972 1.737741 9.707647
H 122.573046 1.294425 11.061591
H 123.202336 2.361719 9.810820
H 122.965200 2.467666 7.548847
H 122.894784 2.327993 5.102356
H 125.527653 0.157704 4.468634
H 127.282600 0.074287 2.619458
H 127.083710 -0.043399 -2.854812
H 125.095181 -0.118662 -4.668354
H 123.393290 -0.104855 -0.807952
H 122.253878 1.890810 -5.299078
H 122.144929 1.800221 -7.746830
H 121.661502 -1.392155 -9.521220
H 122.187199 1.482316 -9.999077
H 121.460843 0.305921 -11.088792
H 120.527044 0.877995 -9.700340
H 122.232740 -2.510984 -7.565745
H 122.343183 -2.387230 -5.106161
H 119.692529 -0.223399 -4.466628
H 117.937459 -0.140355 -2.617711
C 133.217572 -0.029779 0.000517
C 133.992742 0.017487 1.387143
C 133.411635 0.031856 2.639600
C 134.453725 0.069394 3.593504
C 135.647668 0.077766 2.902217
N 135.358596 0.046839 1.558512
C 137.087736 0.113456 3.564232
C 137.149311 0.181723 5.045515
C 137.214870 -0.985764 5.808551
C 137.246001 -0.913371 7.205495
C 137.179334 0.319374 7.874299
N 137.255214 0.322549 9.278584
C 136.775107 1.494881 9.985267
C 137.168883 1.483396 7.095358
C 137.137829 1.417338 5.696765
C 138.215447 0.084652 2.806462
C 139.529296 0.111718 3.415936
C 140.439260 0.067883 2.452072
N 138.410318 0.029472 1.451218
C 139.755004 0.016820 1.175213
C 140.438712 -0.029779 0.000517
C 139.663856 -0.070878 -1.386554
C 140.244683 -0.070623 -2.639584
C 139.202672 -0.109718 -3.593719
C 138.008949 -0.131157 -2.902069
N 138.298334 -0.106977 -1.558050
C 136.569611 -0.172903 -3.562748
C 136.501538 -0.241165 -5.043546
C 136.451968 0.928466 -5.805647
C 136.379009 0.863084 -7.202642
C 136.322894 -0.368861 -7.866790
N 136.291908 -0.498033 -9.267403
C 135.750673 0.605846 -10.038121
C 136.430468 -1.534517 -7.091749
C 136.502927 -1.475457 -5.695907
C 135.441322 -0.145389 -2.805044
C 134.127131 -0.175625 -3.414239
C 133.216849 -0.132077 -2.450757
C 133.901071 -0.077541 -1.174162
N 135.245768 -0.088142 -1.450030
H 132.354369 0.014088 2.854600
H 134.343302 0.086072 4.667666
H 136.045957 0.037121 0.808693
H 137.249669 -1.948318 5.303628
H 137.318673 -1.840400 7.765936
H 136.874093 -0.544157 9.648468
H 135.743995 1.737741 9.707647
H 136.791070 1.294425 11.061591
H 137.420360 2.361719 9.810820
H 137.183224 2.467666 7.548847
H 137.112808 2.327993 5.102356
H 139.745677 0.157704 4.468634
H 141.500624 0.074287 2.619458
H 141.301734 -0.043399 -2.854812
H 139.313204 -0.118662 -4.668354
H 137.611314 -0.104855 -0.807952
H 136.471902 1.890810 -5.299078
H 136.362953 1.800221 -7.746830
H 135.879526 -1.392155 -9.521220
H 136.405223 1.482316 -9.999077
H 135.678867 0.305921 -11.088792
H 134.745067 0.877995 -9.700340
H 136.450764 -2.510984 -7.565745
H 136.561207 -2.387230 -5.106161
H 133.910553 -0.223399 -4.466628
H 132.155483 -0.140355 -2.617711
C 147.435596 -0.029779 0.000517
C 148.210766 0.017487 1.387143
C 147.629659 0.031856 2.639600
C 148.671749 0.069394 3.593504
C 149.865692 0.077766 2.902217
N 149.576619 0.046839 1.558512
C 151.305760 0.113456 3.564232
C 151.367335 0.181723 5.045515
C 151.432894 -0.985764 5.808551
C 151.464025 -0.913371 7.205495
C 151.397358 0.319374 7.874299
N 151.473238 0.322549 9.278584
C 150.993130 1.494881 9.985267
C 151.386907 1.483396 7.095358
C 151.355853 1.417338 5.696765
C 152.433471 0.084652 2.806462
C 153.747319 0.111718 3.415936
C 154.657283 0.067883 2.452072
N 152.628342 0.029472 1.451218
C 153.973028 0.016820 1.175213
C 154.656735 -0.029779 0.000517
C 153.881880 -0.070878 -1.386554
C 154.462707 -0.070623 -2.639584
C 153.420696 -0.109718 -3.593719
C 152.226973 -0.131157 -2.902069
N 152.516358 -0.106977 -1.558050
C 150.787635 -0.172903 -3.562748
C 150.719562 -0.241165 -5.043546
C 150.669992 0.928466 -5.805647
C 150.597032 0.863084 -7.202642
C 150.540918 -0.368861 -7.866790
N 150.509932 -0.498033 -9.267403
C 149.968697 0.605846 -10.038121
C 150.648492 -1.534517 -7.091749
C 150.720951 -1.475457 -5.695907
C 149.659346 -0.145389 -2.805044
C 148.345155 -0.175625 -3.414239
C 147.434873 -0.132077 -2.450757
C 148.119095 -0.077541 -1.174162
N 149.463792 -0.088142 -1.450030
H 146.572393 0.014088 2.854600
H 148.561326 0.086072 4.667666
H 150.263981 0.037121 0.808693
H 151.467693 -1.948318 5.303628
H 151.536697 -1.840400 7.765936
H 151.092117 -0.544157 9.648468
H 149.962019 1.737741 9.707647
H 151.009094 1.294425 11.061591
H 151.638384 2.361719 9.810820
H 151.401248 2.467666 7.548847
H 151.330832 2.327993 5.102356
H 153.963701 0.157704 4.468634
H 155.718648 0.074287 2.619458
H 155.519758 -0.043399 -2.854812
H 153.531228 -0.118662 -4.668354
H 151.829337 -0.104855 -0.807952
H 150.689926 1.890810 -5.299078
H 150.580977 1.800221 -7.746830
H 150.097549 -1.392155 -9.521220
H 150.623247 1.482316 -9.999077
H 149.896891 0.305921 -11.088792
H 148.963091 0.877995 -9.700340
H 150.668788 -2.510984 -7.565745
H 150.779231 -2.387230 -5.106161
H 148.128576 -0.223399 -4.466628
H 146.373507 -0.140355 -2.617711
C 161.653620 -0.029779 0.000517
C 162.428790 0.017487 1.387143
C 161.847683 0.031856 2.639600
C 162.889773 0.069394 3.593504
C 164.083715 0.077766 2.902217
N 163.794643 0.046839 1.558512
C 165.523784 0.113456 3.564232
C 165.585359 0.181723 5.045515
C 165.650918 -0.985764 5.808551
C 165.682049 -0.913371 7.205495
C 165.615382 0.319374 7.874299
N 165.691262 0.322549 9.278584
C 165.211154 1.494881 9.985267
C 165.604931 1.483396 7.095358
C 165.573876 1.417338 5.696765
C 166.651495 0.084652 2.806462
C 167.965343 0.111718 3.415936
C 168.875307 0.067883 2.452072
N 166.846366 0.029472 1.451218
C 168.191052 0.016820 1.175213
C 168.874759 -0.029779 0.000517
C 168.099904 -0.070878 -1.386554
C 168.680731 -0.070623 -2.639584
C 167.638720 -0.109718 -3.593719
C 166.444997 -0.131157 -2.902069
N 166.734381 -0.106977 -1.558050
C 165.005659 -0.172903 -3.562748
C 164.937586 -0.241165 -5.043546
C 164.888016 0.928466 -5.805647
C 164.815056 0.863084 -7.202642
C 164.758942 -0.368861 -7.866790
N 164.727956 -0.498033 -9.267403
C 164.186721 0.605846 -10.038121
C 164.866516 -1.534517 -7.091749
C 164.938975 -1.475457 -5.695907
C 163.877370 -0.145389 -2.805044
C 162.563179 -0.175625 -3.414239
C 161.652897 -0.132077 -2.450757
C 162.337119 -0.077541 -1.174162
N 163.681816 -0.088142 -1.450030
H 160.790417 0.014088 2.854600
H 162.779350 0.086072 4.667666
H 164.482005 0.037121 0.808693
H 165.685717 -1.948318 5.303628
H 165.754720 -1.840400 7.765936
H 165.310141 -0.544157 9.648468
H 164.180043 1.737741 9.707647
H 165.227118 1.294425 11.061591
H 165.856408 2.361719 9.810820
H 165.619272 2.467666 7.548847
H 165.548856 2.327993 5.102356
H 168.181725 0.157704 4.468634
H 169.936672 0.074287 2.619458
H 169.737782 -0.043399 -2.854812
H 167.749252 -0.118662 -4.668354
H 166.047361 -0.104855 -0.807952
H 164.907950 1.890810 -5.299078
H 164.799000 1.800221 -7.746830
H 164.315573 -1.392155 -9.521220
H 164.841271 1.482316 -9.999077
H 164.114914 0.305921 -11.088792
H 163.181115 0.877995 -9.700340
H 164.886812 -2.510984 -7.565745
H 164.997255 -2.387230 -5.106161
H 162.346600 -0.223399 -4.466628
H 160.591531 -0.140355 -2.617711
C 175.871644 -0.029779 0.000517
C 176.646814 0.017487 1.387143
C 176.065706 0.031856 2.639600
C 177.107797 0.069394 3.593504
C 178.301739 0.077766 2.902217
N 178.012667 0.046839 1.558512
C 179.741807 0.113456 3.564232
C 179.803383 0.181723 5.045515
C 179.868942 -0.985764 5.808551
C 179.900073 -0.913371 7.205495
C 179.833405 0.319374 7.874299
N 179.909286 0.322549 9.278584
C 179.429178 1.494881 9.985267
C 179.822955 1.483396 7.095358
C 179.791900 1.417338 5.696765
C 180.869519 0.084652 2.806462
C 182.183367 0.111718 3.415936
C 183.093331 0.067883 2.452072
N 181.064390 0.029472 1.451218
C 182.409076 0.016820 1.175213
C 183.092783 -0.029779 0.000517
C 182.317928 -0.070878 -1.386554
C 182.898755 -0.070623 -2.639584
C 181.856744 -0.109718 -3.593719
C 180.663021 -0.131157 -2.902069
N 180.952405 -0.106977 -1.558050
C 179.223682 -0.172903 -3.562748
C 179.155610 -0.241165 -5.043546
C 179.106040 0.928466 -5.805647
C 179.033080 0.863084 -7.202642
C 178.976966 -0.368861 -7.866790
N 178.945979 -0.498033 -9.267403
C 178.404745 0.605846 -10.038121
C 179.084540 -1.534517 -7.091749
C 179.156999 -1.475457 -5.695907
C 178.095393 -0.145389 -2.805044
C 176.781203 -0.175625 -3.414239
C 175.870921 -0.132077 -2.450757
C 176.555143 -0.077541 -1.174162
N 177.899839 -0.088142 -1.450030
H 175.008441 0.014088 2.854600
H 176.997374 0.086072 4.667666
H 178.700029 0.037121 0.808693
H 179.903741 -1.948318 5.303628
H 179.972744 -1.840400 7.765936
H 179.528165 -0.544157 9.648468
H 178.398067 1.737741 9.707647
H 179.445141 1.294425 11.061591
H 180.074431 2.361719 9.810820
H 179.837295 2.467666 7.548847
H 179.766879 2.327993 5.102356
H 182.399749 0.157704 4.468634
H 184.154695 0.074287 2.619458
H 183.955805 -0.043399 -2.854812
H 181.967276 -0.118662 -4.668354
H 180.265385 -0.104855 -0.807952
H 179.125974 1.890810 -5.299078
H 179.017024 1.800221 -7.746830
H 178.533597 -1.392155 -9.521220
H 179.059295 1.482316 -9.999077
H 178.332938 0.305921 -11.088792
H 177.399139 0.877995 -9.700340
H 179.104836 -2.510984 -7.565745
H 179.215279 -2.387230 -5.106161
H 176.564624 -0.223399 -4.466628
H 174.809555 -0.140355 -2.617711
