 xtb: 6.5.1 (b24c23e)
          07302210123D

126149  0     0  0            999 V2000
   14.6425   -0.0306   -0.0130 Zn  0  0  0  0  0  0  0  0  0  0  0  0
   11.2370   -0.0454   -0.1493 C   0  0  0  0  0  0  0  0  0  0  0  0
   11.8679   -1.2702   -0.3286 C   0  0  0  0  0  0  0  0  0  0  0  0
   11.1944   -2.5226   -0.5314 C   0  0  0  0  0  0  0  0  0  0  0  0
   12.1535   -3.4721   -0.6632 C   0  0  0  0  0  0  0  0  0  0  0  0
   13.4264   -2.8081   -0.5545 C   0  0  0  0  0  0  0  0  0  0  0  0
   13.2176   -1.4777   -0.3414 N   0  0  0  0  0  0  0  0  0  0  0  0
   14.6793   -3.4309   -0.6242 C   0  0  0  0  0  0  0  0  0  0  0  0
   14.6962   -4.8888   -0.8877 C   0  0  0  0  0  0  0  0  0  0  0  0
   15.2632   -5.7688    0.0399 C   0  0  0  0  0  0  0  0  0  0  0  0
   15.2826   -7.1301   -0.2014 C   0  0  0  0  0  0  0  0  0  0  0  0
   14.7336   -7.6181   -1.3842 C   0  0  0  0  0  0  0  0  0  0  0  0
   14.7538   -9.0457   -1.6442 N   0  0  0  0  0  0  0  0  0  0  0  0
   14.2616   -9.4326   -2.6735 O   0  0  0  0  0  0  0  0  0  0  0  0
   15.2633   -9.7568   -0.8160 O   0  0  0  0  0  0  0  0  0  0  0  0
   14.1656   -6.7597   -2.3216 C   0  0  0  0  0  0  0  0  0  0  0  0
   14.1474   -5.4005   -2.0680 C   0  0  0  0  0  0  0  0  0  0  0  0
   15.9181   -2.7967   -0.4701 C   0  0  0  0  0  0  0  0  0  0  0  0
   17.2000   -3.4328   -0.6041 C   0  0  0  0  0  0  0  0  0  0  0  0
   18.1429   -2.4779   -0.4015 C   0  0  0  0  0  0  0  0  0  0  0  0
   16.1068   -1.4675   -0.2048 N   0  0  0  0  0  0  0  0  0  0  0  0
   17.4483   -1.2489   -0.1527 C   0  0  0  0  0  0  0  0  0  0  0  0
   18.0765   -0.0139    0.1056 C   0  0  0  0  0  0  0  0  0  0  0  0
   17.4206    1.2136    0.3266 C   0  0  0  0  0  0  0  0  0  0  0  0
   18.0836    2.4485    0.6262 C   0  0  0  0  0  0  0  0  0  0  0  0
   17.1190    3.3931    0.7658 C   0  0  0  0  0  0  0  0  0  0  0  0
   15.8561    2.7448    0.5414 C   0  0  0  0  0  0  0  0  0  0  0  0
   16.0763    1.4180    0.2879 N   0  0  0  0  0  0  0  0  0  0  0  0
   14.6031    3.3666    0.6046 C   0  0  0  0  0  0  0  0  0  0  0  0
   14.5830    4.8238    0.8730 C   0  0  0  0  0  0  0  0  0  0  0  0
   13.9411    5.3229    2.0111 C   0  0  0  0  0  0  0  0  0  0  0  0
   13.9182    6.6814    2.2680 C   0  0  0  0  0  0  0  0  0  0  0  0
   14.5382    7.5518    1.3757 C   0  0  0  0  0  0  0  0  0  0  0  0
   14.5137    8.9789    1.6381 N   0  0  0  0  0  0  0  0  0  0  0  0
   13.9479    9.3538    2.6336 O   0  0  0  0  0  0  0  0  0  0  0  0
   15.0612    9.7020    0.8453 O   0  0  0  0  0  0  0  0  0  0  0  0
   15.1805    7.0765    0.2356 C   0  0  0  0  0  0  0  0  0  0  0  0
   15.2021    5.7156   -0.0087 C   0  0  0  0  0  0  0  0  0  0  0  0
   13.3648    2.7332    0.4364 C   0  0  0  0  0  0  0  0  0  0  0  0
   12.0819    3.3866    0.4454 C   0  0  0  0  0  0  0  0  0  0  0  0
   11.1442    2.4303    0.2333 C   0  0  0  0  0  0  0  0  0  0  0  0
   11.8418    1.1840    0.0815 C   0  0  0  0  0  0  0  0  0  0  0  0
   13.1845    1.4021    0.2031 N   0  0  0  0  0  0  0  0  0  0  0  0
   10.1524   -0.0496   -0.1934 H   0  0  0  0  0  0  0  0  0  0  0  0
   10.1236   -2.6486   -0.5586 H   0  0  0  0  0  0  0  0  0  0  0  0
   12.0152   -4.5316   -0.8079 H   0  0  0  0  0  0  0  0  0  0  0  0
   15.6757   -5.3782    0.9629 H   0  0  0  0  0  0  0  0  0  0  0  0
   15.7148   -7.8191    0.5144 H   0  0  0  0  0  0  0  0  0  0  0  0
   13.7491   -7.1637   -3.2365 H   0  0  0  0  0  0  0  0  0  0  0  0
   13.7209   -4.7212   -2.7969 H   0  0  0  0  0  0  0  0  0  0  0  0
   17.3585   -4.4730   -0.8385 H   0  0  0  0  0  0  0  0  0  0  0  0
   19.2153   -2.5874   -0.4248 H   0  0  0  0  0  0  0  0  0  0  0  0
   19.1508    2.5680    0.7240 H   0  0  0  0  0  0  0  0  0  0  0  0
   17.2498    4.4344    1.0123 H   0  0  0  0  0  0  0  0  0  0  0  0
   13.4728    4.6345    2.7049 H   0  0  0  0  0  0  0  0  0  0  0  0
   13.4287    7.0757    3.1504 H   0  0  0  0  0  0  0  0  0  0  0  0
   15.6517    7.7747   -0.4457 H   0  0  0  0  0  0  0  0  0  0  0  0
   15.6872    5.3348   -0.9000 H   0  0  0  0  0  0  0  0  0  0  0  0
   11.9236    4.4442    0.5827 H   0  0  0  0  0  0  0  0  0  0  0  0
   10.0736    2.5480    0.1746 H   0  0  0  0  0  0  0  0  0  0  0  0
   30.6854    0.0329   -0.0012 Zn  0  0  0  0  0  0  0  0  0  0  0  0
   34.0910    0.0969   -0.1193 C   0  0  0  0  0  0  0  0  0  0  0  0
   33.4602    1.2995    0.1741 C   0  0  0  0  0  0  0  0  0  0  0  0
   34.1337    2.5363    0.4569 C   0  0  0  0  0  0  0  0  0  0  0  0
   33.1746    3.4662    0.6896 C   0  0  0  0  0  0  0  0  0  0  0  0
   31.9017    2.8104    0.5396 C   0  0  0  0  0  0  0  0  0  0  0  0
   32.1104    1.4972    0.2383 N   0  0  0  0  0  0  0  0  0  0  0  0
   30.6488    3.4142    0.7069 C   0  0  0  0  0  0  0  0  0  0  0  0
   30.6319    4.8646    1.0095 C   0  0  0  0  0  0  0  0  0  0  0  0
   30.0628    5.3325    2.1984 C   0  0  0  0  0  0  0  0  0  0  0  0
   30.0435    6.6849    2.4854 C   0  0  0  0  0  0  0  0  0  0  0  0
   30.5945    7.5807    1.5731 C   0  0  0  0  0  0  0  0  0  0  0  0
   30.5737    9.0017    1.8673 N   0  0  0  0  0  0  0  0  0  0  0  0
   31.0677    9.7464    1.0593 O   0  0  0  0  0  0  0  0  0  0  0  0
   30.0647    9.3502    2.9021 O   0  0  0  0  0  0  0  0  0  0  0  0
   31.1648    7.1365    0.3833 C   0  0  0  0  0  0  0  0  0  0  0  0
   31.1830    5.7815    0.1084 C   0  0  0  0  0  0  0  0  0  0  0  0
   29.4098    2.7688    0.6108 C   0  0  0  0  0  0  0  0  0  0  0  0
   28.1280    3.4091    0.7236 C   0  0  0  0  0  0  0  0  0  0  0  0
   27.1850    2.4480    0.5533 C   0  0  0  0  0  0  0  0  0  0  0  0
   29.2210    1.4370    0.3591 N   0  0  0  0  0  0  0  0  0  0  0  0
   27.8796    1.2149    0.3256 C   0  0  0  0  0  0  0  0  0  0  0  0
   27.2514   -0.0273    0.1040 C   0  0  0  0  0  0  0  0  0  0  0  0
   27.9074   -1.2481   -0.1511 C   0  0  0  0  0  0  0  0  0  0  0  0
   27.2443   -2.5054   -0.3356 C   0  0  0  0  0  0  0  0  0  0  0  0
   28.2088   -3.4335   -0.5605 C   0  0  0  0  0  0  0  0  0  0  0  0
   29.4717   -2.7480   -0.5274 C   0  0  0  0  0  0  0  0  0  0  0  0
   29.2515   -1.4229   -0.2653 N   0  0  0  0  0  0  0  0  0  0  0  0
   30.7246   -3.3480   -0.7031 C   0  0  0  0  0  0  0  0  0  0  0  0
   30.7447   -4.7996   -1.0004 C   0  0  0  0  0  0  0  0  0  0  0  0
   31.3889   -5.6884   -0.1337 C   0  0  0  0  0  0  0  0  0  0  0  0
   31.4119   -7.0441   -0.4045 C   0  0  0  0  0  0  0  0  0  0  0  0
   30.7892   -7.5172   -1.5563 C   0  0  0  0  0  0  0  0  0  0  0  0
   30.8134   -8.9389   -1.8474 N   0  0  0  0  0  0  0  0  0  0  0  0
   31.3828   -9.6588   -1.0672 O   0  0  0  0  0  0  0  0  0  0  0  0
   30.2640   -9.3123   -2.8524 O   0  0  0  0  0  0  0  0  0  0  0  0
   30.1444   -6.6497   -2.4338 C   0  0  0  0  0  0  0  0  0  0  0  0
   30.1229   -5.2964   -2.1505 C   0  0  0  0  0  0  0  0  0  0  0  0
   31.9629   -2.6976   -0.6222 C   0  0  0  0  0  0  0  0  0  0  0  0
   33.2457   -3.3065   -0.8598 C   0  0  0  0  0  0  0  0  0  0  0  0
   34.1835   -2.3408   -0.6964 C   0  0  0  0  0  0  0  0  0  0  0  0
   33.4861   -1.1289   -0.3683 C   0  0  0  0  0  0  0  0  0  0  0  0
   32.1433   -1.3765   -0.3378 N   0  0  0  0  0  0  0  0  0  0  0  0
   35.1757    0.1170   -0.1575 H   0  0  0  0  0  0  0  0  0  0  0  0
   35.2046    2.6629    0.4804 H   0  0  0  0  0  0  0  0  0  0  0  0
   33.3130    4.5025    0.9530 H   0  0  0  0  0  0  0  0  0  0  0  0
   29.6487    4.6243    2.9066 H   0  0  0  0  0  0  0  0  0  0  0  0
   29.6096    7.0552    3.4064 H   0  0  0  0  0  0  0  0  0  0  0  0
   31.5831    7.8540   -0.3124 H   0  0  0  0  0  0  0  0  0  0  0  0
   31.6111    5.4250   -0.8212 H   0  0  0  0  0  0  0  0  0  0  0  0
   27.9695    4.4614    0.8954 H   0  0  0  0  0  0  0  0  0  0  0  0
   26.1126    2.5584    0.5721 H   0  0  0  0  0  0  0  0  0  0  0  0
   26.1772   -2.6530   -0.2885 H   0  0  0  0  0  0  0  0  0  0  0  0
   28.0780   -4.4914   -0.7212 H   0  0  0  0  0  0  0  0  0  0  0  0
   31.8591   -5.3098    0.7665 H   0  0  0  0  0  0  0  0  0  0  0  0
   31.9033   -7.7401    0.2648 H   0  0  0  0  0  0  0  0  0  0  0  0
   29.6712   -7.0421   -3.3259 H   0  0  0  0  0  0  0  0  0  0  0  0
   29.6359   -4.6097   -2.8331 H   0  0  0  0  0  0  0  0  0  0  0  0
   33.4039   -4.3380   -1.1308 H   0  0  0  0  0  0  0  0  0  0  0  0
   35.2541   -2.4279   -0.7950 H   0  0  0  0  0  0  0  0  0  0  0  0
   23.2780   -0.0391    0.1652 C   0  0  0  0  0  0  0  0  0  0  0  0
   22.0499   -0.0254    0.1672 C   0  0  0  0  0  0  0  0  0  0  0  0
   20.7055   -0.0154    0.1585 C   0  0  0  0  0  0  0  0  0  0  0  0
   19.4817   -0.0099    0.1416 C   0  0  0  0  0  0  0  0  0  0  0  0
   24.6224   -0.0446    0.1530 C   0  0  0  0  0  0  0  0  0  0  0  0
   25.8462   -0.0445    0.1327 C   0  0  0  0  0  0  0  0  0  0  0  0
  2  3  4  0  0  0  0
  3  4  4  0  0  0  0
  4  5  2  0  0  0  0
  5  6  4  0  0  0  0
  1  7  1  0  0  0  0
  3  7  4  0  0  0  0
  6  7  4  0  0  0  0
  6  8  4  0  0  0  0
  8  9  1  0  0  0  0
  9 10  4  0  0  0  0
 10 11  4  0  0  0  0
 11 12  4  0  0  0  0
 12 13  1  0  0  0  0
 13 14  2  0  0  0  0
 13 15  2  0  0  0  0
 14 15  1  0  0  0  0
 12 16  4  0  0  0  0
  9 17  4  0  0  0  0
 16 17  4  0  0  0  0
  8 18  4  0  0  0  0
 18 19  4  0  0  0  0
 19 20  2  0  0  0  0
  1 21  1  0  0  0  0
 18 21  4  0  0  0  0
 20 22  4  0  0  0  0
 21 22  4  0  0  0  0
 22 23  4  0  0  0  0
 23 24  4  0  0  0  0
 24 25  4  0  0  0  0
 25 26  2  0  0  0  0
 26 27  4  0  0  0  0
  1 28  1  0  0  0  0
 24 28  4  0  0  0  0
 27 28  4  0  0  0  0
 27 29  4  0  0  0  0
 29 30  1  0  0  0  0
 30 31  4  0  0  0  0
 31 32  4  0  0  0  0
 32 33  4  0  0  0  0
 33 34  1  0  0  0  0
 34 35  2  0  0  0  0
 34 36  2  0  0  0  0
 35 36  1  0  0  0  0
 33 37  4  0  0  0  0
 30 38  4  0  0  0  0
 37 38  4  0  0  0  0
 29 39  4  0  0  0  0
 39 40  4  0  0  0  0
 40 41  2  0  0  0  0
  2 42  4  0  0  0  0
 41 42  4  0  0  0  0
  1 43  1  0  0  0  0
 39 43  4  0  0  0  0
 42 43  4  0  0  0  0
  2 44  1  0  0  0  0
  4 45  1  0  0  0  0
  5 46  1  0  0  0  0
 10 47  1  0  0  0  0
 11 48  1  0  0  0  0
 16 49  1  0  0  0  0
 17 50  1  0  0  0  0
 19 51  1  0  0  0  0
 20 52  1  0  0  0  0
 25 53  1  0  0  0  0
 26 54  1  0  0  0  0
 31 55  1  0  0  0  0
 32 56  1  0  0  0  0
 37 57  1  0  0  0  0
 38 58  1  0  0  0  0
 40 59  1  0  0  0  0
 41 60  1  0  0  0  0
 62 63  4  0  0  0  0
 63 64  4  0  0  0  0
 64 65  2  0  0  0  0
 65 66  4  0  0  0  0
 61 67  1  0  0  0  0
 63 67  4  0  0  0  0
 66 67  4  0  0  0  0
 66 68  4  0  0  0  0
 68 69  1  0  0  0  0
 69 70  4  0  0  0  0
 70 71  4  0  0  0  0
 71 72  4  0  0  0  0
 72 73  1  0  0  0  0
 73 74  2  0  0  0  0
 73 75  2  0  0  0  0
 74 75  1  0  0  0  0
 72 76  4  0  0  0  0
 69 77  4  0  0  0  0
 76 77  4  0  0  0  0
 68 78  4  0  0  0  0
 78 79  4  0  0  0  0
 79 80  2  0  0  0  0
 61 81  1  0  0  0  0
 78 81  4  0  0  0  0
 80 82  4  0  0  0  0
 81 82  4  0  0  0  0
 82 83  4  0  0  0  0
 83 84  4  0  0  0  0
 84 85  4  0  0  0  0
 85 86  2  0  0  0  0
 86 87  4  0  0  0  0
 61 88  1  0  0  0  0
 84 88  4  0  0  0  0
 87 88  4  0  0  0  0
 87 89  4  0  0  0  0
 89 90  1  0  0  0  0
 90 91  4  0  0  0  0
 91 92  4  0  0  0  0
 92 93  4  0  0  0  0
 93 94  1  0  0  0  0
 94 95  2  0  0  0  0
 94 96  2  0  0  0  0
 95 96  1  0  0  0  0
 93 97  4  0  0  0  0
 90 98  4  0  0  0  0
 97 98  4  0  0  0  0
 89 99  4  0  0  0  0
 99100  4  0  0  0  0
100101  2  0  0  0  0
 62102  4  0  0  0  0
101102  4  0  0  0  0
 61103  1  0  0  0  0
 99103  4  0  0  0  0
102103  4  0  0  0  0
 62104  1  0  0  0  0
 64105  1  0  0  0  0
 65106  1  0  0  0  0
 70107  1  0  0  0  0
 71108  1  0  0  0  0
 76109  1  0  0  0  0
 77110  1  0  0  0  0
 79111  1  0  0  0  0
 80112  1  0  0  0  0
 85113  1  0  0  0  0
 86114  1  0  0  0  0
 91115  1  0  0  0  0
 92116  1  0  0  0  0
 97117  1  0  0  0  0
 98118  1  0  0  0  0
100119  1  0  0  0  0
101120  1  0  0  0  0
121122  3  0  0  0  0
122123  4  0  0  0  0
 23124  4  0  0  0  0
123124  3  0  0  0  0
121125  4  0  0  0  0
 83126  4  0  0  0  0
125126  3  0  0  0  0
M  END
