 xtb: 6.5.1 (b24c23e)
          07302205443D

154173  0     0  0            999 V2000
   14.5025    0.0464    0.0160 Ni  0  0  0  0  0  0  0  0  0  0  0  0
   11.1017    0.1218   -0.0405 C   0  0  0  0  0  0  0  0  0  0  0  0
   11.7647    1.2021    0.5039 C   0  0  0  0  0  0  0  0  0  0  0  0
   11.0982    2.3457    1.0494 C   0  0  0  0  0  0  0  0  0  0  0  0
   12.0649    3.2103    1.4375 C   0  0  0  0  0  0  0  0  0  0  0  0
   13.3206    2.5934    1.1261 C   0  0  0  0  0  0  0  0  0  0  0  0
   13.1272    1.3543    0.5682 N   0  0  0  0  0  0  0  0  0  0  0  0
   14.5466    3.2072    1.3316 C   0  0  0  0  0  0  0  0  0  0  0  0
   14.5704    4.5880    1.8920 C   0  0  0  0  0  0  0  0  0  0  0  0
   14.4661    5.6869    1.0343 C   0  0  0  0  0  0  0  0  0  0  0  0
   14.3271    5.4720   -0.4493 C   0  0  0  0  0  0  0  0  0  0  0  0
   14.4950    6.9716    1.5640 C   0  0  0  0  0  0  0  0  0  0  0  0
   14.6253    7.1772    2.9336 C   0  0  0  0  0  0  0  0  0  0  0  0
   14.6780    8.5733    3.4928 C   0  0  0  0  0  0  0  0  0  0  0  0
   14.7293    6.0760    3.7773 C   0  0  0  0  0  0  0  0  0  0  0  0
   14.7034    4.7823    3.2698 C   0  0  0  0  0  0  0  0  0  0  0  0
   14.8202    3.5955    4.1887 C   0  0  0  0  0  0  0  0  0  0  0  0
   15.7538    2.5982    1.0289 C   0  0  0  0  0  0  0  0  0  0  0  0
   17.0234    3.2285    1.2270 C   0  0  0  0  0  0  0  0  0  0  0  0
   17.9670    2.3244    0.8704 C   0  0  0  0  0  0  0  0  0  0  0  0
   15.9175    1.3214    0.5402 N   0  0  0  0  0  0  0  0  0  0  0  0
   17.2711    1.1473    0.4556 C   0  0  0  0  0  0  0  0  0  0  0  0
   17.9234   -0.0231    0.0576 C   0  0  0  0  0  0  0  0  0  0  0  0
   17.2348   -1.1682   -0.3515 C   0  0  0  0  0  0  0  0  0  0  0  0
   17.8920   -2.3747   -0.7440 C   0  0  0  0  0  0  0  0  0  0  0  0
   16.9212   -3.2425   -1.1176 C   0  0  0  0  0  0  0  0  0  0  0  0
   15.6738   -2.5599   -0.9544 C   0  0  0  0  0  0  0  0  0  0  0  0
   15.8774   -1.2884   -0.4669 N   0  0  0  0  0  0  0  0  0  0  0  0
   14.4507   -3.1177   -1.2906 C   0  0  0  0  0  0  0  0  0  0  0  0
   14.4289   -4.4987   -1.8507 C   0  0  0  0  0  0  0  0  0  0  0  0
   14.6067   -4.6995   -3.2231 C   0  0  0  0  0  0  0  0  0  0  0  0
   14.8233   -3.5204   -4.1338 C   0  0  0  0  0  0  0  0  0  0  0  0
   14.5853   -5.9922   -3.7317 C   0  0  0  0  0  0  0  0  0  0  0  0
   14.3910   -7.0874   -2.8945 C   0  0  0  0  0  0  0  0  0  0  0  0
   14.3622   -8.4781   -3.4689 C   0  0  0  0  0  0  0  0  0  0  0  0
   14.2162   -6.8756   -1.5318 C   0  0  0  0  0  0  0  0  0  0  0  0
   14.2333   -5.5905   -1.0008 C   0  0  0  0  0  0  0  0  0  0  0  0
   14.0466   -5.3691    0.4766 C   0  0  0  0  0  0  0  0  0  0  0  0
   13.2468   -2.4499   -1.1258 C   0  0  0  0  0  0  0  0  0  0  0  0
   11.9762   -3.0109   -1.4795 C   0  0  0  0  0  0  0  0  0  0  0  0
   11.0365   -2.1023   -1.1275 C   0  0  0  0  0  0  0  0  0  0  0  0
   11.7344   -0.9879   -0.5610 C   0  0  0  0  0  0  0  0  0  0  0  0
   13.0901   -1.2014   -0.5775 N   0  0  0  0  0  0  0  0  0  0  0  0
   10.0184    0.1461   -0.0596 H   0  0  0  0  0  0  0  0  0  0  0  0
   10.0273    2.4545    1.1148 H   0  0  0  0  0  0  0  0  0  0  0  0
   11.9576    4.1818    1.8926 H   0  0  0  0  0  0  0  0  0  0  0  0
   13.4096    4.9224   -0.6683 H   0  0  0  0  0  0  0  0  0  0  0  0
   15.1658    4.8845   -0.8275 H   0  0  0  0  0  0  0  0  0  0  0  0
   14.2986    6.4235   -0.9795 H   0  0  0  0  0  0  0  0  0  0  0  0
   14.4144    7.8247    0.8982 H   0  0  0  0  0  0  0  0  0  0  0  0
   14.2677    8.6034    4.5024 H   0  0  0  0  0  0  0  0  0  0  0  0
   15.7144    8.9164    3.5374 H   0  0  0  0  0  0  0  0  0  0  0  0
   14.1187    9.2656    2.8632 H   0  0  0  0  0  0  0  0  0  0  0  0
   14.8317    6.2273    4.8469 H   0  0  0  0  0  0  0  0  0  0  0  0
   15.7271    3.0310    3.9628 H   0  0  0  0  0  0  0  0  0  0  0  0
   14.8578    3.9121    5.2306 H   0  0  0  0  0  0  0  0  0  0  0  0
   13.9688    2.9257    4.0554 H   0  0  0  0  0  0  0  0  0  0  0  0
   17.1583    4.2331    1.5936 H   0  0  0  0  0  0  0  0  0  0  0  0
   19.0399    2.4282    0.8841 H   0  0  0  0  0  0  0  0  0  0  0  0
   18.9601   -2.5212   -0.7313 H   0  0  0  0  0  0  0  0  0  0  0  0
   17.0237   -4.2544   -1.4747 H   0  0  0  0  0  0  0  0  0  0  0  0
   14.0160   -2.7953   -4.0166 H   0  0  0  0  0  0  0  0  0  0  0  0
   14.8638   -3.8357   -5.1760 H   0  0  0  0  0  0  0  0  0  0  0  0
   15.7607   -3.0189   -3.8850 H   0  0  0  0  0  0  0  0  0  0  0  0
   14.7231   -6.1498   -4.7964 H   0  0  0  0  0  0  0  0  0  0  0  0
   15.2224   -8.6412   -4.1198 H   0  0  0  0  0  0  0  0  0  0  0  0
   14.3737   -9.2281   -2.6781 H   0  0  0  0  0  0  0  0  0  0  0  0
   13.4581   -8.6189   -4.0650 H   0  0  0  0  0  0  0  0  0  0  0  0
   14.0657   -7.7228   -0.8708 H   0  0  0  0  0  0  0  0  0  0  0  0
   13.1427   -4.7851    0.6606 H   0  0  0  0  0  0  0  0  0  0  0  0
   14.8917   -4.8133    0.8869 H   0  0  0  0  0  0  0  0  0  0  0  0
   13.9615   -6.3182    1.0050 H   0  0  0  0  0  0  0  0  0  0  0  0
   11.8411   -3.9779   -1.9367 H   0  0  0  0  0  0  0  0  0  0  0  0
    9.9647   -2.1629   -1.2304 H   0  0  0  0  0  0  0  0  0  0  0  0
   30.5168   -0.0447   -0.0214 Ni  0  0  0  0  0  0  0  0  0  0  0  0
   33.9176   -0.0602   -0.1136 C   0  0  0  0  0  0  0  0  0  0  0  0
   33.2546   -1.2166   -0.4687 C   0  0  0  0  0  0  0  0  0  0  0  0
   33.9212   -2.4195   -0.8668 C   0  0  0  0  0  0  0  0  0  0  0  0
   32.9545   -3.3120   -1.1854 C   0  0  0  0  0  0  0  0  0  0  0  0
   31.6988   -2.6513   -0.9832 C   0  0  0  0  0  0  0  0  0  0  0  0
   31.8921   -1.3709   -0.5279 N   0  0  0  0  0  0  0  0  0  0  0  0
   30.4729   -3.2364   -1.2599 C   0  0  0  0  0  0  0  0  0  0  0  0
   30.4490   -4.6209   -1.8113 C   0  0  0  0  0  0  0  0  0  0  0  0
   30.5534   -4.8204   -3.1910 C   0  0  0  0  0  0  0  0  0  0  0  0
   30.6923   -3.6384   -4.1131 C   0  0  0  0  0  0  0  0  0  0  0  0
   30.5245   -6.1142   -3.6979 C   0  0  0  0  0  0  0  0  0  0  0  0
   30.3942   -7.2106   -2.8517 C   0  0  0  0  0  0  0  0  0  0  0  0
   30.3415   -8.6053   -3.4144 C   0  0  0  0  0  0  0  0  0  0  0  0
   30.2902   -6.9998   -1.4805 C   0  0  0  0  0  0  0  0  0  0  0  0
   30.3162   -5.7147   -0.9514 C   0  0  0  0  0  0  0  0  0  0  0  0
   30.1994   -5.4942    0.5333 C   0  0  0  0  0  0  0  0  0  0  0  0
   29.2656   -2.5874   -1.0570 C   0  0  0  0  0  0  0  0  0  0  0  0
   27.9960   -3.1793   -1.3506 C   0  0  0  0  0  0  0  0  0  0  0  0
   27.0524   -2.2800   -0.9822 C   0  0  0  0  0  0  0  0  0  0  0  0
   29.1019   -1.3277   -0.5259 N   0  0  0  0  0  0  0  0  0  0  0  0
   27.7482   -1.1435   -0.4664 C   0  0  0  0  0  0  0  0  0  0  0  0
   27.0960   -0.0234    0.0567 C   0  0  0  0  0  0  0  0  0  0  0  0
   27.7845    1.0861    0.5544 C   0  0  0  0  0  0  0  0  0  0  0  0
   27.1272    2.2285    1.1062 C   0  0  0  0  0  0  0  0  0  0  0  0
   28.0980    3.1132    1.4377 C   0  0  0  0  0  0  0  0  0  0  0  0
   29.3455    2.5076    1.0830 C   0  0  0  0  0  0  0  0  0  0  0  0
   29.1418    1.2528    0.5542 N   0  0  0  0  0  0  0  0  0  0  0  0
   30.5685    3.1429    1.2268 C   0  0  0  0  0  0  0  0  0  0  0  0
   30.5903    4.5271    1.7790 C   0  0  0  0  0  0  0  0  0  0  0  0
   30.4122    5.6224    0.9280 C   0  0  0  0  0  0  0  0  0  0  0  0
   30.1954    5.4024   -0.5455 C   0  0  0  0  0  0  0  0  0  0  0  0
   30.4337    6.9071    1.4563 C   0  0  0  0  0  0  0  0  0  0  0  0
   30.6282    7.1174    2.8186 C   0  0  0  0  0  0  0  0  0  0  0  0
   30.6571    8.5185    3.3674 C   0  0  0  0  0  0  0  0  0  0  0  0
   30.8032    6.0210    3.6550 C   0  0  0  0  0  0  0  0  0  0  0  0
   30.7861    4.7262    3.1482 C   0  0  0  0  0  0  0  0  0  0  0  0
   30.9730    3.5434    4.0607 C   0  0  0  0  0  0  0  0  0  0  0  0
   31.7724    2.5469    0.8835 C   0  0  0  0  0  0  0  0  0  0  0  0
   33.0431    3.1966    1.0168 C   0  0  0  0  0  0  0  0  0  0  0  0
   33.9828    2.2973    0.6418 C   0  0  0  0  0  0  0  0  0  0  0  0
   33.2849    1.1010    0.2790 C   0  0  0  0  0  0  0  0  0  0  0  0
   31.9292    1.2665    0.4147 N   0  0  0  0  0  0  0  0  0  0  0  0
   35.0010   -0.0645   -0.1440 H   0  0  0  0  0  0  0  0  0  0  0  0
   34.9921   -2.5433   -0.8947 H   0  0  0  0  0  0  0  0  0  0  0  0
   33.0618   -4.3281   -1.5296 H   0  0  0  0  0  0  0  0  0  0  0  0
   31.6100   -3.0904   -3.8909 H   0  0  0  0  0  0  0  0  0  0  0  0
   29.8538   -2.9525   -3.9792 H   0  0  0  0  0  0  0  0  0  0  0  0
   30.7205   -3.9581   -5.1543 H   0  0  0  0  0  0  0  0  0  0  0  0
   30.6050   -6.2692   -4.7689 H   0  0  0  0  0  0  0  0  0  0  0  0
   30.7516   -9.3258   -2.7064 H   0  0  0  0  0  0  0  0  0  0  0  0
   29.3051   -8.8837   -3.6199 H   0  0  0  0  0  0  0  0  0  0  0  0
   30.9010   -8.6692   -4.3479 H   0  0  0  0  0  0  0  0  0  0  0  0
   30.1880   -7.8493   -0.8132 H   0  0  0  0  0  0  0  0  0  0  0  0
   29.2924   -4.9307    0.7611 H   0  0  0  0  0  0  0  0  0  0  0  0
   30.1621   -6.4439    1.0662 H   0  0  0  0  0  0  0  0  0  0  0  0
   31.0507   -4.9183    0.9006 H   0  0  0  0  0  0  0  0  0  0  0  0
   27.8611   -4.1581   -1.7816 H   0  0  0  0  0  0  0  0  0  0  0  0
   25.9795   -2.3643   -1.0443 H   0  0  0  0  0  0  0  0  0  0  0  0
   26.0592    2.3255    1.2167 H   0  0  0  0  0  0  0  0  0  0  0  0
   27.9955    4.0906    1.8806 H   0  0  0  0  0  0  0  0  0  0  0  0
   31.0027    4.7983   -0.9632 H   0  0  0  0  0  0  0  0  0  0  0  0
   30.1547    6.3515   -1.0789 H   0  0  0  0  0  0  0  0  0  0  0  0
   29.2580    4.8681   -0.7131 H   0  0  0  0  0  0  0  0  0  0  0  0
   30.2958    7.7581    0.7973 H   0  0  0  0  0  0  0  0  0  0  0  0
   29.7969    9.0870    3.0107 H   0  0  0  0  0  0  0  0  0  0  0  0
   30.6456    8.5119    4.4572 H   0  0  0  0  0  0  0  0  0  0  0  0
   31.5613    9.0329    3.0349 H   0  0  0  0  0  0  0  0  0  0  0  0
   30.9539    6.1745    4.7186 H   0  0  0  0  0  0  0  0  0  0  0  0
   31.8767    2.9945    3.7887 H   0  0  0  0  0  0  0  0  0  0  0  0
   30.1278    2.8584    3.9720 H   0  0  0  0  0  0  0  0  0  0  0  0
   31.0584    3.8622    5.0991 H   0  0  0  0  0  0  0  0  0  0  0  0
   33.1781    4.2109    1.3564 H   0  0  0  0  0  0  0  0  0  0  0  0
   35.0546    2.4123    0.6096 H   0  0  0  0  0  0  0  0  0  0  0  0
   23.1235   -0.0295    0.0918 C   0  0  0  0  0  0  0  0  0  0  0  0
   21.8958   -0.0419    0.0868 C   0  0  0  0  0  0  0  0  0  0  0  0
   20.5511   -0.0445    0.0795 C   0  0  0  0  0  0  0  0  0  0  0  0
   19.3278   -0.0445    0.0695 C   0  0  0  0  0  0  0  0  0  0  0  0
   24.4682   -0.0224    0.0879 C   0  0  0  0  0  0  0  0  0  0  0  0
   25.6915   -0.0162    0.0800 C   0  0  0  0  0  0  0  0  0  0  0  0
  2  3  4  0  0  0  0
  3  4  4  0  0  0  0
  4  5  2  0  0  0  0
  5  6  4  0  0  0  0
  1  7  1  0  0  0  0
  3  7  4  0  0  0  0
  6  7  4  0  0  0  0
  6  8  4  0  0  0  0
  8  9  1  0  0  0  0
  9 10  4  0  0  0  0
 10 11  1  0  0  0  0
 10 12  4  0  0  0  0
 12 13  4  0  0  0  0
 13 14  1  0  0  0  0
 13 15  4  0  0  0  0
  9 16  4  0  0  0  0
 15 16  4  0  0  0  0
 16 17  1  0  0  0  0
  8 18  4  0  0  0  0
 18 19  4  0  0  0  0
 19 20  2  0  0  0  0
  1 21  1  0  0  0  0
 18 21  4  0  0  0  0
 20 22  4  0  0  0  0
 21 22  4  0  0  0  0
 22 23  4  0  0  0  0
 23 24  4  0  0  0  0
 24 25  4  0  0  0  0
 25 26  2  0  0  0  0
 26 27  4  0  0  0  0
  1 28  1  0  0  0  0
 24 28  4  0  0  0  0
 27 28  4  0  0  0  0
 27 29  4  0  0  0  0
 29 30  1  0  0  0  0
 30 31  4  0  0  0  0
 31 32  1  0  0  0  0
 31 33  4  0  0  0  0
 33 34  4  0  0  0  0
 34 35  1  0  0  0  0
 34 36  4  0  0  0  0
 30 37  4  0  0  0  0
 36 37  4  0  0  0  0
 37 38  1  0  0  0  0
 29 39  4  0  0  0  0
 39 40  4  0  0  0  0
 40 41  2  0  0  0  0
  2 42  4  0  0  0  0
 41 42  4  0  0  0  0
  1 43  1  0  0  0  0
 39 43  4  0  0  0  0
 42 43  4  0  0  0  0
  2 44  1  0  0  0  0
  4 45  1  0  0  0  0
  5 46  1  0  0  0  0
 11 47  1  0  0  0  0
 11 48  1  0  0  0  0
 11 49  1  0  0  0  0
 12 50  1  0  0  0  0
 14 51  1  0  0  0  0
 14 52  1  0  0  0  0
 14 53  1  0  0  0  0
 15 54  1  0  0  0  0
 17 55  1  0  0  0  0
 17 56  1  0  0  0  0
 17 57  1  0  0  0  0
 19 58  1  0  0  0  0
 20 59  1  0  0  0  0
 25 60  1  0  0  0  0
 26 61  1  0  0  0  0
 32 62  1  0  0  0  0
 32 63  1  0  0  0  0
 32 64  1  0  0  0  0
 33 65  1  0  0  0  0
 35 66  1  0  0  0  0
 35 67  1  0  0  0  0
 35 68  1  0  0  0  0
 36 69  1  0  0  0  0
 38 70  1  0  0  0  0
 38 71  1  0  0  0  0
 38 72  1  0  0  0  0
 40 73  1  0  0  0  0
 41 74  1  0  0  0  0
 76 77  4  0  0  0  0
 77 78  4  0  0  0  0
 78 79  2  0  0  0  0
 79 80  4  0  0  0  0
 75 81  1  0  0  0  0
 77 81  4  0  0  0  0
 80 81  4  0  0  0  0
 80 82  4  0  0  0  0
 82 83  1  0  0  0  0
 83 84  4  0  0  0  0
 84 85  1  0  0  0  0
 84 86  4  0  0  0  0
 86 87  4  0  0  0  0
 87 88  1  0  0  0  0
 87 89  4  0  0  0  0
 83 90  4  0  0  0  0
 89 90  4  0  0  0  0
 90 91  1  0  0  0  0
 82 92  4  0  0  0  0
 92 93  4  0  0  0  0
 93 94  2  0  0  0  0
 75 95  1  0  0  0  0
 92 95  4  0  0  0  0
 94 96  4  0  0  0  0
 95 96  4  0  0  0  0
 96 97  4  0  0  0  0
 97 98  4  0  0  0  0
 98 99  4  0  0  0  0
 99100  2  0  0  0  0
100101  4  0  0  0  0
 75102  1  0  0  0  0
 98102  4  0  0  0  0
101102  4  0  0  0  0
101103  4  0  0  0  0
103104  1  0  0  0  0
104105  4  0  0  0  0
105106  1  0  0  0  0
105107  4  0  0  0  0
107108  4  0  0  0  0
108109  1  0  0  0  0
108110  4  0  0  0  0
104111  4  0  0  0  0
110111  4  0  0  0  0
111112  1  0  0  0  0
103113  4  0  0  0  0
113114  4  0  0  0  0
114115  2  0  0  0  0
 76116  4  0  0  0  0
115116  4  0  0  0  0
 75117  1  0  0  0  0
113117  4  0  0  0  0
116117  4  0  0  0  0
 76118  1  0  0  0  0
 78119  1  0  0  0  0
 79120  1  0  0  0  0
 85121  1  0  0  0  0
 85122  1  0  0  0  0
 85123  1  0  0  0  0
 86124  1  0  0  0  0
 88125  1  0  0  0  0
 88126  1  0  0  0  0
 88127  1  0  0  0  0
 89128  1  0  0  0  0
 91129  1  0  0  0  0
 91130  1  0  0  0  0
 91131  1  0  0  0  0
 93132  1  0  0  0  0
 94133  1  0  0  0  0
 99134  1  0  0  0  0
100135  1  0  0  0  0
106136  1  0  0  0  0
106137  1  0  0  0  0
106138  1  0  0  0  0
107139  1  0  0  0  0
109140  1  0  0  0  0
109141  1  0  0  0  0
109142  1  0  0  0  0
110143  1  0  0  0  0
112144  1  0  0  0  0
112145  1  0  0  0  0
112146  1  0  0  0  0
114147  1  0  0  0  0
115148  1  0  0  0  0
149150  3  0  0  0  0
150151  4  0  0  0  0
 23152  4  0  0  0  0
151152  3  0  0  0  0
149153  4  0  0  0  0
 97154  4  0  0  0  0
153154  3  0  0  0  0
M  END
