250

Co 48.257702 0.046025 -0.019573
C 44.920956 -0.078973 -0.097269
C 45.584152 -1.230306 -0.239988
C 44.933445 -2.528837 -0.366021
C 45.873935 -3.441945 -0.520452
C 47.179352 -2.767312 -0.511623
N 47.002346 -1.362546 -0.324266
C 48.371821 -3.377371 -0.674237
C 48.419204 -4.839265 -0.903491
C 48.934505 -5.688704 0.084609
C 48.993265 -7.067787 -0.132834
C 48.540478 -7.619948 -1.345574
N 48.596343 -9.040138 -1.572215
O 48.151892 -9.577424 -2.759112
O 49.035978 -9.808378 -0.691102
C 48.031235 -6.761402 -2.335909
C 47.973199 -5.382208 -2.117178
C 49.664833 -2.644181 -0.645124
C 50.951414 -3.243273 -1.021683
C 51.885757 -2.328757 -0.857462
N 49.805584 -1.410238 -0.267516
C 51.202775 -1.134863 -0.373830
C 51.796193 0.017160 -0.021483
C 51.032899 1.192098 0.456208
C 51.565329 2.204972 1.128212
C 50.521740 3.193987 1.316342
C 49.421255 2.721530 0.742190
N 49.654159 1.432613 0.171289
C 48.139316 3.466700 0.648139
C 48.156812 4.934397 0.859985
C 47.494668 5.502899 1.958244
C 47.531760 6.884253 2.166740
C 48.236121 7.720852 1.283300
N 48.270890 9.143341 1.499972
O 47.665787 9.697052 2.605454
O 48.854613 9.896506 0.692760
C 48.906682 7.144371 0.188511
C 48.869727 5.762482 -0.018352
C 46.977196 2.840580 0.380943
C 45.667032 3.473496 0.237898
C 44.805579 2.493952 0.044729
C 45.556991 1.239818 0.049375
N 46.823505 1.429570 0.243701
H 43.837474 -0.107152 -0.091422
H 43.869302 -2.726714 -0.336878
H 45.686064 -4.501932 -0.632185
H 49.288461 -5.281903 1.024114
H 49.393832 -7.701747 0.647259
H 47.678789 -7.155079 -3.280655
H 47.581901 -4.736314 -2.893514
H 51.124279 -4.251355 -1.375610
H 52.941350 -2.468022 -1.050439
H 52.591931 2.296224 1.455633
H 50.631894 4.150494 1.811497
H 46.953637 4.874388 2.655351
H 47.009819 7.297288 3.020415
H 49.464951 7.760643 -0.503798
H 49.396614 5.336695 -0.863825
H 45.423662 4.527060 0.278233
H 43.739053 2.612224 -0.095455
Co 89.014331 -0.010315 -0.030536
C 92.351077 0.134695 -0.055694
C 91.687880 1.255543 0.243702
C 92.338587 2.506593 0.613760
C 91.398098 3.410986 0.812974
C 90.092680 2.782264 0.568199
N 90.269687 1.409736 0.215158
C 88.900212 3.408787 0.646197
C 88.852828 4.849984 0.981819
C 88.337528 5.266952 2.216333
C 88.278767 6.626951 2.531853
C 88.731555 7.593555 1.614631
N 88.675690 8.995111 1.937038
O 89.120140 9.938235 1.038195
O 88.236054 9.376920 3.041925
C 89.240798 7.168982 0.374629
C 89.298834 5.808397 0.060262
C 87.607199 2.718173 0.398270
C 86.320619 3.414750 0.273818
C 85.386275 2.505380 0.083152
N 87.466449 1.432670 0.285649
C 86.069258 1.217249 0.083838
C 85.475840 0.017160 -0.021483
C 86.239134 -1.251171 -0.019197
C 85.706703 -2.442121 0.223993
C 86.750293 -3.429520 0.027556
C 87.850777 -2.776249 -0.327554
N 87.617874 -1.367305 -0.373512
C 89.132716 -3.431788 -0.694151
C 89.115221 -4.871837 -1.048087
C 89.777364 -5.810664 -0.243121
C 89.740272 -7.169413 -0.567787
C 89.035912 -7.613722 -1.700462
N 89.001142 -9.013672 -2.032973
O 89.606246 -9.941494 -1.215764
O 88.417419 -9.409215 -3.063698
C 88.365350 -6.668799 -2.499220
C 88.402306 -5.310166 -2.172840
C 90.294837 -2.751160 -0.707084
C 91.605000 -3.284264 -1.077010
C 92.466454 -2.303756 -0.888797
C 91.715042 -1.142863 -0.414241
N 90.448527 -1.391636 -0.305242
H 93.434559 0.158627 -0.039708
H 93.402731 2.679105 0.714972
H 91.585969 4.435533 1.106844
H 87.983571 4.537556 2.934759
H 87.878201 6.922156 3.492741
H 89.593243 7.888178 -0.353577
H 89.690132 5.500720 -0.901618
H 86.147754 4.481992 0.323702
H 84.330683 2.706843 -0.043527
H 84.680102 -2.649485 0.493310
H 86.640139 -4.501904 0.127935
H 90.318396 -5.489394 0.638792
H 90.262214 -7.872407 0.068734
H 87.807082 -6.980521 -3.372097
H 87.875418 -4.598426 -2.796975
H 91.848370 -4.276086 -1.434661
H 93.532980 -2.360836 -1.063101
C 54.974751 0.029596 -0.019041
C 53.722480 0.010415 -0.023390
C 56.288419 0.028830 -0.017109
C 57.791553 0.010415 -0.023390
C 67.898754 0.029596 -0.019041
C 66.646483 0.010415 -0.023390
C 69.212422 0.028830 -0.017109
C 70.715555 0.010415 -0.023390
C 80.822756 0.029596 -0.019041
C 79.570486 0.010415 -0.023390
C 82.136425 0.028830 -0.017109
C 83.639558 0.010415 -0.023390
Co 62.087320 0.061060 -0.038610
C 58.720125 -0.018510 0.024226
C 59.376244 -1.190046 0.112929
C 58.735149 -2.493032 0.300920
C 59.672342 -3.420483 0.293515
C 60.970275 -2.765645 0.102092
N 60.792475 -1.351413 -0.007068
C 62.155098 -3.407888 0.032138
C 62.186649 -4.885461 0.106073
C 62.665135 -5.521999 1.259120
C 62.704704 -6.917480 1.328620
C 62.269825 -7.698385 0.241230
N 62.309225 -9.135781 0.308296
O 61.934654 -9.895916 -0.775882
O 62.664720 -9.716454 1.356007
C 61.796166 -7.052355 -0.915703
C 61.756740 -5.656992 -0.982193
C 63.454649 -2.704411 -0.109665
C 64.727200 -3.386924 -0.375870
C 65.679591 -2.476443 -0.381749
N 63.620280 -1.426726 0.038750
C 65.021358 -1.202749 -0.120645
C 65.636244 -0.018510 0.024226
C 64.886373 1.231541 0.270679
C 65.422379 2.344769 0.754125
C 64.389836 3.363283 0.732012
C 63.294292 2.803488 0.232063
N 63.517684 1.429662 -0.081737
C 62.037084 3.533804 -0.061380
C 62.094264 5.008838 -0.211663
C 62.876946 5.582221 -1.223559
C 62.948410 6.971414 -1.359674
C 62.241475 7.812121 -0.482039
N 62.313396 9.242354 -0.627726
O 63.047806 9.805369 -1.646891
O 61.703984 9.994895 0.161371
C 61.465562 7.232519 0.538325
C 61.395880 5.843330 0.673836
C 60.864728 2.886165 -0.206043
C 59.586375 3.494974 -0.559772
C 58.697652 2.522368 -0.533165
C 59.397384 1.284805 -0.170443
N 60.664234 1.489757 0.018703
H 57.679727 -2.694318 0.427034
H 59.486682 -4.479346 0.418242
H 63.003955 -4.937105 2.105087
H 63.078785 -7.385503 2.231318
H 61.456356 -7.625297 -1.769362
H 61.393376 -5.176446 -1.881766
H 64.879051 -4.446183 -0.537690
H 66.731590 -2.668328 -0.546276
H 66.445959 2.484002 1.075361
H 64.506248 4.396790 1.031438
H 63.428797 4.951872 -1.910101
H 63.557702 7.387432 -2.151303
H 60.913550 7.853002 1.232647
H 60.799697 5.416636 1.470953
H 59.381209 4.528391 -0.807601
H 57.645455 2.640020 -0.754692
Co 75.011323 0.061060 -0.038610
C 71.644128 -0.018510 0.024226
C 72.300247 -1.190046 0.112929
C 71.659152 -2.493032 0.300920
C 72.596345 -3.420483 0.293515
C 73.894278 -2.765645 0.102092
N 73.716478 -1.351413 -0.007068
C 75.079101 -3.407888 0.032138
C 75.110652 -4.885461 0.106073
C 75.589138 -5.521999 1.259120
C 75.628706 -6.917480 1.328620
C 75.193828 -7.698385 0.241230
N 75.233228 -9.135781 0.308296
O 74.858657 -9.895916 -0.775882
O 75.588722 -9.716454 1.356007
C 74.720169 -7.052355 -0.915703
C 74.680743 -5.656992 -0.982193
C 76.378652 -2.704411 -0.109665
C 77.651203 -3.386924 -0.375870
C 78.603594 -2.476443 -0.381749
N 76.544283 -1.426726 0.038750
C 77.945361 -1.202749 -0.120645
C 78.560246 -0.018510 0.024226
C 77.810375 1.231541 0.270679
C 78.346382 2.344769 0.754125
C 77.313839 3.363283 0.732012
C 76.218295 2.803488 0.232063
N 76.441687 1.429662 -0.081737
C 74.961087 3.533804 -0.061380
C 75.018267 5.008838 -0.211663
C 75.800948 5.582221 -1.223559
C 75.872413 6.971414 -1.359674
C 75.165478 7.812121 -0.482039
N 75.237399 9.242354 -0.627726
O 75.971809 9.805369 -1.646891
O 74.627987 9.994895 0.161371
C 74.389565 7.232519 0.538325
C 74.319883 5.843330 0.673836
C 73.788731 2.886165 -0.206043
C 72.510377 3.494974 -0.559772
C 71.621655 2.522368 -0.533165
C 72.321387 1.284805 -0.170443
N 73.588236 1.489757 0.018703
H 70.603729 -2.694318 0.427034
H 72.410685 -4.479346 0.418242
H 75.927958 -4.937105 2.105087
H 76.002788 -7.385503 2.231318
H 74.380359 -7.625297 -1.769362
H 74.317378 -5.176446 -1.881766
H 77.803053 -4.446183 -0.537690
H 79.655593 -2.668328 -0.546276
H 79.369962 2.484002 1.075361
H 77.430251 4.396790 1.031438
H 76.352800 4.951872 -1.910101
H 76.481704 7.387432 -2.151303
H 73.837553 7.853002 1.232647
H 73.723700 5.416636 1.470953
H 72.305212 4.528391 -0.807601
H 70.569458 2.640020 -0.754692
