266

C 37.476802 -0.035612 -0.164776
C 38.209116 -1.400707 0.013053
C 37.609035 -2.638825 0.036822
C 38.632423 -3.591674 0.279269
C 39.822085 -2.900586 0.404002
N 39.559078 -1.571721 0.184798
C 41.239219 -3.512008 0.761558
C 41.272021 -4.898814 1.277394
C 41.573410 -5.963264 0.416743
C 41.598370 -7.273409 0.897580
C 41.317021 -7.512853 2.249795
N 41.340713 -8.887652 2.761171
O 41.610163 -9.801209 1.965544
O 41.087991 -9.067767 3.962724
C 41.012635 -6.456702 3.119645
C 40.991152 -5.150847 2.626870
C 42.370082 -2.766005 0.643931
C 43.669521 -3.278275 1.028993
C 44.572409 -2.325698 0.827642
N 42.569935 -1.484514 0.204955
C 43.898639 -1.159398 0.292441
C 44.567030 -0.017586 -0.020723
C 43.791400 1.225470 -0.627947
C 44.331485 2.214067 -1.426724
C 43.305548 3.154573 -1.694616
C 42.166347 2.708632 -1.059111
N 42.457350 1.505820 -0.460591
C 40.758232 3.435188 -1.038181
C 40.732505 4.898234 -1.246773
C 40.370977 5.429196 -2.492751
C 40.355731 6.810366 -2.693911
C 40.708740 7.660702 -1.637043
N 40.694527 9.113278 -1.841641
O 40.379981 9.541028 -2.963462
O 40.998592 9.840719 -0.883284
C 41.075423 7.141786 -0.387762
C 41.086299 5.758563 -0.199246
C 39.629737 2.716091 -0.807660
C 38.307353 3.315184 -0.762449
C 37.420137 2.351724 -0.532575
C 38.141492 1.108995 -0.409834
N 39.463538 1.380050 -0.574843
H 36.398123 -0.020684 -0.064095
H 36.554865 -2.832459 -0.089272
H 38.508115 -4.659334 0.376920
H 40.255094 -0.830677 0.155893
H 41.792478 -5.751132 -0.628621
H 41.838070 -8.079982 0.210409
H 40.793168 -6.624294 4.170369
H 40.759649 -4.313737 3.283730
H 43.880444 -4.255791 1.423548
H 45.622984 -2.426098 1.030833
H 45.353565 2.262411 -1.770736
H 43.391287 4.056720 -2.280919
H 41.774654 0.896429 -0.017708
H 40.097724 4.748037 -3.297309
H 40.067946 7.195623 -3.668032
H 41.352247 7.786148 0.441980
H 41.366867 5.332920 0.762986
H 38.076428 4.356994 -0.890382
H 36.355633 2.471603 -0.442699
C 100.737790 -0.076060 -0.153603
C 100.005476 1.186753 -0.701700
C 100.605557 2.261514 -1.316834
C 99.582169 3.203705 -1.597867
C 98.392507 2.674635 -1.136081
N 98.655514 1.421676 -0.642089
C 96.975373 3.382896 -1.143070
C 96.942571 4.837843 -1.412232
C 96.641182 5.309583 -2.697236
C 96.616222 6.680774 -2.957083
C 96.897571 7.580366 -1.919512
N 96.873879 9.022719 -2.186337
O 96.604429 9.398339 -3.338083
O 97.126601 9.794058 -1.247612
C 97.201957 7.120469 -0.630874
C 97.223440 5.746833 -0.383473
C 95.844510 2.682293 -0.861091
C 94.545071 3.319581 -0.793580
C 93.642183 2.398719 -0.477417
N 95.644657 1.357181 -0.580027
C 94.315953 1.123072 -0.338062
C 93.647562 -0.017586 -0.020723
C 94.423192 -1.396076 0.096221
C 93.883107 -2.654513 -0.081842
C 94.909044 -3.599171 0.171019
C 96.048245 -2.890254 0.487509
N 95.757242 -1.550769 0.383752
C 97.456360 -3.503044 0.878416
C 97.482087 -4.865711 1.450391
C 97.843615 -5.960953 0.653630
C 97.858860 -7.249538 1.189956
C 97.505852 -7.436805 2.533449
N 97.520065 -8.788436 3.103477
O 97.834611 -9.731370 2.360290
O 97.216000 -8.920801 4.299343
C 97.139169 -6.350206 3.339227
C 97.128293 -5.066349 2.790996
C 98.584855 -2.767583 0.707135
C 99.907239 -3.258522 1.053453
C 100.794455 -2.313680 0.756182
C 100.073100 -1.184158 0.223620
N 98.751054 -1.501479 0.221142
H 101.816469 -0.037191 -0.059535
H 101.659727 2.362968 -1.524441
H 99.706477 4.170101 -2.062098
H 97.959498 0.770871 -0.286514
H 96.422114 4.590939 -3.485485
H 96.376522 7.020252 -3.960835
H 97.421424 7.803640 0.184838
H 97.454943 5.365589 0.609941
H 94.334148 4.361019 -0.956734
H 92.591608 2.589182 -0.354573
H 92.861027 -2.872585 -0.352260
H 94.823305 -4.674352 0.130927
H 96.439938 -0.800453 0.451033
H 98.116868 -5.789362 -0.386488
H 98.146646 -8.080189 0.551714
H 96.862345 -6.477290 4.382070
H 96.847725 -4.207141 3.398304
H 100.138163 -4.218278 1.478426
H 101.858959 -2.370426 0.894849
C 46.763246 -0.002896 -0.010447
C 48.221472 -0.024733 -0.028320
C 49.355400 -0.045486 -0.029811
C 50.716782 -0.058076 -0.032002
C 51.991001 -0.047770 -0.036767
C 53.179463 -0.028972 -0.042923
C 54.531824 -0.004187 -0.027055
C 55.632091 -0.002896 -0.010447
C 64.610855 -0.002896 -0.010447
C 66.069081 -0.024733 -0.028320
C 67.203009 -0.045486 -0.029811
C 68.564391 -0.058076 -0.032002
C 69.838610 -0.047770 -0.036767
C 71.027072 -0.028972 -0.042923
C 72.379433 -0.004187 -0.027055
C 73.479700 -0.002896 -0.010447
C 82.458464 -0.002896 -0.010447
C 83.916690 -0.024733 -0.028320
C 85.050618 -0.045486 -0.029811
C 86.412000 -0.058076 -0.032002
C 87.686219 -0.047770 -0.036767
C 88.874681 -0.028972 -0.042923
C 90.227042 -0.004187 -0.027055
C 91.327309 -0.002896 -0.010447
C 56.603832 0.018459 0.023157
C 57.399535 1.254147 -0.567279
C 56.899768 2.516746 -0.812690
C 57.938737 3.273521 -1.412898
C 59.041168 2.450472 -1.509769
N 58.725841 1.251107 -0.922485
C 60.427464 2.809936 -2.181870
C 60.414929 3.798656 -3.282193
C 60.852490 5.111745 -3.058866
C 60.830152 6.049023 -4.093039
C 60.362000 5.664085 -5.356881
N 60.335505 6.644383 -6.447948
O 59.930651 6.269687 -7.559561
O 60.718504 7.799300 -6.203332
C 59.918074 4.355634 -5.591687
C 59.945883 3.427426 -4.549196
C 61.564294 2.183323 -1.781644
C 62.849593 2.434532 -2.400867
C 63.758965 1.673719 -1.801220
N 61.774503 1.243792 -0.811782
C 63.098722 0.898638 -0.770537
C 63.763139 0.018459 0.023157
C 62.967384 -0.799203 1.121707
C 63.466886 -1.282894 2.313639
C 62.427936 -2.017946 2.940317
C 61.325780 -1.954912 2.113616
N 61.641249 -1.147670 1.049840
C 59.939568 -2.683863 2.336506
C 59.952149 -3.954341 3.094195
C 60.420140 -5.126068 2.484983
C 60.447937 -6.328146 3.194456
C 60.005105 -6.350120 4.523994
N 60.031638 -7.609902 5.275225
O 59.650277 -7.592511 6.456166
O 60.434890 -8.628600 4.692460
C 59.538012 -5.184136 5.146040
C 59.515609 -3.988484 4.426033
C 58.802727 -2.170235 1.798943
C 57.517426 -2.826259 1.926024
C 56.608036 -2.091054 1.295263
C 57.268277 -0.930191 0.733586
N 58.592508 -1.037307 1.064222
H 55.894907 2.851492 -0.603823
H 57.881518 4.296285 -1.753240
H 59.382511 0.498331 -0.737732
H 61.214192 5.386609 -2.069147
H 61.178669 7.058564 -3.894034
H 59.551111 4.040555 -6.564540
H 59.605361 2.405523 -4.709170
H 63.045906 3.110961 -3.212992
H 64.803195 1.648218 -2.054565
H 64.471551 -1.141956 2.682715
H 62.484981 -2.548742 3.878484
H 60.984689 -0.821599 0.346548
H 60.759819 -5.085929 1.451137
H 60.814060 -7.222057 2.697205
H 59.190368 -5.183598 6.175299
H 59.154678 -3.070276 4.887070
H 57.321113 -3.753600 2.433107
H 55.563791 -2.334678 1.221447
C 74.451441 0.018459 0.023157
C 75.247144 1.254147 -0.567279
C 74.747377 2.516746 -0.812690
C 75.786346 3.273521 -1.412898
C 76.888777 2.450472 -1.509769
N 76.573450 1.251107 -0.922485
C 78.275073 2.809936 -2.181870
C 78.262538 3.798656 -3.282193
C 78.700100 5.111745 -3.058866
C 78.677761 6.049023 -4.093039
C 78.209609 5.664085 -5.356881
N 78.183114 6.644383 -6.447948
O 77.778260 6.269687 -7.559561
O 78.566114 7.799300 -6.203332
C 77.765683 4.355634 -5.591687
C 77.793492 3.427426 -4.549196
C 79.411903 2.183323 -1.781644
C 80.697202 2.434532 -2.400867
C 81.606574 1.673719 -1.801220
N 79.622112 1.243792 -0.811782
C 80.946331 0.898638 -0.770537
C 81.610748 0.018459 0.023157
C 80.814993 -0.799203 1.121707
C 81.314495 -1.282894 2.313639
C 80.275545 -2.017946 2.940317
C 79.173389 -1.954912 2.113616
N 79.488858 -1.147670 1.049840
C 77.787177 -2.683863 2.336506
C 77.799758 -3.954341 3.094195
C 78.267749 -5.126068 2.484983
C 78.295546 -6.328146 3.194456
C 77.852714 -6.350120 4.523994
N 77.879247 -7.609902 5.275225
O 77.497886 -7.592511 6.456166
O 78.282499 -8.628600 4.692460
C 77.385621 -5.184136 5.146040
C 77.363218 -3.988484 4.426033
C 76.650336 -2.170235 1.798943
C 75.365035 -2.826259 1.926024
C 74.455646 -2.091054 1.295263
C 75.115886 -0.930191 0.733586
N 76.440117 -1.037307 1.064222
H 73.742516 2.851492 -0.603823
H 75.729127 4.296285 -1.753240
H 77.230120 0.498331 -0.737732
H 79.061801 5.386609 -2.069147
H 79.026278 7.058564 -3.894034
H 77.398720 4.040555 -6.564540
H 77.452970 2.405523 -4.709170
H 80.893515 3.110961 -3.212992
H 82.650804 1.648218 -2.054565
H 82.319160 -1.141956 2.682715
H 80.332590 -2.548742 3.878484
H 78.832298 -0.821599 0.346548
H 78.607428 -5.085929 1.451137
H 78.661669 -7.222057 2.697205
H 77.037977 -5.183598 6.175299
H 77.002287 -3.070276 4.887070
H 75.168722 -3.753600 2.433107
H 73.411400 -2.334678 1.221447
