 xtb: 6.5.1 (b24c23e)
          07302215453D

266301  0     0  0            999 V2000
   37.8561   -0.1223   -0.0976 C   0  0  0  0  0  0  0  0  0  0  0  0
   38.4748   -1.3272    0.2088 C   0  0  0  0  0  0  0  0  0  0  0  0
   37.8337   -2.5713    0.4678 C   0  0  0  0  0  0  0  0  0  0  0  0
   38.8020   -3.4941    0.7456 C   0  0  0  0  0  0  0  0  0  0  0  0
   40.0658   -2.8405    0.6739 C   0  0  0  0  0  0  0  0  0  0  0  0
   39.8184   -1.5409    0.3369 N   0  0  0  0  0  0  0  0  0  0  0  0
   41.3337   -3.3990    0.8740 C   0  0  0  0  0  0  0  0  0  0  0  0
   41.3756   -4.8280    1.2624 C   0  0  0  0  0  0  0  0  0  0  0  0
   42.0276   -5.7622    0.4517 C   0  0  0  0  0  0  0  0  0  0  0  0
   42.0658   -7.0977    0.8086 C   0  0  0  0  0  0  0  0  0  0  0  0
   41.4512   -7.5028    1.9901 C   0  0  0  0  0  0  0  0  0  0  0  0
   41.4892   -8.9036    2.3706 N   0  0  0  0  0  0  0  0  0  0  0  0
   42.0618   -9.6660    1.6350 O   0  0  0  0  0  0  0  0  0  0  0  0
   40.9463   -9.2171    3.3989 O   0  0  0  0  0  0  0  0  0  0  0  0
   40.7995   -6.5885    2.8128 C   0  0  0  0  0  0  0  0  0  0  0  0
   40.7617   -5.2564    2.4434 C   0  0  0  0  0  0  0  0  0  0  0  0
   42.5449   -2.7152    0.7376 C   0  0  0  0  0  0  0  0  0  0  0  0
   43.8448   -3.3034    1.0081 C   0  0  0  0  0  0  0  0  0  0  0  0
   44.7575   -2.3410    0.7631 C   0  0  0  0  0  0  0  0  0  0  0  0
   42.6888   -1.4156    0.3606 N   0  0  0  0  0  0  0  0  0  0  0  0
   44.0136   -1.1646    0.3557 C   0  0  0  0  0  0  0  0  0  0  0  0
   44.6418    0.0475    0.0039 C   0  0  0  0  0  0  0  0  0  0  0  0
   43.9968    1.2484   -0.3486 C   0  0  0  0  0  0  0  0  0  0  0  0
   44.6329    2.4637   -0.7154 C   0  0  0  0  0  0  0  0  0  0  0  0
   43.6596    3.3923   -0.9599 C   0  0  0  0  0  0  0  0  0  0  0  0
   42.3978    2.7725   -0.7414 C   0  0  0  0  0  0  0  0  0  0  0  0
   42.6533    1.4758   -0.3839 N   0  0  0  0  0  0  0  0  0  0  0  0
   41.1295    3.3456   -0.8930 C   0  0  0  0  0  0  0  0  0  0  0  0
   41.0851    4.7809   -1.2522 C   0  0  0  0  0  0  0  0  0  0  0  0
   40.4528    5.1969   -2.4285 C   0  0  0  0  0  0  0  0  0  0  0  0
   40.4063    6.5369   -2.7664 C   0  0  0  0  0  0  0  0  0  0  0  0
   40.9942    7.4720   -1.9191 C   0  0  0  0  0  0  0  0  0  0  0  0
   40.9464    8.8805   -2.2678 N   0  0  0  0  0  0  0  0  0  0  0  0
   40.3756    9.1847   -3.2838 O   0  0  0  0  0  0  0  0  0  0  0  0
   41.4784    9.6589   -1.5182 O   0  0  0  0  0  0  0  0  0  0  0  0
   41.6278    7.0797   -0.7433 C   0  0  0  0  0  0  0  0  0  0  0  0
   41.6726    5.7368   -0.4169 C   0  0  0  0  0  0  0  0  0  0  0  0
   39.9168    2.6657   -0.7303 C   0  0  0  0  0  0  0  0  0  0  0  0
   38.6055    3.2876   -0.8403 C   0  0  0  0  0  0  0  0  0  0  0  0
   37.7012    2.3122   -0.6231 C   0  0  0  0  0  0  0  0  0  0  0  0
   38.4582    1.0996   -0.3652 C   0  0  0  0  0  0  0  0  0  0  0  0
   39.7889    1.3528   -0.4283 N   0  0  0  0  0  0  0  0  0  0  0  0
   36.7714   -0.1466   -0.1224 H   0  0  0  0  0  0  0  0  0  0  0  0
   36.7674   -2.7278    0.4369 H   0  0  0  0  0  0  0  0  0  0  0  0
   38.6596   -4.5385    0.9709 H   0  0  0  0  0  0  0  0  0  0  0  0
   40.5376   -0.8385    0.2001 H   0  0  0  0  0  0  0  0  0  0  0  0
   42.4915   -5.4363   -0.4718 H   0  0  0  0  0  0  0  0  0  0  0  0
   42.5628   -7.8298    0.1837 H   0  0  0  0  0  0  0  0  0  0  0  0
   40.3333   -6.9283    3.7298 H   0  0  0  0  0  0  0  0  0  0  0  0
   40.2690   -4.5331    3.0826 H   0  0  0  0  0  0  0  0  0  0  0  0
   44.0142   -4.3106    1.3525 H   0  0  0  0  0  0  0  0  0  0  0  0
   45.8306   -2.3936    0.8517 H   0  0  0  0  0  0  0  0  0  0  0  0
   45.7000    2.5993   -0.7856 H   0  0  0  0  0  0  0  0  0  0  0  0
   43.8010    4.4129   -1.2759 H   0  0  0  0  0  0  0  0  0  0  0  0
   41.9355    0.7872   -0.1831 H   0  0  0  0  0  0  0  0  0  0  0  0
   40.0118    4.4583   -3.0876 H   0  0  0  0  0  0  0  0  0  0  0  0
   39.9235    6.8673   -3.6782 H   0  0  0  0  0  0  0  0  0  0  0  0
   42.0736    7.8273   -0.0983 H   0  0  0  0  0  0  0  0  0  0  0  0
   42.1491    5.4214    0.5040 H   0  0  0  0  0  0  0  0  0  0  0  0
   38.4255    4.3313   -1.0413 H   0  0  0  0  0  0  0  0  0  0  0  0
   36.6247    2.3778   -0.6200 H   0  0  0  0  0  0  0  0  0  0  0  0
  100.3665    0.0318   -0.1526 C   0  0  0  0  0  0  0  0  0  0  0  0
   99.7503    1.2244   -0.5083 C   0  0  0  0  0  0  0  0  0  0  0  0
  100.3938    2.4231   -0.9264 C   0  0  0  0  0  0  0  0  0  0  0  0
   99.4276    3.3601   -1.1603 C   0  0  0  0  0  0  0  0  0  0  0  0
   98.1627    2.7655   -0.8845 C   0  0  0  0  0  0  0  0  0  0  0  0
   98.4073    1.4769   -0.5060 N   0  0  0  0  0  0  0  0  0  0  0  0
   96.8961    3.3503   -1.0009 C   0  0  0  0  0  0  0  0  0  0  0  0
   96.8590    4.7763   -1.4011 C   0  0  0  0  0  0  0  0  0  0  0  0
   96.2136    5.1646   -2.5791 C   0  0  0  0  0  0  0  0  0  0  0  0
   96.1810    6.4944   -2.9573 C   0  0  0  0  0  0  0  0  0  0  0  0
   96.7942    7.4462   -2.1474 C   0  0  0  0  0  0  0  0  0  0  0  0
   96.7617    8.8442   -2.5386 N   0  0  0  0  0  0  0  0  0  0  0  0
   96.1968    9.1232   -3.5647 O   0  0  0  0  0  0  0  0  0  0  0  0
   97.3023    9.6390   -1.8130 O   0  0  0  0  0  0  0  0  0  0  0  0
   97.4393    7.0811   -0.9693 C   0  0  0  0  0  0  0  0  0  0  0  0
   97.4718    5.7478   -0.6037 C   0  0  0  0  0  0  0  0  0  0  0  0
   95.6832    2.6965   -0.7681 C   0  0  0  0  0  0  0  0  0  0  0  0
   94.3844    3.3417   -0.8452 C   0  0  0  0  0  0  0  0  0  0  0  0
   93.4695    2.3928   -0.5593 C   0  0  0  0  0  0  0  0  0  0  0  0
   95.5364    1.3896   -0.4181 N   0  0  0  0  0  0  0  0  0  0  0  0
   94.2109    1.1745   -0.2953 C   0  0  0  0  0  0  0  0  0  0  0  0
   93.5803   -0.0417    0.0373 C   0  0  0  0  0  0  0  0  0  0  0  0
   94.2228   -1.2513    0.3633 C   0  0  0  0  0  0  0  0  0  0  0  0
   93.5840   -2.4784    0.6833 C   0  0  0  0  0  0  0  0  0  0  0  0
   94.5554   -3.4024    0.9518 C   0  0  0  0  0  0  0  0  0  0  0  0
   95.8188   -2.7635    0.8112 C   0  0  0  0  0  0  0  0  0  0  0  0
   95.5660   -1.4684    0.4461 N   0  0  0  0  0  0  0  0  0  0  0  0
   97.0858   -3.3371    0.9709 C   0  0  0  0  0  0  0  0  0  0  0  0
   97.1274   -4.7525    1.4020 C   0  0  0  0  0  0  0  0  0  0  0  0
   97.7518   -5.7166    0.6037 C   0  0  0  0  0  0  0  0  0  0  0  0
   97.7949   -7.0399    1.0022 C   0  0  0  0  0  0  0  0  0  0  0  0
   97.2114   -7.4042    2.2126 C   0  0  0  0  0  0  0  0  0  0  0  0
   97.2552   -8.7918    2.6369 N   0  0  0  0  0  0  0  0  0  0  0  0
   97.8153   -9.5781    1.9165 O   0  0  0  0  0  0  0  0  0  0  0  0
   96.7286   -9.0720    3.6833 O   0  0  0  0  0  0  0  0  0  0  0  0
   96.5860   -6.4606    3.0228 C   0  0  0  0  0  0  0  0  0  0  0  0
   96.5447   -5.1407    2.6129 C   0  0  0  0  0  0  0  0  0  0  0  0
   98.3000   -2.6754    0.7528 C   0  0  0  0  0  0  0  0  0  0  0  0
   99.6101   -3.2698    0.9734 C   0  0  0  0  0  0  0  0  0  0  0  0
  100.5164   -2.3257    0.6517 C   0  0  0  0  0  0  0  0  0  0  0  0
   99.7620   -1.1511    0.2503 C   0  0  0  0  0  0  0  0  0  0  0  0
   98.4306   -1.3956    0.3329 N   0  0  0  0  0  0  0  0  0  0  0  0
  101.4511    0.0364   -0.1900 H   0  0  0  0  0  0  0  0  0  0  0  0
  101.4603    2.5387   -1.0351 H   0  0  0  0  0  0  0  0  0  0  0  0
   99.5720    4.3716   -1.5035 H   0  0  0  0  0  0  0  0  0  0  0  0
   97.6869    0.8059   -0.2613 H   0  0  0  0  0  0  0  0  0  0  0  0
   95.7506    4.4126   -3.2072 H   0  0  0  0  0  0  0  0  0  0  0  0
   95.6893    6.8041   -3.8715 H   0  0  0  0  0  0  0  0  0  0  0  0
   97.9047    7.8415   -0.3539 H   0  0  0  0  0  0  0  0  0  0  0  0
   97.9596    5.4528    0.3180 H   0  0  0  0  0  0  0  0  0  0  0  0
   94.2172    4.3817   -1.0733 H   0  0  0  0  0  0  0  0  0  0  0  0
   92.3963    2.4851   -0.5142 H   0  0  0  0  0  0  0  0  0  0  0  0
   92.5164   -2.6273    0.6982 H   0  0  0  0  0  0  0  0  0  0  0  0
   94.4115   -4.4384    1.2114 H   0  0  0  0  0  0  0  0  0  0  0  0
   96.2853   -0.7781    0.2567 H   0  0  0  0  0  0  0  0  0  0  0  0
   98.1894   -5.4236   -0.3435 H   0  0  0  0  0  0  0  0  0  0  0  0
   98.2715   -7.7940    0.3875 H   0  0  0  0  0  0  0  0  0  0  0  0
   96.1436   -6.7686    3.9626 H   0  0  0  0  0  0  0  0  0  0  0  0
   96.0746   -4.3948    3.2432 H   0  0  0  0  0  0  0  0  0  0  0  0
   99.7881   -4.2680    1.3394 H   0  0  0  0  0  0  0  0  0  0  0  0
  101.5929   -2.3841    0.6834 H   0  0  0  0  0  0  0  0  0  0  0  0
   46.0470    0.0724    0.0026 C   0  0  0  0  0  0  0  0  0  0  0  0
   47.2717    0.0858   -0.0040 C   0  0  0  0  0  0  0  0  0  0  0  0
   48.6138    0.0929   -0.0144 C   0  0  0  0  0  0  0  0  0  0  0  0
   49.8447    0.0907   -0.0247 C   0  0  0  0  0  0  0  0  0  0  0  0
   51.1819    0.0850   -0.0380 C   0  0  0  0  0  0  0  0  0  0  0  0
   52.4128    0.0726   -0.0510 C   0  0  0  0  0  0  0  0  0  0  0  0
   53.7546    0.0592   -0.0642 C   0  0  0  0  0  0  0  0  0  0  0  0
   54.9795    0.0386   -0.0703 C   0  0  0  0  0  0  0  0  0  0  0  0
   64.6446    0.0321    0.0304 C   0  0  0  0  0  0  0  0  0  0  0  0
   65.8694    0.0437    0.0528 C   0  0  0  0  0  0  0  0  0  0  0  0
   67.2108    0.0546    0.0690 C   0  0  0  0  0  0  0  0  0  0  0  0
   68.4419    0.0622    0.0761 C   0  0  0  0  0  0  0  0  0  0  0  0
   69.7788    0.0628    0.0770 C   0  0  0  0  0  0  0  0  0  0  0  0
   71.0099    0.0583    0.0707 C   0  0  0  0  0  0  0  0  0  0  0  0
   72.3513    0.0467    0.0582 C   0  0  0  0  0  0  0  0  0  0  0  0
   73.5762    0.0262    0.0424 C   0  0  0  0  0  0  0  0  0  0  0  0
   83.2421   -0.1059   -0.0244 C   0  0  0  0  0  0  0  0  0  0  0  0
   84.4670   -0.1080   -0.0089 C   0  0  0  0  0  0  0  0  0  0  0  0
   85.8089   -0.1064    0.0060 C   0  0  0  0  0  0  0  0  0  0  0  0
   87.0398   -0.1003    0.0218 C   0  0  0  0  0  0  0  0  0  0  0  0
   88.3772   -0.0950    0.0348 C   0  0  0  0  0  0  0  0  0  0  0  0
   89.6080   -0.0863    0.0446 C   0  0  0  0  0  0  0  0  0  0  0  0
   90.9503   -0.0756    0.0489 C   0  0  0  0  0  0  0  0  0  0  0  0
   92.1750   -0.0609    0.0494 C   0  0  0  0  0  0  0  0  0  0  0  0
   56.3836    0.0220   -0.0782 C   0  0  0  0  0  0  0  0  0  0  0  0
   57.0182    1.0159   -0.8486 C   0  0  0  0  0  0  0  0  0  0  0  0
   56.3765    2.0323   -1.6023 C   0  0  0  0  0  0  0  0  0  0  0  0
   57.3460    2.7684   -2.2268 C   0  0  0  0  0  0  0  0  0  0  0  0
   58.6084    2.2166   -1.8764 C   0  0  0  0  0  0  0  0  0  0  0  0
   58.3601    1.1671   -1.0339 N   0  0  0  0  0  0  0  0  0  0  0  0
   59.8729    2.6640   -2.2808 C   0  0  0  0  0  0  0  0  0  0  0  0
   59.8973    3.7965   -3.2363 C   0  0  0  0  0  0  0  0  0  0  0  0
   60.5189    5.0001   -2.8891 C   0  0  0  0  0  0  0  0  0  0  0  0
   60.5486    6.0584   -3.7787 C   0  0  0  0  0  0  0  0  0  0  0  0
   59.9552    5.9111   -5.0292 C   0  0  0  0  0  0  0  0  0  0  0  0
   59.9875    7.0175   -5.9693 N   0  0  0  0  0  0  0  0  0  0  0  0
   59.4553    6.8569   -7.0377 O   0  0  0  0  0  0  0  0  0  0  0  0
   60.5449    8.0272   -5.6230 O   0  0  0  0  0  0  0  0  0  0  0  0
   59.3314    4.7216   -5.3946 C   0  0  0  0  0  0  0  0  0  0  0  0
   59.3024    3.6712   -4.4955 C   0  0  0  0  0  0  0  0  0  0  0  0
   61.0954    2.1361   -1.8608 C   0  0  0  0  0  0  0  0  0  0  0  0
   62.3860    2.5929   -2.3457 C   0  0  0  0  0  0  0  0  0  0  0  0
   63.3169    1.8576   -1.7038 C   0  0  0  0  0  0  0  0  0  0  0  0
   61.2630    1.1260   -0.9639 N   0  0  0  0  0  0  0  0  0  0  0  0
   62.5934    0.9453   -0.8401 C   0  0  0  0  0  0  0  0  0  0  0  0
   63.2410    0.0185    0.0016 C   0  0  0  0  0  0  0  0  0  0  0  0
   62.6059   -0.9377    0.8177 C   0  0  0  0  0  0  0  0  0  0  0  0
   63.2464   -1.8669    1.6774 C   0  0  0  0  0  0  0  0  0  0  0  0
   62.2774   -2.6335    2.2646 C   0  0  0  0  0  0  0  0  0  0  0  0
   61.0165   -2.1978    1.7730 C   0  0  0  0  0  0  0  0  0  0  0  0
   61.2651   -1.1639    0.9114 N   0  0  0  0  0  0  0  0  0  0  0  0
   59.7530   -2.6978    2.1135 C   0  0  0  0  0  0  0  0  0  0  0  0
   59.7327   -3.8568    3.0368 C   0  0  0  0  0  0  0  0  0  0  0  0
   60.3545   -5.0565    2.6766 C   0  0  0  0  0  0  0  0  0  0  0  0
   60.3386   -6.1420    3.5332 C   0  0  0  0  0  0  0  0  0  0  0  0
   59.7001   -6.0255    4.7646 C   0  0  0  0  0  0  0  0  0  0  0  0
   59.6851   -7.1608    5.6702 N   0  0  0  0  0  0  0  0  0  0  0  0
   59.1160   -7.0266    6.7230 O   0  0  0  0  0  0  0  0  0  0  0  0
   60.2443   -8.1659    5.3132 O   0  0  0  0  0  0  0  0  0  0  0  0
   59.0773   -4.8397    5.1435 C   0  0  0  0  0  0  0  0  0  0  0  0
   59.0943   -3.7619    4.2773 C   0  0  0  0  0  0  0  0  0  0  0  0
   58.5307   -2.1974    1.6601 C   0  0  0  0  0  0  0  0  0  0  0  0
   57.2418   -2.7768    1.9953 C   0  0  0  0  0  0  0  0  0  0  0  0
   56.3105   -2.0133    1.3878 C   0  0  0  0  0  0  0  0  0  0  0  0
   57.0322   -0.9796    0.6722 C   0  0  0  0  0  0  0  0  0  0  0  0
   58.3622   -1.1220    0.8429 N   0  0  0  0  0  0  0  0  0  0  0  0
   55.3096    2.1773   -1.6522 H   0  0  0  0  0  0  0  0  0  0  0  0
   57.2008    3.6248   -2.8647 H   0  0  0  0  0  0  0  0  0  0  0  0
   59.0775    0.5908   -0.6067 H   0  0  0  0  0  0  0  0  0  0  0  0
   60.9670    5.1060   -1.9082 H   0  0  0  0  0  0  0  0  0  0  0  0
   61.0236    6.9962   -3.5168 H   0  0  0  0  0  0  0  0  0  0  0  0
   58.8807    4.6308   -6.3756 H   0  0  0  0  0  0  0  0  0  0  0  0
   58.8324    2.7352   -4.7741 H   0  0  0  0  0  0  0  0  0  0  0  0
   62.5382    3.3605   -3.0867 H   0  0  0  0  0  0  0  0  0  0  0  0
   64.3901    1.9013   -1.7957 H   0  0  0  0  0  0  0  0  0  0  0  0
   64.3121   -1.9311    1.8254 H   0  0  0  0  0  0  0  0  0  0  0  0
   62.4218   -3.4234    2.9834 H   0  0  0  0  0  0  0  0  0  0  0  0
   60.5486   -0.6414    0.4185 H   0  0  0  0  0  0  0  0  0  0  0  0
   60.8369   -5.1392    1.7096 H   0  0  0  0  0  0  0  0  0  0  0  0
   60.8118   -7.0774    3.2597 H   0  0  0  0  0  0  0  0  0  0  0  0
   58.5908   -4.7736    6.1092 H   0  0  0  0  0  0  0  0  0  0  0  0
   58.6245   -2.8291    4.5661 H   0  0  0  0  0  0  0  0  0  0  0  0
   57.0914   -3.6556    2.6010 H   0  0  0  0  0  0  0  0  0  0  0  0
   55.2382   -2.1237    1.3982 H   0  0  0  0  0  0  0  0  0  0  0  0
   74.9797    0.0005    0.0213 C   0  0  0  0  0  0  0  0  0  0  0  0
   75.6137    0.9862   -0.7599 C   0  0  0  0  0  0  0  0  0  0  0  0
   74.9721    2.0110   -1.5022 C   0  0  0  0  0  0  0  0  0  0  0  0
   75.9401    2.7361   -2.1413 C   0  0  0  0  0  0  0  0  0  0  0  0
   77.2014    2.1684   -1.8124 C   0  0  0  0  0  0  0  0  0  0  0  0
   76.9541    1.1216   -0.9662 N   0  0  0  0  0  0  0  0  0  0  0  0
   78.4640    2.5999   -2.2391 C   0  0  0  0  0  0  0  0  0  0  0  0
   78.4812    3.7311   -3.1965 C   0  0  0  0  0  0  0  0  0  0  0  0
   79.1166    4.9314   -2.8639 C   0  0  0  0  0  0  0  0  0  0  0  0
   79.1298    5.9898   -3.7540 C   0  0  0  0  0  0  0  0  0  0  0  0
   78.5064    5.8455   -4.9902 C   0  0  0  0  0  0  0  0  0  0  0  0
   78.5175    6.9534   -5.9291 N   0  0  0  0  0  0  0  0  0  0  0  0
   77.9589    6.7954   -6.9842 O   0  0  0  0  0  0  0  0  0  0  0  0
   79.0837    7.9622   -5.5944 O   0  0  0  0  0  0  0  0  0  0  0  0
   77.8710    4.6581   -5.3421 C   0  0  0  0  0  0  0  0  0  0  0  0
   77.8588    3.6078   -4.4427 C   0  0  0  0  0  0  0  0  0  0  0  0
   79.6872    2.0562   -1.8415 C   0  0  0  0  0  0  0  0  0  0  0  0
   80.9749    2.4998   -2.3460 C   0  0  0  0  0  0  0  0  0  0  0  0
   81.9075    1.7494   -1.7243 C   0  0  0  0  0  0  0  0  0  0  0  0
   79.8576    1.0395   -0.9528 N   0  0  0  0  0  0  0  0  0  0  0  0
   81.1877    0.8407   -0.8536 C   0  0  0  0  0  0  0  0  0  0  0  0
   81.8377   -0.1020   -0.0318 C   0  0  0  0  0  0  0  0  0  0  0  0
   81.2046   -1.0556    0.7891 C   0  0  0  0  0  0  0  0  0  0  0  0
   81.8483   -2.0017    1.6279 C   0  0  0  0  0  0  0  0  0  0  0  0
   80.8798   -2.7523    2.2361 C   0  0  0  0  0  0  0  0  0  0  0  0
   79.6157   -2.2896    1.7790 C   0  0  0  0  0  0  0  0  0  0  0  0
   79.8624   -1.2577    0.9144 N   0  0  0  0  0  0  0  0  0  0  0  0
   78.3516   -2.7640    2.1525 C   0  0  0  0  0  0  0  0  0  0  0  0
   78.3284   -3.9204    3.0791 C   0  0  0  0  0  0  0  0  0  0  0  0
   78.9104   -5.1361    2.7070 C   0  0  0  0  0  0  0  0  0  0  0  0
   78.8834   -6.2204    3.5650 C   0  0  0  0  0  0  0  0  0  0  0  0
   78.2744   -6.0865    4.8094 C   0  0  0  0  0  0  0  0  0  0  0  0
   78.2447   -7.2215    5.7148 N   0  0  0  0  0  0  0  0  0  0  0  0
   77.6994   -7.0724    6.7781 O   0  0  0  0  0  0  0  0  0  0  0  0
   78.7673   -8.2422    5.3466 O   0  0  0  0  0  0  0  0  0  0  0  0
   77.6934   -4.8837    5.2011 C   0  0  0  0  0  0  0  0  0  0  0  0
   77.7212   -3.8072    4.3336 C   0  0  0  0  0  0  0  0  0  0  0  0
   77.1281   -2.2417    1.7280 C   0  0  0  0  0  0  0  0  0  0  0  0
   75.8376   -2.7993    2.0932 C   0  0  0  0  0  0  0  0  0  0  0  0
   74.9058   -2.0247    1.5009 C   0  0  0  0  0  0  0  0  0  0  0  0
   75.6284   -1.0050    0.7662 C   0  0  0  0  0  0  0  0  0  0  0  0
   76.9592   -1.1664    0.9108 N   0  0  0  0  0  0  0  0  0  0  0  0
   73.9063    2.1692   -1.5340 H   0  0  0  0  0  0  0  0  0  0  0  0
   75.7948    3.5954   -2.7752 H   0  0  0  0  0  0  0  0  0  0  0  0
   77.6711    0.5354   -0.5520 H   0  0  0  0  0  0  0  0  0  0  0  0
   79.5870    5.0357   -1.8933 H   0  0  0  0  0  0  0  0  0  0  0  0
   79.6138    6.9259   -3.5028 H   0  0  0  0  0  0  0  0  0  0  0  0
   77.3971    4.5694   -6.3123 H   0  0  0  0  0  0  0  0  0  0  0  0
   77.3785    2.6738   -4.7102 H   0  0  0  0  0  0  0  0  0  0  0  0
   81.1237    3.2703   -3.0847 H   0  0  0  0  0  0  0  0  0  0  0  0
   82.9795    1.7802   -1.8343 H   0  0  0  0  0  0  0  0  0  0  0  0
   82.9160   -2.0875    1.7484 H   0  0  0  0  0  0  0  0  0  0  0  0
   81.0269   -3.5486    2.9472 H   0  0  0  0  0  0  0  0  0  0  0  0
   79.1439   -0.7189    0.4426 H   0  0  0  0  0  0  0  0  0  0  0  0
   79.3688   -5.2326    1.7297 H   0  0  0  0  0  0  0  0  0  0  0  0
   79.3245   -7.1687    3.2821 H   0  0  0  0  0  0  0  0  0  0  0  0
   77.2297   -4.8040    6.1769 H   0  0  0  0  0  0  0  0  0  0  0  0
   77.2828   -2.8619    4.6313 H   0  0  0  0  0  0  0  0  0  0  0  0
   75.6861   -3.6729    2.7059 H   0  0  0  0  0  0  0  0  0  0  0  0
   73.8324   -2.1185    1.5340 H   0  0  0  0  0  0  0  0  0  0  0  0
  1  2  4  0  0  0  0
  2  3  4  0  0  0  0
  3  4  2  0  0  0  0
  4  5  4  0  0  0  0
  2  6  4  0  0  0  0
  5  6  4  0  0  0  0
  5  7  4  0  0  0  0
  7  8  1  0  0  0  0
  8  9  4  0  0  0  0
  9 10  4  0  0  0  0
 10 11  4  0  0  0  0
 11 12  1  0  0  0  0
 12 13  2  0  0  0  0
 12 14  2  0  0  0  0
 13 14  1  0  0  0  0
 11 15  4  0  0  0  0
  8 16  4  0  0  0  0
 15 16  4  0  0  0  0
  7 17  4  0  0  0  0
 17 18  1  0  0  0  0
 18 19  2  0  0  0  0
 17 20  4  0  0  0  0
 19 21  1  0  0  0  0
 20 21  4  0  0  0  0
 21 22  4  0  0  0  0
 22 23  4  0  0  0  0
 23 24  4  0  0  0  0
 24 25  2  0  0  0  0
 25 26  4  0  0  0  0
 23 27  4  0  0  0  0
 26 27  4  0  0  0  0
 26 28  4  0  0  0  0
 28 29  1  0  0  0  0
 29 30  4  0  0  0  0
 30 31  4  0  0  0  0
 31 32  4  0  0  0  0
 32 33  1  0  0  0  0
 33 34  2  0  0  0  0
 33 35  2  0  0  0  0
 34 35  1  0  0  0  0
 32 36  4  0  0  0  0
 29 37  4  0  0  0  0
 36 37  4  0  0  0  0
 28 38  4  0  0  0  0
 38 39  1  0  0  0  0
 39 40  2  0  0  0  0
  1 41  4  0  0  0  0
 40 41  1  0  0  0  0
 38 42  4  0  0  0  0
 41 42  4  0  0  0  0
  1 43  1  0  0  0  0
  3 44  1  0  0  0  0
  4 45  1  0  0  0  0
  6 46  1  0  0  0  0
  9 47  1  0  0  0  0
 10 48  1  0  0  0  0
 15 49  1  0  0  0  0
 16 50  1  0  0  0  0
 18 51  1  0  0  0  0
 19 52  1  0  0  0  0
 24 53  1  0  0  0  0
 25 54  1  0  0  0  0
 27 55  1  0  0  0  0
 30 56  1  0  0  0  0
 31 57  1  0  0  0  0
 36 58  1  0  0  0  0
 37 59  1  0  0  0  0
 39 60  1  0  0  0  0
 40 61  1  0  0  0  0
 62 63  4  0  0  0  0
 63 64  4  0  0  0  0
 64 65  2  0  0  0  0
 65 66  4  0  0  0  0
 63 67  4  0  0  0  0
 66 67  4  0  0  0  0
 66 68  4  0  0  0  0
 68 69  1  0  0  0  0
 69 70  4  0  0  0  0
 70 71  4  0  0  0  0
 71 72  4  0  0  0  0
 72 73  1  0  0  0  0
 73 74  2  0  0  0  0
 73 75  2  0  0  0  0
 74 75  1  0  0  0  0
 72 76  4  0  0  0  0
 69 77  4  0  0  0  0
 76 77  4  0  0  0  0
 68 78  4  0  0  0  0
 78 79  1  0  0  0  0
 79 80  2  0  0  0  0
 78 81  4  0  0  0  0
 80 82  1  0  0  0  0
 81 82  4  0  0  0  0
 82 83  4  0  0  0  0
 83 84  4  0  0  0  0
 84 85  4  0  0  0  0
 85 86  2  0  0  0  0
 86 87  4  0  0  0  0
 84 88  4  0  0  0  0
 87 88  4  0  0  0  0
 87 89  4  0  0  0  0
 89 90  1  0  0  0  0
 90 91  4  0  0  0  0
 91 92  4  0  0  0  0
 92 93  4  0  0  0  0
 93 94  1  0  0  0  0
 94 95  2  0  0  0  0
 94 96  2  0  0  0  0
 95 96  1  0  0  0  0
 93 97  4  0  0  0  0
 90 98  4  0  0  0  0
 97 98  4  0  0  0  0
 89 99  4  0  0  0  0
 99100  1  0  0  0  0
100101  2  0  0  0  0
 62102  4  0  0  0  0
101102  1  0  0  0  0
 99103  4  0  0  0  0
102103  4  0  0  0  0
 62104  1  0  0  0  0
 64105  1  0  0  0  0
 65106  1  0  0  0  0
 67107  1  0  0  0  0
 70108  1  0  0  0  0
 71109  1  0  0  0  0
 76110  1  0  0  0  0
 77111  1  0  0  0  0
 79112  1  0  0  0  0
 80113  1  0  0  0  0
 85114  1  0  0  0  0
 86115  1  0  0  0  0
 88116  1  0  0  0  0
 91117  1  0  0  0  0
 92118  1  0  0  0  0
 97119  1  0  0  0  0
 98120  1  0  0  0  0
100121  1  0  0  0  0
101122  1  0  0  0  0
 22123  4  0  0  0  0
123124  3  0  0  0  0
124125  4  0  0  0  0
125126  3  0  0  0  0
126127  4  0  0  0  0
127128  3  0  0  0  0
128129  4  0  0  0  0
129130  3  0  0  0  0
131132  3  0  0  0  0
132133  4  0  0  0  0
133134  3  0  0  0  0
134135  4  0  0  0  0
135136  3  0  0  0  0
136137  4  0  0  0  0
137138  3  0  0  0  0
139140  3  0  0  0  0
140141  4  0  0  0  0
141142  3  0  0  0  0
142143  4  0  0  0  0
143144  3  0  0  0  0
144145  4  0  0  0  0
 83146  4  0  0  0  0
145146  3  0  0  0  0
130147  4  0  0  0  0
147148  4  0  0  0  0
148149  4  0  0  0  0
149150  2  0  0  0  0
150151  4  0  0  0  0
148152  4  0  0  0  0
151152  4  0  0  0  0
151153  4  0  0  0  0
153154  1  0  0  0  0
154155  4  0  0  0  0
155156  4  0  0  0  0
156157  4  0  0  0  0
157158  1  0  0  0  0
158159  2  0  0  0  0
158160  2  0  0  0  0
159160  1  0  0  0  0
157161  4  0  0  0  0
154162  4  0  0  0  0
161162  4  0  0  0  0
153163  4  0  0  0  0
163164  1  0  0  0  0
164165  2  0  0  0  0
163166  4  0  0  0  0
165167  1  0  0  0  0
166167  4  0  0  0  0
131168  4  0  0  0  0
167168  4  0  0  0  0
168169  4  0  0  0  0
169170  4  0  0  0  0
170171  2  0  0  0  0
171172  4  0  0  0  0
169173  4  0  0  0  0
172173  4  0  0  0  0
172174  4  0  0  0  0
174175  1  0  0  0  0
175176  4  0  0  0  0
176177  4  0  0  0  0
177178  4  0  0  0  0
178179  1  0  0  0  0
179180  2  0  0  0  0
179181  2  0  0  0  0
180181  1  0  0  0  0
178182  4  0  0  0  0
175183  4  0  0  0  0
182183  4  0  0  0  0
174184  4  0  0  0  0
184185  1  0  0  0  0
185186  2  0  0  0  0
147187  4  0  0  0  0
186187  1  0  0  0  0
184188  4  0  0  0  0
187188  4  0  0  0  0
149189  1  0  0  0  0
150190  1  0  0  0  0
152191  1  0  0  0  0
155192  1  0  0  0  0
156193  1  0  0  0  0
161194  1  0  0  0  0
162195  1  0  0  0  0
164196  1  0  0  0  0
165197  1  0  0  0  0
170198  1  0  0  0  0
171199  1  0  0  0  0
173200  1  0  0  0  0
176201  1  0  0  0  0
177202  1  0  0  0  0
182203  1  0  0  0  0
183204  1  0  0  0  0
185205  1  0  0  0  0
186206  1  0  0  0  0
138207  4  0  0  0  0
207208  4  0  0  0  0
208209  4  0  0  0  0
209210  2  0  0  0  0
210211  4  0  0  0  0
208212  4  0  0  0  0
211212  4  0  0  0  0
211213  4  0  0  0  0
213214  1  0  0  0  0
214215  4  0  0  0  0
215216  4  0  0  0  0
216217  4  0  0  0  0
217218  1  0  0  0  0
218219  2  0  0  0  0
218220  2  0  0  0  0
219220  1  0  0  0  0
217221  4  0  0  0  0
214222  4  0  0  0  0
221222  4  0  0  0  0
213223  4  0  0  0  0
223224  1  0  0  0  0
224225  2  0  0  0  0
223226  4  0  0  0  0
225227  1  0  0  0  0
226227  4  0  0  0  0
139228  4  0  0  0  0
227228  4  0  0  0  0
228229  4  0  0  0  0
229230  4  0  0  0  0
230231  2  0  0  0  0
231232  4  0  0  0  0
229233  4  0  0  0  0
232233  4  0  0  0  0
232234  4  0  0  0  0
234235  1  0  0  0  0
235236  4  0  0  0  0
236237  4  0  0  0  0
237238  4  0  0  0  0
238239  1  0  0  0  0
239240  2  0  0  0  0
239241  2  0  0  0  0
240241  1  0  0  0  0
238242  4  0  0  0  0
235243  4  0  0  0  0
242243  4  0  0  0  0
234244  4  0  0  0  0
244245  1  0  0  0  0
245246  2  0  0  0  0
207247  4  0  0  0  0
246247  1  0  0  0  0
244248  4  0  0  0  0
247248  4  0  0  0  0
209249  1  0  0  0  0
210250  1  0  0  0  0
212251  1  0  0  0  0
215252  1  0  0  0  0
216253  1  0  0  0  0
221254  1  0  0  0  0
222255  1  0  0  0  0
224256  1  0  0  0  0
225257  1  0  0  0  0
230258  1  0  0  0  0
231259  1  0  0  0  0
233260  1  0  0  0  0
236261  1  0  0  0  0
237262  1  0  0  0  0
242263  1  0  0  0  0
243264  1  0  0  0  0
245265  1  0  0  0  0
246266  1  0  0  0  0
M  END
