 xtb: 6.5.1 (b24c23e)
          07302209203D

254293  0     0  0            999 V2000
   43.0782    0.0264    0.0514 Co  0  0  0  0  0  0  0  0  0  0  0  0
   39.7106    0.0305    0.1907 C   0  0  0  0  0  0  0  0  0  0  0  0
   40.3647    1.2407    0.0993 C   0  0  0  0  0  0  0  0  0  0  0  0
   39.7037    2.5075    0.0191 C   0  0  0  0  0  0  0  0  0  0  0  0
   40.6641    3.4549    0.1341 C   0  0  0  0  0  0  0  0  0  0  0  0
   41.9091    2.7643    0.3047 C   0  0  0  0  0  0  0  0  0  0  0  0
   41.7224    1.4091    0.2084 N   0  0  0  0  0  0  0  0  0  0  0  0
   43.1046    3.3782    0.6564 C   0  0  0  0  0  0  0  0  0  0  0  0
   43.1198    4.8348    0.9153 C   0  0  0  0  0  0  0  0  0  0  0  0
   42.3062    5.3881    1.9070 C   0  0  0  0  0  0  0  0  0  0  0  0
   42.3224    6.7491    2.1535 C   0  0  0  0  0  0  0  0  0  0  0  0
   43.1529    7.5874    1.4038 C   0  0  0  0  0  0  0  0  0  0  0  0
   43.1691    8.9889    1.6526 C   0  0  0  0  0  0  0  0  0  0  0  0
   43.1819   10.1223    1.8521 N   0  0  0  0  0  0  0  0  0  0  0  0
   43.9680    7.0389    0.4090 C   0  0  0  0  0  0  0  0  0  0  0  0
   43.9517    5.6762    0.1725 C   0  0  0  0  0  0  0  0  0  0  0  0
   44.2842    2.6596    0.7866 C   0  0  0  0  0  0  0  0  0  0  0  0
   45.5258    3.2183    1.2303 C   0  0  0  0  0  0  0  0  0  0  0  0
   46.4695    2.2616    1.0556 C   0  0  0  0  0  0  0  0  0  0  0  0
   44.4572    1.3479    0.4094 N   0  0  0  0  0  0  0  0  0  0  0  0
   45.8012    1.1224    0.5114 C   0  0  0  0  0  0  0  0  0  0  0  0
   46.4675    0.0033    0.0045 C   0  0  0  0  0  0  0  0  0  0  0  0
   45.7739   -1.0965   -0.5086 C   0  0  0  0  0  0  0  0  0  0  0  0
   46.4106   -2.2260   -1.1078 C   0  0  0  0  0  0  0  0  0  0  0  0
   45.4447   -3.1549   -1.3087 C   0  0  0  0  0  0  0  0  0  0  0  0
   44.2235   -2.5944   -0.8129 C   0  0  0  0  0  0  0  0  0  0  0  0
   44.4283   -1.3007   -0.3900 N   0  0  0  0  0  0  0  0  0  0  0  0
   43.0426   -3.3050   -0.6564 C   0  0  0  0  0  0  0  0  0  0  0  0
   43.0221   -4.7500   -0.9734 C   0  0  0  0  0  0  0  0  0  0  0  0
   42.1393   -5.2518   -1.9329 C   0  0  0  0  0  0  0  0  0  0  0  0
   42.1175   -6.6019   -2.2328 C   0  0  0  0  0  0  0  0  0  0  0  0
   42.9788   -7.4812   -1.5696 C   0  0  0  0  0  0  0  0  0  0  0  0
   42.9565   -8.8719   -1.8729 C   0  0  0  0  0  0  0  0  0  0  0  0
   42.9381   -9.9964   -2.1161 N   0  0  0  0  0  0  0  0  0  0  0  0
   43.8618   -6.9847   -0.6061 C   0  0  0  0  0  0  0  0  0  0  0  0
   43.8827   -5.6325   -0.3159 C   0  0  0  0  0  0  0  0  0  0  0  0
   41.8789   -2.6984   -0.1994 C   0  0  0  0  0  0  0  0  0  0  0  0
   40.6505   -3.3926    0.0555 C   0  0  0  0  0  0  0  0  0  0  0  0
   39.7113   -2.4491    0.3021 C   0  0  0  0  0  0  0  0  0  0  0  0
   40.3679   -1.1810    0.2044 C   0  0  0  0  0  0  0  0  0  0  0  0
   41.7090   -1.3481   -0.0374 N   0  0  0  0  0  0  0  0  0  0  0  0
   38.6283    0.0313    0.2430 H   0  0  0  0  0  0  0  0  0  0  0  0
   38.6401    2.6348   -0.1049 H   0  0  0  0  0  0  0  0  0  0  0  0
   40.5528    4.5268    0.1120 H   0  0  0  0  0  0  0  0  0  0  0  0
   41.6706    4.7399    2.4996 H   0  0  0  0  0  0  0  0  0  0  0  0
   41.6932    7.1702    2.9290 H   0  0  0  0  0  0  0  0  0  0  0  0
   44.6112    7.6861   -0.1758 H   0  0  0  0  0  0  0  0  0  0  0  0
   44.5765    5.2560   -0.6075 H   0  0  0  0  0  0  0  0  0  0  0  0
   45.6482    4.2141    1.6241 H   0  0  0  0  0  0  0  0  0  0  0  0
   47.5267    2.3110    1.2609 H   0  0  0  0  0  0  0  0  0  0  0  0
   47.4627   -2.2861   -1.3351 H   0  0  0  0  0  0  0  0  0  0  0  0
   45.5403   -4.1343   -1.7483 H   0  0  0  0  0  0  0  0  0  0  0  0
   41.4782   -4.5715   -2.4578 H   0  0  0  0  0  0  0  0  0  0  0  0
   41.4344   -6.9828   -2.9829 H   0  0  0  0  0  0  0  0  0  0  0  0
   44.5280   -7.6639   -0.0872 H   0  0  0  0  0  0  0  0  0  0  0  0
   44.5594   -5.2535    0.4416 H   0  0  0  0  0  0  0  0  0  0  0  0
   40.5356   -4.4644    0.0438 H   0  0  0  0  0  0  0  0  0  0  0  0
   38.6634   -2.5793    0.5208 H   0  0  0  0  0  0  0  0  0  0  0  0
   98.6250    0.0126    0.0784 Co  0  0  0  0  0  0  0  0  0  0  0  0
  101.9939    0.0122    0.1986 C   0  0  0  0  0  0  0  0  0  0  0  0
  101.3391   -1.2005    0.1738 C   0  0  0  0  0  0  0  0  0  0  0  0
  102.0005   -2.4697    0.1599 C   0  0  0  0  0  0  0  0  0  0  0  0
  101.0406   -3.4101    0.3238 C   0  0  0  0  0  0  0  0  0  0  0  0
   99.7951   -2.7124    0.4582 C   0  0  0  0  0  0  0  0  0  0  0  0
   99.9812   -1.3637    0.2899 N   0  0  0  0  0  0  0  0  0  0  0  0
   98.6004   -3.3084    0.8393 C   0  0  0  0  0  0  0  0  0  0  0  0
   98.5848   -4.7505    1.1702 C   0  0  0  0  0  0  0  0  0  0  0  0
   99.3976   -5.2540    2.1888 C   0  0  0  0  0  0  0  0  0  0  0  0
   99.3809   -6.6010    2.5027 C   0  0  0  0  0  0  0  0  0  0  0  0
   98.5503   -7.4754    1.7954 C   0  0  0  0  0  0  0  0  0  0  0  0
   98.5331   -8.8627    2.1136 C   0  0  0  0  0  0  0  0  0  0  0  0
   98.5199   -9.9843    2.3702 N   0  0  0  0  0  0  0  0  0  0  0  0
   97.7361   -6.9769    0.7740 C   0  0  0  0  0  0  0  0  0  0  0  0
   97.7532   -5.6276    0.4697 C   0  0  0  0  0  0  0  0  0  0  0  0
   97.4205   -2.5840    0.9338 C   0  0  0  0  0  0  0  0  0  0  0  0
   96.1798   -3.1203    1.4063 C   0  0  0  0  0  0  0  0  0  0  0  0
   95.2358   -2.1730    1.1878 C   0  0  0  0  0  0  0  0  0  0  0  0
   97.2470   -1.2928    0.4927 N   0  0  0  0  0  0  0  0  0  0  0  0
   95.9025   -1.0614    0.5877 C   0  0  0  0  0  0  0  0  0  0  0  0
   95.2355    0.0319    0.0310 C   0  0  0  0  0  0  0  0  0  0  0  0
   95.9267    1.1052   -0.5354 C   0  0  0  0  0  0  0  0  0  0  0  0
   95.2874    2.2054   -1.1843 C   0  0  0  0  0  0  0  0  0  0  0  0
   96.2529    3.1215   -1.4378 C   0  0  0  0  0  0  0  0  0  0  0  0
   97.4770    2.5843   -0.9241 C   0  0  0  0  0  0  0  0  0  0  0  0
   97.2744    1.3130   -0.4373 N   0  0  0  0  0  0  0  0  0  0  0  0
   98.6599    3.3004   -0.8139 C   0  0  0  0  0  0  0  0  0  0  0  0
   98.6806    4.7262   -1.2093 C   0  0  0  0  0  0  0  0  0  0  0  0
   99.5543    5.1710   -2.2045 C   0  0  0  0  0  0  0  0  0  0  0  0
   99.5759    6.5021   -2.5799 C   0  0  0  0  0  0  0  0  0  0  0  0
   98.7236    7.4195   -1.9580 C   0  0  0  0  0  0  0  0  0  0  0  0
   98.7455    8.7907   -2.3398 C   0  0  0  0  0  0  0  0  0  0  0  0
   98.7631    9.9000   -2.6453 N   0  0  0  0  0  0  0  0  0  0  0  0
   97.8505    6.9804   -0.9582 C   0  0  0  0  0  0  0  0  0  0  0  0
   97.8298    5.6466   -0.5924 C   0  0  0  0  0  0  0  0  0  0  0  0
   99.8251    2.7176   -0.3325 C   0  0  0  0  0  0  0  0  0  0  0  0
  101.0551    3.4232   -0.1207 C   0  0  0  0  0  0  0  0  0  0  0  0
  101.9945    2.4937    0.1737 C   0  0  0  0  0  0  0  0  0  0  0  0
  101.3368    1.2227    0.1476 C   0  0  0  0  0  0  0  0  0  0  0  0
   99.9952    1.3773   -0.0996 N   0  0  0  0  0  0  0  0  0  0  0  0
  103.0762    0.0138    0.2486 H   0  0  0  0  0  0  0  0  0  0  0  0
  103.0642   -2.6026    0.0431 H   0  0  0  0  0  0  0  0  0  0  0  0
  101.1524   -4.4817    0.3578 H   0  0  0  0  0  0  0  0  0  0  0  0
  100.0329   -4.5773    2.7489 H   0  0  0  0  0  0  0  0  0  0  0  0
  100.0096   -6.9831    3.2985 H   0  0  0  0  0  0  0  0  0  0  0  0
   97.0930   -7.6521    0.2218 H   0  0  0  0  0  0  0  0  0  0  0  0
   97.1288   -5.2467   -0.3306 H   0  0  0  0  0  0  0  0  0  0  0  0
   96.0583   -4.0957    1.8483 H   0  0  0  0  0  0  0  0  0  0  0  0
   94.1791   -2.2121    1.3979 H   0  0  0  0  0  0  0  0  0  0  0  0
   94.2336    2.2562   -1.4062 H   0  0  0  0  0  0  0  0  0  0  0  0
   96.1552    4.0786   -1.9238 H   0  0  0  0  0  0  0  0  0  0  0  0
  100.2081    4.4604   -2.6974 H   0  0  0  0  0  0  0  0  0  0  0  0
  100.2517    6.8384   -3.3575 H   0  0  0  0  0  0  0  0  0  0  0  0
   97.1920    7.6897   -0.4707 H   0  0  0  0  0  0  0  0  0  0  0  0
   97.1604    5.3125    0.1923 H   0  0  0  0  0  0  0  0  0  0  0  0
  101.1705    4.4927   -0.1914 H   0  0  0  0  0  0  0  0  0  0  0  0
  103.0432    2.6347    0.3815 H   0  0  0  0  0  0  0  0  0  0  0  0
   47.8689   -0.0099   -0.0014 C   0  0  0  0  0  0  0  0  0  0  0  0
   49.0941   -0.0189   -0.0027 C   0  0  0  0  0  0  0  0  0  0  0  0
   50.4348   -0.0251   -0.0062 C   0  0  0  0  0  0  0  0  0  0  0  0
   51.6666   -0.0265   -0.0094 C   0  0  0  0  0  0  0  0  0  0  0  0
   53.0022   -0.0251   -0.0112 C   0  0  0  0  0  0  0  0  0  0  0  0
   54.2341   -0.0217   -0.0138 C   0  0  0  0  0  0  0  0  0  0  0  0
   55.5743   -0.0180   -0.0154 C   0  0  0  0  0  0  0  0  0  0  0  0
   56.8000   -0.0130   -0.0187 C   0  0  0  0  0  0  0  0  0  0  0  0
   66.3825    0.0093    0.0204 C   0  0  0  0  0  0  0  0  0  0  0  0
   67.6083    0.0085    0.0306 C   0  0  0  0  0  0  0  0  0  0  0  0
   68.9483    0.0083    0.0388 C   0  0  0  0  0  0  0  0  0  0  0  0
   70.1804    0.0083    0.0419 C   0  0  0  0  0  0  0  0  0  0  0  0
   71.5157    0.0104    0.0424 C   0  0  0  0  0  0  0  0  0  0  0  0
   72.7477    0.0130    0.0403 C   0  0  0  0  0  0  0  0  0  0  0  0
   74.0878    0.0170    0.0348 C   0  0  0  0  0  0  0  0  0  0  0  0
   75.3135    0.0216    0.0279 C   0  0  0  0  0  0  0  0  0  0  0  0
   84.8997    0.0542   -0.0061 C   0  0  0  0  0  0  0  0  0  0  0  0
   86.1245    0.0562   -0.0020 C   0  0  0  0  0  0  0  0  0  0  0  0
   87.4664    0.0575    0.0022 C   0  0  0  0  0  0  0  0  0  0  0  0
   88.6973    0.0609    0.0106 C   0  0  0  0  0  0  0  0  0  0  0  0
   90.0346    0.0596    0.0147 C   0  0  0  0  0  0  0  0  0  0  0  0
   91.2654    0.0594    0.0220 C   0  0  0  0  0  0  0  0  0  0  0  0
   92.6078    0.0538    0.0245 C   0  0  0  0  0  0  0  0  0  0  0  0
   93.8321    0.0456    0.0279 C   0  0  0  0  0  0  0  0  0  0  0  0
   61.5913    0.0018   -0.0081 Co  0  0  0  0  0  0  0  0  0  0  0  0
   58.1999   -0.0060   -0.0242 C   0  0  0  0  0  0  0  0  0  0  0  0
   58.8876   -1.2138   -0.1835 C   0  0  0  0  0  0  0  0  0  0  0  0
   58.2452   -2.4833   -0.3054 C   0  0  0  0  0  0  0  0  0  0  0  0
   59.2038   -3.3693   -0.6723 C   0  0  0  0  0  0  0  0  0  0  0  0
   60.4258   -2.6320   -0.7811 C   0  0  0  0  0  0  0  0  0  0  0  0
   60.2297   -1.3223   -0.4117 N   0  0  0  0  0  0  0  0  0  0  0  0
   61.6043   -3.1367   -1.3152 C   0  0  0  0  0  0  0  0  0  0  0  0
   61.6072   -4.5041   -1.8793 C   0  0  0  0  0  0  0  0  0  0  0  0
   60.7404   -4.8409   -2.9220 C   0  0  0  0  0  0  0  0  0  0  0  0
   60.7414   -6.1176   -3.4541 C   0  0  0  0  0  0  0  0  0  0  0  0
   61.6088   -7.0885   -2.9447 C   0  0  0  0  0  0  0  0  0  0  0  0
   61.6099   -8.4050   -3.4868 C   0  0  0  0  0  0  0  0  0  0  0  0
   61.6099   -9.4689   -3.9253 N   0  0  0  0  0  0  0  0  0  0  0  0
   62.4753   -6.7576   -1.8986 C   0  0  0  0  0  0  0  0  0  0  0  0
   62.4744   -5.4769   -1.3762 C   0  0  0  0  0  0  0  0  0  0  0  0
   62.7793   -2.3977   -1.3294 C   0  0  0  0  0  0  0  0  0  0  0  0
   64.0117   -2.8461   -1.9036 C   0  0  0  0  0  0  0  0  0  0  0  0
   64.9649   -1.9615   -1.5205 C   0  0  0  0  0  0  0  0  0  0  0  0
   62.9638   -1.2033   -0.6723 N   0  0  0  0  0  0  0  0  0  0  0  0
   64.3081   -0.9706   -0.7289 C   0  0  0  0  0  0  0  0  0  0  0  0
   64.9827    0.0106    0.0054 C   0  0  0  0  0  0  0  0  0  0  0  0
   64.2935    0.9962    0.7200 C   0  0  0  0  0  0  0  0  0  0  0  0
   64.9339    1.9956    1.5140 C   0  0  0  0  0  0  0  0  0  0  0  0
   63.9749    2.8895    1.8598 C   0  0  0  0  0  0  0  0  0  0  0  0
   62.7547    2.4348    1.2652 C   0  0  0  0  0  0  0  0  0  0  0  0
   62.9522    1.2342    0.6247 N   0  0  0  0  0  0  0  0  0  0  0  0
   61.5776    3.1703    1.2242 C   0  0  0  0  0  0  0  0  0  0  0  0
   61.5716    4.5456    1.7688 C   0  0  0  0  0  0  0  0  0  0  0  0
   60.6968    4.8948    2.8005 C   0  0  0  0  0  0  0  0  0  0  0  0
   60.6915    6.1786    3.3152 C   0  0  0  0  0  0  0  0  0  0  0  0
   61.5611    7.1441    2.7993 C   0  0  0  0  0  0  0  0  0  0  0  0
   61.5552    8.4676    3.3239 C   0  0  0  0  0  0  0  0  0  0  0  0
   61.5514    9.5369    3.7489 N   0  0  0  0  0  0  0  0  0  0  0  0
   62.4362    6.8006    1.7645 C   0  0  0  0  0  0  0  0  0  0  0  0
   62.4416    5.5129    1.2596 C   0  0  0  0  0  0  0  0  0  0  0  0
   60.4050    2.6501    0.6930 C   0  0  0  0  0  0  0  0  0  0  0  0
   59.1755    3.3745    0.5802 C   0  0  0  0  0  0  0  0  0  0  0  0
   58.2226    2.4738    0.2358 C   0  0  0  0  0  0  0  0  0  0  0  0
   58.8766    1.2091    0.1255 C   0  0  0  0  0  0  0  0  0  0  0  0
   60.2200    1.3343    0.3376 N   0  0  0  0  0  0  0  0  0  0  0  0
   57.1943   -2.6566   -0.1388 H   0  0  0  0  0  0  0  0  0  0  0  0
   59.1024   -4.4266   -0.8553 H   0  0  0  0  0  0  0  0  0  0  0  0
   60.0748   -4.0873   -3.3274 H   0  0  0  0  0  0  0  0  0  0  0  0
   60.0712   -6.3695   -4.2675 H   0  0  0  0  0  0  0  0  0  0  0  0
   63.1458   -7.5090   -1.4983 H   0  0  0  0  0  0  0  0  0  0  0  0
   63.1384   -5.2278   -0.5561 H   0  0  0  0  0  0  0  0  0  0  0  0
   64.1236   -3.7266   -2.5151 H   0  0  0  0  0  0  0  0  0  0  0  0
   66.0204   -1.9699   -1.7396 H   0  0  0  0  0  0  0  0  0  0  0  0
   65.9838    2.0038    1.7586 H   0  0  0  0  0  0  0  0  0  0  0  0
   64.0749    3.7784    2.4610 H   0  0  0  0  0  0  0  0  0  0  0  0
   60.0300    4.1455    3.2118 H   0  0  0  0  0  0  0  0  0  0  0  0
   60.0148    6.4402    4.1202 H   0  0  0  0  0  0  0  0  0  0  0  0
   63.1089    7.5476    1.3596 H   0  0  0  0  0  0  0  0  0  0  0  0
   63.1130    5.2534    0.4489 H   0  0  0  0  0  0  0  0  0  0  0  0
   59.0650    4.4333    0.7486 H   0  0  0  0  0  0  0  0  0  0  0  0
   57.1687    2.6344    0.0756 H   0  0  0  0  0  0  0  0  0  0  0  0
   80.1056    0.0489   -0.0148 Co  0  0  0  0  0  0  0  0  0  0  0  0
   76.7136    0.0287    0.0176 C   0  0  0  0  0  0  0  0  0  0  0  0
   77.4005   -1.1771   -0.1560 C   0  0  0  0  0  0  0  0  0  0  0  0
   76.7564   -2.4457   -0.2825 C   0  0  0  0  0  0  0  0  0  0  0  0
   77.7137   -3.3315   -0.6516 C   0  0  0  0  0  0  0  0  0  0  0  0
   78.9368   -2.5952   -0.7597 C   0  0  0  0  0  0  0  0  0  0  0  0
   78.7429   -1.2867   -0.3822 N   0  0  0  0  0  0  0  0  0  0  0  0
   80.1123   -3.0997   -1.2981 C   0  0  0  0  0  0  0  0  0  0  0  0
   80.1150   -4.4673   -1.8622 C   0  0  0  0  0  0  0  0  0  0  0  0
   79.2458   -4.8059   -2.9021 C   0  0  0  0  0  0  0  0  0  0  0  0
   79.2484   -6.0823   -3.4350 C   0  0  0  0  0  0  0  0  0  0  0  0
   80.1204   -7.0511   -2.9294 C   0  0  0  0  0  0  0  0  0  0  0  0
   80.1236   -8.3666   -3.4734 C   0  0  0  0  0  0  0  0  0  0  0  0
   80.1264   -9.4301   -3.9129 N   0  0  0  0  0  0  0  0  0  0  0  0
   80.9894   -6.7184   -1.8859 C   0  0  0  0  0  0  0  0  0  0  0  0
   80.9867   -5.4380   -1.3626 C   0  0  0  0  0  0  0  0  0  0  0  0
   81.2867   -2.3587   -1.3209 C   0  0  0  0  0  0  0  0  0  0  0  0
   82.5138   -2.8037   -1.9085 C   0  0  0  0  0  0  0  0  0  0  0  0
   83.4685   -1.9156   -1.5375 C   0  0  0  0  0  0  0  0  0  0  0  0
   81.4753   -1.1663   -0.6631 N   0  0  0  0  0  0  0  0  0  0  0  0
   82.8185   -0.9269   -0.7380 C   0  0  0  0  0  0  0  0  0  0  0  0
   83.4978    0.0528   -0.0079 C   0  0  0  0  0  0  0  0  0  0  0  0
   82.8143    1.0331    0.7170 C   0  0  0  0  0  0  0  0  0  0  0  0
   83.4613    2.0328    1.5055 C   0  0  0  0  0  0  0  0  0  0  0  0
   82.5042    2.9232    1.8646 C   0  0  0  0  0  0  0  0  0  0  0  0
   81.2782    2.4668    1.2836 C   0  0  0  0  0  0  0  0  0  0  0  0
   81.4697    1.2664    0.6415 N   0  0  0  0  0  0  0  0  0  0  0  0
   80.0995    3.2010    1.2596 C   0  0  0  0  0  0  0  0  0  0  0  0
   80.0996    4.5757    1.8062 C   0  0  0  0  0  0  0  0  0  0  0  0
   79.2391    4.9231    2.8505 C   0  0  0  0  0  0  0  0  0  0  0  0
   79.2399    6.2065    3.3664 C   0  0  0  0  0  0  0  0  0  0  0  0
   80.1012    7.1733    2.8391 C   0  0  0  0  0  0  0  0  0  0  0  0
   80.1016    8.4961    3.3654 C   0  0  0  0  0  0  0  0  0  0  0  0
   80.1028    9.5657    3.7900 N   0  0  0  0  0  0  0  0  0  0  0  0
   80.9617    6.8316    1.7916 C   0  0  0  0  0  0  0  0  0  0  0  0
   80.9610    5.5444    1.2855 C   0  0  0  0  0  0  0  0  0  0  0  0
   78.9221    2.6818    0.7400 C   0  0  0  0  0  0  0  0  0  0  0  0
   77.6906    3.4054    0.6423 C   0  0  0  0  0  0  0  0  0  0  0  0
   76.7360    2.5062    0.2992 C   0  0  0  0  0  0  0  0  0  0  0  0
   77.3902    1.2427    0.1756 C   0  0  0  0  0  0  0  0  0  0  0  0
   78.7344    1.3669    0.3818 N   0  0  0  0  0  0  0  0  0  0  0  0
   75.7053   -2.6180   -0.1163 H   0  0  0  0  0  0  0  0  0  0  0  0
   77.6110   -4.3881   -0.8383 H   0  0  0  0  0  0  0  0  0  0  0  0
   78.5770   -4.0538   -3.3052 H   0  0  0  0  0  0  0  0  0  0  0  0
   78.5763   -6.3355   -4.2465 H   0  0  0  0  0  0  0  0  0  0  0  0
   81.6637   -7.4681   -1.4886 H   0  0  0  0  0  0  0  0  0  0  0  0
   81.6532   -5.1874   -0.5451 H   0  0  0  0  0  0  0  0  0  0  0  0
   82.6212   -3.6837   -2.5216 H   0  0  0  0  0  0  0  0  0  0  0  0
   84.5214   -1.9204   -1.7693 H   0  0  0  0  0  0  0  0  0  0  0  0
   84.5141    2.0436    1.7369 H   0  0  0  0  0  0  0  0  0  0  0  0
   82.6092    3.8116    2.4657 H   0  0  0  0  0  0  0  0  0  0  0  0
   78.5789    4.1727    3.2705 H   0  0  0  0  0  0  0  0  0  0  0  0
   78.5745    6.4668    4.1812 H   0  0  0  0  0  0  0  0  0  0  0  0
   81.6278    7.5796    1.3778 H   0  0  0  0  0  0  0  0  0  0  0  0
   81.6212    5.2863    0.4652 H   0  0  0  0  0  0  0  0  0  0  0  0
   77.5807    4.4631    0.8177 H   0  0  0  0  0  0  0  0  0  0  0  0
   75.6808    2.6670    0.1474 H   0  0  0  0  0  0  0  0  0  0  0  0
  2  3  4  0  0  0  0
  3  4  1  0  0  0  0
  4  5  2  0  0  0  0
  5  6  4  0  0  0  0
  1  7  1  0  0  0  0
  3  7  4  0  0  0  0
  6  7  4  0  0  0  0
  6  8  4  0  0  0  0
  8  9  1  0  0  0  0
  9 10  4  0  0  0  0
 10 11  4  0  0  0  0
 11 12  4  0  0  0  0
 12 13  1  0  0  0  0
 13 14  3  0  0  0  0
 12 15  4  0  0  0  0
  9 16  4  0  0  0  0
 15 16  4  0  0  0  0
  8 17  4  0  0  0  0
 17 18  4  0  0  0  0
 18 19  2  0  0  0  0
  1 20  1  0  0  0  0
 17 20  4  0  0  0  0
 19 21  4  0  0  0  0
 20 21  4  0  0  0  0
 21 22  4  0  0  0  0
 22 23  4  0  0  0  0
 23 24  4  0  0  0  0
 24 25  2  0  0  0  0
 25 26  4  0  0  0  0
  1 27  1  0  0  0  0
 23 27  4  0  0  0  0
 26 27  4  0  0  0  0
 26 28  4  0  0  0  0
 28 29  1  0  0  0  0
 29 30  4  0  0  0  0
 30 31  4  0  0  0  0
 31 32  4  0  0  0  0
 32 33  1  0  0  0  0
 33 34  3  0  0  0  0
 32 35  4  0  0  0  0
 29 36  4  0  0  0  0
 35 36  4  0  0  0  0
 28 37  4  0  0  0  0
 37 38  4  0  0  0  0
 38 39  2  0  0  0  0
  2 40  4  0  0  0  0
 39 40  1  0  0  0  0
  1 41  1  0  0  0  0
 37 41  4  0  0  0  0
 40 41  4  0  0  0  0
  2 42  1  0  0  0  0
  4 43  1  0  0  0  0
  5 44  1  0  0  0  0
 10 45  1  0  0  0  0
 11 46  1  0  0  0  0
 15 47  1  0  0  0  0
 16 48  1  0  0  0  0
 18 49  1  0  0  0  0
 19 50  1  0  0  0  0
 24 51  1  0  0  0  0
 25 52  1  0  0  0  0
 30 53  1  0  0  0  0
 31 54  1  0  0  0  0
 35 55  1  0  0  0  0
 36 56  1  0  0  0  0
 38 57  1  0  0  0  0
 39 58  1  0  0  0  0
 60 61  4  0  0  0  0
 61 62  1  0  0  0  0
 62 63  2  0  0  0  0
 63 64  4  0  0  0  0
 59 65  1  0  0  0  0
 61 65  4  0  0  0  0
 64 65  4  0  0  0  0
 64 66  4  0  0  0  0
 66 67  1  0  0  0  0
 67 68  4  0  0  0  0
 68 69  4  0  0  0  0
 69 70  4  0  0  0  0
 70 71  1  0  0  0  0
 71 72  3  0  0  0  0
 70 73  4  0  0  0  0
 67 74  4  0  0  0  0
 73 74  4  0  0  0  0
 66 75  4  0  0  0  0
 75 76  4  0  0  0  0
 76 77  2  0  0  0  0
 59 78  1  0  0  0  0
 75 78  4  0  0  0  0
 77 79  4  0  0  0  0
 78 79  4  0  0  0  0
 79 80  4  0  0  0  0
 80 81  4  0  0  0  0
 81 82  4  0  0  0  0
 82 83  2  0  0  0  0
 83 84  4  0  0  0  0
 59 85  1  0  0  0  0
 81 85  4  0  0  0  0
 84 85  4  0  0  0  0
 84 86  4  0  0  0  0
 86 87  1  0  0  0  0
 87 88  4  0  0  0  0
 88 89  4  0  0  0  0
 89 90  4  0  0  0  0
 90 91  1  0  0  0  0
 91 92  3  0  0  0  0
 90 93  4  0  0  0  0
 87 94  4  0  0  0  0
 93 94  4  0  0  0  0
 86 95  4  0  0  0  0
 95 96  4  0  0  0  0
 96 97  2  0  0  0  0
 60 98  4  0  0  0  0
 97 98  1  0  0  0  0
 59 99  1  0  0  0  0
 95 99  4  0  0  0  0
 98 99  4  0  0  0  0
 60100  1  0  0  0  0
 62101  1  0  0  0  0
 63102  1  0  0  0  0
 68103  1  0  0  0  0
 69104  1  0  0  0  0
 73105  1  0  0  0  0
 74106  1  0  0  0  0
 76107  1  0  0  0  0
 77108  1  0  0  0  0
 82109  1  0  0  0  0
 83110  1  0  0  0  0
 88111  1  0  0  0  0
 89112  1  0  0  0  0
 93113  1  0  0  0  0
 94114  1  0  0  0  0
 96115  1  0  0  0  0
 97116  1  0  0  0  0
 22117  4  0  0  0  0
117118  3  0  0  0  0
118119  4  0  0  0  0
119120  3  0  0  0  0
120121  4  0  0  0  0
121122  3  0  0  0  0
122123  4  0  0  0  0
123124  3  0  0  0  0
125126  3  0  0  0  0
126127  4  0  0  0  0
127128  3  0  0  0  0
128129  4  0  0  0  0
129130  3  0  0  0  0
130131  4  0  0  0  0
131132  3  0  0  0  0
133134  3  0  0  0  0
134135  4  0  0  0  0
135136  3  0  0  0  0
136137  4  0  0  0  0
137138  3  0  0  0  0
138139  4  0  0  0  0
 80140  4  0  0  0  0
139140  3  0  0  0  0
124142  4  0  0  0  0
142143  4  0  0  0  0
143144  4  0  0  0  0
144145  2  0  0  0  0
145146  4  0  0  0  0
141147  1  0  0  0  0
143147  4  0  0  0  0
146147  4  0  0  0  0
146148  4  0  0  0  0
148149  1  0  0  0  0
149150  4  0  0  0  0
150151  4  0  0  0  0
151152  4  0  0  0  0
152153  1  0  0  0  0
153154  3  0  0  0  0
152155  4  0  0  0  0
149156  4  0  0  0  0
155156  4  0  0  0  0
148157  4  0  0  0  0
157158  4  0  0  0  0
158159  2  0  0  0  0
141160  1  0  0  0  0
157160  4  0  0  0  0
159161  4  0  0  0  0
160161  4  0  0  0  0
125162  4  0  0  0  0
161162  4  0  0  0  0
162163  4  0  0  0  0
163164  4  0  0  0  0
164165  2  0  0  0  0
165166  4  0  0  0  0
141167  1  0  0  0  0
163167  4  0  0  0  0
166167  4  0  0  0  0
166168  4  0  0  0  0
168169  1  0  0  0  0
169170  4  0  0  0  0
170171  4  0  0  0  0
171172  4  0  0  0  0
172173  1  0  0  0  0
173174  3  0  0  0  0
172175  4  0  0  0  0
169176  4  0  0  0  0
175176  4  0  0  0  0
168177  4  0  0  0  0
177178  4  0  0  0  0
178179  2  0  0  0  0
142180  4  0  0  0  0
179180  4  0  0  0  0
141181  1  0  0  0  0
177181  4  0  0  0  0
180181  4  0  0  0  0
144182  1  0  0  0  0
145183  1  0  0  0  0
150184  1  0  0  0  0
151185  1  0  0  0  0
155186  1  0  0  0  0
156187  1  0  0  0  0
158188  1  0  0  0  0
159189  1  0  0  0  0
164190  1  0  0  0  0
165191  1  0  0  0  0
170192  1  0  0  0  0
171193  1  0  0  0  0
175194  1  0  0  0  0
176195  1  0  0  0  0
178196  1  0  0  0  0
179197  1  0  0  0  0
132199  4  0  0  0  0
199200  4  0  0  0  0
200201  4  0  0  0  0
201202  2  0  0  0  0
202203  4  0  0  0  0
198204  1  0  0  0  0
200204  4  0  0  0  0
203204  4  0  0  0  0
203205  4  0  0  0  0
205206  1  0  0  0  0
206207  4  0  0  0  0
207208  4  0  0  0  0
208209  4  0  0  0  0
209210  1  0  0  0  0
210211  3  0  0  0  0
209212  4  0  0  0  0
206213  4  0  0  0  0
212213  4  0  0  0  0
205214  4  0  0  0  0
214215  4  0  0  0  0
215216  2  0  0  0  0
198217  1  0  0  0  0
214217  4  0  0  0  0
216218  4  0  0  0  0
217218  4  0  0  0  0
133219  4  0  0  0  0
218219  4  0  0  0  0
219220  4  0  0  0  0
220221  4  0  0  0  0
221222  2  0  0  0  0
222223  4  0  0  0  0
198224  1  0  0  0  0
220224  4  0  0  0  0
223224  4  0  0  0  0
223225  4  0  0  0  0
225226  1  0  0  0  0
226227  4  0  0  0  0
227228  4  0  0  0  0
228229  4  0  0  0  0
229230  1  0  0  0  0
230231  3  0  0  0  0
229232  4  0  0  0  0
226233  4  0  0  0  0
232233  4  0  0  0  0
225234  4  0  0  0  0
234235  4  0  0  0  0
235236  2  0  0  0  0
199237  4  0  0  0  0
236237  4  0  0  0  0
198238  1  0  0  0  0
234238  4  0  0  0  0
237238  4  0  0  0  0
201239  1  0  0  0  0
202240  1  0  0  0  0
207241  1  0  0  0  0
208242  1  0  0  0  0
212243  1  0  0  0  0
213244  1  0  0  0  0
215245  1  0  0  0  0
216246  1  0  0  0  0
221247  1  0  0  0  0
222248  1  0  0  0  0
227249  1  0  0  0  0
228250  1  0  0  0  0
232251  1  0  0  0  0
233252  1  0  0  0  0
235253  1  0  0  0  0
236254  1  0  0  0  0
M  END
