 xtb: 6.5.1 (b24c23e)
          07292221493D

254293  0     0  0            999 V2000
   34.1467    0.3650    0.2925 Fe  0  0  0  0  0  0  0  0  0  0  0  0
   30.7640    0.2288    0.1622 C   0  0  0  0  0  0  0  0  0  0  0  0
   31.4525   -0.9585    0.3029 C   0  0  0  0  0  0  0  0  0  0  0  0
   30.8162   -2.2355    0.4249 C   0  0  0  0  0  0  0  0  0  0  0  0
   31.8038   -3.1617    0.4328 C   0  0  0  0  0  0  0  0  0  0  0  0
   33.0426   -2.4493    0.3039 C   0  0  0  0  0  0  0  0  0  0  0  0
   32.8150   -1.0995    0.2683 N   0  0  0  0  0  0  0  0  0  0  0  0
   34.2846   -3.0616    0.1815 C   0  0  0  0  0  0  0  0  0  0  0  0
   34.3491   -4.5407    0.1163 C   0  0  0  0  0  0  0  0  0  0  0  0
   33.7533   -5.2258   -0.8733 C   0  0  0  0  0  0  0  0  0  0  0  0
   33.7984   -6.7269   -0.9684 C   0  0  0  0  0  0  0  0  0  0  0  0
   34.7861   -7.2916   -0.0480 N   0  0  0  0  0  0  0  0  0  0  0  0
   35.2490   -6.5888    1.0268 C   0  0  0  0  0  0  0  0  0  0  0  0
   35.0930   -5.2555    1.1397 C   0  0  0  0  0  0  0  0  0  0  0  0
   35.4717   -2.3447    0.1127 C   0  0  0  0  0  0  0  0  0  0  0  0
   36.7602   -2.9474   -0.0591 C   0  0  0  0  0  0  0  0  0  0  0  0
   37.6720   -1.9479    0.0089 C   0  0  0  0  0  0  0  0  0  0  0  0
   35.5963   -0.9824    0.2410 N   0  0  0  0  0  0  0  0  0  0  0  0
   36.9383   -0.7380    0.2129 C   0  0  0  0  0  0  0  0  0  0  0  0
   37.5491    0.5023    0.4247 C   0  0  0  0  0  0  0  0  0  0  0  0
   36.8260    1.6882    0.5875 C   0  0  0  0  0  0  0  0  0  0  0  0
   37.4420    2.9526    0.8435 C   0  0  0  0  0  0  0  0  0  0  0  0
   36.4504    3.8755    0.8353 C   0  0  0  0  0  0  0  0  0  0  0  0
   35.2320    3.1718    0.5647 C   0  0  0  0  0  0  0  0  0  0  0  0
   35.4748    1.8240    0.4543 N   0  0  0  0  0  0  0  0  0  0  0  0
   34.0009    3.7916    0.3951 C   0  0  0  0  0  0  0  0  0  0  0  0
   33.9432    5.2714    0.4461 C   0  0  0  0  0  0  0  0  0  0  0  0
   33.2117    5.9153    1.3704 C   0  0  0  0  0  0  0  0  0  0  0  0
   33.1286    7.4159    1.4449 C   0  0  0  0  0  0  0  0  0  0  0  0
   34.1419    8.0509    0.6013 N   0  0  0  0  0  0  0  0  0  0  0  0
   34.7514    7.3775   -0.4177 C   0  0  0  0  0  0  0  0  0  0  0  0
   34.7136    6.0349   -0.5211 C   0  0  0  0  0  0  0  0  0  0  0  0
   32.8252    3.0815    0.1801 C   0  0  0  0  0  0  0  0  0  0  0  0
   31.5471    3.6917   -0.0506 C   0  0  0  0  0  0  0  0  0  0  0  0
   30.6391    2.6892   -0.1108 C   0  0  0  0  0  0  0  0  0  0  0  0
   31.3641    1.4677    0.0697 C   0  0  0  0  0  0  0  0  0  0  0  0
   32.7041    1.7178    0.2086 N   0  0  0  0  0  0  0  0  0  0  0  0
   29.6813    0.1853    0.1201 H   0  0  0  0  0  0  0  0  0  0  0  0
   29.7501   -2.3840    0.4944 H   0  0  0  0  0  0  0  0  0  0  0  0
   31.7145   -4.2323    0.5226 H   0  0  0  0  0  0  0  0  0  0  0  0
   33.1988   -4.7250   -1.6583 H   0  0  0  0  0  0  0  0  0  0  0  0
   34.0657   -7.0342   -1.9895 H   0  0  0  0  0  0  0  0  0  0  0  0
   32.8009   -7.1523   -0.7534 H   0  0  0  0  0  0  0  0  0  0  0  0
   34.7645   -8.2971    0.0306 H   0  0  0  0  0  0  0  0  0  0  0  0
   35.8107   -7.1753    1.7469 H   0  0  0  0  0  0  0  0  0  0  0  0
   35.5034   -4.7117    1.9786 H   0  0  0  0  0  0  0  0  0  0  0  0
   36.9342   -4.0001   -0.2126 H   0  0  0  0  0  0  0  0  0  0  0  0
   38.7457   -2.0087   -0.0688 H   0  0  0  0  0  0  0  0  0  0  0  0
   38.4980    3.0986    1.0054 H   0  0  0  0  0  0  0  0  0  0  0  0
   36.5268    4.9384    0.9981 H   0  0  0  0  0  0  0  0  0  0  0  0
   32.6330    5.3788    2.1132 H   0  0  0  0  0  0  0  0  0  0  0  0
   33.2829    7.7534    2.4798 H   0  0  0  0  0  0  0  0  0  0  0  0
   32.1219    7.7570    1.1406 H   0  0  0  0  0  0  0  0  0  0  0  0
   34.0447    9.0501    0.5031 H   0  0  0  0  0  0  0  0  0  0  0  0
   35.3241    8.0006   -1.0971 H   0  0  0  0  0  0  0  0  0  0  0  0
   35.2375    5.5183   -1.3126 H   0  0  0  0  0  0  0  0  0  0  0  0
   31.3794    4.7513   -0.1565 H   0  0  0  0  0  0  0  0  0  0  0  0
   29.5731    2.7515   -0.2637 H   0  0  0  0  0  0  0  0  0  0  0  0
   89.6959    0.2335    0.2097 Fe  0  0  0  0  0  0  0  0  0  0  0  0
   93.0735    0.4397    0.1417 C   0  0  0  0  0  0  0  0  0  0  0  0
   92.3645    1.5697    0.4952 C   0  0  0  0  0  0  0  0  0  0  0  0
   92.9751    2.8082    0.8745 C   0  0  0  0  0  0  0  0  0  0  0  0
   91.9711    3.7017    1.0396 C   0  0  0  0  0  0  0  0  0  0  0  0
   90.7482    3.0127    0.7417 C   0  0  0  0  0  0  0  0  0  0  0  0
   91.0008    1.6963    0.4597 N   0  0  0  0  0  0  0  0  0  0  0  0
   89.5015    3.6237    0.6732 C   0  0  0  0  0  0  0  0  0  0  0  0
   89.4054    5.0872    0.8818 C   0  0  0  0  0  0  0  0  0  0  0  0
   90.0474    5.9578    0.0856 C   0  0  0  0  0  0  0  0  0  0  0  0
   89.9713    7.4483    0.2781 C   0  0  0  0  0  0  0  0  0  0  0  0
   88.9109    7.8134    1.2182 N   0  0  0  0  0  0  0  0  0  0  0  0
   88.3942    6.9105    2.1021 C   0  0  0  0  0  0  0  0  0  0  0  0
   88.5763    5.5826    1.9677 C   0  0  0  0  0  0  0  0  0  0  0  0
   88.3349    2.9172    0.4091 C   0  0  0  0  0  0  0  0  0  0  0  0
   87.0473    3.5260    0.2529 C   0  0  0  0  0  0  0  0  0  0  0  0
   86.1526    2.5187    0.1097 C   0  0  0  0  0  0  0  0  0  0  0  0
   88.2296    1.5512    0.3135 N   0  0  0  0  0  0  0  0  0  0  0  0
   86.8954    1.2989    0.1755 C   0  0  0  0  0  0  0  0  0  0  0  0
   86.2981    0.0346    0.2134 C   0  0  0  0  0  0  0  0  0  0  0  0
   87.0367   -1.1515    0.2632 C   0  0  0  0  0  0  0  0  0  0  0  0
   86.4405   -2.4473    0.3568 C   0  0  0  0  0  0  0  0  0  0  0  0
   87.4484   -3.3466    0.2499 C   0  0  0  0  0  0  0  0  0  0  0  0
   88.6571   -2.5960    0.0787 C   0  0  0  0  0  0  0  0  0  0  0  0
   88.3920   -1.2493    0.1361 N   0  0  0  0  0  0  0  0  0  0  0  0
   89.8978   -3.1657   -0.1768 C   0  0  0  0  0  0  0  0  0  0  0  0
   89.9843   -4.6370   -0.3260 C   0  0  0  0  0  0  0  0  0  0  0  0
   90.7477   -5.3815    0.4910 C   0  0  0  0  0  0  0  0  0  0  0  0
   90.8629   -6.8762    0.3631 C   0  0  0  0  0  0  0  0  0  0  0  0
   89.8441   -7.4165   -0.5379 N   0  0  0  0  0  0  0  0  0  0  0  0
   89.2016   -6.6277   -1.4484 C   0  0  0  0  0  0  0  0  0  0  0  0
   89.2104   -5.2827   -1.3728 C   0  0  0  0  0  0  0  0  0  0  0  0
   91.0586   -2.4102   -0.3009 C   0  0  0  0  0  0  0  0  0  0  0  0
   92.3438   -2.9538   -0.6353 C   0  0  0  0  0  0  0  0  0  0  0  0
   93.2346   -1.9376   -0.5480 C   0  0  0  0  0  0  0  0  0  0  0  0
   92.4928   -0.7727   -0.1696 C   0  0  0  0  0  0  0  0  0  0  0  0
   91.1579   -1.0650   -0.0657 N   0  0  0  0  0  0  0  0  0  0  0  0
   94.1554    0.5063    0.1153 H   0  0  0  0  0  0  0  0  0  0  0  0
   94.0367    2.9552    0.9965 H   0  0  0  0  0  0  0  0  0  0  0  0
   92.0400    4.7355    1.3375 H   0  0  0  0  0  0  0  0  0  0  0  0
   90.6641    5.6253   -0.7412 H   0  0  0  0  0  0  0  0  0  0  0  0
   89.7651    7.9444   -0.6811 H   0  0  0  0  0  0  0  0  0  0  0  0
   90.9413    7.8356    0.6403 H   0  0  0  0  0  0  0  0  0  0  0  0
   88.9033    8.7846    1.4908 H   0  0  0  0  0  0  0  0  0  0  0  0
   87.7703    7.3399    2.8795 H   0  0  0  0  0  0  0  0  0  0  0  0
   88.1236    4.8821    2.6548 H   0  0  0  0  0  0  0  0  0  0  0  0
   86.8625    4.5880    0.2516 H   0  0  0  0  0  0  0  0  0  0  0  0
   85.0844    2.5805   -0.0230 H   0  0  0  0  0  0  0  0  0  0  0  0
   85.3854   -2.6287    0.4853 H   0  0  0  0  0  0  0  0  0  0  0  0
   87.3888   -4.4225    0.2817 H   0  0  0  0  0  0  0  0  0  0  0  0
   91.3308   -4.9352    1.2881 H   0  0  0  0  0  0  0  0  0  0  0  0
   90.7384   -7.3517    1.3464 H   0  0  0  0  0  0  0  0  0  0  0  0
   91.8693   -7.1505   -0.0034 H   0  0  0  0  0  0  0  0  0  0  0  0
   89.9599   -8.3912   -0.7705 H   0  0  0  0  0  0  0  0  0  0  0  0
   88.6284   -7.1680   -2.1948 H   0  0  0  0  0  0  0  0  0  0  0  0
   88.6616   -4.6779   -2.0805 H   0  0  0  0  0  0  0  0  0  0  0  0
   92.5276   -3.9809   -0.9063 H   0  0  0  0  0  0  0  0  0  0  0  0
   94.2996   -1.9567   -0.7180 H   0  0  0  0  0  0  0  0  0  0  0  0
   38.9506    0.5580    0.4705 C   0  0  0  0  0  0  0  0  0  0  0  0
   40.1745    0.5973    0.5017 C   0  0  0  0  0  0  0  0  0  0  0  0
   41.5155    0.6399    0.5301 C   0  0  0  0  0  0  0  0  0  0  0  0
   42.7461    0.6708    0.5521 C   0  0  0  0  0  0  0  0  0  0  0  0
   44.0826    0.7041    0.5689 C   0  0  0  0  0  0  0  0  0  0  0  0
   45.3136    0.7302    0.5799 C   0  0  0  0  0  0  0  0  0  0  0  0
   46.6548    0.7571    0.5878 C   0  0  0  0  0  0  0  0  0  0  0  0
   47.8798    0.7810    0.5930 C   0  0  0  0  0  0  0  0  0  0  0  0
   57.4889    0.9740    0.5895 C   0  0  0  0  0  0  0  0  0  0  0  0
   58.7145    0.9989    0.6032 C   0  0  0  0  0  0  0  0  0  0  0  0
   60.0540    1.0260    0.6233 C   0  0  0  0  0  0  0  0  0  0  0  0
   61.2858    1.0445    0.6490 C   0  0  0  0  0  0  0  0  0  0  0  0
   62.6206    1.0588    0.6797 C   0  0  0  0  0  0  0  0  0  0  0  0
   63.8524    1.0665    0.7112 C   0  0  0  0  0  0  0  0  0  0  0  0
   65.1918    1.0634    0.7474 C   0  0  0  0  0  0  0  0  0  0  0  0
   66.4173    1.0584    0.7834 C   0  0  0  0  0  0  0  0  0  0  0  0
   75.9828    0.2817    0.4981 C   0  0  0  0  0  0  0  0  0  0  0  0
   77.1993    0.1537    0.4319 C   0  0  0  0  0  0  0  0  0  0  0  0
   78.5354    0.0432    0.3704 C   0  0  0  0  0  0  0  0  0  0  0  0
   79.7633   -0.0288    0.3202 C   0  0  0  0  0  0  0  0  0  0  0  0
   81.0994   -0.0752    0.2788 C   0  0  0  0  0  0  0  0  0  0  0  0
   82.3299   -0.0918    0.2522 C   0  0  0  0  0  0  0  0  0  0  0  0
   83.6721   -0.0761    0.2312 C   0  0  0  0  0  0  0  0  0  0  0  0
   84.8962   -0.0388    0.2167 C   0  0  0  0  0  0  0  0  0  0  0  0
   52.6847    0.8870    0.6000 Fe  0  0  0  0  0  0  0  0  0  0  0  0
   49.2814    0.8109    0.5960 C   0  0  0  0  0  0  0  0  0  0  0  0
   49.9336    1.7705   -0.1887 C   0  0  0  0  0  0  0  0  0  0  0  0
   49.2502    2.7581   -0.9628 C   0  0  0  0  0  0  0  0  0  0  0  0
   50.1922    3.3864   -1.7089 C   0  0  0  0  0  0  0  0  0  0  0  0
   51.4463    2.7696   -1.3952 C   0  0  0  0  0  0  0  0  0  0  0  0
   51.2766    1.8178   -0.4196 N   0  0  0  0  0  0  0  0  0  0  0  0
   52.6386    3.0342   -2.0586 C   0  0  0  0  0  0  0  0  0  0  0  0
   52.6209    3.9580   -3.2151 C   0  0  0  0  0  0  0  0  0  0  0  0
   51.8696    3.7041   -4.2999 C   0  0  0  0  0  0  0  0  0  0  0  0
   51.8700    4.5879   -5.5170 C   0  0  0  0  0  0  0  0  0  0  0  0
   52.5263    5.8681   -5.2486 N   0  0  0  0  0  0  0  0  0  0  0  0
   53.3768    6.0319   -4.1935 C   0  0  0  0  0  0  0  0  0  0  0  0
   53.4444    5.1543   -3.1740 C   0  0  0  0  0  0  0  0  0  0  0  0
   53.8497    2.4624   -1.6855 C   0  0  0  0  0  0  0  0  0  0  0  0
   55.0857    2.6634   -2.3807 C   0  0  0  0  0  0  0  0  0  0  0  0
   56.0538    2.0763   -1.6347 C   0  0  0  0  0  0  0  0  0  0  0  0
   54.0557    1.7051   -0.5591 N   0  0  0  0  0  0  0  0  0  0  0  0
   55.4039    1.5106   -0.4946 C   0  0  0  0  0  0  0  0  0  0  0  0
   56.0889    0.9450    0.5874 C   0  0  0  0  0  0  0  0  0  0  0  0
   55.4296    0.3535    1.6732 C   0  0  0  0  0  0  0  0  0  0  0  0
   56.1057   -0.1819    2.8123 C   0  0  0  0  0  0  0  0  0  0  0  0
   55.1632   -0.7961    3.5693 C   0  0  0  0  0  0  0  0  0  0  0  0
   53.9166   -0.6450    2.8798 C   0  0  0  0  0  0  0  0  0  0  0  0
   54.0904    0.1110    1.7460 N   0  0  0  0  0  0  0  0  0  0  0  0
   52.7295   -1.2595    3.2596 C   0  0  0  0  0  0  0  0  0  0  0  0
   52.7450   -2.1851    4.4145 C   0  0  0  0  0  0  0  0  0  0  0  0
   53.5281   -3.2766    4.4299 C   0  0  0  0  0  0  0  0  0  0  0  0
   53.5745   -4.2307    5.5924 C   0  0  0  0  0  0  0  0  0  0  0  0
   52.4778   -3.9867    6.5307 N   0  0  0  0  0  0  0  0  0  0  0  0
   51.8131   -2.7938    6.5581 C   0  0  0  0  0  0  0  0  0  0  0  0
   51.8795   -1.9053    5.5483 C   0  0  0  0  0  0  0  0  0  0  0  0
   51.5248   -1.0402    2.5996 C   0  0  0  0  0  0  0  0  0  0  0  0
   50.2969   -1.7039    2.9207 C   0  0  0  0  0  0  0  0  0  0  0  0
   49.3306   -1.1253    2.1662 C   0  0  0  0  0  0  0  0  0  0  0  0
   49.9727   -0.1169    1.3829 C   0  0  0  0  0  0  0  0  0  0  0  0
   51.3174   -0.1069    1.6151 N   0  0  0  0  0  0  0  0  0  0  0  0
   48.1871    2.9352   -0.9316 H   0  0  0  0  0  0  0  0  0  0  0  0
   50.0594    4.1960   -2.4080 H   0  0  0  0  0  0  0  0  0  0  0  0
   51.2733    2.8026   -4.3794 H   0  0  0  0  0  0  0  0  0  0  0  0
   52.3735    4.0776   -6.3587 H   0  0  0  0  0  0  0  0  0  0  0  0
   50.8377    4.7910   -5.8361 H   0  0  0  0  0  0  0  0  0  0  0  0
   52.6849    6.4408   -6.0638 H   0  0  0  0  0  0  0  0  0  0  0  0
   53.9411    6.9589   -4.2046 H   0  0  0  0  0  0  0  0  0  0  0  0
   54.0756    5.3392   -2.3166 H   0  0  0  0  0  0  0  0  0  0  0  0
   55.1902    3.1862   -3.3177 H   0  0  0  0  0  0  0  0  0  0  0  0
   57.1141    2.0264   -1.8244 H   0  0  0  0  0  0  0  0  0  0  0  0
   57.1644   -0.0930    2.9963 H   0  0  0  0  0  0  0  0  0  0  0  0
   55.2921   -1.3028    4.5118 H   0  0  0  0  0  0  0  0  0  0  0  0
   54.1768   -3.5234    3.5976 H   0  0  0  0  0  0  0  0  0  0  0  0
   54.5431   -4.1413    6.1176 H   0  0  0  0  0  0  0  0  0  0  0  0
   53.4966   -5.2675    5.2357 H   0  0  0  0  0  0  0  0  0  0  0  0
   52.5491   -4.4931    7.4005 H   0  0  0  0  0  0  0  0  0  0  0  0
   51.1736   -2.6489    7.4230 H   0  0  0  0  0  0  0  0  0  0  0  0
   51.3119   -0.9861    5.5714 H   0  0  0  0  0  0  0  0  0  0  0  0
   50.1966   -2.5067    3.6331 H   0  0  0  0  0  0  0  0  0  0  0  0
   48.2755   -1.3456    2.1372 H   0  0  0  0  0  0  0  0  0  0  0  0
   71.2193    0.8736    0.7888 Fe  0  0  0  0  0  0  0  0  0  0  0  0
   67.8171    1.0327    0.8108 C   0  0  0  0  0  0  0  0  0  0  0  0
   68.5208    1.8737   -0.0621 C   0  0  0  0  0  0  0  0  0  0  0  0
   67.8922    2.8485   -0.8964 C   0  0  0  0  0  0  0  0  0  0  0  0
   68.8746    3.4130   -1.6410 C   0  0  0  0  0  0  0  0  0  0  0  0
   70.0949    2.7539   -1.2814 C   0  0  0  0  0  0  0  0  0  0  0  0
   69.8664    1.8504   -0.2705 N   0  0  0  0  0  0  0  0  0  0  0  0
   71.3010    2.9214   -1.9482 C   0  0  0  0  0  0  0  0  0  0  0  0
   71.3568    3.8300   -3.1158 C   0  0  0  0  0  0  0  0  0  0  0  0
   70.5917    3.6286   -4.2017 C   0  0  0  0  0  0  0  0  0  0  0  0
   70.6665    4.5016   -5.4244 C   0  0  0  0  0  0  0  0  0  0  0  0
   71.4216    5.7273   -5.1615 N   0  0  0  0  0  0  0  0  0  0  0  0
   72.2838    5.8266   -4.1077 C   0  0  0  0  0  0  0  0  0  0  0  0
   72.2777    4.9534   -3.0822 C   0  0  0  0  0  0  0  0  0  0  0  0
   72.4609    2.2411   -1.5903 C   0  0  0  0  0  0  0  0  0  0  0  0
   73.6788    2.2824   -2.3424 C   0  0  0  0  0  0  0  0  0  0  0  0
   74.5923    1.5610   -1.6475 C   0  0  0  0  0  0  0  0  0  0  0  0
   72.6194    1.4689   -0.4682 N   0  0  0  0  0  0  0  0  0  0  0  0
   73.9308    1.0893   -0.4716 C   0  0  0  0  0  0  0  0  0  0  0  0
   74.5937    0.4557    0.5846 C   0  0  0  0  0  0  0  0  0  0  0  0
   73.9373    0.0416    1.7503 C   0  0  0  0  0  0  0  0  0  0  0  0
   74.6156   -0.4822    2.8934 C   0  0  0  0  0  0  0  0  0  0  0  0
   73.6574   -0.8335    3.7859 C   0  0  0  0  0  0  0  0  0  0  0  0
   72.3955   -0.5502    3.1698 C   0  0  0  0  0  0  0  0  0  0  0  0
   72.5876    0.0350    1.9415 N   0  0  0  0  0  0  0  0  0  0  0  0
   71.1652   -0.9202    3.6994 C   0  0  0  0  0  0  0  0  0  0  0  0
   71.1292   -1.6745    4.9731 C   0  0  0  0  0  0  0  0  0  0  0  0
   71.7364   -2.8655    5.1052 C   0  0  0  0  0  0  0  0  0  0  0  0
   71.7155   -3.6532    6.3871 C   0  0  0  0  0  0  0  0  0  0  0  0
   70.7311   -3.1178    7.3287 N   0  0  0  0  0  0  0  0  0  0  0  0
   70.2550   -1.8429    7.2183 C   0  0  0  0  0  0  0  0  0  0  0  0
   70.3915   -1.1149    6.0934 C   0  0  0  0  0  0  0  0  0  0  0  0
   69.9584   -0.6439    3.0663 C   0  0  0  0  0  0  0  0  0  0  0  0
   68.6879   -1.1304    3.5142 C   0  0  0  0  0  0  0  0  0  0  0  0
   67.7541   -0.6127    2.6793 C   0  0  0  0  0  0  0  0  0  0  0  0
   68.4564    0.1962    1.7328 C   0  0  0  0  0  0  0  0  0  0  0  0
   69.8021    0.1382    1.9496 N   0  0  0  0  0  0  0  0  0  0  0  0
   66.8371    3.0704   -0.8936 H   0  0  0  0  0  0  0  0  0  0  0  0
   68.7888    4.2014   -2.3709 H   0  0  0  0  0  0  0  0  0  0  0  0
   69.9264    2.7765   -4.2784 H   0  0  0  0  0  0  0  0  0  0  0  0
   71.1304    3.9474   -6.2610 H   0  0  0  0  0  0  0  0  0  0  0  0
   69.6547    4.7843   -5.7484 H   0  0  0  0  0  0  0  0  0  0  0  0
   71.6262    6.2808   -5.9798 H   0  0  0  0  0  0  0  0  0  0  0  0
   72.9236    6.7031   -4.1250 H   0  0  0  0  0  0  0  0  0  0  0  0
   72.9240    5.0884   -2.2267 H   0  0  0  0  0  0  0  0  0  0  0  0
   73.8066    2.7922   -3.2838 H   0  0  0  0  0  0  0  0  0  0  0  0
   75.6246    1.3671   -1.8907 H   0  0  0  0  0  0  0  0  0  0  0  0
   75.6868   -0.5571    2.9908 H   0  0  0  0  0  0  0  0  0  0  0  0
   73.7860   -1.2467    4.7730 H   0  0  0  0  0  0  0  0  0  0  0  0
   72.2797   -3.3217    4.2861 H   0  0  0  0  0  0  0  0  0  0  0  0
   72.7186   -3.6492    6.8518 H   0  0  0  0  0  0  0  0  0  0  0  0
   71.4597   -4.7026    6.1829 H   0  0  0  0  0  0  0  0  0  0  0  0
   70.7740   -3.5160    8.2546 H   0  0  0  0  0  0  0  0  0  0  0  0
   69.6990   -1.4883    8.0803 H   0  0  0  0  0  0  0  0  0  0  0  0
   69.9689   -0.1237    6.0114 H   0  0  0  0  0  0  0  0  0  0  0  0
   68.5399   -1.7885    4.3550 H   0  0  0  0  0  0  0  0  0  0  0  0
   66.6843   -0.7458    2.6989 H   0  0  0  0  0  0  0  0  0  0  0  0
  2  3  4  0  0  0  0
  3  4  4  0  0  0  0
  4  5  2  0  0  0  0
  5  6  4  0  0  0  0
  1  7  1  0  0  0  0
  3  7  4  0  0  0  0
  6  7  4  0  0  0  0
  6  8  4  0  0  0  0
  8  9  1  0  0  0  0
  9 10  2  0  0  0  0
 10 11  1  0  0  0  0
 11 12  1  0  0  0  0
 12 13  1  0  0  0  0
  9 14  1  0  0  0  0
 13 14  2  0  0  0  0
  8 15  4  0  0  0  0
 15 16  4  0  0  0  0
 16 17  2  0  0  0  0
  1 18  1  0  0  0  0
 15 18  4  0  0  0  0
 17 19  4  0  0  0  0
 18 19  4  0  0  0  0
 19 20  4  0  0  0  0
 20 21  4  0  0  0  0
 21 22  4  0  0  0  0
 22 23  2  0  0  0  0
 23 24  4  0  0  0  0
  1 25  1  0  0  0  0
 21 25  4  0  0  0  0
 24 25  4  0  0  0  0
 24 26  4  0  0  0  0
 26 27  1  0  0  0  0
 27 28  2  0  0  0  0
 28 29  1  0  0  0  0
 29 30  1  0  0  0  0
 30 31  1  0  0  0  0
 27 32  1  0  0  0  0
 31 32  2  0  0  0  0
 26 33  4  0  0  0  0
 33 34  4  0  0  0  0
 34 35  2  0  0  0  0
  2 36  4  0  0  0  0
 35 36  4  0  0  0  0
  1 37  1  0  0  0  0
 33 37  4  0  0  0  0
 36 37  4  0  0  0  0
  2 38  1  0  0  0  0
  4 39  1  0  0  0  0
  5 40  1  0  0  0  0
 10 41  1  0  0  0  0
 11 42  1  0  0  0  0
 11 43  1  0  0  0  0
 12 44  1  0  0  0  0
 13 45  1  0  0  0  0
 14 46  1  0  0  0  0
 16 47  1  0  0  0  0
 17 48  1  0  0  0  0
 22 49  1  0  0  0  0
 23 50  1  0  0  0  0
 28 51  1  0  0  0  0
 29 52  1  0  0  0  0
 29 53  1  0  0  0  0
 30 54  1  0  0  0  0
 31 55  1  0  0  0  0
 32 56  1  0  0  0  0
 34 57  1  0  0  0  0
 35 58  1  0  0  0  0
 60 61  4  0  0  0  0
 61 62  4  0  0  0  0
 62 63  2  0  0  0  0
 63 64  4  0  0  0  0
 59 65  1  0  0  0  0
 61 65  4  0  0  0  0
 64 65  4  0  0  0  0
 64 66  4  0  0  0  0
 66 67  1  0  0  0  0
 67 68  2  0  0  0  0
 68 69  1  0  0  0  0
 69 70  1  0  0  0  0
 70 71  1  0  0  0  0
 67 72  1  0  0  0  0
 71 72  2  0  0  0  0
 66 73  4  0  0  0  0
 73 74  4  0  0  0  0
 74 75  2  0  0  0  0
 59 76  1  0  0  0  0
 73 76  4  0  0  0  0
 75 77  4  0  0  0  0
 76 77  4  0  0  0  0
 77 78  4  0  0  0  0
 78 79  4  0  0  0  0
 79 80  4  0  0  0  0
 80 81  2  0  0  0  0
 81 82  4  0  0  0  0
 59 83  1  0  0  0  0
 79 83  4  0  0  0  0
 82 83  4  0  0  0  0
 82 84  4  0  0  0  0
 84 85  1  0  0  0  0
 85 86  2  0  0  0  0
 86 87  1  0  0  0  0
 87 88  1  0  0  0  0
 88 89  1  0  0  0  0
 85 90  1  0  0  0  0
 89 90  2  0  0  0  0
 84 91  4  0  0  0  0
 91 92  4  0  0  0  0
 92 93  2  0  0  0  0
 60 94  4  0  0  0  0
 93 94  4  0  0  0  0
 59 95  1  0  0  0  0
 91 95  4  0  0  0  0
 94 95  4  0  0  0  0
 60 96  1  0  0  0  0
 62 97  1  0  0  0  0
 63 98  1  0  0  0  0
 68 99  1  0  0  0  0
 69100  1  0  0  0  0
 69101  1  0  0  0  0
 70102  1  0  0  0  0
 71103  1  0  0  0  0
 72104  1  0  0  0  0
 74105  1  0  0  0  0
 75106  1  0  0  0  0
 80107  1  0  0  0  0
 81108  1  0  0  0  0
 86109  1  0  0  0  0
 87110  1  0  0  0  0
 87111  1  0  0  0  0
 88112  1  0  0  0  0
 89113  1  0  0  0  0
 90114  1  0  0  0  0
 92115  1  0  0  0  0
 93116  1  0  0  0  0
 20117  4  0  0  0  0
117118  3  0  0  0  0
118119  4  0  0  0  0
119120  3  0  0  0  0
120121  4  0  0  0  0
121122  3  0  0  0  0
122123  4  0  0  0  0
123124  3  0  0  0  0
125126  3  0  0  0  0
126127  4  0  0  0  0
127128  3  0  0  0  0
128129  4  0  0  0  0
129130  3  0  0  0  0
130131  4  0  0  0  0
131132  3  0  0  0  0
133134  3  0  0  0  0
134135  4  0  0  0  0
135136  3  0  0  0  0
136137  4  0  0  0  0
137138  3  0  0  0  0
138139  4  0  0  0  0
 78140  4  0  0  0  0
139140  3  0  0  0  0
124142  4  0  0  0  0
142143  4  0  0  0  0
143144  4  0  0  0  0
144145  2  0  0  0  0
145146  4  0  0  0  0
141147  1  0  0  0  0
143147  4  0  0  0  0
146147  4  0  0  0  0
146148  4  0  0  0  0
148149  1  0  0  0  0
149150  2  0  0  0  0
150151  1  0  0  0  0
151152  1  0  0  0  0
152153  1  0  0  0  0
149154  1  0  0  0  0
153154  2  0  0  0  0
148155  4  0  0  0  0
155156  4  0  0  0  0
156157  2  0  0  0  0
141158  1  0  0  0  0
155158  4  0  0  0  0
157159  4  0  0  0  0
158159  4  0  0  0  0
125160  4  0  0  0  0
159160  4  0  0  0  0
160161  4  0  0  0  0
161162  4  0  0  0  0
162163  2  0  0  0  0
163164  4  0  0  0  0
141165  1  0  0  0  0
161165  4  0  0  0  0
164165  4  0  0  0  0
164166  4  0  0  0  0
166167  1  0  0  0  0
167168  2  0  0  0  0
168169  1  0  0  0  0
169170  1  0  0  0  0
170171  1  0  0  0  0
167172  1  0  0  0  0
171172  2  0  0  0  0
166173  4  0  0  0  0
173174  4  0  0  0  0
174175  2  0  0  0  0
142176  4  0  0  0  0
175176  4  0  0  0  0
141177  1  0  0  0  0
173177  4  0  0  0  0
176177  4  0  0  0  0
144178  1  0  0  0  0
145179  1  0  0  0  0
150180  1  0  0  0  0
151181  1  0  0  0  0
151182  1  0  0  0  0
152183  1  0  0  0  0
153184  1  0  0  0  0
154185  1  0  0  0  0
156186  1  0  0  0  0
157187  1  0  0  0  0
162188  1  0  0  0  0
163189  1  0  0  0  0
168190  1  0  0  0  0
169191  1  0  0  0  0
169192  1  0  0  0  0
170193  1  0  0  0  0
171194  1  0  0  0  0
172195  1  0  0  0  0
174196  1  0  0  0  0
175197  1  0  0  0  0
132199  4  0  0  0  0
199200  4  0  0  0  0
200201  4  0  0  0  0
201202  2  0  0  0  0
202203  4  0  0  0  0
198204  1  0  0  0  0
200204  4  0  0  0  0
203204  4  0  0  0  0
203205  4  0  0  0  0
205206  1  0  0  0  0
206207  2  0  0  0  0
207208  1  0  0  0  0
208209  1  0  0  0  0
209210  1  0  0  0  0
206211  1  0  0  0  0
210211  2  0  0  0  0
205212  4  0  0  0  0
212213  4  0  0  0  0
213214  2  0  0  0  0
198215  1  0  0  0  0
212215  4  0  0  0  0
214216  4  0  0  0  0
215216  4  0  0  0  0
133217  4  0  0  0  0
216217  4  0  0  0  0
217218  4  0  0  0  0
218219  4  0  0  0  0
219220  2  0  0  0  0
220221  4  0  0  0  0
198222  1  0  0  0  0
218222  4  0  0  0  0
221222  4  0  0  0  0
221223  4  0  0  0  0
223224  1  0  0  0  0
224225  2  0  0  0  0
225226  1  0  0  0  0
226227  1  0  0  0  0
227228  1  0  0  0  0
224229  1  0  0  0  0
228229  2  0  0  0  0
223230  4  0  0  0  0
230231  4  0  0  0  0
231232  2  0  0  0  0
199233  4  0  0  0  0
232233  4  0  0  0  0
198234  1  0  0  0  0
230234  4  0  0  0  0
233234  4  0  0  0  0
201235  1  0  0  0  0
202236  1  0  0  0  0
207237  1  0  0  0  0
208238  1  0  0  0  0
208239  1  0  0  0  0
209240  1  0  0  0  0
210241  1  0  0  0  0
211242  1  0  0  0  0
213243  1  0  0  0  0
214244  1  0  0  0  0
219245  1  0  0  0  0
220246  1  0  0  0  0
225247  1  0  0  0  0
226248  1  0  0  0  0
226249  1  0  0  0  0
227250  1  0  0  0  0
228251  1  0  0  0  0
229252  1  0  0  0  0
231253  1  0  0  0  0
232254  1  0  0  0  0
M  END
