 xtb: 6.5.1 (b24c23e)
          07292217203D

238265  0     0  0            999 V2000
   39.5440   -0.0743    0.0356 C   0  0  0  0  0  0  0  0  0  0  0  0
   40.1564   -1.1561    0.6549 C   0  0  0  0  0  0  0  0  0  0  0  0
   39.5080   -2.2716    1.2560 C   0  0  0  0  0  0  0  0  0  0  0  0
   40.4723   -3.1007    1.7557 C   0  0  0  0  0  0  0  0  0  0  0  0
   41.7414   -2.5141    1.4838 C   0  0  0  0  0  0  0  0  0  0  0  0
   41.4999   -1.3495    0.8117 N   0  0  0  0  0  0  0  0  0  0  0  0
   43.0053   -3.0192    1.8082 C   0  0  0  0  0  0  0  0  0  0  0  0
   44.2189   -2.4138    1.4728 C   0  0  0  0  0  0  0  0  0  0  0  0
   45.5183   -2.9303    1.8644 C   0  0  0  0  0  0  0  0  0  0  0  0
   46.4358   -2.0802    1.3593 C   0  0  0  0  0  0  0  0  0  0  0  0
   44.3688   -1.2626    0.7624 N   0  0  0  0  0  0  0  0  0  0  0  0
   45.6959   -1.0398    0.6711 C   0  0  0  0  0  0  0  0  0  0  0  0
   46.3275    0.0388    0.0218 C   0  0  0  0  0  0  0  0  0  0  0  0
   45.6906    1.1136   -0.6244 C   0  0  0  0  0  0  0  0  0  0  0  0
   46.3332    2.1843   -1.3015 C   0  0  0  0  0  0  0  0  0  0  0  0
   45.3648    3.0133   -1.7955 C   0  0  0  0  0  0  0  0  0  0  0  0
   44.0990    2.4784   -1.4267 C   0  0  0  0  0  0  0  0  0  0  0  0
   42.8359    2.9957   -1.7321 C   0  0  0  0  0  0  0  0  0  0  0  0
   42.8009    4.2711   -2.4888 C   0  0  0  0  0  0  0  0  0  0  0  0
   42.2011    4.3297   -3.7477 C   0  0  0  0  0  0  0  0  0  0  0  0
   42.1739    5.5210   -4.4569 C   0  0  0  0  0  0  0  0  0  0  0  0
   42.7399    6.6682   -3.9174 C   0  0  0  0  0  0  0  0  0  0  0  0
   43.3359    6.6190   -2.6646 C   0  0  0  0  0  0  0  0  0  0  0  0
   43.3695    5.4283   -1.9544 C   0  0  0  0  0  0  0  0  0  0  0  0
   41.6215    2.3987   -1.3778 C   0  0  0  0  0  0  0  0  0  0  0  0
   40.3148    2.9752   -1.6543 C   0  0  0  0  0  0  0  0  0  0  0  0
   39.4042    2.1124   -1.1602 C   0  0  0  0  0  0  0  0  0  0  0  0
   40.1532    1.0152   -0.5732 C   0  0  0  0  0  0  0  0  0  0  0  0
   41.4847    1.2253   -0.7157 N   0  0  0  0  0  0  0  0  0  0  0  0
   44.3482    1.3275   -0.7267 N   0  0  0  0  0  0  0  0  0  0  0  0
   43.0397   -4.2927    2.5692 C   0  0  0  0  0  0  0  0  0  0  0  0
   42.4588   -4.3748    3.8355 C   0  0  0  0  0  0  0  0  0  0  0  0
   42.4952   -5.5640    4.5482 C   0  0  0  0  0  0  0  0  0  0  0  0
   43.1062   -6.6855    4.0042 C   0  0  0  0  0  0  0  0  0  0  0  0
   43.6832   -6.6128    2.7436 C   0  0  0  0  0  0  0  0  0  0  0  0
   43.6528   -5.4243    2.0298 C   0  0  0  0  0  0  0  0  0  0  0  0
   38.4586   -0.0891    0.0339 H   0  0  0  0  0  0  0  0  0  0  0  0
   38.4393   -2.4121    1.2897 H   0  0  0  0  0  0  0  0  0  0  0  0
   40.3244   -4.0414    2.2609 H   0  0  0  0  0  0  0  0  0  0  0  0
   42.2235   -0.7232    0.4749 H   0  0  0  0  0  0  0  0  0  0  0  0
   45.6839   -3.8154    2.4571 H   0  0  0  0  0  0  0  0  0  0  0  0
   47.5102   -2.1245    1.4394 H   0  0  0  0  0  0  0  0  0  0  0  0
   47.4014    2.2934   -1.3985 H   0  0  0  0  0  0  0  0  0  0  0  0
   45.5105    3.9110   -2.3739 H   0  0  0  0  0  0  0  0  0  0  0  0
   41.7708    3.4317   -4.1767 H   0  0  0  0  0  0  0  0  0  0  0  0
   41.7099    5.5534   -5.4365 H   0  0  0  0  0  0  0  0  0  0  0  0
   42.7166    7.5992   -4.4724 H   0  0  0  0  0  0  0  0  0  0  0  0
   43.7762    7.5129   -2.2369 H   0  0  0  0  0  0  0  0  0  0  0  0
   43.8229    5.3957   -0.9698 H   0  0  0  0  0  0  0  0  0  0  0  0
   40.1433    3.9185   -2.1473 H   0  0  0  0  0  0  0  0  0  0  0  0
   38.3280    2.1874   -1.1688 H   0  0  0  0  0  0  0  0  0  0  0  0
   43.6270    0.7200   -0.3518 H   0  0  0  0  0  0  0  0  0  0  0  0
   41.9941   -3.4960    4.2687 H   0  0  0  0  0  0  0  0  0  0  0  0
   42.0459   -5.6142    5.5339 H   0  0  0  0  0  0  0  0  0  0  0  0
   43.1331   -7.6147    4.5621 H   0  0  0  0  0  0  0  0  0  0  0  0
   44.1591   -7.4869    2.3130 H   0  0  0  0  0  0  0  0  0  0  0  0
   44.0928   -5.3730    1.0401 H   0  0  0  0  0  0  0  0  0  0  0  0
   86.6382    0.0539   -0.0616 C   0  0  0  0  0  0  0  0  0  0  0  0
   86.0210    1.0849   -0.7583 C   0  0  0  0  0  0  0  0  0  0  0  0
   86.6639    2.1132   -1.5033 C   0  0  0  0  0  0  0  0  0  0  0  0
   85.6961    2.9313   -2.0145 C   0  0  0  0  0  0  0  0  0  0  0  0
   84.4304    2.4353   -1.5894 C   0  0  0  0  0  0  0  0  0  0  0  0
   84.6772    1.3158   -0.8460 N   0  0  0  0  0  0  0  0  0  0  0  0
   83.1647    2.9613   -1.8710 C   0  0  0  0  0  0  0  0  0  0  0  0
   81.9550    2.3993   -1.4552 C   0  0  0  0  0  0  0  0  0  0  0  0
   80.6554    2.9981   -1.7022 C   0  0  0  0  0  0  0  0  0  0  0  0
   79.7412    2.1612   -1.1694 C   0  0  0  0  0  0  0  0  0  0  0  0
   81.8092    1.2359   -0.7638 N   0  0  0  0  0  0  0  0  0  0  0  0
   80.4835    1.0585   -0.5896 C   0  0  0  0  0  0  0  0  0  0  0  0
   79.8553   -0.0363    0.0360 C   0  0  0  0  0  0  0  0  0  0  0  0
   80.4973   -1.1181    0.6657 C   0  0  0  0  0  0  0  0  0  0  0  0
   79.8606   -2.2255    1.2867 C   0  0  0  0  0  0  0  0  0  0  0  0
   80.8327   -3.0313    1.8114 C   0  0  0  0  0  0  0  0  0  0  0  0
   82.0943   -2.4360    1.5323 C   0  0  0  0  0  0  0  0  0  0  0  0
   83.3589   -2.9206    1.8827 C   0  0  0  0  0  0  0  0  0  0  0  0
   83.3972   -4.1631    2.6917 C   0  0  0  0  0  0  0  0  0  0  0  0
   84.0291   -5.3080    2.2041 C   0  0  0  0  0  0  0  0  0  0  0  0
   84.0601   -6.4687    2.9623 C   0  0  0  0  0  0  0  0  0  0  0  0
   83.4660   -6.4999    4.2167 C   0  0  0  0  0  0  0  0  0  0  0  0
   82.8372   -5.3647    4.7099 C   0  0  0  0  0  0  0  0  0  0  0  0
   82.7996   -4.2037    3.9525 C   0  0  0  0  0  0  0  0  0  0  0  0
   84.5707   -2.3193    1.5266 C   0  0  0  0  0  0  0  0  0  0  0  0
   85.8786   -2.8064    1.9365 C   0  0  0  0  0  0  0  0  0  0  0  0
   86.7859   -1.9752    1.3853 C   0  0  0  0  0  0  0  0  0  0  0  0
   86.0333   -0.9734    0.6509 C   0  0  0  0  0  0  0  0  0  0  0  0
   84.7030   -1.2059    0.7671 N   0  0  0  0  0  0  0  0  0  0  0  0
   81.8398   -1.2888    0.8283 N   0  0  0  0  0  0  0  0  0  0  0  0
   83.1224    4.2076   -2.6747 C   0  0  0  0  0  0  0  0  0  0  0  0
   83.7338    5.3732   -2.2106 C   0  0  0  0  0  0  0  0  0  0  0  0
   83.6914    6.5358   -2.9654 C   0  0  0  0  0  0  0  0  0  0  0  0
   83.0436    6.5483   -4.1931 C   0  0  0  0  0  0  0  0  0  0  0  0
   82.4350    5.3924   -4.6629 C   0  0  0  0  0  0  0  0  0  0  0  0
   82.4715    4.2291   -3.9092 C   0  0  0  0  0  0  0  0  0  0  0  0
   87.7234    0.0614   -0.0792 H   0  0  0  0  0  0  0  0  0  0  0  0
   87.7313    2.2007   -1.6291 H   0  0  0  0  0  0  0  0  0  0  0  0
   85.8398    3.7985   -2.6385 H   0  0  0  0  0  0  0  0  0  0  0  0
   83.9567    0.7400   -0.4235 H   0  0  0  0  0  0  0  0  0  0  0  0
   80.4879    3.9381   -2.2026 H   0  0  0  0  0  0  0  0  0  0  0  0
   78.6677    2.2615   -1.1501 H   0  0  0  0  0  0  0  0  0  0  0  0
   78.7939   -2.3782    1.3200 H   0  0  0  0  0  0  0  0  0  0  0  0
   80.6924   -3.9615    2.3375 H   0  0  0  0  0  0  0  0  0  0  0  0
   84.4816   -5.2901    1.2189 H   0  0  0  0  0  0  0  0  0  0  0  0
   84.5494   -7.3538    2.5711 H   0  0  0  0  0  0  0  0  0  0  0  0
   83.4928   -7.4075    4.8090 H   0  0  0  0  0  0  0  0  0  0  0  0
   82.3745   -5.3825    5.6905 H   0  0  0  0  0  0  0  0  0  0  0  0
   82.3203   -3.3140    4.3458 H   0  0  0  0  0  0  0  0  0  0  0  0
   86.0532   -3.6612    2.5699 H   0  0  0  0  0  0  0  0  0  0  0  0
   87.8619   -2.0052    1.4586 H   0  0  0  0  0  0  0  0  0  0  0  0
   82.5575   -0.6623    0.4790 H   0  0  0  0  0  0  0  0  0  0  0  0
   84.2272    5.3705   -1.2449 H   0  0  0  0  0  0  0  0  0  0  0  0
   84.1652    7.4369   -2.5920 H   0  0  0  0  0  0  0  0  0  0  0  0
   83.0126    7.4575   -4.7827 H   0  0  0  0  0  0  0  0  0  0  0  0
   81.9299    5.3960   -5.6224 H   0  0  0  0  0  0  0  0  0  0  0  0
   82.0071    3.3237   -4.2836 H   0  0  0  0  0  0  0  0  0  0  0  0
   48.9575    0.0662    0.0006 C   0  0  0  0  0  0  0  0  0  0  0  0
   47.7362    0.0553    0.0117 C   0  0  0  0  0  0  0  0  0  0  0  0
   50.3087    0.0715   -0.0104 C   0  0  0  0  0  0  0  0  0  0  0  0
   51.5302    0.0678   -0.0228 C   0  0  0  0  0  0  0  0  0  0  0  0
   62.4187    0.0099   -0.0204 C   0  0  0  0  0  0  0  0  0  0  0  0
   61.1962    0.0273   -0.0199 C   0  0  0  0  0  0  0  0  0  0  0  0
   63.7669   -0.0041   -0.0207 C   0  0  0  0  0  0  0  0  0  0  0  0
   64.9894   -0.0200   -0.0235 C   0  0  0  0  0  0  0  0  0  0  0  0
   75.8752   -0.0952    0.0212 C   0  0  0  0  0  0  0  0  0  0  0  0
   74.6536   -0.0958    0.0071 C   0  0  0  0  0  0  0  0  0  0  0  0
   77.2259   -0.0830    0.0316 C   0  0  0  0  0  0  0  0  0  0  0  0
   78.4473   -0.0618    0.0382 C   0  0  0  0  0  0  0  0  0  0  0  0
   52.9380    0.0669   -0.0308 C   0  0  0  0  0  0  0  0  0  0  0  0
   53.5655    1.2338    0.4433 C   0  0  0  0  0  0  0  0  0  0  0  0
   52.9181    2.3906    0.9500 C   0  0  0  0  0  0  0  0  0  0  0  0
   53.8841    3.2920    1.3052 C   0  0  0  0  0  0  0  0  0  0  0  0
   55.1504    2.7138    1.0177 C   0  0  0  0  0  0  0  0  0  0  0  0
   54.9071    1.4678    0.5047 N   0  0  0  0  0  0  0  0  0  0  0  0
   56.4109    3.2837    1.2332 C   0  0  0  0  0  0  0  0  0  0  0  0
   57.6344    2.6640    0.9764 C   0  0  0  0  0  0  0  0  0  0  0  0
   58.9223    3.3083    1.1619 C   0  0  0  0  0  0  0  0  0  0  0  0
   59.8577    2.4011    0.8124 C   0  0  0  0  0  0  0  0  0  0  0  0
   57.8089    1.3978    0.5058 N   0  0  0  0  0  0  0  0  0  0  0  0
   59.1396    1.2092    0.4060 C   0  0  0  0  0  0  0  0  0  0  0  0
   59.7919    0.0360   -0.0247 C   0  0  0  0  0  0  0  0  0  0  0  0
   59.1625   -1.1432   -0.4685 C   0  0  0  0  0  0  0  0  0  0  0  0
   59.8095   -2.3365   -0.8819 C   0  0  0  0  0  0  0  0  0  0  0  0
   58.8435   -3.2342   -1.2462 C   0  0  0  0  0  0  0  0  0  0  0  0
   57.5779   -2.6107   -1.0726 C   0  0  0  0  0  0  0  0  0  0  0  0
   56.3181   -3.1683   -1.3195 C   0  0  0  0  0  0  0  0  0  0  0  0
   56.3027   -4.5449   -1.8752 C   0  0  0  0  0  0  0  0  0  0  0  0
   56.8714   -4.8099   -3.1217 C   0  0  0  0  0  0  0  0  0  0  0  0
   56.8528   -6.0955   -3.6416 C   0  0  0  0  0  0  0  0  0  0  0  0
   56.2735   -7.1313   -2.9215 C   0  0  0  0  0  0  0  0  0  0  0  0
   55.7095   -6.8762   -1.6788 C   0  0  0  0  0  0  0  0  0  0  0  0
   55.7207   -5.5909   -1.1582 C   0  0  0  0  0  0  0  0  0  0  0  0
   55.0943   -2.5381   -1.0878 C   0  0  0  0  0  0  0  0  0  0  0  0
   53.8067   -3.1316   -1.4014 C   0  0  0  0  0  0  0  0  0  0  0  0
   52.8712   -2.2317   -1.0342 C   0  0  0  0  0  0  0  0  0  0  0  0
   53.5887   -1.0865   -0.5093 C   0  0  0  0  0  0  0  0  0  0  0  0
   54.9205   -1.2952   -0.5611 N   0  0  0  0  0  0  0  0  0  0  0  0
   57.8218   -1.3515   -0.5926 N   0  0  0  0  0  0  0  0  0  0  0  0
   56.4278    4.6620    1.7850 C   0  0  0  0  0  0  0  0  0  0  0  0
   55.8711    5.7208    1.0667 C   0  0  0  0  0  0  0  0  0  0  0  0
   55.8917    7.0069    1.5854 C   0  0  0  0  0  0  0  0  0  0  0  0
   56.4611    7.2497    2.8280 C   0  0  0  0  0  0  0  0  0  0  0  0
   57.0138    6.2007    3.5502 C   0  0  0  0  0  0  0  0  0  0  0  0
   57.0007    4.9145    3.0322 C   0  0  0  0  0  0  0  0  0  0  0  0
   51.8497    2.5071    1.0343 H   0  0  0  0  0  0  0  0  0  0  0  0
   53.7350    4.2679    1.7375 H   0  0  0  0  0  0  0  0  0  0  0  0
   55.6278    0.8115    0.2235 H   0  0  0  0  0  0  0  0  0  0  0  0
   59.0683    4.3213    1.5004 H   0  0  0  0  0  0  0  0  0  0  0  0
   60.9310    2.5056    0.8132 H   0  0  0  0  0  0  0  0  0  0  0  0
   60.8776   -2.4825   -0.8910 H   0  0  0  0  0  0  0  0  0  0  0  0
   58.9916   -4.2430   -1.5953 H   0  0  0  0  0  0  0  0  0  0  0  0
   57.3131   -3.9995   -3.6910 H   0  0  0  0  0  0  0  0  0  0  0  0
   57.2917   -6.2886   -4.6142 H   0  0  0  0  0  0  0  0  0  0  0  0
   56.2614   -8.1361   -3.3282 H   0  0  0  0  0  0  0  0  0  0  0  0
   55.2589   -7.6827   -1.1111 H   0  0  0  0  0  0  0  0  0  0  0  0
   55.2900   -5.3950   -0.1826 H   0  0  0  0  0  0  0  0  0  0  0  0
   53.6611   -4.0995   -1.8531 H   0  0  0  0  0  0  0  0  0  0  0  0
   51.7982   -2.3065   -1.1102 H   0  0  0  0  0  0  0  0  0  0  0  0
   57.1015   -0.6767   -0.3579 H   0  0  0  0  0  0  0  0  0  0  0  0
   55.4372    5.5353    0.0904 H   0  0  0  0  0  0  0  0  0  0  0  0
   55.4621    7.8235    1.0157 H   0  0  0  0  0  0  0  0  0  0  0  0
   56.4744    8.2553    3.2330 H   0  0  0  0  0  0  0  0  0  0  0  0
   57.4571    6.3846    4.5226 H   0  0  0  0  0  0  0  0  0  0  0  0
   57.4229    4.0940    3.6017 H   0  0  0  0  0  0  0  0  0  0  0  0
   66.3936   -0.0294   -0.0264 C   0  0  0  0  0  0  0  0  0  0  0  0
   67.0264    1.1242    0.4760 C   0  0  0  0  0  0  0  0  0  0  0  0
   66.3836    2.2705    1.0109 C   0  0  0  0  0  0  0  0  0  0  0  0
   67.3523    3.1706    1.3620 C   0  0  0  0  0  0  0  0  0  0  0  0
   68.6153    2.6021    1.0427 C   0  0  0  0  0  0  0  0  0  0  0  0
   68.3675    1.3602    0.5212 N   0  0  0  0  0  0  0  0  0  0  0  0
   69.8767    3.1806    1.2254 C   0  0  0  0  0  0  0  0  0  0  0  0
   71.0973    2.5658    0.9416 C   0  0  0  0  0  0  0  0  0  0  0  0
   72.3852    3.2213    1.0831 C   0  0  0  0  0  0  0  0  0  0  0  0
   73.3181    2.3097    0.7388 C   0  0  0  0  0  0  0  0  0  0  0  0
   71.2678    1.2910    0.4963 N   0  0  0  0  0  0  0  0  0  0  0  0
   72.5985    1.1036    0.3795 C   0  0  0  0  0  0  0  0  0  0  0  0
   73.2465   -0.0860   -0.0062 C   0  0  0  0  0  0  0  0  0  0  0  0
   72.6143   -1.2757   -0.4132 C   0  0  0  0  0  0  0  0  0  0  0  0
   73.2560   -2.4831   -0.7928 C   0  0  0  0  0  0  0  0  0  0  0  0
   72.2874   -3.3763   -1.1618 C   0  0  0  0  0  0  0  0  0  0  0  0
   71.0256   -2.7366   -1.0244 C   0  0  0  0  0  0  0  0  0  0  0  0
   69.7648   -3.2803   -1.2999 C   0  0  0  0  0  0  0  0  0  0  0  0
   69.7455   -4.6565   -1.8560 C   0  0  0  0  0  0  0  0  0  0  0  0
   70.3498   -4.9309   -3.0837 C   0  0  0  0  0  0  0  0  0  0  0  0
   70.3250   -6.2154   -3.6059 C   0  0  0  0  0  0  0  0  0  0  0  0
   69.7037   -7.2413   -2.9068 C   0  0  0  0  0  0  0  0  0  0  0  0
   69.1043   -6.9772   -1.6827 C   0  0  0  0  0  0  0  0  0  0  0  0
   69.1216   -5.6928   -1.1601 C   0  0  0  0  0  0  0  0  0  0  0  0
   68.5440   -2.6357   -1.0969 C   0  0  0  0  0  0  0  0  0  0  0  0
   67.2566   -3.2106   -1.4437 C   0  0  0  0  0  0  0  0  0  0  0  0
   66.3237   -2.3052   -1.0829 C   0  0  0  0  0  0  0  0  0  0  0  0
   67.0431   -1.1755   -0.5285 C   0  0  0  0  0  0  0  0  0  0  0  0
   68.3724   -1.3955   -0.5604 N   0  0  0  0  0  0  0  0  0  0  0  0
   71.2732   -1.4739   -0.5565 N   0  0  0  0  0  0  0  0  0  0  0  0
   69.8988    4.5617    1.7690 C   0  0  0  0  0  0  0  0  0  0  0  0
   69.3052    5.6103    1.0651 C   0  0  0  0  0  0  0  0  0  0  0  0
   69.3296    6.8995    1.5757 C   0  0  0  0  0  0  0  0  0  0  0  0
   69.9396    7.1557    2.7961 C   0  0  0  0  0  0  0  0  0  0  0  0
   70.5293    6.1170    3.5039 C   0  0  0  0  0  0  0  0  0  0  0  0
   70.5127    4.8277    2.9937 C   0  0  0  0  0  0  0  0  0  0  0  0
   65.3163    2.3817    1.1146 H   0  0  0  0  0  0  0  0  0  0  0  0
   67.2075    4.1396    1.8110 H   0  0  0  0  0  0  0  0  0  0  0  0
   69.0855    0.7109    0.2178 H   0  0  0  0  0  0  0  0  0  0  0  0
   72.5322    4.2439    1.3909 H   0  0  0  0  0  0  0  0  0  0  0  0
   74.3905    2.4198    0.7148 H   0  0  0  0  0  0  0  0  0  0  0  0
   74.3225   -2.6400   -0.7800 H   0  0  0  0  0  0  0  0  0  0  0  0
   72.4315   -4.3920   -1.4926 H   0  0  0  0  0  0  0  0  0  0  0  0
   70.8241   -4.1281   -3.6374 H   0  0  0  0  0  0  0  0  0  0  0  0
   70.7917   -6.4155   -4.5641 H   0  0  0  0  0  0  0  0  0  0  0  0
   69.6866   -8.2452   -3.3156 H   0  0  0  0  0  0  0  0  0  0  0  0
   68.6206   -7.7758   -1.1312 H   0  0  0  0  0  0  0  0  0  0  0  0
   68.6627   -5.4903   -0.1989 H   0  0  0  0  0  0  0  0  0  0  0  0
   67.1092   -4.1709   -1.9108 H   0  0  0  0  0  0  0  0  0  0  0  0
   65.2515   -2.3675   -1.1799 H   0  0  0  0  0  0  0  0  0  0  0  0
   70.5560   -0.7873   -0.3481 H   0  0  0  0  0  0  0  0  0  0  0  0
   68.8395    5.4143    0.1056 H   0  0  0  0  0  0  0  0  0  0  0  0
   68.8710    7.7079    1.0171 H   0  0  0  0  0  0  0  0  0  0  0  0
   69.9556    8.1635    3.1952 H   0  0  0  0  0  0  0  0  0  0  0  0
   71.0043    6.3116    4.4590 H   0  0  0  0  0  0  0  0  0  0  0  0
   70.9637    4.0153    3.5525 H   0  0  0  0  0  0  0  0  0  0  0  0
  1  2  4  0  0  0  0
  2  3  4  0  0  0  0
  3  4  2  0  0  0  0
  4  5  4  0  0  0  0
  2  6  4  0  0  0  0
  5  6  4  0  0  0  0
  5  7  4  0  0  0  0
  7  8  4  0  0  0  0
  8  9  1  0  0  0  0
  9 10  2  0  0  0  0
  8 11  4  0  0  0  0
 10 12  1  0  0  0  0
 11 12  4  0  0  0  0
 12 13  4  0  0  0  0
 13 14  4  0  0  0  0
 14 15  4  0  0  0  0
 15 16  2  0  0  0  0
 16 17  4  0  0  0  0
 17 18  4  0  0  0  0
 18 19  1  0  0  0  0
 19 20  4  0  0  0  0
 20 21  4  0  0  0  0
 21 22  4  0  0  0  0
 22 23  4  0  0  0  0
 19 24  4  0  0  0  0
 23 24  4  0  0  0  0
 18 25  4  0  0  0  0
 25 26  1  0  0  0  0
 26 27  2  0  0  0  0
  1 28  4  0  0  0  0
 27 28  1  0  0  0  0
 25 29  4  0  0  0  0
 28 29  4  0  0  0  0
 14 30  4  0  0  0  0
 17 30  4  0  0  0  0
  7 31  1  0  0  0  0
 31 32  4  0  0  0  0
 32 33  4  0  0  0  0
 33 34  4  0  0  0  0
 34 35  4  0  0  0  0
 31 36  4  0  0  0  0
 35 36  4  0  0  0  0
  1 37  1  0  0  0  0
  3 38  1  0  0  0  0
  4 39  1  0  0  0  0
  6 40  1  0  0  0  0
  9 41  1  0  0  0  0
 10 42  1  0  0  0  0
 15 43  1  0  0  0  0
 16 44  1  0  0  0  0
 20 45  1  0  0  0  0
 21 46  1  0  0  0  0
 22 47  1  0  0  0  0
 23 48  1  0  0  0  0
 24 49  1  0  0  0  0
 26 50  1  0  0  0  0
 27 51  1  0  0  0  0
 30 52  1  0  0  0  0
 32 53  1  0  0  0  0
 33 54  1  0  0  0  0
 34 55  1  0  0  0  0
 35 56  1  0  0  0  0
 36 57  1  0  0  0  0
 58 59  4  0  0  0  0
 59 60  4  0  0  0  0
 60 61  2  0  0  0  0
 61 62  4  0  0  0  0
 59 63  4  0  0  0  0
 62 63  4  0  0  0  0
 62 64  4  0  0  0  0
 64 65  4  0  0  0  0
 65 66  1  0  0  0  0
 66 67  2  0  0  0  0
 65 68  4  0  0  0  0
 67 69  1  0  0  0  0
 68 69  4  0  0  0  0
 69 70  4  0  0  0  0
 70 71  4  0  0  0  0
 71 72  4  0  0  0  0
 72 73  2  0  0  0  0
 73 74  4  0  0  0  0
 74 75  4  0  0  0  0
 75 76  1  0  0  0  0
 76 77  4  0  0  0  0
 77 78  4  0  0  0  0
 78 79  4  0  0  0  0
 79 80  4  0  0  0  0
 76 81  4  0  0  0  0
 80 81  4  0  0  0  0
 75 82  4  0  0  0  0
 82 83  1  0  0  0  0
 83 84  2  0  0  0  0
 58 85  4  0  0  0  0
 84 85  1  0  0  0  0
 82 86  4  0  0  0  0
 85 86  4  0  0  0  0
 71 87  4  0  0  0  0
 74 87  4  0  0  0  0
 64 88  1  0  0  0  0
 88 89  4  0  0  0  0
 89 90  4  0  0  0  0
 90 91  4  0  0  0  0
 91 92  4  0  0  0  0
 88 93  4  0  0  0  0
 92 93  4  0  0  0  0
 58 94  1  0  0  0  0
 60 95  1  0  0  0  0
 61 96  1  0  0  0  0
 63 97  1  0  0  0  0
 66 98  1  0  0  0  0
 67 99  1  0  0  0  0
 72100  1  0  0  0  0
 73101  1  0  0  0  0
 77102  1  0  0  0  0
 78103  1  0  0  0  0
 79104  1  0  0  0  0
 80105  1  0  0  0  0
 81106  1  0  0  0  0
 83107  1  0  0  0  0
 84108  1  0  0  0  0
 87109  1  0  0  0  0
 89110  1  0  0  0  0
 90111  1  0  0  0  0
 91112  1  0  0  0  0
 92113  1  0  0  0  0
 93114  1  0  0  0  0
 13116  4  0  0  0  0
115116  3  0  0  0  0
115117  4  0  0  0  0
117118  3  0  0  0  0
119120  3  0  0  0  0
119121  4  0  0  0  0
121122  3  0  0  0  0
123124  3  0  0  0  0
123125  4  0  0  0  0
 70126  4  0  0  0  0
125126  3  0  0  0  0
118127  4  0  0  0  0
127128  4  0  0  0  0
128129  4  0  0  0  0
129130  2  0  0  0  0
130131  4  0  0  0  0
128132  4  0  0  0  0
131132  4  0  0  0  0
131133  4  0  0  0  0
133134  4  0  0  0  0
134135  1  0  0  0  0
135136  2  0  0  0  0
134137  4  0  0  0  0
136138  1  0  0  0  0
137138  4  0  0  0  0
120139  4  0  0  0  0
138139  4  0  0  0  0
139140  4  0  0  0  0
140141  4  0  0  0  0
141142  2  0  0  0  0
142143  4  0  0  0  0
143144  4  0  0  0  0
144145  1  0  0  0  0
145146  4  0  0  0  0
146147  4  0  0  0  0
147148  4  0  0  0  0
148149  4  0  0  0  0
145150  4  0  0  0  0
149150  4  0  0  0  0
144151  4  0  0  0  0
151152  1  0  0  0  0
152153  2  0  0  0  0
127154  4  0  0  0  0
153154  1  0  0  0  0
151155  4  0  0  0  0
154155  4  0  0  0  0
140156  4  0  0  0  0
143156  4  0  0  0  0
133157  1  0  0  0  0
157158  4  0  0  0  0
158159  4  0  0  0  0
159160  4  0  0  0  0
160161  4  0  0  0  0
157162  4  0  0  0  0
161162  4  0  0  0  0
129163  1  0  0  0  0
130164  1  0  0  0  0
132165  1  0  0  0  0
135166  1  0  0  0  0
136167  1  0  0  0  0
141168  1  0  0  0  0
142169  1  0  0  0  0
146170  1  0  0  0  0
147171  1  0  0  0  0
148172  1  0  0  0  0
149173  1  0  0  0  0
150174  1  0  0  0  0
152175  1  0  0  0  0
153176  1  0  0  0  0
156177  1  0  0  0  0
158178  1  0  0  0  0
159179  1  0  0  0  0
160180  1  0  0  0  0
161181  1  0  0  0  0
162182  1  0  0  0  0
122183  4  0  0  0  0
183184  4  0  0  0  0
184185  4  0  0  0  0
185186  2  0  0  0  0
186187  4  0  0  0  0
184188  4  0  0  0  0
187188  4  0  0  0  0
187189  4  0  0  0  0
189190  4  0  0  0  0
190191  1  0  0  0  0
191192  2  0  0  0  0
190193  4  0  0  0  0
192194  1  0  0  0  0
193194  4  0  0  0  0
124195  4  0  0  0  0
194195  4  0  0  0  0
195196  4  0  0  0  0
196197  4  0  0  0  0
197198  2  0  0  0  0
198199  4  0  0  0  0
199200  4  0  0  0  0
200201  1  0  0  0  0
201202  4  0  0  0  0
202203  4  0  0  0  0
203204  4  0  0  0  0
204205  4  0  0  0  0
201206  4  0  0  0  0
205206  4  0  0  0  0
200207  4  0  0  0  0
207208  1  0  0  0  0
208209  2  0  0  0  0
183210  4  0  0  0  0
209210  1  0  0  0  0
207211  4  0  0  0  0
210211  4  0  0  0  0
196212  4  0  0  0  0
199212  4  0  0  0  0
189213  1  0  0  0  0
213214  4  0  0  0  0
214215  4  0  0  0  0
215216  4  0  0  0  0
216217  4  0  0  0  0
213218  4  0  0  0  0
217218  4  0  0  0  0
185219  1  0  0  0  0
186220  1  0  0  0  0
188221  1  0  0  0  0
191222  1  0  0  0  0
192223  1  0  0  0  0
197224  1  0  0  0  0
198225  1  0  0  0  0
202226  1  0  0  0  0
203227  1  0  0  0  0
204228  1  0  0  0  0
205229  1  0  0  0  0
206230  1  0  0  0  0
208231  1  0  0  0  0
209232  1  0  0  0  0
212233  1  0  0  0  0
214234  1  0  0  0  0
215235  1  0  0  0  0
216236  1  0  0  0  0
217237  1  0  0  0  0
218238  1  0  0  0  0
M  END
