 xtb: 6.5.1 (b24c23e)
          07292217083D

226265  0     0  0            999 V2000
   37.1385   -0.0075   -0.0134 Fe  0  0  0  0  0  0  0  0  0  0  0  0
   33.7512   -0.0280   -0.0327 C   0  0  0  0  0  0  0  0  0  0  0  0
   34.4032   -1.2425    0.0272 C   0  0  0  0  0  0  0  0  0  0  0  0
   33.7279   -2.5039    0.0840 C   0  0  0  0  0  0  0  0  0  0  0  0
   34.6826   -3.4479    0.2563 C   0  0  0  0  0  0  0  0  0  0  0  0
   35.9419   -2.7618    0.2994 C   0  0  0  0  0  0  0  0  0  0  0  0
   35.7584   -1.4157    0.1337 N   0  0  0  0  0  0  0  0  0  0  0  0
   37.1533   -3.3791    0.5916 C   0  0  0  0  0  0  0  0  0  0  0  0
   37.1579   -4.8394    0.8459 C   0  0  0  0  0  0  0  0  0  0  0  0
   37.4687   -5.3559    2.1026 C   0  0  0  0  0  0  0  0  0  0  0  0
   37.4569   -6.7295    2.2888 C   0  0  0  0  0  0  0  0  0  0  0  0
   37.1660   -7.5895    1.3182 N   0  0  0  0  0  0  0  0  0  0  0  0
   36.8710   -7.1044    0.1165 C   0  0  0  0  0  0  0  0  0  0  0  0
   36.8510   -5.7476   -0.1660 C   0  0  0  0  0  0  0  0  0  0  0  0
   38.3560   -2.6908    0.6552 C   0  0  0  0  0  0  0  0  0  0  0  0
   39.6174   -3.3068    0.9432 C   0  0  0  0  0  0  0  0  0  0  0  0
   40.5647   -2.3521    0.7822 C   0  0  0  0  0  0  0  0  0  0  0  0
   38.5348   -1.3643    0.3412 N   0  0  0  0  0  0  0  0  0  0  0  0
   39.8816   -1.1592    0.3890 C   0  0  0  0  0  0  0  0  0  0  0  0
   40.5449    0.0108   -0.0001 C   0  0  0  0  0  0  0  0  0  0  0  0
   39.8710    1.1751   -0.3876 C   0  0  0  0  0  0  0  0  0  0  0  0
   40.5401    2.3664   -0.8085 C   0  0  0  0  0  0  0  0  0  0  0  0
   39.5835    3.3119   -0.9708 C   0  0  0  0  0  0  0  0  0  0  0  0
   38.3326    2.6951   -0.6419 C   0  0  0  0  0  0  0  0  0  0  0  0
   38.5233    1.3708   -0.3271 N   0  0  0  0  0  0  0  0  0  0  0  0
   37.1200    3.3688   -0.6041 C   0  0  0  0  0  0  0  0  0  0  0  0
   37.1130    4.8283   -0.8535 C   0  0  0  0  0  0  0  0  0  0  0  0
   36.4145    5.3778   -1.9279 C   0  0  0  0  0  0  0  0  0  0  0  0
   36.4404    6.7503   -2.1189 C   0  0  0  0  0  0  0  0  0  0  0  0
   37.0995    7.5809   -1.3177 N   0  0  0  0  0  0  0  0  0  0  0  0
   37.7659    7.0654   -0.2897 C   0  0  0  0  0  0  0  0  0  0  0  0
   37.8052    5.7065   -0.0203 C   0  0  0  0  0  0  0  0  0  0  0  0
   35.9108    2.7320   -0.3448 C   0  0  0  0  0  0  0  0  0  0  0  0
   34.6475    3.4070   -0.2637 C   0  0  0  0  0  0  0  0  0  0  0  0
   33.7018    2.4503   -0.1109 C   0  0  0  0  0  0  0  0  0  0  0  0
   34.3889    1.1943   -0.0853 C   0  0  0  0  0  0  0  0  0  0  0  0
   35.7422    1.3828   -0.1903 N   0  0  0  0  0  0  0  0  0  0  0  0
   32.6670   -0.0346   -0.0332 H   0  0  0  0  0  0  0  0  0  0  0  0
   32.6592   -2.6291    0.0123 H   0  0  0  0  0  0  0  0  0  0  0  0
   34.5573   -4.5132    0.3625 H   0  0  0  0  0  0  0  0  0  0  0  0
   37.7020   -4.6913    2.9258 H   0  0  0  0  0  0  0  0  0  0  0  0
   37.6913   -7.1566    3.2594 H   0  0  0  0  0  0  0  0  0  0  0  0
   36.6400   -7.8322   -0.6558 H   0  0  0  0  0  0  0  0  0  0  0  0
   36.6143   -5.3968   -1.1634 H   0  0  0  0  0  0  0  0  0  0  0  0
   39.7520   -4.3406    1.2163 H   0  0  0  0  0  0  0  0  0  0  0  0
   41.6330   -2.4365    0.9006 H   0  0  0  0  0  0  0  0  0  0  0  0
   41.6049    2.4535   -0.9530 H   0  0  0  0  0  0  0  0  0  0  0  0
   39.7029    4.3347   -1.2890 H   0  0  0  0  0  0  0  0  0  0  0  0
   35.8724    4.7376   -2.6136 H   0  0  0  0  0  0  0  0  0  0  0  0
   35.9082    7.2014   -2.9513 H   0  0  0  0  0  0  0  0  0  0  0  0
   38.2924    7.7696    0.3478 H   0  0  0  0  0  0  0  0  0  0  0  0
   38.3530    5.3314    0.8359 H   0  0  0  0  0  0  0  0  0  0  0  0
   34.5148    4.4754   -0.3157 H   0  0  0  0  0  0  0  0  0  0  0  0
   32.6332    2.5649   -0.0217 H   0  0  0  0  0  0  0  0  0  0  0  0
   77.4037    0.0436   -0.0181 Fe  0  0  0  0  0  0  0  0  0  0  0  0
   80.7948    0.0571   -0.0598 C   0  0  0  0  0  0  0  0  0  0  0  0
   80.1441    1.2619   -0.2274 C   0  0  0  0  0  0  0  0  0  0  0  0
   80.8222    2.5132   -0.3841 C   0  0  0  0  0  0  0  0  0  0  0  0
   79.8658    3.4496   -0.5867 C   0  0  0  0  0  0  0  0  0  0  0  0
   78.6052    2.7652   -0.5664 C   0  0  0  0  0  0  0  0  0  0  0  0
   78.7872    1.4331   -0.3122 N   0  0  0  0  0  0  0  0  0  0  0  0
   77.3829    3.3826   -0.8094 C   0  0  0  0  0  0  0  0  0  0  0  0
   77.3734    4.8251   -1.1454 C   0  0  0  0  0  0  0  0  0  0  0  0
   76.7386    5.7541   -0.3221 C   0  0  0  0  0  0  0  0  0  0  0  0
   76.7591    7.0942   -0.6751 C   0  0  0  0  0  0  0  0  0  0  0  0
   77.3544    7.5442   -1.7749 N   0  0  0  0  0  0  0  0  0  0  0  0
   77.9585    6.6644   -2.5670 C   0  0  0  0  0  0  0  0  0  0  0  0
   77.9979    5.3059   -2.2955 C   0  0  0  0  0  0  0  0  0  0  0  0
   76.1721    2.7081   -0.7540 C   0  0  0  0  0  0  0  0  0  0  0  0
   74.9079    3.3102   -1.0579 C   0  0  0  0  0  0  0  0  0  0  0  0
   73.9622    2.3668   -0.8333 C   0  0  0  0  0  0  0  0  0  0  0  0
   75.9987    1.3958   -0.3824 N   0  0  0  0  0  0  0  0  0  0  0  0
   74.6515    1.1917   -0.4000 C   0  0  0  0  0  0  0  0  0  0  0  0
   73.9924    0.0247    0.0064 C   0  0  0  0  0  0  0  0  0  0  0  0
   74.6691   -1.1324    0.4119 C   0  0  0  0  0  0  0  0  0  0  0  0
   73.9960   -2.3232    0.8280 C   0  0  0  0  0  0  0  0  0  0  0  0
   74.9551   -3.2535    1.0491 C   0  0  0  0  0  0  0  0  0  0  0  0
   76.2128   -2.6242    0.7739 C   0  0  0  0  0  0  0  0  0  0  0  0
   76.0193   -1.3155    0.3984 N   0  0  0  0  0  0  0  0  0  0  0  0
   77.4300   -3.2883    0.7974 C   0  0  0  0  0  0  0  0  0  0  0  0
   77.4435   -4.7286    1.1476 C   0  0  0  0  0  0  0  0  0  0  0  0
   77.8092   -5.6951    0.2121 C   0  0  0  0  0  0  0  0  0  0  0  0
   77.8034   -7.0303    0.5842 C   0  0  0  0  0  0  0  0  0  0  0  0
   77.4684   -7.4408    1.8031 N   0  0  0  0  0  0  0  0  0  0  0  0
   77.1214   -6.5248    2.7013 C   0  0  0  0  0  0  0  0  0  0  0  0
   77.0909   -5.1673    2.4227 C   0  0  0  0  0  0  0  0  0  0  0  0
   78.6398   -2.6670    0.5065 C   0  0  0  0  0  0  0  0  0  0  0  0
   79.9103   -3.3318    0.5521 C   0  0  0  0  0  0  0  0  0  0  0  0
   80.8530   -2.3909    0.3112 C   0  0  0  0  0  0  0  0  0  0  0  0
   80.1584   -1.1525    0.1262 C   0  0  0  0  0  0  0  0  0  0  0  0
   78.8046   -1.3368    0.2313 N   0  0  0  0  0  0  0  0  0  0  0  0
   81.8790    0.0623   -0.0681 H   0  0  0  0  0  0  0  0  0  0  0  0
   81.8923    2.6389   -0.3390 H   0  0  0  0  0  0  0  0  0  0  0  0
   79.9892    4.5102   -0.7339 H   0  0  0  0  0  0  0  0  0  0  0  0
   76.2493    5.4330    0.5897 H   0  0  0  0  0  0  0  0  0  0  0  0
   76.2766    7.8376   -0.0473 H   0  0  0  0  0  0  0  0  0  0  0  0
   78.4329    7.0626   -3.4592 H   0  0  0  0  0  0  0  0  0  0  0  0
   78.4934    4.6234   -2.9756 H   0  0  0  0  0  0  0  0  0  0  0  0
   74.7728    4.3218   -1.4042 H   0  0  0  0  0  0  0  0  0  0  0  0
   72.8928    2.4448   -0.9456 H   0  0  0  0  0  0  0  0  0  0  0  0
   72.9267   -2.4222    0.9228 H   0  0  0  0  0  0  0  0  0  0  0  0
   74.8316   -4.2789    1.3569 H   0  0  0  0  0  0  0  0  0  0  0  0
   78.0803   -5.4064   -0.7964 H   0  0  0  0  0  0  0  0  0  0  0  0
   78.0799   -7.8026   -0.1276 H   0  0  0  0  0  0  0  0  0  0  0  0
   76.8551   -6.8915    3.6883 H   0  0  0  0  0  0  0  0  0  0  0  0
   76.8108   -4.4547    3.1892 H   0  0  0  0  0  0  0  0  0  0  0  0
   80.0501   -4.3806    0.7576 H   0  0  0  0  0  0  0  0  0  0  0  0
   81.9248   -2.5029    0.2702 H   0  0  0  0  0  0  0  0  0  0  0  0
   43.1701    0.0171   -0.0076 C   0  0  0  0  0  0  0  0  0  0  0  0
   41.9464    0.0151   -0.0049 C   0  0  0  0  0  0  0  0  0  0  0  0
   44.5166    0.0149   -0.0169 C   0  0  0  0  0  0  0  0  0  0  0  0
   45.7404    0.0101   -0.0218 C   0  0  0  0  0  0  0  0  0  0  0  0
   56.6066    0.0196   -0.0245 C   0  0  0  0  0  0  0  0  0  0  0  0
   55.3816    0.0242   -0.0178 C   0  0  0  0  0  0  0  0  0  0  0  0
   57.9508    0.0126   -0.0320 C   0  0  0  0  0  0  0  0  0  0  0  0
   59.1757    0.0040   -0.0392 C   0  0  0  0  0  0  0  0  0  0  0  0
   70.0223    0.0103   -0.0038 C   0  0  0  0  0  0  0  0  0  0  0  0
   68.7979    0.0097   -0.0129 C   0  0  0  0  0  0  0  0  0  0  0  0
   71.3678    0.0138    0.0004 C   0  0  0  0  0  0  0  0  0  0  0  0
   72.5920    0.0153    0.0042 C   0  0  0  0  0  0  0  0  0  0  0  0
   50.5622    0.0053   -0.0322 Fe  0  0  0  0  0  0  0  0  0  0  0  0
   47.1412    0.0071   -0.0263 C   0  0  0  0  0  0  0  0  0  0  0  0
   47.8106   -0.8538    0.8522 C   0  0  0  0  0  0  0  0  0  0  0  0
   47.1303   -1.7105    1.7713 C   0  0  0  0  0  0  0  0  0  0  0  0
   48.0857   -2.4252    2.4135 C   0  0  0  0  0  0  0  0  0  0  0  0
   49.3444   -2.0045    1.8761 C   0  0  0  0  0  0  0  0  0  0  0  0
   49.1608   -1.0215    0.9352 N   0  0  0  0  0  0  0  0  0  0  0  0
   50.5656   -2.5426    2.2625 C   0  0  0  0  0  0  0  0  0  0  0  0
   50.5644   -3.6467    3.2509 C   0  0  0  0  0  0  0  0  0  0  0  0
   49.9841   -4.8793    2.9556 C   0  0  0  0  0  0  0  0  0  0  0  0
   50.0098   -5.8830    3.9112 C   0  0  0  0  0  0  0  0  0  0  0  0
   50.5592   -5.7261    5.1111 N   0  0  0  0  0  0  0  0  0  0  0  0
   51.1111   -4.5526    5.4014 C   0  0  0  0  0  0  0  0  0  0  0  0
   51.1419   -3.4915    4.5101 C   0  0  0  0  0  0  0  0  0  0  0  0
   51.7854   -2.0980    1.7722 C   0  0  0  0  0  0  0  0  0  0  0  0
   53.0469   -2.6672    2.1407 C   0  0  0  0  0  0  0  0  0  0  0  0
   54.0003   -1.9444    1.5051 C   0  0  0  0  0  0  0  0  0  0  0  0
   51.9672   -1.0557    0.8952 N   0  0  0  0  0  0  0  0  0  0  0  0
   53.3162   -0.9455    0.7458 C   0  0  0  0  0  0  0  0  0  0  0  0
   53.9833    0.0223   -0.0176 C   0  0  0  0  0  0  0  0  0  0  0  0
   53.3124    0.9821   -0.7878 C   0  0  0  0  0  0  0  0  0  0  0  0
   53.9925    1.9838   -1.5469 C   0  0  0  0  0  0  0  0  0  0  0  0
   53.0376    2.6865   -2.2028 C   0  0  0  0  0  0  0  0  0  0  0  0
   51.7794    2.1028   -1.8458 C   0  0  0  0  0  0  0  0  0  0  0  0
   51.9639    1.0730   -0.9549 N   0  0  0  0  0  0  0  0  0  0  0  0
   50.5601    2.5268   -2.3560 C   0  0  0  0  0  0  0  0  0  0  0  0
   50.5602    3.6104   -3.3665 C   0  0  0  0  0  0  0  0  0  0  0  0
   51.1629    3.4356   -4.6114 C   0  0  0  0  0  0  0  0  0  0  0  0
   51.1349    4.4764   -5.5264 C   0  0  0  0  0  0  0  0  0  0  0  0
   50.5621    5.6484   -5.2724 N   0  0  0  0  0  0  0  0  0  0  0  0
   49.9885    5.8239   -4.0865 C   0  0  0  0  0  0  0  0  0  0  0  0
   49.9589    4.8415   -3.1091 C   0  0  0  0  0  0  0  0  0  0  0  0
   49.3400    1.9889   -1.9658 C   0  0  0  0  0  0  0  0  0  0  0  0
   48.0797    2.4009   -2.5065 C   0  0  0  0  0  0  0  0  0  0  0  0
   47.1256    1.7024   -1.8450 C   0  0  0  0  0  0  0  0  0  0  0  0
   47.8083    0.8598   -0.9147 C   0  0  0  0  0  0  0  0  0  0  0  0
   49.1583    1.0226   -1.0070 N   0  0  0  0  0  0  0  0  0  0  0  0
   46.0605   -1.7480    1.8991 H   0  0  0  0  0  0  0  0  0  0  0  0
   47.9595   -3.1659    3.1861 H   0  0  0  0  0  0  0  0  0  0  0  0
   49.5325   -5.0538    1.9863 H   0  0  0  0  0  0  0  0  0  0  0  0
   49.5692   -6.8537    3.7036 H   0  0  0  0  0  0  0  0  0  0  0  0
   51.5490   -4.4551    6.3904 H   0  0  0  0  0  0  0  0  0  0  0  0
   51.5947   -2.5486    4.7925 H   0  0  0  0  0  0  0  0  0  0  0  0
   53.1760   -3.5129    2.7961 H   0  0  0  0  0  0  0  0  0  0  0  0
   55.0710   -2.0659    1.5365 H   0  0  0  0  0  0  0  0  0  0  0  0
   55.0616    2.1212   -1.5639 H   0  0  0  0  0  0  0  0  0  0  0  0
   53.1636    3.5282   -2.8639 H   0  0  0  0  0  0  0  0  0  0  0  0
   51.6331    2.4930   -4.8646 H   0  0  0  0  0  0  0  0  0  0  0  0
   51.5928    4.3633   -6.5046 H   0  0  0  0  0  0  0  0  0  0  0  0
   49.5315    6.7929   -3.9086 H   0  0  0  0  0  0  0  0  0  0  0  0
   49.4885    5.0319   -2.1519 H   0  0  0  0  0  0  0  0  0  0  0  0
   47.9512    3.1259   -3.2933 H   0  0  0  0  0  0  0  0  0  0  0  0
   46.0554    1.7401   -1.9684 H   0  0  0  0  0  0  0  0  0  0  0  0
   63.9862   -0.0016   -0.0356 Fe  0  0  0  0  0  0  0  0  0  0  0  0
   60.5736   -0.0020   -0.0422 C   0  0  0  0  0  0  0  0  0  0  0  0
   61.2434   -0.8380    0.8625 C   0  0  0  0  0  0  0  0  0  0  0  0
   60.5705   -1.6630    1.8158 C   0  0  0  0  0  0  0  0  0  0  0  0
   61.5250   -2.4086    2.4246 C   0  0  0  0  0  0  0  0  0  0  0  0
   62.7753   -2.0412    1.8306 C   0  0  0  0  0  0  0  0  0  0  0  0
   62.5888   -1.0441    0.9038 N   0  0  0  0  0  0  0  0  0  0  0  0
   63.9841   -2.6652    2.1097 C   0  0  0  0  0  0  0  0  0  0  0  0
   63.9875   -3.8103    3.0484 C   0  0  0  0  0  0  0  0  0  0  0  0
   63.2786   -4.9783    2.7711 C   0  0  0  0  0  0  0  0  0  0  0  0
   63.3155   -6.0220    3.6824 C   0  0  0  0  0  0  0  0  0  0  0  0
   63.9936   -5.9631    4.8239 N   0  0  0  0  0  0  0  0  0  0  0  0
   64.6692   -4.8517    5.0972 C   0  0  0  0  0  0  0  0  0  0  0  0
   64.7002   -3.7585    4.2458 C   0  0  0  0  0  0  0  0  0  0  0  0
   65.1930   -2.2638    1.5533 C   0  0  0  0  0  0  0  0  0  0  0  0
   66.4408   -2.9282    1.7804 C   0  0  0  0  0  0  0  0  0  0  0  0
   67.3965   -2.1782    1.1786 C   0  0  0  0  0  0  0  0  0  0  0  0
   65.3806   -1.1469    0.7772 N   0  0  0  0  0  0  0  0  0  0  0  0
   66.7269   -1.0661    0.5819 C   0  0  0  0  0  0  0  0  0  0  0  0
   67.3988    0.0067   -0.0199 C   0  0  0  0  0  0  0  0  0  0  0  0
   66.7270    1.0756   -0.6287 C   0  0  0  0  0  0  0  0  0  0  0  0
   67.3963    2.1915   -1.2185 C   0  0  0  0  0  0  0  0  0  0  0  0
   66.4426    2.9361   -1.8301 C   0  0  0  0  0  0  0  0  0  0  0  0
   65.1963    2.2645   -1.6162 C   0  0  0  0  0  0  0  0  0  0  0  0
   65.3823    1.1491   -0.8375 N   0  0  0  0  0  0  0  0  0  0  0  0
   63.9907    2.6584   -2.1852 C   0  0  0  0  0  0  0  0  0  0  0  0
   63.9958    3.8055   -3.1211 C   0  0  0  0  0  0  0  0  0  0  0  0
   64.7282    3.7668   -4.3070 C   0  0  0  0  0  0  0  0  0  0  0  0
   64.6994    4.8635   -5.1540 C   0  0  0  0  0  0  0  0  0  0  0  0
   64.0072    5.9662   -4.8873 N   0  0  0  0  0  0  0  0  0  0  0  0
   63.3097    6.0126   -3.7570 C   0  0  0  0  0  0  0  0  0  0  0  0
   63.2696    4.9646   -2.8508 C   0  0  0  0  0  0  0  0  0  0  0  0
   62.7826    2.0282   -1.9161 C   0  0  0  0  0  0  0  0  0  0  0  0
   61.5353    2.3887   -2.5205 C   0  0  0  0  0  0  0  0  0  0  0  0
   60.5784    1.6464   -1.9116 C   0  0  0  0  0  0  0  0  0  0  0  0
   61.2471    0.8287   -0.9493 C   0  0  0  0  0  0  0  0  0  0  0  0
   62.5925    1.0353   -0.9856 N   0  0  0  0  0  0  0  0  0  0  0  0
   59.5058   -1.6631    1.9849 H   0  0  0  0  0  0  0  0  0  0  0  0
   61.4029   -3.1407    3.2060 H   0  0  0  0  0  0  0  0  0  0  0  0
   62.7204   -5.0739    1.8475 H   0  0  0  0  0  0  0  0  0  0  0  0
   62.7768   -6.9445    3.4867 H   0  0  0  0  0  0  0  0  0  0  0  0
   65.2108   -4.8335    6.0383 H   0  0  0  0  0  0  0  0  0  0  0  0
   65.2567   -2.8683    4.5135 H   0  0  0  0  0  0  0  0  0  0  0  0
   66.5604   -3.8492    2.3272 H   0  0  0  0  0  0  0  0  0  0  0  0
   68.4603   -2.3482    1.1384 H   0  0  0  0  0  0  0  0  0  0  0  0
   68.4587    2.3675   -1.1674 H   0  0  0  0  0  0  0  0  0  0  0  0
   66.5628    3.8580   -2.3753 H   0  0  0  0  0  0  0  0  0  0  0  0
   65.2985    2.8838   -4.5697 H   0  0  0  0  0  0  0  0  0  0  0  0
   65.2568    4.8555   -6.0860 H   0  0  0  0  0  0  0  0  0  0  0  0
   62.7572    6.9280   -3.5665 H   0  0  0  0  0  0  0  0  0  0  0  0
   62.6956    5.0504   -1.9359 H   0  0  0  0  0  0  0  0  0  0  0  0
   61.4166    3.1144   -3.3085 H   0  0  0  0  0  0  0  0  0  0  0  0
   59.5147    1.6429   -2.0873 H   0  0  0  0  0  0  0  0  0  0  0  0
  2  3  4  0  0  0  0
  3  4  4  0  0  0  0
  4  5  2  0  0  0  0
  5  6  4  0  0  0  0
  1  7  1  0  0  0  0
  3  7  4  0  0  0  0
  6  7  4  0  0  0  0
  6  8  4  0  0  0  0
  8  9  1  0  0  0  0
  9 10  4  0  0  0  0
 10 11  4  0  0  0  0
 11 12  4  0  0  0  0
 12 13  4  0  0  0  0
  9 14  4  0  0  0  0
 13 14  4  0  0  0  0
  8 15  4  0  0  0  0
 15 16  4  0  0  0  0
 16 17  2  0  0  0  0
  1 18  1  0  0  0  0
 15 18  4  0  0  0  0
 17 19  4  0  0  0  0
 18 19  4  0  0  0  0
 19 20  4  0  0  0  0
 20 21  4  0  0  0  0
 21 22  4  0  0  0  0
 22 23  2  0  0  0  0
 23 24  4  0  0  0  0
  1 25  1  0  0  0  0
 21 25  4  0  0  0  0
 24 25  4  0  0  0  0
 24 26  4  0  0  0  0
 26 27  1  0  0  0  0
 27 28  4  0  0  0  0
 28 29  4  0  0  0  0
 29 30  4  0  0  0  0
 30 31  4  0  0  0  0
 27 32  4  0  0  0  0
 31 32  4  0  0  0  0
 26 33  4  0  0  0  0
 33 34  4  0  0  0  0
 34 35  2  0  0  0  0
  2 36  4  0  0  0  0
 35 36  4  0  0  0  0
  1 37  1  0  0  0  0
 33 37  4  0  0  0  0
 36 37  4  0  0  0  0
  2 38  1  0  0  0  0
  4 39  1  0  0  0  0
  5 40  1  0  0  0  0
 10 41  1  0  0  0  0
 11 42  1  0  0  0  0
 13 43  1  0  0  0  0
 14 44  1  0  0  0  0
 16 45  1  0  0  0  0
 17 46  1  0  0  0  0
 22 47  1  0  0  0  0
 23 48  1  0  0  0  0
 28 49  1  0  0  0  0
 29 50  1  0  0  0  0
 31 51  1  0  0  0  0
 32 52  1  0  0  0  0
 34 53  1  0  0  0  0
 35 54  1  0  0  0  0
 56 57  4  0  0  0  0
 57 58  4  0  0  0  0
 58 59  2  0  0  0  0
 59 60  4  0  0  0  0
 55 61  1  0  0  0  0
 57 61  4  0  0  0  0
 60 61  4  0  0  0  0
 60 62  4  0  0  0  0
 62 63  1  0  0  0  0
 63 64  4  0  0  0  0
 64 65  4  0  0  0  0
 65 66  4  0  0  0  0
 66 67  4  0  0  0  0
 63 68  4  0  0  0  0
 67 68  4  0  0  0  0
 62 69  4  0  0  0  0
 69 70  4  0  0  0  0
 70 71  2  0  0  0  0
 55 72  1  0  0  0  0
 69 72  4  0  0  0  0
 71 73  4  0  0  0  0
 72 73  4  0  0  0  0
 73 74  4  0  0  0  0
 74 75  4  0  0  0  0
 75 76  4  0  0  0  0
 76 77  2  0  0  0  0
 77 78  4  0  0  0  0
 55 79  1  0  0  0  0
 75 79  4  0  0  0  0
 78 79  4  0  0  0  0
 78 80  4  0  0  0  0
 80 81  1  0  0  0  0
 81 82  4  0  0  0  0
 82 83  4  0  0  0  0
 83 84  4  0  0  0  0
 84 85  4  0  0  0  0
 81 86  4  0  0  0  0
 85 86  4  0  0  0  0
 80 87  4  0  0  0  0
 87 88  4  0  0  0  0
 88 89  2  0  0  0  0
 56 90  4  0  0  0  0
 89 90  4  0  0  0  0
 55 91  1  0  0  0  0
 87 91  4  0  0  0  0
 90 91  4  0  0  0  0
 56 92  1  0  0  0  0
 58 93  1  0  0  0  0
 59 94  1  0  0  0  0
 64 95  1  0  0  0  0
 65 96  1  0  0  0  0
 67 97  1  0  0  0  0
 68 98  1  0  0  0  0
 70 99  1  0  0  0  0
 71100  1  0  0  0  0
 76101  1  0  0  0  0
 77102  1  0  0  0  0
 82103  1  0  0  0  0
 83104  1  0  0  0  0
 85105  1  0  0  0  0
 86106  1  0  0  0  0
 88107  1  0  0  0  0
 89108  1  0  0  0  0
 20110  4  0  0  0  0
109110  3  0  0  0  0
109111  4  0  0  0  0
111112  3  0  0  0  0
113114  3  0  0  0  0
113115  4  0  0  0  0
115116  3  0  0  0  0
117118  3  0  0  0  0
117119  4  0  0  0  0
 74120  4  0  0  0  0
119120  3  0  0  0  0
112122  4  0  0  0  0
122123  4  0  0  0  0
123124  4  0  0  0  0
124125  2  0  0  0  0
125126  4  0  0  0  0
121127  1  0  0  0  0
123127  4  0  0  0  0
126127  4  0  0  0  0
126128  4  0  0  0  0
128129  1  0  0  0  0
129130  4  0  0  0  0
130131  4  0  0  0  0
131132  4  0  0  0  0
132133  4  0  0  0  0
129134  4  0  0  0  0
133134  4  0  0  0  0
128135  4  0  0  0  0
135136  4  0  0  0  0
136137  2  0  0  0  0
121138  1  0  0  0  0
135138  4  0  0  0  0
137139  4  0  0  0  0
138139  4  0  0  0  0
114140  4  0  0  0  0
139140  4  0  0  0  0
140141  4  0  0  0  0
141142  4  0  0  0  0
142143  2  0  0  0  0
143144  4  0  0  0  0
121145  1  0  0  0  0
141145  4  0  0  0  0
144145  4  0  0  0  0
144146  4  0  0  0  0
146147  1  0  0  0  0
147148  4  0  0  0  0
148149  4  0  0  0  0
149150  4  0  0  0  0
150151  4  0  0  0  0
147152  4  0  0  0  0
151152  4  0  0  0  0
146153  4  0  0  0  0
153154  4  0  0  0  0
154155  2  0  0  0  0
122156  4  0  0  0  0
155156  4  0  0  0  0
121157  1  0  0  0  0
153157  4  0  0  0  0
156157  4  0  0  0  0
124158  1  0  0  0  0
125159  1  0  0  0  0
130160  1  0  0  0  0
131161  1  0  0  0  0
133162  1  0  0  0  0
134163  1  0  0  0  0
136164  1  0  0  0  0
137165  1  0  0  0  0
142166  1  0  0  0  0
143167  1  0  0  0  0
148168  1  0  0  0  0
149169  1  0  0  0  0
151170  1  0  0  0  0
152171  1  0  0  0  0
154172  1  0  0  0  0
155173  1  0  0  0  0
116175  4  0  0  0  0
175176  4  0  0  0  0
176177  4  0  0  0  0
177178  2  0  0  0  0
178179  4  0  0  0  0
174180  1  0  0  0  0
176180  4  0  0  0  0
179180  4  0  0  0  0
179181  4  0  0  0  0
181182  1  0  0  0  0
182183  4  0  0  0  0
183184  4  0  0  0  0
184185  4  0  0  0  0
185186  4  0  0  0  0
182187  4  0  0  0  0
186187  4  0  0  0  0
181188  4  0  0  0  0
188189  4  0  0  0  0
189190  2  0  0  0  0
174191  1  0  0  0  0
188191  4  0  0  0  0
190192  4  0  0  0  0
191192  4  0  0  0  0
118193  4  0  0  0  0
192193  4  0  0  0  0
193194  4  0  0  0  0
194195  4  0  0  0  0
195196  2  0  0  0  0
196197  4  0  0  0  0
174198  1  0  0  0  0
194198  4  0  0  0  0
197198  4  0  0  0  0
197199  4  0  0  0  0
199200  1  0  0  0  0
200201  4  0  0  0  0
201202  4  0  0  0  0
202203  4  0  0  0  0
203204  4  0  0  0  0
200205  4  0  0  0  0
204205  4  0  0  0  0
199206  4  0  0  0  0
206207  4  0  0  0  0
207208  2  0  0  0  0
175209  4  0  0  0  0
208209  4  0  0  0  0
174210  1  0  0  0  0
206210  4  0  0  0  0
209210  4  0  0  0  0
177211  1  0  0  0  0
178212  1  0  0  0  0
183213  1  0  0  0  0
184214  1  0  0  0  0
186215  1  0  0  0  0
187216  1  0  0  0  0
189217  1  0  0  0  0
190218  1  0  0  0  0
195219  1  0  0  0  0
196220  1  0  0  0  0
201221  1  0  0  0  0
202222  1  0  0  0  0
204223  1  0  0  0  0
205224  1  0  0  0  0
207225  1  0  0  0  0
208226  1  0  0  0  0
M  END
