462

C 102.921563 0.085478 0.124821
C 103.650827 -1.281034 -0.056234
C 103.047667 -2.517893 -0.083028
C 104.069844 -3.473065 -0.320466
C 105.262472 -2.785318 -0.437881
N 105.001334 -1.455404 -0.221820
C 106.681806 -3.400999 -0.783897
C 106.713509 -4.789553 -1.295625
C 106.508720 -5.041102 -2.658980
C 106.500060 -6.350755 -3.139755
C 106.695655 -7.406392 -2.244940
S 106.590699 -9.078914 -2.810006
O 106.003503 -9.082368 -4.134830
O 105.459078 -9.730138 -1.855961
O 107.846841 -9.739051 -2.530602
C 106.911481 -7.170455 -0.883562
C 106.922374 -5.858039 -0.412787
C 107.813115 -2.658619 -0.652313
C 109.114652 -3.174698 -1.023626
C 110.018004 -2.224530 -0.812325
N 108.011881 -1.379143 -0.206809
C 109.342514 -1.058628 -0.277922
C 110.011118 0.077991 0.052488
C 109.234163 1.313740 0.673307
C 109.769362 2.281238 1.500734
C 108.744091 3.218946 1.779759
C 107.610035 2.793096 1.121282
N 107.903067 1.603638 0.497319
C 106.203819 3.526284 1.102803
C 106.184919 4.983152 1.354099
C 106.562496 5.871730 0.338989
C 106.597895 7.244305 0.583536
C 106.250298 7.722087 1.851277
S 106.414452 9.450434 2.189956
O 105.353636 10.153646 1.504605
O 107.817123 9.849978 1.491014
O 106.648954 9.613359 3.610355
C 105.862293 6.849393 2.871573
C 105.829360 5.478254 2.616967
C 105.076260 2.816600 0.842692
C 103.757424 3.422116 0.793961
C 102.869526 2.467329 0.532186
C 103.587322 1.223750 0.395090
N 104.908367 1.486351 0.579541
H 101.844359 0.106459 0.010696
H 101.992501 -2.708349 0.039433
H 103.944286 -4.540586 -0.417583
H 105.699686 -0.716593 -0.186538
H 106.351692 -4.200541 -3.332769
H 106.331104 -6.528120 -4.198039
H 104.583888 -9.501425 -2.230696
H 107.067461 -7.991778 -0.189611
H 107.087491 -5.646840 0.642416
H 109.325501 -4.153683 -1.415453
H 111.070435 -2.328493 -1.003775
H 110.787562 2.315406 1.858363
H 108.825688 4.105438 2.390036
H 107.222244 1.006393 0.034981
H 106.834708 5.474690 -0.637570
H 106.899305 7.921332 -0.211064
H 108.542775 9.531177 2.066334
H 105.598686 7.215424 3.859941
H 105.537277 4.775707 3.395964
H 103.530527 4.462629 0.940427
H 101.806957 2.594342 0.431232
C 175.154723 0.033176 0.109757
C 174.425459 1.286651 0.683287
C 175.028619 2.348283 1.318484
C 174.006442 3.283423 1.625477
C 172.813814 2.763487 1.160236
N 173.074952 1.522384 0.635816
C 171.394480 3.468896 1.194709
C 171.362777 4.916921 1.499946
C 171.567566 5.855104 0.479247
C 171.576225 7.219851 0.768729
C 171.380631 7.637820 2.087958
S 171.485586 9.354682 2.499072
O 172.072783 10.062281 1.379039
O 172.617208 9.398685 3.653350
O 170.229444 9.765075 3.086800
C 171.164805 6.713908 3.115287
C 171.153912 5.352140 2.815868
C 170.263171 2.770254 0.911262
C 168.961634 3.404775 0.871334
C 168.058282 2.487775 0.544871
N 170.064404 1.449821 0.607963
C 168.733772 1.216232 0.377263
C 168.065168 0.077991 0.052488
C 168.842122 -1.298665 -0.079094
C 168.306924 -2.558058 0.106964
C 169.332195 -3.500529 -0.155524
C 170.466251 -2.789672 -0.486616
N 170.173218 -1.450543 -0.382319
C 171.872467 -3.400711 -0.892247
C 171.891367 -4.768061 -1.454357
C 171.513789 -4.980578 -2.786595
C 171.478390 -6.272958 -3.309584
C 171.825988 -7.351859 -2.490185
S 171.661833 -8.995579 -3.122698
O 172.722650 -9.226525 -4.077097
O 170.259162 -8.962147 -3.927085
O 171.427332 -9.889055 -2.006555
C 172.213993 -7.155553 -1.162005
C 172.246925 -5.859037 -0.648297
C 173.000026 -2.661393 -0.735031
C 174.318862 -3.148228 -1.098370
C 175.206760 -2.200469 -0.812191
C 174.488964 -1.074477 -0.266824
N 173.167919 -1.394959 -0.250307
H 176.231927 0.076113 0.001956
H 176.083784 2.444426 1.523488
H 174.131999 4.239063 2.111052
H 172.376599 0.877987 0.272718
H 171.724594 5.501700 -0.538417
H 171.745182 7.932948 -0.033092
H 173.492398 9.404332 3.214369
H 171.008825 7.040298 4.139792
H 170.988794 4.612033 3.597084
H 168.750785 4.442199 1.060256
H 167.005850 2.677645 0.438047
H 167.288724 -2.777214 0.391633
H 169.250598 -4.575822 -0.110262
H 170.854042 -0.698875 -0.456155
H 171.241578 -4.124929 -3.402366
H 171.176981 -6.423621 -4.342568
H 169.533511 -8.998198 -3.270329
H 172.477600 -7.991223 -0.519740
H 172.539009 -5.678465 0.385048
H 174.545759 -4.107246 -1.527791
H 176.269328 -2.254327 -0.965238
C 111.908926 0.077991 0.052488
C 113.130843 0.077991 0.052488
C 122.516229 0.077991 0.052488
C 123.738147 0.077991 0.052488
C 133.123532 0.077991 0.052488
C 134.345450 0.077991 0.052488
C 143.730836 0.077991 0.052488
C 144.952753 0.077991 0.052488
C 154.338139 0.077991 0.052488
C 155.560057 0.077991 0.052488
C 164.945442 0.077991 0.052488
C 166.167360 0.077991 0.052488
C 114.331985 -0.034608 -0.023292
C 115.129164 0.434028 -1.308496
C 114.632647 0.551273 -2.590560
C 115.672339 1.077651 -3.399982
C 116.771523 1.259532 -2.587239
N 116.454317 0.792338 -1.336913
C 118.157334 1.895588 -3.005856
C 118.143683 2.916179 -4.076411
C 118.467033 2.565612 -5.394330
C 118.419112 3.522723 -6.407228
C 118.053170 4.835190 -6.091189
S 117.918684 6.016659 -7.401030
O 117.307155 7.221520 -6.877670
O 116.799655 5.372341 -8.373471
O 119.171114 6.049722 -8.120712
C 117.745051 5.204146 -4.778919
C 117.787749 4.237726 -3.773851
C 119.295075 1.548721 -2.350929
C 120.580440 2.134089 -2.669913
C 121.491913 1.608773 -1.858118
N 119.507066 0.670673 -1.325335
C 120.831942 0.663721 -0.980134
C 121.497383 -0.034608 -0.023292
C 120.702942 -1.037517 0.911229
C 121.209644 -2.156246 1.539692
C 120.171083 -2.696591 2.342152
C 119.060393 -1.897117 2.169033
N 119.373129 -0.936792 1.240084
C 117.670714 -2.044415 2.911164
C 117.677310 -2.659222 4.257224
C 117.273044 -3.990490 4.429336
C 117.258789 -4.561894 5.701084
C 117.659207 -3.794446 6.799528
S 117.530298 -4.492876 8.419322
O 118.533418 -5.525402 8.551842
O 116.076441 -5.201773 8.417592
O 117.412748 -3.411168 9.375533
C 118.078689 -2.470664 6.642705
C 118.089044 -1.907439 5.366352
C 116.532621 -1.568108 2.340919
C 115.244994 -1.634769 3.001701
C 114.334825 -1.086247 2.203764
C 114.996472 -0.642095 0.994299
N 116.321734 -0.954242 1.138166
H 113.629973 0.305178 -2.905473
H 115.618165 1.313485 -4.451548
H 117.110047 0.683183 -0.568849
H 118.752411 1.538394 -5.613869
H 118.664463 3.238952 -7.427158
H 115.919487 5.575275 -7.995210
H 117.463985 6.222514 -4.524784
H 117.543115 4.496163 -2.744500
H 120.775568 2.870881 -3.428562
H 122.537888 1.857787 -1.866544
H 122.218934 -2.529495 1.453940
H 120.235454 -3.558989 2.988479
H 118.714471 -0.280501 0.830958
H 116.958955 -4.564714 3.559365
H 116.933451 -5.591419 5.822179
H 115.400410 -4.503875 8.550556
H 118.384866 -1.868296 7.493711
H 118.404091 -0.875503 5.218736
H 115.047883 -2.047214 3.974161
H 113.289257 -0.992298 2.434388
C 124.939289 -0.034608 -0.023292
C 125.736467 0.434028 -1.308496
C 125.239951 0.551273 -2.590560
C 126.279642 1.077651 -3.399982
C 127.378826 1.259532 -2.587239
N 127.061620 0.792338 -1.336913
C 128.764637 1.895588 -3.005856
C 128.750986 2.916179 -4.076411
C 129.074337 2.565612 -5.394330
C 129.026416 3.522723 -6.407228
C 128.660474 4.835190 -6.091189
S 128.525988 6.016659 -7.401030
O 127.914458 7.221520 -6.877670
O 127.406958 5.372341 -8.373471
O 129.778417 6.049722 -8.120712
C 128.352354 5.204146 -4.778919
C 128.395053 4.237726 -3.773851
C 129.902379 1.548721 -2.350929
C 131.187743 2.134089 -2.669913
C 132.099217 1.608773 -1.858118
N 130.114369 0.670673 -1.325335
C 131.439246 0.663721 -0.980134
C 132.104686 -0.034608 -0.023292
C 131.310245 -1.037517 0.911229
C 131.816947 -2.156246 1.539692
C 130.778387 -2.696591 2.342152
C 129.667696 -1.897117 2.169033
N 129.980432 -0.936792 1.240084
C 128.278017 -2.044415 2.911164
C 128.284613 -2.659222 4.257224
C 127.880347 -3.990490 4.429336
C 127.866093 -4.561894 5.701084
C 128.266511 -3.794446 6.799528
S 128.137602 -4.492876 8.419322
O 129.140721 -5.525402 8.551842
O 126.683744 -5.201773 8.417592
O 128.020051 -3.411168 9.375533
C 128.685993 -2.470664 6.642705
C 128.696347 -1.907439 5.366352
C 127.139925 -1.568108 2.340919
C 125.852298 -1.634769 3.001701
C 124.942128 -1.086247 2.203764
C 125.603775 -0.642095 0.994299
N 126.929038 -0.954242 1.138166
H 124.237277 0.305178 -2.905473
H 126.225468 1.313485 -4.451548
H 127.717350 0.683183 -0.568849
H 129.359715 1.538394 -5.613869
H 129.271766 3.238952 -7.427158
H 126.526790 5.575275 -7.995210
H 128.071289 6.222514 -4.524784
H 128.150419 4.496163 -2.744500
H 131.382871 2.870881 -3.428562
H 133.145192 1.857787 -1.866544
H 132.826237 -2.529495 1.453940
H 130.842757 -3.558989 2.988479
H 129.321774 -0.280501 0.830958
H 127.566259 -4.564714 3.559365
H 127.540754 -5.591419 5.822179
H 126.007714 -4.503875 8.550556
H 128.992170 -1.868296 7.493711
H 129.011394 -0.875503 5.218736
H 125.655186 -2.047214 3.974161
H 123.896560 -0.992298 2.434388
C 135.546592 -0.034608 -0.023292
C 136.343770 0.434028 -1.308496
C 135.847254 0.551273 -2.590560
C 136.886945 1.077651 -3.399982
C 137.986130 1.259532 -2.587239
N 137.668923 0.792338 -1.336913
C 139.371940 1.895588 -3.005856
C 139.358289 2.916179 -4.076411
C 139.681640 2.565612 -5.394330
C 139.633719 3.522723 -6.407228
C 139.267777 4.835190 -6.091189
S 139.133291 6.016659 -7.401030
O 138.521762 7.221520 -6.877670
O 138.014261 5.372341 -8.373471
O 140.385721 6.049722 -8.120712
C 138.959658 5.204146 -4.778919
C 139.002356 4.237726 -3.773851
C 140.509682 1.548721 -2.350929
C 141.795047 2.134089 -2.669913
C 142.706520 1.608773 -1.858118
N 140.721672 0.670673 -1.325335
C 142.046549 0.663721 -0.980134
C 142.711990 -0.034608 -0.023292
C 141.917549 -1.037517 0.911229
C 142.424251 -2.156246 1.539692
C 141.385690 -2.696591 2.342152
C 140.274999 -1.897117 2.169033
N 140.587735 -0.936792 1.240084
C 138.885321 -2.044415 2.911164
C 138.891917 -2.659222 4.257224
C 138.487651 -3.990490 4.429336
C 138.473396 -4.561894 5.701084
C 138.873814 -3.794446 6.799528
S 138.744905 -4.492876 8.419322
O 139.748024 -5.525402 8.551842
O 137.291047 -5.201773 8.417592
O 138.627355 -3.411168 9.375533
C 139.293296 -2.470664 6.642705
C 139.303650 -1.907439 5.366352
C 137.747228 -1.568108 2.340919
C 136.459601 -1.634769 3.001701
C 135.549432 -1.086247 2.203764
C 136.211079 -0.642095 0.994299
N 137.536341 -0.954242 1.138166
H 134.844580 0.305178 -2.905473
H 136.832772 1.313485 -4.451548
H 138.324654 0.683183 -0.568849
H 139.967018 1.538394 -5.613869
H 139.879070 3.238952 -7.427158
H 137.134093 5.575275 -7.995210
H 138.678592 6.222514 -4.524784
H 138.757722 4.496163 -2.744500
H 141.990175 2.870881 -3.428562
H 143.752495 1.857787 -1.866544
H 143.433540 -2.529495 1.453940
H 141.450061 -3.558989 2.988479
H 139.929077 -0.280501 0.830958
H 138.173562 -4.564714 3.559365
H 138.148058 -5.591419 5.822179
H 136.615017 -4.503875 8.550556
H 139.599473 -1.868296 7.493711
H 139.618698 -0.875503 5.218736
H 136.262489 -2.047214 3.974161
H 134.503864 -0.992298 2.434388
C 146.153895 -0.034608 -0.023292
C 146.951074 0.434028 -1.308496
C 146.454557 0.551273 -2.590560
C 147.494249 1.077651 -3.399982
C 148.593433 1.259532 -2.587239
N 148.276227 0.792338 -1.336913
C 149.979244 1.895588 -3.005856
C 149.965593 2.916179 -4.076411
C 150.288943 2.565612 -5.394330
C 150.241022 3.522723 -6.407228
C 149.875080 4.835190 -6.091189
S 149.740594 6.016659 -7.401030
O 149.129065 7.221520 -6.877670
O 148.621565 5.372341 -8.373471
O 150.993024 6.049722 -8.120712
C 149.566961 5.204146 -4.778919
C 149.609659 4.237726 -3.773851
C 151.116985 1.548721 -2.350929
C 152.402350 2.134089 -2.669913
C 153.313824 1.608773 -1.858118
N 151.328976 0.670673 -1.325335
C 152.653852 0.663721 -0.980134
C 153.319293 -0.034608 -0.023292
C 152.524852 -1.037517 0.911229
C 153.031554 -2.156246 1.539692
C 151.992994 -2.696591 2.342152
C 150.882303 -1.897117 2.169033
N 151.195039 -0.936792 1.240084
C 149.492624 -2.044415 2.911164
C 149.499220 -2.659222 4.257224
C 149.094954 -3.990490 4.429336
C 149.080700 -4.561894 5.701084
C 149.481117 -3.794446 6.799528
S 149.352209 -4.492876 8.419322
O 150.355328 -5.525402 8.551842
O 147.898351 -5.201773 8.417592
O 149.234658 -3.411168 9.375533
C 149.900599 -2.470664 6.642705
C 149.910954 -1.907439 5.366352
C 148.354531 -1.568108 2.340919
C 147.066905 -1.634769 3.001701
C 146.156735 -1.086247 2.203764
C 146.818382 -0.642095 0.994299
N 148.143645 -0.954242 1.138166
H 145.451883 0.305178 -2.905473
H 147.440075 1.313485 -4.451548
H 148.931957 0.683183 -0.568849
H 150.574321 1.538394 -5.613869
H 150.486373 3.238952 -7.427158
H 147.741397 5.575275 -7.995210
H 149.285896 6.222514 -4.524784
H 149.365026 4.496163 -2.744500
H 152.597478 2.870881 -3.428562
H 154.359799 1.857787 -1.866544
H 154.040844 -2.529495 1.453940
H 152.057364 -3.558989 2.988479
H 150.536381 -0.280501 0.830958
H 148.780865 -4.564714 3.559365
H 148.755361 -5.591419 5.822179
H 147.222320 -4.503875 8.550556
H 150.206776 -1.868296 7.493711
H 150.226001 -0.875503 5.218736
H 146.869793 -2.047214 3.974161
H 145.111167 -0.992298 2.434388
C 156.761199 -0.034608 -0.023292
C 157.558377 0.434028 -1.308496
C 157.061861 0.551273 -2.590560
C 158.101552 1.077651 -3.399982
C 159.200737 1.259532 -2.587239
N 158.883530 0.792338 -1.336913
C 160.586547 1.895588 -3.005856
C 160.572896 2.916179 -4.076411
C 160.896247 2.565612 -5.394330
C 160.848326 3.522723 -6.407228
C 160.482384 4.835190 -6.091189
S 160.347898 6.016659 -7.401030
O 159.736368 7.221520 -6.877670
O 159.228868 5.372341 -8.373471
O 161.600327 6.049722 -8.120712
C 160.174264 5.204146 -4.778919
C 160.216963 4.237726 -3.773851
C 161.724289 1.548721 -2.350929
C 163.009653 2.134089 -2.669913
C 163.921127 1.608773 -1.858118
N 161.936279 0.670673 -1.325335
C 163.261156 0.663721 -0.980134
C 163.926596 -0.034608 -0.023292
C 163.132155 -1.037517 0.911229
C 163.638858 -2.156246 1.539692
C 162.600297 -2.696591 2.342152
C 161.489606 -1.897117 2.169033
N 161.802342 -0.936792 1.240084
C 160.099927 -2.044415 2.911164
C 160.106523 -2.659222 4.257224
C 159.702258 -3.990490 4.429336
C 159.688003 -4.561894 5.701084
C 160.088421 -3.794446 6.799528
S 159.959512 -4.492876 8.419322
O 160.962631 -5.525402 8.551842
O 158.505654 -5.201773 8.417592
O 159.841961 -3.411168 9.375533
C 160.507903 -2.470664 6.642705
C 160.518257 -1.907439 5.366352
C 158.961835 -1.568108 2.340919
C 157.674208 -1.634769 3.001701
C 156.764038 -1.086247 2.203764
C 157.425686 -0.642095 0.994299
N 158.750948 -0.954242 1.138166
H 156.059187 0.305178 -2.905473
H 158.047379 1.313485 -4.451548
H 159.539260 0.683183 -0.568849
H 161.181625 1.538394 -5.613869
H 161.093676 3.238952 -7.427158
H 158.348700 5.575275 -7.995210
H 159.893199 6.222514 -4.524784
H 159.972329 4.496163 -2.744500
H 163.204781 2.870881 -3.428562
H 164.967102 1.857787 -1.866544
H 164.648147 -2.529495 1.453940
H 162.664668 -3.558989 2.988479
H 161.143684 -0.280501 0.830958
H 159.388169 -4.564714 3.559365
H 159.362664 -5.591419 5.822179
H 157.829624 -4.503875 8.550556
H 160.814080 -1.868296 7.493711
H 160.833304 -0.875503 5.218736
H 157.477096 -2.047214 3.974161
H 155.718470 -0.992298 2.434388
