 xtb: 6.5.1 (b24c23e)
          07302205423D

310349  0     0  0            999 V2000
   39.1633   -0.1647    0.1764 Co  0  0  0  0  0  0  0  0  0  0  0  0
   35.8346   -0.5071    0.5685 C   0  0  0  0  0  0  0  0  0  0  0  0
   36.5257    0.2692    1.4735 C   0  0  0  0  0  0  0  0  0  0  0  0
   35.9022    0.9565    2.5639 C   0  0  0  0  0  0  0  0  0  0  0  0
   36.8296    1.8029    3.0694 C   0  0  0  0  0  0  0  0  0  0  0  0
   38.0285    1.6096    2.3087 C   0  0  0  0  0  0  0  0  0  0  0  0
   37.8407    0.6439    1.3533 N   0  0  0  0  0  0  0  0  0  0  0  0
   39.1819    2.3655    2.4619 C   0  0  0  0  0  0  0  0  0  0  0  0
   40.3487    2.0671    1.7785 C   0  0  0  0  0  0  0  0  0  0  0  0
   41.5956    2.7317    2.0110 C   0  0  0  0  0  0  0  0  0  0  0  0
   42.5497    2.0054    1.3815 C   0  0  0  0  0  0  0  0  0  0  0  0
   40.5326    0.9799    0.9531 N   0  0  0  0  0  0  0  0  0  0  0  0
   41.8809    0.9155    0.7441 C   0  0  0  0  0  0  0  0  0  0  0  0
   42.5478   -0.0977    0.0507 C   0  0  0  0  0  0  0  0  0  0  0  0
   41.8593   -1.0612   -0.6889 C   0  0  0  0  0  0  0  0  0  0  0  0
   42.5117   -2.0439   -1.4962 C   0  0  0  0  0  0  0  0  0  0  0  0
   41.5466   -2.6391   -2.2373 C   0  0  0  0  0  0  0  0  0  0  0  0
   40.3051   -2.0327   -1.8646 C   0  0  0  0  0  0  0  0  0  0  0  0
   39.0874   -2.3364   -2.4530 C   0  0  0  0  0  0  0  0  0  0  0  0
   39.0693   -3.2603   -3.6189 C   0  0  0  0  0  0  0  0  0  0  0  0
   39.6285   -2.8609   -4.8407 C   0  0  0  0  0  0  0  0  0  0  0  0
   40.1454   -1.6051   -4.8742 O   0  0  0  0  0  0  0  0  0  0  0  0
   40.7576   -1.1126   -6.0490 C   0  0  0  0  0  0  0  0  0  0  0  0
   39.6225   -3.7250   -5.9352 C   0  0  0  0  0  0  0  0  0  0  0  0
   39.0648   -4.9875   -5.8020 C   0  0  0  0  0  0  0  0  0  0  0  0
   38.5115   -5.4069   -4.6017 C   0  0  0  0  0  0  0  0  0  0  0  0
   38.5127   -4.5418   -3.5080 C   0  0  0  0  0  0  0  0  0  0  0  0
   38.0070   -4.8679   -2.2893 O   0  0  0  0  0  0  0  0  0  0  0  0
   37.4213   -6.1354   -2.0714 C   0  0  0  0  0  0  0  0  0  0  0  0
   37.8915   -1.8479   -1.9506 C   0  0  0  0  0  0  0  0  0  0  0  0
   36.6009   -2.2052   -2.4618 C   0  0  0  0  0  0  0  0  0  0  0  0
   35.6871   -1.7397   -1.5787 C   0  0  0  0  0  0  0  0  0  0  0  0
   36.4180   -1.0647   -0.5492 C   0  0  0  0  0  0  0  0  0  0  0  0
   37.7637   -1.0924   -0.8112 N   0  0  0  0  0  0  0  0  0  0  0  0
   40.5059   -1.0922   -0.8820 N   0  0  0  0  0  0  0  0  0  0  0  0
   39.1855    3.4986    3.4272 C   0  0  0  0  0  0  0  0  0  0  0  0
   39.1412    3.2602    4.8070 C   0  0  0  0  0  0  0  0  0  0  0  0
   39.0995    1.9543    5.1830 O   0  0  0  0  0  0  0  0  0  0  0  0
   39.0676    1.6035    6.5516 C   0  0  0  0  0  0  0  0  0  0  0  0
   39.1514    4.3254    5.7068 C   0  0  0  0  0  0  0  0  0  0  0  0
   39.2034    5.6239    5.2229 C   0  0  0  0  0  0  0  0  0  0  0  0
   39.2494    5.8839    3.8616 C   0  0  0  0  0  0  0  0  0  0  0  0
   39.2443    4.8186    2.9616 C   0  0  0  0  0  0  0  0  0  0  0  0
   39.2850    4.9693    1.6117 O   0  0  0  0  0  0  0  0  0  0  0  0
   39.3543    6.2585    1.0368 C   0  0  0  0  0  0  0  0  0  0  0  0
   34.7691   -0.6419    0.7145 H   0  0  0  0  0  0  0  0  0  0  0  0
   34.8768    0.8161    2.8677 H   0  0  0  0  0  0  0  0  0  0  0  0
   36.7252    2.5006    3.8841 H   0  0  0  0  0  0  0  0  0  0  0  0
   41.7149    3.6226    2.6059 H   0  0  0  0  0  0  0  0  0  0  0  0
   43.6135    2.1771    1.3419 H   0  0  0  0  0  0  0  0  0  0  0  0
   43.5745   -2.2256   -1.4988 H   0  0  0  0  0  0  0  0  0  0  0  0
   41.6514   -3.4219   -2.9710 H   0  0  0  0  0  0  0  0  0  0  0  0
   40.0466   -1.0632   -6.8827 H   0  0  0  0  0  0  0  0  0  0  0  0
   41.1023   -0.1045   -5.8117 H   0  0  0  0  0  0  0  0  0  0  0  0
   41.6172   -1.7277   -6.3416 H   0  0  0  0  0  0  0  0  0  0  0  0
   40.0471   -3.4242   -6.8836 H   0  0  0  0  0  0  0  0  0  0  0  0
   39.0624   -5.6604   -6.6524 H   0  0  0  0  0  0  0  0  0  0  0  0
   38.0874   -6.3991   -4.5250 H   0  0  0  0  0  0  0  0  0  0  0  0
   37.0916   -6.1424   -1.0308 H   0  0  0  0  0  0  0  0  0  0  0  0
   36.5547   -6.2953   -2.7244 H   0  0  0  0  0  0  0  0  0  0  0  0
   38.1453   -6.9447   -2.2252 H   0  0  0  0  0  0  0  0  0  0  0  0
   36.4340   -2.7645   -3.3680 H   0  0  0  0  0  0  0  0  0  0  0  0
   34.6125   -1.8287   -1.6060 H   0  0  0  0  0  0  0  0  0  0  0  0
   39.0412    0.5127    6.5848 H   0  0  0  0  0  0  0  0  0  0  0  0
   38.1735    2.0003    7.0477 H   0  0  0  0  0  0  0  0  0  0  0  0
   39.9619    1.9583    7.0781 H   0  0  0  0  0  0  0  0  0  0  0  0
   39.1198    4.1521    6.7741 H   0  0  0  0  0  0  0  0  0  0  0  0
   39.2093    6.4522    5.9229 H   0  0  0  0  0  0  0  0  0  0  0  0
   39.2895    6.9069    3.5124 H   0  0  0  0  0  0  0  0  0  0  0  0
   40.2597    6.7909    1.3526 H   0  0  0  0  0  0  0  0  0  0  0  0
   39.3858    6.1077   -0.0438 H   0  0  0  0  0  0  0  0  0  0  0  0
   38.4730    6.8598    1.2910 H   0  0  0  0  0  0  0  0  0  0  0  0
   94.7186   -0.2460    0.0917 Co  0  0  0  0  0  0  0  0  0  0  0  0
   98.0539   -0.6269    0.3575 C   0  0  0  0  0  0  0  0  0  0  0  0
   97.3733   -1.4114   -0.5487 C   0  0  0  0  0  0  0  0  0  0  0  0
   98.0090   -2.3690   -1.4025 C   0  0  0  0  0  0  0  0  0  0  0  0
   97.0864   -2.7428   -2.3199 C   0  0  0  0  0  0  0  0  0  0  0  0
   95.8790   -2.0372   -2.0075 C   0  0  0  0  0  0  0  0  0  0  0  0
   96.0556   -1.2514   -0.8984 N   0  0  0  0  0  0  0  0  0  0  0  0
   94.7293   -2.0685   -2.7855 C   0  0  0  0  0  0  0  0  0  0  0  0
   93.5562   -1.4529   -2.3829 C   0  0  0  0  0  0  0  0  0  0  0  0
   92.3138   -1.5718   -3.0852 C   0  0  0  0  0  0  0  0  0  0  0  0
   91.3509   -1.0941   -2.2609 C   0  0  0  0  0  0  0  0  0  0  0  0
   93.3594   -0.8391   -1.1653 N   0  0  0  0  0  0  0  0  0  0  0  0
   92.0099   -0.6609   -1.0695 C   0  0  0  0  0  0  0  0  0  0  0  0
   91.3331   -0.1860    0.0588 C   0  0  0  0  0  0  0  0  0  0  0  0
   92.0139    0.3731    1.1439 C   0  0  0  0  0  0  0  0  0  0  0  0
   91.3535    0.9714    2.2615 C   0  0  0  0  0  0  0  0  0  0  0  0
   92.3062    1.6239    2.9702 C   0  0  0  0  0  0  0  0  0  0  0  0
   93.5486    1.4028    2.2951 C   0  0  0  0  0  0  0  0  0  0  0  0
   94.7535    1.9698    2.6796 C   0  0  0  0  0  0  0  0  0  0  0  0
   94.7533    2.9654    3.7847 C   0  0  0  0  0  0  0  0  0  0  0  0
   94.1549    4.2194    3.5995 C   0  0  0  0  0  0  0  0  0  0  0  0
   93.6166    4.4444    2.3729 O   0  0  0  0  0  0  0  0  0  0  0  0
   92.9739    5.6699    2.0852 C   0  0  0  0  0  0  0  0  0  0  0  0
   94.1465    5.1560    4.6326 C   0  0  0  0  0  0  0  0  0  0  0  0
   94.7287    4.8324    5.8487 C   0  0  0  0  0  0  0  0  0  0  0  0
   95.3202    3.5957    6.0574 C   0  0  0  0  0  0  0  0  0  0  0  0
   95.3336    2.6602    5.0234 C   0  0  0  0  0  0  0  0  0  0  0  0
   95.8763    1.4194    5.1368 O   0  0  0  0  0  0  0  0  0  0  0  0
   96.4823    1.0090    6.3457 C   0  0  0  0  0  0  0  0  0  0  0  0
   95.9559    1.5940    2.0997 C   0  0  0  0  0  0  0  0  0  0  0  0
   97.2377    2.0764    2.5229 C   0  0  0  0  0  0  0  0  0  0  0  0
   98.1675    1.3046    1.9127 C   0  0  0  0  0  0  0  0  0  0  0  0
   97.4539    0.3775    1.0876 C   0  0  0  0  0  0  0  0  0  0  0  0
   96.1029    0.5962    1.1689 N   0  0  0  0  0  0  0  0  0  0  0  0
   93.3612    0.5950    1.1983 N   0  0  0  0  0  0  0  0  0  0  0  0
   94.7379   -2.8285   -4.0649 C   0  0  0  0  0  0  0  0  0  0  0  0
   94.7953   -4.2283   -4.0613 C   0  0  0  0  0  0  0  0  0  0  0  0
   94.8386   -4.8176   -2.8371 O   0  0  0  0  0  0  0  0  0  0  0  0
   94.8849   -6.2253   -2.7205 C   0  0  0  0  0  0  0  0  0  0  0  0
   94.7948   -4.9364   -5.2625 C   0  0  0  0  0  0  0  0  0  0  0  0
   94.7397   -4.2418   -6.4614 C   0  0  0  0  0  0  0  0  0  0  0  0
   94.6808   -2.8567   -6.4893 C   0  0  0  0  0  0  0  0  0  0  0  0
   94.6757   -2.1483   -5.2881 C   0  0  0  0  0  0  0  0  0  0  0  0
   94.6212   -0.7928   -5.2101 O   0  0  0  0  0  0  0  0  0  0  0  0
   94.5514   -0.0101   -6.3849 C   0  0  0  0  0  0  0  0  0  0  0  0
   99.1229   -0.7716    0.4625 H   0  0  0  0  0  0  0  0  0  0  0  0
   99.0383   -2.6786   -1.3129 H   0  0  0  0  0  0  0  0  0  0  0  0
   97.2000   -3.4325   -3.1402 H   0  0  0  0  0  0  0  0  0  0  0  0
   92.2030   -1.9951   -4.0702 H   0  0  0  0  0  0  0  0  0  0  0  0
   90.2873   -1.0343   -2.4279 H   0  0  0  0  0  0  0  0  0  0  0  0
   90.2937    0.9102    2.4504 H   0  0  0  0  0  0  0  0  0  0  0  0
   92.1926    2.2035    3.8720 H   0  0  0  0  0  0  0  0  0  0  0  0
   93.6670    6.5160    2.1664 H   0  0  0  0  0  0  0  0  0  0  0  0
   92.6214    5.5929    1.0550 H   0  0  0  0  0  0  0  0  0  0  0  0
   92.1164    5.8386    2.7477 H   0  0  0  0  0  0  0  0  0  0  0  0
   93.6920    6.1284    4.4980 H   0  0  0  0  0  0  0  0  0  0  0  0
   94.7202    5.5600    6.6528 H   0  0  0  0  0  0  0  0  0  0  0  0
   95.7629    3.3688    7.0180 H   0  0  0  0  0  0  0  0  0  0  0  0
   96.8359   -0.0099    6.1772 H   0  0  0  0  0  0  0  0  0  0  0  0
   97.3354    1.6478    6.6048 H   0  0  0  0  0  0  0  0  0  0  0  0
   95.7646    1.0086    7.1750 H   0  0  0  0  0  0  0  0  0  0  0  0
   97.3891    2.8848    3.2196 H   0  0  0  0  0  0  0  0  0  0  0  0
   99.2421    1.3467    1.9955 H   0  0  0  0  0  0  0  0  0  0  0  0
   94.9127   -6.4405   -1.6507 H   0  0  0  0  0  0  0  0  0  0  0  0
   95.7836   -6.6386   -3.1942 H   0  0  0  0  0  0  0  0  0  0  0  0
   93.9957   -6.6940   -3.1592 H   0  0  0  0  0  0  0  0  0  0  0  0
   94.8359   -6.0174   -5.2707 H   0  0  0  0  0  0  0  0  0  0  0  0
   94.7413   -4.7928   -7.3955 H   0  0  0  0  0  0  0  0  0  0  0  0
   94.6383   -2.3411   -7.4393 H   0  0  0  0  0  0  0  0  0  0  0  0
   93.6511   -0.2398   -6.9677 H   0  0  0  0  0  0  0  0  0  0  0  0
   94.5091    1.0295   -6.0549 H   0  0  0  0  0  0  0  0  0  0  0  0
   95.4374   -0.1521   -7.0155 H   0  0  0  0  0  0  0  0  0  0  0  0
   43.9516   -0.1115    0.0491 C   0  0  0  0  0  0  0  0  0  0  0  0
   45.1760   -0.1247    0.0438 C   0  0  0  0  0  0  0  0  0  0  0  0
   46.5189   -0.1336    0.0336 C   0  0  0  0  0  0  0  0  0  0  0  0
   47.7496   -0.1366    0.0210 C   0  0  0  0  0  0  0  0  0  0  0  0
   49.0877   -0.1337    0.0078 C   0  0  0  0  0  0  0  0  0  0  0  0
   50.3184   -0.1262   -0.0054 C   0  0  0  0  0  0  0  0  0  0  0  0
   51.6610   -0.1114   -0.0180 C   0  0  0  0  0  0  0  0  0  0  0  0
   52.8856   -0.0897   -0.0310 C   0  0  0  0  0  0  0  0  0  0  0  0
   62.4735    0.0395   -0.0519 C   0  0  0  0  0  0  0  0  0  0  0  0
   63.6991    0.0279   -0.0578 C   0  0  0  0  0  0  0  0  0  0  0  0
   65.0399    0.0154   -0.0563 C   0  0  0  0  0  0  0  0  0  0  0  0
   66.2718    0.0021   -0.0532 C   0  0  0  0  0  0  0  0  0  0  0  0
   67.6079   -0.0070   -0.0497 C   0  0  0  0  0  0  0  0  0  0  0  0
   68.8399   -0.0164   -0.0489 C   0  0  0  0  0  0  0  0  0  0  0  0
   70.1807   -0.0209   -0.0431 C   0  0  0  0  0  0  0  0  0  0  0  0
   71.4064   -0.0220   -0.0346 C   0  0  0  0  0  0  0  0  0  0  0  0
   81.0003   -0.1549    0.0354 C   0  0  0  0  0  0  0  0  0  0  0  0
   82.2257   -0.1858    0.0475 C   0  0  0  0  0  0  0  0  0  0  0  0
   83.5661   -0.2117    0.0596 C   0  0  0  0  0  0  0  0  0  0  0  0
   84.7980   -0.2278    0.0694 C   0  0  0  0  0  0  0  0  0  0  0  0
   86.1340   -0.2385    0.0761 C   0  0  0  0  0  0  0  0  0  0  0  0
   87.3659   -0.2377    0.0800 C   0  0  0  0  0  0  0  0  0  0  0  0
   88.7068   -0.2308    0.0759 C   0  0  0  0  0  0  0  0  0  0  0  0
   89.9322   -0.2125    0.0718 C   0  0  0  0  0  0  0  0  0  0  0  0
   57.6796    0.0356   -0.0451 Co  0  0  0  0  0  0  0  0  0  0  0  0
   54.2879   -0.0614   -0.0368 C   0  0  0  0  0  0  0  0  0  0  0  0
   54.9794   -0.3602    1.1404 C   0  0  0  0  0  0  0  0  0  0  0  0
   54.3412   -0.7324    2.3635 C   0  0  0  0  0  0  0  0  0  0  0  0
   55.2999   -0.7165    3.3213 C   0  0  0  0  0  0  0  0  0  0  0  0
   56.5183   -0.3282    2.6793 C   0  0  0  0  0  0  0  0  0  0  0  0
   56.3213   -0.1807    1.3264 N   0  0  0  0  0  0  0  0  0  0  0  0
   57.6884   -0.0079    3.3517 C   0  0  0  0  0  0  0  0  0  0  0  0
   58.8568    0.3129    2.6786 C   0  0  0  0  0  0  0  0  0  0  0  0
   60.0829    0.6800    3.3186 C   0  0  0  0  0  0  0  0  0  0  0  0
   61.0394    0.6840    2.3582 C   0  0  0  0  0  0  0  0  0  0  0  0
   59.0493    0.1664    1.3240 N   0  0  0  0  0  0  0  0  0  0  0  0
   60.3912    0.3310    1.1349 C   0  0  0  0  0  0  0  0  0  0  0  0
   61.0729    0.0426   -0.0521 C   0  0  0  0  0  0  0  0  0  0  0  0
   60.3905   -0.2410   -1.2394 C   0  0  0  0  0  0  0  0  0  0  0  0
   61.0411   -0.5599   -2.4711 C   0  0  0  0  0  0  0  0  0  0  0  0
   60.0823   -0.5525   -3.4288 C   0  0  0  0  0  0  0  0  0  0  0  0
   58.8511   -0.2224   -2.7783 C   0  0  0  0  0  0  0  0  0  0  0  0
   57.6702    0.0710   -3.4422 C   0  0  0  0  0  0  0  0  0  0  0  0
   57.6646    0.0941   -4.9289 C   0  0  0  0  0  0  0  0  0  0  0  0
   56.9270   -0.8563   -5.6489 C   0  0  0  0  0  0  0  0  0  0  0  0
   56.2542   -1.7733   -4.9065 O   0  0  0  0  0  0  0  0  0  0  0  0
   55.4692   -2.7682   -5.5325 C   0  0  0  0  0  0  0  0  0  0  0  0
   56.9243   -0.8374   -7.0432 C   0  0  0  0  0  0  0  0  0  0  0  0
   57.6542    0.1335   -7.7120 C   0  0  0  0  0  0  0  0  0  0  0  0
   58.3892    1.0850   -7.0213 C   0  0  0  0  0  0  0  0  0  0  0  0
   58.3972    1.0642   -5.6270 C   0  0  0  0  0  0  0  0  0  0  0  0
   59.0770    1.9592   -4.8640 O   0  0  0  0  0  0  0  0  0  0  0  0
   59.8542    2.9734   -5.4683 C   0  0  0  0  0  0  0  0  0  0  0  0
   56.4914    0.3367   -2.7606 C   0  0  0  0  0  0  0  0  0  0  0  0
   55.2541    0.6804   -3.3918 C   0  0  0  0  0  0  0  0  0  0  0  0
   54.2991    0.6355   -2.4310 C   0  0  0  0  0  0  0  0  0  0  0  0
   54.9588    0.2751   -1.2160 C   0  0  0  0  0  0  0  0  0  0  0  0
   56.3057    0.1541   -1.4105 N   0  0  0  0  0  0  0  0  0  0  0  0
   59.0443   -0.1010   -1.4212 N   0  0  0  0  0  0  0  0  0  0  0  0
   57.6902   -0.0174    4.8386 C   0  0  0  0  0  0  0  0  0  0  0  0
   58.4490   -0.9652    5.5395 C   0  0  0  0  0  0  0  0  0  0  0  0
   59.1478   -1.8471    4.7785 O   0  0  0  0  0  0  0  0  0  0  0  0
   59.9380   -2.8502    5.3845 C   0  0  0  0  0  0  0  0  0  0  0  0
   58.4465   -0.9781    6.9338 C   0  0  0  0  0  0  0  0  0  0  0  0
   57.6897   -0.0415    7.6215 C   0  0  0  0  0  0  0  0  0  0  0  0
   56.9332    0.9067    6.9498 C   0  0  0  0  0  0  0  0  0  0  0  0
   56.9309    0.9179    5.5554 C   0  0  0  0  0  0  0  0  0  0  0  0
   56.2312    1.8120    4.8097 O   0  0  0  0  0  0  0  0  0  0  0  0
   55.4321    2.7972    5.4334 C   0  0  0  0  0  0  0  0  0  0  0  0
   53.2917   -0.9592    2.4615 H   0  0  0  0  0  0  0  0  0  0  0  0
   55.2012   -0.9304    4.3731 H   0  0  0  0  0  0  0  0  0  0  0  0
   60.1877    0.8884    4.3710 H   0  0  0  0  0  0  0  0  0  0  0  0
   62.0926    0.8945    2.4540 H   0  0  0  0  0  0  0  0  0  0  0  0
   62.0978   -0.7480   -2.5741 H   0  0  0  0  0  0  0  0  0  0  0  0
   60.1885   -0.7362   -4.4856 H   0  0  0  0  0  0  0  0  0  0  0  0
   54.6651   -2.3261   -6.1332 H   0  0  0  0  0  0  0  0  0  0  0  0
   55.0309   -3.3599   -4.7268 H   0  0  0  0  0  0  0  0  0  0  0  0
   56.0798   -3.4211   -6.1680 H   0  0  0  0  0  0  0  0  0  0  0  0
   56.3621   -1.5690   -7.6078 H   0  0  0  0  0  0  0  0  0  0  0  0
   57.6502    0.1489   -8.7963 H   0  0  0  0  0  0  0  0  0  0  0  0
   58.9476    1.8321   -7.5691 H   0  0  0  0  0  0  0  0  0  0  0  0
   60.2991    3.5426   -4.6500 H   0  0  0  0  0  0  0  0  0  0  0  0
   59.2365    3.6430   -6.0789 H   0  0  0  0  0  0  0  0  0  0  0  0
   60.6534    2.5506   -6.0890 H   0  0  0  0  0  0  0  0  0  0  0  0
   55.1416    0.9081   -4.4394 H   0  0  0  0  0  0  0  0  0  0  0  0
   53.2399    0.8159   -2.5217 H   0  0  0  0  0  0  0  0  0  0  0  0
   59.3293   -3.5240    5.9995 H   0  0  0  0  0  0  0  0  0  0  0  0
   60.3865   -3.4176    4.5670 H   0  0  0  0  0  0  0  0  0  0  0  0
   60.7344   -2.4162    6.0012 H   0  0  0  0  0  0  0  0  0  0  0  0
   59.0256   -1.7076    7.4839 H   0  0  0  0  0  0  0  0  0  0  0  0
   57.6893   -0.0511    8.7059 H   0  0  0  0  0  0  0  0  0  0  0  0
   56.3536    1.6263    7.5123 H   0  0  0  0  0  0  0  0  0  0  0  0
   56.0345    3.4644    6.0616 H   0  0  0  0  0  0  0  0  0  0  0  0
   54.6388    2.3451    6.0409 H   0  0  0  0  0  0  0  0  0  0  0  0
   54.9796    3.3761    4.6263 H   0  0  0  0  0  0  0  0  0  0  0  0
   76.2046   -0.0077   -0.0021 Co  0  0  0  0  0  0  0  0  0  0  0  0
   72.8070   -0.0192   -0.0245 C   0  0  0  0  0  0  0  0  0  0  0  0
   73.4796   -0.2526    1.1792 C   0  0  0  0  0  0  0  0  0  0  0  0
   72.8150   -0.5186    2.4159 C   0  0  0  0  0  0  0  0  0  0  0  0
   73.7646   -0.4790    3.3817 C   0  0  0  0  0  0  0  0  0  0  0  0
   75.0040   -0.1852    2.7297 C   0  0  0  0  0  0  0  0  0  0  0  0
   74.8247   -0.1102    1.3678 N   0  0  0  0  0  0  0  0  0  0  0  0
   76.1840    0.1057    3.3965 C   0  0  0  0  0  0  0  0  0  0  0  0
   77.3740    0.3334    2.7228 C   0  0  0  0  0  0  0  0  0  0  0  0
   78.6101    0.6629    3.3638 C   0  0  0  0  0  0  0  0  0  0  0  0
   79.5736    0.5931    2.4131 C   0  0  0  0  0  0  0  0  0  0  0  0
   77.5704    0.1303    1.3765 N   0  0  0  0  0  0  0  0  0  0  0  0
   78.9197    0.2320    1.1953 C   0  0  0  0  0  0  0  0  0  0  0  0
   79.6005   -0.1145    0.0235 C   0  0  0  0  0  0  0  0  0  0  0  0
   78.9197   -0.4089   -1.1621 C   0  0  0  0  0  0  0  0  0  0  0  0
   79.5746   -0.7713   -2.3792 C   0  0  0  0  0  0  0  0  0  0  0  0
   78.6266   -0.7571   -3.3476 C   0  0  0  0  0  0  0  0  0  0  0  0
   77.3980   -0.3833   -2.7166 C   0  0  0  0  0  0  0  0  0  0  0  0
   76.2282   -0.0917   -3.4013 C   0  0  0  0  0  0  0  0  0  0  0  0
   76.2422   -0.1102   -4.8885 C   0  0  0  0  0  0  0  0  0  0  0  0
   75.5257   -1.0884   -5.5919 C   0  0  0  0  0  0  0  0  0  0  0  0
   74.8522   -1.9917   -4.8335 O   0  0  0  0  0  0  0  0  0  0  0  0
   74.1026   -3.0237   -5.4428 C   0  0  0  0  0  0  0  0  0  0  0  0
   75.5427   -1.1072   -6.9862 C   0  0  0  0  0  0  0  0  0  0  0  0
   76.2706   -0.1460   -7.6708 C   0  0  0  0  0  0  0  0  0  0  0  0
   76.9849    0.8325   -6.9962 C   0  0  0  0  0  0  0  0  0  0  0  0
   76.9738    0.8493   -5.6019 C   0  0  0  0  0  0  0  0  0  0  0  0
   77.6330    1.7712   -4.8532 O   0  0  0  0  0  0  0  0  0  0  0  0
   78.4084    2.7772   -5.4736 C   0  0  0  0  0  0  0  0  0  0  0  0
   75.0450    0.2066   -2.7437 C   0  0  0  0  0  0  0  0  0  0  0  0
   73.8177    0.5303   -3.4045 C   0  0  0  0  0  0  0  0  0  0  0  0
   72.8521    0.5365   -2.4536 C   0  0  0  0  0  0  0  0  0  0  0  0
   73.4964    0.2300   -1.2158 C   0  0  0  0  0  0  0  0  0  0  0  0
   74.8427    0.0846   -1.3883 N   0  0  0  0  0  0  0  0  0  0  0  0
   77.5798   -0.2345   -1.3613 N   0  0  0  0  0  0  0  0  0  0  0  0
   76.1751    0.1645    4.8826 C   0  0  0  0  0  0  0  0  0  0  0  0
   76.8593   -0.8020    5.6326 C   0  0  0  0  0  0  0  0  0  0  0  0
   77.4972   -1.7654    4.9187 O   0  0  0  0  0  0  0  0  0  0  0  0
   78.2203   -2.7864    5.5765 C   0  0  0  0  0  0  0  0  0  0  0  0
   76.8473   -0.7502    7.0261 C   0  0  0  0  0  0  0  0  0  0  0  0
   76.1570    0.2698    7.6629 C   0  0  0  0  0  0  0  0  0  0  0  0
   75.4754    1.2383    6.9416 C   0  0  0  0  0  0  0  0  0  0  0  0
   75.4812    1.1843    5.5482 C   0  0  0  0  0  0  0  0  0  0  0  0
   74.8518    2.0898    4.7550 O   0  0  0  0  0  0  0  0  0  0  0  0
   74.1271    3.1612    5.3250 C   0  0  0  0  0  0  0  0  0  0  0  0
   71.7561   -0.6959    2.5157 H   0  0  0  0  0  0  0  0  0  0  0  0
   73.6478   -0.6200    4.4439 H   0  0  0  0  0  0  0  0  0  0  0  0
   78.7154    0.8992    4.4101 H   0  0  0  0  0  0  0  0  0  0  0  0
   80.6345    0.7580    2.5126 H   0  0  0  0  0  0  0  0  0  0  0  0
   80.6269   -0.9895   -2.4663 H   0  0  0  0  0  0  0  0  0  0  0  0
   78.7383   -0.9653   -4.3993 H   0  0  0  0  0  0  0  0  0  0  0  0
   73.2976   -2.6195   -6.0684 H   0  0  0  0  0  0  0  0  0  0  0  0
   73.6663   -3.6034   -4.6273 H   0  0  0  0  0  0  0  0  0  0  0  0
   74.7398   -3.6783   -6.0496 H   0  0  0  0  0  0  0  0  0  0  0  0
   74.9965   -1.8601   -7.5385 H   0  0  0  0  0  0  0  0  0  0  0  0
   76.2814   -0.1596   -8.7551 H   0  0  0  0  0  0  0  0  0  0  0  0
   77.5422    1.5713   -7.5565 H   0  0  0  0  0  0  0  0  0  0  0  0
   78.8355    3.3728   -4.6647 H   0  0  0  0  0  0  0  0  0  0  0  0
   77.7926    3.4235   -6.1106 H   0  0  0  0  0  0  0  0  0  0  0  0
   79.2206    2.3464   -6.0714 H   0  0  0  0  0  0  0  0  0  0  0  0
   73.7188    0.7103   -4.4626 H   0  0  0  0  0  0  0  0  0  0  0  0
   71.7955    0.7211   -2.5642 H   0  0  0  0  0  0  0  0  0  0  0  0
   77.5672   -3.3938    6.2146 H   0  0  0  0  0  0  0  0  0  0  0  0
   78.6395   -3.4161    4.7896 H   0  0  0  0  0  0  0  0  0  0  0  0
   79.0370   -2.3741    6.1814 H   0  0  0  0  0  0  0  0  0  0  0  0
   77.3682   -1.4937    7.6144 H   0  0  0  0  0  0  0  0  0  0  0  0
   76.1499    0.3109    8.7466 H   0  0  0  0  0  0  0  0  0  0  0  0
   74.9466    2.0234    7.4652 H   0  0  0  0  0  0  0  0  0  0  0  0
   74.7760    3.8106    5.9249 H   0  0  0  0  0  0  0  0  0  0  0  0
   73.2998    2.8000    5.9477 H   0  0  0  0  0  0  0  0  0  0  0  0
   73.7227    3.7331    4.4878 H   0  0  0  0  0  0  0  0  0  0  0  0
  2  3  4  0  0  0  0
  3  4  1  0  0  0  0
  4  5  2  0  0  0  0
  5  6  4  0  0  0  0
  1  7  1  0  0  0  0
  3  7  4  0  0  0  0
  6  7  4  0  0  0  0
  6  8  4  0  0  0  0
  8  9  4  0  0  0  0
  9 10  4  0  0  0  0
 10 11  2  0  0  0  0
  1 12  1  0  0  0  0
  9 12  4  0  0  0  0
 11 13  4  0  0  0  0
 12 13  4  0  0  0  0
 13 14  4  0  0  0  0
 14 15  4  0  0  0  0
 15 16  4  0  0  0  0
 16 17  2  0  0  0  0
 17 18  4  0  0  0  0
 18 19  4  0  0  0  0
 19 20  1  0  0  0  0
 20 21  4  0  0  0  0
 21 22  1  0  0  0  0
 22 23  1  0  0  0  0
 21 24  4  0  0  0  0
 24 25  4  0  0  0  0
 25 26  4  0  0  0  0
 20 27  4  0  0  0  0
 26 27  4  0  0  0  0
 27 28  1  0  0  0  0
 28 29  1  0  0  0  0
 19 30  4  0  0  0  0
 30 31  4  0  0  0  0
 31 32  2  0  0  0  0
  2 33  4  0  0  0  0
 32 33  1  0  0  0  0
  1 34  1  0  0  0  0
 30 34  4  0  0  0  0
 33 34  4  0  0  0  0
  1 35  1  0  0  0  0
 15 35  4  0  0  0  0
 18 35  4  0  0  0  0
  8 36  1  0  0  0  0
 36 37  4  0  0  0  0
 37 38  1  0  0  0  0
 38 39  1  0  0  0  0
 37 40  4  0  0  0  0
 40 41  4  0  0  0  0
 41 42  4  0  0  0  0
 36 43  4  0  0  0  0
 42 43  4  0  0  0  0
 43 44  1  0  0  0  0
 44 45  1  0  0  0  0
  2 46  1  0  0  0  0
  4 47  1  0  0  0  0
  5 48  1  0  0  0  0
 10 49  1  0  0  0  0
 11 50  1  0  0  0  0
 16 51  1  0  0  0  0
 17 52  1  0  0  0  0
 23 53  1  0  0  0  0
 23 54  1  0  0  0  0
 23 55  1  0  0  0  0
 24 56  1  0  0  0  0
 25 57  1  0  0  0  0
 26 58  1  0  0  0  0
 29 59  1  0  0  0  0
 29 60  1  0  0  0  0
 29 61  1  0  0  0  0
 31 62  1  0  0  0  0
 32 63  1  0  0  0  0
 39 64  1  0  0  0  0
 39 65  1  0  0  0  0
 39 66  1  0  0  0  0
 40 67  1  0  0  0  0
 41 68  1  0  0  0  0
 42 69  1  0  0  0  0
 45 70  1  0  0  0  0
 45 71  1  0  0  0  0
 45 72  1  0  0  0  0
 74 75  4  0  0  0  0
 75 76  1  0  0  0  0
 76 77  2  0  0  0  0
 77 78  4  0  0  0  0
 73 79  1  0  0  0  0
 75 79  4  0  0  0  0
 78 79  4  0  0  0  0
 78 80  4  0  0  0  0
 80 81  4  0  0  0  0
 81 82  4  0  0  0  0
 82 83  2  0  0  0  0
 73 84  1  0  0  0  0
 81 84  4  0  0  0  0
 83 85  4  0  0  0  0
 84 85  4  0  0  0  0
 85 86  4  0  0  0  0
 86 87  4  0  0  0  0
 87 88  4  0  0  0  0
 88 89  2  0  0  0  0
 89 90  4  0  0  0  0
 90 91  4  0  0  0  0
 91 92  1  0  0  0  0
 92 93  4  0  0  0  0
 93 94  1  0  0  0  0
 94 95  1  0  0  0  0
 93 96  4  0  0  0  0
 96 97  4  0  0  0  0
 97 98  4  0  0  0  0
 92 99  4  0  0  0  0
 98 99  4  0  0  0  0
 99100  1  0  0  0  0
100101  1  0  0  0  0
 91102  4  0  0  0  0
102103  4  0  0  0  0
103104  2  0  0  0  0
 74105  4  0  0  0  0
104105  1  0  0  0  0
 73106  1  0  0  0  0
102106  4  0  0  0  0
105106  4  0  0  0  0
 73107  1  0  0  0  0
 87107  4  0  0  0  0
 90107  4  0  0  0  0
 80108  1  0  0  0  0
108109  4  0  0  0  0
109110  1  0  0  0  0
110111  1  0  0  0  0
109112  4  0  0  0  0
112113  4  0  0  0  0
113114  4  0  0  0  0
108115  4  0  0  0  0
114115  4  0  0  0  0
115116  1  0  0  0  0
116117  1  0  0  0  0
 74118  1  0  0  0  0
 76119  1  0  0  0  0
 77120  1  0  0  0  0
 82121  1  0  0  0  0
 83122  1  0  0  0  0
 88123  1  0  0  0  0
 89124  1  0  0  0  0
 95125  1  0  0  0  0
 95126  1  0  0  0  0
 95127  1  0  0  0  0
 96128  1  0  0  0  0
 97129  1  0  0  0  0
 98130  1  0  0  0  0
101131  1  0  0  0  0
101132  1  0  0  0  0
101133  1  0  0  0  0
103134  1  0  0  0  0
104135  1  0  0  0  0
111136  1  0  0  0  0
111137  1  0  0  0  0
111138  1  0  0  0  0
112139  1  0  0  0  0
113140  1  0  0  0  0
114141  1  0  0  0  0
117142  1  0  0  0  0
117143  1  0  0  0  0
117144  1  0  0  0  0
 14145  4  0  0  0  0
145146  3  0  0  0  0
146147  4  0  0  0  0
147148  3  0  0  0  0
148149  4  0  0  0  0
149150  3  0  0  0  0
150151  4  0  0  0  0
151152  3  0  0  0  0
153154  3  0  0  0  0
154155  4  0  0  0  0
155156  3  0  0  0  0
156157  4  0  0  0  0
157158  3  0  0  0  0
158159  4  0  0  0  0
159160  3  0  0  0  0
161162  3  0  0  0  0
162163  4  0  0  0  0
163164  3  0  0  0  0
164165  4  0  0  0  0
165166  3  0  0  0  0
166167  4  0  0  0  0
 86168  4  0  0  0  0
167168  3  0  0  0  0
152170  4  0  0  0  0
170171  4  0  0  0  0
171172  4  0  0  0  0
172173  2  0  0  0  0
173174  4  0  0  0  0
169175  1  0  0  0  0
171175  4  0  0  0  0
174175  4  0  0  0  0
174176  4  0  0  0  0
176177  4  0  0  0  0
177178  4  0  0  0  0
178179  2  0  0  0  0
169180  1  0  0  0  0
177180  4  0  0  0  0
179181  4  0  0  0  0
180181  4  0  0  0  0
153182  4  0  0  0  0
181182  4  0  0  0  0
182183  4  0  0  0  0
183184  4  0  0  0  0
184185  2  0  0  0  0
185186  4  0  0  0  0
186187  4  0  0  0  0
187188  1  0  0  0  0
188189  4  0  0  0  0
189190  1  0  0  0  0
190191  1  0  0  0  0
189192  4  0  0  0  0
192193  4  0  0  0  0
193194  4  0  0  0  0
188195  4  0  0  0  0
194195  4  0  0  0  0
195196  1  0  0  0  0
196197  1  0  0  0  0
187198  4  0  0  0  0
198199  4  0  0  0  0
199200  2  0  0  0  0
170201  4  0  0  0  0
200201  4  0  0  0  0
169202  1  0  0  0  0
198202  4  0  0  0  0
201202  4  0  0  0  0
169203  1  0  0  0  0
183203  4  0  0  0  0
186203  4  0  0  0  0
176204  1  0  0  0  0
204205  4  0  0  0  0
205206  1  0  0  0  0
206207  1  0  0  0  0
205208  4  0  0  0  0
208209  4  0  0  0  0
209210  4  0  0  0  0
204211  4  0  0  0  0
210211  4  0  0  0  0
211212  1  0  0  0  0
212213  1  0  0  0  0
172214  1  0  0  0  0
173215  1  0  0  0  0
178216  1  0  0  0  0
179217  1  0  0  0  0
184218  1  0  0  0  0
185219  1  0  0  0  0
191220  1  0  0  0  0
191221  1  0  0  0  0
191222  1  0  0  0  0
192223  1  0  0  0  0
193224  1  0  0  0  0
194225  1  0  0  0  0
197226  1  0  0  0  0
197227  1  0  0  0  0
197228  1  0  0  0  0
199229  1  0  0  0  0
200230  1  0  0  0  0
207231  1  0  0  0  0
207232  1  0  0  0  0
207233  1  0  0  0  0
208234  1  0  0  0  0
209235  1  0  0  0  0
210236  1  0  0  0  0
213237  1  0  0  0  0
213238  1  0  0  0  0
213239  1  0  0  0  0
160241  4  0  0  0  0
241242  4  0  0  0  0
242243  4  0  0  0  0
243244  2  0  0  0  0
244245  4  0  0  0  0
240246  1  0  0  0  0
242246  4  0  0  0  0
245246  4  0  0  0  0
245247  4  0  0  0  0
247248  4  0  0  0  0
248249  4  0  0  0  0
249250  2  0  0  0  0
240251  1  0  0  0  0
248251  4  0  0  0  0
250252  4  0  0  0  0
251252  4  0  0  0  0
161253  4  0  0  0  0
252253  4  0  0  0  0
253254  4  0  0  0  0
254255  4  0  0  0  0
255256  2  0  0  0  0
256257  4  0  0  0  0
257258  4  0  0  0  0
258259  1  0  0  0  0
259260  4  0  0  0  0
260261  1  0  0  0  0
261262  1  0  0  0  0
260263  4  0  0  0  0
263264  4  0  0  0  0
264265  4  0  0  0  0
259266  4  0  0  0  0
265266  4  0  0  0  0
266267  1  0  0  0  0
267268  1  0  0  0  0
258269  4  0  0  0  0
269270  4  0  0  0  0
270271  2  0  0  0  0
241272  4  0  0  0  0
271272  4  0  0  0  0
240273  1  0  0  0  0
269273  4  0  0  0  0
272273  4  0  0  0  0
240274  1  0  0  0  0
254274  4  0  0  0  0
257274  4  0  0  0  0
247275  1  0  0  0  0
275276  4  0  0  0  0
276277  1  0  0  0  0
277278  1  0  0  0  0
276279  4  0  0  0  0
279280  4  0  0  0  0
280281  4  0  0  0  0
275282  4  0  0  0  0
281282  4  0  0  0  0
282283  1  0  0  0  0
283284  1  0  0  0  0
243285  1  0  0  0  0
244286  1  0  0  0  0
249287  1  0  0  0  0
250288  1  0  0  0  0
255289  1  0  0  0  0
256290  1  0  0  0  0
262291  1  0  0  0  0
262292  1  0  0  0  0
262293  1  0  0  0  0
263294  1  0  0  0  0
264295  1  0  0  0  0
265296  1  0  0  0  0
268297  1  0  0  0  0
268298  1  0  0  0  0
268299  1  0  0  0  0
270300  1  0  0  0  0
271301  1  0  0  0  0
278302  1  0  0  0  0
278303  1  0  0  0  0
278304  1  0  0  0  0
279305  1  0  0  0  0
280306  1  0  0  0  0
281307  1  0  0  0  0
284308  1  0  0  0  0
284309  1  0  0  0  0
284310  1  0  0  0  0
M  END
