 xtb: 6.5.1 (b24c23e)
          07302208473D

177206  0     0  0            999 V2000
   33.6839   -0.0240   -0.0483 Cu  0  0  0  0  0  0  0  0  0  0  0  0
   30.2786   -0.0702   -0.0949 C   0  0  0  0  0  0  0  0  0  0  0  0
   30.9187   -1.2991   -0.0358 C   0  0  0  0  0  0  0  0  0  0  0  0
   30.2481   -2.5646    0.0512 C   0  0  0  0  0  0  0  0  0  0  0  0
   31.2104   -3.5183    0.1096 C   0  0  0  0  0  0  0  0  0  0  0  0
   32.4789   -2.8445    0.0457 C   0  0  0  0  0  0  0  0  0  0  0  0
   32.2700   -1.4972   -0.0316 N   0  0  0  0  0  0  0  0  0  0  0  0
   33.7259   -3.4731    0.0797 C   0  0  0  0  0  0  0  0  0  0  0  0
   33.7475   -4.9554    0.1583 C   0  0  0  0  0  0  0  0  0  0  0  0
   33.1961   -5.7310   -0.8616 C   0  0  0  0  0  0  0  0  0  0  0  0
   33.2190   -7.1155   -0.7901 C   0  0  0  0  0  0  0  0  0  0  0  0
   33.7925   -7.7412    0.3142 C   0  0  0  0  0  0  0  0  0  0  0  0
   33.8344   -9.0945    0.4254 O   0  0  0  0  0  0  0  0  0  0  0  0
   34.3437   -6.9782    1.3418 C   0  0  0  0  0  0  0  0  0  0  0  0
   34.3218   -5.5972    1.2582 C   0  0  0  0  0  0  0  0  0  0  0  0
   34.9563   -2.8128    0.0497 C   0  0  0  0  0  0  0  0  0  0  0  0
   36.2359   -3.4628    0.0271 C   0  0  0  0  0  0  0  0  0  0  0  0
   37.1781   -2.4865   -0.0047 C   0  0  0  0  0  0  0  0  0  0  0  0
   35.1398   -1.4561    0.0147 N   0  0  0  0  0  0  0  0  0  0  0  0
   36.4831   -1.2344   -0.0101 C   0  0  0  0  0  0  0  0  0  0  0  0
   37.1122    0.0216   -0.0237 C   0  0  0  0  0  0  0  0  0  0  0  0
   36.4507    1.2606   -0.0360 C   0  0  0  0  0  0  0  0  0  0  0  0
   37.1132    2.5289   -0.0890 C   0  0  0  0  0  0  0  0  0  0  0  0
   36.1458    3.4803   -0.1243 C   0  0  0  0  0  0  0  0  0  0  0  0
   34.8830    2.7988   -0.0873 C   0  0  0  0  0  0  0  0  0  0  0  0
   35.1018    1.4476   -0.0383 N   0  0  0  0  0  0  0  0  0  0  0  0
   33.6357    3.4256   -0.1350 C   0  0  0  0  0  0  0  0  0  0  0  0
   33.6153    4.9097   -0.1709 C   0  0  0  0  0  0  0  0  0  0  0  0
   34.1364    5.6536    0.8902 C   0  0  0  0  0  0  0  0  0  0  0  0
   34.1152    7.0371    0.8639 C   0  0  0  0  0  0  0  0  0  0  0  0
   33.5744    7.6989   -0.2366 C   0  0  0  0  0  0  0  0  0  0  0  0
   33.5716    9.0575   -0.2322 O   0  0  0  0  0  0  0  0  0  0  0  0
   33.0548    6.9705   -1.3041 C   0  0  0  0  0  0  0  0  0  0  0  0
   33.0742    5.5848   -1.2653 C   0  0  0  0  0  0  0  0  0  0  0  0
   32.4061    2.7632   -0.1529 C   0  0  0  0  0  0  0  0  0  0  0  0
   31.1202    3.4065   -0.1562 C   0  0  0  0  0  0  0  0  0  0  0  0
   30.1830    2.4263   -0.1515 C   0  0  0  0  0  0  0  0  0  0  0  0
   30.8865    1.1758   -0.1349 C   0  0  0  0  0  0  0  0  0  0  0  0
   32.2321    1.4089   -0.1357 N   0  0  0  0  0  0  0  0  0  0  0  0
   29.1935   -0.0843   -0.0940 H   0  0  0  0  0  0  0  0  0  0  0  0
   29.1771   -2.6920    0.0731 H   0  0  0  0  0  0  0  0  0  0  0  0
   31.0794   -4.5847    0.2002 H   0  0  0  0  0  0  0  0  0  0  0  0
   32.7610   -5.2455   -1.7281 H   0  0  0  0  0  0  0  0  0  0  0  0
   32.7947   -7.7137   -1.5895 H   0  0  0  0  0  0  0  0  0  0  0  0
   33.4205   -9.5232   -0.3355 H   0  0  0  0  0  0  0  0  0  0  0  0
   34.7828   -7.4777    2.1965 H   0  0  0  0  0  0  0  0  0  0  0  0
   34.7402   -5.0036    2.0633 H   0  0  0  0  0  0  0  0  0  0  0  0
   36.3908   -4.5296    0.0232 H   0  0  0  0  0  0  0  0  0  0  0  0
   38.2504   -2.5971   -0.0233 H   0  0  0  0  0  0  0  0  0  0  0  0
   38.1826    2.6660   -0.1081 H   0  0  0  0  0  0  0  0  0  0  0  0
   36.2734    4.5489   -0.1867 H   0  0  0  0  0  0  0  0  0  0  0  0
   34.5463    5.1388    1.7519 H   0  0  0  0  0  0  0  0  0  0  0  0
   34.5123    7.6160    1.6886 H   0  0  0  0  0  0  0  0  0  0  0  0
   33.1716    9.4104   -1.0383 H   0  0  0  0  0  0  0  0  0  0  0  0
   32.6391    7.4903   -2.1607 H   0  0  0  0  0  0  0  0  0  0  0  0
   32.6806    5.0186   -2.1022 H   0  0  0  0  0  0  0  0  0  0  0  0
   30.9612    4.4729   -0.1480 H   0  0  0  0  0  0  0  0  0  0  0  0
   29.1090    2.5270   -0.1497 H   0  0  0  0  0  0  0  0  0  0  0  0
   55.4866    0.0017   -0.0188 Cu  0  0  0  0  0  0  0  0  0  0  0  0
   58.8917    0.0361   -0.1056 C   0  0  0  0  0  0  0  0  0  0  0  0
   58.2524    1.2634   -0.1969 C   0  0  0  0  0  0  0  0  0  0  0  0
   58.9241    2.5286   -0.2785 C   0  0  0  0  0  0  0  0  0  0  0  0
   57.9625    3.4838   -0.3261 C   0  0  0  0  0  0  0  0  0  0  0  0
   56.6935    2.8095   -0.2853 C   0  0  0  0  0  0  0  0  0  0  0  0
   56.9011    1.4624   -0.2002 N   0  0  0  0  0  0  0  0  0  0  0  0
   55.4477    3.4405   -0.3052 C   0  0  0  0  0  0  0  0  0  0  0  0
   55.4272    4.9198   -0.4272 C   0  0  0  0  0  0  0  0  0  0  0  0
   55.9541    5.5458   -1.5570 C   0  0  0  0  0  0  0  0  0  0  0  0
   55.9291    6.9267   -1.6785 C   0  0  0  0  0  0  0  0  0  0  0  0
   55.3790    7.7001   -0.6590 C   0  0  0  0  0  0  0  0  0  0  0  0
   55.3359    9.0556   -0.7363 O   0  0  0  0  0  0  0  0  0  0  0  0
   54.8536    7.0877    0.4771 C   0  0  0  0  0  0  0  0  0  0  0  0
   54.8764    5.7084    0.5856 C   0  0  0  0  0  0  0  0  0  0  0  0
   54.2172    2.7848   -0.2237 C   0  0  0  0  0  0  0  0  0  0  0  0
   52.9381    3.4296   -0.3140 C   0  0  0  0  0  0  0  0  0  0  0  0
   51.9951    2.4587   -0.2160 C   0  0  0  0  0  0  0  0  0  0  0  0
   54.0325    1.4350   -0.0828 N   0  0  0  0  0  0  0  0  0  0  0  0
   52.6886    1.2146   -0.0689 C   0  0  0  0  0  0  0  0  0  0  0  0
   52.0575   -0.0357    0.0402 C   0  0  0  0  0  0  0  0  0  0  0  0
   52.7182   -1.2713    0.1366 C   0  0  0  0  0  0  0  0  0  0  0  0
   52.0556   -2.5362    0.2427 C   0  0  0  0  0  0  0  0  0  0  0  0
   53.0227   -3.4856    0.3170 C   0  0  0  0  0  0  0  0  0  0  0  0
   54.2855   -2.8053    0.2655 C   0  0  0  0  0  0  0  0  0  0  0  0
   54.0672   -1.4584    0.1477 N   0  0  0  0  0  0  0  0  0  0  0  0
   55.5322   -3.4336    0.3020 C   0  0  0  0  0  0  0  0  0  0  0  0
   55.5519   -4.9101    0.4588 C   0  0  0  0  0  0  0  0  0  0  0  0
   55.0398   -5.5071    1.6129 C   0  0  0  0  0  0  0  0  0  0  0  0
   55.0632   -6.8818    1.7701 C   0  0  0  0  0  0  0  0  0  0  0  0
   55.5968   -7.6832    0.7628 C   0  0  0  0  0  0  0  0  0  0  0  0
   55.6027   -9.0290    0.9477 O   0  0  0  0  0  0  0  0  0  0  0  0
   56.1064   -7.1023   -0.3961 C   0  0  0  0  0  0  0  0  0  0  0  0
   56.0854   -5.7236   -0.5409 C   0  0  0  0  0  0  0  0  0  0  0  0
   56.7622   -2.7790    0.2060 C   0  0  0  0  0  0  0  0  0  0  0  0
   58.0475   -3.4194    0.2761 C   0  0  0  0  0  0  0  0  0  0  0  0
   58.9853   -2.4474    0.1538 C   0  0  0  0  0  0  0  0  0  0  0  0
   58.2828   -1.2035    0.0198 C   0  0  0  0  0  0  0  0  0  0  0  0
   56.9369   -1.4325    0.0586 N   0  0  0  0  0  0  0  0  0  0  0  0
   59.9767    0.0483   -0.1183 H   0  0  0  0  0  0  0  0  0  0  0  0
   59.9952    2.6559   -0.2877 H   0  0  0  0  0  0  0  0  0  0  0  0
   58.0942    4.5530   -0.3709 H   0  0  0  0  0  0  0  0  0  0  0  0
   56.3707    4.9440   -2.3572 H   0  0  0  0  0  0  0  0  0  0  0  0
   56.3330    7.4076   -2.5629 H   0  0  0  0  0  0  0  0  0  0  0  0
   55.7268    9.3737   -1.5611 H   0  0  0  0  0  0  0  0  0  0  0  0
   54.4328    7.7017    1.2638 H   0  0  0  0  0  0  0  0  0  0  0  0
   54.4771    5.2327    1.4745 H   0  0  0  0  0  0  0  0  0  0  0  0
   52.7843    4.4874   -0.4533 H   0  0  0  0  0  0  0  0  0  0  0  0
   50.9231    2.5669   -0.2528 H   0  0  0  0  0  0  0  0  0  0  0  0
   50.9863   -2.6730    0.2576 H   0  0  0  0  0  0  0  0  0  0  0  0
   52.8952   -4.5536    0.3886 H   0  0  0  0  0  0  0  0  0  0  0  0
   54.6350   -4.8828    2.4017 H   0  0  0  0  0  0  0  0  0  0  0  0
   54.6737   -7.3466    2.6674 H   0  0  0  0  0  0  0  0  0  0  0  0
   55.9961   -9.4858    0.1921 H   0  0  0  0  0  0  0  0  0  0  0  0
   56.5162   -7.7308   -1.1795 H   0  0  0  0  0  0  0  0  0  0  0  0
   56.4721   -5.2729   -1.4483 H   0  0  0  0  0  0  0  0  0  0  0  0
   58.2055   -4.4770    0.4141 H   0  0  0  0  0  0  0  0  0  0  0  0
   60.0592   -2.5488    0.1608 H   0  0  0  0  0  0  0  0  0  0  0  0
   38.5230    0.0370   -0.0332 C   0  0  0  0  0  0  0  0  0  0  0  0
   39.7392    0.0411   -0.0355 C   0  0  0  0  0  0  0  0  0  0  0  0
   49.4300   -0.0443    0.0441 C   0  0  0  0  0  0  0  0  0  0  0  0
   50.6462   -0.0481    0.0424 C   0  0  0  0  0  0  0  0  0  0  0  0
   44.5836    0.0079   -0.0086 Cu  0  0  0  0  0  0  0  0  0  0  0  0
   41.1495    0.0376   -0.0354 C   0  0  0  0  0  0  0  0  0  0  0  0
   41.8010    1.1057    0.6032 C   0  0  0  0  0  0  0  0  0  0  0  0
   41.1287    2.1610    1.2995 C   0  0  0  0  0  0  0  0  0  0  0  0
   42.0884    2.9887    1.7856 C   0  0  0  0  0  0  0  0  0  0  0  0
   43.3549    2.4470    1.3825 C   0  0  0  0  0  0  0  0  0  0  0  0
   43.1473    1.2972    0.6684 N   0  0  0  0  0  0  0  0  0  0  0  0
   44.5975    3.0011    1.6974 C   0  0  0  0  0  0  0  0  0  0  0  0
   44.6042    4.2834    2.4446 C   0  0  0  0  0  0  0  0  0  0  0  0
   45.1853    4.3621    3.7126 C   0  0  0  0  0  0  0  0  0  0  0  0
   45.1894    5.5524    4.4180 C   0  0  0  0  0  0  0  0  0  0  0  0
   44.6143    6.6905    3.8559 C   0  0  0  0  0  0  0  0  0  0  0  0
   44.6382    7.8432    4.5738 O   0  0  0  0  0  0  0  0  0  0  0  0
   44.0350    6.6286    2.5906 C   0  0  0  0  0  0  0  0  0  0  0  0
   44.0288    5.4294    1.8950 C   0  0  0  0  0  0  0  0  0  0  0  0
   45.8348    2.4406    1.3720 C   0  0  0  0  0  0  0  0  0  0  0  0
   47.1067    3.0474    1.6431 C   0  0  0  0  0  0  0  0  0  0  0  0
   48.0591    2.1990    1.1789 C   0  0  0  0  0  0  0  0  0  0  0  0
   46.0319    1.2434    0.7375 N   0  0  0  0  0  0  0  0  0  0  0  0
   47.3774    1.0752    0.6112 C   0  0  0  0  0  0  0  0  0  0  0  0
   48.0193   -0.0335    0.0345 C   0  0  0  0  0  0  0  0  0  0  0  0
   47.3668   -1.1268   -0.5596 C   0  0  0  0  0  0  0  0  0  0  0  0
   48.0362   -2.2635   -1.1159 C   0  0  0  0  0  0  0  0  0  0  0  0
   47.0764   -3.0833   -1.6154 C   0  0  0  0  0  0  0  0  0  0  0  0
   45.8132   -2.4466   -1.3750 C   0  0  0  0  0  0  0  0  0  0  0  0
   46.0219   -1.2604   -0.7241 N   0  0  0  0  0  0  0  0  0  0  0  0
   44.5718   -2.9724   -1.7400 C   0  0  0  0  0  0  0  0  0  0  0  0
   44.5681   -4.2433   -2.5065 C   0  0  0  0  0  0  0  0  0  0  0  0
   43.9559   -5.3848   -1.9884 C   0  0  0  0  0  0  0  0  0  0  0  0
   43.9521   -6.5726   -2.7033 C   0  0  0  0  0  0  0  0  0  0  0  0
   44.5579   -6.6271   -3.9563 C   0  0  0  0  0  0  0  0  0  0  0  0
   44.5725   -7.7690   -4.6920 O   0  0  0  0  0  0  0  0  0  0  0  0
   45.1701   -5.4932   -4.4870 C   0  0  0  0  0  0  0  0  0  0  0  0
   45.1761   -4.3146   -3.7622 C   0  0  0  0  0  0  0  0  0  0  0  0
   43.3347   -2.3952   -1.4461 C   0  0  0  0  0  0  0  0  0  0  0  0
   42.0660   -2.9073   -1.8787 C   0  0  0  0  0  0  0  0  0  0  0  0
   41.1132   -2.0699   -1.3954 C   0  0  0  0  0  0  0  0  0  0  0  0
   41.7925   -1.0362   -0.6743 C   0  0  0  0  0  0  0  0  0  0  0  0
   43.1358   -1.2501   -0.7214 N   0  0  0  0  0  0  0  0  0  0  0  0
   40.0593    2.2433    1.4102 H   0  0  0  0  0  0  0  0  0  0  0  0
   41.9544    3.8781    2.3798 H   0  0  0  0  0  0  0  0  0  0  0  0
   45.6218    3.4736    4.1550 H   0  0  0  0  0  0  0  0  0  0  0  0
   45.6325    5.6144    5.4043 H   0  0  0  0  0  0  0  0  0  0  0  0
   44.2116    8.5658    4.0939 H   0  0  0  0  0  0  0  0  0  0  0  0
   43.5927    7.5183    2.1553 H   0  0  0  0  0  0  0  0  0  0  0  0
   43.5880    5.3850    0.9053 H   0  0  0  0  0  0  0  0  0  0  0  0
   47.2496    4.0059    2.1151 H   0  0  0  0  0  0  0  0  0  0  0  0
   49.1300    2.3189    1.2120 H   0  0  0  0  0  0  0  0  0  0  0  0
   49.1042   -2.4115   -1.1176 H   0  0  0  0  0  0  0  0  0  0  0  0
   47.2086   -4.0413   -2.0918 H   0  0  0  0  0  0  0  0  0  0  0  0
   43.4939   -5.3463   -1.0082 H   0  0  0  0  0  0  0  0  0  0  0  0
   43.4812   -7.4595   -2.2927 H   0  0  0  0  0  0  0  0  0  0  0  0
   44.1207   -8.4889   -4.2317 H   0  0  0  0  0  0  0  0  0  0  0  0
   45.6337   -5.5491   -5.4642 H   0  0  0  0  0  0  0  0  0  0  0  0
   45.6423   -3.4291   -4.1798 H   0  0  0  0  0  0  0  0  0  0  0  0
   41.9255   -3.7851   -2.4885 H   0  0  0  0  0  0  0  0  0  0  0  0
   40.0448   -2.1313   -1.5267 H   0  0  0  0  0  0  0  0  0  0  0  0
  2  3  4  0  0  0  0
  3  4  1  0  0  0  0
  4  5  2  0  0  0  0
  5  6  4  0  0  0  0
  1  7  1  0  0  0  0
  3  7  4  0  0  0  0
  6  7  4  0  0  0  0
  6  8  4  0  0  0  0
  8  9  1  0  0  0  0
  9 10  4  0  0  0  0
 10 11  4  0  0  0  0
 11 12  4  0  0  0  0
 12 13  1  0  0  0  0
 12 14  4  0  0  0  0
  9 15  4  0  0  0  0
 14 15  4  0  0  0  0
  8 16  4  0  0  0  0
 16 17  4  0  0  0  0
 17 18  2  0  0  0  0
  1 19  1  0  0  0  0
 16 19  4  0  0  0  0
 18 20  4  0  0  0  0
 19 20  4  0  0  0  0
 20 21  4  0  0  0  0
 21 22  4  0  0  0  0
 22 23  4  0  0  0  0
 23 24  2  0  0  0  0
 24 25  4  0  0  0  0
  1 26  1  0  0  0  0
 22 26  4  0  0  0  0
 25 26  4  0  0  0  0
 25 27  4  0  0  0  0
 27 28  1  0  0  0  0
 28 29  4  0  0  0  0
 29 30  4  0  0  0  0
 30 31  4  0  0  0  0
 31 32  1  0  0  0  0
 31 33  4  0  0  0  0
 28 34  4  0  0  0  0
 33 34  4  0  0  0  0
 27 35  4  0  0  0  0
 35 36  4  0  0  0  0
 36 37  2  0  0  0  0
  2 38  4  0  0  0  0
 37 38  1  0  0  0  0
  1 39  1  0  0  0  0
 35 39  4  0  0  0  0
 38 39  4  0  0  0  0
  2 40  1  0  0  0  0
  4 41  1  0  0  0  0
  5 42  1  0  0  0  0
 10 43  1  0  0  0  0
 11 44  1  0  0  0  0
 13 45  1  0  0  0  0
 14 46  1  0  0  0  0
 15 47  1  0  0  0  0
 17 48  1  0  0  0  0
 18 49  1  0  0  0  0
 23 50  1  0  0  0  0
 24 51  1  0  0  0  0
 29 52  1  0  0  0  0
 30 53  1  0  0  0  0
 32 54  1  0  0  0  0
 33 55  1  0  0  0  0
 34 56  1  0  0  0  0
 36 57  1  0  0  0  0
 37 58  1  0  0  0  0
 60 61  4  0  0  0  0
 61 62  1  0  0  0  0
 62 63  2  0  0  0  0
 63 64  4  0  0  0  0
 59 65  1  0  0  0  0
 61 65  4  0  0  0  0
 64 65  4  0  0  0  0
 64 66  4  0  0  0  0
 66 67  1  0  0  0  0
 67 68  4  0  0  0  0
 68 69  4  0  0  0  0
 69 70  4  0  0  0  0
 70 71  1  0  0  0  0
 70 72  4  0  0  0  0
 67 73  4  0  0  0  0
 72 73  4  0  0  0  0
 66 74  4  0  0  0  0
 74 75  4  0  0  0  0
 75 76  2  0  0  0  0
 59 77  1  0  0  0  0
 74 77  4  0  0  0  0
 76 78  4  0  0  0  0
 77 78  4  0  0  0  0
 78 79  4  0  0  0  0
 79 80  4  0  0  0  0
 80 81  4  0  0  0  0
 81 82  2  0  0  0  0
 82 83  4  0  0  0  0
 59 84  1  0  0  0  0
 80 84  4  0  0  0  0
 83 84  4  0  0  0  0
 83 85  4  0  0  0  0
 85 86  1  0  0  0  0
 86 87  4  0  0  0  0
 87 88  4  0  0  0  0
 88 89  4  0  0  0  0
 89 90  1  0  0  0  0
 89 91  4  0  0  0  0
 86 92  4  0  0  0  0
 91 92  4  0  0  0  0
 85 93  4  0  0  0  0
 93 94  4  0  0  0  0
 94 95  2  0  0  0  0
 60 96  4  0  0  0  0
 95 96  1  0  0  0  0
 59 97  1  0  0  0  0
 93 97  4  0  0  0  0
 96 97  4  0  0  0  0
 60 98  1  0  0  0  0
 62 99  1  0  0  0  0
 63100  1  0  0  0  0
 68101  1  0  0  0  0
 69102  1  0  0  0  0
 71103  1  0  0  0  0
 72104  1  0  0  0  0
 73105  1  0  0  0  0
 75106  1  0  0  0  0
 76107  1  0  0  0  0
 81108  1  0  0  0  0
 82109  1  0  0  0  0
 87110  1  0  0  0  0
 88111  1  0  0  0  0
 90112  1  0  0  0  0
 91113  1  0  0  0  0
 92114  1  0  0  0  0
 94115  1  0  0  0  0
 95116  1  0  0  0  0
 21117  4  0  0  0  0
117118  3  0  0  0  0
 79120  4  0  0  0  0
119120  3  0  0  0  0
118122  4  0  0  0  0
122123  4  0  0  0  0
123124  4  0  0  0  0
124125  2  0  0  0  0
125126  4  0  0  0  0
121127  1  0  0  0  0
123127  4  0  0  0  0
126127  4  0  0  0  0
126128  4  0  0  0  0
128129  1  0  0  0  0
129130  4  0  0  0  0
130131  4  0  0  0  0
131132  4  0  0  0  0
132133  1  0  0  0  0
132134  4  0  0  0  0
129135  4  0  0  0  0
134135  4  0  0  0  0
128136  4  0  0  0  0
136137  4  0  0  0  0
137138  2  0  0  0  0
121139  1  0  0  0  0
136139  4  0  0  0  0
138140  4  0  0  0  0
139140  4  0  0  0  0
119141  4  0  0  0  0
140141  4  0  0  0  0
141142  4  0  0  0  0
142143  4  0  0  0  0
143144  2  0  0  0  0
144145  4  0  0  0  0
121146  1  0  0  0  0
142146  4  0  0  0  0
145146  4  0  0  0  0
145147  4  0  0  0  0
147148  1  0  0  0  0
148149  4  0  0  0  0
149150  4  0  0  0  0
150151  4  0  0  0  0
151152  1  0  0  0  0
151153  4  0  0  0  0
148154  4  0  0  0  0
153154  4  0  0  0  0
147155  4  0  0  0  0
155156  4  0  0  0  0
156157  2  0  0  0  0
122158  4  0  0  0  0
157158  4  0  0  0  0
121159  1  0  0  0  0
155159  4  0  0  0  0
158159  4  0  0  0  0
124160  1  0  0  0  0
125161  1  0  0  0  0
130162  1  0  0  0  0
131163  1  0  0  0  0
133164  1  0  0  0  0
134165  1  0  0  0  0
135166  1  0  0  0  0
137167  1  0  0  0  0
138168  1  0  0  0  0
143169  1  0  0  0  0
144170  1  0  0  0  0
149171  1  0  0  0  0
150172  1  0  0  0  0
152173  1  0  0  0  0
153174  1  0  0  0  0
154175  1  0  0  0  0
156176  1  0  0  0  0
157177  1  0  0  0  0
M  END
