 xtb: 6.5.1 (b24c23e)
          07302201563D

177206  0     0  0            999 V2000
   33.8671    0.0120   -0.3765 Co  0  0  0  0  0  0  0  0  0  0  0  0
   30.8618    0.2055   -1.8212 C   0  0  0  0  0  0  0  0  0  0  0  0
   31.3915   -1.0501   -1.5992 C   0  0  0  0  0  0  0  0  0  0  0  0
   30.6871   -2.2685   -1.8591 C   0  0  0  0  0  0  0  0  0  0  0  0
   31.4452   -3.2713   -1.3541 C   0  0  0  0  0  0  0  0  0  0  0  0
   32.6494   -2.6723   -0.8571 C   0  0  0  0  0  0  0  0  0  0  0  0
   32.5851   -1.3078   -0.9776 N   0  0  0  0  0  0  0  0  0  0  0  0
   33.7701   -3.3816   -0.4397 C   0  0  0  0  0  0  0  0  0  0  0  0
   33.7258   -4.8593   -0.3504 C   0  0  0  0  0  0  0  0  0  0  0  0
   33.4503   -5.6461   -1.4688 C   0  0  0  0  0  0  0  0  0  0  0  0
   33.4287   -7.0290   -1.3728 C   0  0  0  0  0  0  0  0  0  0  0  0
   33.6812   -7.6416   -0.1476 C   0  0  0  0  0  0  0  0  0  0  0  0
   33.6680   -8.9924   -0.0094 O   0  0  0  0  0  0  0  0  0  0  0  0
   33.9634   -6.8669    0.9762 C   0  0  0  0  0  0  0  0  0  0  0  0
   33.9908   -5.4881    0.8689 C   0  0  0  0  0  0  0  0  0  0  0  0
   34.9847   -2.7459   -0.2159 C   0  0  0  0  0  0  0  0  0  0  0  0
   36.2399   -3.4299   -0.1341 C   0  0  0  0  0  0  0  0  0  0  0  0
   37.2050   -2.4775   -0.1160 C   0  0  0  0  0  0  0  0  0  0  0  0
   35.1841   -1.3868   -0.2016 N   0  0  0  0  0  0  0  0  0  0  0  0
   36.5357   -1.2153   -0.1253 C   0  0  0  0  0  0  0  0  0  0  0  0
   37.1844    0.0043    0.1034 C   0  0  0  0  0  0  0  0  0  0  0  0
   36.4646    1.1562    0.4436 C   0  0  0  0  0  0  0  0  0  0  0  0
   37.0558    2.3201    1.0224 C   0  0  0  0  0  0  0  0  0  0  0  0
   36.0399    3.1672    1.3194 C   0  0  0  0  0  0  0  0  0  0  0  0
   34.8345    2.5433    0.8618 C   0  0  0  0  0  0  0  0  0  0  0  0
   35.1110    1.2953    0.3545 N   0  0  0  0  0  0  0  0  0  0  0  0
   33.6202    3.2059    0.7501 C   0  0  0  0  0  0  0  0  0  0  0  0
   33.5001    4.5607    1.3388 C   0  0  0  0  0  0  0  0  0  0  0  0
   33.5762    4.7275    2.7235 C   0  0  0  0  0  0  0  0  0  0  0  0
   33.4716    5.9844    3.2922 C   0  0  0  0  0  0  0  0  0  0  0  0
   33.3010    7.1004    2.4748 C   0  0  0  0  0  0  0  0  0  0  0  0
   33.2064    8.3199    3.0648 O   0  0  0  0  0  0  0  0  0  0  0  0
   33.2374    6.9502    1.0916 C   0  0  0  0  0  0  0  0  0  0  0  0
   33.3349    5.6858    0.5312 C   0  0  0  0  0  0  0  0  0  0  0  0
   32.5728    2.6793    0.0013 C   0  0  0  0  0  0  0  0  0  0  0  0
   31.3953    3.4043   -0.3768 C   0  0  0  0  0  0  0  0  0  0  0  0
   30.6845    2.5981   -1.2014 C   0  0  0  0  0  0  0  0  0  0  0  0
   31.3894    1.3538   -1.2665 C   0  0  0  0  0  0  0  0  0  0  0  0
   32.5493    1.4201   -0.5378 N   0  0  0  0  0  0  0  0  0  0  0  0
   29.9172    0.2778   -2.3479 H   0  0  0  0  0  0  0  0  0  0  0  0
   29.7191   -2.3270   -2.3311 H   0  0  0  0  0  0  0  0  0  0  0  0
   31.2233   -4.3258   -1.3295 H   0  0  0  0  0  0  0  0  0  0  0  0
   33.2765   -5.1737   -2.4292 H   0  0  0  0  0  0  0  0  0  0  0  0
   33.2215   -7.6364   -2.2474 H   0  0  0  0  0  0  0  0  0  0  0  0
   33.4597   -9.4301   -0.8457 H   0  0  0  0  0  0  0  0  0  0  0  0
   34.1603   -7.3568    1.9218 H   0  0  0  0  0  0  0  0  0  0  0  0
   34.2062   -4.8837    1.7429 H   0  0  0  0  0  0  0  0  0  0  0  0
   36.3585   -4.5013   -0.1299 H   0  0  0  0  0  0  0  0  0  0  0  0
   38.2740   -2.6059   -0.0621 H   0  0  0  0  0  0  0  0  0  0  0  0
   38.1114    2.4489    1.1987 H   0  0  0  0  0  0  0  0  0  0  0  0
   36.0950    4.1463    1.7670 H   0  0  0  0  0  0  0  0  0  0  0  0
   33.7050    3.8578    3.3579 H   0  0  0  0  0  0  0  0  0  0  0  0
   33.5219    6.1165    4.3659 H   0  0  0  0  0  0  0  0  0  0  0  0
   33.0891    9.0204    2.4091 H   0  0  0  0  0  0  0  0  0  0  0  0
   33.1162    7.8229    0.4588 H   0  0  0  0  0  0  0  0  0  0  0  0
   33.3066    5.5742   -0.5469 H   0  0  0  0  0  0  0  0  0  0  0  0
   31.1560    4.4052   -0.0562 H   0  0  0  0  0  0  0  0  0  0  0  0
   29.7452    2.7958   -1.6930 H   0  0  0  0  0  0  0  0  0  0  0  0
   55.2758   -0.0306   -0.4093 Co  0  0  0  0  0  0  0  0  0  0  0  0
   58.2220   -0.0299   -1.9539 C   0  0  0  0  0  0  0  0  0  0  0  0
   57.6896    1.1878   -1.5782 C   0  0  0  0  0  0  0  0  0  0  0  0
   58.3740    2.4361   -1.7276 C   0  0  0  0  0  0  0  0  0  0  0  0
   57.6670    3.3539   -1.0246 C   0  0  0  0  0  0  0  0  0  0  0  0
   56.5064    2.6847   -0.5148 C   0  0  0  0  0  0  0  0  0  0  0  0
   56.5462    1.3549   -0.8406 N   0  0  0  0  0  0  0  0  0  0  0  0
   55.4441    3.3108    0.1313 C   0  0  0  0  0  0  0  0  0  0  0  0
   55.5347    4.7430    0.4973 C   0  0  0  0  0  0  0  0  0  0  0  0
   55.7161    5.7315   -0.4698 C   0  0  0  0  0  0  0  0  0  0  0  0
   55.7883    7.0684   -0.1092 C   0  0  0  0  0  0  0  0  0  0  0  0
   55.6827    7.4302    1.2317 C   0  0  0  0  0  0  0  0  0  0  0  0
   55.7527    8.7267    1.6284 O   0  0  0  0  0  0  0  0  0  0  0  0
   55.4937    6.4523    2.2069 C   0  0  0  0  0  0  0  0  0  0  0  0
   55.4142    5.1219    1.8368 C   0  0  0  0  0  0  0  0  0  0  0  0
   54.2378    2.6533    0.3348 C   0  0  0  0  0  0  0  0  0  0  0  0
   53.0072    3.3190    0.6395 C   0  0  0  0  0  0  0  0  0  0  0  0
   52.0177    2.4046    0.4821 C   0  0  0  0  0  0  0  0  0  0  0  0
   54.0005    1.3268    0.0642 N   0  0  0  0  0  0  0  0  0  0  0  0
   52.6495    1.1680    0.1485 C   0  0  0  0  0  0  0  0  0  0  0  0
   51.9736   -0.0587    0.0706 C   0  0  0  0  0  0  0  0  0  0  0  0
   52.6729   -1.2704    0.1599 C   0  0  0  0  0  0  0  0  0  0  0  0
   52.0627   -2.5175    0.4942 C   0  0  0  0  0  0  0  0  0  0  0  0
   53.0695   -3.4037    0.6958 C   0  0  0  0  0  0  0  0  0  0  0  0
   54.2914   -2.7122    0.4146 C   0  0  0  0  0  0  0  0  0  0  0  0
   54.0294   -1.3994    0.1069 N   0  0  0  0  0  0  0  0  0  0  0  0
   55.5238   -3.3394    0.2815 C   0  0  0  0  0  0  0  0  0  0  0  0
   55.6440   -4.7504    0.7142 C   0  0  0  0  0  0  0  0  0  0  0  0
   55.4782   -5.0739    2.0634 C   0  0  0  0  0  0  0  0  0  0  0  0
   55.5851   -6.3831    2.4967 C   0  0  0  0  0  0  0  0  0  0  0  0
   55.8473   -7.3959    1.5757 C   0  0  0  0  0  0  0  0  0  0  0  0
   55.9427   -8.6705    2.0335 O   0  0  0  0  0  0  0  0  0  0  0  0
   55.9980   -7.0902    0.2251 C   0  0  0  0  0  0  0  0  0  0  0  0
   55.8982   -5.7739   -0.1986 C   0  0  0  0  0  0  0  0  0  0  0  0
   56.5879   -2.7084   -0.3558 C   0  0  0  0  0  0  0  0  0  0  0  0
   57.7850   -3.3627   -0.7961 C   0  0  0  0  0  0  0  0  0  0  0  0
   58.4723   -2.4649   -1.5432 C   0  0  0  0  0  0  0  0  0  0  0  0
   57.7380   -1.2375   -1.4894 C   0  0  0  0  0  0  0  0  0  0  0  0
   56.5889   -1.3992   -0.7603 N   0  0  0  0  0  0  0  0  0  0  0  0
   59.1444   -0.0323   -2.5231 H   0  0  0  0  0  0  0  0  0  0  0  0
   59.3001    2.5662   -2.2649 H   0  0  0  0  0  0  0  0  0  0  0  0
   57.8980    4.3956   -0.8719 H   0  0  0  0  0  0  0  0  0  0  0  0
   55.7752    5.4558   -1.5167 H   0  0  0  0  0  0  0  0  0  0  0  0
   55.9222    7.8340   -0.8658 H   0  0  0  0  0  0  0  0  0  0  0  0
   55.8824    9.3194    0.8759 H   0  0  0  0  0  0  0  0  0  0  0  0
   55.4097    6.7483    3.2452 H   0  0  0  0  0  0  0  0  0  0  0  0
   55.2714    4.3592    2.5941 H   0  0  0  0  0  0  0  0  0  0  0  0
   52.9182    4.3624    0.8952 H   0  0  0  0  0  0  0  0  0  0  0  0
   50.9563    2.5358    0.6167 H   0  0  0  0  0  0  0  0  0  0  0  0
   51.0011   -2.6732    0.5979 H   0  0  0  0  0  0  0  0  0  0  0  0
   52.9995   -4.4446    0.9673 H   0  0  0  0  0  0  0  0  0  0  0  0
   55.2781   -4.2839    2.7786 H   0  0  0  0  0  0  0  0  0  0  0  0
   55.4664   -6.6357    3.5431 H   0  0  0  0  0  0  0  0  0  0  0  0
   56.1267   -9.2905    1.3151 H   0  0  0  0  0  0  0  0  0  0  0  0
   56.1887   -7.8835   -0.4897 H   0  0  0  0  0  0  0  0  0  0  0  0
   55.9927   -5.5428   -1.2537 H   0  0  0  0  0  0  0  0  0  0  0  0
   58.0512   -4.3828   -0.5718 H   0  0  0  0  0  0  0  0  0  0  0  0
   59.4140   -2.5934   -2.0530 H   0  0  0  0  0  0  0  0  0  0  0  0
   38.5859    0.0396    0.0991 C   0  0  0  0  0  0  0  0  0  0  0  0
   39.8026    0.0647    0.0408 C   0  0  0  0  0  0  0  0  0  0  0  0
   49.3580   -0.0643   -0.0596 C   0  0  0  0  0  0  0  0  0  0  0  0
   50.5739   -0.0671    0.0308 C   0  0  0  0  0  0  0  0  0  0  0  0
   44.5793    0.0472   -0.2430 Co  0  0  0  0  0  0  0  0  0  0  0  0
   41.2014    0.0727   -0.0535 C   0  0  0  0  0  0  0  0  0  0  0  0
   41.9244    1.1532    0.4622 C   0  0  0  0  0  0  0  0  0  0  0  0
   41.3305    2.2732    1.1181 C   0  0  0  0  0  0  0  0  0  0  0  0
   42.2955    3.2215    1.2196 C   0  0  0  0  0  0  0  0  0  0  0  0
   43.4766    2.6719    0.6285 C   0  0  0  0  0  0  0  0  0  0  0  0
   43.2526    1.3766    0.2306 N   0  0  0  0  0  0  0  0  0  0  0  0
   44.6464    3.3845    0.3848 C   0  0  0  0  0  0  0  0  0  0  0  0
   44.6621    4.8401    0.6406 C   0  0  0  0  0  0  0  0  0  0  0  0
   45.6013    5.4045    1.5085 C   0  0  0  0  0  0  0  0  0  0  0  0
   45.6112    6.7654    1.7549 C   0  0  0  0  0  0  0  0  0  0  0  0
   44.6789    7.5891    1.1261 C   0  0  0  0  0  0  0  0  0  0  0  0
   44.7199    8.9204    1.3865 O   0  0  0  0  0  0  0  0  0  0  0  0
   43.7367    7.0415    0.2579 C   0  0  0  0  0  0  0  0  0  0  0  0
   43.7289    5.6758    0.0240 C   0  0  0  0  0  0  0  0  0  0  0  0
   45.8021    2.7550   -0.0577 C   0  0  0  0  0  0  0  0  0  0  0  0
   47.0444    3.4172   -0.3163 C   0  0  0  0  0  0  0  0  0  0  0  0
   47.9869    2.4476   -0.4263 C   0  0  0  0  0  0  0  0  0  0  0  0
   45.9706    1.3896   -0.1174 N   0  0  0  0  0  0  0  0  0  0  0  0
   47.3127    1.1998   -0.2657 C   0  0  0  0  0  0  0  0  0  0  0  0
   47.9607   -0.0385   -0.1546 C   0  0  0  0  0  0  0  0  0  0  0  0
   47.2443   -1.2405   -0.1849 C   0  0  0  0  0  0  0  0  0  0  0  0
   47.8512   -2.5323   -0.1519 C   0  0  0  0  0  0  0  0  0  0  0  0
   46.8880   -3.4243   -0.4939 C   0  0  0  0  0  0  0  0  0  0  0  0
   45.6931   -2.6721   -0.7239 C   0  0  0  0  0  0  0  0  0  0  0  0
   45.9114   -1.3400   -0.4691 N   0  0  0  0  0  0  0  0  0  0  0  0
   44.5110   -3.2011   -1.2301 C   0  0  0  0  0  0  0  0  0  0  0  0
   44.4948   -4.6083   -1.6836 C   0  0  0  0  0  0  0  0  0  0  0  0
   43.6005   -5.5267   -1.1309 C   0  0  0  0  0  0  0  0  0  0  0  0
   43.5901   -6.8469   -1.5521 C   0  0  0  0  0  0  0  0  0  0  0  0
   44.4749   -7.2633   -2.5444 C   0  0  0  0  0  0  0  0  0  0  0  0
   44.4950   -8.5453   -2.9899 O   0  0  0  0  0  0  0  0  0  0  0  0
   45.3723   -6.3563   -3.1059 C   0  0  0  0  0  0  0  0  0  0  0  0
   45.3826   -5.0432   -2.6718 C   0  0  0  0  0  0  0  0  0  0  0  0
   43.3422   -2.4529   -1.2849 C   0  0  0  0  0  0  0  0  0  0  0  0
   42.0866   -2.9379   -1.7717 C   0  0  0  0  0  0  0  0  0  0  0  0
   41.1481   -2.0315   -1.4003 C   0  0  0  0  0  0  0  0  0  0  0  0
   41.8373   -0.9851   -0.7158 C   0  0  0  0  0  0  0  0  0  0  0  0
   43.1823   -1.2129   -0.7094 N   0  0  0  0  0  0  0  0  0  0  0  0
   40.3036    2.3210    1.4424 H   0  0  0  0  0  0  0  0  0  0  0  0
   42.2237    4.2028    1.6599 H   0  0  0  0  0  0  0  0  0  0  0  0
   46.3151    4.7630    2.0131 H   0  0  0  0  0  0  0  0  0  0  0  0
   46.3327    7.2034    2.4335 H   0  0  0  0  0  0  0  0  0  0  0  0
   44.0303    9.3957    0.9039 H   0  0  0  0  0  0  0  0  0  0  0  0
   43.0147    7.6865   -0.2313 H   0  0  0  0  0  0  0  0  0  0  0  0
   43.0033    5.2532   -0.6620 H   0  0  0  0  0  0  0  0  0  0  0  0
   47.1724    4.4844   -0.3962 H   0  0  0  0  0  0  0  0  0  0  0  0
   49.0435    2.5558   -0.6097 H   0  0  0  0  0  0  0  0  0  0  0  0
   48.8864   -2.7186    0.0829 H   0  0  0  0  0  0  0  0  0  0  0  0
   46.9691   -4.4958   -0.5784 H   0  0  0  0  0  0  0  0  0  0  0  0
   42.9227   -5.2092   -0.3464 H   0  0  0  0  0  0  0  0  0  0  0  0
   42.8990   -7.5579   -1.1122 H   0  0  0  0  0  0  0  0  0  0  0  0
   43.8348   -9.0868   -2.5366 H   0  0  0  0  0  0  0  0  0  0  0  0
   46.0522   -6.6932   -3.8786 H   0  0  0  0  0  0  0  0  0  0  0  0
   46.0727   -4.3352   -3.1170 H   0  0  0  0  0  0  0  0  0  0  0  0
   41.9479   -3.8553   -2.3202 H   0  0  0  0  0  0  0  0  0  0  0  0
   40.0846   -2.0553   -1.5747 H   0  0  0  0  0  0  0  0  0  0  0  0
  2  3  4  0  0  0  0
  3  4  1  0  0  0  0
  4  5  2  0  0  0  0
  5  6  4  0  0  0  0
  1  7  1  0  0  0  0
  3  7  4  0  0  0  0
  6  7  4  0  0  0  0
  6  8  4  0  0  0  0
  8  9  1  0  0  0  0
  9 10  4  0  0  0  0
 10 11  4  0  0  0  0
 11 12  4  0  0  0  0
 12 13  1  0  0  0  0
 12 14  4  0  0  0  0
  9 15  4  0  0  0  0
 14 15  4  0  0  0  0
  8 16  4  0  0  0  0
 16 17  4  0  0  0  0
 17 18  2  0  0  0  0
  1 19  1  0  0  0  0
 16 19  4  0  0  0  0
 18 20  4  0  0  0  0
 19 20  4  0  0  0  0
 20 21  4  0  0  0  0
 21 22  4  0  0  0  0
 22 23  4  0  0  0  0
 23 24  2  0  0  0  0
 24 25  4  0  0  0  0
  1 26  1  0  0  0  0
 22 26  4  0  0  0  0
 25 26  4  0  0  0  0
 25 27  4  0  0  0  0
 27 28  1  0  0  0  0
 28 29  4  0  0  0  0
 29 30  4  0  0  0  0
 30 31  4  0  0  0  0
 31 32  1  0  0  0  0
 31 33  4  0  0  0  0
 28 34  4  0  0  0  0
 33 34  4  0  0  0  0
 27 35  4  0  0  0  0
 35 36  4  0  0  0  0
 36 37  2  0  0  0  0
  2 38  4  0  0  0  0
 37 38  1  0  0  0  0
  1 39  1  0  0  0  0
 35 39  4  0  0  0  0
 38 39  4  0  0  0  0
  2 40  1  0  0  0  0
  4 41  1  0  0  0  0
  5 42  1  0  0  0  0
 10 43  1  0  0  0  0
 11 44  1  0  0  0  0
 13 45  1  0  0  0  0
 14 46  1  0  0  0  0
 15 47  1  0  0  0  0
 17 48  1  0  0  0  0
 18 49  1  0  0  0  0
 23 50  1  0  0  0  0
 24 51  1  0  0  0  0
 29 52  1  0  0  0  0
 30 53  1  0  0  0  0
 32 54  1  0  0  0  0
 33 55  1  0  0  0  0
 34 56  1  0  0  0  0
 36 57  1  0  0  0  0
 37 58  1  0  0  0  0
 60 61  4  0  0  0  0
 61 62  1  0  0  0  0
 62 63  2  0  0  0  0
 63 64  4  0  0  0  0
 59 65  1  0  0  0  0
 61 65  4  0  0  0  0
 64 65  4  0  0  0  0
 64 66  4  0  0  0  0
 66 67  1  0  0  0  0
 67 68  4  0  0  0  0
 68 69  4  0  0  0  0
 69 70  4  0  0  0  0
 70 71  1  0  0  0  0
 70 72  4  0  0  0  0
 67 73  4  0  0  0  0
 72 73  4  0  0  0  0
 66 74  4  0  0  0  0
 74 75  4  0  0  0  0
 75 76  2  0  0  0  0
 59 77  1  0  0  0  0
 74 77  4  0  0  0  0
 76 78  4  0  0  0  0
 77 78  4  0  0  0  0
 78 79  4  0  0  0  0
 79 80  4  0  0  0  0
 80 81  4  0  0  0  0
 81 82  2  0  0  0  0
 82 83  4  0  0  0  0
 59 84  1  0  0  0  0
 80 84  4  0  0  0  0
 83 84  4  0  0  0  0
 83 85  4  0  0  0  0
 85 86  1  0  0  0  0
 86 87  4  0  0  0  0
 87 88  4  0  0  0  0
 88 89  4  0  0  0  0
 89 90  1  0  0  0  0
 89 91  4  0  0  0  0
 86 92  4  0  0  0  0
 91 92  4  0  0  0  0
 85 93  4  0  0  0  0
 93 94  4  0  0  0  0
 94 95  2  0  0  0  0
 60 96  4  0  0  0  0
 95 96  1  0  0  0  0
 59 97  1  0  0  0  0
 93 97  4  0  0  0  0
 96 97  4  0  0  0  0
 60 98  1  0  0  0  0
 62 99  1  0  0  0  0
 63100  1  0  0  0  0
 68101  1  0  0  0  0
 69102  1  0  0  0  0
 71103  1  0  0  0  0
 72104  1  0  0  0  0
 73105  1  0  0  0  0
 75106  1  0  0  0  0
 76107  1  0  0  0  0
 81108  1  0  0  0  0
 82109  1  0  0  0  0
 87110  1  0  0  0  0
 88111  1  0  0  0  0
 90112  1  0  0  0  0
 91113  1  0  0  0  0
 92114  1  0  0  0  0
 94115  1  0  0  0  0
 95116  1  0  0  0  0
 21117  4  0  0  0  0
117118  3  0  0  0  0
 79120  4  0  0  0  0
119120  3  0  0  0  0
118122  4  0  0  0  0
122123  4  0  0  0  0
123124  4  0  0  0  0
124125  2  0  0  0  0
125126  4  0  0  0  0
121127  1  0  0  0  0
123127  4  0  0  0  0
126127  4  0  0  0  0
126128  4  0  0  0  0
128129  1  0  0  0  0
129130  4  0  0  0  0
130131  4  0  0  0  0
131132  4  0  0  0  0
132133  1  0  0  0  0
132134  4  0  0  0  0
129135  4  0  0  0  0
134135  4  0  0  0  0
128136  4  0  0  0  0
136137  4  0  0  0  0
137138  2  0  0  0  0
121139  1  0  0  0  0
136139  4  0  0  0  0
138140  4  0  0  0  0
139140  4  0  0  0  0
119141  4  0  0  0  0
140141  4  0  0  0  0
141142  4  0  0  0  0
142143  4  0  0  0  0
143144  2  0  0  0  0
144145  4  0  0  0  0
121146  1  0  0  0  0
142146  4  0  0  0  0
145146  4  0  0  0  0
145147  4  0  0  0  0
147148  1  0  0  0  0
148149  4  0  0  0  0
149150  4  0  0  0  0
150151  4  0  0  0  0
151152  1  0  0  0  0
151153  4  0  0  0  0
148154  4  0  0  0  0
153154  4  0  0  0  0
147155  4  0  0  0  0
155156  4  0  0  0  0
156157  2  0  0  0  0
122158  4  0  0  0  0
157158  4  0  0  0  0
121159  1  0  0  0  0
155159  4  0  0  0  0
158159  4  0  0  0  0
124160  1  0  0  0  0
125161  1  0  0  0  0
130162  1  0  0  0  0
131163  1  0  0  0  0
133164  1  0  0  0  0
134165  1  0  0  0  0
135166  1  0  0  0  0
137167  1  0  0  0  0
138168  1  0  0  0  0
143169  1  0  0  0  0
144170  1  0  0  0  0
149171  1  0  0  0  0
150172  1  0  0  0  0
152173  1  0  0  0  0
153174  1  0  0  0  0
154175  1  0  0  0  0
156176  1  0  0  0  0
157177  1  0  0  0  0
M  END
