 xtb: 6.5.1 (b24c23e)
          07262214263D

198222  0     0  0            999 V2000
   28.2954   -0.0579   -0.0123 C   0  0  0  0  0  0  0  0  0  0  0  0
   28.9173   -1.2986   -0.0717 C   0  0  0  0  0  0  0  0  0  0  0  0
   28.3008   -2.5814   -0.1330 C   0  0  0  0  0  0  0  0  0  0  0  0
   29.2910   -3.5221   -0.1774 C   0  0  0  0  0  0  0  0  0  0  0  0
   30.5436   -2.8441   -0.1444 C   0  0  0  0  0  0  0  0  0  0  0  0
   30.2669   -1.5089   -0.0811 N   0  0  0  0  0  0  0  0  0  0  0  0
   31.8112   -3.4139   -0.1699 C   0  0  0  0  0  0  0  0  0  0  0  0
   33.0324   -2.7560   -0.1358 C   0  0  0  0  0  0  0  0  0  0  0  0
   34.3094   -3.4469   -0.1652 C   0  0  0  0  0  0  0  0  0  0  0  0
   35.2609   -2.4916   -0.1166 C   0  0  0  0  0  0  0  0  0  0  0  0
   33.2283   -1.4108   -0.0713 N   0  0  0  0  0  0  0  0  0  0  0  0
   34.5614   -1.2206   -0.0584 C   0  0  0  0  0  0  0  0  0  0  0  0
   35.2188    0.0260    0.0011 C   0  0  0  0  0  0  0  0  0  0  0  0
   34.5710    1.2748    0.0558 C   0  0  0  0  0  0  0  0  0  0  0  0
   35.1821    2.5564    0.1153 C   0  0  0  0  0  0  0  0  0  0  0  0
   34.1879    3.4949    0.1565 C   0  0  0  0  0  0  0  0  0  0  0  0
   32.9398    2.8125    0.1236 C   0  0  0  0  0  0  0  0  0  0  0  0
   33.2238    1.4749    0.0626 N   0  0  0  0  0  0  0  0  0  0  0  0
   31.6733    3.3833    0.1496 C   0  0  0  0  0  0  0  0  0  0  0  0
   30.4513    2.7229    0.1193 C   0  0  0  0  0  0  0  0  0  0  0  0
   29.1679    3.4073    0.1527 C   0  0  0  0  0  0  0  0  0  0  0  0
   28.2225    2.4471    0.1078 C   0  0  0  0  0  0  0  0  0  0  0  0
   28.9293    1.1776    0.0468 C   0  0  0  0  0  0  0  0  0  0  0  0
   30.2679    1.3832    0.0558 N   0  0  0  0  0  0  0  0  0  0  0  0
   27.2106   -0.0631   -0.0126 H   0  0  0  0  0  0  0  0  0  0  0  0
   27.2352   -2.7473   -0.1413 H   0  0  0  0  0  0  0  0  0  0  0  0
   29.1780   -4.5934   -0.2284 H   0  0  0  0  0  0  0  0  0  0  0  0
   30.9629   -0.7717   -0.0455 H   0  0  0  0  0  0  0  0  0  0  0  0
   31.8399   -4.4976   -0.2216 H   0  0  0  0  0  0  0  0  0  0  0  0
   34.4279   -4.5179   -0.2161 H   0  0  0  0  0  0  0  0  0  0  0  0
   36.3334   -2.6051   -0.1188 H   0  0  0  0  0  0  0  0  0  0  0  0
   36.2469    2.7258    0.1248 H   0  0  0  0  0  0  0  0  0  0  0  0
   34.2977    4.5665    0.2056 H   0  0  0  0  0  0  0  0  0  0  0  0
   32.5304    0.7349    0.0279 H   0  0  0  0  0  0  0  0  0  0  0  0
   31.6459    4.4670    0.2001 H   0  0  0  0  0  0  0  0  0  0  0  0
   29.0437    4.4778    0.2040 H   0  0  0  0  0  0  0  0  0  0  0  0
   27.1488    2.5530    0.1139 H   0  0  0  0  0  0  0  0  0  0  0  0
   89.5433    0.0552    0.0052 C   0  0  0  0  0  0  0  0  0  0  0  0
   88.9236    1.2806   -0.2039 C   0  0  0  0  0  0  0  0  0  0  0  0
   89.5423    2.5468   -0.4124 C   0  0  0  0  0  0  0  0  0  0  0  0
   88.5537    3.4762   -0.5744 C   0  0  0  0  0  0  0  0  0  0  0  0
   87.3000    2.8076   -0.4696 C   0  0  0  0  0  0  0  0  0  0  0  0
   87.5744    1.4892   -0.2471 N   0  0  0  0  0  0  0  0  0  0  0  0
   86.0334    3.3715   -0.5696 C   0  0  0  0  0  0  0  0  0  0  0  0
   84.8112    2.7231   -0.4653 C   0  0  0  0  0  0  0  0  0  0  0  0
   83.5353    3.4067   -0.5814 C   0  0  0  0  0  0  0  0  0  0  0  0
   82.5823    2.4644   -0.4258 C   0  0  0  0  0  0  0  0  0  0  0  0
   84.6133    1.3948   -0.2451 N   0  0  0  0  0  0  0  0  0  0  0  0
   83.2800    1.2084   -0.2164 C   0  0  0  0  0  0  0  0  0  0  0  0
   82.6205   -0.0225   -0.0173 C   0  0  0  0  0  0  0  0  0  0  0  0
   83.2658   -1.2577    0.1821 C   0  0  0  0  0  0  0  0  0  0  0  0
   82.6525   -2.5236    0.3839 C   0  0  0  0  0  0  0  0  0  0  0  0
   83.6451   -3.4518    0.5393 C   0  0  0  0  0  0  0  0  0  0  0  0
   84.8944   -2.7785    0.4371 C   0  0  0  0  0  0  0  0  0  0  0  0
   84.6127   -1.4566    0.2206 N   0  0  0  0  0  0  0  0  0  0  0  0
   86.1599   -3.3429    0.5387 C   0  0  0  0  0  0  0  0  0  0  0  0
   87.3829   -2.6908    0.4421 C   0  0  0  0  0  0  0  0  0  0  0  0
   88.6652   -3.3671    0.5646 C   0  0  0  0  0  0  0  0  0  0  0  0
   89.6121   -2.4189    0.4164 C   0  0  0  0  0  0  0  0  0  0  0  0
   88.9074   -1.1647    0.2033 C   0  0  0  0  0  0  0  0  0  0  0  0
   87.5685   -1.3674    0.2258 N   0  0  0  0  0  0  0  0  0  0  0  0
   90.6282    0.0597    0.0124 H   0  0  0  0  0  0  0  0  0  0  0  0
   90.6082    2.7099   -0.4334 H   0  0  0  0  0  0  0  0  0  0  0  0
   88.6684    4.5339   -0.7512 H   0  0  0  0  0  0  0  0  0  0  0  0
   86.8773    0.7616   -0.1292 H   0  0  0  0  0  0  0  0  0  0  0  0
   86.0066    4.4417   -0.7486 H   0  0  0  0  0  0  0  0  0  0  0  0
   83.4184    4.4645   -0.7577 H   0  0  0  0  0  0  0  0  0  0  0  0
   81.5100    2.5776   -0.4466 H   0  0  0  0  0  0  0  0  0  0  0  0
   81.5874   -2.6903    0.4054 H   0  0  0  0  0  0  0  0  0  0  0  0
   83.5335   -4.5107    0.7103 H   0  0  0  0  0  0  0  0  0  0  0  0
   85.3071   -0.7257    0.1064 H   0  0  0  0  0  0  0  0  0  0  0  0
   86.1855   -4.4136    0.7142 H   0  0  0  0  0  0  0  0  0  0  0  0
   88.7876   -4.4246    0.7401 H   0  0  0  0  0  0  0  0  0  0  0  0
   90.6855   -2.5238    0.4429 H   0  0  0  0  0  0  0  0  0  0  0  0
   37.8458    0.0536    0.0113 C   0  0  0  0  0  0  0  0  0  0  0  0
   36.6233    0.0374    0.0063 C   0  0  0  0  0  0  0  0  0  0  0  0
   39.1948    0.0629    0.0134 C   0  0  0  0  0  0  0  0  0  0  0  0
   40.4175    0.0676    0.0160 C   0  0  0  0  0  0  0  0  0  0  0  0
   51.4462    0.0291   -0.0030 C   0  0  0  0  0  0  0  0  0  0  0  0
   50.2232    0.0348   -0.0061 C   0  0  0  0  0  0  0  0  0  0  0  0
   52.7949    0.0272    0.0011 C   0  0  0  0  0  0  0  0  0  0  0  0
   54.0179    0.0204    0.0053 C   0  0  0  0  0  0  0  0  0  0  0  0
   65.0491   -0.0328   -0.0008 C   0  0  0  0  0  0  0  0  0  0  0  0
   63.8260   -0.0237    0.0028 C   0  0  0  0  0  0  0  0  0  0  0  0
   66.3977   -0.0364   -0.0002 C   0  0  0  0  0  0  0  0  0  0  0  0
   67.6206   -0.0437    0.0026 C   0  0  0  0  0  0  0  0  0  0  0  0
   78.6445   -0.0474   -0.0014 C   0  0  0  0  0  0  0  0  0  0  0  0
   77.4219   -0.0485    0.0040 C   0  0  0  0  0  0  0  0  0  0  0  0
   79.9935   -0.0430   -0.0089 C   0  0  0  0  0  0  0  0  0  0  0  0
   81.2160   -0.0306   -0.0151 C   0  0  0  0  0  0  0  0  0  0  0  0
   41.8211    0.0686    0.0140 C   0  0  0  0  0  0  0  0  0  0  0  0
   42.4647    1.3216    0.0107 C   0  0  0  0  0  0  0  0  0  0  0  0
   41.8553    2.6040    0.0105 C   0  0  0  0  0  0  0  0  0  0  0  0
   42.8522    3.5419    0.0039 C   0  0  0  0  0  0  0  0  0  0  0  0
   44.0982    2.8568   -0.0000 C   0  0  0  0  0  0  0  0  0  0  0  0
   43.8124    1.5190    0.0048 N   0  0  0  0  0  0  0  0  0  0  0  0
   45.3654    3.4305   -0.0079 C   0  0  0  0  0  0  0  0  0  0  0  0
   46.5947    2.7894   -0.0113 C   0  0  0  0  0  0  0  0  0  0  0  0
   47.8611    3.5001   -0.0184 C   0  0  0  0  0  0  0  0  0  0  0  0
   48.8274    2.5584   -0.0175 C   0  0  0  0  0  0  0  0  0  0  0  0
   46.8117    1.4456   -0.0070 N   0  0  0  0  0  0  0  0  0  0  0  0
   48.1475    1.2762   -0.0105 C   0  0  0  0  0  0  0  0  0  0  0  0
   48.8199    0.0358   -0.0065 C   0  0  0  0  0  0  0  0  0  0  0  0
   48.1758   -1.2171   -0.0014 C   0  0  0  0  0  0  0  0  0  0  0  0
   48.7849   -2.4997    0.0017 C   0  0  0  0  0  0  0  0  0  0  0  0
   47.7880   -3.4374    0.0059 C   0  0  0  0  0  0  0  0  0  0  0  0
   46.5420   -2.7521    0.0058 C   0  0  0  0  0  0  0  0  0  0  0  0
   46.8281   -1.4142    0.0012 N   0  0  0  0  0  0  0  0  0  0  0  0
   45.2751   -3.3259    0.0103 C   0  0  0  0  0  0  0  0  0  0  0  0
   44.0456   -2.6848    0.0123 C   0  0  0  0  0  0  0  0  0  0  0  0
   42.7792   -3.3955    0.0177 C   0  0  0  0  0  0  0  0  0  0  0  0
   41.8129   -2.4537    0.0187 C   0  0  0  0  0  0  0  0  0  0  0  0
   42.4930   -1.1716    0.0138 C   0  0  0  0  0  0  0  0  0  0  0  0
   43.8291   -1.3412    0.0102 N   0  0  0  0  0  0  0  0  0  0  0  0
   40.7909    2.7756    0.0148 H   0  0  0  0  0  0  0  0  0  0  0  0
   42.7442    4.6148    0.0017 H   0  0  0  0  0  0  0  0  0  0  0  0
   44.5007    0.7734    0.0032 H   0  0  0  0  0  0  0  0  0  0  0  0
   45.3837    4.5160   -0.0114 H   0  0  0  0  0  0  0  0  0  0  0  0
   47.9632    4.5740   -0.0230 H   0  0  0  0  0  0  0  0  0  0  0  0
   49.8981    2.6879   -0.0216 H   0  0  0  0  0  0  0  0  0  0  0  0
   49.8493   -2.6715    0.0006 H   0  0  0  0  0  0  0  0  0  0  0  0
   47.8957   -4.5103    0.0089 H   0  0  0  0  0  0  0  0  0  0  0  0
   46.1398   -0.6686    0.0002 H   0  0  0  0  0  0  0  0  0  0  0  0
   45.2568   -4.4113    0.0130 H   0  0  0  0  0  0  0  0  0  0  0  0
   42.6769   -4.4694    0.0204 H   0  0  0  0  0  0  0  0  0  0  0  0
   40.7423   -2.5833    0.0226 H   0  0  0  0  0  0  0  0  0  0  0  0
   55.4211    0.0183    0.0089 C   0  0  0  0  0  0  0  0  0  0  0  0
   56.0667    1.2705   -0.0064 C   0  0  0  0  0  0  0  0  0  0  0  0
   55.4593    2.5537   -0.0232 C   0  0  0  0  0  0  0  0  0  0  0  0
   56.4577    3.4900   -0.0346 C   0  0  0  0  0  0  0  0  0  0  0  0
   57.7026    2.8031   -0.0253 C   0  0  0  0  0  0  0  0  0  0  0  0
   57.4147    1.4658   -0.0079 N   0  0  0  0  0  0  0  0  0  0  0  0
   58.9704    3.3754   -0.0343 C   0  0  0  0  0  0  0  0  0  0  0  0
   60.1995    2.7338   -0.0286 C   0  0  0  0  0  0  0  0  0  0  0  0
   61.4662    3.4439   -0.0426 C   0  0  0  0  0  0  0  0  0  0  0  0
   62.4322    2.5018   -0.0325 C   0  0  0  0  0  0  0  0  0  0  0  0
   60.4159    1.3902   -0.0105 N   0  0  0  0  0  0  0  0  0  0  0  0
   61.7517    1.2201   -0.0119 C   0  0  0  0  0  0  0  0  0  0  0  0
   62.4229   -0.0207    0.0049 C   0  0  0  0  0  0  0  0  0  0  0  0
   61.7772   -1.2727    0.0245 C   0  0  0  0  0  0  0  0  0  0  0  0
   62.3848   -2.5558    0.0414 C   0  0  0  0  0  0  0  0  0  0  0  0
   61.3866   -3.4922    0.0570 C   0  0  0  0  0  0  0  0  0  0  0  0
   60.1416   -2.8054    0.0498 C   0  0  0  0  0  0  0  0  0  0  0  0
   60.4293   -1.4681    0.0301 N   0  0  0  0  0  0  0  0  0  0  0  0
   58.8738   -3.3777    0.0598 C   0  0  0  0  0  0  0  0  0  0  0  0
   57.6449   -2.7360    0.0510 C   0  0  0  0  0  0  0  0  0  0  0  0
   56.3782   -3.4461    0.0607 C   0  0  0  0  0  0  0  0  0  0  0  0
   55.4122   -2.5041    0.0458 C   0  0  0  0  0  0  0  0  0  0  0  0
   56.0926   -1.2224    0.0274 C   0  0  0  0  0  0  0  0  0  0  0  0
   57.4284   -1.3923    0.0312 N   0  0  0  0  0  0  0  0  0  0  0  0
   54.3951    2.7270   -0.0261 H   0  0  0  0  0  0  0  0  0  0  0  0
   56.3513    4.5630   -0.0484 H   0  0  0  0  0  0  0  0  0  0  0  0
   58.1016    0.7189    0.0019 H   0  0  0  0  0  0  0  0  0  0  0  0
   58.9894    4.4608   -0.0488 H   0  0  0  0  0  0  0  0  0  0  0  0
   61.5688    4.5177   -0.0583 H   0  0  0  0  0  0  0  0  0  0  0  0
   63.5029    2.6309   -0.0380 H   0  0  0  0  0  0  0  0  0  0  0  0
   63.4491   -2.7289    0.0413 H   0  0  0  0  0  0  0  0  0  0  0  0
   61.4932   -4.5652    0.0719 H   0  0  0  0  0  0  0  0  0  0  0  0
   59.7423   -0.7213    0.0208 H   0  0  0  0  0  0  0  0  0  0  0  0
   58.8548   -4.4631    0.0756 H   0  0  0  0  0  0  0  0  0  0  0  0
   56.2756   -4.5199    0.0765 H   0  0  0  0  0  0  0  0  0  0  0  0
   54.3415   -2.6332    0.0468 H   0  0  0  0  0  0  0  0  0  0  0  0
   69.0239   -0.0425    0.0048 C   0  0  0  0  0  0  0  0  0  0  0  0
   69.6638    1.2120   -0.0333 C   0  0  0  0  0  0  0  0  0  0  0  0
   69.0493    2.4913   -0.0746 C   0  0  0  0  0  0  0  0  0  0  0  0
   70.0422    3.4328   -0.1045 C   0  0  0  0  0  0  0  0  0  0  0  0
   71.2909    2.7531   -0.0823 C   0  0  0  0  0  0  0  0  0  0  0  0
   71.0106    1.4147   -0.0390 N   0  0  0  0  0  0  0  0  0  0  0  0
   72.5556    3.3315   -0.1024 C   0  0  0  0  0  0  0  0  0  0  0  0
   73.7869    2.6943   -0.0837 C   0  0  0  0  0  0  0  0  0  0  0  0
   75.0515    3.4077   -0.1113 C   0  0  0  0  0  0  0  0  0  0  0  0
   76.0201    2.4688   -0.0824 C   0  0  0  0  0  0  0  0  0  0  0  0
   74.0068    1.3520   -0.0388 N   0  0  0  0  0  0  0  0  0  0  0  0
   75.3433    1.1858   -0.0366 C   0  0  0  0  0  0  0  0  0  0  0  0
   76.0183   -0.0518    0.0076 C   0  0  0  0  0  0  0  0  0  0  0  0
   75.3790   -1.3060    0.0555 C   0  0  0  0  0  0  0  0  0  0  0  0
   75.9937   -2.5850    0.1015 C   0  0  0  0  0  0  0  0  0  0  0  0
   75.0008   -3.5266    0.1331 C   0  0  0  0  0  0  0  0  0  0  0  0
   73.7521   -2.8472    0.1071 C   0  0  0  0  0  0  0  0  0  0  0  0
   74.0322   -1.5090    0.0615 N   0  0  0  0  0  0  0  0  0  0  0  0
   72.4871   -3.4257    0.1220 C   0  0  0  0  0  0  0  0  0  0  0  0
   71.2559   -2.7888    0.0962 C   0  0  0  0  0  0  0  0  0  0  0  0
   69.9914   -3.5026    0.1132 C   0  0  0  0  0  0  0  0  0  0  0  0
   69.0226   -2.5639    0.0805 C   0  0  0  0  0  0  0  0  0  0  0  0
   69.6993   -1.2805    0.0438 C   0  0  0  0  0  0  0  0  0  0  0  0
   71.0355   -1.4462    0.0536 N   0  0  0  0  0  0  0  0  0  0  0  0
   67.9841    2.6585   -0.0806 H   0  0  0  0  0  0  0  0  0  0  0  0
   69.9298    4.5047   -0.1393 H   0  0  0  0  0  0  0  0  0  0  0  0
   71.7024    0.6727   -0.0151 H   0  0  0  0  0  0  0  0  0  0  0  0
   72.5701    4.4164   -0.1381 H   0  0  0  0  0  0  0  0  0  0  0  0
   75.1510    4.4813   -0.1479 H   0  0  0  0  0  0  0  0  0  0  0  0
   77.0905    2.6008   -0.0897 H   0  0  0  0  0  0  0  0  0  0  0  0
   77.0589   -2.7520    0.1086 H   0  0  0  0  0  0  0  0  0  0  0  0
   75.1134   -4.5985    0.1706 H   0  0  0  0  0  0  0  0  0  0  0  0
   73.3404   -0.7671    0.0339 H   0  0  0  0  0  0  0  0  0  0  0  0
   72.4727   -4.5106    0.1575 H   0  0  0  0  0  0  0  0  0  0  0  0
   69.8921   -4.5764    0.1455 H   0  0  0  0  0  0  0  0  0  0  0  0
   67.9523   -2.6963    0.0802 H   0  0  0  0  0  0  0  0  0  0  0  0
  1  2  4  0  0  0  0
  2  3  4  0  0  0  0
  3  4  2  0  0  0  0
  4  5  4  0  0  0  0
  2  6  4  0  0  0  0
  5  6  4  0  0  0  0
  5  7  4  0  0  0  0
  7  8  4  0  0  0  0
  8  9  1  0  0  0  0
  9 10  2  0  0  0  0
  8 11  4  0  0  0  0
 10 12  1  0  0  0  0
 11 12  4  0  0  0  0
 12 13  4  0  0  0  0
 13 14  4  0  0  0  0
 14 15  4  0  0  0  0
 15 16  2  0  0  0  0
 16 17  4  0  0  0  0
 14 18  4  0  0  0  0
 17 18  4  0  0  0  0
 17 19  4  0  0  0  0
 19 20  4  0  0  0  0
 20 21  1  0  0  0  0
 21 22  2  0  0  0  0
  1 23  4  0  0  0  0
 22 23  1  0  0  0  0
 20 24  4  0  0  0  0
 23 24  4  0  0  0  0
  1 25  1  0  0  0  0
  3 26  1  0  0  0  0
  4 27  1  0  0  0  0
  6 28  1  0  0  0  0
  7 29  1  0  0  0  0
  9 30  1  0  0  0  0
 10 31  1  0  0  0  0
 15 32  1  0  0  0  0
 16 33  1  0  0  0  0
 18 34  1  0  0  0  0
 19 35  1  0  0  0  0
 21 36  1  0  0  0  0
 22 37  1  0  0  0  0
 38 39  4  0  0  0  0
 39 40  4  0  0  0  0
 40 41  2  0  0  0  0
 41 42  4  0  0  0  0
 39 43  4  0  0  0  0
 42 43  4  0  0  0  0
 42 44  4  0  0  0  0
 44 45  4  0  0  0  0
 45 46  1  0  0  0  0
 46 47  2  0  0  0  0
 45 48  4  0  0  0  0
 47 49  1  0  0  0  0
 48 49  4  0  0  0  0
 49 50  4  0  0  0  0
 50 51  4  0  0  0  0
 51 52  4  0  0  0  0
 52 53  2  0  0  0  0
 53 54  4  0  0  0  0
 51 55  4  0  0  0  0
 54 55  4  0  0  0  0
 54 56  4  0  0  0  0
 56 57  4  0  0  0  0
 57 58  1  0  0  0  0
 58 59  2  0  0  0  0
 38 60  4  0  0  0  0
 59 60  1  0  0  0  0
 57 61  4  0  0  0  0
 60 61  4  0  0  0  0
 38 62  1  0  0  0  0
 40 63  1  0  0  0  0
 41 64  1  0  0  0  0
 43 65  1  0  0  0  0
 44 66  1  0  0  0  0
 46 67  1  0  0  0  0
 47 68  1  0  0  0  0
 52 69  1  0  0  0  0
 53 70  1  0  0  0  0
 55 71  1  0  0  0  0
 56 72  1  0  0  0  0
 58 73  1  0  0  0  0
 59 74  1  0  0  0  0
 13 76  4  0  0  0  0
 75 76  3  0  0  0  0
 75 77  4  0  0  0  0
 77 78  3  0  0  0  0
 79 80  3  0  0  0  0
 79 81  4  0  0  0  0
 81 82  3  0  0  0  0
 83 84  3  0  0  0  0
 83 85  4  0  0  0  0
 85 86  3  0  0  0  0
 87 88  3  0  0  0  0
 87 89  4  0  0  0  0
 50 90  4  0  0  0  0
 89 90  3  0  0  0  0
 78 91  4  0  0  0  0
 91 92  4  0  0  0  0
 92 93  4  0  0  0  0
 93 94  2  0  0  0  0
 94 95  4  0  0  0  0
 92 96  4  0  0  0  0
 95 96  4  0  0  0  0
 95 97  4  0  0  0  0
 97 98  4  0  0  0  0
 98 99  1  0  0  0  0
 99100  2  0  0  0  0
 98101  4  0  0  0  0
100102  1  0  0  0  0
101102  4  0  0  0  0
 80103  4  0  0  0  0
102103  4  0  0  0  0
103104  4  0  0  0  0
104105  4  0  0  0  0
105106  2  0  0  0  0
106107  4  0  0  0  0
104108  4  0  0  0  0
107108  4  0  0  0  0
107109  4  0  0  0  0
109110  4  0  0  0  0
110111  1  0  0  0  0
111112  2  0  0  0  0
 91113  4  0  0  0  0
112113  1  0  0  0  0
110114  4  0  0  0  0
113114  4  0  0  0  0
 93115  1  0  0  0  0
 94116  1  0  0  0  0
 96117  1  0  0  0  0
 97118  1  0  0  0  0
 99119  1  0  0  0  0
100120  1  0  0  0  0
105121  1  0  0  0  0
106122  1  0  0  0  0
108123  1  0  0  0  0
109124  1  0  0  0  0
111125  1  0  0  0  0
112126  1  0  0  0  0
 82127  4  0  0  0  0
127128  4  0  0  0  0
128129  4  0  0  0  0
129130  2  0  0  0  0
130131  4  0  0  0  0
128132  4  0  0  0  0
131132  4  0  0  0  0
131133  4  0  0  0  0
133134  4  0  0  0  0
134135  1  0  0  0  0
135136  2  0  0  0  0
134137  4  0  0  0  0
136138  1  0  0  0  0
137138  4  0  0  0  0
 84139  4  0  0  0  0
138139  4  0  0  0  0
139140  4  0  0  0  0
140141  4  0  0  0  0
141142  2  0  0  0  0
142143  4  0  0  0  0
140144  4  0  0  0  0
143144  4  0  0  0  0
143145  4  0  0  0  0
145146  4  0  0  0  0
146147  1  0  0  0  0
147148  2  0  0  0  0
127149  4  0  0  0  0
148149  1  0  0  0  0
146150  4  0  0  0  0
149150  4  0  0  0  0
129151  1  0  0  0  0
130152  1  0  0  0  0
132153  1  0  0  0  0
133154  1  0  0  0  0
135155  1  0  0  0  0
136156  1  0  0  0  0
141157  1  0  0  0  0
142158  1  0  0  0  0
144159  1  0  0  0  0
145160  1  0  0  0  0
147161  1  0  0  0  0
148162  1  0  0  0  0
 86163  4  0  0  0  0
163164  4  0  0  0  0
164165  4  0  0  0  0
165166  2  0  0  0  0
166167  4  0  0  0  0
164168  4  0  0  0  0
167168  4  0  0  0  0
167169  4  0  0  0  0
169170  4  0  0  0  0
170171  1  0  0  0  0
171172  2  0  0  0  0
170173  4  0  0  0  0
172174  1  0  0  0  0
173174  4  0  0  0  0
 88175  4  0  0  0  0
174175  4  0  0  0  0
175176  4  0  0  0  0
176177  4  0  0  0  0
177178  2  0  0  0  0
178179  4  0  0  0  0
176180  4  0  0  0  0
179180  4  0  0  0  0
179181  4  0  0  0  0
181182  4  0  0  0  0
182183  1  0  0  0  0
183184  2  0  0  0  0
163185  4  0  0  0  0
184185  1  0  0  0  0
182186  4  0  0  0  0
185186  4  0  0  0  0
165187  1  0  0  0  0
166188  1  0  0  0  0
168189  1  0  0  0  0
169190  1  0  0  0  0
171191  1  0  0  0  0
172192  1  0  0  0  0
177193  1  0  0  0  0
178194  1  0  0  0  0
180195  1  0  0  0  0
181196  1  0  0  0  0
183197  1  0  0  0  0
184198  1  0  0  0  0
M  END
