78

Fe 6.785847 0.036429 0.036936
C 3.412190 -0.073204 -0.073116
C 4.085096 -0.887987 -0.891568
C 3.456395 -1.818411 -1.826095
C 4.417217 -2.459716 -2.470278
C 5.700339 -1.966007 -1.974423
N 5.506154 -0.970446 -0.974445
C 6.888578 -2.396879 -2.407184
C 8.188262 -1.905460 -1.913537
C 9.467945 -2.403654 -2.413661
C 10.423694 -1.762415 -1.769550
N 8.341880 -0.996523 -1.000718
C 9.753169 -0.846675 -0.850028
C 10.361899 -0.000263 0.000072
C 9.614084 0.905668 0.909811
C 10.185489 1.752653 1.760409
C 9.123399 2.450012 2.460808
C 7.977041 1.983890 1.992717
N 8.189514 0.987272 0.991793
C 6.661746 2.454296 2.465298
C 5.494872 1.996875 2.005966
C 4.187056 2.446179 2.457450
C 3.306029 1.751544 1.759836
C 4.052938 0.862754 0.866965
N 5.334287 0.999533 1.004185
H 2.329078 -0.095728 -0.095668
H 2.394977 -1.968123 -1.976422
H 4.263552 -3.215689 -3.229581
H 6.908276 -3.161364 -3.175025
H 9.618824 -3.159785 -3.172957
H 11.485367 -1.909199 -1.916749
H 11.245121 1.904904 1.913305
H 9.243207 3.209120 3.223223
H 6.645116 3.219186 3.233587
H 3.963318 3.193258 3.207918
H 2.230371 1.834499 1.843333
Fe 22.280217 -0.052210 0.002659
C 25.653874 0.102942 -0.004999
C 24.980968 1.256394 -0.062313
C 25.609669 2.573494 -0.127700
C 24.648847 3.481354 -0.172804
C 23.365725 2.782484 -0.138132
N 23.559910 1.373158 -0.068149
C 22.177486 3.392416 -0.168403
C 20.877802 2.696727 -0.133823
C 19.598119 3.401786 -0.168637
C 18.642370 2.494024 -0.123541
N 20.724184 1.410127 -0.070041
C 19.312895 1.197882 -0.059376
C 18.704165 -0.000263 0.000072
C 19.451980 -1.282565 0.063598
C 18.880575 -2.481468 0.123031
C 19.942665 -3.468620 0.172011
C 21.089023 -2.808839 0.139318
N 20.876550 -1.398095 0.069346
C 22.404318 -3.474810 0.172450
C 23.571192 -2.827361 0.140384
C 24.879008 -3.463525 0.172106
C 25.760035 -2.480262 0.123352
C 25.013126 -1.221989 0.060773
N 23.731777 -1.415503 0.070265
H 26.736986 0.134779 -0.006528
H 26.671087 2.785395 -0.138187
H 24.802512 4.551501 -0.225927
H 22.157788 4.474604 -0.222116
H 19.447240 4.472045 -0.221648
H 17.580697 2.701654 -0.133684
H 17.820943 -2.696975 0.133710
H 19.822857 -4.543180 0.225327
H 22.420948 -4.557600 0.226223
H 25.102746 -4.521148 0.224677
H 26.835693 -2.597811 0.129312
C 15.136697 0.000349 0.008698
C 13.927758 -0.013106 0.000251
C 12.506229 -0.004286 -0.011733
C 11.294559 0.003152 -0.000870
C 16.553301 -0.006326 0.009231
C 17.773997 0.003152 -0.000870
