 xtb: 6.5.1 (b24c23e)
          07292216053D

 78 93  0     0  0            999 V2000
    6.5166   -0.0518    0.0084 Fe  0  0  0  0  0  0  0  0  0  0  0  0
    3.1051   -0.0616   -0.0176 C   0  0  0  0  0  0  0  0  0  0  0  0
    3.7618   -0.8998   -0.8952 C   0  0  0  0  0  0  0  0  0  0  0  0
    3.0928   -1.7826   -1.8057 C   0  0  0  0  0  0  0  0  0  0  0  0
    4.0582   -2.4459   -2.4841 C   0  0  0  0  0  0  0  0  0  0  0  0
    5.3144   -1.9699   -1.9831 C   0  0  0  0  0  0  0  0  0  0  0  0
    5.1206   -1.0151   -1.0221 N   0  0  0  0  0  0  0  0  0  0  0  0
    6.5388   -2.4439   -2.4103 C   0  0  0  0  0  0  0  0  0  0  0  0
    7.7527   -2.0135   -1.9191 C   0  0  0  0  0  0  0  0  0  0  0  0
    9.0136   -2.5387   -2.3487 C   0  0  0  0  0  0  0  0  0  0  0  0
    9.9676   -1.8742   -1.6535 C   0  0  0  0  0  0  0  0  0  0  0  0
    7.9357   -1.0343   -0.9730 N   0  0  0  0  0  0  0  0  0  0  0  0
    9.2856   -0.9417   -0.8083 C   0  0  0  0  0  0  0  0  0  0  0  0
    9.9485   -0.0355    0.0276 C   0  0  0  0  0  0  0  0  0  0  0  0
    9.2689    0.8848    0.8339 C   0  0  0  0  0  0  0  0  0  0  0  0
    9.9335    1.8248    1.6847 C   0  0  0  0  0  0  0  0  0  0  0  0
    8.9648    2.5234    2.3238 C   0  0  0  0  0  0  0  0  0  0  0  0
    7.7127    2.0034    1.8633 C   0  0  0  0  0  0  0  0  0  0  0  0
    7.9154    1.0074    0.9383 N   0  0  0  0  0  0  0  0  0  0  0  0
    6.4891    2.4429    2.3206 C   0  0  0  0  0  0  0  0  0  0  0  0
    5.2742    1.9392    1.8999 C   0  0  0  0  0  0  0  0  0  0  0  0
    4.0090    2.3903    2.4008 C   0  0  0  0  0  0  0  0  0  0  0  0
    3.0578    1.6818    1.7483 C   0  0  0  0  0  0  0  0  0  0  0  0
    3.7445    0.8024    0.8479 C   0  0  0  0  0  0  0  0  0  0  0  0
    5.1000    0.9680    0.9519 N   0  0  0  0  0  0  0  0  0  0  0  0
    2.0211   -0.0786   -0.0117 H   0  0  0  0  0  0  0  0  0  0  0  0
    2.0214   -1.8679   -1.8960 H   0  0  0  0  0  0  0  0  0  0  0  0
    3.9527   -3.1953   -3.2526 H   0  0  0  0  0  0  0  0  0  0  0  0
    6.5458   -3.2137   -3.1738 H   0  0  0  0  0  0  0  0  0  0  0  0
    9.1324   -3.3170   -3.0857 H   0  0  0  0  0  0  0  0  0  0  0  0
   11.0388   -1.9880   -1.6991 H   0  0  0  0  0  0  0  0  0  0  0  0
   11.0039    1.9217    1.7701 H   0  0  0  0  0  0  0  0  0  0  0  0
    9.0683    3.3160    3.0476 H   0  0  0  0  0  0  0  0  0  0  0  0
    6.4803    3.2304    3.0658 H   0  0  0  0  0  0  0  0  0  0  0  0
    3.8880    3.1515    3.1553 H   0  0  0  0  0  0  0  0  0  0  0  0
    1.9853    1.7350    1.8496 H   0  0  0  0  0  0  0  0  0  0  0  0
   22.5494    0.0296    0.0446 Fe  0  0  0  0  0  0  0  0  0  0  0  0
   25.9607    0.0571    0.0224 C   0  0  0  0  0  0  0  0  0  0  0  0
   25.3029    1.2672   -0.0617 C   0  0  0  0  0  0  0  0  0  0  0  0
   25.9707    2.5333   -0.1443 C   0  0  0  0  0  0  0  0  0  0  0  0
   25.0043    3.4796   -0.1996 C   0  0  0  0  0  0  0  0  0  0  0  0
   23.7489    2.7894   -0.1453 C   0  0  0  0  0  0  0  0  0  0  0  0
   23.9440    1.4368   -0.0750 N   0  0  0  0  0  0  0  0  0  0  0  0
   22.5239    3.4263   -0.1393 C   0  0  0  0  0  0  0  0  0  0  0  0
   21.3109    2.7765   -0.0589 C   0  0  0  0  0  0  0  0  0  0  0  0
   20.0498    3.4533   -0.0175 C   0  0  0  0  0  0  0  0  0  0  0  0
   19.0969    2.4934    0.0562 C   0  0  0  0  0  0  0  0  0  0  0  0
   21.1292    1.4154   -0.0148 N   0  0  0  0  0  0  0  0  0  0  0  0
   19.7796    1.2353    0.0521 C   0  0  0  0  0  0  0  0  0  0  0  0
   19.1178    0.0020    0.0639 C   0  0  0  0  0  0  0  0  0  0  0  0
   19.7983   -1.2209    0.0384 C   0  0  0  0  0  0  0  0  0  0  0  0
   19.1344   -2.4891    0.0379 C   0  0  0  0  0  0  0  0  0  0  0  0
   20.1036   -3.4354    0.0341 C   0  0  0  0  0  0  0  0  0  0  0  0
   21.3553   -2.7400    0.0369 C   0  0  0  0  0  0  0  0  0  0  0  0
   21.1517   -1.3811    0.0257 N   0  0  0  0  0  0  0  0  0  0  0  0
   22.5797   -3.3719    0.0721 C   0  0  0  0  0  0  0  0  0  0  0  0
   23.7940   -2.7152    0.0960 C   0  0  0  0  0  0  0  0  0  0  0  0
   25.0601   -3.3849    0.1581 C   0  0  0  0  0  0  0  0  0  0  0  0
   26.0104   -2.4209    0.1520 C   0  0  0  0  0  0  0  0  0  0  0  0
   25.3224   -1.1649    0.0817 C   0  0  0  0  0  0  0  0  0  0  0  0
   23.9670   -1.3586    0.0503 N   0  0  0  0  0  0  0  0  0  0  0  0
   27.0447    0.0665    0.0357 H   0  0  0  0  0  0  0  0  0  0  0  0
   27.0420    2.6582   -0.1560 H   0  0  0  0  0  0  0  0  0  0  0  0
   25.1089    4.5511   -0.2657 H   0  0  0  0  0  0  0  0  0  0  0  0
   22.5156    4.5094   -0.1881 H   0  0  0  0  0  0  0  0  0  0  0  0
   19.9301    4.5248   -0.0397 H   0  0  0  0  0  0  0  0  0  0  0  0
   18.0259    2.6078    0.1051 H   0  0  0  0  0  0  0  0  0  0  0  0
   18.0640   -2.6187    0.0423 H   0  0  0  0  0  0  0  0  0  0  0  0
   20.0008   -4.5088    0.0360 H   0  0  0  0  0  0  0  0  0  0  0  0
   22.5895   -4.4560    0.0914 H   0  0  0  0  0  0  0  0  0  0  0  0
   25.1822   -4.4557    0.2017 H   0  0  0  0  0  0  0  0  0  0  0  0
   27.0831   -2.5275    0.1884 H   0  0  0  0  0  0  0  0  0  0  0  0
   15.1477   -0.0215    0.0987 C   0  0  0  0  0  0  0  0  0  0  0  0
   13.9184   -0.0324    0.0878 C   0  0  0  0  0  0  0  0  0  0  0  0
   12.5755   -0.0325    0.0745 C   0  0  0  0  0  0  0  0  0  0  0  0
   11.3509   -0.0433    0.0496 C   0  0  0  0  0  0  0  0  0  0  0  0
   16.4906   -0.0152    0.0972 C   0  0  0  0  0  0  0  0  0  0  0  0
   17.7155   -0.0087    0.0873 C   0  0  0  0  0  0  0  0  0  0  0  0
  2  3  4  0  0  0  0
  3  4  1  0  0  0  0
  4  5  2  0  0  0  0
  5  6  4  0  0  0  0
  1  7  1  0  0  0  0
  3  7  4  0  0  0  0
  6  7  4  0  0  0  0
  6  8  4  0  0  0  0
  8  9  4  0  0  0  0
  9 10  4  0  0  0  0
 10 11  2  0  0  0  0
  1 12  1  0  0  0  0
  9 12  4  0  0  0  0
 11 13  4  0  0  0  0
 12 13  4  0  0  0  0
 13 14  4  0  0  0  0
 14 15  4  0  0  0  0
 15 16  4  0  0  0  0
 16 17  2  0  0  0  0
 17 18  4  0  0  0  0
  1 19  1  0  0  0  0
 15 19  4  0  0  0  0
 18 19  4  0  0  0  0
 18 20  4  0  0  0  0
 20 21  4  0  0  0  0
 21 22  4  0  0  0  0
 22 23  2  0  0  0  0
  2 24  4  0  0  0  0
 23 24  1  0  0  0  0
  1 25  1  0  0  0  0
 21 25  4  0  0  0  0
 24 25  4  0  0  0  0
  2 26  1  0  0  0  0
  4 27  1  0  0  0  0
  5 28  1  0  0  0  0
  8 29  1  0  0  0  0
 10 30  1  0  0  0  0
 11 31  1  0  0  0  0
 16 32  1  0  0  0  0
 17 33  1  0  0  0  0
 20 34  1  0  0  0  0
 22 35  1  0  0  0  0
 23 36  1  0  0  0  0
 38 39  4  0  0  0  0
 39 40  1  0  0  0  0
 40 41  2  0  0  0  0
 41 42  4  0  0  0  0
 37 43  1  0  0  0  0
 39 43  4  0  0  0  0
 42 43  4  0  0  0  0
 42 44  4  0  0  0  0
 44 45  4  0  0  0  0
 45 46  4  0  0  0  0
 46 47  2  0  0  0  0
 37 48  1  0  0  0  0
 45 48  4  0  0  0  0
 47 49  4  0  0  0  0
 48 49  4  0  0  0  0
 49 50  4  0  0  0  0
 50 51  4  0  0  0  0
 51 52  4  0  0  0  0
 52 53  2  0  0  0  0
 53 54  4  0  0  0  0
 37 55  1  0  0  0  0
 51 55  4  0  0  0  0
 54 55  4  0  0  0  0
 54 56  4  0  0  0  0
 56 57  4  0  0  0  0
 57 58  4  0  0  0  0
 58 59  2  0  0  0  0
 38 60  4  0  0  0  0
 59 60  1  0  0  0  0
 37 61  1  0  0  0  0
 57 61  4  0  0  0  0
 60 61  4  0  0  0  0
 38 62  1  0  0  0  0
 40 63  1  0  0  0  0
 41 64  1  0  0  0  0
 44 65  1  0  0  0  0
 46 66  1  0  0  0  0
 47 67  1  0  0  0  0
 52 68  1  0  0  0  0
 53 69  1  0  0  0  0
 56 70  1  0  0  0  0
 58 71  1  0  0  0  0
 59 72  1  0  0  0  0
 73 74  3  0  0  0  0
 74 75  4  0  0  0  0
 14 76  4  0  0  0  0
 75 76  3  0  0  0  0
 73 77  4  0  0  0  0
 50 78  4  0  0  0  0
 77 78  3  0  0  0  0
M  END
