292

Cu 50.822875 -0.017457 -0.045182
C 47.478824 0.112159 0.047190
C 48.146698 0.896649 0.897673
C 47.501809 1.775973 1.865937
C 48.447702 2.426422 2.517416
C 49.749629 1.995241 1.991800
N 49.566371 1.019825 0.965797
C 50.943222 2.473550 2.394478
C 52.236751 2.020744 1.822436
C 53.528316 2.638044 2.144804
C 54.462687 1.982646 1.487080
N 52.374430 1.023993 1.002464
C 53.775190 0.935507 0.740666
C 54.368325 0.002575 -0.022819
C 53.607921 -1.045297 -0.743126
C 54.154557 -2.139295 -1.259072
C 53.106053 -2.861420 -1.951386
C 51.986553 -2.160542 -1.815171
C 50.691855 -2.526486 -2.445224
C 50.695718 -3.535670 -3.534507
C 51.223363 -3.196964 -4.796653
O 51.721391 -1.898222 -4.996067
C 52.284591 -1.426929 -6.215382
C 51.234610 -4.161930 -5.820489
C 50.730014 -5.441350 -5.588710
C 50.213002 -5.778568 -4.337929
C 50.194979 -4.832114 -3.296945
O 49.695600 -5.142765 -2.020618
C 49.148173 -6.404262 -1.652400
C 49.528839 -1.966323 -2.064039
C 48.212181 -2.248176 -2.632441
C 47.351632 -1.529349 -1.938159
C 48.110239 -0.782513 -0.935864
N 49.380782 -1.029894 -0.999417
N 52.212998 -0.978531 -1.043984
C 50.987294 3.512868 3.449069
C 51.117714 3.133080 4.799085
O 51.202947 1.766115 5.112402
C 51.324553 1.246121 6.432519
C 51.157432 4.128354 5.792937
C 51.070732 5.476473 5.443675
C 50.945775 5.851516 4.105434
C 50.904500 4.873700 3.094432
O 50.783974 5.213239 1.736290
C 50.705066 6.546017 1.241054
H 46.395431 0.134960 0.069648
H 46.438005 1.890553 2.030984
H 48.267366 3.155631 3.296789
H 53.704902 3.479474 2.801994
H 55.521960 2.198581 1.523225
H 55.192926 -2.436209 -1.198123
H 53.225005 -3.787790 -2.498234
H 51.529417 -1.474721 -7.028139
H 52.599358 -0.371214 -6.084476
H 53.176196 -2.032229 -6.483118
H 51.630495 -3.932896 -6.800411
H 50.742527 -6.177206 -6.382525
H 49.833773 -6.780204 -4.189597
H 48.829699 -6.364711 -0.590820
H 48.261452 -6.633126 -2.280539
H 49.913794 -7.201076 -1.764776
H 47.965374 -2.911517 -3.451275
H 46.281023 -1.505802 -2.093715
H 51.372039 0.139299 6.382412
H 50.441191 1.537027 7.039504
H 52.256824 1.621480 6.905947
H 51.253654 3.871050 6.839010
H 51.101511 6.235574 6.214865
H 50.882758 6.904697 3.868045
H 51.623057 7.109609 1.513161
H 50.621381 6.516727 0.135574
H 49.806608 7.052652 1.652532
Cu 83.046424 0.021865 0.000186
C 86.390475 -0.051159 -0.141238
C 85.722601 -0.781580 -1.038584
C 86.367490 -1.615116 -2.046533
C 85.421596 -2.167592 -2.782930
C 84.119670 -1.708556 -2.281457
N 84.302928 -0.831516 -1.170188
C 82.926076 -2.039207 -2.812116
C 81.632548 -1.537286 -2.282643
C 80.340983 -1.768698 -2.939476
C 79.406611 -1.210743 -2.197294
N 81.494869 -0.867219 -1.179522
C 80.094109 -0.620645 -1.054745
C 79.500974 0.002575 -0.022819
C 80.261377 0.566725 1.116746
C 79.714742 0.922037 2.272940
C 80.763245 1.504752 3.086086
C 81.882745 1.469479 2.372967
C 83.177444 2.041160 2.824699
C 83.173580 2.976041 3.978382
C 82.645936 4.273502 3.822400
O 82.147907 4.655381 2.565155
C 81.584708 5.929279 2.271845
C 82.634689 5.149882 4.923016
C 83.139285 4.738711 6.156539
C 83.656297 3.452712 6.312662
C 83.674319 2.556728 5.227934
O 84.173699 1.249215 5.354131
C 84.721126 0.705535 6.550531
C 84.340459 1.743411 2.216068
C 85.657117 2.266013 2.575805
C 86.517667 1.680881 1.765645
C 85.759060 0.794838 0.884005
N 84.488517 0.822606 1.137905
N 81.656301 0.874017 1.093394
C 82.882005 -2.935467 -3.990700
C 82.751585 -4.325743 -3.806534
O 82.666352 -4.830061 -2.497937
C 82.544746 -6.210656 -2.170741
C 82.711867 -5.168137 -4.932892
C 82.798567 -4.630916 -6.217728
C 82.923524 -3.252971 -6.398870
C 82.964799 -2.391120 -5.287356
O 83.085325 -0.998519 -5.430527
C 83.164233 -0.318983 -6.679441
H 87.473868 -0.070150 -0.166998
H 87.431294 -1.762214 -2.183396
H 85.601933 -2.835478 -3.615454
H 80.164397 -2.299698 -3.865728
H 78.347339 -1.215848 -2.416174
H 78.676372 0.819529 2.558186
H 80.644294 1.914463 4.080743
H 82.339882 6.727005 2.434605
H 81.269941 5.949665 1.208241
H 80.693103 6.108317 2.909039
H 82.238804 6.152401 4.835504
H 83.126771 5.419947 6.997694
H 84.035526 3.163601 7.283071
H 85.039600 -0.339662 6.360583
H 85.607847 1.294794 6.866301
H 83.955505 0.703584 7.355227
H 85.903924 2.982315 3.348736
H 87.588276 1.838204 1.764433
H 82.497259 -6.318282 -1.068024
H 83.428108 -6.770163 -2.544919
H 81.612475 -6.625964 -2.609543
H 82.615644 -6.240152 -4.826794
H 82.767788 -5.286455 -7.078679
H 82.986541 -2.868384 -7.407650
H 82.246241 -0.508271 -7.275971
H 83.247917 0.771126 -6.493414
H 84.062690 -0.654320 -7.239390
C 56.114009 0.002575 -0.022819
C 57.335927 0.002575 -0.022819
C 66.323691 0.002575 -0.022819
C 67.545608 0.002575 -0.022819
C 76.533372 0.002575 -0.022819
C 77.755290 0.002575 -0.022819
Cu 61.738881 0.004812 -0.065448
C 58.383405 -0.002720 0.024105
C 59.040624 -0.050674 1.197524
C 58.399477 -0.167106 2.509426
C 59.339634 -0.148344 3.432985
C 60.638456 -0.016857 2.766599
N 60.459339 0.041647 1.349854
C 61.823829 0.061968 3.404622
C 63.124593 0.181930 2.701712
C 64.396435 0.448027 3.384184
C 65.350643 0.437152 2.476338
N 63.291933 0.012864 1.426959
C 64.694424 0.160592 1.204541
C 65.312551 -0.002720 0.024105
C 64.569677 -0.280005 -1.224711
C 65.122509 -0.747186 -2.337032
C 64.087839 -0.775993 -3.352193
C 62.972464 -0.323260 -2.791465
C 61.705015 -0.089153 -3.523861
C 61.750986 -0.004002 -5.005108
C 61.259704 -1.068683 -5.787431
O 60.735394 -2.200035 -5.139534
C 60.210470 -3.342508 -5.807244
C 61.312050 -0.973278 -7.190285
C 61.851059 0.159393 -7.800412
C 62.345380 1.208660 -7.025791
C 62.301428 1.137369 -5.621230
O 62.787223 2.176476 -4.809950
C 63.360420 3.384076 -5.299846
C 60.530841 0.068283 -2.885519
C 59.247545 0.347421 -3.520694
C 58.356800 0.370203 -2.550779
C 59.060327 0.109312 -1.289416
N 60.332022 -0.066496 -1.478417
N 63.185777 0.010202 -1.420466
C 61.853214 0.022031 4.885783
C 62.099698 -1.197383 5.545879
O 62.306500 -2.354164 4.775693
C 62.563602 -3.647063 5.313089
C 62.130267 -1.224552 6.952174
C 61.921315 -0.055695 7.684168
C 61.682070 1.152351 7.029321
C 61.647438 1.204177 5.623700
O 61.416561 2.403763 4.929773
C 61.205118 3.667615 5.550002
H 57.341765 -0.252991 2.719260
H 59.155736 -0.216751 4.497561
H 64.546457 0.620641 4.441832
H 66.402898 0.597600 2.669754
H 66.157949 -1.026266 -2.478292
H 64.215821 -1.072688 -4.385191
H 59.342895 -3.051175 -6.436210
H 59.870176 -4.079438 -5.051106
H 60.997594 -3.813789 -6.433313
H 60.940903 -1.770729 -7.819082
H 61.887532 0.223635 -8.880453
H 62.758333 2.072090 -7.529532
H 63.657786 4.017968 -4.440039
H 62.617561 3.939358 -5.910521
H 64.263350 3.159422 -5.905994
H 59.041379 0.507235 -4.571277
H 57.299753 0.556102 -2.687162
H 61.709699 -3.975177 5.942523
H 62.688232 -4.367107 4.478489
H 63.498207 -3.632632 5.912543
H 62.315026 -2.144262 7.489869
H 61.947180 -0.085871 8.765796
H 61.527555 2.041091 7.625665
H 62.092251 3.948703 6.155783
H 60.298841 3.631258 6.190794
H 61.053945 4.435617 4.764160
Cu 71.948562 0.004812 -0.065448
C 68.593087 -0.002720 0.024105
C 69.250305 -0.050674 1.197524
C 68.609159 -0.167106 2.509426
C 69.549315 -0.148344 3.432985
C 70.848138 -0.016857 2.766599
N 70.669021 0.041647 1.349854
C 72.033510 0.061968 3.404622
C 73.334275 0.181930 2.701712
C 74.606116 0.448027 3.384184
C 75.560324 0.437152 2.476338
N 73.501614 0.012864 1.426959
C 74.904106 0.160592 1.204541
C 75.522232 -0.002720 0.024105
C 74.779358 -0.280005 -1.224711
C 75.332191 -0.747186 -2.337032
C 74.297520 -0.775993 -3.352193
C 73.182145 -0.323260 -2.791465
C 71.914696 -0.089153 -3.523861
C 71.960668 -0.004002 -5.005108
C 71.469386 -1.068683 -5.787431
O 70.945075 -2.200035 -5.139534
C 70.420151 -3.342508 -5.807244
C 71.521731 -0.973278 -7.190285
C 72.060740 0.159393 -7.800412
C 72.555061 1.208660 -7.025791
C 72.511109 1.137369 -5.621230
O 72.996904 2.176476 -4.809950
C 73.570101 3.384076 -5.299846
C 70.740523 0.068283 -2.885519
C 69.457227 0.347421 -3.520694
C 68.566481 0.370203 -2.550779
C 69.270008 0.109312 -1.289416
N 70.541704 -0.066496 -1.478417
N 73.395458 0.010202 -1.420466
C 72.062896 0.022031 4.885783
C 72.309379 -1.197383 5.545879
O 72.516181 -2.354164 4.775693
C 72.773283 -3.647063 5.313089
C 72.339949 -1.224552 6.952174
C 72.130997 -0.055695 7.684168
C 71.891751 1.152351 7.029321
C 71.857120 1.204177 5.623700
O 71.626242 2.403763 4.929773
C 71.414799 3.667615 5.550002
H 67.551446 -0.252991 2.719260
H 69.365418 -0.216751 4.497561
H 74.756138 0.620641 4.441832
H 76.612579 0.597600 2.669754
H 76.367631 -1.026266 -2.478292
H 74.425503 -1.072688 -4.385191
H 69.552577 -3.051175 -6.436210
H 70.079858 -4.079438 -5.051106
H 71.207275 -3.813789 -6.433313
H 71.150584 -1.770729 -7.819082
H 72.097213 0.223635 -8.880453
H 72.968014 2.072090 -7.529532
H 73.867468 4.017968 -4.440039
H 72.827242 3.939358 -5.910521
H 74.473031 3.159422 -5.905994
H 69.251061 0.507235 -4.571277
H 67.509434 0.556102 -2.687162
H 71.919380 -3.975177 5.942523
H 72.897914 -4.367107 4.478489
H 73.707888 -3.632632 5.912543
H 72.524707 -2.144262 7.489869
H 72.156861 -0.085871 8.765796
H 71.737236 2.041091 7.625665
H 72.301932 3.948703 6.155783
H 70.508522 3.631258 6.190794
H 71.263626 4.435617 4.764160
