150

C 12.172117 -0.070396 -0.039944
C 12.899500 -0.267168 1.329841
C 12.298222 -0.619835 2.518153
C 13.318536 -0.654414 3.502344
C 14.499390 -0.291208 2.891747
N 14.243088 -0.115829 1.553685
C 15.917471 -0.143696 3.590050
C 17.051488 -0.087200 2.834166
C 18.363380 0.063081 3.431118
C 19.265087 0.124076 2.459191
N 17.245898 -0.127682 1.477880
C 18.580021 -0.008199 1.187639
C 19.240301 0.000187 0.000053
C 18.456504 -0.191478 -1.368404
C 18.968470 -0.740954 -2.527156
C 17.946618 -0.702757 -3.508694
C 16.842738 -0.127595 -2.924832
C 15.440227 0.137205 -3.629515
C 15.433286 0.350793 -5.107841
C 15.925341 1.540103 -5.683732
O 16.419681 2.625054 -5.007558
C 15.538509 3.192568 -4.038040
C 16.026802 1.665594 -7.076938
C 15.597427 0.640808 -7.916201
C 15.081540 -0.529494 -7.364713
C 15.017840 -0.692470 -5.974265
O 14.513146 -1.836218 -5.403761
C 14.760182 -3.058262 -6.093519
C 14.317075 0.163531 -2.864801
C 12.986048 0.326748 -3.421545
C 12.102408 0.245661 -2.429893
C 12.836723 0.055311 -1.203228
N 14.163526 0.038044 -1.511798
N 17.143934 0.128045 -1.605551
C 15.954752 -0.028639 5.079935
C 15.654209 1.185524 5.736682
O 15.190517 2.305998 5.094944
C 16.204142 2.980038 4.352997
C 15.686877 1.276814 7.133030
C 16.044942 0.172429 7.899499
C 16.331297 -1.039971 7.271435
C 16.286158 -1.152065 5.872480
O 16.491561 -2.339893 5.216576
C 17.277169 -3.325707 5.866600
H 11.080527 -0.034064 -0.034913
H 11.248187 -0.824963 2.659917
H 13.200439 -0.893209 4.546686
H 14.941303 0.082535 0.840776
H 18.576863 0.126859 4.482091
H 20.323023 0.234503 2.613495
H 19.962161 -1.138316 -2.649389
H 18.002917 -1.055739 -4.525955
H 16.050489 3.219971 -3.066821
H 15.325405 4.224922 -4.336865
H 14.588888 2.675154 -3.932090
H 16.444215 2.575950 -7.495912
H 15.664723 0.752837 -8.991847
H 14.734674 -1.313176 -8.029832
H 14.611420 -3.884506 -5.394854
H 14.041639 -3.183468 -6.910473
H 15.788674 -3.112886 -6.465338
H 12.748417 0.449382 -4.460629
H 11.030946 0.297676 -2.520896
H 16.467452 0.420557 -0.905629
H 16.485067 3.897864 4.878790
H 15.791975 3.267585 3.380563
H 17.104965 2.395896 4.181098
H 15.419434 2.211912 7.614146
H 16.074030 0.253527 8.982684
H 16.559358 -1.896762 7.893660
H 16.701391 -3.819421 6.652105
H 17.551328 -4.081363 5.127647
H 18.202210 -2.902092 6.273529
C 32.353374 -0.066582 0.046136
C 31.625990 -0.383733 -1.300878
C 32.227269 -0.840118 -2.453342
C 31.206955 -0.961607 -3.430617
C 30.026100 -0.545820 -2.854537
N 30.282403 -0.252784 -1.537230
C 28.608020 -0.460648 -3.563150
C 27.474002 -0.337519 -2.815225
C 26.162111 -0.240624 -3.423129
C 25.260403 -0.093907 -2.460405
N 27.279592 -0.257887 -1.460674
C 25.945469 -0.113201 -1.182138
C 25.285189 0.000187 0.000053
C 26.068986 -0.069694 1.380099
C 25.557020 -0.514532 2.582908
C 26.578872 -0.389673 3.557221
C 27.682752 0.131596 2.924777
C 29.085263 0.457683 3.603278
C 29.092204 0.801184 5.056921
C 28.600149 2.036768 5.525366
O 28.105810 3.057663 4.755884
C 28.986981 3.537204 3.739972
C 28.498688 2.284988 6.902013
C 28.928063 1.338446 7.828625
C 29.443950 0.123954 7.382804
C 29.507650 -0.161361 6.012219
O 30.012344 -1.351084 5.545109
C 29.765308 -2.507334 6.340247
C 30.208415 0.416272 2.839233
C 31.539442 0.628089 3.379360
C 32.423083 0.459614 2.398765
C 31.688768 0.161518 1.193743
N 30.361964 0.171611 1.502631
N 27.381556 0.269551 1.588057
C 28.570739 -0.477814 -5.057372
C 28.871281 0.673505 -5.818931
O 29.334973 1.846346 -5.278808
C 28.321348 2.583366 -4.599384
C 28.838613 0.640938 -7.217882
C 28.480548 -0.526908 -7.883670
C 28.194194 -1.679009 -7.150837
C 28.239332 -1.666933 -5.747450
O 28.033930 -2.792095 -4.989060
C 27.248322 -3.831537 -5.549347
H 33.444963 -0.030837 0.037911
H 33.277304 -1.056980 -2.576407
H 31.325051 -1.291832 -4.449746
H 29.584187 0.007855 -0.844658
H 25.948627 -0.270049 -4.475624
H 24.202467 0.002440 -2.623872
H 24.563330 -0.899526 2.739806
H 26.522573 -0.651300 4.601715
H 28.475001 3.478601 2.770136
H 29.200085 4.591942 3.946320
H 29.936602 3.012448 3.680200
H 28.081275 3.228832 7.238830
H 28.860768 1.545171 8.890147
H 29.790816 -0.597830 8.114629
H 29.914070 -3.392133 5.717397
H 30.483851 -2.559793 7.165074
H 28.736816 -2.528858 6.715441
H 31.777074 0.842144 4.403525
H 33.494545 0.519474 2.484811
H 28.058038 0.499012 0.865006
H 28.040423 3.451092 -5.204293
H 28.733515 2.955793 -3.656192
H 27.420525 2.016717 -4.376494
H 29.106056 1.529820 -7.779816
H 28.451460 -0.541930 -8.969783
H 27.966132 -2.587474 -7.694845
H 27.824099 -4.392790 -6.288107
H 26.974162 -4.518875 -4.746457
H 26.323280 -3.445572 -5.992147
C 21.527254 0.012358 0.002419
C 20.274983 -0.006823 -0.001929
C 22.840922 0.011592 0.004352
C 24.344056 -0.006823 -0.001929
