622

C 113.028718 -0.036164 -0.034160
C 113.753906 -1.414935 0.009023
C 113.136262 -2.640831 0.102651
C 114.158186 -3.623734 0.073795
C 115.366567 -2.963940 -0.036698
N 115.109522 -1.616400 -0.044423
C 116.800288 -3.634023 -0.158424
C 116.852368 -5.119907 -0.305911
C 116.781727 -5.712163 -1.588068
C 116.671558 -4.866243 -2.829857
C 116.820096 -7.111365 -1.707377
C 116.934625 -7.930408 -0.579042
C 116.938776 -9.421829 -0.721450
C 116.988169 -7.339636 0.687838
C 116.953663 -5.943630 0.839514
C 117.023305 -5.346948 2.221107
C 117.926552 -2.869441 -0.155419
C 119.239461 -3.458871 -0.316176
C 120.140940 -2.484904 -0.300423
N 118.116128 -1.517024 -0.029915
C 119.453235 -1.221823 -0.111959
C 120.124912 -0.040763 -0.045226
C 119.352906 1.327178 0.204193
C 119.923312 2.517482 0.613444
C 118.895853 3.489473 0.671761
C 117.721217 2.865775 0.309940
N 118.002159 1.541994 0.059847
C 116.293794 3.557471 0.205243
C 116.236345 5.048609 0.199330
C 116.371519 5.758469 -1.015825
C 116.567703 5.032333 -2.321079
C 116.312047 7.162102 -1.008490
C 116.130607 7.871697 0.183224
C 116.026767 9.366371 0.171700
C 115.986650 7.163645 1.381160
C 116.047233 5.760476 1.406934
C 115.881338 5.038045 2.718317
C 115.174404 2.792250 0.113227
C 113.845070 3.368077 0.008954
C 112.963267 2.375461 -0.049728
C 113.693922 1.133150 0.006854
N 115.017745 1.433862 0.095963
H 111.947659 -0.035333 -0.108948
H 112.072956 -2.808990 0.172458
H 114.027407 -4.694377 0.114647
H 115.814984 -0.883315 -0.079373
H 115.770190 -4.246744 -2.798381
H 116.603275 -5.487966 -3.729337
H 117.554812 -4.230400 -2.942522
H 116.761564 -7.561752 -2.695112
H 115.914167 -9.804459 -0.687777
H 117.397439 -9.723125 -1.669004
H 117.517718 -9.890337 0.081377
H 117.059483 -7.968563 1.571652
H 116.122094 -4.764522 2.435838
H 117.093983 -6.126818 2.987251
H 117.908169 -4.711535 2.324551
H 119.455947 -4.505328 -0.437287
H 121.199970 -2.635240 -0.402118
H 120.966557 2.679650 0.837411
H 119.001114 4.529241 0.943887
H 117.307551 0.832760 -0.162473
H 116.651545 5.734896 -3.157525
H 117.490044 4.443700 -2.301876
H 115.714851 4.379419 -2.531424
H 116.404892 7.702079 -1.947405
H 116.469992 9.793486 1.076802
H 114.976547 9.668044 0.116237
H 116.560213 9.792464 -0.683932
H 115.822764 7.705658 2.309099
H 115.863714 5.741569 3.558142
H 114.938117 4.483846 2.735290
H 116.715939 4.353399 2.896059
H 113.611513 4.417445 -0.014165
H 111.896133 2.474965 -0.128394
C 214.471126 -0.044794 -0.033941
C 213.745938 1.334389 -0.060895
C 214.363582 2.563460 -0.029698
C 213.341658 3.543626 -0.108476
C 212.133277 2.879069 -0.185290
N 212.390322 1.532877 -0.124511
C 210.699556 3.542099 -0.340918
C 210.647476 5.018565 -0.563739
C 210.718117 5.544886 -1.874342
C 210.828287 4.636941 -3.071530
C 210.679748 6.936215 -2.064616
C 210.565219 7.811550 -0.979371
C 210.561068 9.293805 -1.197401
C 210.511676 7.285935 0.315901
C 210.546181 5.899444 0.538337
C 210.476539 5.373757 1.948473
C 209.573292 2.778657 -0.299054
C 208.260383 3.359155 -0.489563
C 207.358904 2.387247 -0.424325
N 209.383716 1.434368 -0.104971
C 208.046609 1.135378 -0.171904
C 207.374932 -0.040763 -0.045226
C 208.146938 -1.394259 0.273401
C 207.576532 -2.562223 0.742625
C 208.603991 -3.529993 0.850270
C 209.778627 -2.925492 0.457216
N 209.497685 -1.616134 0.140160
C 211.206050 -3.621615 0.387812
C 211.263499 -5.111127 0.457698
C 211.128325 -5.881834 -0.719804
C 210.932141 -5.222980 -2.060280
C 211.187797 -7.283279 -0.641135
C 211.369237 -7.931384 0.585107
C 211.473077 -9.424712 0.649570
C 211.513194 -7.163359 1.745505
C 211.452611 -5.760692 1.699925
C 211.618506 -4.972541 2.972893
C 212.325440 -2.862060 0.257019
C 213.654774 -3.442444 0.182150
C 214.536577 -2.454093 0.073090
C 213.805922 -1.210512 0.066455
N 212.482099 -1.506306 0.170733
H 215.552185 -0.049426 -0.108590
H 215.426888 2.734950 0.031472
H 213.472437 4.614961 -0.122095
H 211.684860 0.798964 -0.122154
H 211.729654 4.019842 -3.008606
H 210.896569 5.212141 -4.001448
H 209.945032 3.996193 -3.151729
H 210.738280 7.335815 -3.073967
H 211.585677 9.677652 -1.183220
H 210.102405 9.546549 -2.159045
H 209.982126 9.802514 -0.419425
H 210.440361 7.958972 1.166605
H 211.377750 4.802998 2.192530
H 210.405861 6.191560 2.673987
H 209.591675 4.744423 2.084080
H 208.043897 4.398103 -0.663707
H 206.299874 2.532219 -0.533530
H 206.533287 -2.712797 0.974545
H 208.498730 -4.554586 1.174895
H 210.192293 -0.919117 -0.117921
H 210.848299 -5.967151 -2.859935
H 210.009800 -4.634132 -2.071021
H 211.784993 -4.581601 -2.303539
H 211.094952 -7.870282 -1.551389
H 211.029852 -9.805270 1.575211
H 212.523297 -9.728814 0.609512
H 210.939631 -9.893745 -0.183299
H 211.677080 -7.657505 2.699794
H 211.636130 -5.632468 3.847391
H 212.561727 -4.418194 2.961675
H 210.783905 -4.279745 3.115606
H 213.888331 -4.491630 0.212399
H 215.603711 -2.557467 -0.000416
C 123.372836 -0.028327 -0.042785
C 122.120566 -0.047508 -0.047133
C 124.686505 -0.029093 -0.040852
C 126.189638 -0.047508 -0.047133
C 136.586111 -0.028327 -0.042785
C 135.333840 -0.047508 -0.047133
C 137.899779 -0.029093 -0.040852
C 139.402912 -0.047508 -0.047133
C 149.799385 -0.028327 -0.042785
C 148.547115 -0.047508 -0.047133
C 151.113053 -0.029093 -0.040852
C 152.616187 -0.047508 -0.047133
C 163.012659 -0.028327 -0.042785
C 161.760389 -0.047508 -0.047133
C 164.326328 -0.029093 -0.040852
C 165.829461 -0.047508 -0.047133
C 176.225934 -0.028327 -0.042785
C 174.973663 -0.047508 -0.047133
C 177.539602 -0.029093 -0.040852
C 179.042736 -0.047508 -0.047133
C 189.439208 -0.028327 -0.042785
C 188.186938 -0.047508 -0.047133
C 190.752876 -0.029093 -0.040852
C 192.256010 -0.047508 -0.047133
C 202.652482 -0.028327 -0.042785
C 201.400212 -0.047508 -0.047133
C 203.966151 -0.029093 -0.040852
C 205.469284 -0.047508 -0.047133
C 127.127012 0.016767 0.018252
C 127.915400 -0.768230 1.148262
C 127.387892 -1.265939 2.322556
C 128.423405 -1.968958 2.988195
C 129.554935 -1.868125 2.207706
N 129.253433 -1.078710 1.125361
C 130.954001 -2.559519 2.487915
C 130.961371 -3.791560 3.331389
C 130.701584 -5.052528 2.746029
C 130.419082 -5.181344 1.271704
C 130.721143 -6.206388 3.547592
C 130.984186 -6.130023 4.919233
C 131.045593 -7.374652 5.750536
C 131.251177 -4.881644 5.491169
C 131.232712 -3.708864 4.717341
C 131.532361 -2.386868 5.375115
C 132.086585 -2.060966 1.924147
C 133.378395 -2.687826 2.115762
C 134.287200 -1.988751 1.445648
N 132.292730 -0.977721 1.114302
C 133.620449 -0.881206 0.790109
C 134.287349 0.016767 0.018252
C 133.498909 1.205332 -0.673432
C 134.023406 2.419806 -1.066804
C 132.988254 3.137967 -1.717010
C 131.859000 2.346681 -1.688704
N 132.162505 1.202840 -0.992630
C 130.460027 2.679814 -2.357566
C 130.454237 3.627240 -3.511641
C 130.723765 3.155807 -4.817328
C 131.005909 1.698274 -5.076247
C 130.726970 4.059050 -5.893295
C 130.456911 5.417886 -5.697735
C 130.496944 6.372636 -6.852066
C 130.204453 5.881539 -4.402332
C 130.195755 5.003081 -3.305778
C 129.909326 5.543093 -1.928811
C 129.327985 2.075407 -1.907864
C 128.036269 2.318179 -2.515721
C 127.127956 1.594125 -1.871884
C 127.794641 0.852894 -0.819785
N 129.122938 1.179563 -0.894604
H 126.366599 -1.159291 2.654492
H 128.347779 -2.507139 3.921113
H 129.923231 -0.753483 0.433788
H 129.528261 -4.609823 0.996704
H 131.275246 -4.837986 0.684534
H 130.230477 -6.222970 0.993607
H 130.532310 -7.173970 3.089450
H 130.717390 -7.175924 6.775869
H 130.387741 -8.149446 5.344125
H 132.069977 -7.757397 5.775413
H 131.479881 -4.814262 6.551826
H 130.733860 -1.663920 5.181591
H 131.607805 -2.494549 6.463218
H 132.486591 -1.987431 5.018147
H 133.574936 -3.571050 2.697572
H 135.335620 -2.222470 1.408483
H 135.043415 2.746159 -0.927729
H 133.063783 4.113415 -2.173863
H 131.494698 0.483890 -0.728501
H 131.177819 1.511139 -6.140910
H 130.154347 1.081223 -4.774778
H 131.905213 1.377624 -4.542630
H 130.940298 3.691485 -6.894144
H 130.168363 5.883353 -7.775121
H 131.515218 6.747207 -6.991518
H 129.828468 7.222940 -6.680873
H 130.010160 6.938577 -4.238083
H 130.747416 5.347327 -1.251787
H 129.762304 6.629586 -1.951941
H 128.993554 5.102411 -1.523696
H 127.840087 2.970787 -3.347781
H 126.079797 1.576957 -2.107524
C 140.340286 0.016767 0.018252
C 141.128675 -0.768230 1.148262
C 140.601167 -1.265939 2.322556
C 141.636679 -1.968958 2.988195
C 142.768209 -1.868125 2.207706
N 142.466707 -1.078710 1.125361
C 144.167275 -2.559519 2.487915
C 144.174645 -3.791560 3.331389
C 143.914859 -5.052528 2.746029
C 143.632356 -5.181344 1.271704
C 143.934418 -6.206388 3.547592
C 144.197461 -6.130023 4.919233
C 144.258867 -7.374652 5.750536
C 144.464451 -4.881644 5.491169
C 144.445987 -3.708864 4.717341
C 144.745635 -2.386868 5.375115
C 145.299860 -2.060966 1.924147
C 146.591670 -2.687826 2.115762
C 147.500474 -1.988751 1.445648
N 145.506004 -0.977721 1.114302
C 146.833724 -0.881206 0.790109
C 147.500623 0.016767 0.018252
C 146.712183 1.205332 -0.673432
C 147.236681 2.419806 -1.066804
C 146.201529 3.137967 -1.717010
C 145.072274 2.346681 -1.688704
N 145.375780 1.202840 -0.992630
C 143.673301 2.679814 -2.357566
C 143.667512 3.627240 -3.511641
C 143.937039 3.155807 -4.817328
C 144.219184 1.698274 -5.076247
C 143.940245 4.059050 -5.893295
C 143.670186 5.417886 -5.697735
C 143.710219 6.372636 -6.852066
C 143.417728 5.881539 -4.402332
C 143.409029 5.003081 -3.305778
C 143.122601 5.543093 -1.928811
C 142.541259 2.075407 -1.907864
C 141.249543 2.318179 -2.515721
C 140.341231 1.594125 -1.871884
C 141.007916 0.852894 -0.819785
N 142.336212 1.179563 -0.894604
H 139.579873 -1.159291 2.654492
H 141.561053 -2.507139 3.921113
H 143.136505 -0.753483 0.433788
H 142.741536 -4.609823 0.996704
H 144.488520 -4.837986 0.684534
H 143.443751 -6.222970 0.993607
H 143.745585 -7.173970 3.089450
H 143.930664 -7.175924 6.775869
H 143.601015 -8.149446 5.344125
H 145.283251 -7.757397 5.775413
H 144.693156 -4.814262 6.551826
H 143.947135 -1.663920 5.181591
H 144.821079 -2.494549 6.463218
H 145.699866 -1.987431 5.018147
H 146.788210 -3.571050 2.697572
H 148.548894 -2.222470 1.408483
H 148.256689 2.746159 -0.927729
H 146.277058 4.113415 -2.173863
H 144.707972 0.483890 -0.728501
H 144.391093 1.511139 -6.140910
H 143.367621 1.081223 -4.774778
H 145.118488 1.377624 -4.542630
H 144.153572 3.691485 -6.894144
H 143.381637 5.883353 -7.775121
H 144.728492 6.747207 -6.991518
H 143.041742 7.222940 -6.680873
H 143.223434 6.938577 -4.238083
H 143.960691 5.347327 -1.251787
H 142.975579 6.629586 -1.951941
H 142.206828 5.102411 -1.523696
H 141.053361 2.970787 -3.347781
H 139.293071 1.576957 -2.107524
C 153.553560 0.016767 0.018252
C 154.341949 -0.768230 1.148262
C 153.814441 -1.265939 2.322556
C 154.849954 -1.968958 2.988195
C 155.981483 -1.868125 2.207706
N 155.679982 -1.078710 1.125361
C 157.380549 -2.559519 2.487915
C 157.387919 -3.791560 3.331389
C 157.128133 -5.052528 2.746029
C 156.845631 -5.181344 1.271704
C 157.147692 -6.206388 3.547592
C 157.410735 -6.130023 4.919233
C 157.472141 -7.374652 5.750536
C 157.677725 -4.881644 5.491169
C 157.659261 -3.708864 4.717341
C 157.958909 -2.386868 5.375115
C 158.513134 -2.060966 1.924147
C 159.804944 -2.687826 2.115762
C 160.713749 -1.988751 1.445648
N 158.719278 -0.977721 1.114302
C 160.046998 -0.881206 0.790109
C 160.713897 0.016767 0.018252
C 159.925458 1.205332 -0.673432
C 160.449955 2.419806 -1.066804
C 159.414803 3.137967 -1.717010
C 158.285549 2.346681 -1.688704
N 158.589054 1.202840 -0.992630
C 156.886575 2.679814 -2.357566
C 156.880786 3.627240 -3.511641
C 157.150314 3.155807 -4.817328
C 157.432458 1.698274 -5.076247
C 157.153519 4.059050 -5.893295
C 156.883460 5.417886 -5.697735
C 156.923493 6.372636 -6.852066
C 156.631002 5.881539 -4.402332
C 156.622304 5.003081 -3.305778
C 156.335875 5.543093 -1.928811
C 155.754534 2.075407 -1.907864
C 154.462818 2.318179 -2.515721
C 153.554505 1.594125 -1.871884
C 154.221190 0.852894 -0.819785
N 155.549486 1.179563 -0.894604
H 152.793148 -1.159291 2.654492
H 154.774327 -2.507139 3.921113
H 156.349779 -0.753483 0.433788
H 155.954810 -4.609823 0.996704
H 157.701795 -4.837986 0.684534
H 156.657025 -6.222970 0.993607
H 156.958859 -7.173970 3.089450
H 157.143939 -7.175924 6.775869
H 156.814290 -8.149446 5.344125
H 158.496525 -7.757397 5.775413
H 157.906430 -4.814262 6.551826
H 157.160409 -1.663920 5.181591
H 158.034354 -2.494549 6.463218
H 158.913140 -1.987431 5.018147
H 160.001485 -3.571050 2.697572
H 161.762168 -2.222470 1.408483
H 161.469963 2.746159 -0.927729
H 159.490332 4.113415 -2.173863
H 157.921247 0.483890 -0.728501
H 157.604368 1.511139 -6.140910
H 156.580895 1.081223 -4.774778
H 158.331762 1.377624 -4.542630
H 157.366846 3.691485 -6.894144
H 156.594911 5.883353 -7.775121
H 157.941766 6.747207 -6.991518
H 156.255017 7.222940 -6.680873
H 156.436708 6.938577 -4.238083
H 157.173965 5.347327 -1.251787
H 156.188853 6.629586 -1.951941
H 155.420102 5.102411 -1.523696
H 154.266636 2.970787 -3.347781
H 152.506345 1.576957 -2.107524
C 166.766835 0.016767 0.018252
C 167.555223 -0.768230 1.148262
C 167.027715 -1.265939 2.322556
C 168.063228 -1.968958 2.988195
C 169.194758 -1.868125 2.207706
N 168.893256 -1.078710 1.125361
C 170.593824 -2.559519 2.487915
C 170.601194 -3.791560 3.331389
C 170.341407 -5.052528 2.746029
C 170.058905 -5.181344 1.271704
C 170.360966 -6.206388 3.547592
C 170.624009 -6.130023 4.919233
C 170.685416 -7.374652 5.750536
C 170.891000 -4.881644 5.491169
C 170.872535 -3.708864 4.717341
C 171.172184 -2.386868 5.375115
C 171.726408 -2.060966 1.924147
C 173.018218 -2.687826 2.115762
C 173.927023 -1.988751 1.445648
N 171.932553 -0.977721 1.114302
C 173.260272 -0.881206 0.790109
C 173.927172 0.016767 0.018252
C 173.138732 1.205332 -0.673432
C 173.663229 2.419806 -1.066804
C 172.628077 3.137967 -1.717010
C 171.498823 2.346681 -1.688704
N 171.802328 1.202840 -0.992630
C 170.099850 2.679814 -2.357566
C 170.094060 3.627240 -3.511641
C 170.363588 3.155807 -4.817328
C 170.645732 1.698274 -5.076247
C 170.366793 4.059050 -5.893295
C 170.096734 5.417886 -5.697735
C 170.136768 6.372636 -6.852066
C 169.844276 5.881539 -4.402332
C 169.835578 5.003081 -3.305778
C 169.549149 5.543093 -1.928811
C 168.967808 2.075407 -1.907864
C 167.676092 2.318179 -2.515721
C 166.767779 1.594125 -1.871884
C 167.434464 0.852894 -0.819785
N 168.762761 1.179563 -0.894604
H 166.006422 -1.159291 2.654492
H 167.987602 -2.507139 3.921113
H 169.563054 -0.753483 0.433788
H 169.168084 -4.609823 0.996704
H 170.915069 -4.837986 0.684534
H 169.870300 -6.222970 0.993607
H 170.172133 -7.173970 3.089450
H 170.357213 -7.175924 6.775869
H 170.027564 -8.149446 5.344125
H 171.709800 -7.757397 5.775413
H 171.119704 -4.814262 6.551826
H 170.373683 -1.663920 5.181591
H 171.247628 -2.494549 6.463218
H 172.126414 -1.987431 5.018147
H 173.214759 -3.571050 2.697572
H 174.975443 -2.222470 1.408483
H 174.683238 2.746159 -0.927729
H 172.703606 4.113415 -2.173863
H 171.134521 0.483890 -0.728501
H 170.817642 1.511139 -6.140910
H 169.794170 1.081223 -4.774778
H 171.545037 1.377624 -4.542630
H 170.580121 3.691485 -6.894144
H 169.808186 5.883353 -7.775121
H 171.155041 6.747207 -6.991518
H 169.468291 7.222940 -6.680873
H 169.649983 6.938577 -4.238083
H 170.387239 5.347327 -1.251787
H 169.402127 6.629586 -1.951941
H 168.633377 5.102411 -1.523696
H 167.479910 2.970787 -3.347781
H 165.719620 1.576957 -2.107524
C 179.980109 0.016767 0.018252
C 180.768498 -0.768230 1.148262
C 180.240990 -1.265939 2.322556
C 181.276502 -1.968958 2.988195
C 182.408032 -1.868125 2.207706
N 182.106530 -1.078710 1.125361
C 183.807098 -2.559519 2.487915
C 183.814468 -3.791560 3.331389
C 183.554682 -5.052528 2.746029
C 183.272179 -5.181344 1.271704
C 183.574241 -6.206388 3.547592
C 183.837284 -6.130023 4.919233
C 183.898690 -7.374652 5.750536
C 184.104274 -4.881644 5.491169
C 184.085810 -3.708864 4.717341
C 184.385458 -2.386868 5.375115
C 184.939683 -2.060966 1.924147
C 186.231493 -2.687826 2.115762
C 187.140297 -1.988751 1.445648
N 185.145827 -0.977721 1.114302
C 186.473547 -0.881206 0.790109
C 187.140446 0.016767 0.018252
C 186.352006 1.205332 -0.673432
C 186.876504 2.419806 -1.066804
C 185.841352 3.137967 -1.717010
C 184.712097 2.346681 -1.688704
N 185.015603 1.202840 -0.992630
C 183.313124 2.679814 -2.357566
C 183.307335 3.627240 -3.511641
C 183.576863 3.155807 -4.817328
C 183.859007 1.698274 -5.076247
C 183.580068 4.059050 -5.893295
C 183.310009 5.417886 -5.697735
C 183.350042 6.372636 -6.852066
C 183.057551 5.881539 -4.402332
C 183.048852 5.003081 -3.305778
C 182.762424 5.543093 -1.928811
C 182.181082 2.075407 -1.907864
C 180.889366 2.318179 -2.515721
C 179.981054 1.594125 -1.871884
C 180.647739 0.852894 -0.819785
N 181.976035 1.179563 -0.894604
H 179.219696 -1.159291 2.654492
H 181.200876 -2.507139 3.921113
H 182.776328 -0.753483 0.433788
H 182.381359 -4.609823 0.996704
H 184.128343 -4.837986 0.684534
H 183.083574 -6.222970 0.993607
H 183.385408 -7.173970 3.089450
H 183.570487 -7.175924 6.775869
H 183.240838 -8.149446 5.344125
H 184.923074 -7.757397 5.775413
H 184.332979 -4.814262 6.551826
H 183.586958 -1.663920 5.181591
H 184.460902 -2.494549 6.463218
H 185.339689 -1.987431 5.018147
H 186.428034 -3.571050 2.697572
H 188.188717 -2.222470 1.408483
H 187.896512 2.746159 -0.927729
H 185.916881 4.113415 -2.173863
H 184.347795 0.483890 -0.728501
H 184.030917 1.511139 -6.140910
H 183.007444 1.081223 -4.774778
H 184.758311 1.377624 -4.542630
H 183.793395 3.691485 -6.894144
H 183.021460 5.883353 -7.775121
H 184.368315 6.747207 -6.991518
H 182.681566 7.222940 -6.680873
H 182.863257 6.938577 -4.238083
H 183.600514 5.347327 -1.251787
H 182.615402 6.629586 -1.951941
H 181.846651 5.102411 -1.523696
H 180.693184 2.970787 -3.347781
H 178.932894 1.576957 -2.107524
C 193.193383 0.016767 0.018252
C 193.981772 -0.768230 1.148262
C 193.454264 -1.265939 2.322556
C 194.489777 -1.968958 2.988195
C 195.621306 -1.868125 2.207706
N 195.319805 -1.078710 1.125361
C 197.020372 -2.559519 2.487915
C 197.027742 -3.791560 3.331389
C 196.767956 -5.052528 2.746029
C 196.485454 -5.181344 1.271704
C 196.787515 -6.206388 3.547592
C 197.050558 -6.130023 4.919233
C 197.111964 -7.374652 5.750536
C 197.317548 -4.881644 5.491169
C 197.299084 -3.708864 4.717341
C 197.598732 -2.386868 5.375115
C 198.152957 -2.060966 1.924147
C 199.444767 -2.687826 2.115762
C 200.353572 -1.988751 1.445648
N 198.359101 -0.977721 1.114302
C 199.686821 -0.881206 0.790109
C 200.353720 0.016767 0.018252
C 199.565281 1.205332 -0.673432
C 200.089778 2.419806 -1.066804
C 199.054626 3.137967 -1.717010
C 197.925372 2.346681 -1.688704
N 198.228877 1.202840 -0.992630
C 196.526398 2.679814 -2.357566
C 196.520609 3.627240 -3.511641
C 196.790137 3.155807 -4.817328
C 197.072281 1.698274 -5.076247
C 196.793342 4.059050 -5.893295
C 196.523283 5.417886 -5.697735
C 196.563316 6.372636 -6.852066
C 196.270825 5.881539 -4.402332
C 196.262127 5.003081 -3.305778
C 195.975698 5.543093 -1.928811
C 195.394357 2.075407 -1.907864
C 194.102641 2.318179 -2.515721
C 193.194328 1.594125 -1.871884
C 193.861013 0.852894 -0.819785
N 195.189309 1.179563 -0.894604
H 192.432971 -1.159291 2.654492
H 194.414150 -2.507139 3.921113
H 195.989602 -0.753483 0.433788
H 195.594633 -4.609823 0.996704
H 197.341618 -4.837986 0.684534
H 196.296848 -6.222970 0.993607
H 196.598682 -7.173970 3.089450
H 196.783762 -7.175924 6.775869
H 196.454113 -8.149446 5.344125
H 198.136348 -7.757397 5.775413
H 197.546253 -4.814262 6.551826
H 196.800232 -1.663920 5.181591
H 197.674177 -2.494549 6.463218
H 198.552963 -1.987431 5.018147
H 199.641308 -3.571050 2.697572
H 201.401991 -2.222470 1.408483
H 201.109786 2.746159 -0.927729
H 199.130155 4.113415 -2.173863
H 197.561070 0.483890 -0.728501
H 197.244191 1.511139 -6.140910
H 196.220718 1.081223 -4.774778
H 197.971585 1.377624 -4.542630
H 197.006669 3.691485 -6.894144
H 196.234734 5.883353 -7.775121
H 197.581589 6.747207 -6.991518
H 195.894840 7.222940 -6.680873
H 196.076531 6.938577 -4.238083
H 196.813788 5.347327 -1.251787
H 195.828676 6.629586 -1.951941
H 195.059926 5.102411 -1.523696
H 193.906459 2.970787 -3.347781
H 192.146168 1.576957 -2.107524
