 xtb: 6.5.1 (b24c23e)
          07272222043D

366400  0     0  0            999 V2000
   51.8512    0.1000   -0.0208 C   0  0  0  0  0  0  0  0  0  0  0  0
   52.4700    1.2935    0.3283 C   0  0  0  0  0  0  0  0  0  0  0  0
   51.8287    2.5065    0.7060 C   0  0  0  0  0  0  0  0  0  0  0  0
   52.7990    3.4354    0.9576 C   0  0  0  0  0  0  0  0  0  0  0  0
   54.0645    2.8225    0.7320 C   0  0  0  0  0  0  0  0  0  0  0  0
   53.8152    1.5305    0.3647 N   0  0  0  0  0  0  0  0  0  0  0  0
   55.3320    3.3999    0.8687 C   0  0  0  0  0  0  0  0  0  0  0  0
   56.5421    2.7318    0.6697 C   0  0  0  0  0  0  0  0  0  0  0  0
   57.8435    3.3695    0.7594 C   0  0  0  0  0  0  0  0  0  0  0  0
   58.7580    2.4094    0.5104 C   0  0  0  0  0  0  0  0  0  0  0  0
   56.6884    1.4155    0.3522 N   0  0  0  0  0  0  0  0  0  0  0  0
   58.0142    1.1900    0.2600 C   0  0  0  0  0  0  0  0  0  0  0  0
   58.6427   -0.0400   -0.0232 C   0  0  0  0  0  0  0  0  0  0  0  0
   57.9968   -1.2568   -0.3142 C   0  0  0  0  0  0  0  0  0  0  0  0
   58.6304   -2.5003   -0.5769 C   0  0  0  0  0  0  0  0  0  0  0  0
   57.6559   -3.4247   -0.8330 C   0  0  0  0  0  0  0  0  0  0  0  0
   56.3958   -2.7709   -0.7425 C   0  0  0  0  0  0  0  0  0  0  0  0
   55.1302   -3.3374   -0.9253 C   0  0  0  0  0  0  0  0  0  0  0  0
   55.0880   -4.7698   -1.3091 C   0  0  0  0  0  0  0  0  0  0  0  0
   54.4576   -5.7006   -0.4838 C   0  0  0  0  0  0  0  0  0  0  0  0
   54.4190   -7.0452   -0.8356 C   0  0  0  0  0  0  0  0  0  0  0  0
   53.7259   -8.0446    0.0506 C   0  0  0  0  0  0  0  0  0  0  0  0
   55.0123   -7.4564   -2.0258 C   0  0  0  0  0  0  0  0  0  0  0  0
   55.6446   -6.5400   -2.8605 C   0  0  0  0  0  0  0  0  0  0  0  0
   56.2648   -6.9922   -4.1550 C   0  0  0  0  0  0  0  0  0  0  0  0
   55.6804   -5.1982   -2.4964 C   0  0  0  0  0  0  0  0  0  0  0  0
   53.9189   -2.6545   -0.7733 C   0  0  0  0  0  0  0  0  0  0  0  0
   52.6113   -3.2439   -1.0159 C   0  0  0  0  0  0  0  0  0  0  0  0
   51.7037   -2.2809   -0.7573 C   0  0  0  0  0  0  0  0  0  0  0  0
   52.4558   -1.1007   -0.3693 C   0  0  0  0  0  0  0  0  0  0  0  0
   53.7862   -1.3599   -0.3990 N   0  0  0  0  0  0  0  0  0  0  0  0
   56.6540   -1.4651   -0.4169 N   0  0  0  0  0  0  0  0  0  0  0  0
   55.3725    4.8321    1.2559 C   0  0  0  0  0  0  0  0  0  0  0  0
   55.9832    5.2204    2.4470 C   0  0  0  0  0  0  0  0  0  0  0  0
   56.0166    6.5603    2.8207 C   0  0  0  0  0  0  0  0  0  0  0  0
   56.6900    6.9678    4.1033 C   0  0  0  0  0  0  0  0  0  0  0  0
   55.4374    7.5141    1.9904 C   0  0  0  0  0  0  0  0  0  0  0  0
   54.8242    7.1425    0.7969 C   0  0  0  0  0  0  0  0  0  0  0  0
   54.2193    8.1866   -0.1024 C   0  0  0  0  0  0  0  0  0  0  0  0
   54.7936    5.8003    0.4356 C   0  0  0  0  0  0  0  0  0  0  0  0
   50.7660    0.1174   -0.0199 H   0  0  0  0  0  0  0  0  0  0  0  0
   50.7606    2.6367    0.7779 H   0  0  0  0  0  0  0  0  0  0  0  0
   52.6569    4.4544    1.2791 H   0  0  0  0  0  0  0  0  0  0  0  0
   54.5344    0.8468    0.1540 H   0  0  0  0  0  0  0  0  0  0  0  0
   58.0118    4.4131    0.9707 H   0  0  0  0  0  0  0  0  0  0  0  0
   59.8327    2.4940    0.4850 H   0  0  0  0  0  0  0  0  0  0  0  0
   59.6968   -2.6583   -0.5645 H   0  0  0  0  0  0  0  0  0  0  0  0
   57.7938   -4.4702   -1.0560 H   0  0  0  0  0  0  0  0  0  0  0  0
   54.0133   -5.3708    0.4489 H   0  0  0  0  0  0  0  0  0  0  0  0
   52.7023   -8.2015   -0.2974 H   0  0  0  0  0  0  0  0  0  0  0  0
   54.2413   -9.0052    0.0284 H   0  0  0  0  0  0  0  0  0  0  0  0
   53.6843   -7.6894    1.0803 H   0  0  0  0  0  0  0  0  0  0  0  0
   54.9843   -8.5048   -2.3042 H   0  0  0  0  0  0  0  0  0  0  0  0
   57.0841   -6.3340   -4.4445 H   0  0  0  0  0  0  0  0  0  0  0  0
   56.6433   -8.0110   -4.0687 H   0  0  0  0  0  0  0  0  0  0  0  0
   55.5168   -6.9745   -4.9510 H   0  0  0  0  0  0  0  0  0  0  0  0
   56.1577   -4.4729   -3.1465 H   0  0  0  0  0  0  0  0  0  0  0  0
   52.4371   -4.2541   -1.3502 H   0  0  0  0  0  0  0  0  0  0  0  0
   50.6280   -2.3311   -0.8225 H   0  0  0  0  0  0  0  0  0  0  0  0
   55.9378   -0.7614   -0.2704 H   0  0  0  0  0  0  0  0  0  0  0  0
   56.4177    4.4664    3.0941 H   0  0  0  0  0  0  0  0  0  0  0  0
   56.4940    6.2392    4.8907 H   0  0  0  0  0  0  0  0  0  0  0  0
   56.3420    7.9466    4.4332 H   0  0  0  0  0  0  0  0  0  0  0  0
   57.7708    7.0212    3.9542 H   0  0  0  0  0  0  0  0  0  0  0  0
   55.4604    8.5605    2.2770 H   0  0  0  0  0  0  0  0  0  0  0  0
   53.7985    9.0049    0.4825 H   0  0  0  0  0  0  0  0  0  0  0  0
   54.9874    8.6002   -0.7599 H   0  0  0  0  0  0  0  0  0  0  0  0
   53.4343    7.7569   -0.7249 H   0  0  0  0  0  0  0  0  0  0  0  0
   54.3311    5.5008   -0.4987 H   0  0  0  0  0  0  0  0  0  0  0  0
  122.7202   -0.1043   -0.0626 C   0  0  0  0  0  0  0  0  0  0  0  0
  122.0968   -1.3117   -0.3502 C   0  0  0  0  0  0  0  0  0  0  0  0
  122.7331   -2.5539   -0.6287 C   0  0  0  0  0  0  0  0  0  0  0  0
  121.7589   -3.4820   -0.8676 C   0  0  0  0  0  0  0  0  0  0  0  0
  120.4959   -2.8346   -0.7513 C   0  0  0  0  0  0  0  0  0  0  0  0
  120.7506   -1.5315   -0.4298 N   0  0  0  0  0  0  0  0  0  0  0  0
  119.2262   -3.4014   -0.9085 C   0  0  0  0  0  0  0  0  0  0  0  0
  118.0184   -2.7210   -0.7402 C   0  0  0  0  0  0  0  0  0  0  0  0
  116.7143   -3.3200   -0.9605 C   0  0  0  0  0  0  0  0  0  0  0  0
  115.8033   -2.3592   -0.7014 C   0  0  0  0  0  0  0  0  0  0  0  0
  117.8771   -1.4170   -0.3733 N   0  0  0  0  0  0  0  0  0  0  0  0
  116.5520   -1.1728   -0.3340 C   0  0  0  0  0  0  0  0  0  0  0  0
  115.9278    0.0452    0.0058 C   0  0  0  0  0  0  0  0  0  0  0  0
  116.5778    1.2506    0.3323 C   0  0  0  0  0  0  0  0  0  0  0  0
  115.9487    2.4687    0.7025 C   0  0  0  0  0  0  0  0  0  0  0  0
  116.9272    3.3950    0.9362 C   0  0  0  0  0  0  0  0  0  0  0  0
  118.1853    2.7722    0.7065 C   0  0  0  0  0  0  0  0  0  0  0  0
  119.4537    3.3469    0.8360 C   0  0  0  0  0  0  0  0  0  0  0  0
  119.5036    4.7815    1.2109 C   0  0  0  0  0  0  0  0  0  0  0  0
  120.1257    5.1761    2.3951 C   0  0  0  0  0  0  0  0  0  0  0  0
  120.1732    6.5181    2.7554 C   0  0  0  0  0  0  0  0  0  0  0  0
  120.8573    6.9416    4.0271 C   0  0  0  0  0  0  0  0  0  0  0  0
  119.5972    7.4698    1.9187 C   0  0  0  0  0  0  0  0  0  0  0  0
  118.9734    7.0925    0.7335 C   0  0  0  0  0  0  0  0  0  0  0  0
  118.3728    8.1321   -0.1738 C   0  0  0  0  0  0  0  0  0  0  0  0
  118.9283    5.7467    0.3853 C   0  0  0  0  0  0  0  0  0  0  0  0
  120.6625    2.6707    0.6398 C   0  0  0  0  0  0  0  0  0  0  0  0
  121.9727    3.2969    0.7260 C   0  0  0  0  0  0  0  0  0  0  0  0
  122.8768    2.3279    0.4777 C   0  0  0  0  0  0  0  0  0  0  0  0
  122.1200    1.1136    0.2288 C   0  0  0  0  0  0  0  0  0  0  0  0
  120.7904    1.3595    0.3266 N   0  0  0  0  0  0  0  0  0  0  0  0
  117.9218    1.4750    0.3517 N   0  0  0  0  0  0  0  0  0  0  0  0
  119.1801   -4.8361   -1.2865 C   0  0  0  0  0  0  0  0  0  0  0  0
  118.5817   -5.7679   -0.4405 C   0  0  0  0  0  0  0  0  0  0  0  0
  118.5402   -7.1145   -0.7884 C   0  0  0  0  0  0  0  0  0  0  0  0
  117.8792   -8.1092    0.1272 C   0  0  0  0  0  0  0  0  0  0  0  0
  119.0986   -7.5245   -1.9946 C   0  0  0  0  0  0  0  0  0  0  0  0
  119.6999   -6.6058   -2.8506 C   0  0  0  0  0  0  0  0  0  0  0  0
  120.2814   -7.0588   -4.1627 C   0  0  0  0  0  0  0  0  0  0  0  0
  119.7393   -5.2635   -2.4906 C   0  0  0  0  0  0  0  0  0  0  0  0
  123.8054   -0.1237   -0.0713 H   0  0  0  0  0  0  0  0  0  0  0  0
  123.8008   -2.7056   -0.6365 H   0  0  0  0  0  0  0  0  0  0  0  0
  121.8964   -4.5263   -1.0968 H   0  0  0  0  0  0  0  0  0  0  0  0
  120.0342   -0.8313   -0.2694 H   0  0  0  0  0  0  0  0  0  0  0  0
  116.5415   -4.3341   -1.2825 H   0  0  0  0  0  0  0  0  0  0  0  0
  114.7281   -2.4196   -0.7550 H   0  0  0  0  0  0  0  0  0  0  0  0
  114.8826    2.6068    0.7834 H   0  0  0  0  0  0  0  0  0  0  0  0
  116.7931    4.4174    1.2497 H   0  0  0  0  0  0  0  0  0  0  0  0
  120.5570    4.4237    3.0463 H   0  0  0  0  0  0  0  0  0  0  0  0
  121.8830    7.2495    3.8115 H   0  0  0  0  0  0  0  0  0  0  0  0
  120.3398    7.7863    4.4826 H   0  0  0  0  0  0  0  0  0  0  0  0
  120.8919    6.1205    4.7431 H   0  0  0  0  0  0  0  0  0  0  0  0
  119.6324    8.5184    2.1959 H   0  0  0  0  0  0  0  0  0  0  0  0
  117.5585    7.7104   -0.7633 H   0  0  0  0  0  0  0  0  0  0  0  0
  117.9923    8.9762    0.4018 H   0  0  0  0  0  0  0  0  0  0  0  0
  119.1331    8.5068   -0.8631 H   0  0  0  0  0  0  0  0  0  0  0  0
  118.4576    5.4426   -0.5433 H   0  0  0  0  0  0  0  0  0  0  0  0
  122.1509    4.3394    0.9355 H   0  0  0  0  0  0  0  0  0  0  0  0
  123.9529    2.3988    0.4496 H   0  0  0  0  0  0  0  0  0  0  0  0
  118.6355    0.7845    0.1433 H   0  0  0  0  0  0  0  0  0  0  0  0
  118.1626   -5.4390    0.5041 H   0  0  0  0  0  0  0  0  0  0  0  0
  118.0811   -7.8672    1.1711 H   0  0  0  0  0  0  0  0  0  0  0  0
  118.2315   -9.1206   -0.0756 H   0  0  0  0  0  0  0  0  0  0  0  0
  116.7972   -8.0878   -0.0212 H   0  0  0  0  0  0  0  0  0  0  0  0
  119.0683   -8.5734   -2.2711 H   0  0  0  0  0  0  0  0  0  0  0  0
  120.6968   -8.0632   -4.0765 H   0  0  0  0  0  0  0  0  0  0  0  0
  119.5011   -7.0794   -4.9269 H   0  0  0  0  0  0  0  0  0  0  0  0
  121.0658   -6.3792   -4.4962 H   0  0  0  0  0  0  0  0  0  0  0  0
  120.1928   -4.5368   -3.1558 H   0  0  0  0  0  0  0  0  0  0  0  0
   63.8451   -0.1243   -0.0151 C   0  0  0  0  0  0  0  0  0  0  0  0
   62.6166   -0.1093   -0.0156 C   0  0  0  0  0  0  0  0  0  0  0  0
   61.2723   -0.0900   -0.0162 C   0  0  0  0  0  0  0  0  0  0  0  0
   60.0484   -0.0685   -0.0185 C   0  0  0  0  0  0  0  0  0  0  0  0
   65.1894   -0.1311   -0.0131 C   0  0  0  0  0  0  0  0  0  0  0  0
   66.4137   -0.1306   -0.0152 C   0  0  0  0  0  0  0  0  0  0  0  0
   79.8828    0.0057   -0.0018 C   0  0  0  0  0  0  0  0  0  0  0  0
   78.6538   -0.0090    0.0007 C   0  0  0  0  0  0  0  0  0  0  0  0
   77.3107   -0.0204   -0.0045 C   0  0  0  0  0  0  0  0  0  0  0  0
   76.0861   -0.0390   -0.0084 C   0  0  0  0  0  0  0  0  0  0  0  0
   81.2260    0.0088   -0.0017 C   0  0  0  0  0  0  0  0  0  0  0  0
   82.4507    0.0171   -0.0042 C   0  0  0  0  0  0  0  0  0  0  0  0
   95.9178    0.0114    0.0024 C   0  0  0  0  0  0  0  0  0  0  0  0
   94.6888    0.0031    0.0050 C   0  0  0  0  0  0  0  0  0  0  0  0
   93.3456   -0.0009    0.0062 C   0  0  0  0  0  0  0  0  0  0  0  0
   92.1210   -0.0092    0.0021 C   0  0  0  0  0  0  0  0  0  0  0  0
   97.2610    0.0114   -0.0036 C   0  0  0  0  0  0  0  0  0  0  0  0
   98.4856    0.0187   -0.0111 C   0  0  0  0  0  0  0  0  0  0  0  0
  111.9538    0.0938    0.0335 C   0  0  0  0  0  0  0  0  0  0  0  0
  110.7252    0.0912    0.0365 C   0  0  0  0  0  0  0  0  0  0  0  0
  109.3810    0.0863    0.0318 C   0  0  0  0  0  0  0  0  0  0  0  0
  108.1568    0.0724    0.0260 C   0  0  0  0  0  0  0  0  0  0  0  0
  113.2982    0.0852    0.0300 C   0  0  0  0  0  0  0  0  0  0  0  0
  114.5222    0.0710    0.0211 C   0  0  0  0  0  0  0  0  0  0  0  0
   67.8186   -0.1219   -0.0202 C   0  0  0  0  0  0  0  0  0  0  0  0
   68.4554   -1.2950    0.4290 C   0  0  0  0  0  0  0  0  0  0  0  0
   67.8170   -2.4677    0.9088 C   0  0  0  0  0  0  0  0  0  0  0  0
   68.7899   -3.3725    1.2359 C   0  0  0  0  0  0  0  0  0  0  0  0
   70.0515   -2.7803    0.9569 C   0  0  0  0  0  0  0  0  0  0  0  0
   69.7983   -1.5221    0.4789 N   0  0  0  0  0  0  0  0  0  0  0  0
   71.3156   -3.3516    1.1469 C   0  0  0  0  0  0  0  0  0  0  0  0
   72.5357   -2.7206    0.9021 C   0  0  0  0  0  0  0  0  0  0  0  0
   73.8261   -3.3676    1.0596 C   0  0  0  0  0  0  0  0  0  0  0  0
   74.7579   -2.4464    0.7383 C   0  0  0  0  0  0  0  0  0  0  0  0
   72.7052   -1.4387    0.4739 N   0  0  0  0  0  0  0  0  0  0  0  0
   74.0352   -1.2434    0.3757 C   0  0  0  0  0  0  0  0  0  0  0  0
   74.6825   -0.0537   -0.0160 C   0  0  0  0  0  0  0  0  0  0  0  0
   74.0450    1.1350   -0.4225 C   0  0  0  0  0  0  0  0  0  0  0  0
   74.6830    2.3447   -0.7996 C   0  0  0  0  0  0  0  0  0  0  0  0
   73.7101    3.2450   -1.1389 C   0  0  0  0  0  0  0  0  0  0  0  0
   72.4492    2.6071   -0.9856 C   0  0  0  0  0  0  0  0  0  0  0  0
   71.1858    3.1630   -1.2200 C   0  0  0  0  0  0  0  0  0  0  0  0
   71.1657    4.5541   -1.7386 C   0  0  0  0  0  0  0  0  0  0  0  0
   70.5677    5.5736   -0.9986 C   0  0  0  0  0  0  0  0  0  0  0  0
   70.5485    6.8776   -1.4803 C   0  0  0  0  0  0  0  0  0  0  0  0
   69.9213    7.9800   -0.6705 C   0  0  0  0  0  0  0  0  0  0  0  0
   71.1323    7.1588   -2.7125 C   0  0  0  0  0  0  0  0  0  0  0  0
   71.7308    6.1524   -3.4637 C   0  0  0  0  0  0  0  0  0  0  0  0
   72.3737    6.4671   -4.7875 C   0  0  0  0  0  0  0  0  0  0  0  0
   71.7472    4.8519   -2.9700 C   0  0  0  0  0  0  0  0  0  0  0  0
   69.9652    2.5202   -1.0088 C   0  0  0  0  0  0  0  0  0  0  0  0
   68.6753    3.1150   -1.3096 C   0  0  0  0  0  0  0  0  0  0  0  0
   67.7434    2.2009   -0.9687 C   0  0  0  0  0  0  0  0  0  0  0  0
   68.4656    1.0462   -0.4724 C   0  0  0  0  0  0  0  0  0  0  0  0
   69.7958    1.2622   -0.5154 N   0  0  0  0  0  0  0  0  0  0  0  0
   72.7026    1.3365   -0.5416 N   0  0  0  0  0  0  0  0  0  0  0  0
   71.3413   -4.7474    1.6529 C   0  0  0  0  0  0  0  0  0  0  0  0
   70.7814   -5.7794    0.9020 C   0  0  0  0  0  0  0  0  0  0  0  0
   70.8127   -7.0901    1.3684 C   0  0  0  0  0  0  0  0  0  0  0  0
   70.1979   -8.1954    0.5528 C   0  0  0  0  0  0  0  0  0  0  0  0
   71.4021   -7.3619    2.5986 C   0  0  0  0  0  0  0  0  0  0  0  0
   71.9631   -6.3413    3.3617 C   0  0  0  0  0  0  0  0  0  0  0  0
   72.5812   -6.6465    4.6994 C   0  0  0  0  0  0  0  0  0  0  0  0
   71.9307   -5.0365    2.8834 C   0  0  0  0  0  0  0  0  0  0  0  0
   66.7496   -2.5924    0.9947 H   0  0  0  0  0  0  0  0  0  0  0  0
   68.6486   -4.3604    1.6430 H   0  0  0  0  0  0  0  0  0  0  0  0
   70.5132   -0.8543    0.2099 H   0  0  0  0  0  0  0  0  0  0  0  0
   73.9761   -4.3914    1.3618 H   0  0  0  0  0  0  0  0  0  0  0  0
   75.8313   -2.5481    0.7307 H   0  0  0  0  0  0  0  0  0  0  0  0
   75.7498    2.4994   -0.8034 H   0  0  0  0  0  0  0  0  0  0  0  0
   73.8511    4.2646   -1.4585 H   0  0  0  0  0  0  0  0  0  0  0  0
   70.1277    5.3443   -0.0343 H   0  0  0  0  0  0  0  0  0  0  0  0
   70.6906    8.5063   -0.1008 H   0  0  0  0  0  0  0  0  0  0  0  0
   69.4276    8.7037   -1.3198 H   0  0  0  0  0  0  0  0  0  0  0  0
   69.1907    7.5798    0.0324 H   0  0  0  0  0  0  0  0  0  0  0  0
   71.1169    8.1750   -3.0928 H   0  0  0  0  0  0  0  0  0  0  0  0
   72.2882    5.6219   -5.4710 H   0  0  0  0  0  0  0  0  0  0  0  0
   73.4355    6.6795   -4.6425 H   0  0  0  0  0  0  0  0  0  0  0  0
   71.9120    7.3413   -5.2466 H   0  0  0  0  0  0  0  0  0  0  0  0
   72.1967    4.0563   -3.5542 H   0  0  0  0  0  0  0  0  0  0  0  0
   68.5253    4.0940   -1.7351 H   0  0  0  0  0  0  0  0  0  0  0  0
   66.6702    2.2727   -1.0445 H   0  0  0  0  0  0  0  0  0  0  0  0
   71.9884    0.6483   -0.3281 H   0  0  0  0  0  0  0  0  0  0  0  0
   70.3387   -5.5584   -0.0632 H   0  0  0  0  0  0  0  0  0  0  0  0
   70.6110   -9.1639    0.8346 H   0  0  0  0  0  0  0  0  0  0  0  0
   70.3720   -8.0332   -0.5113 H   0  0  0  0  0  0  0  0  0  0  0  0
   69.1185   -8.2229    0.7183 H   0  0  0  0  0  0  0  0  0  0  0  0
   71.4294   -8.3823    2.9668 H   0  0  0  0  0  0  0  0  0  0  0  0
   73.3222   -5.8931    4.9667 H   0  0  0  0  0  0  0  0  0  0  0  0
   73.0601   -7.6260    4.6902 H   0  0  0  0  0  0  0  0  0  0  0  0
   71.8090   -6.6543    5.4720 H   0  0  0  0  0  0  0  0  0  0  0  0
   72.3549   -4.2312    3.4729 H   0  0  0  0  0  0  0  0  0  0  0  0
   83.8543    0.0120   -0.0094 C   0  0  0  0  0  0  0  0  0  0  0  0
   84.4767   -1.1628    0.4568 C   0  0  0  0  0  0  0  0  0  0  0  0
   83.8234   -2.3210    0.9511 C   0  0  0  0  0  0  0  0  0  0  0  0
   84.7847   -3.2368    1.2825 C   0  0  0  0  0  0  0  0  0  0  0  0
   86.0532   -2.6656    0.9921 C   0  0  0  0  0  0  0  0  0  0  0  0
   85.8162   -1.4078    0.5047 N   0  0  0  0  0  0  0  0  0  0  0  0
   87.3096   -3.2549    1.1790 C   0  0  0  0  0  0  0  0  0  0  0  0
   88.5377   -2.6422    0.9276 C   0  0  0  0  0  0  0  0  0  0  0  0
   89.8198   -3.3050    1.0854 C   0  0  0  0  0  0  0  0  0  0  0  0
   90.7628   -2.3968    0.7593 C   0  0  0  0  0  0  0  0  0  0  0  0
   88.7228   -1.3644    0.4931 N   0  0  0  0  0  0  0  0  0  0  0  0
   90.0550   -1.1864    0.3922 C   0  0  0  0  0  0  0  0  0  0  0  0
   90.7174   -0.0071   -0.0062 C   0  0  0  0  0  0  0  0  0  0  0  0
   90.0954    1.1869   -0.4214 C   0  0  0  0  0  0  0  0  0  0  0  0
   90.7486    2.3860   -0.8059 C   0  0  0  0  0  0  0  0  0  0  0  0
   89.7873    3.2958   -1.1531 C   0  0  0  0  0  0  0  0  0  0  0  0
   88.5186    2.6743   -0.9976 C   0  0  0  0  0  0  0  0  0  0  0  0
   87.2621    3.2432   -1.2391 C   0  0  0  0  0  0  0  0  0  0  0  0
   87.2576    4.6305   -1.7680 C   0  0  0  0  0  0  0  0  0  0  0  0
   86.6657    5.6603   -1.0373 C   0  0  0  0  0  0  0  0  0  0  0  0
   86.6563    6.9603   -1.5297 C   0  0  0  0  0  0  0  0  0  0  0  0
   86.0340    8.0734   -0.7308 C   0  0  0  0  0  0  0  0  0  0  0  0
   87.2440    7.2271   -2.7634 C   0  0  0  0  0  0  0  0  0  0  0  0
   87.8371    6.2106   -3.5049 C   0  0  0  0  0  0  0  0  0  0  0  0
   88.4834    6.5082   -4.8309 C   0  0  0  0  0  0  0  0  0  0  0  0
   87.8438    4.9140   -3.0003 C   0  0  0  0  0  0  0  0  0  0  0  0
   86.0338    2.6162   -1.0265 C   0  0  0  0  0  0  0  0  0  0  0  0
   84.7516    3.2220   -1.3379 C   0  0  0  0  0  0  0  0  0  0  0  0
   83.8085    2.3220   -0.9900 C   0  0  0  0  0  0  0  0  0  0  0  0
   84.5163    1.1652   -0.4785 C   0  0  0  0  0  0  0  0  0  0  0  0
   85.8486    1.3652   -0.5200 N   0  0  0  0  0  0  0  0  0  0  0  0
   88.7557    1.4040   -0.5441 N   0  0  0  0  0  0  0  0  0  0  0  0
   87.3142   -4.6503    1.6859 C   0  0  0  0  0  0  0  0  0  0  0  0
   86.7258   -5.6703    0.9401 C   0  0  0  0  0  0  0  0  0  0  0  0
   86.7327   -6.9812    1.4061 C   0  0  0  0  0  0  0  0  0  0  0  0
   86.0842   -8.0728    0.5984 C   0  0  0  0  0  0  0  0  0  0  0  0
   87.3280   -7.2658    2.6307 C   0  0  0  0  0  0  0  0  0  0  0  0
   87.9179   -6.2577    3.3884 C   0  0  0  0  0  0  0  0  0  0  0  0
   88.5423   -6.5768    4.7198 C   0  0  0  0  0  0  0  0  0  0  0  0
   87.9085   -4.9521    2.9108 C   0  0  0  0  0  0  0  0  0  0  0  0
   82.7548   -2.4299    1.0425 H   0  0  0  0  0  0  0  0  0  0  0  0
   84.6306   -4.2184    1.6999 H   0  0  0  0  0  0  0  0  0  0  0  0
   86.5393   -0.7538    0.2244 H   0  0  0  0  0  0  0  0  0  0  0  0
   89.9575   -4.3292    1.3917 H   0  0  0  0  0  0  0  0  0  0  0  0
   91.8349   -2.5121    0.7509 H   0  0  0  0  0  0  0  0  0  0  0  0
   91.8173    2.5278   -0.8093 H   0  0  0  0  0  0  0  0  0  0  0  0
   89.9412    4.3113   -1.4796 H   0  0  0  0  0  0  0  0  0  0  0  0
   86.2220    5.4418   -0.0722 H   0  0  0  0  0  0  0  0  0  0  0  0
   86.8060    8.6046   -0.1694 H   0  0  0  0  0  0  0  0  0  0  0  0
   85.5399    8.7906   -1.3870 H   0  0  0  0  0  0  0  0  0  0  0  0
   85.3045    7.6829   -0.0213 H   0  0  0  0  0  0  0  0  0  0  0  0
   87.2355    8.2402   -3.1524 H   0  0  0  0  0  0  0  0  0  0  0  0
   88.3629    5.6697   -5.5174 H   0  0  0  0  0  0  0  0  0  0  0  0
   89.5532    6.6804   -4.6916 H   0  0  0  0  0  0  0  0  0  0  0  0
   88.0512    7.4006   -5.2836 H   0  0  0  0  0  0  0  0  0  0  0  0
   88.2886    4.1106   -3.5774 H   0  0  0  0  0  0  0  0  0  0  0  0
   84.6139    4.1977   -1.7748 H   0  0  0  0  0  0  0  0  0  0  0  0
   82.7364    2.4047   -1.0699 H   0  0  0  0  0  0  0  0  0  0  0  0
   88.0328    0.7262   -0.3270 H   0  0  0  0  0  0  0  0  0  0  0  0
   86.2791   -5.4395   -0.0210 H   0  0  0  0  0  0  0  0  0  0  0  0
   86.5089   -9.0457    0.8461 H   0  0  0  0  0  0  0  0  0  0  0  0
   86.2124   -7.8926   -0.4693 H   0  0  0  0  0  0  0  0  0  0  0  0
   85.0129   -8.1043    0.8100 H   0  0  0  0  0  0  0  0  0  0  0  0
   87.3365   -8.2867    2.9987 H   0  0  0  0  0  0  0  0  0  0  0  0
   89.2940   -5.8334    4.9853 H   0  0  0  0  0  0  0  0  0  0  0  0
   89.0100   -7.5616    4.7018 H   0  0  0  0  0  0  0  0  0  0  0  0
   87.7759   -6.5800    5.4983 H   0  0  0  0  0  0  0  0  0  0  0  0
   88.3540   -4.1561    3.4973 H   0  0  0  0  0  0  0  0  0  0  0  0
   99.8893    0.0198   -0.0204 C   0  0  0  0  0  0  0  0  0  0  0  0
  100.5204   -1.1522    0.4407 C   0  0  0  0  0  0  0  0  0  0  0  0
   99.8761   -2.3178    0.9294 C   0  0  0  0  0  0  0  0  0  0  0  0
  100.8441   -3.2303    1.2497 C   0  0  0  0  0  0  0  0  0  0  0  0
  102.1083   -2.6492    0.9586 C   0  0  0  0  0  0  0  0  0  0  0  0
  101.8616   -1.3893    0.4818 N   0  0  0  0  0  0  0  0  0  0  0  0
  103.3687   -3.2325    1.1357 C   0  0  0  0  0  0  0  0  0  0  0  0
  104.5925   -2.6081    0.8902 C   0  0  0  0  0  0  0  0  0  0  0  0
  105.8795   -3.2636    1.0391 C   0  0  0  0  0  0  0  0  0  0  0  0
  106.8160   -2.3430    0.7294 C   0  0  0  0  0  0  0  0  0  0  0  0
  104.7681   -1.3228    0.4756 N   0  0  0  0  0  0  0  0  0  0  0  0
  106.0996   -1.1321    0.3812 C   0  0  0  0  0  0  0  0  0  0  0  0
  106.7520    0.0614    0.0112 C   0  0  0  0  0  0  0  0  0  0  0  0
  106.1203    1.2562   -0.3859 C   0  0  0  0  0  0  0  0  0  0  0  0
  106.7636    2.4678   -0.7480 C   0  0  0  0  0  0  0  0  0  0  0  0
  105.7958    3.3695   -1.0986 C   0  0  0  0  0  0  0  0  0  0  0  0
  104.5330    2.7307   -0.9671 C   0  0  0  0  0  0  0  0  0  0  0  0
  103.2731    3.2849   -1.2245 C   0  0  0  0  0  0  0  0  0  0  0  0
  103.2569    4.6738   -1.7492 C   0  0  0  0  0  0  0  0  0  0  0  0
  102.6391    5.6925   -1.0240 C   0  0  0  0  0  0  0  0  0  0  0  0
  102.6146    6.9931   -1.5139 C   0  0  0  0  0  0  0  0  0  0  0  0
  101.9641    8.0945   -0.7213 C   0  0  0  0  0  0  0  0  0  0  0  0
  103.2128    7.2719   -2.7401 C   0  0  0  0  0  0  0  0  0  0  0  0
  103.8315    6.2668   -3.4758 C   0  0  0  0  0  0  0  0  0  0  0  0
  104.4865    6.5753   -4.7952 C   0  0  0  0  0  0  0  0  0  0  0  0
  103.8540    4.9694   -2.9732 C   0  0  0  0  0  0  0  0  0  0  0  0
  102.0501    2.6423   -1.0296 C   0  0  0  0  0  0  0  0  0  0  0  0
  100.7644    3.2333   -1.3552 C   0  0  0  0  0  0  0  0  0  0  0  0
   99.8277    2.3250   -1.0118 C   0  0  0  0  0  0  0  0  0  0  0  0
  100.5431    1.1772   -0.4907 C   0  0  0  0  0  0  0  0  0  0  0  0
  101.8736    1.3901   -0.5232 N   0  0  0  0  0  0  0  0  0  0  0  0
  104.7796    1.4590   -0.5229 N   0  0  0  0  0  0  0  0  0  0  0  0
  103.3817   -4.6328    1.6291 C   0  0  0  0  0  0  0  0  0  0  0  0
  102.7942   -5.6484    0.8764 C   0  0  0  0  0  0  0  0  0  0  0  0
  102.8040   -6.9626    1.3325 C   0  0  0  0  0  0  0  0  0  0  0  0
  102.1553   -8.0503    0.5195 C   0  0  0  0  0  0  0  0  0  0  0  0
  103.4015   -7.2554    2.5543 C   0  0  0  0  0  0  0  0  0  0  0  0
  103.9911   -6.2521    3.3184 C   0  0  0  0  0  0  0  0  0  0  0  0
  104.6165   -6.5796    4.6473 C   0  0  0  0  0  0  0  0  0  0  0  0
  103.9789   -4.9429    2.8505 C   0  0  0  0  0  0  0  0  0  0  0  0
   98.8085   -2.4337    1.0243 H   0  0  0  0  0  0  0  0  0  0  0  0
  100.6977   -4.2159    1.6603 H   0  0  0  0  0  0  0  0  0  0  0  0
  102.5794   -0.7283    0.2043 H   0  0  0  0  0  0  0  0  0  0  0  0
  106.0244   -4.2915    1.3295 H   0  0  0  0  0  0  0  0  0  0  0  0
  107.8889   -2.4498    0.7217 H   0  0  0  0  0  0  0  0  0  0  0  0
  107.8304    2.6224   -0.7357 H   0  0  0  0  0  0  0  0  0  0  0  0
  105.9412    4.3902   -1.4125 H   0  0  0  0  0  0  0  0  0  0  0  0
  102.1865    5.4645   -0.0653 H   0  0  0  0  0  0  0  0  0  0  0  0
  102.7214    8.6442   -0.1579 H   0  0  0  0  0  0  0  0  0  0  0  0
  101.4577    8.7987   -1.3822 H   0  0  0  0  0  0  0  0  0  0  0  0
  101.2397    7.6901   -0.0143 H   0  0  0  0  0  0  0  0  0  0  0  0
  103.1916    8.2853   -3.1275 H   0  0  0  0  0  0  0  0  0  0  0  0
  104.3340    5.7595   -5.5024 H   0  0  0  0  0  0  0  0  0  0  0  0
  105.5622    6.7040   -4.6548 H   0  0  0  0  0  0  0  0  0  0  0  0
  104.0861    7.4939   -5.2241 H   0  0  0  0  0  0  0  0  0  0  0  0
  104.3194    4.1748   -3.5462 H   0  0  0  0  0  0  0  0  0  0  0  0
  100.6204    4.2058   -1.7973 H   0  0  0  0  0  0  0  0  0  0  0  0
   98.7555    2.3960   -1.1017 H   0  0  0  0  0  0  0  0  0  0  0  0
  104.0621    0.7703   -0.3226 H   0  0  0  0  0  0  0  0  0  0  0  0
  102.3451   -5.4109   -0.0820 H   0  0  0  0  0  0  0  0  0  0  0  0
  102.6070   -9.0189    0.7342 H   0  0  0  0  0  0  0  0  0  0  0  0
  102.2484   -7.8452   -0.5472 H   0  0  0  0  0  0  0  0  0  0  0  0
  101.0916   -8.1095    0.7615 H   0  0  0  0  0  0  0  0  0  0  0  0
  103.4114   -8.2788    2.9148 H   0  0  0  0  0  0  0  0  0  0  0  0
  105.3739   -5.8422    4.9133 H   0  0  0  0  0  0  0  0  0  0  0  0
  105.0772   -7.5676    4.6253 H   0  0  0  0  0  0  0  0  0  0  0  0
  103.8519   -6.5798    5.4274 H   0  0  0  0  0  0  0  0  0  0  0  0
  104.4236   -4.1506    3.4425 H   0  0  0  0  0  0  0  0  0  0  0  0
  1  2  4  0  0  0  0
  2  3  4  0  0  0  0
  3  4  2  0  0  0  0
  4  5  4  0  0  0  0
  2  6  4  0  0  0  0
  5  6  4  0  0  0  0
  5  7  4  0  0  0  0
  7  8  4  0  0  0  0
  8  9  1  0  0  0  0
  9 10  2  0  0  0  0
  8 11  4  0  0  0  0
 10 12  1  0  0  0  0
 11 12  4  0  0  0  0
 12 13  4  0  0  0  0
 13 14  4  0  0  0  0
 14 15  4  0  0  0  0
 15 16  2  0  0  0  0
 16 17  4  0  0  0  0
 17 18  4  0  0  0  0
 18 19  1  0  0  0  0
 19 20  4  0  0  0  0
 20 21  4  0  0  0  0
 21 22  1  0  0  0  0
 21 23  4  0  0  0  0
 23 24  4  0  0  0  0
 24 25  1  0  0  0  0
 19 26  4  0  0  0  0
 24 26  4  0  0  0  0
 18 27  4  0  0  0  0
 27 28  1  0  0  0  0
 28 29  2  0  0  0  0
  1 30  4  0  0  0  0
 29 30  1  0  0  0  0
 27 31  4  0  0  0  0
 30 31  4  0  0  0  0
 14 32  4  0  0  0  0
 17 32  4  0  0  0  0
  7 33  1  0  0  0  0
 33 34  4  0  0  0  0
 34 35  4  0  0  0  0
 35 36  1  0  0  0  0
 35 37  4  0  0  0  0
 37 38  4  0  0  0  0
 38 39  1  0  0  0  0
 33 40  4  0  0  0  0
 38 40  4  0  0  0  0
  1 41  1  0  0  0  0
  3 42  1  0  0  0  0
  4 43  1  0  0  0  0
  6 44  1  0  0  0  0
  9 45  1  0  0  0  0
 10 46  1  0  0  0  0
 15 47  1  0  0  0  0
 16 48  1  0  0  0  0
 20 49  1  0  0  0  0
 22 50  1  0  0  0  0
 22 51  1  0  0  0  0
 22 52  1  0  0  0  0
 23 53  1  0  0  0  0
 25 54  1  0  0  0  0
 25 55  1  0  0  0  0
 25 56  1  0  0  0  0
 26 57  1  0  0  0  0
 28 58  1  0  0  0  0
 29 59  1  0  0  0  0
 32 60  1  0  0  0  0
 34 61  1  0  0  0  0
 36 62  1  0  0  0  0
 36 63  1  0  0  0  0
 36 64  1  0  0  0  0
 37 65  1  0  0  0  0
 39 66  1  0  0  0  0
 39 67  1  0  0  0  0
 39 68  1  0  0  0  0
 40 69  1  0  0  0  0
 70 71  4  0  0  0  0
 71 72  4  0  0  0  0
 72 73  2  0  0  0  0
 73 74  4  0  0  0  0
 71 75  4  0  0  0  0
 74 75  4  0  0  0  0
 74 76  4  0  0  0  0
 76 77  4  0  0  0  0
 77 78  1  0  0  0  0
 78 79  2  0  0  0  0
 77 80  4  0  0  0  0
 79 81  1  0  0  0  0
 80 81  4  0  0  0  0
 81 82  4  0  0  0  0
 82 83  4  0  0  0  0
 83 84  4  0  0  0  0
 84 85  2  0  0  0  0
 85 86  4  0  0  0  0
 86 87  4  0  0  0  0
 87 88  1  0  0  0  0
 88 89  4  0  0  0  0
 89 90  4  0  0  0  0
 90 91  1  0  0  0  0
 90 92  4  0  0  0  0
 92 93  4  0  0  0  0
 93 94  1  0  0  0  0
 88 95  4  0  0  0  0
 93 95  4  0  0  0  0
 87 96  4  0  0  0  0
 96 97  1  0  0  0  0
 97 98  2  0  0  0  0
 70 99  4  0  0  0  0
 98 99  1  0  0  0  0
 96100  4  0  0  0  0
 99100  4  0  0  0  0
 83101  4  0  0  0  0
 86101  4  0  0  0  0
 76102  1  0  0  0  0
102103  4  0  0  0  0
103104  4  0  0  0  0
104105  1  0  0  0  0
104106  4  0  0  0  0
106107  4  0  0  0  0
107108  1  0  0  0  0
102109  4  0  0  0  0
107109  4  0  0  0  0
 70110  1  0  0  0  0
 72111  1  0  0  0  0
 73112  1  0  0  0  0
 75113  1  0  0  0  0
 78114  1  0  0  0  0
 79115  1  0  0  0  0
 84116  1  0  0  0  0
 85117  1  0  0  0  0
 89118  1  0  0  0  0
 91119  1  0  0  0  0
 91120  1  0  0  0  0
 91121  1  0  0  0  0
 92122  1  0  0  0  0
 94123  1  0  0  0  0
 94124  1  0  0  0  0
 94125  1  0  0  0  0
 95126  1  0  0  0  0
 97127  1  0  0  0  0
 98128  1  0  0  0  0
101129  1  0  0  0  0
103130  1  0  0  0  0
105131  1  0  0  0  0
105132  1  0  0  0  0
105133  1  0  0  0  0
106134  1  0  0  0  0
108135  1  0  0  0  0
108136  1  0  0  0  0
108137  1  0  0  0  0
109138  1  0  0  0  0
139140  3  0  0  0  0
140141  4  0  0  0  0
 13142  4  0  0  0  0
141142  3  0  0  0  0
139143  4  0  0  0  0
143144  3  0  0  0  0
145146  3  0  0  0  0
146147  4  0  0  0  0
147148  3  0  0  0  0
145149  4  0  0  0  0
149150  3  0  0  0  0
151152  3  0  0  0  0
152153  4  0  0  0  0
153154  3  0  0  0  0
151155  4  0  0  0  0
155156  3  0  0  0  0
157158  3  0  0  0  0
158159  4  0  0  0  0
159160  3  0  0  0  0
157161  4  0  0  0  0
 82162  4  0  0  0  0
161162  3  0  0  0  0
144163  4  0  0  0  0
163164  4  0  0  0  0
164165  4  0  0  0  0
165166  2  0  0  0  0
166167  4  0  0  0  0
164168  4  0  0  0  0
167168  4  0  0  0  0
167169  4  0  0  0  0
169170  4  0  0  0  0
170171  1  0  0  0  0
171172  2  0  0  0  0
170173  4  0  0  0  0
172174  1  0  0  0  0
173174  4  0  0  0  0
148175  4  0  0  0  0
174175  4  0  0  0  0
175176  4  0  0  0  0
176177  4  0  0  0  0
177178  2  0  0  0  0
178179  4  0  0  0  0
179180  4  0  0  0  0
180181  1  0  0  0  0
181182  4  0  0  0  0
182183  4  0  0  0  0
183184  1  0  0  0  0
183185  4  0  0  0  0
185186  4  0  0  0  0
186187  1  0  0  0  0
181188  4  0  0  0  0
186188  4  0  0  0  0
180189  4  0  0  0  0
189190  1  0  0  0  0
190191  2  0  0  0  0
163192  4  0  0  0  0
191192  1  0  0  0  0
189193  4  0  0  0  0
192193  4  0  0  0  0
176194  4  0  0  0  0
179194  4  0  0  0  0
169195  1  0  0  0  0
195196  4  0  0  0  0
196197  4  0  0  0  0
197198  1  0  0  0  0
197199  4  0  0  0  0
199200  4  0  0  0  0
200201  1  0  0  0  0
195202  4  0  0  0  0
200202  4  0  0  0  0
165203  1  0  0  0  0
166204  1  0  0  0  0
168205  1  0  0  0  0
171206  1  0  0  0  0
172207  1  0  0  0  0
177208  1  0  0  0  0
178209  1  0  0  0  0
182210  1  0  0  0  0
184211  1  0  0  0  0
184212  1  0  0  0  0
184213  1  0  0  0  0
185214  1  0  0  0  0
187215  1  0  0  0  0
187216  1  0  0  0  0
187217  1  0  0  0  0
188218  1  0  0  0  0
190219  1  0  0  0  0
191220  1  0  0  0  0
194221  1  0  0  0  0
196222  1  0  0  0  0
198223  1  0  0  0  0
198224  1  0  0  0  0
198225  1  0  0  0  0
199226  1  0  0  0  0
201227  1  0  0  0  0
201228  1  0  0  0  0
201229  1  0  0  0  0
202230  1  0  0  0  0
150231  4  0  0  0  0
231232  4  0  0  0  0
232233  4  0  0  0  0
233234  2  0  0  0  0
234235  4  0  0  0  0
232236  4  0  0  0  0
235236  4  0  0  0  0
235237  4  0  0  0  0
237238  4  0  0  0  0
238239  1  0  0  0  0
239240  2  0  0  0  0
238241  4  0  0  0  0
240242  1  0  0  0  0
241242  4  0  0  0  0
154243  4  0  0  0  0
242243  4  0  0  0  0
243244  4  0  0  0  0
244245  4  0  0  0  0
245246  2  0  0  0  0
246247  4  0  0  0  0
247248  4  0  0  0  0
248249  1  0  0  0  0
249250  4  0  0  0  0
250251  4  0  0  0  0
251252  1  0  0  0  0
251253  4  0  0  0  0
253254  4  0  0  0  0
254255  1  0  0  0  0
249256  4  0  0  0  0
254256  4  0  0  0  0
248257  4  0  0  0  0
257258  1  0  0  0  0
258259  2  0  0  0  0
231260  4  0  0  0  0
259260  1  0  0  0  0
257261  4  0  0  0  0
260261  4  0  0  0  0
244262  4  0  0  0  0
247262  4  0  0  0  0
237263  1  0  0  0  0
263264  4  0  0  0  0
264265  4  0  0  0  0
265266  1  0  0  0  0
265267  4  0  0  0  0
267268  4  0  0  0  0
268269  1  0  0  0  0
263270  4  0  0  0  0
268270  4  0  0  0  0
233271  1  0  0  0  0
234272  1  0  0  0  0
236273  1  0  0  0  0
239274  1  0  0  0  0
240275  1  0  0  0  0
245276  1  0  0  0  0
246277  1  0  0  0  0
250278  1  0  0  0  0
252279  1  0  0  0  0
252280  1  0  0  0  0
252281  1  0  0  0  0
253282  1  0  0  0  0
255283  1  0  0  0  0
255284  1  0  0  0  0
255285  1  0  0  0  0
256286  1  0  0  0  0
258287  1  0  0  0  0
259288  1  0  0  0  0
262289  1  0  0  0  0
264290  1  0  0  0  0
266291  1  0  0  0  0
266292  1  0  0  0  0
266293  1  0  0  0  0
267294  1  0  0  0  0
269295  1  0  0  0  0
269296  1  0  0  0  0
269297  1  0  0  0  0
270298  1  0  0  0  0
156299  4  0  0  0  0
299300  4  0  0  0  0
300301  4  0  0  0  0
301302  2  0  0  0  0
302303  4  0  0  0  0
300304  4  0  0  0  0
303304  4  0  0  0  0
303305  4  0  0  0  0
305306  4  0  0  0  0
306307  1  0  0  0  0
307308  2  0  0  0  0
306309  4  0  0  0  0
308310  1  0  0  0  0
309310  4  0  0  0  0
160311  4  0  0  0  0
310311  4  0  0  0  0
311312  4  0  0  0  0
312313  4  0  0  0  0
313314  2  0  0  0  0
314315  4  0  0  0  0
315316  4  0  0  0  0
316317  1  0  0  0  0
317318  4  0  0  0  0
318319  4  0  0  0  0
319320  1  0  0  0  0
319321  4  0  0  0  0
321322  4  0  0  0  0
322323  1  0  0  0  0
317324  4  0  0  0  0
322324  4  0  0  0  0
316325  4  0  0  0  0
325326  1  0  0  0  0
326327  2  0  0  0  0
299328  4  0  0  0  0
327328  1  0  0  0  0
325329  4  0  0  0  0
328329  4  0  0  0  0
312330  4  0  0  0  0
315330  4  0  0  0  0
305331  1  0  0  0  0
331332  4  0  0  0  0
332333  4  0  0  0  0
333334  1  0  0  0  0
333335  4  0  0  0  0
335336  4  0  0  0  0
336337  1  0  0  0  0
331338  4  0  0  0  0
336338  4  0  0  0  0
301339  1  0  0  0  0
302340  1  0  0  0  0
304341  1  0  0  0  0
307342  1  0  0  0  0
308343  1  0  0  0  0
313344  1  0  0  0  0
314345  1  0  0  0  0
318346  1  0  0  0  0
320347  1  0  0  0  0
320348  1  0  0  0  0
320349  1  0  0  0  0
321350  1  0  0  0  0
323351  1  0  0  0  0
323352  1  0  0  0  0
323353  1  0  0  0  0
324354  1  0  0  0  0
326355  1  0  0  0  0
327356  1  0  0  0  0
330357  1  0  0  0  0
332358  1  0  0  0  0
334359  1  0  0  0  0
334360  1  0  0  0  0
334361  1  0  0  0  0
335362  1  0  0  0  0
337363  1  0  0  0  0
337364  1  0  0  0  0
337365  1  0  0  0  0
338366  1  0  0  0  0
M  END
