 xtb: 6.5.1 (b24c23e)
          07302202083D

148179  0     0  0            999 V2000
   28.1006   -0.0190   -0.0309 Ni  0  0  0  0  0  0  0  0  0  0  0  0
   24.6908   -0.1019    0.0161 C   0  0  0  0  0  0  0  0  0  0  0  0
   25.3467   -0.8538   -0.9368 C   0  0  0  0  0  0  0  0  0  0  0  0
   24.6746   -1.6628   -1.9107 C   0  0  0  0  0  0  0  0  0  0  0  0
   25.6343   -2.1979   -2.7007 C   0  0  0  0  0  0  0  0  0  0  0  0
   26.8904   -1.7198   -2.2034 C   0  0  0  0  0  0  0  0  0  0  0  0
   26.7055   -0.9040   -1.1167 N   0  0  0  0  0  0  0  0  0  0  0  0
   28.1081   -2.0369   -2.7685 C   0  0  0  0  0  0  0  0  0  0  0  0
   29.3226   -1.6034   -2.2795 C   0  0  0  0  0  0  0  0  0  0  0  0
   30.5794   -1.9523   -2.8674 C   0  0  0  0  0  0  0  0  0  0  0  0
   31.5379   -1.3902   -2.0932 C   0  0  0  0  0  0  0  0  0  0  0  0
   29.5079   -0.8227   -1.1623 N   0  0  0  0  0  0  0  0  0  0  0  0
   30.8642   -0.7003   -1.0365 C   0  0  0  0  0  0  0  0  0  0  0  0
   31.5319   -0.0102   -0.0216 C   0  0  0  0  0  0  0  0  0  0  0  0
   30.8549    0.6923    0.9784 C   0  0  0  0  0  0  0  0  0  0  0  0
   31.5191    1.4122    2.0209 C   0  0  0  0  0  0  0  0  0  0  0  0
   30.5542    2.0075    2.7617 C   0  0  0  0  0  0  0  0  0  0  0  0
   29.3026    1.6398    2.1742 C   0  0  0  0  0  0  0  0  0  0  0  0
   29.4975    0.8212    1.0862 N   0  0  0  0  0  0  0  0  0  0  0  0
   28.0829    2.0752    2.6485 C   0  0  0  0  0  0  0  0  0  0  0  0
   26.8678    1.6960    2.1171 C   0  0  0  0  0  0  0  0  0  0  0  0
   25.6037    2.1297    2.6343 C   0  0  0  0  0  0  0  0  0  0  0  0
   24.6504    1.5068    1.9030 C   0  0  0  0  0  0  0  0  0  0  0  0
   25.3348    0.6997    0.9362 C   0  0  0  0  0  0  0  0  0  0  0  0
   26.6937    0.8293    1.0684 N   0  0  0  0  0  0  0  0  0  0  0  0
   23.6077   -0.1332    0.0352 H   0  0  0  0  0  0  0  0  0  0  0  0
   23.6045   -1.7854   -1.9671 H   0  0  0  0  0  0  0  0  0  0  0  0
   25.5254   -2.8574   -3.5471 H   0  0  0  0  0  0  0  0  0  0  0  0
   28.1122   -2.6730   -3.6461 H   0  0  0  0  0  0  0  0  0  0  0  0
   30.6929   -2.5528   -3.7558 H   0  0  0  0  0  0  0  0  0  0  0  0
   32.6082   -1.4259   -2.2156 H   0  0  0  0  0  0  0  0  0  0  0  0
   32.5881    1.4473    2.1548 H   0  0  0  0  0  0  0  0  0  0  0  0
   30.6601    2.6377    3.6304 H   0  0  0  0  0  0  0  0  0  0  0  0
   28.0796    2.7462    3.4997 H   0  0  0  0  0  0  0  0  0  0  0  0
   25.4853    2.8182    3.4561 H   0  0  0  0  0  0  0  0  0  0  0  0
   23.5775    1.5729    1.9914 H   0  0  0  0  0  0  0  0  0  0  0  0
   60.8083    0.0005   -0.0372 Ni  0  0  0  0  0  0  0  0  0  0  0  0
   64.2183    0.0121    0.0694 C   0  0  0  0  0  0  0  0  0  0  0  0
   63.5617    1.2241    0.1286 C   0  0  0  0  0  0  0  0  0  0  0  0
   64.2332    2.4869    0.2224 C   0  0  0  0  0  0  0  0  0  0  0  0
   63.2706    3.4377    0.2543 C   0  0  0  0  0  0  0  0  0  0  0  0
   62.0135    2.7528    0.1879 C   0  0  0  0  0  0  0  0  0  0  0  0
   62.2013    1.3968    0.1039 N   0  0  0  0  0  0  0  0  0  0  0  0
   60.7916    3.3909    0.2332 C   0  0  0  0  0  0  0  0  0  0  0  0
   59.5774    2.7376    0.2022 C   0  0  0  0  0  0  0  0  0  0  0  0
   58.3176    3.4113    0.2810 C   0  0  0  0  0  0  0  0  0  0  0  0
   57.3620    2.4537    0.2186 C   0  0  0  0  0  0  0  0  0  0  0  0
   59.3968    1.3786    0.0931 N   0  0  0  0  0  0  0  0  0  0  0  0
   58.0407    1.2000    0.0981 C   0  0  0  0  0  0  0  0  0  0  0  0
   57.3767   -0.0217   -0.0358 C   0  0  0  0  0  0  0  0  0  0  0  0
   58.0559   -1.2320   -0.1940 C   0  0  0  0  0  0  0  0  0  0  0  0
   57.3935   -2.4901   -0.3519 C   0  0  0  0  0  0  0  0  0  0  0  0
   58.3616   -3.4298   -0.4702 C   0  0  0  0  0  0  0  0  0  0  0  0
   59.6127   -2.7422   -0.3744 C   0  0  0  0  0  0  0  0  0  0  0  0
   59.4143   -1.3913   -0.2094 N   0  0  0  0  0  0  0  0  0  0  0  0
   60.8350   -3.3796   -0.4172 C   0  0  0  0  0  0  0  0  0  0  0  0
   62.0476   -2.7344   -0.2915 C   0  0  0  0  0  0  0  0  0  0  0  0
   63.3119   -3.4091   -0.3034 C   0  0  0  0  0  0  0  0  0  0  0  0
   64.2618   -2.4570   -0.1526 C   0  0  0  0  0  0  0  0  0  0  0  0
   63.5756   -1.2023   -0.0566 C   0  0  0  0  0  0  0  0  0  0  0  0
   62.2183   -1.3824   -0.1361 N   0  0  0  0  0  0  0  0  0  0  0  0
   65.3013    0.0151    0.1105 H   0  0  0  0  0  0  0  0  0  0  0  0
   65.3046    2.6063    0.2553 H   0  0  0  0  0  0  0  0  0  0  0  0
   63.3781    4.5088    0.3212 H   0  0  0  0  0  0  0  0  0  0  0  0
   60.7843    4.4720    0.3106 H   0  0  0  0  0  0  0  0  0  0  0  0
   58.2004    4.4794    0.3722 H   0  0  0  0  0  0  0  0  0  0  0  0
   56.2905    2.5694    0.2415 H   0  0  0  0  0  0  0  0  0  0  0  0
   56.3236   -2.6205   -0.3652 H   0  0  0  0  0  0  0  0  0  0  0  0
   58.2583   -4.4949   -0.6034 H   0  0  0  0  0  0  0  0  0  0  0  0
   60.8417   -4.4560   -0.5443 H   0  0  0  0  0  0  0  0  0  0  0  0
   63.4325   -4.4753   -0.4122 H   0  0  0  0  0  0  0  0  0  0  0  0
   65.3337   -2.5699   -0.1124 H   0  0  0  0  0  0  0  0  0  0  0  0
   32.9420   -0.0120   -0.0148 C   0  0  0  0  0  0  0  0  0  0  0  0
   34.1580   -0.0116   -0.0146 C   0  0  0  0  0  0  0  0  0  0  0  0
   43.8445   -0.0259   -0.0135 C   0  0  0  0  0  0  0  0  0  0  0  0
   45.0608   -0.0204   -0.0058 C   0  0  0  0  0  0  0  0  0  0  0  0
   54.7505   -0.0307   -0.0188 C   0  0  0  0  0  0  0  0  0  0  0  0
   55.9664   -0.0306   -0.0256 C   0  0  0  0  0  0  0  0  0  0  0  0
   39.0014   -0.0222   -0.0107 Ni  0  0  0  0  0  0  0  0  0  0  0  0
   35.5676   -0.0142   -0.0135 C   0  0  0  0  0  0  0  0  0  0  0  0
   36.2442    1.0130    0.6498 C   0  0  0  0  0  0  0  0  0  0  0  0
   35.5823    2.0915    1.3163 C   0  0  0  0  0  0  0  0  0  0  0  0
   36.5456    2.8304    1.9173 C   0  0  0  0  0  0  0  0  0  0  0  0
   37.7932    2.2021    1.6100 C   0  0  0  0  0  0  0  0  0  0  0  0
   37.5996    1.1018    0.8080 N   0  0  0  0  0  0  0  0  0  0  0  0
   39.0054    2.6209    2.1172 C   0  0  0  0  0  0  0  0  0  0  0  0
   40.2163    2.0354    1.8128 C   0  0  0  0  0  0  0  0  0  0  0  0
   41.4660    2.4703    2.3556 C   0  0  0  0  0  0  0  0  0  0  0  0
   42.4271    1.7266    1.7571 C   0  0  0  0  0  0  0  0  0  0  0  0
   40.4067    1.0174    0.9076 N   0  0  0  0  0  0  0  0  0  0  0  0
   41.7618    0.8446    0.8489 C   0  0  0  0  0  0  0  0  0  0  0  0
   42.4352   -0.0256   -0.0131 C   0  0  0  0  0  0  0  0  0  0  0  0
   41.7589   -0.8974   -0.8710 C   0  0  0  0  0  0  0  0  0  0  0  0
   42.4214   -1.7862   -1.7748 C   0  0  0  0  0  0  0  0  0  0  0  0
   41.4581   -2.5336   -2.3654 C   0  0  0  0  0  0  0  0  0  0  0  0
   40.2099   -2.0928   -1.8240 C   0  0  0  0  0  0  0  0  0  0  0  0
   40.4034   -1.0691   -0.9259 N   0  0  0  0  0  0  0  0  0  0  0  0
   38.9970   -2.6747   -2.1272 C   0  0  0  0  0  0  0  0  0  0  0  0
   37.7853   -2.2463   -1.6270 C   0  0  0  0  0  0  0  0  0  0  0  0
   36.5349   -2.8671   -1.9380 C   0  0  0  0  0  0  0  0  0  0  0  0
   35.5739   -2.1206   -1.3426 C   0  0  0  0  0  0  0  0  0  0  0  0
   36.2401   -1.0451   -0.6754 C   0  0  0  0  0  0  0  0  0  0  0  0
   37.5954   -1.1423   -0.8291 N   0  0  0  0  0  0  0  0  0  0  0  0
   34.5159    2.2484    1.3155 H   0  0  0  0  0  0  0  0  0  0  0  0
   36.4406    3.7190    2.5191 H   0  0  0  0  0  0  0  0  0  0  0  0
   39.0065    3.4648    2.7975 H   0  0  0  0  0  0  0  0  0  0  0  0
   41.5742    3.2477    3.0951 H   0  0  0  0  0  0  0  0  0  0  0  0
   43.4941    1.7603    1.9055 H   0  0  0  0  0  0  0  0  0  0  0  0
   43.4880   -1.8221   -1.9252 H   0  0  0  0  0  0  0  0  0  0  0  0
   41.5640   -3.3168   -3.0991 H   0  0  0  0  0  0  0  0  0  0  0  0
   38.9957   -3.5223   -2.8029 H   0  0  0  0  0  0  0  0  0  0  0  0
   36.4261   -3.7561   -2.5386 H   0  0  0  0  0  0  0  0  0  0  0  0
   34.5066   -2.2707   -1.3462 H   0  0  0  0  0  0  0  0  0  0  0  0
   49.9055   -0.0362    0.0078 Ni  0  0  0  0  0  0  0  0  0  0  0  0
   46.4700   -0.0245   -0.0006 C   0  0  0  0  0  0  0  0  0  0  0  0
   47.1471    1.0937    0.4936 C   0  0  0  0  0  0  0  0  0  0  0  0
   46.4844    2.2622    0.9846 C   0  0  0  0  0  0  0  0  0  0  0  0
   47.4479    3.0908    1.4536 C   0  0  0  0  0  0  0  0  0  0  0  0
   48.6967    2.4271    1.2393 C   0  0  0  0  0  0  0  0  0  0  0  0
   48.5029    1.2101    0.6284 N   0  0  0  0  0  0  0  0  0  0  0  0
   49.9115    2.9371    1.6460 C   0  0  0  0  0  0  0  0  0  0  0  0
   51.1251    2.3215    1.4224 C   0  0  0  0  0  0  0  0  0  0  0  0
   52.3779    2.8620    1.8517 C   0  0  0  0  0  0  0  0  0  0  0  0
   53.3389    2.0300    1.3833 C   0  0  0  0  0  0  0  0  0  0  0  0
   51.3136    1.1572    0.7152 N   0  0  0  0  0  0  0  0  0  0  0  0
   52.6698    0.9869    0.6691 C   0  0  0  0  0  0  0  0  0  0  0  0
   53.3406   -0.0336   -0.0095 C   0  0  0  0  0  0  0  0  0  0  0  0
   52.6641   -1.0585   -0.6758 C   0  0  0  0  0  0  0  0  0  0  0  0
   53.3273   -2.1064   -1.3883 C   0  0  0  0  0  0  0  0  0  0  0  0
   52.3634   -2.9484   -1.8322 C   0  0  0  0  0  0  0  0  0  0  0  0
   51.1145   -2.4070   -1.3930 C   0  0  0  0  0  0  0  0  0  0  0  0
   51.3080   -1.2339   -0.7022 N   0  0  0  0  0  0  0  0  0  0  0  0
   49.8995   -3.0258   -1.6000 C   0  0  0  0  0  0  0  0  0  0  0  0
   48.6866   -2.5056   -1.2005 C   0  0  0  0  0  0  0  0  0  0  0  0
   47.4345   -3.1628   -1.4146 C   0  0  0  0  0  0  0  0  0  0  0  0
   46.4739   -2.3197   -0.9660 C   0  0  0  0  0  0  0  0  0  0  0  0
   47.1422   -1.1506   -0.4840 C   0  0  0  0  0  0  0  0  0  0  0  0
   48.4979   -1.2792   -0.6069 N   0  0  0  0  0  0  0  0  0  0  0  0
   45.4173    2.4130    0.9663 H   0  0  0  0  0  0  0  0  0  0  0  0
   47.3424    4.0636    1.9067 H   0  0  0  0  0  0  0  0  0  0  0  0
   49.9132    3.8853    2.1713 H   0  0  0  0  0  0  0  0  0  0  0  0
   52.4877    3.7642    2.4321 H   0  0  0  0  0  0  0  0  0  0  0  0
   54.4079    2.1016    1.5022 H   0  0  0  0  0  0  0  0  0  0  0  0
   54.3947   -2.1749   -1.5219 H   0  0  0  0  0  0  0  0  0  0  0  0
   52.4689   -3.8570   -2.4033 H   0  0  0  0  0  0  0  0  0  0  0  0
   49.8979   -3.9812   -2.1120 H   0  0  0  0  0  0  0  0  0  0  0  0
   47.3245   -4.1408   -1.8553 H   0  0  0  0  0  0  0  0  0  0  0  0
   45.4055   -2.4616   -0.9546 H   0  0  0  0  0  0  0  0  0  0  0  0
  2  3  4  0  0  0  0
  3  4  1  0  0  0  0
  4  5  2  0  0  0  0
  5  6  1  0  0  0  0
  1  7  1  0  0  0  0
  3  7  4  0  0  0  0
  6  7  4  0  0  0  0
  6  8  4  0  0  0  0
  8  9  4  0  0  0  0
  9 10  4  0  0  0  0
 10 11  2  0  0  0  0
  1 12  1  0  0  0  0
  9 12  4  0  0  0  0
 11 13  4  0  0  0  0
 12 13  4  0  0  0  0
 13 14  4  0  0  0  0
 14 15  4  0  0  0  0
 15 16  4  0  0  0  0
 16 17  2  0  0  0  0
 17 18  4  0  0  0  0
  1 19  1  0  0  0  0
 15 19  4  0  0  0  0
 18 19  4  0  0  0  0
 18 20  4  0  0  0  0
 20 21  4  0  0  0  0
 21 22  1  0  0  0  0
 22 23  2  0  0  0  0
  2 24  4  0  0  0  0
 23 24  1  0  0  0  0
  1 25  1  0  0  0  0
 21 25  4  0  0  0  0
 24 25  4  0  0  0  0
  2 26  1  0  0  0  0
  4 27  1  0  0  0  0
  5 28  1  0  0  0  0
  8 29  1  0  0  0  0
 10 30  1  0  0  0  0
 11 31  1  0  0  0  0
 16 32  1  0  0  0  0
 17 33  1  0  0  0  0
 20 34  1  0  0  0  0
 22 35  1  0  0  0  0
 23 36  1  0  0  0  0
 38 39  4  0  0  0  0
 39 40  1  0  0  0  0
 40 41  2  0  0  0  0
 41 42  1  0  0  0  0
 37 43  1  0  0  0  0
 39 43  4  0  0  0  0
 42 43  4  0  0  0  0
 42 44  4  0  0  0  0
 44 45  4  0  0  0  0
 45 46  4  0  0  0  0
 46 47  2  0  0  0  0
 37 48  1  0  0  0  0
 45 48  4  0  0  0  0
 47 49  4  0  0  0  0
 48 49  4  0  0  0  0
 49 50  4  0  0  0  0
 50 51  4  0  0  0  0
 51 52  4  0  0  0  0
 52 53  2  0  0  0  0
 53 54  4  0  0  0  0
 37 55  1  0  0  0  0
 51 55  4  0  0  0  0
 54 55  4  0  0  0  0
 54 56  4  0  0  0  0
 56 57  4  0  0  0  0
 57 58  1  0  0  0  0
 58 59  2  0  0  0  0
 38 60  4  0  0  0  0
 59 60  1  0  0  0  0
 37 61  1  0  0  0  0
 57 61  4  0  0  0  0
 60 61  4  0  0  0  0
 38 62  1  0  0  0  0
 40 63  1  0  0  0  0
 41 64  1  0  0  0  0
 44 65  1  0  0  0  0
 46 66  1  0  0  0  0
 47 67  1  0  0  0  0
 52 68  1  0  0  0  0
 53 69  1  0  0  0  0
 56 70  1  0  0  0  0
 58 71  1  0  0  0  0
 59 72  1  0  0  0  0
 14 73  4  0  0  0  0
 73 74  3  0  0  0  0
 75 76  3  0  0  0  0
 50 78  4  0  0  0  0
 77 78  3  0  0  0  0
 74 80  4  0  0  0  0
 80 81  4  0  0  0  0
 81 82  4  0  0  0  0
 82 83  2  0  0  0  0
 83 84  4  0  0  0  0
 79 85  1  0  0  0  0
 81 85  4  0  0  0  0
 84 85  4  0  0  0  0
 84 86  4  0  0  0  0
 86 87  4  0  0  0  0
 87 88  4  0  0  0  0
 88 89  2  0  0  0  0
 79 90  1  0  0  0  0
 87 90  4  0  0  0  0
 89 91  4  0  0  0  0
 90 91  4  0  0  0  0
 75 92  4  0  0  0  0
 91 92  4  0  0  0  0
 92 93  4  0  0  0  0
 93 94  4  0  0  0  0
 94 95  2  0  0  0  0
 95 96  4  0  0  0  0
 79 97  1  0  0  0  0
 93 97  4  0  0  0  0
 96 97  4  0  0  0  0
 96 98  4  0  0  0  0
 98 99  4  0  0  0  0
 99100  4  0  0  0  0
100101  2  0  0  0  0
 80102  4  0  0  0  0
101102  4  0  0  0  0
 79103  1  0  0  0  0
 99103  4  0  0  0  0
102103  4  0  0  0  0
 82104  1  0  0  0  0
 83105  1  0  0  0  0
 86106  1  0  0  0  0
 88107  1  0  0  0  0
 89108  1  0  0  0  0
 94109  1  0  0  0  0
 95110  1  0  0  0  0
 98111  1  0  0  0  0
100112  1  0  0  0  0
101113  1  0  0  0  0
 76115  4  0  0  0  0
115116  4  0  0  0  0
116117  4  0  0  0  0
117118  2  0  0  0  0
118119  4  0  0  0  0
114120  1  0  0  0  0
116120  4  0  0  0  0
119120  4  0  0  0  0
119121  4  0  0  0  0
121122  4  0  0  0  0
122123  4  0  0  0  0
123124  2  0  0  0  0
114125  1  0  0  0  0
122125  4  0  0  0  0
124126  4  0  0  0  0
125126  4  0  0  0  0
 77127  4  0  0  0  0
126127  4  0  0  0  0
127128  4  0  0  0  0
128129  4  0  0  0  0
129130  2  0  0  0  0
130131  4  0  0  0  0
114132  1  0  0  0  0
128132  4  0  0  0  0
131132  4  0  0  0  0
131133  4  0  0  0  0
133134  4  0  0  0  0
134135  4  0  0  0  0
135136  2  0  0  0  0
115137  4  0  0  0  0
136137  4  0  0  0  0
114138  1  0  0  0  0
134138  4  0  0  0  0
137138  4  0  0  0  0
117139  1  0  0  0  0
118140  1  0  0  0  0
121141  1  0  0  0  0
123142  1  0  0  0  0
124143  1  0  0  0  0
129144  1  0  0  0  0
130145  1  0  0  0  0
133146  1  0  0  0  0
135147  1  0  0  0  0
136148  1  0  0  0  0
M  END
