 xtb: 6.5.1 (b24c23e)
          07302203523D

189218  0     0  0            999 V2000
   22.7584    0.2532    0.1349 Ni  0  0  0  0  0  0  0  0  0  0  0  0
   19.3692    0.1408    0.0782 C   0  0  0  0  0  0  0  0  0  0  0  0
   20.0558   -1.0521    0.1719 C   0  0  0  0  0  0  0  0  0  0  0  0
   19.4165   -2.3272    0.2836 C   0  0  0  0  0  0  0  0  0  0  0  0
   20.3993   -3.2579    0.2555 C   0  0  0  0  0  0  0  0  0  0  0  0
   21.6380   -2.5509    0.1117 C   0  0  0  0  0  0  0  0  0  0  0  0
   21.4191   -1.1954    0.1027 N   0  0  0  0  0  0  0  0  0  0  0  0
   22.8709   -3.1690   -0.0545 C   0  0  0  0  0  0  0  0  0  0  0  0
   22.9289   -4.6479   -0.1367 C   0  0  0  0  0  0  0  0  0  0  0  0
   22.3066   -5.3253   -1.1129 C   0  0  0  0  0  0  0  0  0  0  0  0
   22.3437   -6.8286   -1.2043 C   0  0  0  0  0  0  0  0  0  0  0  0
   23.4160   -7.3838   -0.3741 N   0  0  0  0  0  0  0  0  0  0  0  0
   23.8821   -6.6957    0.7157 C   0  0  0  0  0  0  0  0  0  0  0  0
   23.7039   -5.3708    0.8617 C   0  0  0  0  0  0  0  0  0  0  0  0
   24.0576   -2.4535   -0.1472 C   0  0  0  0  0  0  0  0  0  0  0  0
   25.3342   -3.0596   -0.3735 C   0  0  0  0  0  0  0  0  0  0  0  0
   26.2555   -2.0683   -0.3108 C   0  0  0  0  0  0  0  0  0  0  0  0
   24.1931   -1.0924    0.0109 N   0  0  0  0  0  0  0  0  0  0  0  0
   25.5394   -0.8598   -0.0541 C   0  0  0  0  0  0  0  0  0  0  0  0
   26.1673    0.3670    0.1795 C   0  0  0  0  0  0  0  0  0  0  0  0
   25.4538    1.5490    0.3967 C   0  0  0  0  0  0  0  0  0  0  0  0
   26.0810    2.8013    0.6756 C   0  0  0  0  0  0  0  0  0  0  0  0
   25.0939    3.7282    0.7210 C   0  0  0  0  0  0  0  0  0  0  0  0
   23.8666    3.0395    0.4604 C   0  0  0  0  0  0  0  0  0  0  0  0
   24.0970    1.6915    0.2988 N   0  0  0  0  0  0  0  0  0  0  0  0
   22.6374    3.6740    0.3395 C   0  0  0  0  0  0  0  0  0  0  0  0
   22.5901    5.1526    0.4367 C   0  0  0  0  0  0  0  0  0  0  0  0
   21.8981    5.7726    1.4041 C   0  0  0  0  0  0  0  0  0  0  0  0
   21.8242    7.2736    1.5102 C   0  0  0  0  0  0  0  0  0  0  0  0
   22.8720    7.9138    0.7104 N   0  0  0  0  0  0  0  0  0  0  0  0
   23.4110    7.2728   -0.3746 C   0  0  0  0  0  0  0  0  0  0  0  0
   23.3337    5.9400   -0.5363 C   0  0  0  0  0  0  0  0  0  0  0  0
   21.4545    2.9763    0.1303 C   0  0  0  0  0  0  0  0  0  0  0  0
   20.1772    3.6010   -0.0523 C   0  0  0  0  0  0  0  0  0  0  0  0
   19.2599    2.6075   -0.1198 C   0  0  0  0  0  0  0  0  0  0  0  0
   19.9781    1.3768    0.0087 C   0  0  0  0  0  0  0  0  0  0  0  0
   21.3258    1.6094    0.1254 N   0  0  0  0  0  0  0  0  0  0  0  0
   18.2861    0.1049    0.0598 H   0  0  0  0  0  0  0  0  0  0  0  0
   18.3513   -2.4711    0.3727 H   0  0  0  0  0  0  0  0  0  0  0  0
   20.3072   -4.3294    0.3273 H   0  0  0  0  0  0  0  0  0  0  0  0
   21.7309   -4.8213   -1.8804 H   0  0  0  0  0  0  0  0  0  0  0  0
   22.5227   -7.1401   -2.2422 H   0  0  0  0  0  0  0  0  0  0  0  0
   21.3690   -7.2538   -0.8995 H   0  0  0  0  0  0  0  0  0  0  0  0
   23.3867   -8.3894   -0.2883 H   0  0  0  0  0  0  0  0  0  0  0  0
   24.4766   -7.2857    1.4059 H   0  0  0  0  0  0  0  0  0  0  0  0
   24.1225   -4.8346    1.7014 H   0  0  0  0  0  0  0  0  0  0  0  0
   25.4940   -4.1096   -0.5561 H   0  0  0  0  0  0  0  0  0  0  0  0
   27.3257   -2.1339   -0.4235 H   0  0  0  0  0  0  0  0  0  0  0  0
   27.1415    2.9373    0.8144 H   0  0  0  0  0  0  0  0  0  0  0  0
   25.1782    4.7855    0.9123 H   0  0  0  0  0  0  0  0  0  0  0  0
   21.3417    5.2199    2.1520 H   0  0  0  0  0  0  0  0  0  0  0  0
   21.9563    7.5861    2.5548 H   0  0  0  0  0  0  0  0  0  0  0  0
   20.8283    7.6302    1.1863 H   0  0  0  0  0  0  0  0  0  0  0  0
   22.7695    8.9153    0.6312 H   0  0  0  0  0  0  0  0  0  0  0  0
   23.9758    7.9118   -1.0459 H   0  0  0  0  0  0  0  0  0  0  0  0
   23.8087    5.4445   -1.3709 H   0  0  0  0  0  0  0  0  0  0  0  0
   20.0170    4.6646   -0.1218 H   0  0  0  0  0  0  0  0  0  0  0  0
   18.1913    2.6814   -0.2453 H   0  0  0  0  0  0  0  0  0  0  0  0
   59.8192    0.1575    0.1320 Ni  0  0  0  0  0  0  0  0  0  0  0  0
   63.2052    0.3210    0.1155 C   0  0  0  0  0  0  0  0  0  0  0  0
   62.5032    1.4582    0.4583 C   0  0  0  0  0  0  0  0  0  0  0  0
   63.1245    2.6876    0.8447 C   0  0  0  0  0  0  0  0  0  0  0  0
   62.1293    3.5910    1.0083 C   0  0  0  0  0  0  0  0  0  0  0  0
   60.9013    2.9167    0.7052 C   0  0  0  0  0  0  0  0  0  0  0  0
   61.1385    1.5965    0.4111 N   0  0  0  0  0  0  0  0  0  0  0  0
   59.6623    3.5429    0.6529 C   0  0  0  0  0  0  0  0  0  0  0  0
   59.5844    5.0055    0.8802 C   0  0  0  0  0  0  0  0  0  0  0  0
   60.2134    5.8786    0.0794 C   0  0  0  0  0  0  0  0  0  0  0  0
   60.1568    7.3674    0.3038 C   0  0  0  0  0  0  0  0  0  0  0  0
   59.0621    7.7257    1.2097 N   0  0  0  0  0  0  0  0  0  0  0  0
   58.5875    6.8199    2.1224 C   0  0  0  0  0  0  0  0  0  0  0  0
   58.7820    5.4958    1.9919 C   0  0  0  0  0  0  0  0  0  0  0  0
   58.4875    2.8495    0.3919 C   0  0  0  0  0  0  0  0  0  0  0  0
   57.2062    3.4750    0.2687 C   0  0  0  0  0  0  0  0  0  0  0  0
   56.2982    2.4816    0.1125 C   0  0  0  0  0  0  0  0  0  0  0  0
   58.3689    1.4834    0.2680 N   0  0  0  0  0  0  0  0  0  0  0  0
   57.0271    1.2537    0.1348 C   0  0  0  0  0  0  0  0  0  0  0  0
   56.4137   -0.0025    0.1211 C   0  0  0  0  0  0  0  0  0  0  0  0
   57.1410   -1.1957    0.1155 C   0  0  0  0  0  0  0  0  0  0  0  0
   56.5297   -2.4859    0.1429 C   0  0  0  0  0  0  0  0  0  0  0  0
   57.5285   -3.3915    0.0078 C   0  0  0  0  0  0  0  0  0  0  0  0
   58.7470   -2.6500   -0.1107 C   0  0  0  0  0  0  0  0  0  0  0  0
   58.4997   -1.2998   -0.0032 N   0  0  0  0  0  0  0  0  0  0  0  0
   59.9835   -3.2316   -0.3590 C   0  0  0  0  0  0  0  0  0  0  0  0
   60.0486   -4.6978   -0.5673 C   0  0  0  0  0  0  0  0  0  0  0  0
   60.7570   -5.4948    0.2463 C   0  0  0  0  0  0  0  0  0  0  0  0
   60.8495   -6.9843    0.0397 C   0  0  0  0  0  0  0  0  0  0  0  0
   59.8012   -7.4598   -0.8672 N   0  0  0  0  0  0  0  0  0  0  0  0
   59.2437   -6.6162   -1.7923 C   0  0  0  0  0  0  0  0  0  0  0  0
   59.3044   -5.2778   -1.6762 C   0  0  0  0  0  0  0  0  0  0  0  0
   61.1566   -2.4902   -0.4239 C   0  0  0  0  0  0  0  0  0  0  0  0
   62.4412   -3.0466   -0.7326 C   0  0  0  0  0  0  0  0  0  0  0  0
   63.3455   -2.0484   -0.5947 C   0  0  0  0  0  0  0  0  0  0  0  0
   62.6123   -0.8804   -0.2139 C   0  0  0  0  0  0  0  0  0  0  0  0
   61.2679   -1.1499   -0.1479 N   0  0  0  0  0  0  0  0  0  0  0  0
   64.2878    0.3736    0.1081 H   0  0  0  0  0  0  0  0  0  0  0  0
   64.1871    2.8221    0.9712 H   0  0  0  0  0  0  0  0  0  0  0  0
   62.2066    4.6234    1.3083 H   0  0  0  0  0  0  0  0  0  0  0  0
   60.8090    5.5525   -0.7652 H   0  0  0  0  0  0  0  0  0  0  0  0
   59.9922    7.8876   -0.6494 H   0  0  0  0  0  0  0  0  0  0  0  0
   61.1199    7.7288    0.7108 H   0  0  0  0  0  0  0  0  0  0  0  0
   59.0770    8.6911    1.5054 H   0  0  0  0  0  0  0  0  0  0  0  0
   57.9730    7.2463    2.9089 H   0  0  0  0  0  0  0  0  0  0  0  0
   58.3566    4.7916    2.6927 H   0  0  0  0  0  0  0  0  0  0  0  0
   57.0343    4.5385    0.2992 H   0  0  0  0  0  0  0  0  0  0  0  0
   55.2292    2.5575   -0.0046 H   0  0  0  0  0  0  0  0  0  0  0  0
   55.4709   -2.6591    0.2496 H   0  0  0  0  0  0  0  0  0  0  0  0
   57.4575   -4.4668   -0.0122 H   0  0  0  0  0  0  0  0  0  0  0  0
   61.3142   -5.1011    1.0884 H   0  0  0  0  0  0  0  0  0  0  0  0
   60.7318   -7.5076    0.9982 H   0  0  0  0  0  0  0  0  0  0  0  0
   61.8462   -7.2529   -0.3584 H   0  0  0  0  0  0  0  0  0  0  0  0
   59.9130   -8.4224   -1.1508 H   0  0  0  0  0  0  0  0  0  0  0  0
   58.6792   -7.1104   -2.5766 H   0  0  0  0  0  0  0  0  0  0  0  0
   58.8153   -4.6273   -2.3872 H   0  0  0  0  0  0  0  0  0  0  0  0
   62.6151   -4.0708   -1.0198 H   0  0  0  0  0  0  0  0  0  0  0  0
   64.4146   -2.0808   -0.7334 H   0  0  0  0  0  0  0  0  0  0  0  0
   27.5712    0.4106    0.2009 C   0  0  0  0  0  0  0  0  0  0  0  0
   28.7948    0.4373    0.2232 C   0  0  0  0  0  0  0  0  0  0  0  0
   30.1375    0.4669    0.2515 C   0  0  0  0  0  0  0  0  0  0  0  0
   31.3673    0.4897    0.2806 C   0  0  0  0  0  0  0  0  0  0  0  0
   32.7051    0.5160    0.3165 C   0  0  0  0  0  0  0  0  0  0  0  0
   33.9346    0.5392    0.3557 C   0  0  0  0  0  0  0  0  0  0  0  0
   35.2763    0.5743    0.4073 C   0  0  0  0  0  0  0  0  0  0  0  0
   36.4989    0.6118    0.4597 C   0  0  0  0  0  0  0  0  0  0  0  0
   46.0929    0.2416    0.3818 C   0  0  0  0  0  0  0  0  0  0  0  0
   47.3103    0.1281    0.3181 C   0  0  0  0  0  0  0  0  0  0  0  0
   48.6485    0.0308    0.2591 C   0  0  0  0  0  0  0  0  0  0  0  0
   49.8762   -0.0347    0.2133 C   0  0  0  0  0  0  0  0  0  0  0  0
   51.2134   -0.0788    0.1746 C   0  0  0  0  0  0  0  0  0  0  0  0
   52.4432   -0.0963    0.1480 C   0  0  0  0  0  0  0  0  0  0  0  0
   53.7864   -0.0868    0.1303 C   0  0  0  0  0  0  0  0  0  0  0  0
   55.0102   -0.0615    0.1224 C   0  0  0  0  0  0  0  0  0  0  0  0
   41.3071    0.6906    0.6124 Ni  0  0  0  0  0  0  0  0  0  0  0  0
   37.9005    0.6574    0.5241 C   0  0  0  0  0  0  0  0  0  0  0  0
   38.5837    1.5473   -0.3123 C   0  0  0  0  0  0  0  0  0  0  0  0
   37.9294    2.4990   -1.1511 C   0  0  0  0  0  0  0  0  0  0  0  0
   38.9028    3.1495   -1.8347 C   0  0  0  0  0  0  0  0  0  0  0  0
   40.1473    2.5658   -1.4372 C   0  0  0  0  0  0  0  0  0  0  0  0
   39.9401    1.6135   -0.4633 N   0  0  0  0  0  0  0  0  0  0  0  0
   41.3658    2.8425   -2.0417 C   0  0  0  0  0  0  0  0  0  0  0  0
   41.4157    3.8114   -3.1619 C   0  0  0  0  0  0  0  0  0  0  0  0
   40.7400    3.6104   -4.3033 C   0  0  0  0  0  0  0  0  0  0  0  0
   40.8284    4.5585   -5.4700 C   0  0  0  0  0  0  0  0  0  0  0  0
   41.3738    5.8545   -5.0580 N   0  0  0  0  0  0  0  0  0  0  0  0
   42.1898    5.9523   -3.9614 C   0  0  0  0  0  0  0  0  0  0  0  0
   42.2300    5.0075   -3.0053 C   0  0  0  0  0  0  0  0  0  0  0  0
   42.5466    2.2128   -1.6674 C   0  0  0  0  0  0  0  0  0  0  0  0
   43.7816    2.3510   -2.3758 C   0  0  0  0  0  0  0  0  0  0  0  0
   44.7050    1.6244   -1.6997 C   0  0  0  0  0  0  0  0  0  0  0  0
   42.7072    1.3883   -0.5782 N   0  0  0  0  0  0  0  0  0  0  0  0
   44.0348    1.0588   -0.5727 C   0  0  0  0  0  0  0  0  0  0  0  0
   44.6990    0.3891    0.4596 C   0  0  0  0  0  0  0  0  0  0  0  0
   44.0351   -0.0743    1.6007 C   0  0  0  0  0  0  0  0  0  0  0  0
   44.7102   -0.5961    2.7449 C   0  0  0  0  0  0  0  0  0  0  0  0
   43.7502   -0.9679    3.6271 C   0  0  0  0  0  0  0  0  0  0  0  0
   42.4900   -0.7071    3.0014 C   0  0  0  0  0  0  0  0  0  0  0  0
   42.6800   -0.1112    1.7739 N   0  0  0  0  0  0  0  0  0  0  0  0
   41.2649   -1.1111    3.5158 C   0  0  0  0  0  0  0  0  0  0  0  0
   41.2260   -1.8533    4.7978 C   0  0  0  0  0  0  0  0  0  0  0  0
   41.8494   -3.0306    4.9547 C   0  0  0  0  0  0  0  0  0  0  0  0
   41.8245   -3.7915    6.2546 C   0  0  0  0  0  0  0  0  0  0  0  0
   40.7587   -3.3036    7.1340 N   0  0  0  0  0  0  0  0  0  0  0  0
   40.2884   -2.0218    7.0160 C   0  0  0  0  0  0  0  0  0  0  0  0
   40.4570   -1.2918    5.8993 C   0  0  0  0  0  0  0  0  0  0  0  0
   40.0651   -0.8869    2.8511 C   0  0  0  0  0  0  0  0  0  0  0  0
   38.8102   -1.4338    3.2669 C   0  0  0  0  0  0  0  0  0  0  0  0
   37.8758   -0.9784    2.3972 C   0  0  0  0  0  0  0  0  0  0  0  0
   38.5593   -0.1403    1.4644 C   0  0  0  0  0  0  0  0  0  0  0  0
   39.9029   -0.1182    1.7218 N   0  0  0  0  0  0  0  0  0  0  0  0
   36.8624    2.6485   -1.1914 H   0  0  0  0  0  0  0  0  0  0  0  0
   38.7968    3.9482   -2.5504 H   0  0  0  0  0  0  0  0  0  0  0  0
   40.1544    2.7138   -4.4698 H   0  0  0  0  0  0  0  0  0  0  0  0
   41.4525    4.1208   -6.2718 H   0  0  0  0  0  0  0  0  0  0  0  0
   39.8298    4.7297   -5.8941 H   0  0  0  0  0  0  0  0  0  0  0  0
   41.5845    6.4725   -5.8283 H   0  0  0  0  0  0  0  0  0  0  0  0
   42.7350    6.8874   -3.8829 H   0  0  0  0  0  0  0  0  0  0  0  0
   42.8233    5.1349   -2.1110 H   0  0  0  0  0  0  0  0  0  0  0  0
   43.9119    2.9239   -3.2796 H   0  0  0  0  0  0  0  0  0  0  0  0
   45.7509    1.4876   -1.9227 H   0  0  0  0  0  0  0  0  0  0  0  0
   45.7816   -0.6515    2.8516 H   0  0  0  0  0  0  0  0  0  0  0  0
   43.8763   -1.3860    4.6123 H   0  0  0  0  0  0  0  0  0  0  0  0
   42.4149   -3.4893    4.1521 H   0  0  0  0  0  0  0  0  0  0  0  0
   42.8034   -3.7100    6.7634 H   0  0  0  0  0  0  0  0  0  0  0  0
   41.6458   -4.8585    6.0648 H   0  0  0  0  0  0  0  0  0  0  0  0
   40.7971   -3.6810    8.0697 H   0  0  0  0  0  0  0  0  0  0  0  0
   39.6985   -1.6746    7.8583 H   0  0  0  0  0  0  0  0  0  0  0  0
   40.0332   -0.3023    5.8025 H   0  0  0  0  0  0  0  0  0  0  0  0
   38.6740   -2.0889    4.1120 H   0  0  0  0  0  0  0  0  0  0  0  0
   36.8149   -1.1699    2.3856 H   0  0  0  0  0  0  0  0  0  0  0  0
  2  3  4  0  0  0  0
  3  4  4  0  0  0  0
  4  5  2  0  0  0  0
  5  6  4  0  0  0  0
  1  7  1  0  0  0  0
  3  7  4  0  0  0  0
  6  7  4  0  0  0  0
  6  8  4  0  0  0  0
  8  9  1  0  0  0  0
  9 10  2  0  0  0  0
 10 11  1  0  0  0  0
 11 12  1  0  0  0  0
 12 13  1  0  0  0  0
  9 14  1  0  0  0  0
 13 14  2  0  0  0  0
  8 15  4  0  0  0  0
 15 16  4  0  0  0  0
 16 17  2  0  0  0  0
  1 18  1  0  0  0  0
 15 18  4  0  0  0  0
 17 19  4  0  0  0  0
 18 19  4  0  0  0  0
 19 20  4  0  0  0  0
 20 21  4  0  0  0  0
 21 22  4  0  0  0  0
 22 23  2  0  0  0  0
 23 24  4  0  0  0  0
  1 25  1  0  0  0  0
 21 25  4  0  0  0  0
 24 25  4  0  0  0  0
 24 26  4  0  0  0  0
 26 27  1  0  0  0  0
 27 28  2  0  0  0  0
 28 29  1  0  0  0  0
 29 30  1  0  0  0  0
 30 31  1  0  0  0  0
 27 32  1  0  0  0  0
 31 32  2  0  0  0  0
 26 33  4  0  0  0  0
 33 34  4  0  0  0  0
 34 35  2  0  0  0  0
  2 36  4  0  0  0  0
 35 36  4  0  0  0  0
  1 37  1  0  0  0  0
 33 37  4  0  0  0  0
 36 37  4  0  0  0  0
  2 38  1  0  0  0  0
  4 39  1  0  0  0  0
  5 40  1  0  0  0  0
 10 41  1  0  0  0  0
 11 42  1  0  0  0  0
 11 43  1  0  0  0  0
 12 44  1  0  0  0  0
 13 45  1  0  0  0  0
 14 46  1  0  0  0  0
 16 47  1  0  0  0  0
 17 48  1  0  0  0  0
 22 49  1  0  0  0  0
 23 50  1  0  0  0  0
 28 51  1  0  0  0  0
 29 52  1  0  0  0  0
 29 53  1  0  0  0  0
 30 54  1  0  0  0  0
 31 55  1  0  0  0  0
 32 56  1  0  0  0  0
 34 57  1  0  0  0  0
 35 58  1  0  0  0  0
 60 61  4  0  0  0  0
 61 62  4  0  0  0  0
 62 63  2  0  0  0  0
 63 64  4  0  0  0  0
 59 65  1  0  0  0  0
 61 65  4  0  0  0  0
 64 65  4  0  0  0  0
 64 66  4  0  0  0  0
 66 67  1  0  0  0  0
 67 68  2  0  0  0  0
 68 69  1  0  0  0  0
 69 70  1  0  0  0  0
 70 71  1  0  0  0  0
 67 72  1  0  0  0  0
 71 72  2  0  0  0  0
 66 73  4  0  0  0  0
 73 74  4  0  0  0  0
 74 75  2  0  0  0  0
 59 76  1  0  0  0  0
 73 76  4  0  0  0  0
 75 77  4  0  0  0  0
 76 77  4  0  0  0  0
 77 78  4  0  0  0  0
 78 79  4  0  0  0  0
 79 80  4  0  0  0  0
 80 81  2  0  0  0  0
 81 82  4  0  0  0  0
 59 83  1  0  0  0  0
 79 83  4  0  0  0  0
 82 83  4  0  0  0  0
 82 84  4  0  0  0  0
 84 85  1  0  0  0  0
 85 86  2  0  0  0  0
 86 87  1  0  0  0  0
 87 88  1  0  0  0  0
 88 89  1  0  0  0  0
 85 90  1  0  0  0  0
 89 90  2  0  0  0  0
 84 91  4  0  0  0  0
 91 92  4  0  0  0  0
 92 93  2  0  0  0  0
 60 94  4  0  0  0  0
 93 94  4  0  0  0  0
 59 95  1  0  0  0  0
 91 95  4  0  0  0  0
 94 95  4  0  0  0  0
 60 96  1  0  0  0  0
 62 97  1  0  0  0  0
 63 98  1  0  0  0  0
 68 99  1  0  0  0  0
 69100  1  0  0  0  0
 69101  1  0  0  0  0
 70102  1  0  0  0  0
 71103  1  0  0  0  0
 72104  1  0  0  0  0
 74105  1  0  0  0  0
 75106  1  0  0  0  0
 80107  1  0  0  0  0
 81108  1  0  0  0  0
 86109  1  0  0  0  0
 87110  1  0  0  0  0
 87111  1  0  0  0  0
 88112  1  0  0  0  0
 89113  1  0  0  0  0
 90114  1  0  0  0  0
 92115  1  0  0  0  0
 93116  1  0  0  0  0
 20117  4  0  0  0  0
117118  3  0  0  0  0
118119  4  0  0  0  0
119120  3  0  0  0  0
120121  4  0  0  0  0
121122  3  0  0  0  0
122123  4  0  0  0  0
123124  3  0  0  0  0
125126  3  0  0  0  0
126127  4  0  0  0  0
127128  3  0  0  0  0
128129  4  0  0  0  0
129130  3  0  0  0  0
130131  4  0  0  0  0
 78132  4  0  0  0  0
131132  3  0  0  0  0
124134  4  0  0  0  0
134135  4  0  0  0  0
135136  4  0  0  0  0
136137  2  0  0  0  0
137138  4  0  0  0  0
133139  1  0  0  0  0
135139  4  0  0  0  0
138139  4  0  0  0  0
138140  4  0  0  0  0
140141  1  0  0  0  0
141142  2  0  0  0  0
142143  1  0  0  0  0
143144  1  0  0  0  0
144145  1  0  0  0  0
141146  1  0  0  0  0
145146  2  0  0  0  0
140147  4  0  0  0  0
147148  4  0  0  0  0
148149  2  0  0  0  0
133150  1  0  0  0  0
147150  4  0  0  0  0
149151  4  0  0  0  0
150151  4  0  0  0  0
125152  4  0  0  0  0
151152  4  0  0  0  0
152153  4  0  0  0  0
153154  4  0  0  0  0
154155  2  0  0  0  0
155156  4  0  0  0  0
133157  1  0  0  0  0
153157  4  0  0  0  0
156157  4  0  0  0  0
156158  4  0  0  0  0
158159  1  0  0  0  0
159160  2  0  0  0  0
160161  1  0  0  0  0
161162  1  0  0  0  0
162163  1  0  0  0  0
159164  1  0  0  0  0
163164  2  0  0  0  0
158165  4  0  0  0  0
165166  4  0  0  0  0
166167  2  0  0  0  0
134168  4  0  0  0  0
167168  4  0  0  0  0
133169  1  0  0  0  0
165169  4  0  0  0  0
168169  4  0  0  0  0
136170  1  0  0  0  0
137171  1  0  0  0  0
142172  1  0  0  0  0
143173  1  0  0  0  0
143174  1  0  0  0  0
144175  1  0  0  0  0
145176  1  0  0  0  0
146177  1  0  0  0  0
148178  1  0  0  0  0
149179  1  0  0  0  0
154180  1  0  0  0  0
155181  1  0  0  0  0
160182  1  0  0  0  0
161183  1  0  0  0  0
161184  1  0  0  0  0
162185  1  0  0  0  0
163186  1  0  0  0  0
164187  1  0  0  0  0
166188  1  0  0  0  0
167189  1  0  0  0  0
M  END
