200

C 25.031543 -0.179343 -0.362715
C 25.743335 1.171988 -0.670632
C 25.107962 2.363791 -0.935425
C 26.118819 3.335729 -1.143838
C 27.340476 2.703445 -1.001074
N 27.098655 1.385176 -0.703614
C 28.768616 3.381847 -1.126170
C 28.805701 4.800545 -1.557428
C 28.963073 5.834655 -0.626217
C 28.954078 7.165399 -1.056018
C 29.142719 8.239068 -0.053249
O 28.732429 9.444037 -0.503100
O 29.604972 8.131094 1.066288
C 28.787556 7.463228 -2.417481
C 28.636626 6.433269 -3.346775
C 28.646020 5.106919 -2.916582
C 29.902547 2.679146 -0.862668
C 31.211272 3.298956 -0.915465
C 32.117221 2.392908 -0.567278
N 30.102450 1.369091 -0.510950
C 31.440402 1.135199 -0.315918
C 32.122454 0.009926 0.028577
C 31.373961 -1.382319 0.202239
C 31.980430 -2.624134 0.223985
C 30.965283 -3.595391 0.394537
C 29.761775 -2.925193 0.459076
N 30.017387 -1.578039 0.325643
C 28.336183 -3.599230 0.631196
C 28.287440 -5.023425 1.031641
C 28.303414 -6.030246 0.056918
C 28.268703 -7.374612 0.427146
C 28.212029 -7.718801 1.778427
C 28.193745 -6.717569 2.761899
C 28.123912 -7.133269 4.182015
O 28.304330 -6.113112 5.039269
O 27.943266 -8.270493 4.584229
C 28.234496 -5.370849 2.387313
C 27.206022 -2.879548 0.412280
C 25.877880 -3.457589 0.529287
C 24.986536 -2.514023 0.246252
C 25.708015 -1.300606 -0.051810
N 27.037023 -1.569708 0.060340
H 23.947923 -0.199418 -0.395493
H 24.039696 2.517734 -0.969850
H 25.971236 4.380808 -1.370206
H 27.811692 0.678808 -0.539173
H 29.088480 5.584781 0.425666
H 28.907592 10.020163 0.268644
H 28.784176 8.493547 -2.761249
H 28.513180 6.654820 -4.402516
H 28.527303 4.293075 -3.631582
H 31.429164 4.319685 -1.172397
H 33.174483 2.578501 -0.514535
H 33.038263 -2.818775 0.126521
H 31.100476 -4.665480 0.452684
H 29.304169 -0.853901 0.272066
H 28.342500 -5.746452 -0.993094
H 28.285379 -8.145671 -0.338307
H 28.182205 -8.767344 2.064872
H 28.232571 -6.511822 5.927344
H 28.217742 -4.574134 3.129550
H 25.648019 -4.474283 0.794484
H 23.917903 -2.627195 0.242798
C 66.288987 0.022431 -0.405906
C 65.577194 -1.336536 -0.133658
C 66.212567 -2.532300 0.112630
C 65.201710 -3.504386 0.320353
C 63.980054 -2.869065 0.191775
N 64.221874 -1.544544 -0.076480
C 62.551913 -3.539230 0.355352
C 62.514828 -5.010151 0.542644
C 62.357456 -5.572442 1.815581
C 62.366452 -6.962520 1.968197
C 62.177810 -7.531611 3.322614
O 62.588101 -8.815143 3.405451
O 61.715558 -6.974803 4.299849
C 62.532973 -7.791582 0.847956
C 62.683903 -7.232293 -0.421532
C 62.674509 -5.846063 -0.571992
C 61.417982 -2.790237 0.308105
C 60.109258 -3.377347 0.513661
C 59.203308 -2.408161 0.460436
N 61.218079 -1.451000 0.092717
C 59.880127 -1.157764 0.174912
C 59.198075 0.009926 0.028577
C 59.946569 1.351263 -0.382910
C 59.340100 2.493162 -0.871421
C 60.355246 3.449128 -1.113409
C 61.558754 2.864078 -0.780172
N 61.303143 1.580349 -0.350440
C 62.984347 3.549509 -0.899059
C 63.033089 5.012833 -1.116715
C 63.017115 5.532414 -2.418179
C 63.051826 6.910534 -2.630724
C 63.108500 7.777724 -1.538751
C 63.126784 7.266823 -0.231593
C 63.196617 8.227437 0.893910
O 63.016199 7.647601 2.093657
O 63.377264 9.429659 0.795343
C 63.086033 5.884772 -0.022060
C 64.114507 2.803276 -0.804182
C 65.442649 3.378562 -0.934056
C 66.333994 2.401816 -0.806030
C 65.612514 1.172712 -0.581247
N 64.283507 1.464144 -0.589085
H 67.372607 0.027329 -0.444030
H 67.280834 -2.686845 0.144240
H 65.349293 -4.550553 0.541636
H 63.508837 -0.832758 -0.215608
H 62.232049 -4.913864 2.673001
H 62.412937 -9.024862 4.345412
H 62.536353 -8.872342 0.956084
H 62.807349 -7.866609 -1.294066
H 62.793226 -5.396228 -1.557495
H 59.891365 -4.413811 0.697090
H 58.146047 -2.555899 0.584532
H 58.282266 2.630849 -1.040023
H 60.220053 4.449250 -1.498410
H 62.016361 0.897733 -0.102888
H 62.978029 4.843654 -3.260006
H 63.035150 7.300679 -3.644745
H 63.138324 8.851646 -1.706640
H 63.087959 8.374917 2.740697
H 63.102787 5.461715 0.981281
H 65.672510 4.414728 -1.108293
H 67.402626 2.503656 -0.855510
C 38.307577 0.011029 0.037067
C 37.098637 -0.002426 0.028620
C 35.677109 0.006393 0.016637
C 34.465439 0.013832 0.027500
C 39.724181 0.004354 0.037601
C 40.944877 0.013832 0.027500
C 54.220640 0.011029 0.037067
C 53.011701 -0.002426 0.028620
C 51.590172 0.006393 0.016637
C 50.378502 0.013832 0.027500
C 55.637245 0.004354 0.037601
C 56.857940 0.013832 0.027500
C 42.009651 -0.022850 -0.063399
C 42.805399 1.343680 -0.160846
C 42.304919 2.563187 -0.569565
C 43.343741 3.518096 -0.422328
C 44.446987 2.850162 0.065893
N 44.132412 1.516912 0.146773
C 45.833037 3.495400 0.473391
C 45.814681 4.886616 0.977811
C 46.193695 5.954473 0.154280
C 46.161053 7.263481 0.646670
C 46.566419 8.370172 -0.253032
O 46.538224 9.575075 0.353028
O 46.900168 8.286703 -1.420244
C 45.746316 7.503484 1.965609
C 45.365662 6.440885 2.786136
C 45.399085 5.137803 2.291797
C 46.970427 2.753925 0.428225
C 48.255691 3.278838 0.841079
C 49.165060 2.321062 0.695533
N 47.181266 1.458706 0.045246
C 48.504672 1.136705 0.184659
C 49.168105 -0.022850 -0.063399
C 48.372869 -1.280870 -0.606869
C 48.875898 -2.298828 -1.391220
C 47.838024 -3.249602 -1.567478
C 46.732088 -2.779003 -0.890898
N 47.045540 -1.546362 -0.375268
C 45.343584 -3.521372 -0.727219
C 45.351688 -5.001189 -0.772906
C 44.915577 -5.673516 -1.923017
C 44.935290 -7.066712 -1.978281
C 45.396056 -7.796247 -0.881623
C 45.837895 -7.133357 0.273133
C 46.319327 -7.955309 1.408724
O 46.710150 -7.222341 2.464815
O 46.375690 -9.173255 1.434773
C 45.816279 -5.735508 0.325085
C 44.207877 -2.806358 -0.514706
C 42.920769 -3.437746 -0.306978
C 42.011956 -2.485762 -0.124655
C 42.673965 -1.199494 -0.206852
N 43.999273 -1.457787 -0.433897
H 41.299666 2.751646 -0.914739
H 43.286694 4.575953 -0.629752
H 44.789959 0.771586 0.356873
H 46.514741 5.746225 -0.864957
H 46.830595 10.171502 -0.366381
H 45.715256 8.513958 2.362165
H 45.043137 6.619997 3.807134
H 45.104883 4.300590 2.922525
H 48.451217 4.270025 1.208782
H 50.209610 2.425496 0.925902
H 49.882429 -2.363339 -1.775898
H 47.897311 -4.181059 -2.109982
H 46.386988 -0.912071 0.067511
H 44.557317 -5.091384 -2.770456
H 44.591572 -7.575149 -2.873665
H 45.410236 -8.882102 -0.928151
H 47.001707 -7.875831 3.128833
H 46.154775 -5.196698 1.207621
H 42.724380 -4.494761 -0.291879
H 40.966860 -2.660303 0.055148
