 xtb: 6.5.1 (b24c23e)
          07302209183D

140159  0     0  0            999 V2000
   15.0269    0.0313    0.0025 Zn  0  0  0  0  0  0  0  0  0  0  0  0
   11.6193    0.0812   -0.0518 C   0  0  0  0  0  0  0  0  0  0  0  0
   12.2382    1.0163    0.7697 C   0  0  0  0  0  0  0  0  0  0  0  0
   11.5533    1.9564    1.6112 C   0  0  0  0  0  0  0  0  0  0  0  0
   12.5043    2.6856    2.2480 C   0  0  0  0  0  0  0  0  0  0  0  0
   13.7828    2.2085    1.7927 C   0  0  0  0  0  0  0  0  0  0  0  0
   13.5858    1.1898    0.9065 N   0  0  0  0  0  0  0  0  0  0  0  0
   15.0287    2.6988    2.2067 C   0  0  0  0  0  0  0  0  0  0  0  0
   15.0356    3.8403    3.1529 C   0  0  0  0  0  0  0  0  0  0  0  0
   14.4458    5.0598    2.8094 C   0  0  0  0  0  0  0  0  0  0  0  0
   14.4704    6.1291    3.6851 C   0  0  0  0  0  0  0  0  0  0  0  0
   15.0782    6.0072    4.9406 C   0  0  0  0  0  0  0  0  0  0  0  0
   15.1284    7.1247    5.7617 N   0  0  0  0  0  0  0  0  0  0  0  0
   15.3002    6.9564    7.1984 C   0  0  0  0  0  0  0  0  0  0  0  0
   15.6696    4.7898    5.2897 C   0  0  0  0  0  0  0  0  0  0  0  0
   15.6458    3.7263    4.4034 C   0  0  0  0  0  0  0  0  0  0  0  0
   16.2719    2.2026    1.7975 C   0  0  0  0  0  0  0  0  0  0  0  0
   17.5469    2.7509    2.1693 C   0  0  0  0  0  0  0  0  0  0  0  0
   18.5000    1.9950    1.5665 C   0  0  0  0  0  0  0  0  0  0  0  0
   16.4754    1.1359    0.9622 N   0  0  0  0  0  0  0  0  0  0  0  0
   17.8183    0.9851    0.8126 C   0  0  0  0  0  0  0  0  0  0  0  0
   18.4585   -0.0083    0.0441 C   0  0  0  0  0  0  0  0  0  0  0  0
   17.8143   -0.9907   -0.7354 C   0  0  0  0  0  0  0  0  0  0  0  0
   18.4906   -2.0209   -1.4664 C   0  0  0  0  0  0  0  0  0  0  0  0
   17.5350   -2.7598   -2.0862 C   0  0  0  0  0  0  0  0  0  0  0  0
   16.2645   -2.1793   -1.7498 C   0  0  0  0  0  0  0  0  0  0  0  0
   16.4724   -1.1120   -0.9162 N   0  0  0  0  0  0  0  0  0  0  0  0
   15.0205   -2.6461   -2.1899 C   0  0  0  0  0  0  0  0  0  0  0  0
   15.0227   -3.7966   -3.1251 C   0  0  0  0  0  0  0  0  0  0  0  0
   15.6715   -3.7132   -4.3584 C   0  0  0  0  0  0  0  0  0  0  0  0
   15.6913   -4.7867   -5.2327 C   0  0  0  0  0  0  0  0  0  0  0  0
   15.0566   -5.9835   -4.8885 C   0  0  0  0  0  0  0  0  0  0  0  0
   15.0999   -7.1114   -5.6957 N   0  0  0  0  0  0  0  0  0  0  0  0
   15.3220   -6.9654   -7.1279 C   0  0  0  0  0  0  0  0  0  0  0  0
   14.4091   -6.0745   -3.6504 C   0  0  0  0  0  0  0  0  0  0  0  0
   14.3889   -4.9954   -2.7868 C   0  0  0  0  0  0  0  0  0  0  0  0
   13.7771   -2.1177   -1.8173 C   0  0  0  0  0  0  0  0  0  0  0  0
   12.5005   -2.5592   -2.3119 C   0  0  0  0  0  0  0  0  0  0  0  0
   11.5515   -1.7974   -1.7112 C   0  0  0  0  0  0  0  0  0  0  0  0
   12.2364   -0.8740   -0.8513 C   0  0  0  0  0  0  0  0  0  0  0  0
   13.5820   -1.0885   -0.9430 N   0  0  0  0  0  0  0  0  0  0  0  0
   10.5337    0.0977   -0.0700 H   0  0  0  0  0  0  0  0  0  0  0  0
   10.4811    2.0335    1.7036 H   0  0  0  0  0  0  0  0  0  0  0  0
   12.3568    3.4699    2.9733 H   0  0  0  0  0  0  0  0  0  0  0  0
   13.9837    5.1744    1.8348 H   0  0  0  0  0  0  0  0  0  0  0  0
   14.0205    7.0743    3.4001 H   0  0  0  0  0  0  0  0  0  0  0  0
   14.4152    7.8077    5.5363 H   0  0  0  0  0  0  0  0  0  0  0  0
   16.3046    6.5900    7.4143 H   0  0  0  0  0  0  0  0  0  0  0  0
   14.5645    6.2582    7.6140 H   0  0  0  0  0  0  0  0  0  0  0  0
   15.1768    7.9320    7.6687 H   0  0  0  0  0  0  0  0  0  0  0  0
   16.1527    4.6660    6.2512 H   0  0  0  0  0  0  0  0  0  0  0  0
   16.0944    2.7820    4.6927 H   0  0  0  0  0  0  0  0  0  0  0  0
   17.6939    3.6143    2.7980 H   0  0  0  0  0  0  0  0  0  0  0  0
   19.5711    2.1109    1.6163 H   0  0  0  0  0  0  0  0  0  0  0  0
   19.5596   -2.1615   -1.4897 H   0  0  0  0  0  0  0  0  0  0  0  0
   17.6773   -3.6313   -2.7046 H   0  0  0  0  0  0  0  0  0  0  0  0
   16.1541   -2.7848   -4.6443 H   0  0  0  0  0  0  0  0  0  0  0  0
   16.2051   -4.6866   -6.1809 H   0  0  0  0  0  0  0  0  0  0  0  0
   14.3604   -7.7709   -5.4858 H   0  0  0  0  0  0  0  0  0  0  0  0
   14.6159   -6.2569   -7.5760 H   0  0  0  0  0  0  0  0  0  0  0  0
   15.1926   -7.9442   -7.5900 H   0  0  0  0  0  0  0  0  0  0  0  0
   16.3408   -6.6237   -7.3149 H   0  0  0  0  0  0  0  0  0  0  0  0
   13.9247   -7.0037   -3.3690 H   0  0  0  0  0  0  0  0  0  0  0  0
   13.8955   -5.0862   -1.8252 H   0  0  0  0  0  0  0  0  0  0  0  0
   12.3534   -3.3432   -3.0376 H   0  0  0  0  0  0  0  0  0  0  0  0
   10.4811   -1.8424   -1.8389 H   0  0  0  0  0  0  0  0  0  0  0  0
   33.6302   -0.0124   -0.0311 Zn  0  0  0  0  0  0  0  0  0  0  0  0
   37.0379    0.0310   -0.0873 C   0  0  0  0  0  0  0  0  0  0  0  0
   36.4203   -0.9744   -0.8222 C   0  0  0  0  0  0  0  0  0  0  0  0
   37.1065   -1.9997   -1.5564 C   0  0  0  0  0  0  0  0  0  0  0  0
   36.1565   -2.7798   -2.1314 C   0  0  0  0  0  0  0  0  0  0  0  0
   34.8774   -2.2323   -1.7661 C   0  0  0  0  0  0  0  0  0  0  0  0
   35.0729   -1.1460   -0.9638 N   0  0  0  0  0  0  0  0  0  0  0  0
   33.6322   -2.7440   -2.1555 C   0  0  0  0  0  0  0  0  0  0  0  0
   33.6266   -3.9161   -3.0634 C   0  0  0  0  0  0  0  0  0  0  0  0
   34.2162   -3.8465   -4.3285 C   0  0  0  0  0  0  0  0  0  0  0  0
   34.1925   -4.9345   -5.1809 C   0  0  0  0  0  0  0  0  0  0  0  0
   33.5859   -6.1337   -4.7878 C   0  0  0  0  0  0  0  0  0  0  0  0
   33.5365   -7.1790   -5.6992 N   0  0  0  0  0  0  0  0  0  0  0  0
   33.3656   -8.5444   -5.2213 C   0  0  0  0  0  0  0  0  0  0  0  0
   32.9949   -6.2093   -3.5235 C   0  0  0  0  0  0  0  0  0  0  0  0
   33.0177   -5.1123   -2.6791 C   0  0  0  0  0  0  0  0  0  0  0  0
   32.3882   -2.2383   -1.7601 C   0  0  0  0  0  0  0  0  0  0  0  0
   31.1139   -2.7225   -2.2141 C   0  0  0  0  0  0  0  0  0  0  0  0
   30.1597   -1.9715   -1.6068 C   0  0  0  0  0  0  0  0  0  0  0  0
   32.1833   -1.1915   -0.9004 N   0  0  0  0  0  0  0  0  0  0  0  0
   30.8402   -1.0150   -0.7852 C   0  0  0  0  0  0  0  0  0  0  0  0
   30.1987   -0.0494    0.0170 C   0  0  0  0  0  0  0  0  0  0  0  0
   30.8416    0.9269    0.8053 C   0  0  0  0  0  0  0  0  0  0  0  0
   30.1640    1.8644    1.6507 C   0  0  0  0  0  0  0  0  0  0  0  0
   31.1185    2.6328    2.2355 C   0  0  0  0  0  0  0  0  0  0  0  0
   32.3896    2.1794    1.7424 C   0  0  0  0  0  0  0  0  0  0  0  0
   32.1833    1.1321    0.8836 N   0  0  0  0  0  0  0  0  0  0  0  0
   33.6329    2.7126    2.1019 C   0  0  0  0  0  0  0  0  0  0  0  0
   33.6292    3.8766    3.0201 C   0  0  0  0  0  0  0  0  0  0  0  0
   32.9789    5.0613    2.6697 C   0  0  0  0  0  0  0  0  0  0  0  0
   32.9578    6.1486    3.5267 C   0  0  0  0  0  0  0  0  0  0  0  0
   33.5928    6.0747    4.7696 C   0  0  0  0  0  0  0  0  0  0  0  0
   33.5484    7.1083    5.6944 N   0  0  0  0  0  0  0  0  0  0  0  0
   33.3243    8.4739    5.2398 C   0  0  0  0  0  0  0  0  0  0  0  0
   34.2418    4.8870    5.1285 C   0  0  0  0  0  0  0  0  0  0  0  0
   34.2632    3.8089    4.2638 C   0  0  0  0  0  0  0  0  0  0  0  0
   34.8770    2.2343    1.6687 C   0  0  0  0  0  0  0  0  0  0  0  0
   36.1530    2.8140    1.9929 C   0  0  0  0  0  0  0  0  0  0  0  0
   37.1030    2.0611    1.3827 C   0  0  0  0  0  0  0  0  0  0  0  0
   36.4195    1.0196    0.6692 C   0  0  0  0  0  0  0  0  0  0  0  0
   35.0735    1.1559    0.8563 N   0  0  0  0  0  0  0  0  0  0  0  0
   38.1235    0.0452   -0.1056 H   0  0  0  0  0  0  0  0  0  0  0  0
   38.1788   -2.1063   -1.6102 H   0  0  0  0  0  0  0  0  0  0  0  0
   36.3050   -3.6578   -2.7397 H   0  0  0  0  0  0  0  0  0  0  0  0
   34.6773   -2.9200   -4.6531 H   0  0  0  0  0  0  0  0  0  0  0  0
   34.6422   -4.8621   -6.1656 H   0  0  0  0  0  0  0  0  0  0  0  0
   34.2498   -7.1077   -6.4148 H   0  0  0  0  0  0  0  0  0  0  0  0
   32.3616   -8.6753   -4.8153 H   0  0  0  0  0  0  0  0  0  0  0  0
   34.1022   -8.7975   -4.4501 H   0  0  0  0  0  0  0  0  0  0  0  0
   33.4880   -9.2163   -6.0708 H   0  0  0  0  0  0  0  0  0  0  0  0
   32.5128   -7.1211   -3.1927 H   0  0  0  0  0  0  0  0  0  0  0  0
   32.5694   -5.1889   -1.6943 H   0  0  0  0  0  0  0  0  0  0  0  0
   30.9680   -3.5239   -2.9203 H   0  0  0  0  0  0  0  0  0  0  0  0
   29.0887   -2.0473   -1.7085 H   0  0  0  0  0  0  0  0  0  0  0  0
   29.0950    1.9160    1.7834 H   0  0  0  0  0  0  0  0  0  0  0  0
   30.9751    3.4269    2.9503 H   0  0  0  0  0  0  0  0  0  0  0  0
   32.4961    5.1373    1.7013 H   0  0  0  0  0  0  0  0  0  0  0  0
   32.4429    7.0516    3.2223 H   0  0  0  0  0  0  0  0  0  0  0  0
   34.2880    7.0481    6.3838 H   0  0  0  0  0  0  0  0  0  0  0  0
   34.0288    8.7573    4.4494 H   0  0  0  0  0  0  0  0  0  0  0  0
   33.4546    9.1386    6.0939 H   0  0  0  0  0  0  0  0  0  0  0  0
   32.3048    8.5810    4.8672 H   0  0  0  0  0  0  0  0  0  0  0  0
   34.7264    4.8157    6.0967 H   0  0  0  0  0  0  0  0  0  0  0  0
   34.7576    2.8907    4.5622 H   0  0  0  0  0  0  0  0  0  0  0  0
   36.2990    3.6941    2.5988 H   0  0  0  0  0  0  0  0  0  0  0  0
   38.1734    2.1959    1.4003 H   0  0  0  0  0  0  0  0  0  0  0  0
   19.8624   -0.0207    0.0556 C   0  0  0  0  0  0  0  0  0  0  0  0
   21.0873   -0.0294    0.0611 C   0  0  0  0  0  0  0  0  0  0  0  0
   22.4292   -0.0412    0.0615 C   0  0  0  0  0  0  0  0  0  0  0  0
   23.6600   -0.0523    0.0647 C   0  0  0  0  0  0  0  0  0  0  0  0
   24.9972   -0.0563    0.0612 C   0  0  0  0  0  0  0  0  0  0  0  0
   26.2280   -0.0614    0.0524 C   0  0  0  0  0  0  0  0  0  0  0  0
   27.5699   -0.0617    0.0421 C   0  0  0  0  0  0  0  0  0  0  0  0
   28.7948   -0.0596    0.0320 C   0  0  0  0  0  0  0  0  0  0  0  0
  2  3  4  0  0  0  0
  3  4  4  0  0  0  0
  4  5  2  0  0  0  0
  5  6  4  0  0  0  0
  1  7  1  0  0  0  0
  3  7  4  0  0  0  0
  6  7  4  0  0  0  0
  6  8  4  0  0  0  0
  8  9  1  0  0  0  0
  9 10  4  0  0  0  0
 10 11  4  0  0  0  0
 11 12  4  0  0  0  0
 12 13  1  0  0  0  0
 13 14  1  0  0  0  0
 12 15  4  0  0  0  0
  9 16  4  0  0  0  0
 15 16  4  0  0  0  0
  8 17  4  0  0  0  0
 17 18  4  0  0  0  0
 18 19  2  0  0  0  0
  1 20  1  0  0  0  0
 17 20  4  0  0  0  0
 19 21  4  0  0  0  0
 20 21  4  0  0  0  0
 21 22  4  0  0  0  0
 22 23  4  0  0  0  0
 23 24  4  0  0  0  0
 24 25  2  0  0  0  0
 25 26  4  0  0  0  0
  1 27  1  0  0  0  0
 23 27  4  0  0  0  0
 26 27  4  0  0  0  0
 26 28  4  0  0  0  0
 28 29  1  0  0  0  0
 29 30  4  0  0  0  0
 30 31  4  0  0  0  0
 31 32  4  0  0  0  0
 32 33  1  0  0  0  0
 33 34  1  0  0  0  0
 32 35  4  0  0  0  0
 29 36  4  0  0  0  0
 35 36  4  0  0  0  0
 28 37  4  0  0  0  0
 37 38  4  0  0  0  0
 38 39  2  0  0  0  0
  2 40  4  0  0  0  0
 39 40  4  0  0  0  0
  1 41  1  0  0  0  0
 37 41  4  0  0  0  0
 40 41  4  0  0  0  0
  2 42  1  0  0  0  0
  4 43  1  0  0  0  0
  5 44  1  0  0  0  0
 10 45  1  0  0  0  0
 11 46  1  0  0  0  0
 13 47  1  0  0  0  0
 14 48  1  0  0  0  0
 14 49  1  0  0  0  0
 14 50  1  0  0  0  0
 15 51  1  0  0  0  0
 16 52  1  0  0  0  0
 18 53  1  0  0  0  0
 19 54  1  0  0  0  0
 24 55  1  0  0  0  0
 25 56  1  0  0  0  0
 30 57  1  0  0  0  0
 31 58  1  0  0  0  0
 33 59  1  0  0  0  0
 34 60  1  0  0  0  0
 34 61  1  0  0  0  0
 34 62  1  0  0  0  0
 35 63  1  0  0  0  0
 36 64  1  0  0  0  0
 38 65  1  0  0  0  0
 39 66  1  0  0  0  0
 68 69  4  0  0  0  0
 69 70  4  0  0  0  0
 70 71  2  0  0  0  0
 71 72  4  0  0  0  0
 67 73  1  0  0  0  0
 69 73  4  0  0  0  0
 72 73  4  0  0  0  0
 72 74  4  0  0  0  0
 74 75  1  0  0  0  0
 75 76  4  0  0  0  0
 76 77  4  0  0  0  0
 77 78  4  0  0  0  0
 78 79  1  0  0  0  0
 79 80  1  0  0  0  0
 78 81  4  0  0  0  0
 75 82  4  0  0  0  0
 81 82  4  0  0  0  0
 74 83  4  0  0  0  0
 83 84  4  0  0  0  0
 84 85  2  0  0  0  0
 67 86  1  0  0  0  0
 83 86  4  0  0  0  0
 85 87  4  0  0  0  0
 86 87  4  0  0  0  0
 87 88  4  0  0  0  0
 88 89  4  0  0  0  0
 89 90  4  0  0  0  0
 90 91  2  0  0  0  0
 91 92  4  0  0  0  0
 67 93  1  0  0  0  0
 89 93  4  0  0  0  0
 92 93  4  0  0  0  0
 92 94  4  0  0  0  0
 94 95  1  0  0  0  0
 95 96  4  0  0  0  0
 96 97  4  0  0  0  0
 97 98  4  0  0  0  0
 98 99  1  0  0  0  0
 99100  1  0  0  0  0
 98101  4  0  0  0  0
 95102  4  0  0  0  0
101102  4  0  0  0  0
 94103  4  0  0  0  0
103104  4  0  0  0  0
104105  2  0  0  0  0
 68106  4  0  0  0  0
105106  4  0  0  0  0
 67107  1  0  0  0  0
103107  4  0  0  0  0
106107  4  0  0  0  0
 68108  1  0  0  0  0
 70109  1  0  0  0  0
 71110  1  0  0  0  0
 76111  1  0  0  0  0
 77112  1  0  0  0  0
 79113  1  0  0  0  0
 80114  1  0  0  0  0
 80115  1  0  0  0  0
 80116  1  0  0  0  0
 81117  1  0  0  0  0
 82118  1  0  0  0  0
 84119  1  0  0  0  0
 85120  1  0  0  0  0
 90121  1  0  0  0  0
 91122  1  0  0  0  0
 96123  1  0  0  0  0
 97124  1  0  0  0  0
 99125  1  0  0  0  0
100126  1  0  0  0  0
100127  1  0  0  0  0
100128  1  0  0  0  0
101129  1  0  0  0  0
102130  1  0  0  0  0
104131  1  0  0  0  0
105132  1  0  0  0  0
 22133  4  0  0  0  0
133134  3  0  0  0  0
134135  4  0  0  0  0
135136  3  0  0  0  0
136137  4  0  0  0  0
137138  3  0  0  0  0
138139  4  0  0  0  0
 88140  4  0  0  0  0
139140  3  0  0  0  0
M  END
