 xtb: 6.5.1 (b24c23e)
          07312201313D

314341  0     0  0            999 V2000
   35.4677    0.0433    0.0404 C   0  0  0  0  0  0  0  0  0  0  0  0
   36.0877    0.0394    1.2833 C   0  0  0  0  0  0  0  0  0  0  0  0
   35.4545    0.0053    2.5580 C   0  0  0  0  0  0  0  0  0  0  0  0
   36.4305    0.0269    3.5141 C   0  0  0  0  0  0  0  0  0  0  0  0
   37.6915    0.0726    2.8542 C   0  0  0  0  0  0  0  0  0  0  0  0
   37.4342    0.0801    1.5120 N   0  0  0  0  0  0  0  0  0  0  0  0
   38.9587    0.1025    3.4437 C   0  0  0  0  0  0  0  0  0  0  0  0
   40.1714    0.1038    2.7544 C   0  0  0  0  0  0  0  0  0  0  0  0
   41.4667    0.1005    3.4094 C   0  0  0  0  0  0  0  0  0  0  0  0
   42.3915    0.1103    2.4270 C   0  0  0  0  0  0  0  0  0  0  0  0
   40.3300    0.1282    1.4021 N   0  0  0  0  0  0  0  0  0  0  0  0
   41.6588    0.1273    1.1752 C   0  0  0  0  0  0  0  0  0  0  0  0
   42.2948    0.1465   -0.0830 C   0  0  0  0  0  0  0  0  0  0  0  0
   41.6483    0.1802   -1.3328 C   0  0  0  0  0  0  0  0  0  0  0  0
   42.2754    0.2220   -2.6068 C   0  0  0  0  0  0  0  0  0  0  0  0
   41.2947    0.2599   -3.5586 C   0  0  0  0  0  0  0  0  0  0  0  0
   40.0373    0.2399   -2.8936 C   0  0  0  0  0  0  0  0  0  0  0  0
   38.7708    0.2591   -3.4832 C   0  0  0  0  0  0  0  0  0  0  0  0
   38.7386    0.2940   -4.9759 C   0  0  0  0  0  0  0  0  0  0  0  0
   38.9851    1.4384   -5.7397 C   0  0  0  0  0  0  0  0  0  0  0  0
   39.2406    2.6789   -5.2435 O   0  0  0  0  0  0  0  0  0  0  0  0
   38.7854    3.1098   -3.9732 C   0  0  0  0  0  0  0  0  0  0  0  0
   39.0079    1.3565   -7.1372 C   0  0  0  0  0  0  0  0  0  0  0  0
   38.7738    0.1525   -7.7701 C   0  0  0  0  0  0  0  0  0  0  0  0
   38.5029   -0.9939   -7.0326 C   0  0  0  0  0  0  0  0  0  0  0  0
   38.4892   -0.9207   -5.6442 C   0  0  0  0  0  0  0  0  0  0  0  0
   38.2589   -1.9911   -4.8371 O   0  0  0  0  0  0  0  0  0  0  0  0
   37.9782   -3.2594   -5.3941 C   0  0  0  0  0  0  0  0  0  0  0  0
   37.5579    0.1880   -2.7933 C   0  0  0  0  0  0  0  0  0  0  0  0
   36.2564    0.1763   -3.4415 C   0  0  0  0  0  0  0  0  0  0  0  0
   35.3391    0.1128   -2.4553 C   0  0  0  0  0  0  0  0  0  0  0  0
   36.0798    0.0946   -1.2056 C   0  0  0  0  0  0  0  0  0  0  0  0
   37.4127    0.1449   -1.4475 N   0  0  0  0  0  0  0  0  0  0  0  0
   40.3031    0.1927   -1.5498 N   0  0  0  0  0  0  0  0  0  0  0  0
   38.9936    0.0542    4.9369 C   0  0  0  0  0  0  0  0  0  0  0  0
   38.7599    1.1521    5.7693 C   0  0  0  0  0  0  0  0  0  0  0  0
   38.5023    2.4213    5.3543 O   0  0  0  0  0  0  0  0  0  0  0  0
   38.9083    2.9203    4.0926 C   0  0  0  0  0  0  0  0  0  0  0  0
   38.7535    0.9867    7.1600 C   0  0  0  0  0  0  0  0  0  0  0  0
   38.9895   -0.2532    7.7178 C   0  0  0  0  0  0  0  0  0  0  0  0
   39.2436   -1.3558    6.9107 C   0  0  0  0  0  0  0  0  0  0  0  0
   39.2416   -1.1997    5.5292 C   0  0  0  0  0  0  0  0  0  0  0  0
   39.4559   -2.2208    4.6566 O   0  0  0  0  0  0  0  0  0  0  0  0
   39.7599   -3.5165    5.1325 C   0  0  0  0  0  0  0  0  0  0  0  0
   34.3831    0.0076    0.0536 H   0  0  0  0  0  0  0  0  0  0  0  0
   34.3873   -0.0304    2.7090 H   0  0  0  0  0  0  0  0  0  0  0  0
   36.3001    0.0101    4.5841 H   0  0  0  0  0  0  0  0  0  0  0  0
   38.1466    0.0907    0.7900 H   0  0  0  0  0  0  0  0  0  0  0  0
   41.6189    0.0862    4.4767 H   0  0  0  0  0  0  0  0  0  0  0  0
   43.4665    0.1083    2.5129 H   0  0  0  0  0  0  0  0  0  0  0  0
   43.3421    0.2232   -2.7634 H   0  0  0  0  0  0  0  0  0  0  0  0
   41.4223    0.2949   -4.6283 H   0  0  0  0  0  0  0  0  0  0  0  0
   39.4473    2.7663   -3.1706 H   0  0  0  0  0  0  0  0  0  0  0  0
   38.7975    4.2023   -3.9997 H   0  0  0  0  0  0  0  0  0  0  0  0
   37.7650    2.7654   -3.7752 H   0  0  0  0  0  0  0  0  0  0  0  0
   39.2110    2.2580   -7.7013 H   0  0  0  0  0  0  0  0  0  0  0  0
   38.7932    0.0986   -8.8527 H   0  0  0  0  0  0  0  0  0  0  0  0
   38.3152   -1.9289   -7.5431 H   0  0  0  0  0  0  0  0  0  0  0  0
   37.8178   -3.9328   -4.5501 H   0  0  0  0  0  0  0  0  0  0  0  0
   37.0726   -3.2348   -6.0123 H   0  0  0  0  0  0  0  0  0  0  0  0
   38.8176   -3.6292   -5.9953 H   0  0  0  0  0  0  0  0  0  0  0  0
   36.0984    0.2070   -4.5078 H   0  0  0  0  0  0  0  0  0  0  0  0
   34.2634    0.0825   -2.5331 H   0  0  0  0  0  0  0  0  0  0  0  0
   39.5941    0.1508   -0.8253 H   0  0  0  0  0  0  0  0  0  0  0  0
   39.9301    2.6111    3.8491 H   0  0  0  0  0  0  0  0  0  0  0  0
   38.8713    4.0098    4.1711 H   0  0  0  0  0  0  0  0  0  0  0  0
   38.2306    2.5981    3.2944 H   0  0  0  0  0  0  0  0  0  0  0  0
   38.5621    1.8542    7.7789 H   0  0  0  0  0  0  0  0  0  0  0  0
   38.9839   -0.3705    8.7956 H   0  0  0  0  0  0  0  0  0  0  0  0
   39.4314   -2.3205    7.3623 H   0  0  0  0  0  0  0  0  0  0  0  0
   38.9345   -3.9321    5.7232 H   0  0  0  0  0  0  0  0  0  0  0  0
   39.9145   -4.1363    4.2473 H   0  0  0  0  0  0  0  0  0  0  0  0
   40.6749   -3.5173    5.7371 H   0  0  0  0  0  0  0  0  0  0  0  0
   98.0982    0.0317   -0.1359 C   0  0  0  0  0  0  0  0  0  0  0  0
   97.4798   -0.0909   -1.3735 C   0  0  0  0  0  0  0  0  0  0  0  0
   98.1145   -0.2247   -2.6409 C   0  0  0  0  0  0  0  0  0  0  0  0
   97.1390   -0.3021   -3.5946 C   0  0  0  0  0  0  0  0  0  0  0  0
   95.8769   -0.2213   -2.9402 C   0  0  0  0  0  0  0  0  0  0  0  0
   96.1330   -0.0930   -1.6040 N   0  0  0  0  0  0  0  0  0  0  0  0
   94.6098   -0.2677   -3.5286 C   0  0  0  0  0  0  0  0  0  0  0  0
   93.3969   -0.2319   -2.8407 C   0  0  0  0  0  0  0  0  0  0  0  0
   92.1027   -0.3220   -3.4917 C   0  0  0  0  0  0  0  0  0  0  0  0
   91.1768   -0.2418   -2.5136 C   0  0  0  0  0  0  0  0  0  0  0  0
   93.2363   -0.0879   -1.4961 N   0  0  0  0  0  0  0  0  0  0  0  0
   91.9076   -0.0940   -1.2693 C   0  0  0  0  0  0  0  0  0  0  0  0
   91.2694    0.0378   -0.0188 C   0  0  0  0  0  0  0  0  0  0  0  0
   91.9135    0.2052    1.2212 C   0  0  0  0  0  0  0  0  0  0  0  0
   91.2847    0.3625    2.4853 C   0  0  0  0  0  0  0  0  0  0  0  0
   92.2641    0.5056    3.4286 C   0  0  0  0  0  0  0  0  0  0  0  0
   93.5222    0.4372    2.7682 C   0  0  0  0  0  0  0  0  0  0  0  0
   94.7880    0.5277    3.3527 C   0  0  0  0  0  0  0  0  0  0  0  0
   94.8192    0.7030    4.8356 C   0  0  0  0  0  0  0  0  0  0  0  0
   94.5660    1.9121    5.4895 C   0  0  0  0  0  0  0  0  0  0  0  0
   94.3013    3.0994    4.8810 O   0  0  0  0  0  0  0  0  0  0  0  0
   94.7437    3.4110    3.5719 C   0  0  0  0  0  0  0  0  0  0  0  0
   94.5459    1.9608    6.8887 C   0  0  0  0  0  0  0  0  0  0  0  0
   94.7891    0.8228    7.6308 C   0  0  0  0  0  0  0  0  0  0  0  0
   95.0661   -0.3858    7.0032 C   0  0  0  0  0  0  0  0  0  0  0  0
   95.0773   -0.4424    5.6140 C   0  0  0  0  0  0  0  0  0  0  0  0
   95.3135   -1.5818    4.9097 O   0  0  0  0  0  0  0  0  0  0  0  0
   95.6046   -2.7906    5.5816 C   0  0  0  0  0  0  0  0  0  0  0  0
   96.0024    0.4062    2.6725 C   0  0  0  0  0  0  0  0  0  0  0  0
   97.3031    0.4695    3.3194 C   0  0  0  0  0  0  0  0  0  0  0  0
   98.2225    0.3267    2.3434 C   0  0  0  0  0  0  0  0  0  0  0  0
   97.4838    0.1856    1.1004 C   0  0  0  0  0  0  0  0  0  0  0  0
   96.1500    0.2411    1.3364 N   0  0  0  0  0  0  0  0  0  0  0  0
   93.2583    0.2567    1.4354 N   0  0  0  0  0  0  0  0  0  0  0  0
   94.5764   -0.4412   -5.0123 C   0  0  0  0  0  0  0  0  0  0  0  0
   94.7900    0.5894   -5.9317 C   0  0  0  0  0  0  0  0  0  0  0  0
   95.0238    1.8925   -5.6195 O   0  0  0  0  0  0  0  0  0  0  0  0
   94.5854    2.4870   -4.4108 C   0  0  0  0  0  0  0  0  0  0  0  0
   94.8013    0.3116   -7.3041 C   0  0  0  0  0  0  0  0  0  0  0  0
   94.5888   -0.9741   -7.7586 C   0  0  0  0  0  0  0  0  0  0  0  0
   94.3537   -2.0115   -6.8642 C   0  0  0  0  0  0  0  0  0  0  0  0
   94.3515   -1.7434   -5.5000 C   0  0  0  0  0  0  0  0  0  0  0  0
   94.1546   -2.6935   -4.5468 O   0  0  0  0  0  0  0  0  0  0  0  0
   93.8723   -4.0285   -4.9151 C   0  0  0  0  0  0  0  0  0  0  0  0
   99.1832    0.0109   -0.1460 H   0  0  0  0  0  0  0  0  0  0  0  0
   99.1823   -0.2553   -2.7891 H   0  0  0  0  0  0  0  0  0  0  0  0
   97.2704   -0.4092   -4.6593 H   0  0  0  0  0  0  0  0  0  0  0  0
   95.4201   -0.0313   -0.8851 H   0  0  0  0  0  0  0  0  0  0  0  0
   91.9519   -0.4373   -4.5531 H   0  0  0  0  0  0  0  0  0  0  0  0
   90.1023   -0.2741   -2.5985 H   0  0  0  0  0  0  0  0  0  0  0  0
   90.2179    0.3648    2.6411 H   0  0  0  0  0  0  0  0  0  0  0  0
   92.1352    0.6428    4.4899 H   0  0  0  0  0  0  0  0  0  0  0  0
   94.0799    2.9863    2.8108 H   0  0  0  0  0  0  0  0  0  0  0  0
   94.7206    4.5010    3.4942 H   0  0  0  0  0  0  0  0  0  0  0  0
   95.7662    3.0590    3.3999 H   0  0  0  0  0  0  0  0  0  0  0  0
   94.3379    2.9097    7.3665 H   0  0  0  0  0  0  0  0  0  0  0  0
   94.7719    0.8703    8.7138 H   0  0  0  0  0  0  0  0  0  0  0  0
   95.2606   -1.2679    7.5983 H   0  0  0  0  0  0  0  0  0  0  0  0
   95.7692   -3.5384    4.8035 H   0  0  0  0  0  0  0  0  0  0  0  0
   96.5107   -2.7019    6.1931 H   0  0  0  0  0  0  0  0  0  0  0  0
   94.7687   -3.1093    6.2161 H   0  0  0  0  0  0  0  0  0  0  0  0
   97.4594    0.5996    4.3785 H   0  0  0  0  0  0  0  0  0  0  0  0
   99.2984    0.3166    2.4240 H   0  0  0  0  0  0  0  0  0  0  0  0
   93.9684    0.1541    0.7181 H   0  0  0  0  0  0  0  0  0  0  0  0
   93.5665    2.1757   -4.1578 H   0  0  0  0  0  0  0  0  0  0  0  0
   94.5999    3.5665   -4.5806 H   0  0  0  0  0  0  0  0  0  0  0  0
   95.2560    2.2490   -3.5779 H   0  0  0  0  0  0  0  0  0  0  0  0
   94.9770    1.1290   -7.9919 H   0  0  0  0  0  0  0  0  0  0  0  0
   94.5977   -1.1788   -8.8232 H   0  0  0  0  0  0  0  0  0  0  0  0
   94.1836   -3.0130   -7.2356 H   0  0  0  0  0  0  0  0  0  0  0  0
   94.7047   -4.4772   -5.4707 H   0  0  0  0  0  0  0  0  0  0  0  0
   93.7276   -4.5766   -3.9822 H   0  0  0  0  0  0  0  0  0  0  0  0
   92.9577   -4.0937   -5.5168 H   0  0  0  0  0  0  0  0  0  0  0  0
   43.7000    0.1366   -0.1071 C   0  0  0  0  0  0  0  0  0  0  0  0
   44.9242    0.1250   -0.1346 C   0  0  0  0  0  0  0  0  0  0  0  0
   46.2667    0.1121   -0.1625 C   0  0  0  0  0  0  0  0  0  0  0  0
   47.4970    0.0988   -0.1888 C   0  0  0  0  0  0  0  0  0  0  0  0
   48.8347    0.0859   -0.2154 C   0  0  0  0  0  0  0  0  0  0  0  0
   50.0652    0.0745   -0.2391 C   0  0  0  0  0  0  0  0  0  0  0  0
   51.4076    0.0657   -0.2594 C   0  0  0  0  0  0  0  0  0  0  0  0
   52.6322    0.0550   -0.2761 C   0  0  0  0  0  0  0  0  0  0  0  0
   62.3167   -0.0381   -0.1786 C   0  0  0  0  0  0  0  0  0  0  0  0
   63.5419   -0.0507   -0.1663 C   0  0  0  0  0  0  0  0  0  0  0  0
   64.8831   -0.0575   -0.1578 C   0  0  0  0  0  0  0  0  0  0  0  0
   66.1143   -0.0632   -0.1568 C   0  0  0  0  0  0  0  0  0  0  0  0
   67.4510   -0.0668   -0.1603 C   0  0  0  0  0  0  0  0  0  0  0  0
   68.6823   -0.0659   -0.1675 C   0  0  0  0  0  0  0  0  0  0  0  0
   70.0235   -0.0629   -0.1798 C   0  0  0  0  0  0  0  0  0  0  0  0
   71.2488   -0.0623   -0.1943 C   0  0  0  0  0  0  0  0  0  0  0  0
   80.9325   -0.0818   -0.1088 C   0  0  0  0  0  0  0  0  0  0  0  0
   82.1569   -0.0846   -0.0774 C   0  0  0  0  0  0  0  0  0  0  0  0
   83.4990   -0.0792   -0.0463 C   0  0  0  0  0  0  0  0  0  0  0  0
   84.7295   -0.0702   -0.0222 C   0  0  0  0  0  0  0  0  0  0  0  0
   86.0672   -0.0538   -0.0029 C   0  0  0  0  0  0  0  0  0  0  0  0
   87.2976   -0.0348    0.0085 C   0  0  0  0  0  0  0  0  0  0  0  0
   88.6402   -0.0113    0.0101 C   0  0  0  0  0  0  0  0  0  0  0  0
   89.8645    0.0104    0.0019 C   0  0  0  0  0  0  0  0  0  0  0  0
   54.0367    0.0485   -0.2866 C   0  0  0  0  0  0  0  0  0  0  0  0
   54.6725    1.2543    0.0665 C   0  0  0  0  0  0  0  0  0  0  0  0
   54.0340    2.4695    0.4284 C   0  0  0  0  0  0  0  0  0  0  0  0
   55.0077    3.3931    0.6917 C   0  0  0  0  0  0  0  0  0  0  0  0
   56.2695    2.7688    0.4953 C   0  0  0  0  0  0  0  0  0  0  0  0
   56.0156    1.4764    0.1212 N   0  0  0  0  0  0  0  0  0  0  0  0
   57.5317    3.3458    0.6684 C   0  0  0  0  0  0  0  0  0  0  0  0
   58.7535    2.6948    0.5049 C   0  0  0  0  0  0  0  0  0  0  0  0
   60.0413    3.3445    0.6696 C   0  0  0  0  0  0  0  0  0  0  0  0
   60.9783    2.4043    0.4313 C   0  0  0  0  0  0  0  0  0  0  0  0
   58.9297    1.3885    0.1607 N   0  0  0  0  0  0  0  0  0  0  0  0
   60.2608    1.1844    0.1142 C   0  0  0  0  0  0  0  0  0  0  0  0
   60.9137   -0.0255   -0.1990 C   0  0  0  0  0  0  0  0  0  0  0  0
   60.2794   -1.2342   -0.5469 C   0  0  0  0  0  0  0  0  0  0  0  0
   60.9157   -2.4594   -0.8755 C   0  0  0  0  0  0  0  0  0  0  0  0
   59.9412   -3.3731   -1.1720 C   0  0  0  0  0  0  0  0  0  0  0  0
   58.6816   -2.7302   -1.0319 C   0  0  0  0  0  0  0  0  0  0  0  0
   57.4196   -3.2935   -1.2467 C   0  0  0  0  0  0  0  0  0  0  0  0
   57.4044   -4.7356   -1.6390 C   0  0  0  0  0  0  0  0  0  0  0  0
   57.1581   -5.6719   -0.6156 C   0  0  0  0  0  0  0  0  0  0  0  0
   56.9252   -5.1387    0.6140 O   0  0  0  0  0  0  0  0  0  0  0  0
   56.6285   -5.9770    1.7124 C   0  0  0  0  0  0  0  0  0  0  0  0
   57.1754   -7.0385   -0.8702 C   0  0  0  0  0  0  0  0  0  0  0  0
   57.4471   -7.4844   -2.1582 C   0  0  0  0  0  0  0  0  0  0  0  0
   57.6813   -6.5854   -3.1785 C   0  0  0  0  0  0  0  0  0  0  0  0
   57.6558   -5.2072   -2.9303 C   0  0  0  0  0  0  0  0  0  0  0  0
   57.9134   -4.4374   -4.0208 O   0  0  0  0  0  0  0  0  0  0  0  0
   57.5087   -3.0845   -4.1293 C   0  0  0  0  0  0  0  0  0  0  0  0
   56.1976   -2.6484   -1.0646 C   0  0  0  0  0  0  0  0  0  0  0  0
   54.9124   -3.2891   -1.2752 C   0  0  0  0  0  0  0  0  0  0  0  0
   53.9731   -2.3579   -1.0075 C   0  0  0  0  0  0  0  0  0  0  0  0
   54.6877   -1.1504   -0.6414 C   0  0  0  0  0  0  0  0  0  0  0  0
   56.0195   -1.3514   -0.6900 N   0  0  0  0  0  0  0  0  0  0  0  0
   58.9367   -1.4393   -0.6505 N   0  0  0  0  0  0  0  0  0  0  0  0
   57.5524    4.7835    1.0623 C   0  0  0  0  0  0  0  0  0  0  0  0
   57.1421    5.7713    0.1571 C   0  0  0  0  0  0  0  0  0  0  0  0
   56.7388    5.3280   -1.0634 O   0  0  0  0  0  0  0  0  0  0  0  0
   56.3312    6.2457   -2.0586 C   0  0  0  0  0  0  0  0  0  0  0  0
   57.1711    7.1169    0.5213 C   0  0  0  0  0  0  0  0  0  0  0  0
   57.6033    7.4686    1.7910 C   0  0  0  0  0  0  0  0  0  0  0  0
   58.0075    6.5083    2.7059 C   0  0  0  0  0  0  0  0  0  0  0  0
   57.9839    5.1626    2.3408 C   0  0  0  0  0  0  0  0  0  0  0  0
   58.3487    4.1494    3.1688 O   0  0  0  0  0  0  0  0  0  0  0  0
   58.8321    4.4245    4.4684 C   0  0  0  0  0  0  0  0  0  0  0  0
   52.9660    2.6082    0.4792 H   0  0  0  0  0  0  0  0  0  0  0  0
   54.8692    4.4174    0.9966 H   0  0  0  0  0  0  0  0  0  0  0  0
   56.7294    0.7834   -0.0770 H   0  0  0  0  0  0  0  0  0  0  0  0
   60.1841    4.3807    0.9301 H   0  0  0  0  0  0  0  0  0  0  0  0
   62.0521    2.5002    0.4558 H   0  0  0  0  0  0  0  0  0  0  0  0
   61.9828   -2.6124   -0.8820 H   0  0  0  0  0  0  0  0  0  0  0  0
   60.0761   -4.4027   -1.4610 H   0  0  0  0  0  0  0  0  0  0  0  0
   56.4597   -5.3142    2.5632 H   0  0  0  0  0  0  0  0  0  0  0  0
   57.4630   -6.6510    1.9412 H   0  0  0  0  0  0  0  0  0  0  0  0
   55.7232   -6.5692    1.5321 H   0  0  0  0  0  0  0  0  0  0  0  0
   56.9892   -7.7549   -0.0815 H   0  0  0  0  0  0  0  0  0  0  0  0
   57.4684   -8.5492   -2.3611 H   0  0  0  0  0  0  0  0  0  0  0  0
   57.8865   -6.9211   -4.1872 H   0  0  0  0  0  0  0  0  0  0  0  0
   57.5582   -2.8381   -5.1929 H   0  0  0  0  0  0  0  0  0  0  0  0
   56.4826   -2.9433   -3.7740 H   0  0  0  0  0  0  0  0  0  0  0  0
   58.1801   -2.4171   -3.5781 H   0  0  0  0  0  0  0  0  0  0  0  0
   54.7761   -4.3142   -1.5802 H   0  0  0  0  0  0  0  0  0  0  0  0
   52.8996   -2.4518   -1.0474 H   0  0  0  0  0  0  0  0  0  0  0  0
   58.2247   -0.7421   -0.4602 H   0  0  0  0  0  0  0  0  0  0  0  0
   57.1413    6.9356   -2.3239 H   0  0  0  0  0  0  0  0  0  0  0  0
   55.4542    6.8216   -1.7392 H   0  0  0  0  0  0  0  0  0  0  0  0
   56.0681    5.6480   -2.9332 H   0  0  0  0  0  0  0  0  0  0  0  0
   56.8614    7.8875   -0.1718 H   0  0  0  0  0  0  0  0  0  0  0  0
   57.6243    8.5151    2.0745 H   0  0  0  0  0  0  0  0  0  0  0  0
   58.3356    6.8111    3.6911 H   0  0  0  0  0  0  0  0  0  0  0  0
   59.7365    5.0440    4.4369 H   0  0  0  0  0  0  0  0  0  0  0  0
   59.0749    3.4576    4.9127 H   0  0  0  0  0  0  0  0  0  0  0  0
   58.0723    4.9226    5.0827 H   0  0  0  0  0  0  0  0  0  0  0  0
   72.6518   -0.0571   -0.2077 C   0  0  0  0  0  0  0  0  0  0  0  0
   73.2796    1.1549    0.1400 C   0  0  0  0  0  0  0  0  0  0  0  0
   72.6327    2.3647    0.5039 C   0  0  0  0  0  0  0  0  0  0  0  0
   73.5999    3.2980    0.7574 C   0  0  0  0  0  0  0  0  0  0  0  0
   74.8657    2.6849    0.5527 C   0  0  0  0  0  0  0  0  0  0  0  0
   74.6208    1.3891    0.1847 N   0  0  0  0  0  0  0  0  0  0  0  0
   76.1240    3.2742    0.7137 C   0  0  0  0  0  0  0  0  0  0  0  0
   77.3502    2.6319    0.5485 C   0  0  0  0  0  0  0  0  0  0  0  0
   78.6339    3.2920    0.7059 C   0  0  0  0  0  0  0  0  0  0  0  0
   79.5770    2.3561    0.4757 C   0  0  0  0  0  0  0  0  0  0  0  0
   77.5350    1.3247    0.2131 N   0  0  0  0  0  0  0  0  0  0  0  0
   78.8677    1.1290    0.1674 C   0  0  0  0  0  0  0  0  0  0  0  0
   79.5285   -0.0773   -0.1414 C   0  0  0  0  0  0  0  0  0  0  0  0
   78.9035   -1.2883   -0.4959 C   0  0  0  0  0  0  0  0  0  0  0  0
   79.5486   -2.5073   -0.8312 C   0  0  0  0  0  0  0  0  0  0  0  0
   78.5808   -3.4263   -1.1327 C   0  0  0  0  0  0  0  0  0  0  0  0
   77.3164   -2.7936   -0.9877 C   0  0  0  0  0  0  0  0  0  0  0  0
   76.0582   -3.3666   -1.1992 C   0  0  0  0  0  0  0  0  0  0  0  0
   76.0520   -4.8069   -1.5980 C   0  0  0  0  0  0  0  0  0  0  0  0
   75.8138   -5.7498   -0.5788 C   0  0  0  0  0  0  0  0  0  0  0  0
   75.5803   -5.2242    0.6539 O   0  0  0  0  0  0  0  0  0  0  0  0
   75.2858   -6.0694    1.7477 C   0  0  0  0  0  0  0  0  0  0  0  0
   75.8389   -7.1149   -0.8406 C   0  0  0  0  0  0  0  0  0  0  0  0
   76.1102   -7.5525   -2.1315 C   0  0  0  0  0  0  0  0  0  0  0  0
   76.3359   -6.6469   -3.1479 C   0  0  0  0  0  0  0  0  0  0  0  0
   76.3022   -5.2702   -2.8925 C   0  0  0  0  0  0  0  0  0  0  0  0
   76.5510   -4.4923   -3.9794 O   0  0  0  0  0  0  0  0  0  0  0  0
   76.1273   -3.1446   -4.0814 C   0  0  0  0  0  0  0  0  0  0  0  0
   74.8317   -2.7333   -1.0062 C   0  0  0  0  0  0  0  0  0  0  0  0
   73.5510   -3.3848   -1.2095 C   0  0  0  0  0  0  0  0  0  0  0  0
   72.6054   -2.4632   -0.9312 C   0  0  0  0  0  0  0  0  0  0  0  0
   73.3117   -1.2506   -0.5668 C   0  0  0  0  0  0  0  0  0  0  0  0
   74.6446   -1.4390   -0.6255 N   0  0  0  0  0  0  0  0  0  0  0  0
   77.5622   -1.5027   -0.6007 N   0  0  0  0  0  0  0  0  0  0  0  0
   76.1338    4.7151    1.0954 C   0  0  0  0  0  0  0  0  0  0  0  0
   75.6983    5.6899    0.1875 C   0  0  0  0  0  0  0  0  0  0  0  0
   75.2829    5.2308   -1.0230 O   0  0  0  0  0  0  0  0  0  0  0  0
   74.8443    6.1339   -2.0185 C   0  0  0  0  0  0  0  0  0  0  0  0
   75.7164    7.0390    0.5391 C   0  0  0  0  0  0  0  0  0  0  0  0
   76.1627    7.4075    1.7992 C   0  0  0  0  0  0  0  0  0  0  0  0
   76.5913    6.4604    2.7167 C   0  0  0  0  0  0  0  0  0  0  0  0
   76.5786    5.1112    2.3642 C   0  0  0  0  0  0  0  0  0  0  0  0
   76.9663    4.1102    3.1965 O   0  0  0  0  0  0  0  0  0  0  0  0
   77.4730    4.4036    4.4833 C   0  0  0  0  0  0  0  0  0  0  0  0
   71.5639    2.4936    0.5628 H   0  0  0  0  0  0  0  0  0  0  0  0
   73.4541    4.3217    1.0612 H   0  0  0  0  0  0  0  0  0  0  0  0
   75.3394    0.7022   -0.0176 H   0  0  0  0  0  0  0  0  0  0  0  0
   78.7699    4.3313    0.9573 H   0  0  0  0  0  0  0  0  0  0  0  0
   80.6501    2.4598    0.4982 H   0  0  0  0  0  0  0  0  0  0  0  0
   80.6169   -2.6524   -0.8391 H   0  0  0  0  0  0  0  0  0  0  0  0
   78.7229   -4.4532   -1.4276 H   0  0  0  0  0  0  0  0  0  0  0  0
   75.1132   -5.4116    2.6016 H   0  0  0  0  0  0  0  0  0  0  0  0
   76.1228   -6.7410    1.9741 H   0  0  0  0  0  0  0  0  0  0  0  0
   74.3831   -6.6643    1.5632 H   0  0  0  0  0  0  0  0  0  0  0  0
   75.6589   -7.8364   -0.0551 H   0  0  0  0  0  0  0  0  0  0  0  0
   76.1374   -8.6161   -2.3399 H   0  0  0  0  0  0  0  0  0  0  0  0
   76.5400   -6.9761   -4.1589 H   0  0  0  0  0  0  0  0  0  0  0  0
   76.1692   -2.8934   -5.1442 H   0  0  0  0  0  0  0  0  0  0  0  0
   75.1008   -3.0190   -3.7216 H   0  0  0  0  0  0  0  0  0  0  0  0
   76.7916   -2.4701   -3.5301 H   0  0  0  0  0  0  0  0  0  0  0  0
   73.4215   -4.4101   -1.5170 H   0  0  0  0  0  0  0  0  0  0  0  0
   71.5325   -2.5669   -0.9632 H   0  0  0  0  0  0  0  0  0  0  0  0
   76.8451   -0.8121   -0.4055 H   0  0  0  0  0  0  0  0  0  0  0  0
   75.6392    6.8331   -2.3043 H   0  0  0  0  0  0  0  0  0  0  0  0
   73.9647    6.6996   -1.6881 H   0  0  0  0  0  0  0  0  0  0  0  0
   74.5743    5.5247   -2.8831 H   0  0  0  0  0  0  0  0  0  0  0  0
   75.3875    7.7994   -0.1564 H   0  0  0  0  0  0  0  0  0  0  0  0
   76.1752    8.4567    2.0729 H   0  0  0  0  0  0  0  0  0  0  0  0
   76.9296    6.7761    3.6945 H   0  0  0  0  0  0  0  0  0  0  0  0
   78.3690    5.0334    4.4272 H   0  0  0  0  0  0  0  0  0  0  0  0
   77.7367    3.4438    4.9314 H   0  0  0  0  0  0  0  0  0  0  0  0
   76.7201    4.8984    5.1086 H   0  0  0  0  0  0  0  0  0  0  0  0
  1  2  4  0  0  0  0
  2  3  4  0  0  0  0
  3  4  2  0  0  0  0
  4  5  4  0  0  0  0
  2  6  4  0  0  0  0
  5  6  4  0  0  0  0
  5  7  4  0  0  0  0
  7  8  4  0  0  0  0
  8  9  1  0  0  0  0
  9 10  2  0  0  0  0
  8 11  4  0  0  0  0
 10 12  1  0  0  0  0
 11 12  4  0  0  0  0
 12 13  4  0  0  0  0
 13 14  4  0  0  0  0
 14 15  4  0  0  0  0
 15 16  2  0  0  0  0
 16 17  4  0  0  0  0
 17 18  4  0  0  0  0
 18 19  1  0  0  0  0
 19 20  4  0  0  0  0
 20 21  1  0  0  0  0
 21 22  1  0  0  0  0
 20 23  4  0  0  0  0
 23 24  4  0  0  0  0
 24 25  4  0  0  0  0
 19 26  4  0  0  0  0
 25 26  4  0  0  0  0
 26 27  1  0  0  0  0
 27 28  1  0  0  0  0
 18 29  4  0  0  0  0
 29 30  1  0  0  0  0
 30 31  2  0  0  0  0
  1 32  4  0  0  0  0
 31 32  1  0  0  0  0
 29 33  4  0  0  0  0
 32 33  4  0  0  0  0
 14 34  4  0  0  0  0
 17 34  4  0  0  0  0
  7 35  1  0  0  0  0
 35 36  4  0  0  0  0
 36 37  1  0  0  0  0
 37 38  1  0  0  0  0
 36 39  4  0  0  0  0
 39 40  4  0  0  0  0
 40 41  4  0  0  0  0
 35 42  4  0  0  0  0
 41 42  4  0  0  0  0
 42 43  1  0  0  0  0
 43 44  1  0  0  0  0
  1 45  1  0  0  0  0
  3 46  1  0  0  0  0
  4 47  1  0  0  0  0
  6 48  1  0  0  0  0
  9 49  1  0  0  0  0
 10 50  1  0  0  0  0
 15 51  1  0  0  0  0
 16 52  1  0  0  0  0
 22 53  1  0  0  0  0
 22 54  1  0  0  0  0
 22 55  1  0  0  0  0
 23 56  1  0  0  0  0
 24 57  1  0  0  0  0
 25 58  1  0  0  0  0
 28 59  1  0  0  0  0
 28 60  1  0  0  0  0
 28 61  1  0  0  0  0
 30 62  1  0  0  0  0
 31 63  1  0  0  0  0
 34 64  1  0  0  0  0
 38 65  1  0  0  0  0
 38 66  1  0  0  0  0
 38 67  1  0  0  0  0
 39 68  1  0  0  0  0
 40 69  1  0  0  0  0
 41 70  1  0  0  0  0
 44 71  1  0  0  0  0
 44 72  1  0  0  0  0
 44 73  1  0  0  0  0
 74 75  4  0  0  0  0
 75 76  4  0  0  0  0
 76 77  2  0  0  0  0
 77 78  4  0  0  0  0
 75 79  4  0  0  0  0
 78 79  4  0  0  0  0
 78 80  4  0  0  0  0
 80 81  4  0  0  0  0
 81 82  1  0  0  0  0
 82 83  2  0  0  0  0
 81 84  4  0  0  0  0
 83 85  1  0  0  0  0
 84 85  4  0  0  0  0
 85 86  4  0  0  0  0
 86 87  4  0  0  0  0
 87 88  4  0  0  0  0
 88 89  2  0  0  0  0
 89 90  4  0  0  0  0
 90 91  4  0  0  0  0
 91 92  1  0  0  0  0
 92 93  4  0  0  0  0
 93 94  1  0  0  0  0
 94 95  1  0  0  0  0
 93 96  4  0  0  0  0
 96 97  4  0  0  0  0
 97 98  4  0  0  0  0
 92 99  4  0  0  0  0
 98 99  4  0  0  0  0
 99100  1  0  0  0  0
100101  1  0  0  0  0
 91102  4  0  0  0  0
102103  1  0  0  0  0
103104  2  0  0  0  0
 74105  4  0  0  0  0
104105  1  0  0  0  0
102106  4  0  0  0  0
105106  4  0  0  0  0
 87107  4  0  0  0  0
 90107  4  0  0  0  0
 80108  1  0  0  0  0
108109  4  0  0  0  0
109110  1  0  0  0  0
110111  1  0  0  0  0
109112  4  0  0  0  0
112113  4  0  0  0  0
113114  4  0  0  0  0
108115  4  0  0  0  0
114115  4  0  0  0  0
115116  1  0  0  0  0
116117  1  0  0  0  0
 74118  1  0  0  0  0
 76119  1  0  0  0  0
 77120  1  0  0  0  0
 79121  1  0  0  0  0
 82122  1  0  0  0  0
 83123  1  0  0  0  0
 88124  1  0  0  0  0
 89125  1  0  0  0  0
 95126  1  0  0  0  0
 95127  1  0  0  0  0
 95128  1  0  0  0  0
 96129  1  0  0  0  0
 97130  1  0  0  0  0
 98131  1  0  0  0  0
101132  1  0  0  0  0
101133  1  0  0  0  0
101134  1  0  0  0  0
103135  1  0  0  0  0
104136  1  0  0  0  0
107137  1  0  0  0  0
111138  1  0  0  0  0
111139  1  0  0  0  0
111140  1  0  0  0  0
112141  1  0  0  0  0
113142  1  0  0  0  0
114143  1  0  0  0  0
117144  1  0  0  0  0
117145  1  0  0  0  0
117146  1  0  0  0  0
 13147  4  0  0  0  0
147148  3  0  0  0  0
148149  4  0  0  0  0
149150  3  0  0  0  0
150151  4  0  0  0  0
151152  3  0  0  0  0
152153  4  0  0  0  0
153154  3  0  0  0  0
155156  3  0  0  0  0
156157  4  0  0  0  0
157158  3  0  0  0  0
158159  4  0  0  0  0
159160  3  0  0  0  0
160161  4  0  0  0  0
161162  3  0  0  0  0
163164  3  0  0  0  0
164165  4  0  0  0  0
165166  3  0  0  0  0
166167  4  0  0  0  0
167168  3  0  0  0  0
168169  4  0  0  0  0
 86170  4  0  0  0  0
169170  3  0  0  0  0
154171  4  0  0  0  0
171172  4  0  0  0  0
172173  4  0  0  0  0
173174  2  0  0  0  0
174175  4  0  0  0  0
172176  4  0  0  0  0
175176  4  0  0  0  0
175177  4  0  0  0  0
177178  4  0  0  0  0
178179  1  0  0  0  0
179180  2  0  0  0  0
178181  4  0  0  0  0
180182  1  0  0  0  0
181182  4  0  0  0  0
155183  4  0  0  0  0
182183  4  0  0  0  0
183184  4  0  0  0  0
184185  4  0  0  0  0
185186  2  0  0  0  0
186187  4  0  0  0  0
187188  4  0  0  0  0
188189  1  0  0  0  0
189190  4  0  0  0  0
190191  1  0  0  0  0
191192  1  0  0  0  0
190193  4  0  0  0  0
193194  4  0  0  0  0
194195  4  0  0  0  0
189196  4  0  0  0  0
195196  4  0  0  0  0
196197  1  0  0  0  0
197198  1  0  0  0  0
188199  4  0  0  0  0
199200  1  0  0  0  0
200201  2  0  0  0  0
171202  4  0  0  0  0
201202  1  0  0  0  0
199203  4  0  0  0  0
202203  4  0  0  0  0
184204  4  0  0  0  0
187204  4  0  0  0  0
177205  1  0  0  0  0
205206  4  0  0  0  0
206207  1  0  0  0  0
207208  1  0  0  0  0
206209  4  0  0  0  0
209210  4  0  0  0  0
210211  4  0  0  0  0
205212  4  0  0  0  0
211212  4  0  0  0  0
212213  1  0  0  0  0
213214  1  0  0  0  0
173215  1  0  0  0  0
174216  1  0  0  0  0
176217  1  0  0  0  0
179218  1  0  0  0  0
180219  1  0  0  0  0
185220  1  0  0  0  0
186221  1  0  0  0  0
192222  1  0  0  0  0
192223  1  0  0  0  0
192224  1  0  0  0  0
193225  1  0  0  0  0
194226  1  0  0  0  0
195227  1  0  0  0  0
198228  1  0  0  0  0
198229  1  0  0  0  0
198230  1  0  0  0  0
200231  1  0  0  0  0
201232  1  0  0  0  0
204233  1  0  0  0  0
208234  1  0  0  0  0
208235  1  0  0  0  0
208236  1  0  0  0  0
209237  1  0  0  0  0
210238  1  0  0  0  0
211239  1  0  0  0  0
214240  1  0  0  0  0
214241  1  0  0  0  0
214242  1  0  0  0  0
162243  4  0  0  0  0
243244  4  0  0  0  0
244245  4  0  0  0  0
245246  2  0  0  0  0
246247  4  0  0  0  0
244248  4  0  0  0  0
247248  4  0  0  0  0
247249  4  0  0  0  0
249250  4  0  0  0  0
250251  1  0  0  0  0
251252  2  0  0  0  0
250253  4  0  0  0  0
252254  1  0  0  0  0
253254  4  0  0  0  0
163255  4  0  0  0  0
254255  4  0  0  0  0
255256  4  0  0  0  0
256257  4  0  0  0  0
257258  2  0  0  0  0
258259  4  0  0  0  0
259260  4  0  0  0  0
260261  1  0  0  0  0
261262  4  0  0  0  0
262263  1  0  0  0  0
263264  1  0  0  0  0
262265  4  0  0  0  0
265266  4  0  0  0  0
266267  4  0  0  0  0
261268  4  0  0  0  0
267268  4  0  0  0  0
268269  1  0  0  0  0
269270  1  0  0  0  0
260271  4  0  0  0  0
271272  1  0  0  0  0
272273  2  0  0  0  0
243274  4  0  0  0  0
273274  1  0  0  0  0
271275  4  0  0  0  0
274275  4  0  0  0  0
256276  4  0  0  0  0
259276  4  0  0  0  0
249277  1  0  0  0  0
277278  4  0  0  0  0
278279  1  0  0  0  0
279280  1  0  0  0  0
278281  4  0  0  0  0
281282  4  0  0  0  0
282283  4  0  0  0  0
277284  4  0  0  0  0
283284  4  0  0  0  0
284285  1  0  0  0  0
285286  1  0  0  0  0
245287  1  0  0  0  0
246288  1  0  0  0  0
248289  1  0  0  0  0
251290  1  0  0  0  0
252291  1  0  0  0  0
257292  1  0  0  0  0
258293  1  0  0  0  0
264294  1  0  0  0  0
264295  1  0  0  0  0
264296  1  0  0  0  0
265297  1  0  0  0  0
266298  1  0  0  0  0
267299  1  0  0  0  0
270300  1  0  0  0  0
270301  1  0  0  0  0
270302  1  0  0  0  0
272303  1  0  0  0  0
273304  1  0  0  0  0
276305  1  0  0  0  0
280306  1  0  0  0  0
280307  1  0  0  0  0
280308  1  0  0  0  0
281309  1  0  0  0  0
282310  1  0  0  0  0
283311  1  0  0  0  0
286312  1  0  0  0  0
286313  1  0  0  0  0
286314  1  0  0  0  0
M  END
