 xtb: 6.5.1 (b24c23e)
          07302205263D

195230  0     0  0            999 V2000
   27.2010   -0.0014   -0.0644 Ni  0  0  0  0  0  0  0  0  0  0  0  0
   23.8113   -0.0207   -0.1947 C   0  0  0  0  0  0  0  0  0  0  0  0
   24.4677   -1.2330   -0.2365 C   0  0  0  0  0  0  0  0  0  0  0  0
   23.7963   -2.4956   -0.2942 C   0  0  0  0  0  0  0  0  0  0  0  0
   24.7574   -3.4414   -0.4075 C   0  0  0  0  0  0  0  0  0  0  0  0
   26.0152   -2.7529   -0.4370 C   0  0  0  0  0  0  0  0  0  0  0  0
   25.8288   -1.4015   -0.2911 N   0  0  0  0  0  0  0  0  0  0  0  0
   27.2389   -3.3780   -0.6404 C   0  0  0  0  0  0  0  0  0  0  0  0
   27.2619   -4.8393   -0.8787 C   0  0  0  0  0  0  0  0  0  0  0  0
   27.9411   -5.6850    0.0035 C   0  0  0  0  0  0  0  0  0  0  0  0
   27.9683   -7.0506   -0.2127 C   0  0  0  0  0  0  0  0  0  0  0  0
   27.3156   -7.5746   -1.3249 C   0  0  0  0  0  0  0  0  0  0  0  0
   27.3455   -9.0076   -1.5598 N   0  0  0  0  0  0  0  0  0  0  0  0
   26.7654   -9.4259   -2.5288 O   0  0  0  0  0  0  0  0  0  0  0  0
   27.9476   -9.6895   -0.7708 O   0  0  0  0  0  0  0  0  0  0  0  0
   26.6361   -6.7497   -2.2166 C   0  0  0  0  0  0  0  0  0  0  0  0
   26.6098   -5.3859   -1.9879 C   0  0  0  0  0  0  0  0  0  0  0  0
   28.4452   -2.6889   -0.6401 C   0  0  0  0  0  0  0  0  0  0  0  0
   29.7091   -3.2954   -0.9309 C   0  0  0  0  0  0  0  0  0  0  0  0
   30.6502   -2.3352   -0.7658 C   0  0  0  0  0  0  0  0  0  0  0  0
   28.6078   -1.3565   -0.3384 N   0  0  0  0  0  0  0  0  0  0  0  0
   29.9591   -1.1466   -0.3796 C   0  0  0  0  0  0  0  0  0  0  0  0
   30.6132    0.0322   -0.0114 C   0  0  0  0  0  0  0  0  0  0  0  0
   29.9254    1.1923    0.3551 C   0  0  0  0  0  0  0  0  0  0  0  0
   30.5801    2.3835    0.7932 C   0  0  0  0  0  0  0  0  0  0  0  0
   29.6134    3.3161    0.9682 C   0  0  0  0  0  0  0  0  0  0  0  0
   28.3716    2.6936    0.6212 C   0  0  0  0  0  0  0  0  0  0  0  0
   28.5715    1.3744    0.2849 N   0  0  0  0  0  0  0  0  0  0  0  0
   27.1541    3.3616    0.5857 C   0  0  0  0  0  0  0  0  0  0  0  0
   27.1348    4.8149    0.8688 C   0  0  0  0  0  0  0  0  0  0  0  0
   26.4044    5.3144    1.9512 C   0  0  0  0  0  0  0  0  0  0  0  0
   26.3861    6.6709    2.2203 C   0  0  0  0  0  0  0  0  0  0  0  0
   27.0996    7.5362    1.3959 C   0  0  0  0  0  0  0  0  0  0  0  0
   27.0817    8.9620    1.6723 N   0  0  0  0  0  0  0  0  0  0  0  0
   26.4369    9.3387    2.6171 O   0  0  0  0  0  0  0  0  0  0  0  0
   27.7122    9.6799    0.9392 O   0  0  0  0  0  0  0  0  0  0  0  0
   27.8301    7.0595    0.3111 C   0  0  0  0  0  0  0  0  0  0  0  0
   27.8465    5.7008    0.0542 C   0  0  0  0  0  0  0  0  0  0  0  0
   25.9557    2.7263    0.2851 C   0  0  0  0  0  0  0  0  0  0  0  0
   24.6955    3.4021    0.1745 C   0  0  0  0  0  0  0  0  0  0  0  0
   23.7597    2.4511   -0.0509 C   0  0  0  0  0  0  0  0  0  0  0  0
   24.4490    1.1972   -0.0857 C   0  0  0  0  0  0  0  0  0  0  0  0
   25.7990    1.3781    0.0864 N   0  0  0  0  0  0  0  0  0  0  0  0
   22.7287   -0.0261   -0.2414 H   0  0  0  0  0  0  0  0  0  0  0  0
   22.7264   -2.6213   -0.2490 H   0  0  0  0  0  0  0  0  0  0  0  0
   24.6387   -4.5112   -0.4644 H   0  0  0  0  0  0  0  0  0  0  0  0
   28.4374   -5.2647    0.8705 H   0  0  0  0  0  0  0  0  0  0  0  0
   28.4869   -7.7148    0.4682 H   0  0  0  0  0  0  0  0  0  0  0  0
   26.1402   -7.1823   -3.0772 H   0  0  0  0  0  0  0  0  0  0  0  0
   26.0949   -4.7314   -2.6815 H   0  0  0  0  0  0  0  0  0  0  0  0
   29.8479   -4.3212   -1.2304 H   0  0  0  0  0  0  0  0  0  0  0  0
   31.7185   -2.4106   -0.8874 H   0  0  0  0  0  0  0  0  0  0  0  0
   31.6431    2.4777    0.9446 H   0  0  0  0  0  0  0  0  0  0  0  0
   29.7217    4.3337    1.3060 H   0  0  0  0  0  0  0  0  0  0  0  0
   25.8622    4.6289    2.5919 H   0  0  0  0  0  0  0  0  0  0  0  0
   25.8287    7.0672    3.0605 H   0  0  0  0  0  0  0  0  0  0  0  0
   28.3733    7.7545   -0.3178 H   0  0  0  0  0  0  0  0  0  0  0  0
   28.4021    5.3177   -0.7938 H   0  0  0  0  0  0  0  0  0  0  0  0
   24.5589    4.4683    0.2547 H   0  0  0  0  0  0  0  0  0  0  0  0
   22.6958    2.5673   -0.1822 H   0  0  0  0  0  0  0  0  0  0  0  0
   64.3319    0.0404   -0.0309 Ni  0  0  0  0  0  0  0  0  0  0  0  0
   67.7208    0.1030   -0.1630 C   0  0  0  0  0  0  0  0  0  0  0  0
   67.0678    1.2428    0.2576 C   0  0  0  0  0  0  0  0  0  0  0  0
   67.7423    2.4345    0.6739 C   0  0  0  0  0  0  0  0  0  0  0  0
   66.7835    3.3570    0.9210 C   0  0  0  0  0  0  0  0  0  0  0  0
   65.5240    2.7316    0.6392 C   0  0  0  0  0  0  0  0  0  0  0  0
   65.7070    1.4224    0.2724 N   0  0  0  0  0  0  0  0  0  0  0  0
   64.3015    3.3899    0.6842 C   0  0  0  0  0  0  0  0  0  0  0  0
   64.2824    4.8360    1.0018 C   0  0  0  0  0  0  0  0  0  0  0  0
   63.6056    5.2984    2.1345 C   0  0  0  0  0  0  0  0  0  0  0  0
   63.5824    6.6474    2.4376 C   0  0  0  0  0  0  0  0  0  0  0  0
   64.2370    7.5431    1.5968 C   0  0  0  0  0  0  0  0  0  0  0  0
   64.2117    8.9616    1.9076 N   0  0  0  0  0  0  0  0  0  0  0  0
   64.7939    9.7064    1.1615 O   0  0  0  0  0  0  0  0  0  0  0  0
   63.6102    9.3059    2.8924 O   0  0  0  0  0  0  0  0  0  0  0  0
   64.9142    7.1036    0.4629 C   0  0  0  0  0  0  0  0  0  0  0  0
   64.9364    5.7516    0.1721 C   0  0  0  0  0  0  0  0  0  0  0  0
   63.0932    2.7506    0.4367 C   0  0  0  0  0  0  0  0  0  0  0  0
   61.8292    3.4219    0.3989 C   0  0  0  0  0  0  0  0  0  0  0  0
   60.8859    2.4681    0.2108 C   0  0  0  0  0  0  0  0  0  0  0  0
   62.9281    1.4004    0.2304 N   0  0  0  0  0  0  0  0  0  0  0  0
   61.5758    1.2203    0.1286 C   0  0  0  0  0  0  0  0  0  0  0  0
   60.9207   -0.0117    0.0474 C   0  0  0  0  0  0  0  0  0  0  0  0
   61.6082   -1.2248   -0.0497 C   0  0  0  0  0  0  0  0  0  0  0  0
   60.9544   -2.4940   -0.0783 C   0  0  0  0  0  0  0  0  0  0  0  0
   61.9185   -3.4231   -0.2840 C   0  0  0  0  0  0  0  0  0  0  0  0
   63.1578   -2.7146   -0.3936 C   0  0  0  0  0  0  0  0  0  0  0  0
   62.9599   -1.3659   -0.2056 N   0  0  0  0  0  0  0  0  0  0  0  0
   64.3709   -3.3186   -0.6995 C   0  0  0  0  0  0  0  0  0  0  0  0
   64.3861   -4.7703   -0.9906 C   0  0  0  0  0  0  0  0  0  0  0  0
   65.1307   -5.6439   -0.1925 C   0  0  0  0  0  0  0  0  0  0  0  0
   65.1464   -7.0004   -0.4614 C   0  0  0  0  0  0  0  0  0  0  0  0
   64.4158   -7.4870   -1.5416 C   0  0  0  0  0  0  0  0  0  0  0  0
   64.4318   -8.9102   -1.8308 N   0  0  0  0  0  0  0  0  0  0  0  0
   65.0901   -9.6178   -1.1123 O   0  0  0  0  0  0  0  0  0  0  0  0
   63.7861   -9.2952   -2.7716 O   0  0  0  0  0  0  0  0  0  0  0  0
   63.6702   -6.6337   -2.3501 C   0  0  0  0  0  0  0  0  0  0  0  0
   63.6565   -5.2797   -2.0691 C   0  0  0  0  0  0  0  0  0  0  0  0
   65.5688   -2.6166   -0.7522 C   0  0  0  0  0  0  0  0  0  0  0  0
   66.8251   -3.2001   -1.1238 C   0  0  0  0  0  0  0  0  0  0  0  0
   67.7635   -2.2366   -0.9749 C   0  0  0  0  0  0  0  0  0  0  0  0
   67.0793   -1.0637   -0.5225 C   0  0  0  0  0  0  0  0  0  0  0  0
   65.7297   -1.2947   -0.4229 N   0  0  0  0  0  0  0  0  0  0  0  0
   68.8033    0.1237   -0.2084 H   0  0  0  0  0  0  0  0  0  0  0  0
   68.8125    2.5320    0.7613 H   0  0  0  0  0  0  0  0  0  0  0  0
   66.9049    4.3710    1.2656 H   0  0  0  0  0  0  0  0  0  0  0  0
   63.1083    4.5892    2.7859 H   0  0  0  0  0  0  0  0  0  0  0  0
   63.0657    7.0149    3.3161 H   0  0  0  0  0  0  0  0  0  0  0  0
   65.4116    7.8219   -0.1777 H   0  0  0  0  0  0  0  0  0  0  0  0
   65.4495    5.3979   -0.7145 H   0  0  0  0  0  0  0  0  0  0  0  0
   61.6916    4.4862    0.4964 H   0  0  0  0  0  0  0  0  0  0  0  0
   59.8169    2.5832    0.1354 H   0  0  0  0  0  0  0  0  0  0  0  0
   59.8935   -2.6393    0.0456 H   0  0  0  0  0  0  0  0  0  0  0  0
   61.8103   -4.4932   -0.3515 H   0  0  0  0  0  0  0  0  0  0  0  0
   65.6864   -5.2538    0.6522 H   0  0  0  0  0  0  0  0  0  0  0  0
   65.7151   -7.6864    0.1549 H   0  0  0  0  0  0  0  0  0  0  0  0
   63.1134   -7.0371   -3.1873 H   0  0  0  0  0  0  0  0  0  0  0  0
   63.0892   -4.6030   -2.6974 H   0  0  0  0  0  0  0  0  0  0  0  0
   66.9579   -4.2158   -1.4591 H   0  0  0  0  0  0  0  0  0  0  0  0
   68.8260   -2.2952   -1.1488 H   0  0  0  0  0  0  0  0  0  0  0  0
   32.0178    0.0472   -0.0000 C   0  0  0  0  0  0  0  0  0  0  0  0
   33.2418    0.0538    0.0077 C   0  0  0  0  0  0  0  0  0  0  0  0
   34.5847    0.0604    0.0147 C   0  0  0  0  0  0  0  0  0  0  0  0
   35.8150    0.0601    0.0180 C   0  0  0  0  0  0  0  0  0  0  0  0
   37.1531    0.0552    0.0206 C   0  0  0  0  0  0  0  0  0  0  0  0
   38.3834    0.0502    0.0219 C   0  0  0  0  0  0  0  0  0  0  0  0
   39.7261    0.0448    0.0207 C   0  0  0  0  0  0  0  0  0  0  0  0
   40.9503    0.0362    0.0179 C   0  0  0  0  0  0  0  0  0  0  0  0
   50.5843   -0.0063    0.0809 C   0  0  0  0  0  0  0  0  0  0  0  0
   51.8085   -0.0149    0.0943 C   0  0  0  0  0  0  0  0  0  0  0  0
   53.1510   -0.0236    0.1028 C   0  0  0  0  0  0  0  0  0  0  0  0
   54.3815   -0.0317    0.1039 C   0  0  0  0  0  0  0  0  0  0  0  0
   55.7194   -0.0369    0.1013 C   0  0  0  0  0  0  0  0  0  0  0  0
   56.9497   -0.0405    0.0942 C   0  0  0  0  0  0  0  0  0  0  0  0
   58.2925   -0.0369    0.0826 C   0  0  0  0  0  0  0  0  0  0  0  0
   59.5165   -0.0297    0.0683 C   0  0  0  0  0  0  0  0  0  0  0  0
   45.7676    0.0131    0.0060 Ni  0  0  0  0  0  0  0  0  0  0  0  0
   42.3541    0.0286    0.0106 C   0  0  0  0  0  0  0  0  0  0  0  0
   43.0228   -1.1779    0.2386 C   0  0  0  0  0  0  0  0  0  0  0  0
   42.3508   -2.4076    0.5125 C   0  0  0  0  0  0  0  0  0  0  0  0
   43.3004   -3.3743    0.5280 C   0  0  0  0  0  0  0  0  0  0  0  0
   44.5491   -2.7300    0.2561 C   0  0  0  0  0  0  0  0  0  0  0  0
   44.3721   -1.3720    0.1256 N   0  0  0  0  0  0  0  0  0  0  0  0
   45.7526   -3.4041    0.0900 C   0  0  0  0  0  0  0  0  0  0  0  0
   45.7429   -4.8842    0.1187 C   0  0  0  0  0  0  0  0  0  0  0  0
   46.4780   -5.5771    1.0853 C   0  0  0  0  0  0  0  0  0  0  0  0
   46.4677   -6.9597    1.1181 C   0  0  0  0  0  0  0  0  0  0  0  0
   45.7206   -7.6556    0.1721 C   0  0  0  0  0  0  0  0  0  0  0  0
   45.7085   -9.1079    0.2005 N   0  0  0  0  0  0  0  0  0  0  0  0
   45.0432   -9.6759   -0.6270 O   0  0  0  0  0  0  0  0  0  0  0  0
   46.3640   -9.6542    1.0501 O   0  0  0  0  0  0  0  0  0  0  0  0
   44.9844   -6.9848   -0.8003 C   0  0  0  0  0  0  0  0  0  0  0  0
   44.9963   -5.6020   -0.8205 C   0  0  0  0  0  0  0  0  0  0  0  0
   46.9637   -2.7495   -0.0956 C   0  0  0  0  0  0  0  0  0  0  0  0
   48.2109   -3.4166   -0.3145 C   0  0  0  0  0  0  0  0  0  0  0  0
   49.1702   -2.4596   -0.3160 C   0  0  0  0  0  0  0  0  0  0  0  0
   47.1522   -1.3885   -0.0208 N   0  0  0  0  0  0  0  0  0  0  0  0
   48.5052   -1.2124   -0.1131 C   0  0  0  0  0  0  0  0  0  0  0  0
   49.1808   -0.0001    0.0586 C   0  0  0  0  0  0  0  0  0  0  0  0
   48.5093    1.2188    0.1947 C   0  0  0  0  0  0  0  0  0  0  0  0
   49.1778    2.4651    0.3916 C   0  0  0  0  0  0  0  0  0  0  0  0
   48.2287    3.4300    0.3249 C   0  0  0  0  0  0  0  0  0  0  0  0
   46.9838    2.7676    0.0805 C   0  0  0  0  0  0  0  0  0  0  0  0
   47.1620    1.4038    0.0487 N   0  0  0  0  0  0  0  0  0  0  0  0
   45.7835    3.4277   -0.1513 C   0  0  0  0  0  0  0  0  0  0  0  0
   45.7933    4.9059   -0.2322 C   0  0  0  0  0  0  0  0  0  0  0  0
   46.5530    5.5517   -1.2123 C   0  0  0  0  0  0  0  0  0  0  0  0
   46.5612    6.9319   -1.2988 C   0  0  0  0  0  0  0  0  0  0  0  0
   45.8083    7.6732   -0.3927 C   0  0  0  0  0  0  0  0  0  0  0  0
   45.8141    9.1233   -0.4784 N   0  0  0  0  0  0  0  0  0  0  0  0
   46.4832    9.6277   -1.3433 O   0  0  0  0  0  0  0  0  0  0  0  0
   45.1490    9.7315    0.3201 O   0  0  0  0  0  0  0  0  0  0  0  0
   45.0495    7.0498    0.5938 C   0  0  0  0  0  0  0  0  0  0  0  0
   45.0431    5.6688    0.6678 C   0  0  0  0  0  0  0  0  0  0  0  0
   44.5746    2.7612   -0.3068 C   0  0  0  0  0  0  0  0  0  0  0  0
   43.3308    3.4106   -0.5892 C   0  0  0  0  0  0  0  0  0  0  0  0
   42.3708    2.4557   -0.5348 C   0  0  0  0  0  0  0  0  0  0  0  0
   43.0324    1.2263   -0.2354 C   0  0  0  0  0  0  0  0  0  0  0  0
   44.3843    1.4088   -0.1382 N   0  0  0  0  0  0  0  0  0  0  0  0
   41.2883   -2.5039    0.6661 H   0  0  0  0  0  0  0  0  0  0  0  0
   43.1761   -4.4289    0.7116 H   0  0  0  0  0  0  0  0  0  0  0  0
   47.0461   -5.0232    1.8235 H   0  0  0  0  0  0  0  0  0  0  0  0
   47.0286   -7.5057    1.8671 H   0  0  0  0  0  0  0  0  0  0  0  0
   44.4142   -7.5501   -1.5276 H   0  0  0  0  0  0  0  0  0  0  0  0
   44.4360   -5.0676   -1.5787 H   0  0  0  0  0  0  0  0  0  0  0  0
   48.3281   -4.4791   -0.4514 H   0  0  0  0  0  0  0  0  0  0  0  0
   50.2349   -2.5727   -0.4413 H   0  0  0  0  0  0  0  0  0  0  0  0
   50.2380    2.5724    0.5540 H   0  0  0  0  0  0  0  0  0  0  0  0
   48.3505    4.4950    0.4357 H   0  0  0  0  0  0  0  0  0  0  0  0
   47.1259    4.9623   -1.9186 H   0  0  0  0  0  0  0  0  0  0  0  0
   47.1405    7.4415   -2.0594 H   0  0  0  0  0  0  0  0  0  0  0  0
   44.4763    7.6500    1.2901 H   0  0  0  0  0  0  0  0  0  0  0  0
   44.4654    5.1715    1.4381 H   0  0  0  0  0  0  0  0  0  0  0  0
   43.2158    4.4605   -0.8030 H   0  0  0  0  0  0  0  0  0  0  0  0
   41.3080    2.5593   -0.6816 H   0  0  0  0  0  0  0  0  0  0  0  0
  2  3  4  0  0  0  0
  3  4  4  0  0  0  0
  4  5  2  0  0  0  0
  5  6  4  0  0  0  0
  1  7  1  0  0  0  0
  3  7  4  0  0  0  0
  6  7  4  0  0  0  0
  6  8  4  0  0  0  0
  8  9  1  0  0  0  0
  9 10  4  0  0  0  0
 10 11  4  0  0  0  0
 11 12  4  0  0  0  0
 12 13  1  0  0  0  0
 13 14  2  0  0  0  0
 13 15  2  0  0  0  0
 14 15  1  0  0  0  0
 12 16  4  0  0  0  0
  9 17  4  0  0  0  0
 16 17  4  0  0  0  0
  8 18  4  0  0  0  0
 18 19  4  0  0  0  0
 19 20  2  0  0  0  0
  1 21  1  0  0  0  0
 18 21  4  0  0  0  0
 20 22  4  0  0  0  0
 21 22  4  0  0  0  0
 22 23  4  0  0  0  0
 23 24  4  0  0  0  0
 24 25  4  0  0  0  0
 25 26  2  0  0  0  0
 26 27  4  0  0  0  0
  1 28  1  0  0  0  0
 24 28  4  0  0  0  0
 27 28  4  0  0  0  0
 27 29  4  0  0  0  0
 29 30  1  0  0  0  0
 30 31  4  0  0  0  0
 31 32  4  0  0  0  0
 32 33  4  0  0  0  0
 33 34  1  0  0  0  0
 34 35  2  0  0  0  0
 34 36  2  0  0  0  0
 35 36  1  0  0  0  0
 33 37  4  0  0  0  0
 30 38  4  0  0  0  0
 37 38  4  0  0  0  0
 29 39  4  0  0  0  0
 39 40  4  0  0  0  0
 40 41  2  0  0  0  0
  2 42  4  0  0  0  0
 41 42  4  0  0  0  0
  1 43  1  0  0  0  0
 39 43  4  0  0  0  0
 42 43  4  0  0  0  0
  2 44  1  0  0  0  0
  4 45  1  0  0  0  0
  5 46  1  0  0  0  0
 10 47  1  0  0  0  0
 11 48  1  0  0  0  0
 16 49  1  0  0  0  0
 17 50  1  0  0  0  0
 19 51  1  0  0  0  0
 20 52  1  0  0  0  0
 25 53  1  0  0  0  0
 26 54  1  0  0  0  0
 31 55  1  0  0  0  0
 32 56  1  0  0  0  0
 37 57  1  0  0  0  0
 38 58  1  0  0  0  0
 40 59  1  0  0  0  0
 41 60  1  0  0  0  0
 62 63  4  0  0  0  0
 63 64  4  0  0  0  0
 64 65  2  0  0  0  0
 65 66  4  0  0  0  0
 61 67  1  0  0  0  0
 63 67  4  0  0  0  0
 66 67  4  0  0  0  0
 66 68  4  0  0  0  0
 68 69  1  0  0  0  0
 69 70  4  0  0  0  0
 70 71  4  0  0  0  0
 71 72  4  0  0  0  0
 72 73  1  0  0  0  0
 73 74  2  0  0  0  0
 73 75  2  0  0  0  0
 74 75  1  0  0  0  0
 72 76  4  0  0  0  0
 69 77  4  0  0  0  0
 76 77  4  0  0  0  0
 68 78  4  0  0  0  0
 78 79  4  0  0  0  0
 79 80  2  0  0  0  0
 61 81  1  0  0  0  0
 78 81  4  0  0  0  0
 80 82  4  0  0  0  0
 81 82  4  0  0  0  0
 82 83  4  0  0  0  0
 83 84  4  0  0  0  0
 84 85  4  0  0  0  0
 85 86  2  0  0  0  0
 86 87  4  0  0  0  0
 61 88  1  0  0  0  0
 84 88  4  0  0  0  0
 87 88  4  0  0  0  0
 87 89  4  0  0  0  0
 89 90  1  0  0  0  0
 90 91  4  0  0  0  0
 91 92  4  0  0  0  0
 92 93  4  0  0  0  0
 93 94  1  0  0  0  0
 94 95  2  0  0  0  0
 94 96  2  0  0  0  0
 95 96  1  0  0  0  0
 93 97  4  0  0  0  0
 90 98  4  0  0  0  0
 97 98  4  0  0  0  0
 89 99  4  0  0  0  0
 99100  4  0  0  0  0
100101  2  0  0  0  0
 62102  4  0  0  0  0
101102  4  0  0  0  0
 61103  1  0  0  0  0
 99103  4  0  0  0  0
102103  4  0  0  0  0
 62104  1  0  0  0  0
 64105  1  0  0  0  0
 65106  1  0  0  0  0
 70107  1  0  0  0  0
 71108  1  0  0  0  0
 76109  1  0  0  0  0
 77110  1  0  0  0  0
 79111  1  0  0  0  0
 80112  1  0  0  0  0
 85113  1  0  0  0  0
 86114  1  0  0  0  0
 91115  1  0  0  0  0
 92116  1  0  0  0  0
 97117  1  0  0  0  0
 98118  1  0  0  0  0
100119  1  0  0  0  0
101120  1  0  0  0  0
 23121  4  0  0  0  0
121122  3  0  0  0  0
122123  4  0  0  0  0
123124  3  0  0  0  0
124125  4  0  0  0  0
125126  3  0  0  0  0
126127  4  0  0  0  0
127128  3  0  0  0  0
129130  3  0  0  0  0
130131  4  0  0  0  0
131132  3  0  0  0  0
132133  4  0  0  0  0
133134  3  0  0  0  0
134135  4  0  0  0  0
 83136  4  0  0  0  0
135136  3  0  0  0  0
128138  4  0  0  0  0
138139  4  0  0  0  0
139140  4  0  0  0  0
140141  2  0  0  0  0
141142  4  0  0  0  0
137143  1  0  0  0  0
139143  4  0  0  0  0
142143  4  0  0  0  0
142144  4  0  0  0  0
144145  1  0  0  0  0
145146  4  0  0  0  0
146147  4  0  0  0  0
147148  4  0  0  0  0
148149  1  0  0  0  0
149150  2  0  0  0  0
149151  2  0  0  0  0
150151  1  0  0  0  0
148152  4  0  0  0  0
145153  4  0  0  0  0
152153  4  0  0  0  0
144154  4  0  0  0  0
154155  4  0  0  0  0
155156  2  0  0  0  0
137157  1  0  0  0  0
154157  4  0  0  0  0
156158  4  0  0  0  0
157158  4  0  0  0  0
129159  4  0  0  0  0
158159  4  0  0  0  0
159160  4  0  0  0  0
160161  4  0  0  0  0
161162  2  0  0  0  0
162163  4  0  0  0  0
137164  1  0  0  0  0
160164  4  0  0  0  0
163164  4  0  0  0  0
163165  4  0  0  0  0
165166  1  0  0  0  0
166167  4  0  0  0  0
167168  4  0  0  0  0
168169  4  0  0  0  0
169170  1  0  0  0  0
170171  2  0  0  0  0
170172  2  0  0  0  0
171172  1  0  0  0  0
169173  4  0  0  0  0
166174  4  0  0  0  0
173174  4  0  0  0  0
165175  4  0  0  0  0
175176  4  0  0  0  0
176177  2  0  0  0  0
138178  4  0  0  0  0
177178  4  0  0  0  0
137179  1  0  0  0  0
175179  4  0  0  0  0
178179  4  0  0  0  0
140180  1  0  0  0  0
141181  1  0  0  0  0
146182  1  0  0  0  0
147183  1  0  0  0  0
152184  1  0  0  0  0
153185  1  0  0  0  0
155186  1  0  0  0  0
156187  1  0  0  0  0
161188  1  0  0  0  0
162189  1  0  0  0  0
167190  1  0  0  0  0
168191  1  0  0  0  0
173192  1  0  0  0  0
174193  1  0  0  0  0
176194  1  0  0  0  0
177195  1  0  0  0  0
M  END
