 xtb: 6.5.1 (b24c23e)
          07302206253D

191220  0     0  0            999 V2000
   29.4366    0.0083   -0.0011 Cu  0  0  0  0  0  0  0  0  0  0  0  0
   26.0302    0.0528   -0.0618 C   0  0  0  0  0  0  0  0  0  0  0  0
   26.6677    1.2739    0.0964 C   0  0  0  0  0  0  0  0  0  0  0  0
   25.9944    2.5291    0.2707 C   0  0  0  0  0  0  0  0  0  0  0  0
   26.9547    3.4768    0.4048 C   0  0  0  0  0  0  0  0  0  0  0  0
   28.2244    2.8092    0.3044 C   0  0  0  0  0  0  0  0  0  0  0  0
   28.0190    1.4719    0.1260 N   0  0  0  0  0  0  0  0  0  0  0  0
   29.4707    3.4323    0.4082 C   0  0  0  0  0  0  0  0  0  0  0  0
   29.4832    4.9046    0.5838 C   0  0  0  0  0  0  0  0  0  0  0  0
   30.0202    5.4764    1.7411 C   0  0  0  0  0  0  0  0  0  0  0  0
   30.0222    6.8482    1.9053 C   0  0  0  0  0  0  0  0  0  0  0  0
   29.4927    7.6806    0.9136 C   0  0  0  0  0  0  0  0  0  0  0  0
   29.5059    9.1412    1.1122 C   0  0  0  0  0  0  0  0  0  0  0  0
   29.9519    9.6795    2.0931 O   0  0  0  0  0  0  0  0  0  0  0  0
   28.9599    7.1107   -0.2453 C   0  0  0  0  0  0  0  0  0  0  0  0
   28.9530    5.7366   -0.4062 C   0  0  0  0  0  0  0  0  0  0  0  0
   30.7032    2.7778    0.3594 C   0  0  0  0  0  0  0  0  0  0  0  0
   31.9819    3.4278    0.4173 C   0  0  0  0  0  0  0  0  0  0  0  0
   32.9261    2.4579    0.3196 C   0  0  0  0  0  0  0  0  0  0  0  0
   30.8889    1.4284    0.2146 N   0  0  0  0  0  0  0  0  0  0  0  0
   32.2324    1.2114    0.1934 C   0  0  0  0  0  0  0  0  0  0  0  0
   32.8663   -0.0360    0.0542 C   0  0  0  0  0  0  0  0  0  0  0  0
   32.2052   -1.2673   -0.1001 C   0  0  0  0  0  0  0  0  0  0  0  0
   32.8713   -2.5242   -0.2660 C   0  0  0  0  0  0  0  0  0  0  0  0
   31.9061   -3.4694   -0.3933 C   0  0  0  0  0  0  0  0  0  0  0  0
   30.6419   -2.7956   -0.2986 C   0  0  0  0  0  0  0  0  0  0  0  0
   30.8572   -1.4537   -0.1280 N   0  0  0  0  0  0  0  0  0  0  0  0
   29.3955   -3.4164   -0.4029 C   0  0  0  0  0  0  0  0  0  0  0  0
   29.3762   -4.8901   -0.5677 C   0  0  0  0  0  0  0  0  0  0  0  0
   28.8394   -5.4645   -1.7232 C   0  0  0  0  0  0  0  0  0  0  0  0
   28.8165   -6.8393   -1.8771 C   0  0  0  0  0  0  0  0  0  0  0  0
   29.3250   -7.6681   -0.8741 C   0  0  0  0  0  0  0  0  0  0  0  0
   29.3058   -9.1358   -1.0103 C   0  0  0  0  0  0  0  0  0  0  0  0
   29.7260   -9.8915   -0.1719 O   0  0  0  0  0  0  0  0  0  0  0  0
   29.8612   -7.0935    0.2831 C   0  0  0  0  0  0  0  0  0  0  0  0
   29.8896   -5.7204    0.4331 C   0  0  0  0  0  0  0  0  0  0  0  0
   28.1633   -2.7592   -0.3608 C   0  0  0  0  0  0  0  0  0  0  0  0
   26.8791   -3.4034   -0.4230 C   0  0  0  0  0  0  0  0  0  0  0  0
   25.9400   -2.4299   -0.3302 C   0  0  0  0  0  0  0  0  0  0  0  0
   26.6407   -1.1843   -0.2010 C   0  0  0  0  0  0  0  0  0  0  0  0
   27.9873   -1.4132   -0.2188 N   0  0  0  0  0  0  0  0  0  0  0  0
   24.9452    0.0652   -0.0662 H   0  0  0  0  0  0  0  0  0  0  0  0
   24.9233    2.6535    0.2933 H   0  0  0  0  0  0  0  0  0  0  0  0
   26.8219    4.5337    0.5712 H   0  0  0  0  0  0  0  0  0  0  0  0
   30.4197    4.8333    2.5171 H   0  0  0  0  0  0  0  0  0  0  0  0
   30.4304    7.2994    2.8033 H   0  0  0  0  0  0  0  0  0  0  0  0
   29.0667    9.7195    0.2714 H   0  0  0  0  0  0  0  0  0  0  0  0
   28.5511    7.7493   -1.0216 H   0  0  0  0  0  0  0  0  0  0  0  0
   28.5489    5.2974   -1.3114 H   0  0  0  0  0  0  0  0  0  0  0  0
   32.1342    4.4911    0.5071 H   0  0  0  0  0  0  0  0  0  0  0  0
   33.9986    2.5677    0.3251 H   0  0  0  0  0  0  0  0  0  0  0  0
   33.9412   -2.6556   -0.2871 H   0  0  0  0  0  0  0  0  0  0  0  0
   32.0346   -4.5280   -0.5510 H   0  0  0  0  0  0  0  0  0  0  0  0
   28.4537   -4.8232   -2.5078 H   0  0  0  0  0  0  0  0  0  0  0  0
   28.4028   -7.2767   -2.7799 H   0  0  0  0  0  0  0  0  0  0  0  0
   28.8645   -9.4994   -1.9629 H   0  0  0  0  0  0  0  0  0  0  0  0
   30.2506   -7.7450    1.0581 H   0  0  0  0  0  0  0  0  0  0  0  0
   30.2946   -5.2782    1.3363 H   0  0  0  0  0  0  0  0  0  0  0  0
   26.7230   -4.4663   -0.5125 H   0  0  0  0  0  0  0  0  0  0  0  0
   24.8664   -2.5324   -0.3394 H   0  0  0  0  0  0  0  0  0  0  0  0
   61.5232   -0.0353   -0.0235 Cu  0  0  0  0  0  0  0  0  0  0  0  0
   64.9299   -0.0690   -0.0604 C   0  0  0  0  0  0  0  0  0  0  0  0
   64.2934   -1.3006   -0.0832 C   0  0  0  0  0  0  0  0  0  0  0  0
   64.9674   -2.5674   -0.0821 C   0  0  0  0  0  0  0  0  0  0  0  0
   64.0078   -3.5251   -0.0951 C   0  0  0  0  0  0  0  0  0  0  0  0
   62.7378   -2.8508   -0.1142 C   0  0  0  0  0  0  0  0  0  0  0  0
   62.9423   -1.5015   -0.0968 N   0  0  0  0  0  0  0  0  0  0  0  0
   61.4916   -3.4828   -0.1178 C   0  0  0  0  0  0  0  0  0  0  0  0
   61.4798   -4.9650   -0.1559 C   0  0  0  0  0  0  0  0  0  0  0  0
   60.9242   -5.6967    0.8980 C   0  0  0  0  0  0  0  0  0  0  0  0
   60.9222   -7.0778    0.8638 C   0  0  0  0  0  0  0  0  0  0  0  0
   61.4705   -7.7596   -0.2277 C   0  0  0  0  0  0  0  0  0  0  0  0
   61.4561   -9.2336   -0.2413 C   0  0  0  0  0  0  0  0  0  0  0  0
   60.9933   -9.9068    0.6438 O   0  0  0  0  0  0  0  0  0  0  0  0
   62.0222   -7.0296   -1.2833 C   0  0  0  0  0  0  0  0  0  0  0  0
   62.0288   -5.6467   -1.2456 C   0  0  0  0  0  0  0  0  0  0  0  0
   60.2584   -2.8282   -0.0879 C   0  0  0  0  0  0  0  0  0  0  0  0
   58.9804   -3.4799   -0.1439 C   0  0  0  0  0  0  0  0  0  0  0  0
   58.0356   -2.5065   -0.1082 C   0  0  0  0  0  0  0  0  0  0  0  0
   60.0719   -1.4724   -0.0340 N   0  0  0  0  0  0  0  0  0  0  0  0
   58.7283   -1.2549   -0.0386 C   0  0  0  0  0  0  0  0  0  0  0  0
   58.0934   -0.0012    0.0089 C   0  0  0  0  0  0  0  0  0  0  0  0
   58.7535    1.2395    0.0495 C   0  0  0  0  0  0  0  0  0  0  0  0
   58.0864    2.5067    0.0698 C   0  0  0  0  0  0  0  0  0  0  0  0
   59.0510    3.4610    0.0881 C   0  0  0  0  0  0  0  0  0  0  0  0
   60.3157    2.7814    0.0870 C   0  0  0  0  0  0  0  0  0  0  0  0
   60.1013    1.4289    0.0564 N   0  0  0  0  0  0  0  0  0  0  0  0
   61.5618    3.4115    0.0789 C   0  0  0  0  0  0  0  0  0  0  0  0
   61.5807    4.8935    0.1286 C   0  0  0  0  0  0  0  0  0  0  0  0
   62.1237    5.6281   -0.9291 C   0  0  0  0  0  0  0  0  0  0  0  0
   62.1477    7.0107   -0.8830 C   0  0  0  0  0  0  0  0  0  0  0  0
   61.6339    7.6867    0.2263 C   0  0  0  0  0  0  0  0  0  0  0  0
   61.6554    9.1587    0.3037 C   0  0  0  0  0  0  0  0  0  0  0  0
   61.2300    9.7861    1.2396 O   0  0  0  0  0  0  0  0  0  0  0  0
   61.0908    6.9517    1.2853 C   0  0  0  0  0  0  0  0  0  0  0  0
   61.0617    5.5713    1.2357 C   0  0  0  0  0  0  0  0  0  0  0  0
   62.7946    2.7557    0.0307 C   0  0  0  0  0  0  0  0  0  0  0  0
   64.0783    3.4028    0.0696 C   0  0  0  0  0  0  0  0  0  0  0  0
   65.0182    2.4266    0.0279 C   0  0  0  0  0  0  0  0  0  0  0  0
   64.3185    1.1750   -0.0273 C   0  0  0  0  0  0  0  0  0  0  0  0
   62.9717    1.4035   -0.0214 N   0  0  0  0  0  0  0  0  0  0  0  0
   66.0149   -0.0801   -0.0569 H   0  0  0  0  0  0  0  0  0  0  0  0
   66.0384   -2.6932   -0.0653 H   0  0  0  0  0  0  0  0  0  0  0  0
   64.1411   -4.5948   -0.0794 H   0  0  0  0  0  0  0  0  0  0  0  0
   60.5100   -5.1714    1.7512 H   0  0  0  0  0  0  0  0  0  0  0  0
   60.4992   -7.6530    1.6804 H   0  0  0  0  0  0  0  0  0  0  0  0
   61.9150   -9.6855   -1.1465 H   0  0  0  0  0  0  0  0  0  0  0  0
   62.4460   -7.5504   -2.1359 H   0  0  0  0  0  0  0  0  0  0  0  0
   62.4472   -5.0824   -2.0715 H   0  0  0  0  0  0  0  0  0  0  0  0
   58.8292   -4.5448   -0.2152 H   0  0  0  0  0  0  0  0  0  0  0  0
   56.9633   -2.6161   -0.1325 H   0  0  0  0  0  0  0  0  0  0  0  0
   57.0164    2.6391    0.0639 H   0  0  0  0  0  0  0  0  0  0  0  0
   58.9216    4.5312    0.0885 H   0  0  0  0  0  0  0  0  0  0  0  0
   62.5136    5.1064   -1.7959 H   0  0  0  0  0  0  0  0  0  0  0  0
   62.5667    7.5733   -1.7110 H   0  0  0  0  0  0  0  0  0  0  0  0
   62.1016    9.6553   -0.5843 H   0  0  0  0  0  0  0  0  0  0  0  0
   60.6971    7.4850    2.1440 H   0  0  0  0  0  0  0  0  0  0  0  0
   60.6518    5.0039    2.0636 H   0  0  0  0  0  0  0  0  0  0  0  0
   64.2335    4.4677    0.1347 H   0  0  0  0  0  0  0  0  0  0  0  0
   66.0917    2.5300    0.0406 H   0  0  0  0  0  0  0  0  0  0  0  0
   38.0691   -0.0664    0.0625 C   0  0  0  0  0  0  0  0  0  0  0  0
   36.8409   -0.0653    0.0627 C   0  0  0  0  0  0  0  0  0  0  0  0
   35.4961   -0.0594    0.0619 C   0  0  0  0  0  0  0  0  0  0  0  0
   34.2724   -0.0510    0.0588 C   0  0  0  0  0  0  0  0  0  0  0  0
   39.4138   -0.0664    0.0562 C   0  0  0  0  0  0  0  0  0  0  0  0
   40.6377   -0.0611    0.0496 C   0  0  0  0  0  0  0  0  0  0  0  0
   54.1187    0.0221   -0.0038 C   0  0  0  0  0  0  0  0  0  0  0  0
   52.8905    0.0224   -0.0053 C   0  0  0  0  0  0  0  0  0  0  0  0
   51.5458    0.0174   -0.0049 C   0  0  0  0  0  0  0  0  0  0  0  0
   50.3219    0.0086   -0.0061 C   0  0  0  0  0  0  0  0  0  0  0  0
   55.4635    0.0158    0.0036 C   0  0  0  0  0  0  0  0  0  0  0  0
   56.6872    0.0112    0.0064 C   0  0  0  0  0  0  0  0  0  0  0  0
   45.4798   -0.0245    0.0164 Cu  0  0  0  0  0  0  0  0  0  0  0  0
   42.0430   -0.0511    0.0409 C   0  0  0  0  0  0  0  0  0  0  0  0
   42.6851    1.1539    0.3792 C   0  0  0  0  0  0  0  0  0  0  0  0
   42.0004    2.3736    0.6855 C   0  0  0  0  0  0  0  0  0  0  0  0
   42.9514    3.3003    0.9668 C   0  0  0  0  0  0  0  0  0  0  0  0
   44.2239    2.6479    0.8426 C   0  0  0  0  0  0  0  0  0  0  0  0
   44.0289    1.3433    0.4756 N   0  0  0  0  0  0  0  0  0  0  0  0
   45.4618    3.2628    1.0435 C   0  0  0  0  0  0  0  0  0  0  0  0
   45.4545    4.6779    1.4863 C   0  0  0  0  0  0  0  0  0  0  0  0
   46.0300    5.6720    0.6892 C   0  0  0  0  0  0  0  0  0  0  0  0
   46.0209    6.9902    1.1027 C   0  0  0  0  0  0  0  0  0  0  0  0
   45.4414    7.3442    2.3257 C   0  0  0  0  0  0  0  0  0  0  0  0
   45.4473    8.7573    2.7461 C   0  0  0  0  0  0  0  0  0  0  0  0
   45.9278    9.6478    2.0929 O   0  0  0  0  0  0  0  0  0  0  0  0
   44.8684    6.3515    3.1242 C   0  0  0  0  0  0  0  0  0  0  0  0
   44.8725    5.0326    2.7065 C   0  0  0  0  0  0  0  0  0  0  0  0
   46.7065    2.6555    0.8618 C   0  0  0  0  0  0  0  0  0  0  0  0
   47.9720    3.2756    1.1345 C   0  0  0  0  0  0  0  0  0  0  0  0
   48.9330    2.3628    0.8421 C   0  0  0  0  0  0  0  0  0  0  0  0
   46.9154    1.3756    0.4225 N   0  0  0  0  0  0  0  0  0  0  0  0
   48.2614    1.1785    0.3984 C   0  0  0  0  0  0  0  0  0  0  0  0
   48.9164    0.0003   -0.0029 C   0  0  0  0  0  0  0  0  0  0  0  0
   48.2739   -1.1866   -0.3991 C   0  0  0  0  0  0  0  0  0  0  0  0
   48.9574   -2.3602   -0.8528 C   0  0  0  0  0  0  0  0  0  0  0  0
   48.0063   -3.2863   -1.1360 C   0  0  0  0  0  0  0  0  0  0  0  0
   46.7353   -2.6854   -0.8468 C   0  0  0  0  0  0  0  0  0  0  0  0
   46.9308   -1.4033   -0.4078 N   0  0  0  0  0  0  0  0  0  0  0  0
   45.4976   -3.3112   -1.0130 C   0  0  0  0  0  0  0  0  0  0  0  0
   45.5051   -4.7255   -1.4582 C   0  0  0  0  0  0  0  0  0  0  0  0
   46.1034   -5.7112   -0.6684 C   0  0  0  0  0  0  0  0  0  0  0  0
   46.1089   -7.0320   -1.0802 C   0  0  0  0  0  0  0  0  0  0  0  0
   45.5211   -7.3926   -2.2951 C   0  0  0  0  0  0  0  0  0  0  0  0
   45.5167   -8.7921   -2.7584 C   0  0  0  0  0  0  0  0  0  0  0  0
   45.0265   -9.1513   -3.7984 O   0  0  0  0  0  0  0  0  0  0  0  0
   44.9251   -6.4059   -3.0874 C   0  0  0  0  0  0  0  0  0  0  0  0
   44.9142   -5.0882   -2.6724 C   0  0  0  0  0  0  0  0  0  0  0  0
   44.2533   -2.7153   -0.7948 C   0  0  0  0  0  0  0  0  0  0  0  0
   42.9893   -3.3868   -0.9033 C   0  0  0  0  0  0  0  0  0  0  0  0
   42.0284   -2.4753   -0.6066 C   0  0  0  0  0  0  0  0  0  0  0  0
   42.6986   -1.2459   -0.3071 C   0  0  0  0  0  0  0  0  0  0  0  0
   44.0438   -1.4146   -0.4219 N   0  0  0  0  0  0  0  0  0  0  0  0
   40.9295    2.4980    0.6755 H   0  0  0  0  0  0  0  0  0  0  0  0
   42.8076    4.3378    1.2214 H   0  0  0  0  0  0  0  0  0  0  0  0
   46.4694    5.4022   -0.2644 H   0  0  0  0  0  0  0  0  0  0  0  0
   46.4600    7.7682    0.4875 H   0  0  0  0  0  0  0  0  0  0  0  0
   44.9681    8.9418    3.7312 H   0  0  0  0  0  0  0  0  0  0  0  0
   44.4200    6.6170    4.0761 H   0  0  0  0  0  0  0  0  0  0  0  0
   44.4377    4.2624    3.3337 H   0  0  0  0  0  0  0  0  0  0  0  0
   48.1049    4.2754    1.5148 H   0  0  0  0  0  0  0  0  0  0  0  0
   50.0027    2.4701    0.9241 H   0  0  0  0  0  0  0  0  0  0  0  0
   50.0275   -2.4515   -0.9482 H   0  0  0  0  0  0  0  0  0  0  0  0
   48.1491   -4.2831   -1.5205 H   0  0  0  0  0  0  0  0  0  0  0  0
   46.5502   -5.4357    0.2803 H   0  0  0  0  0  0  0  0  0  0  0  0
   46.5701   -7.7917   -0.4576 H   0  0  0  0  0  0  0  0  0  0  0  0
   46.0098   -9.5042   -2.0628 H   0  0  0  0  0  0  0  0  0  0  0  0
   44.4745   -6.6946   -4.0310 H   0  0  0  0  0  0  0  0  0  0  0  0
   44.4617   -4.3239   -3.2939 H   0  0  0  0  0  0  0  0  0  0  0  0
   42.8578   -4.4256   -1.1593 H   0  0  0  0  0  0  0  0  0  0  0  0
   40.9596   -2.6158   -0.5825 H   0  0  0  0  0  0  0  0  0  0  0  0
  2  3  4  0  0  0  0
  3  4  1  0  0  0  0
  4  5  2  0  0  0  0
  5  6  4  0  0  0  0
  1  7  1  0  0  0  0
  3  7  4  0  0  0  0
  6  7  4  0  0  0  0
  6  8  4  0  0  0  0
  8  9  1  0  0  0  0
  9 10  4  0  0  0  0
 10 11  4  0  0  0  0
 11 12  4  0  0  0  0
 12 13  1  0  0  0  0
 13 14  2  0  0  0  0
 12 15  4  0  0  0  0
  9 16  4  0  0  0  0
 15 16  4  0  0  0  0
  8 17  4  0  0  0  0
 17 18  4  0  0  0  0
 18 19  2  0  0  0  0
  1 20  1  0  0  0  0
 17 20  4  0  0  0  0
 19 21  4  0  0  0  0
 20 21  4  0  0  0  0
 21 22  4  0  0  0  0
 22 23  4  0  0  0  0
 23 24  4  0  0  0  0
 24 25  2  0  0  0  0
 25 26  4  0  0  0  0
  1 27  1  0  0  0  0
 23 27  4  0  0  0  0
 26 27  4  0  0  0  0
 26 28  4  0  0  0  0
 28 29  1  0  0  0  0
 29 30  4  0  0  0  0
 30 31  4  0  0  0  0
 31 32  4  0  0  0  0
 32 33  1  0  0  0  0
 33 34  2  0  0  0  0
 32 35  4  0  0  0  0
 29 36  4  0  0  0  0
 35 36  4  0  0  0  0
 28 37  4  0  0  0  0
 37 38  4  0  0  0  0
 38 39  2  0  0  0  0
  2 40  4  0  0  0  0
 39 40  1  0  0  0  0
  1 41  1  0  0  0  0
 37 41  4  0  0  0  0
 40 41  4  0  0  0  0
  2 42  1  0  0  0  0
  4 43  1  0  0  0  0
  5 44  1  0  0  0  0
 10 45  1  0  0  0  0
 11 46  1  0  0  0  0
 13 47  1  0  0  0  0
 15 48  1  0  0  0  0
 16 49  1  0  0  0  0
 18 50  1  0  0  0  0
 19 51  1  0  0  0  0
 24 52  1  0  0  0  0
 25 53  1  0  0  0  0
 30 54  1  0  0  0  0
 31 55  1  0  0  0  0
 33 56  1  0  0  0  0
 35 57  1  0  0  0  0
 36 58  1  0  0  0  0
 38 59  1  0  0  0  0
 39 60  1  0  0  0  0
 62 63  4  0  0  0  0
 63 64  1  0  0  0  0
 64 65  2  0  0  0  0
 65 66  4  0  0  0  0
 61 67  1  0  0  0  0
 63 67  4  0  0  0  0
 66 67  4  0  0  0  0
 66 68  4  0  0  0  0
 68 69  1  0  0  0  0
 69 70  4  0  0  0  0
 70 71  4  0  0  0  0
 71 72  4  0  0  0  0
 72 73  1  0  0  0  0
 73 74  2  0  0  0  0
 72 75  4  0  0  0  0
 69 76  4  0  0  0  0
 75 76  4  0  0  0  0
 68 77  4  0  0  0  0
 77 78  4  0  0  0  0
 78 79  2  0  0  0  0
 61 80  1  0  0  0  0
 77 80  4  0  0  0  0
 79 81  4  0  0  0  0
 80 81  4  0  0  0  0
 81 82  4  0  0  0  0
 82 83  4  0  0  0  0
 83 84  4  0  0  0  0
 84 85  2  0  0  0  0
 85 86  4  0  0  0  0
 61 87  1  0  0  0  0
 83 87  4  0  0  0  0
 86 87  4  0  0  0  0
 86 88  4  0  0  0  0
 88 89  1  0  0  0  0
 89 90  4  0  0  0  0
 90 91  4  0  0  0  0
 91 92  4  0  0  0  0
 92 93  1  0  0  0  0
 93 94  2  0  0  0  0
 92 95  4  0  0  0  0
 89 96  4  0  0  0  0
 95 96  4  0  0  0  0
 88 97  4  0  0  0  0
 97 98  4  0  0  0  0
 98 99  2  0  0  0  0
 62100  4  0  0  0  0
 99100  1  0  0  0  0
 61101  1  0  0  0  0
 97101  4  0  0  0  0
100101  4  0  0  0  0
 62102  1  0  0  0  0
 64103  1  0  0  0  0
 65104  1  0  0  0  0
 70105  1  0  0  0  0
 71106  1  0  0  0  0
 73107  1  0  0  0  0
 75108  1  0  0  0  0
 76109  1  0  0  0  0
 78110  1  0  0  0  0
 79111  1  0  0  0  0
 84112  1  0  0  0  0
 85113  1  0  0  0  0
 90114  1  0  0  0  0
 91115  1  0  0  0  0
 93116  1  0  0  0  0
 95117  1  0  0  0  0
 96118  1  0  0  0  0
 98119  1  0  0  0  0
 99120  1  0  0  0  0
121122  3  0  0  0  0
122123  4  0  0  0  0
 22124  4  0  0  0  0
123124  3  0  0  0  0
121125  4  0  0  0  0
125126  3  0  0  0  0
127128  3  0  0  0  0
128129  4  0  0  0  0
129130  3  0  0  0  0
127131  4  0  0  0  0
 82132  4  0  0  0  0
131132  3  0  0  0  0
126134  4  0  0  0  0
134135  4  0  0  0  0
135136  4  0  0  0  0
136137  2  0  0  0  0
137138  4  0  0  0  0
133139  1  0  0  0  0
135139  4  0  0  0  0
138139  4  0  0  0  0
138140  4  0  0  0  0
140141  1  0  0  0  0
141142  4  0  0  0  0
142143  4  0  0  0  0
143144  4  0  0  0  0
144145  1  0  0  0  0
145146  2  0  0  0  0
144147  4  0  0  0  0
141148  4  0  0  0  0
147148  4  0  0  0  0
140149  4  0  0  0  0
149150  4  0  0  0  0
150151  2  0  0  0  0
133152  1  0  0  0  0
149152  4  0  0  0  0
151153  4  0  0  0  0
152153  4  0  0  0  0
130154  4  0  0  0  0
153154  4  0  0  0  0
154155  4  0  0  0  0
155156  4  0  0  0  0
156157  2  0  0  0  0
157158  4  0  0  0  0
133159  1  0  0  0  0
155159  4  0  0  0  0
158159  4  0  0  0  0
158160  4  0  0  0  0
160161  1  0  0  0  0
161162  4  0  0  0  0
162163  4  0  0  0  0
163164  4  0  0  0  0
164165  1  0  0  0  0
165166  2  0  0  0  0
164167  4  0  0  0  0
161168  4  0  0  0  0
167168  4  0  0  0  0
160169  4  0  0  0  0
169170  4  0  0  0  0
170171  2  0  0  0  0
134172  4  0  0  0  0
171172  4  0  0  0  0
133173  1  0  0  0  0
169173  4  0  0  0  0
172173  4  0  0  0  0
136174  1  0  0  0  0
137175  1  0  0  0  0
142176  1  0  0  0  0
143177  1  0  0  0  0
145178  1  0  0  0  0
147179  1  0  0  0  0
148180  1  0  0  0  0
150181  1  0  0  0  0
151182  1  0  0  0  0
156183  1  0  0  0  0
157184  1  0  0  0  0
162185  1  0  0  0  0
163186  1  0  0  0  0
165187  1  0  0  0  0
167188  1  0  0  0  0
168189  1  0  0  0  0
170190  1  0  0  0  0
171191  1  0  0  0  0
M  END
