 xtb: 6.5.1 (b24c23e)
          07302203143D

186206  0     0  0            999 V2000
   31.6950   -0.0666   -0.0253 C   0  0  0  0  0  0  0  0  0  0  0  0
   32.2988   -1.2922   -0.2745 C   0  0  0  0  0  0  0  0  0  0  0  0
   31.6420   -2.5223   -0.5600 C   0  0  0  0  0  0  0  0  0  0  0  0
   32.5994   -3.4826   -0.7260 C   0  0  0  0  0  0  0  0  0  0  0  0
   33.8724   -2.8728   -0.5331 C   0  0  0  0  0  0  0  0  0  0  0  0
   33.6404   -1.5513   -0.2774 N   0  0  0  0  0  0  0  0  0  0  0  0
   35.1334   -3.4761   -0.5981 C   0  0  0  0  0  0  0  0  0  0  0  0
   35.1658   -4.9320   -0.8689 C   0  0  0  0  0  0  0  0  0  0  0  0
   35.8255   -5.4220   -2.0008 C   0  0  0  0  0  0  0  0  0  0  0  0
   35.8539   -6.7783   -2.2601 C   0  0  0  0  0  0  0  0  0  0  0  0
   35.2283   -7.6783   -1.3909 C   0  0  0  0  0  0  0  0  0  0  0  0
   35.2765   -9.1216   -1.6874 C   0  0  0  0  0  0  0  0  0  0  0  0
   35.8274   -9.5885   -2.6513 O   0  0  0  0  0  0  0  0  0  0  0  0
   34.5714   -7.1909   -0.2584 C   0  0  0  0  0  0  0  0  0  0  0  0
   34.5381   -5.8316   -0.0025 C   0  0  0  0  0  0  0  0  0  0  0  0
   36.3506   -2.8086   -0.4309 C   0  0  0  0  0  0  0  0  0  0  0  0
   37.6431   -3.4708   -0.4157 C   0  0  0  0  0  0  0  0  0  0  0  0
   38.5661   -2.5025   -0.2428 C   0  0  0  0  0  0  0  0  0  0  0  0
   36.5083   -1.4707   -0.2459 N   0  0  0  0  0  0  0  0  0  0  0  0
   37.8367   -1.2523   -0.1469 C   0  0  0  0  0  0  0  0  0  0  0  0
   38.4756   -0.0050   -0.0209 C   0  0  0  0  0  0  0  0  0  0  0  0
   37.8475    1.2471    0.0987 C   0  0  0  0  0  0  0  0  0  0  0  0
   38.4966    2.5062    0.2031 C   0  0  0  0  0  0  0  0  0  0  0  0
   37.5351    3.4656    0.3596 C   0  0  0  0  0  0  0  0  0  0  0  0
   36.2679    2.8190    0.3661 C   0  0  0  0  0  0  0  0  0  0  0  0
   36.5075    1.4829    0.1885 N   0  0  0  0  0  0  0  0  0  0  0  0
   35.0085    3.4132    0.5090 C   0  0  0  0  0  0  0  0  0  0  0  0
   34.9835    4.8738    0.7496 C   0  0  0  0  0  0  0  0  0  0  0  0
   35.6264    5.4177    1.8665 C   0  0  0  0  0  0  0  0  0  0  0  0
   35.5989    6.7798    2.0940 C   0  0  0  0  0  0  0  0  0  0  0  0
   34.9325    7.6322    1.2073 C   0  0  0  0  0  0  0  0  0  0  0  0
   34.9205    9.0826    1.4709 C   0  0  0  0  0  0  0  0  0  0  0  0
   35.4634    9.5951    2.4160 O   0  0  0  0  0  0  0  0  0  0  0  0
   34.2921    7.0911    0.0898 C   0  0  0  0  0  0  0  0  0  0  0  0
   34.3159    5.7263   -0.1347 C   0  0  0  0  0  0  0  0  0  0  0  0
   33.7899    2.7280    0.4483 C   0  0  0  0  0  0  0  0  0  0  0  0
   32.4897    3.3457    0.6610 C   0  0  0  0  0  0  0  0  0  0  0  0
   31.5734    2.3690    0.5080 C   0  0  0  0  0  0  0  0  0  0  0  0
   32.3129    1.1534    0.2155 C   0  0  0  0  0  0  0  0  0  0  0  0
   33.6450    1.4050    0.2010 N   0  0  0  0  0  0  0  0  0  0  0  0
   30.6097   -0.0720   -0.0218 H   0  0  0  0  0  0  0  0  0  0  0  0
   30.5729   -2.6416   -0.6340 H   0  0  0  0  0  0  0  0  0  0  0  0
   32.4437   -4.5211   -0.9690 H   0  0  0  0  0  0  0  0  0  0  0  0
   34.3688   -0.8639   -0.1160 H   0  0  0  0  0  0  0  0  0  0  0  0
   36.3006   -4.7259   -2.6828 H   0  0  0  0  0  0  0  0  0  0  0  0
   36.3584   -7.1652   -3.1390 H   0  0  0  0  0  0  0  0  0  0  0  0
   34.7552   -9.7582   -0.9410 H   0  0  0  0  0  0  0  0  0  0  0  0
   34.0877   -7.8824    0.4238 H   0  0  0  0  0  0  0  0  0  0  0  0
   34.0408   -5.4589    0.8859 H   0  0  0  0  0  0  0  0  0  0  0  0
   37.8002   -4.5331   -0.5090 H   0  0  0  0  0  0  0  0  0  0  0  0
   39.6380   -2.5999   -0.1805 H   0  0  0  0  0  0  0  0  0  0  0  0
   39.5642    2.6505    0.1612 H   0  0  0  0  0  0  0  0  0  0  0  0
   37.6872    4.5284    0.4538 H   0  0  0  0  0  0  0  0  0  0  0  0
   35.7822    0.7750    0.1377 H   0  0  0  0  0  0  0  0  0  0  0  0
   36.1302    4.7589    2.5650 H   0  0  0  0  0  0  0  0  0  0  0  0
   36.0892    7.2078    2.9618 H   0  0  0  0  0  0  0  0  0  0  0  0
   34.3635    9.6786    0.7169 H   0  0  0  0  0  0  0  0  0  0  0  0
   33.7765    7.7455   -0.6056 H   0  0  0  0  0  0  0  0  0  0  0  0
   33.8305    5.3114   -1.0109 H   0  0  0  0  0  0  0  0  0  0  0  0
   32.3259    4.3823    0.9076 H   0  0  0  0  0  0  0  0  0  0  0  0
   30.4996    2.4315    0.5887 H   0  0  0  0  0  0  0  0  0  0  0  0
   60.1720    0.0383    0.0819 C   0  0  0  0  0  0  0  0  0  0  0  0
   59.5680    1.2329    0.4516 C   0  0  0  0  0  0  0  0  0  0  0  0
   60.2263    2.4411    0.8165 C   0  0  0  0  0  0  0  0  0  0  0  0
   59.2689    3.3706    1.1096 C   0  0  0  0  0  0  0  0  0  0  0  0
   57.9941    2.7572    0.9414 C   0  0  0  0  0  0  0  0  0  0  0  0
   58.2257    1.4733    0.5375 N   0  0  0  0  0  0  0  0  0  0  0  0
   56.7334    3.3403    1.1114 C   0  0  0  0  0  0  0  0  0  0  0  0
   56.7078    4.7459    1.5792 C   0  0  0  0  0  0  0  0  0  0  0  0
   56.1244    5.7461    0.7953 C   0  0  0  0  0  0  0  0  0  0  0  0
   56.1013    7.0547    1.2376 C   0  0  0  0  0  0  0  0  0  0  0  0
   56.6563    7.3936    2.4762 C   0  0  0  0  0  0  0  0  0  0  0  0
   56.6140    8.7959    2.9288 C   0  0  0  0  0  0  0  0  0  0  0  0
   56.1267    9.6918    2.2881 O   0  0  0  0  0  0  0  0  0  0  0  0
   57.2391    6.3953    3.2606 C   0  0  0  0  0  0  0  0  0  0  0  0
   57.2672    5.0862    2.8143 C   0  0  0  0  0  0  0  0  0  0  0  0
   55.5144    2.6953    0.8829 C   0  0  0  0  0  0  0  0  0  0  0  0
   54.2165    3.3056    1.1125 C   0  0  0  0  0  0  0  0  0  0  0  0
   53.2949    2.3711    0.8021 C   0  0  0  0  0  0  0  0  0  0  0  0
   55.3595    1.4127    0.4583 N   0  0  0  0  0  0  0  0  0  0  0  0
   54.0300    1.1881    0.3960 C   0  0  0  0  0  0  0  0  0  0  0  0
   53.3945   -0.0117    0.0285 C   0  0  0  0  0  0  0  0  0  0  0  0
   54.0208   -1.2157   -0.3356 C   0  0  0  0  0  0  0  0  0  0  0  0
   53.3681   -2.4076   -0.7505 C   0  0  0  0  0  0  0  0  0  0  0  0
   54.3288   -3.3314   -1.0544 C   0  0  0  0  0  0  0  0  0  0  0  0
   55.5997   -2.7352   -0.8221 C   0  0  0  0  0  0  0  0  0  0  0  0
   55.3616   -1.4572   -0.3923 N   0  0  0  0  0  0  0  0  0  0  0  0
   56.8605   -3.3071   -1.0258 C   0  0  0  0  0  0  0  0  0  0  0  0
   56.8902   -4.7051   -1.5132 C   0  0  0  0  0  0  0  0  0  0  0  0
   56.3107   -5.7350   -0.7654 C   0  0  0  0  0  0  0  0  0  0  0  0
   56.3385   -7.0357   -1.2301 C   0  0  0  0  0  0  0  0  0  0  0  0
   56.9413   -7.3372   -2.4559 C   0  0  0  0  0  0  0  0  0  0  0  0
   56.9516   -8.7319   -2.9331 C   0  0  0  0  0  0  0  0  0  0  0  0
   56.4622   -9.6503   -2.3268 O   0  0  0  0  0  0  0  0  0  0  0  0
   57.5207   -6.3095   -3.2040 C   0  0  0  0  0  0  0  0  0  0  0  0
   57.4972   -5.0082   -2.7357 C   0  0  0  0  0  0  0  0  0  0  0  0
   58.0793   -2.6544   -0.8090 C   0  0  0  0  0  0  0  0  0  0  0  0
   59.3825   -3.2849   -0.9558 C   0  0  0  0  0  0  0  0  0  0  0  0
   60.2980   -2.3471   -0.6409 C   0  0  0  0  0  0  0  0  0  0  0  0
   59.5556   -1.1472   -0.2953 C   0  0  0  0  0  0  0  0  0  0  0  0
   58.2227   -1.3720   -0.4002 N   0  0  0  0  0  0  0  0  0  0  0  0
   61.2573    0.0408    0.0921 H   0  0  0  0  0  0  0  0  0  0  0  0
   61.2964    2.5708    0.8410 H   0  0  0  0  0  0  0  0  0  0  0  0
   59.4254    4.3950    1.4059 H   0  0  0  0  0  0  0  0  0  0  0  0
   57.4964    0.8004    0.3262 H   0  0  0  0  0  0  0  0  0  0  0  0
   55.7046    5.4890   -0.1706 H   0  0  0  0  0  0  0  0  0  0  0  0
   55.6551    7.8371    0.6332 H   0  0  0  0  0  0  0  0  0  0  0  0
   57.0748    8.9672    3.9251 H   0  0  0  0  0  0  0  0  0  0  0  0
   57.6687    6.6485    4.2244 H   0  0  0  0  0  0  0  0  0  0  0  0
   57.7071    4.3114    3.4324 H   0  0  0  0  0  0  0  0  0  0  0  0
   54.0538    4.3071    1.4761 H   0  0  0  0  0  0  0  0  0  0  0  0
   52.2203    2.4464    0.8473 H   0  0  0  0  0  0  0  0  0  0  0  0
   52.2989   -2.5292   -0.8164 H   0  0  0  0  0  0  0  0  0  0  0  0
   54.1733   -4.3337   -1.4188 H   0  0  0  0  0  0  0  0  0  0  0  0
   56.0893   -0.7859   -0.1696 H   0  0  0  0  0  0  0  0  0  0  0  0
   55.8560   -5.5083    0.1924 H   0  0  0  0  0  0  0  0  0  0  0  0
   55.8963   -7.8409   -0.6531 H   0  0  0  0  0  0  0  0  0  0  0  0
   57.4546   -8.8745   -3.9134 H   0  0  0  0  0  0  0  0  0  0  0  0
   57.9877   -6.5337   -4.1576 H   0  0  0  0  0  0  0  0  0  0  0  0
   57.9346   -4.2105   -3.3254 H   0  0  0  0  0  0  0  0  0  0  0  0
   59.5484   -4.3105   -1.2437 H   0  0  0  0  0  0  0  0  0  0  0  0
   61.3733   -2.4305   -0.6268 H   0  0  0  0  0  0  0  0  0  0  0  0
   39.8875    0.0052   -0.0154 C   0  0  0  0  0  0  0  0  0  0  0  0
   41.1033    0.0115   -0.0076 C   0  0  0  0  0  0  0  0  0  0  0  0
   50.7658   -0.0280    0.0126 C   0  0  0  0  0  0  0  0  0  0  0  0
   51.9813   -0.0210    0.0200 C   0  0  0  0  0  0  0  0  0  0  0  0
   42.5147    0.0100   -0.0017 C   0  0  0  0  0  0  0  0  0  0  0  0
   43.1406    1.0372   -0.7295 C   0  0  0  0  0  0  0  0  0  0  0  0
   42.4923    2.0321   -1.5075 C   0  0  0  0  0  0  0  0  0  0  0  0
   43.4565    2.8260   -2.0650 C   0  0  0  0  0  0  0  0  0  0  0  0
   44.7234    2.3461   -1.6325 C   0  0  0  0  0  0  0  0  0  0  0  0
   44.4816    1.2602   -0.8350 N   0  0  0  0  0  0  0  0  0  0  0  0
   45.9851    2.8557   -1.9621 C   0  0  0  0  0  0  0  0  0  0  0  0
   46.0114    4.0461   -2.8440 C   0  0  0  0  0  0  0  0  0  0  0  0
   46.6467    3.9802   -4.0884 C   0  0  0  0  0  0  0  0  0  0  0  0
   46.6645    5.0809   -4.9225 C   0  0  0  0  0  0  0  0  0  0  0  0
   46.0537    6.2765   -4.5295 C   0  0  0  0  0  0  0  0  0  0  0  0
   46.0855    7.4367   -5.4389 C   0  0  0  0  0  0  0  0  0  0  0  0
   46.6040    7.4202   -6.5258 O   0  0  0  0  0  0  0  0  0  0  0  0
   45.4246    6.3459   -3.2842 C   0  0  0  0  0  0  0  0  0  0  0  0
   45.4009    5.2406   -2.4521 C   0  0  0  0  0  0  0  0  0  0  0  0
   47.2068    2.3261   -1.5388 C   0  0  0  0  0  0  0  0  0  0  0  0
   48.4946    2.9342   -1.8246 C   0  0  0  0  0  0  0  0  0  0  0  0
   49.4263    2.1377   -1.2619 C   0  0  0  0  0  0  0  0  0  0  0  0
   47.3754    1.1975   -0.7998 N   0  0  0  0  0  0  0  0  0  0  0  0
   48.7069    1.0472   -0.6324 C   0  0  0  0  0  0  0  0  0  0  0  0
   49.3533   -0.0248    0.0076 C   0  0  0  0  0  0  0  0  0  0  0  0
   48.7269   -1.1064    0.6506 C   0  0  0  0  0  0  0  0  0  0  0  0
   49.3744   -2.1978    1.2871 C   0  0  0  0  0  0  0  0  0  0  0  0
   48.4105   -2.9942    1.8415 C   0  0  0  0  0  0  0  0  0  0  0  0
   47.1450   -2.4070    1.5655 C   0  0  0  0  0  0  0  0  0  0  0  0
   47.3861   -1.2789    0.8294 N   0  0  0  0  0  0  0  0  0  0  0  0
   45.8856   -2.8825    1.9512 C   0  0  0  0  0  0  0  0  0  0  0  0
   45.8713   -4.0875    2.8136 C   0  0  0  0  0  0  0  0  0  0  0  0
   45.2305   -5.2563    2.3932 C   0  0  0  0  0  0  0  0  0  0  0  0
   45.2161   -6.3779    3.2031 C   0  0  0  0  0  0  0  0  0  0  0  0
   45.8385   -6.3517    4.4535 C   0  0  0  0  0  0  0  0  0  0  0  0
   45.8334   -7.5311    5.3385 C   0  0  0  0  0  0  0  0  0  0  0  0
   46.3547   -7.5544    6.4239 O   0  0  0  0  0  0  0  0  0  0  0  0
   46.4792   -5.1820    4.8752 C   0  0  0  0  0  0  0  0  0  0  0  0
   46.4983   -4.0644    4.0636 C   0  0  0  0  0  0  0  0  0  0  0  0
   44.6621   -2.3066    1.6012 C   0  0  0  0  0  0  0  0  0  0  0  0
   43.3739   -2.7928    2.0636 C   0  0  0  0  0  0  0  0  0  0  0  0
   42.4418   -1.9911    1.5090 C   0  0  0  0  0  0  0  0  0  0  0  0
   43.1616   -1.0085    0.7220 C   0  0  0  0  0  0  0  0  0  0  0  0
   44.4924   -1.2165    0.8054 N   0  0  0  0  0  0  0  0  0  0  0  0
   41.4245    2.1154   -1.6299 H   0  0  0  0  0  0  0  0  0  0  0  0
   43.3051    3.6633   -2.7264 H   0  0  0  0  0  0  0  0  0  0  0  0
   45.2040    0.6948   -0.4016 H   0  0  0  0  0  0  0  0  0  0  0  0
   47.1102    3.0512   -4.4006 H   0  0  0  0  0  0  0  0  0  0  0  0
   47.1486    5.0351   -5.8922 H   0  0  0  0  0  0  0  0  0  0  0  0
   45.5845    8.3438   -5.0388 H   0  0  0  0  0  0  0  0  0  0  0  0
   44.9534    7.2712   -2.9690 H   0  0  0  0  0  0  0  0  0  0  0  0
   44.9235    5.3030   -1.4806 H   0  0  0  0  0  0  0  0  0  0  0  0
   48.6424    3.8538   -2.3672 H   0  0  0  0  0  0  0  0  0  0  0  0
   50.4981    2.2553   -1.2577 H   0  0  0  0  0  0  0  0  0  0  0  0
   50.4419   -2.3471    1.3121 H   0  0  0  0  0  0  0  0  0  0  0  0
   48.5600   -3.9120    2.3861 H   0  0  0  0  0  0  0  0  0  0  0  0
   46.6650   -0.6585    0.4769 H   0  0  0  0  0  0  0  0  0  0  0  0
   44.7576   -5.2840    1.4181 H   0  0  0  0  0  0  0  0  0  0  0  0
   44.7206   -7.2827    2.8664 H   0  0  0  0  0  0  0  0  0  0  0  0
   45.3021   -8.4127    4.9209 H   0  0  0  0  0  0  0  0  0  0  0  0
   46.9565   -5.1690    5.8492 H   0  0  0  0  0  0  0  0  0  0  0  0
   46.9830   -3.1548    4.4001 H   0  0  0  0  0  0  0  0  0  0  0  0
   43.2246   -3.6244    2.7330 H   0  0  0  0  0  0  0  0  0  0  0  0
   41.3700   -2.0306    1.6194 H   0  0  0  0  0  0  0  0  0  0  0  0
  1  2  4  0  0  0  0
  2  3  4  0  0  0  0
  3  4  2  0  0  0  0
  4  5  4  0  0  0  0
  2  6  4  0  0  0  0
  5  6  4  0  0  0  0
  5  7  4  0  0  0  0
  7  8  1  0  0  0  0
  8  9  4  0  0  0  0
  9 10  4  0  0  0  0
 10 11  4  0  0  0  0
 11 12  1  0  0  0  0
 12 13  2  0  0  0  0
 11 14  4  0  0  0  0
  8 15  4  0  0  0  0
 14 15  4  0  0  0  0
  7 16  4  0  0  0  0
 16 17  1  0  0  0  0
 17 18  2  0  0  0  0
 16 19  4  0  0  0  0
 18 20  1  0  0  0  0
 19 20  4  0  0  0  0
 20 21  4  0  0  0  0
 21 22  4  0  0  0  0
 22 23  4  0  0  0  0
 23 24  2  0  0  0  0
 24 25  4  0  0  0  0
 22 26  4  0  0  0  0
 25 26  4  0  0  0  0
 25 27  4  0  0  0  0
 27 28  1  0  0  0  0
 28 29  4  0  0  0  0
 29 30  4  0  0  0  0
 30 31  4  0  0  0  0
 31 32  1  0  0  0  0
 32 33  2  0  0  0  0
 31 34  4  0  0  0  0
 28 35  4  0  0  0  0
 34 35  4  0  0  0  0
 27 36  4  0  0  0  0
 36 37  1  0  0  0  0
 37 38  2  0  0  0  0
  1 39  4  0  0  0  0
 38 39  1  0  0  0  0
 36 40  4  0  0  0  0
 39 40  4  0  0  0  0
  1 41  1  0  0  0  0
  3 42  1  0  0  0  0
  4 43  1  0  0  0  0
  6 44  1  0  0  0  0
  9 45  1  0  0  0  0
 10 46  1  0  0  0  0
 12 47  1  0  0  0  0
 14 48  1  0  0  0  0
 15 49  1  0  0  0  0
 17 50  1  0  0  0  0
 18 51  1  0  0  0  0
 23 52  1  0  0  0  0
 24 53  1  0  0  0  0
 26 54  1  0  0  0  0
 29 55  1  0  0  0  0
 30 56  1  0  0  0  0
 32 57  1  0  0  0  0
 34 58  1  0  0  0  0
 35 59  1  0  0  0  0
 37 60  1  0  0  0  0
 38 61  1  0  0  0  0
 62 63  4  0  0  0  0
 63 64  4  0  0  0  0
 64 65  2  0  0  0  0
 65 66  4  0  0  0  0
 63 67  4  0  0  0  0
 66 67  4  0  0  0  0
 66 68  4  0  0  0  0
 68 69  1  0  0  0  0
 69 70  4  0  0  0  0
 70 71  4  0  0  0  0
 71 72  4  0  0  0  0
 72 73  1  0  0  0  0
 73 74  2  0  0  0  0
 72 75  4  0  0  0  0
 69 76  4  0  0  0  0
 75 76  4  0  0  0  0
 68 77  4  0  0  0  0
 77 78  1  0  0  0  0
 78 79  2  0  0  0  0
 77 80  4  0  0  0  0
 79 81  1  0  0  0  0
 80 81  4  0  0  0  0
 81 82  4  0  0  0  0
 82 83  4  0  0  0  0
 83 84  4  0  0  0  0
 84 85  2  0  0  0  0
 85 86  4  0  0  0  0
 83 87  4  0  0  0  0
 86 87  4  0  0  0  0
 86 88  4  0  0  0  0
 88 89  1  0  0  0  0
 89 90  4  0  0  0  0
 90 91  4  0  0  0  0
 91 92  4  0  0  0  0
 92 93  1  0  0  0  0
 93 94  2  0  0  0  0
 92 95  4  0  0  0  0
 89 96  4  0  0  0  0
 95 96  4  0  0  0  0
 88 97  4  0  0  0  0
 97 98  1  0  0  0  0
 98 99  2  0  0  0  0
 62100  4  0  0  0  0
 99100  1  0  0  0  0
 97101  4  0  0  0  0
100101  4  0  0  0  0
 62102  1  0  0  0  0
 64103  1  0  0  0  0
 65104  1  0  0  0  0
 67105  1  0  0  0  0
 70106  1  0  0  0  0
 71107  1  0  0  0  0
 73108  1  0  0  0  0
 75109  1  0  0  0  0
 76110  1  0  0  0  0
 78111  1  0  0  0  0
 79112  1  0  0  0  0
 84113  1  0  0  0  0
 85114  1  0  0  0  0
 87115  1  0  0  0  0
 90116  1  0  0  0  0
 91117  1  0  0  0  0
 93118  1  0  0  0  0
 95119  1  0  0  0  0
 96120  1  0  0  0  0
 98121  1  0  0  0  0
 99122  1  0  0  0  0
 21123  4  0  0  0  0
123124  3  0  0  0  0
 82126  1  0  0  0  0
125126  3  0  0  0  0
124127  4  0  0  0  0
127128  4  0  0  0  0
128129  4  0  0  0  0
129130  2  0  0  0  0
130131  4  0  0  0  0
128132  4  0  0  0  0
131132  4  0  0  0  0
131133  4  0  0  0  0
133134  1  0  0  0  0
134135  4  0  0  0  0
135136  4  0  0  0  0
136137  4  0  0  0  0
137138  1  0  0  0  0
138139  2  0  0  0  0
137140  4  0  0  0  0
134141  4  0  0  0  0
140141  4  0  0  0  0
133142  4  0  0  0  0
142143  1  0  0  0  0
143144  2  0  0  0  0
142145  4  0  0  0  0
144146  1  0  0  0  0
145146  4  0  0  0  0
125147  1  0  0  0  0
146147  4  0  0  0  0
147148  4  0  0  0  0
148149  4  0  0  0  0
149150  2  0  0  0  0
150151  4  0  0  0  0
148152  4  0  0  0  0
151152  4  0  0  0  0
151153  4  0  0  0  0
153154  1  0  0  0  0
154155  4  0  0  0  0
155156  4  0  0  0  0
156157  4  0  0  0  0
157158  1  0  0  0  0
158159  2  0  0  0  0
157160  4  0  0  0  0
154161  4  0  0  0  0
160161  4  0  0  0  0
153162  4  0  0  0  0
162163  1  0  0  0  0
163164  2  0  0  0  0
127165  4  0  0  0  0
164165  1  0  0  0  0
162166  4  0  0  0  0
165166  4  0  0  0  0
129167  1  0  0  0  0
130168  1  0  0  0  0
132169  1  0  0  0  0
135170  1  0  0  0  0
136171  1  0  0  0  0
138172  1  0  0  0  0
140173  1  0  0  0  0
141174  1  0  0  0  0
143175  1  0  0  0  0
144176  1  0  0  0  0
149177  1  0  0  0  0
150178  1  0  0  0  0
152179  1  0  0  0  0
155180  1  0  0  0  0
156181  1  0  0  0  0
158182  1  0  0  0  0
160183  1  0  0  0  0
161184  1  0  0  0  0
163185  1  0  0  0  0
164186  1  0  0  0  0
M  END
