 xtb: 6.5.1 (b24c23e)
          07302210483D

130149  0     0  0            999 V2000
   18.3144    0.0271    0.0575 Ni  0  0  0  0  0  0  0  0  0  0  0  0
   14.9297    0.1339    0.1058 C   0  0  0  0  0  0  0  0  0  0  0  0
   15.5803   -0.3464    1.2237 C   0  0  0  0  0  0  0  0  0  0  0  0
   14.9088   -0.8389    2.3878 C   0  0  0  0  0  0  0  0  0  0  0  0
   15.8660   -1.0927    3.3107 C   0  0  0  0  0  0  0  0  0  0  0  0
   17.1215   -0.7397    2.7142 C   0  0  0  0  0  0  0  0  0  0  0  0
   16.9392   -0.3310    1.4172 N   0  0  0  0  0  0  0  0  0  0  0  0
   18.3349   -0.7347    3.3908 C   0  0  0  0  0  0  0  0  0  0  0  0
   18.3500   -1.0667    4.8342 C   0  0  0  0  0  0  0  0  0  0  0  0
   17.6278   -0.2910    5.7447 C   0  0  0  0  0  0  0  0  0  0  0  0
   17.6460   -0.5937    7.0961 C   0  0  0  0  0  0  0  0  0  0  0  0
   18.3881   -1.6826    7.5239 C   0  0  0  0  0  0  0  0  0  0  0  0
   18.4237   -2.0656    9.2343 S   0  0  0  0  0  0  0  0  0  0  0  0
   18.1344   -0.9044   10.0231 O   0  0  0  0  0  0  0  0  0  0  0  0
   17.1296   -3.0458    9.2823 O   0  0  0  0  0  0  0  0  0  0  0  0
   19.5855   -2.8402    9.5581 O   0  0  0  0  0  0  0  0  0  0  0  0
   19.1151   -2.4699    6.6458 C   0  0  0  0  0  0  0  0  0  0  0  0
   19.0941   -2.1549    5.2972 C   0  0  0  0  0  0  0  0  0  0  0  0
   19.5377   -0.4214    2.7694 C   0  0  0  0  0  0  0  0  0  0  0  0
   20.7913   -0.3187    3.4531 C   0  0  0  0  0  0  0  0  0  0  0  0
   21.7374   -0.1136    2.5051 C   0  0  0  0  0  0  0  0  0  0  0  0
   19.7106   -0.2287    1.4184 N   0  0  0  0  0  0  0  0  0  0  0  0
   21.0616   -0.0901    1.2472 C   0  0  0  0  0  0  0  0  0  0  0  0
   21.7201   -0.0432    0.0160 C   0  0  0  0  0  0  0  0  0  0  0  0
   21.0333    0.0169   -1.1993 C   0  0  0  0  0  0  0  0  0  0  0  0
   21.6776   -0.0044   -2.4736 C   0  0  0  0  0  0  0  0  0  0  0  0
   20.7167    0.2246   -3.4011 C   0  0  0  0  0  0  0  0  0  0  0  0
   19.4869    0.3924   -2.6878 C   0  0  0  0  0  0  0  0  0  0  0  0
   19.6853    0.2073   -1.3392 N   0  0  0  0  0  0  0  0  0  0  0  0
   18.2873    0.7677   -3.2807 C   0  0  0  0  0  0  0  0  0  0  0  0
   18.2847    1.0979   -4.7244 C   0  0  0  0  0  0  0  0  0  0  0  0
   17.4816    0.3808   -5.6146 C   0  0  0  0  0  0  0  0  0  0  0  0
   17.4800    0.6890   -6.9653 C   0  0  0  0  0  0  0  0  0  0  0  0
   18.2870    1.7219   -7.4131 C   0  0  0  0  0  0  0  0  0  0  0  0
   18.2820    2.1270   -9.1206 S   0  0  0  0  0  0  0  0  0  0  0  0
   18.6524    3.4974   -9.3253 O   0  0  0  0  0  0  0  0  0  0  0  0
   19.5366    1.2174   -9.6039 O   0  0  0  0  0  0  0  0  0  0  0  0
   17.0886    1.6338   -9.7378 O   0  0  0  0  0  0  0  0  0  0  0  0
   19.0905    2.4544   -6.5542 C   0  0  0  0  0  0  0  0  0  0  0  0
   19.0873    2.1356   -5.2065 C   0  0  0  0  0  0  0  0  0  0  0  0
   17.0960    0.8513   -2.5705 C   0  0  0  0  0  0  0  0  0  0  0  0
   15.8491    1.2836   -3.1320 C   0  0  0  0  0  0  0  0  0  0  0  0
   14.9055    1.0991   -2.1792 C   0  0  0  0  0  0  0  0  0  0  0  0
   15.5775    0.5682   -1.0323 C   0  0  0  0  0  0  0  0  0  0  0  0
   16.9260    0.4621   -1.2658 N   0  0  0  0  0  0  0  0  0  0  0  0
   13.8468    0.1704    0.1220 H   0  0  0  0  0  0  0  0  0  0  0  0
   13.8412   -0.9662    2.4697 H   0  0  0  0  0  0  0  0  0  0  0  0
   15.7459   -1.4844    4.3077 H   0  0  0  0  0  0  0  0  0  0  0  0
   17.0646    0.5647    5.3909 H   0  0  0  0  0  0  0  0  0  0  0  0
   17.0999    0.0079    7.8119 H   0  0  0  0  0  0  0  0  0  0  0  0
   16.9822   -3.3598   10.1828 H   0  0  0  0  0  0  0  0  0  0  0  0
   19.6889   -3.3104    7.0156 H   0  0  0  0  0  0  0  0  0  0  0  0
   19.6484   -2.7634    4.5922 H   0  0  0  0  0  0  0  0  0  0  0  0
   20.9207   -0.3871    4.5209 H   0  0  0  0  0  0  0  0  0  0  0  0
   22.7999    0.0128    2.6333 H   0  0  0  0  0  0  0  0  0  0  0  0
   22.7303   -0.1781   -2.6257 H   0  0  0  0  0  0  0  0  0  0  0  0
   20.8213    0.2703   -4.4727 H   0  0  0  0  0  0  0  0  0  0  0  0
   16.8670   -0.4322   -5.2463 H   0  0  0  0  0  0  0  0  0  0  0  0
   16.8609    0.1400   -7.6636 H   0  0  0  0  0  0  0  0  0  0  0  0
   19.9669    1.6245  -10.3656 H   0  0  0  0  0  0  0  0  0  0  0  0
   19.7003    3.2635   -6.9362 H   0  0  0  0  0  0  0  0  0  0  0  0
   19.6986    2.7048   -4.5160 H   0  0  0  0  0  0  0  0  0  0  0  0
   15.7250    1.6779   -4.1274 H   0  0  0  0  0  0  0  0  0  0  0  0
   13.8468    1.2970   -2.2300 H   0  0  0  0  0  0  0  0  0  0  0  0
   29.1591    0.0464   -0.0434 Ni  0  0  0  0  0  0  0  0  0  0  0  0
   32.5438    0.1635   -0.0489 C   0  0  0  0  0  0  0  0  0  0  0  0
   31.8931    0.1300   -1.2651 C   0  0  0  0  0  0  0  0  0  0  0  0
   32.5646    0.1023   -2.5288 C   0  0  0  0  0  0  0  0  0  0  0  0
   31.6074    0.2073   -3.4802 C   0  0  0  0  0  0  0  0  0  0  0  0
   30.3520    0.3151   -2.7955 C   0  0  0  0  0  0  0  0  0  0  0  0
   30.5343    0.2158   -1.4392 N   0  0  0  0  0  0  0  0  0  0  0  0
   29.1385    0.5697   -3.4224 C   0  0  0  0  0  0  0  0  0  0  0  0
   29.1235    0.7943   -4.8864 C   0  0  0  0  0  0  0  0  0  0  0  0
   29.8457    1.8514   -5.4459 C   0  0  0  0  0  0  0  0  0  0  0  0
   29.8276    2.0692   -6.8137 C   0  0  0  0  0  0  0  0  0  0  0  0
   29.0854    1.2152   -7.6134 C   0  0  0  0  0  0  0  0  0  0  0  0
   29.0499    1.4911   -9.3443 S   0  0  0  0  0  0  0  0  0  0  0  0
   29.3392    2.8614   -9.6484 O   0  0  0  0  0  0  0  0  0  0  0  0
   30.3440    0.5978   -9.7509 O   0  0  0  0  0  0  0  0  0  0  0  0
   27.8881    0.8909   -9.9313 O   0  0  0  0  0  0  0  0  0  0  0  0
   28.3584    0.1593   -7.0882 C   0  0  0  0  0  0  0  0  0  0  0  0
   28.3793   -0.0460   -5.7186 C   0  0  0  0  0  0  0  0  0  0  0  0
   27.9357    0.6313   -2.7292 C   0  0  0  0  0  0  0  0  0  0  0  0
   26.6822    0.9792   -3.3267 C   0  0  0  0  0  0  0  0  0  0  0  0
   25.7361    0.8196   -2.3699 C   0  0  0  0  0  0  0  0  0  0  0  0
   27.7628    0.3115   -1.4026 N   0  0  0  0  0  0  0  0  0  0  0  0
   26.4119    0.3770   -1.1923 C   0  0  0  0  0  0  0  0  0  0  0  0
   25.7534   -0.0342   -0.0308 C   0  0  0  0  0  0  0  0  0  0  0  0
   26.4402   -0.4272    1.1208 C   0  0  0  0  0  0  0  0  0  0  0  0
   25.7959   -0.9177    2.2970 C   0  0  0  0  0  0  0  0  0  0  0  0
   26.7568   -1.0475    3.2435 C   0  0  0  0  0  0  0  0  0  0  0  0
   27.9866   -0.6280    2.6427 C   0  0  0  0  0  0  0  0  0  0  0  0
   27.7882   -0.3020    1.3211 N   0  0  0  0  0  0  0  0  0  0  0  0
   29.1862   -0.4983    3.3323 C   0  0  0  0  0  0  0  0  0  0  0  0
   29.1888   -0.7247    4.7959 C   0  0  0  0  0  0  0  0  0  0  0  0
   29.9919   -1.7198    5.3583 C   0  0  0  0  0  0  0  0  0  0  0  0
   29.9936   -1.9322    6.7273 C   0  0  0  0  0  0  0  0  0  0  0  0
   29.1865   -1.1378    7.5249 C   0  0  0  0  0  0  0  0  0  0  0  0
   29.1915   -1.3919    9.2613 S   0  0  0  0  0  0  0  0  0  0  0  0
   28.8205   -0.1940    9.9574 O   0  0  0  0  0  0  0  0  0  0  0  0
   27.9373   -2.4161    9.3742 O   0  0  0  0  0  0  0  0  0  0  0  0
   30.3850   -2.0776    9.6530 O   0  0  0  0  0  0  0  0  0  0  0  0
   28.3829   -0.1400    6.9972 C   0  0  0  0  0  0  0  0  0  0  0  0
   28.3862    0.0616    5.6272 C   0  0  0  0  0  0  0  0  0  0  0  0
   30.3775   -0.1583    2.7032 C   0  0  0  0  0  0  0  0  0  0  0  0
   31.6244    0.0361    3.3846 C   0  0  0  0  0  0  0  0  0  0  0  0
   32.5681    0.2166    2.4311 C   0  0  0  0  0  0  0  0  0  0  0  0
   31.8961    0.1468    1.1692 C   0  0  0  0  0  0  0  0  0  0  0  0
   30.5475   -0.0381    1.3470 N   0  0  0  0  0  0  0  0  0  0  0  0
   33.6267    0.2033   -0.0505 H   0  0  0  0  0  0  0  0  0  0  0  0
   33.6322    0.0141   -2.6520 H   0  0  0  0  0  0  0  0  0  0  0  0
   31.7275    0.2115   -4.5514 H   0  0  0  0  0  0  0  0  0  0  0  0
   30.4089    2.5159   -4.8012 H   0  0  0  0  0  0  0  0  0  0  0  0
   30.3736    2.8926   -7.2566 H   0  0  0  0  0  0  0  0  0  0  0  0
   30.4913    0.6385  -10.7037 H   0  0  0  0  0  0  0  0  0  0  0  0
   27.7846   -0.4851   -7.7423 H   0  0  0  0  0  0  0  0  0  0  0  0
   27.8250   -0.8719   -5.2881 H   0  0  0  0  0  0  0  0  0  0  0  0
   26.5527    1.3100   -4.3442 H   0  0  0  0  0  0  0  0  0  0  0  0
   24.6736    0.9845   -2.4424 H   0  0  0  0  0  0  0  0  0  0  0  0
   24.7432   -1.1353    2.3743 H   0  0  0  0  0  0  0  0  0  0  0  0
   26.6523   -1.4009    4.2563 H   0  0  0  0  0  0  0  0  0  0  0  0
   30.6066   -2.3393    4.7157 H   0  0  0  0  0  0  0  0  0  0  0  0
   30.6127   -2.7003    7.1734 H   0  0  0  0  0  0  0  0  0  0  0  0
   27.5072   -2.3202   10.2329 H   0  0  0  0  0  0  0  0  0  0  0  0
   27.7731    0.4708    7.6510 H   0  0  0  0  0  0  0  0  0  0  0  0
   27.7748    0.8455    5.1956 H   0  0  0  0  0  0  0  0  0  0  0  0
   31.7486    0.0349    4.4553 H   0  0  0  0  0  0  0  0  0  0  0  0
   33.6267    0.3817    2.5515 H   0  0  0  0  0  0  0  0  0  0  0  0
   23.1289   -0.0529   -0.0016 C   0  0  0  0  0  0  0  0  0  0  0  0
   24.3446   -0.0497   -0.0181 C   0  0  0  0  0  0  0  0  0  0  0  0
  2  3  4  0  0  0  0
  3  4  4  0  0  0  0
  4  5  2  0  0  0  0
  5  6  4  0  0  0  0
  1  7  1  0  0  0  0
  3  7  4  0  0  0  0
  6  7  4  0  0  0  0
  6  8  4  0  0  0  0
  8  9  1  0  0  0  0
  9 10  4  0  0  0  0
 10 11  4  0  0  0  0
 11 12  4  0  0  0  0
 12 13  1  0  0  0  0
 13 14  2  0  0  0  0
 13 15  1  0  0  0  0
 13 16  2  0  0  0  0
 12 17  4  0  0  0  0
  9 18  4  0  0  0  0
 17 18  4  0  0  0  0
  8 19  4  0  0  0  0
 19 20  4  0  0  0  0
 20 21  2  0  0  0  0
  1 22  1  0  0  0  0
 19 22  4  0  0  0  0
 21 23  4  0  0  0  0
 22 23  4  0  0  0  0
 23 24  4  0  0  0  0
 24 25  4  0  0  0  0
 25 26  4  0  0  0  0
 26 27  2  0  0  0  0
 27 28  4  0  0  0  0
  1 29  1  0  0  0  0
 25 29  4  0  0  0  0
 28 29  4  0  0  0  0
 28 30  4  0  0  0  0
 30 31  1  0  0  0  0
 31 32  4  0  0  0  0
 32 33  4  0  0  0  0
 33 34  4  0  0  0  0
 34 35  1  0  0  0  0
 35 36  2  0  0  0  0
 35 37  1  0  0  0  0
 35 38  2  0  0  0  0
 34 39  4  0  0  0  0
 31 40  4  0  0  0  0
 39 40  4  0  0  0  0
 30 41  4  0  0  0  0
 41 42  4  0  0  0  0
 42 43  2  0  0  0  0
  2 44  4  0  0  0  0
 43 44  4  0  0  0  0
  1 45  1  0  0  0  0
 41 45  4  0  0  0  0
 44 45  4  0  0  0  0
  2 46  1  0  0  0  0
  4 47  1  0  0  0  0
  5 48  1  0  0  0  0
 10 49  1  0  0  0  0
 11 50  1  0  0  0  0
 15 51  1  0  0  0  0
 17 52  1  0  0  0  0
 18 53  1  0  0  0  0
 20 54  1  0  0  0  0
 21 55  1  0  0  0  0
 26 56  1  0  0  0  0
 27 57  1  0  0  0  0
 32 58  1  0  0  0  0
 33 59  1  0  0  0  0
 37 60  1  0  0  0  0
 39 61  1  0  0  0  0
 40 62  1  0  0  0  0
 42 63  1  0  0  0  0
 43 64  1  0  0  0  0
 66 67  4  0  0  0  0
 67 68  4  0  0  0  0
 68 69  2  0  0  0  0
 69 70  4  0  0  0  0
 65 71  1  0  0  0  0
 67 71  4  0  0  0  0
 70 71  4  0  0  0  0
 70 72  4  0  0  0  0
 72 73  1  0  0  0  0
 73 74  4  0  0  0  0
 74 75  4  0  0  0  0
 75 76  4  0  0  0  0
 76 77  1  0  0  0  0
 77 78  2  0  0  0  0
 77 79  1  0  0  0  0
 77 80  2  0  0  0  0
 76 81  4  0  0  0  0
 73 82  4  0  0  0  0
 81 82  4  0  0  0  0
 72 83  4  0  0  0  0
 83 84  4  0  0  0  0
 84 85  2  0  0  0  0
 65 86  1  0  0  0  0
 83 86  4  0  0  0  0
 85 87  4  0  0  0  0
 86 87  4  0  0  0  0
 87 88  4  0  0  0  0
 88 89  4  0  0  0  0
 89 90  4  0  0  0  0
 90 91  2  0  0  0  0
 91 92  4  0  0  0  0
 65 93  1  0  0  0  0
 89 93  4  0  0  0  0
 92 93  4  0  0  0  0
 92 94  4  0  0  0  0
 94 95  1  0  0  0  0
 95 96  4  0  0  0  0
 96 97  4  0  0  0  0
 97 98  4  0  0  0  0
 98 99  1  0  0  0  0
 99100  2  0  0  0  0
 99101  1  0  0  0  0
 99102  2  0  0  0  0
 98103  4  0  0  0  0
 95104  4  0  0  0  0
103104  4  0  0  0  0
 94105  4  0  0  0  0
105106  4  0  0  0  0
106107  2  0  0  0  0
 66108  4  0  0  0  0
107108  4  0  0  0  0
 65109  1  0  0  0  0
105109  4  0  0  0  0
108109  4  0  0  0  0
 66110  1  0  0  0  0
 68111  1  0  0  0  0
 69112  1  0  0  0  0
 74113  1  0  0  0  0
 75114  1  0  0  0  0
 79115  1  0  0  0  0
 81116  1  0  0  0  0
 82117  1  0  0  0  0
 84118  1  0  0  0  0
 85119  1  0  0  0  0
 90120  1  0  0  0  0
 91121  1  0  0  0  0
 96122  1  0  0  0  0
 97123  1  0  0  0  0
101124  1  0  0  0  0
103125  1  0  0  0  0
104126  1  0  0  0  0
106127  1  0  0  0  0
107128  1  0  0  0  0
 24129  4  0  0  0  0
 88130  4  0  0  0  0
129130  3  0  0  0  0
M  END
