 xtb: 6.5.1 (b24c23e)
          07302204513D

114133  0     0  0            999 V2000
   11.0763   -0.0390    0.0005 Cu  0  0  0  0  0  0  0  0  0  0  0  0
    7.6692   -0.0619    0.0014 C   0  0  0  0  0  0  0  0  0  0  0  0
    8.3009   -1.2917    0.1098 C   0  0  0  0  0  0  0  0  0  0  0  0
    7.6228   -2.5488    0.2499 C   0  0  0  0  0  0  0  0  0  0  0  0
    8.5793   -3.5047    0.3489 C   0  0  0  0  0  0  0  0  0  0  0  0
    9.8516   -2.8402    0.2618 C   0  0  0  0  0  0  0  0  0  0  0  0
    9.6511   -1.4973    0.1215 N   0  0  0  0  0  0  0  0  0  0  0  0
   11.0954   -3.4700    0.3474 C   0  0  0  0  0  0  0  0  0  0  0  0
   11.1040   -4.9447    0.5071 C   0  0  0  0  0  0  0  0  0  0  0  0
   11.6260   -5.5439    1.6528 C   0  0  0  0  0  0  0  0  0  0  0  0
   11.6065   -6.9253    1.7618 C   0  0  0  0  0  0  0  0  0  0  0  0
   11.1142   -7.7196    0.8166 N   0  0  0  0  0  0  0  0  0  0  0  0
   10.6179   -7.1566   -0.2804 C   0  0  0  0  0  0  0  0  0  0  0  0
   10.5882   -5.7851   -0.4786 C   0  0  0  0  0  0  0  0  0  0  0  0
   12.3305   -2.8211    0.3001 C   0  0  0  0  0  0  0  0  0  0  0  0
   13.6060   -3.4784    0.3451 C   0  0  0  0  0  0  0  0  0  0  0  0
   14.5549   -2.5128    0.2502 C   0  0  0  0  0  0  0  0  0  0  0  0
   12.5229   -1.4713    0.1680 N   0  0  0  0  0  0  0  0  0  0  0  0
   13.8671   -1.2614    0.1391 C   0  0  0  0  0  0  0  0  0  0  0  0
   14.5064   -0.0165    0.0020 C   0  0  0  0  0  0  0  0  0  0  0  0
   13.8509    1.2198   -0.1353 C   0  0  0  0  0  0  0  0  0  0  0  0
   14.5220    2.4728   -0.3104 C   0  0  0  0  0  0  0  0  0  0  0  0
   13.5609    3.4258   -0.4091 C   0  0  0  0  0  0  0  0  0  0  0  0
   12.2943    2.7609   -0.2858 C   0  0  0  0  0  0  0  0  0  0  0  0
   12.5043    1.4162   -0.1307 N   0  0  0  0  0  0  0  0  0  0  0  0
   11.0504    3.3927   -0.3422 C   0  0  0  0  0  0  0  0  0  0  0  0
   11.0394    4.8680   -0.4904 C   0  0  0  0  0  0  0  0  0  0  0  0
   10.4671    5.4796   -1.6053 C   0  0  0  0  0  0  0  0  0  0  0  0
   10.4832    6.8622   -1.7009 C   0  0  0  0  0  0  0  0  0  0  0  0
   11.0190    7.6466   -0.7713 N   0  0  0  0  0  0  0  0  0  0  0  0
   11.5648    7.0719    0.2958 C   0  0  0  0  0  0  0  0  0  0  0  0
   11.6008    5.6986    0.4789 C   0  0  0  0  0  0  0  0  0  0  0  0
    9.8151    2.7439   -0.2712 C   0  0  0  0  0  0  0  0  0  0  0  0
    8.5346    3.3981   -0.2822 C   0  0  0  0  0  0  0  0  0  0  0  0
    7.5909    2.4288   -0.1890 C   0  0  0  0  0  0  0  0  0  0  0  0
    8.2853    1.1754   -0.1110 C   0  0  0  0  0  0  0  0  0  0  0  0
    9.6325    1.3961   -0.1560 N   0  0  0  0  0  0  0  0  0  0  0  0
    6.5842   -0.0674    0.0154 H   0  0  0  0  0  0  0  0  0  0  0  0
    6.5512   -2.6691    0.2746 H   0  0  0  0  0  0  0  0  0  0  0  0
    8.4432   -4.5660    0.4808 H   0  0  0  0  0  0  0  0  0  0  0  0
   12.0274   -4.9350    2.4542 H   0  0  0  0  0  0  0  0  0  0  0  0
   12.0028   -7.4146    2.6469 H   0  0  0  0  0  0  0  0  0  0  0  0
   10.2258   -7.8317   -1.0354 H   0  0  0  0  0  0  0  0  0  0  0  0
   10.1835   -5.3712   -1.3945 H   0  0  0  0  0  0  0  0  0  0  0  0
   13.7525   -4.5433    0.4256 H   0  0  0  0  0  0  0  0  0  0  0  0
   15.6269   -2.6283    0.2482 H   0  0  0  0  0  0  0  0  0  0  0  0
   15.5921    2.5964   -0.3576 H   0  0  0  0  0  0  0  0  0  0  0  0
   13.6938    4.4840   -0.5649 H   0  0  0  0  0  0  0  0  0  0  0  0
   10.0299    4.8798   -2.3947 H   0  0  0  0  0  0  0  0  0  0  0  0
   10.0473    7.3607   -2.5619 H   0  0  0  0  0  0  0  0  0  0  0  0
   11.9926    7.7389    1.0386 H   0  0  0  0  0  0  0  0  0  0  0  0
   12.0458    5.2752    1.3715 H   0  0  0  0  0  0  0  0  0  0  0  0
    8.3843    4.4640   -0.3408 H   0  0  0  0  0  0  0  0  0  0  0  0
    6.5181    2.5388   -0.1670 H   0  0  0  0  0  0  0  0  0  0  0  0
   27.1138    0.0369   -0.0104 Cu  0  0  0  0  0  0  0  0  0  0  0  0
   30.5209    0.0587   -0.0163 C   0  0  0  0  0  0  0  0  0  0  0  0
   29.8894    1.2674   -0.2681 C   0  0  0  0  0  0  0  0  0  0  0  0
   30.5676    2.5113   -0.4968 C   0  0  0  0  0  0  0  0  0  0  0  0
   29.6112    3.4549   -0.6796 C   0  0  0  0  0  0  0  0  0  0  0  0
   28.3389    2.7934   -0.5725 C   0  0  0  0  0  0  0  0  0  0  0  0
   28.5393    1.4676   -0.3176 N   0  0  0  0  0  0  0  0  0  0  0  0
   27.0951    3.4207   -0.6756 C   0  0  0  0  0  0  0  0  0  0  0  0
   27.0866    4.8780   -0.9520 C   0  0  0  0  0  0  0  0  0  0  0  0
   26.5607    5.7845   -0.0323 C   0  0  0  0  0  0  0  0  0  0  0  0
   26.5799    7.1379   -0.3304 C   0  0  0  0  0  0  0  0  0  0  0  0
   27.0757    7.6228   -1.4644 N   0  0  0  0  0  0  0  0  0  0  0  0
   27.5759    6.7650   -2.3479 C   0  0  0  0  0  0  0  0  0  0  0  0
   27.6059    5.3953   -2.1379 C   0  0  0  0  0  0  0  0  0  0  0  0
   25.8599    2.7858   -0.5340 C   0  0  0  0  0  0  0  0  0  0  0  0
   24.5844    3.4273   -0.6845 C   0  0  0  0  0  0  0  0  0  0  0  0
   23.6355    2.4759   -0.4946 C   0  0  0  0  0  0  0  0  0  0  0  0
   25.6674    1.4561   -0.2668 N   0  0  0  0  0  0  0  0  0  0  0  0
   24.3232    1.2467   -0.2348 C   0  0  0  0  0  0  0  0  0  0  0  0
   23.6837    0.0161   -0.0028 C   0  0  0  0  0  0  0  0  0  0  0  0
   24.3390   -1.2065    0.2269 C   0  0  0  0  0  0  0  0  0  0  0  0
   23.6677   -2.4559    0.4257 C   0  0  0  0  0  0  0  0  0  0  0  0
   24.6288   -3.3965    0.6082 C   0  0  0  0  0  0  0  0  0  0  0  0
   25.8954   -2.7250    0.5307 C   0  0  0  0  0  0  0  0  0  0  0  0
   25.6856   -1.3934    0.2874 N   0  0  0  0  0  0  0  0  0  0  0  0
   27.1393   -3.3462    0.6587 C   0  0  0  0  0  0  0  0  0  0  0  0
   27.1502   -4.8010    0.9459 C   0  0  0  0  0  0  0  0  0  0  0  0
   27.7189   -5.7107    0.0551 C   0  0  0  0  0  0  0  0  0  0  0  0
   27.7031   -7.0613    0.3658 C   0  0  0  0  0  0  0  0  0  0  0  0
   27.1709   -7.5410    1.4854 N   0  0  0  0  0  0  0  0  0  0  0  0
   26.6287   -6.6804    2.3411 C   0  0  0  0  0  0  0  0  0  0  0  0
   26.5926   -5.3133    2.1168 C   0  0  0  0  0  0  0  0  0  0  0  0
   28.3746   -2.7052    0.5365 C   0  0  0  0  0  0  0  0  0  0  0  0
   29.6552   -3.3351    0.7139 C   0  0  0  0  0  0  0  0  0  0  0  0
   30.5989   -2.3807    0.5215 C   0  0  0  0  0  0  0  0  0  0  0  0
   29.9047   -1.1581    0.2340 C   0  0  0  0  0  0  0  0  0  0  0  0
   28.5574   -1.3820    0.2560 N   0  0  0  0  0  0  0  0  0  0  0  0
   31.6060    0.0679   -0.0046 H   0  0  0  0  0  0  0  0  0  0  0  0
   31.6392    2.6338   -0.5067 H   0  0  0  0  0  0  0  0  0  0  0  0
   29.7475    4.5091   -0.8601 H   0  0  0  0  0  0  0  0  0  0  0  0
   26.1565    5.4353    0.9104 H   0  0  0  0  0  0  0  0  0  0  0  0
   26.1807    7.8634    0.3724 H   0  0  0  0  0  0  0  0  0  0  0  0
   27.9706    7.1913   -3.2657 H   0  0  0  0  0  0  0  0  0  0  0  0
   28.0136    4.7329   -2.8923 H   0  0  0  0  0  0  0  0  0  0  0  0
   24.4381    4.4693   -0.9188 H   0  0  0  0  0  0  0  0  0  0  0  0
   22.5635    2.5856   -0.5316 H   0  0  0  0  0  0  0  0  0  0  0  0
   22.5976   -2.5877    0.4177 H   0  0  0  0  0  0  0  0  0  0  0  0
   24.4958   -4.4542    0.7680 H   0  0  0  0  0  0  0  0  0  0  0  0
   28.1531   -5.3667   -0.8761 H   0  0  0  0  0  0  0  0  0  0  0  0
   28.1360   -7.7889   -0.3145 H   0  0  0  0  0  0  0  0  0  0  0  0
   26.2040   -7.1022    3.2473 H   0  0  0  0  0  0  0  0  0  0  0  0
   26.1505   -4.6483    2.8492 H   0  0  0  0  0  0  0  0  0  0  0  0
   29.8053   -4.3725    0.9661 H   0  0  0  0  0  0  0  0  0  0  0  0
   31.6717   -2.4800    0.5731 H   0  0  0  0  0  0  0  0  0  0  0  0
   19.7091   -0.0026   -0.0121 C   0  0  0  0  0  0  0  0  0  0  0  0
   18.4810   -0.0029   -0.0117 C   0  0  0  0  0  0  0  0  0  0  0  0
   17.1361   -0.0072   -0.0101 C   0  0  0  0  0  0  0  0  0  0  0  0
   15.9125   -0.0091   -0.0074 C   0  0  0  0  0  0  0  0  0  0  0  0
   21.0540    0.0024   -0.0113 C   0  0  0  0  0  0  0  0  0  0  0  0
   22.2776    0.0066   -0.0095 C   0  0  0  0  0  0  0  0  0  0  0  0
  2  3  4  0  0  0  0
  3  4  1  0  0  0  0
  4  5  2  0  0  0  0
  5  6  4  0  0  0  0
  1  7  1  0  0  0  0
  3  7  4  0  0  0  0
  6  7  4  0  0  0  0
  6  8  4  0  0  0  0
  8  9  1  0  0  0  0
  9 10  4  0  0  0  0
 10 11  4  0  0  0  0
 11 12  4  0  0  0  0
 12 13  4  0  0  0  0
  9 14  4  0  0  0  0
 13 14  4  0  0  0  0
  8 15  4  0  0  0  0
 15 16  4  0  0  0  0
 16 17  2  0  0  0  0
  1 18  1  0  0  0  0
 15 18  4  0  0  0  0
 17 19  4  0  0  0  0
 18 19  4  0  0  0  0
 19 20  4  0  0  0  0
 20 21  4  0  0  0  0
 21 22  4  0  0  0  0
 22 23  2  0  0  0  0
 23 24  4  0  0  0  0
  1 25  1  0  0  0  0
 21 25  4  0  0  0  0
 24 25  4  0  0  0  0
 24 26  4  0  0  0  0
 26 27  1  0  0  0  0
 27 28  4  0  0  0  0
 28 29  4  0  0  0  0
 29 30  4  0  0  0  0
 30 31  4  0  0  0  0
 27 32  4  0  0  0  0
 31 32  4  0  0  0  0
 26 33  4  0  0  0  0
 33 34  4  0  0  0  0
 34 35  2  0  0  0  0
  2 36  4  0  0  0  0
 35 36  1  0  0  0  0
  1 37  1  0  0  0  0
 33 37  4  0  0  0  0
 36 37  4  0  0  0  0
  2 38  1  0  0  0  0
  4 39  1  0  0  0  0
  5 40  1  0  0  0  0
 10 41  1  0  0  0  0
 11 42  1  0  0  0  0
 13 43  1  0  0  0  0
 14 44  1  0  0  0  0
 16 45  1  0  0  0  0
 17 46  1  0  0  0  0
 22 47  1  0  0  0  0
 23 48  1  0  0  0  0
 28 49  1  0  0  0  0
 29 50  1  0  0  0  0
 31 51  1  0  0  0  0
 32 52  1  0  0  0  0
 34 53  1  0  0  0  0
 35 54  1  0  0  0  0
 56 57  4  0  0  0  0
 57 58  1  0  0  0  0
 58 59  2  0  0  0  0
 59 60  4  0  0  0  0
 55 61  1  0  0  0  0
 57 61  4  0  0  0  0
 60 61  4  0  0  0  0
 60 62  4  0  0  0  0
 62 63  1  0  0  0  0
 63 64  4  0  0  0  0
 64 65  4  0  0  0  0
 65 66  4  0  0  0  0
 66 67  4  0  0  0  0
 63 68  4  0  0  0  0
 67 68  4  0  0  0  0
 62 69  4  0  0  0  0
 69 70  4  0  0  0  0
 70 71  2  0  0  0  0
 55 72  1  0  0  0  0
 69 72  4  0  0  0  0
 71 73  4  0  0  0  0
 72 73  4  0  0  0  0
 73 74  4  0  0  0  0
 74 75  4  0  0  0  0
 75 76  4  0  0  0  0
 76 77  2  0  0  0  0
 77 78  4  0  0  0  0
 55 79  1  0  0  0  0
 75 79  4  0  0  0  0
 78 79  4  0  0  0  0
 78 80  4  0  0  0  0
 80 81  1  0  0  0  0
 81 82  4  0  0  0  0
 82 83  4  0  0  0  0
 83 84  4  0  0  0  0
 84 85  4  0  0  0  0
 81 86  4  0  0  0  0
 85 86  4  0  0  0  0
 80 87  4  0  0  0  0
 87 88  4  0  0  0  0
 88 89  2  0  0  0  0
 56 90  4  0  0  0  0
 89 90  1  0  0  0  0
 55 91  1  0  0  0  0
 87 91  4  0  0  0  0
 90 91  4  0  0  0  0
 56 92  1  0  0  0  0
 58 93  1  0  0  0  0
 59 94  1  0  0  0  0
 64 95  1  0  0  0  0
 65 96  1  0  0  0  0
 67 97  1  0  0  0  0
 68 98  1  0  0  0  0
 70 99  1  0  0  0  0
 71100  1  0  0  0  0
 76101  1  0  0  0  0
 77102  1  0  0  0  0
 82103  1  0  0  0  0
 83104  1  0  0  0  0
 85105  1  0  0  0  0
 86106  1  0  0  0  0
 88107  1  0  0  0  0
 89108  1  0  0  0  0
109110  3  0  0  0  0
110111  4  0  0  0  0
 20112  4  0  0  0  0
111112  3  0  0  0  0
109113  4  0  0  0  0
 74114  4  0  0  0  0
113114  3  0  0  0  0
M  END
