 xtb: 6.5.1 (b24c23e)
          07302207453D

128147  0     0  0            999 V2000
   12.8155    0.0168   -0.0038 Cu  0  0  0  0  0  0  0  0  0  0  0  0
    9.4127    0.1249    0.0817 C   0  0  0  0  0  0  0  0  0  0  0  0
   10.0582    1.2299   -0.4531 C   0  0  0  0  0  0  0  0  0  0  0  0
    9.3947    2.3710   -1.0146 C   0  0  0  0  0  0  0  0  0  0  0  0
   10.3629    3.2289   -1.4233 C   0  0  0  0  0  0  0  0  0  0  0  0
   11.6271    2.6246   -1.1026 C   0  0  0  0  0  0  0  0  0  0  0  0
   11.4107    1.4083   -0.5223 N   0  0  0  0  0  0  0  0  0  0  0  0
   12.8783    3.1925   -1.3620 C   0  0  0  0  0  0  0  0  0  0  0  0
   12.9072    4.5566   -1.9413 C   0  0  0  0  0  0  0  0  0  0  0  0
   13.5168    4.7951   -3.1756 C   0  0  0  0  0  0  0  0  0  0  0  0
   13.5449    6.0669   -3.7197 C   0  0  0  0  0  0  0  0  0  0  0  0
   12.9626    7.1358   -3.0337 C   0  0  0  0  0  0  0  0  0  0  0  0
   13.0322    8.4181   -3.5506 N   0  0  0  0  0  0  0  0  0  0  0  0
   12.3618    6.9082   -1.7930 C   0  0  0  0  0  0  0  0  0  0  0  0
   12.3298    5.6315   -1.2608 C   0  0  0  0  0  0  0  0  0  0  0  0
   14.1037    2.5699   -1.1132 C   0  0  0  0  0  0  0  0  0  0  0  0
   15.3883    3.1804   -1.3063 C   0  0  0  0  0  0  0  0  0  0  0  0
   16.3236    2.2624   -0.9529 C   0  0  0  0  0  0  0  0  0  0  0  0
   14.2776    1.2984   -0.6325 N   0  0  0  0  0  0  0  0  0  0  0  0
   15.6183    1.0897   -0.5323 C   0  0  0  0  0  0  0  0  0  0  0  0
   16.2408   -0.0925   -0.0915 C   0  0  0  0  0  0  0  0  0  0  0  0
   15.5692   -1.2336    0.3830 C   0  0  0  0  0  0  0  0  0  0  0  0
   16.2191   -2.4483    0.7721 C   0  0  0  0  0  0  0  0  0  0  0  0
   15.2464   -3.3038    1.1786 C   0  0  0  0  0  0  0  0  0  0  0  0
   13.9951   -2.6127    1.0490 C   0  0  0  0  0  0  0  0  0  0  0  0
   14.2248   -1.3563    0.5526 N   0  0  0  0  0  0  0  0  0  0  0  0
   12.7467   -3.1532    1.3665 C   0  0  0  0  0  0  0  0  0  0  0  0
   12.7152   -4.5119    1.9585 C   0  0  0  0  0  0  0  0  0  0  0  0
   13.3660   -4.7789    3.1656 C   0  0  0  0  0  0  0  0  0  0  0  0
   13.3310   -6.0432    3.7264 C   0  0  0  0  0  0  0  0  0  0  0  0
   12.6528   -7.0791    3.0788 C   0  0  0  0  0  0  0  0  0  0  0  0
   12.5811   -8.3350    3.6567 N   0  0  0  0  0  0  0  0  0  0  0  0
   11.9974   -6.8201    1.8723 C   0  0  0  0  0  0  0  0  0  0  0  0
   12.0291   -5.5503    1.3237 C   0  0  0  0  0  0  0  0  0  0  0  0
   11.5227   -2.5063    1.1687 C   0  0  0  0  0  0  0  0  0  0  0  0
   10.2409   -3.0265    1.5596 C   0  0  0  0  0  0  0  0  0  0  0  0
    9.3092   -2.1116    1.1921 C   0  0  0  0  0  0  0  0  0  0  0  0
   10.0138   -1.0180    0.5879 C   0  0  0  0  0  0  0  0  0  0  0  0
   11.3543   -1.2818    0.5895 N   0  0  0  0  0  0  0  0  0  0  0  0
    8.3282    0.1588    0.1089 H   0  0  0  0  0  0  0  0  0  0  0  0
    8.3246    2.4834   -1.0919 H   0  0  0  0  0  0  0  0  0  0  0  0
   10.2383    4.1816   -1.9125 H   0  0  0  0  0  0  0  0  0  0  0  0
   13.9556    3.9675   -3.7224 H   0  0  0  0  0  0  0  0  0  0  0  0
   14.0159    6.2380   -4.6815 H   0  0  0  0  0  0  0  0  0  0  0  0
   13.1677    8.4684   -4.5477 H   0  0  0  0  0  0  0  0  0  0  0  0
   12.3344    9.0559   -3.2021 H   0  0  0  0  0  0  0  0  0  0  0  0
   11.9210    7.7366   -1.2491 H   0  0  0  0  0  0  0  0  0  0  0  0
   11.8709    5.4649   -0.2923 H   0  0  0  0  0  0  0  0  0  0  0  0
   15.5511    4.1890   -1.6501 H   0  0  0  0  0  0  0  0  0  0  0  0
   17.3969    2.3657   -0.9631 H   0  0  0  0  0  0  0  0  0  0  0  0
   17.2830   -2.6190    0.7274 H   0  0  0  0  0  0  0  0  0  0  0  0
   15.3613   -4.3201    1.5194 H   0  0  0  0  0  0  0  0  0  0  0  0
   13.8863   -3.9779    3.6794 H   0  0  0  0  0  0  0  0  0  0  0  0
   13.8297   -6.2349    4.6702 H   0  0  0  0  0  0  0  0  0  0  0  0
   13.3190   -8.5460    4.3094 H   0  0  0  0  0  0  0  0  0  0  0  0
   12.3767   -9.0865    3.0175 H   0  0  0  0  0  0  0  0  0  0  0  0
   11.4669   -7.6194    1.3664 H   0  0  0  0  0  0  0  0  0  0  0  0
   11.5328   -5.3618    0.3779 H   0  0  0  0  0  0  0  0  0  0  0  0
   10.0813   -3.9655    2.0649 H   0  0  0  0  0  0  0  0  0  0  0  0
    8.2396   -2.1550    1.3253 H   0  0  0  0  0  0  0  0  0  0  0  0
   31.4065   -0.0133    0.0142 Cu  0  0  0  0  0  0  0  0  0  0  0  0
   34.8093   -0.0012    0.1477 C   0  0  0  0  0  0  0  0  0  0  0  0
   34.1647   -1.0579    0.7736 C   0  0  0  0  0  0  0  0  0  0  0  0
   34.8290   -2.1561    1.4139 C   0  0  0  0  0  0  0  0  0  0  0  0
   33.8615   -2.9712    1.9039 C   0  0  0  0  0  0  0  0  0  0  0  0
   32.5969   -2.3704    1.5786 C   0  0  0  0  0  0  0  0  0  0  0  0
   32.8122   -1.2146    0.8854 N   0  0  0  0  0  0  0  0  0  0  0  0
   31.3461   -2.9005    1.9102 C   0  0  0  0  0  0  0  0  0  0  0  0
   31.3180   -4.1373    2.7268 C   0  0  0  0  0  0  0  0  0  0  0  0
   30.7074   -5.2974    2.2438 C   0  0  0  0  0  0  0  0  0  0  0  0
   30.6794   -6.4538    3.0028 C   0  0  0  0  0  0  0  0  0  0  0  0
   31.2626   -6.4734    4.2724 C   0  0  0  0  0  0  0  0  0  0  0  0
   31.1924   -7.6127    5.0554 N   0  0  0  0  0  0  0  0  0  0  0  0
   31.8647   -5.3140    4.7679 C   0  0  0  0  0  0  0  0  0  0  0  0
   31.8967   -4.1648    3.9981 C   0  0  0  0  0  0  0  0  0  0  0  0
   30.1202   -2.3491    1.5302 C   0  0  0  0  0  0  0  0  0  0  0  0
   28.8361   -2.8470    1.9345 C   0  0  0  0  0  0  0  0  0  0  0  0
   27.9000   -2.0458    1.3650 C   0  0  0  0  0  0  0  0  0  0  0  0
   29.9453   -1.2465    0.7356 N   0  0  0  0  0  0  0  0  0  0  0  0
   28.6044   -1.0480    0.6180 C   0  0  0  0  0  0  0  0  0  0  0  0
   27.9812   -0.0280   -0.1240 C   0  0  0  0  0  0  0  0  0  0  0  0
   28.6522    0.9982   -0.8133 C   0  0  0  0  0  0  0  0  0  0  0  0
   28.0011    1.9937   -1.6098 C   0  0  0  0  0  0  0  0  0  0  0  0
   28.9729    2.8060   -2.0985 C   0  0  0  0  0  0  0  0  0  0  0  0
   30.2249    2.3165   -1.5953 C   0  0  0  0  0  0  0  0  0  0  0  0
   29.9964    1.2082   -0.8225 N   0  0  0  0  0  0  0  0  0  0  0  0
   31.4728    2.8804   -1.8713 C   0  0  0  0  0  0  0  0  0  0  0  0
   31.5035    4.1243   -2.6771 C   0  0  0  0  0  0  0  0  0  0  0  0
   30.8519    5.2779   -2.2336 C   0  0  0  0  0  0  0  0  0  0  0  0
   30.8872    6.4436   -2.9781 C   0  0  0  0  0  0  0  0  0  0  0  0
   31.5665    6.4760   -4.1986 C   0  0  0  0  0  0  0  0  0  0  0  0
   31.6390    7.6515   -4.9261 N   0  0  0  0  0  0  0  0  0  0  0  0
   32.2223    5.3272   -4.6486 C   0  0  0  0  0  0  0  0  0  0  0  0
   32.1902    4.1686   -3.8930 C   0  0  0  0  0  0  0  0  0  0  0  0
   32.6973    2.3583   -1.4426 C   0  0  0  0  0  0  0  0  0  0  0  0
   33.9788    2.9720   -1.6610 C   0  0  0  0  0  0  0  0  0  0  0  0
   34.9112    2.1603   -1.1025 C   0  0  0  0  0  0  0  0  0  0  0  0
   34.2073    1.0521   -0.5245 C   0  0  0  0  0  0  0  0  0  0  0  0
   32.8667    1.1990   -0.7422 N   0  0  0  0  0  0  0  0  0  0  0  0
   35.8938    0.0030    0.1901 H   0  0  0  0  0  0  0  0  0  0  0  0
   35.8992   -2.2823    1.4640 H   0  0  0  0  0  0  0  0  0  0  0  0
   33.9871   -3.9053    2.4276 H   0  0  0  0  0  0  0  0  0  0  0  0
   30.2677   -5.2953    1.2523 H   0  0  0  0  0  0  0  0  0  0  0  0
   30.2075   -7.3496    2.6141 H   0  0  0  0  0  0  0  0  0  0  0  0
   31.0571   -8.4717    4.5466 H   0  0  0  0  0  0  0  0  0  0  0  0
   31.8889   -7.6746    5.7808 H   0  0  0  0  0  0  0  0  0  0  0  0
   32.3063   -5.3191    5.7585 H   0  0  0  0  0  0  0  0  0  0  0  0
   32.3567   -3.2660    4.3943 H   0  0  0  0  0  0  0  0  0  0  0  0
   28.6742   -3.6900    2.5865 H   0  0  0  0  0  0  0  0  0  0  0  0
   26.8268   -2.1113    1.4468 H   0  0  0  0  0  0  0  0  0  0  0  0
   26.9371    2.0503   -1.7759 H   0  0  0  0  0  0  0  0  0  0  0  0
   28.8570    3.6520   -2.7566 H   0  0  0  0  0  0  0  0  0  0  0  0
   30.3309    5.2639   -1.2825 H   0  0  0  0  0  0  0  0  0  0  0  0
   30.3877    7.3361   -2.6172 H   0  0  0  0  0  0  0  0  0  0  0  0
   30.9014    8.3125   -4.7414 H   0  0  0  0  0  0  0  0  0  0  0  0
   31.8441    7.5338   -5.9054 H   0  0  0  0  0  0  0  0  0  0  0  0
   32.7535    5.3468   -5.5940 H   0  0  0  0  0  0  0  0  0  0  0  0
   32.6868    3.2761   -4.2578 H   0  0  0  0  0  0  0  0  0  0  0  0
   34.1378    3.9122   -2.1643 H   0  0  0  0  0  0  0  0  0  0  0  0
   35.9808    2.2956   -1.0659 H   0  0  0  0  0  0  0  0  0  0  0  0
   17.6450   -0.1285   -0.1254 C   0  0  0  0  0  0  0  0  0  0  0  0
   18.8692   -0.1375   -0.1592 C   0  0  0  0  0  0  0  0  0  0  0  0
   20.2116   -0.1369   -0.1856 C   0  0  0  0  0  0  0  0  0  0  0  0
   21.4422   -0.1222   -0.2066 C   0  0  0  0  0  0  0  0  0  0  0  0
   22.7799   -0.1007   -0.2168 C   0  0  0  0  0  0  0  0  0  0  0  0
   24.0104   -0.0740   -0.2155 C   0  0  0  0  0  0  0  0  0  0  0  0
   25.3528   -0.0542   -0.1995 C   0  0  0  0  0  0  0  0  0  0  0  0
   26.5771   -0.0363   -0.1741 C   0  0  0  0  0  0  0  0  0  0  0  0
  2  3  4  0  0  0  0
  3  4  4  0  0  0  0
  4  5  2  0  0  0  0
  5  6  4  0  0  0  0
  1  7  1  0  0  0  0
  3  7  4  0  0  0  0
  6  7  4  0  0  0  0
  6  8  4  0  0  0  0
  8  9  1  0  0  0  0
  9 10  4  0  0  0  0
 10 11  4  0  0  0  0
 11 12  4  0  0  0  0
 12 13  1  0  0  0  0
 12 14  4  0  0  0  0
  9 15  4  0  0  0  0
 14 15  4  0  0  0  0
  8 16  4  0  0  0  0
 16 17  4  0  0  0  0
 17 18  2  0  0  0  0
  1 19  1  0  0  0  0
 16 19  4  0  0  0  0
 18 20  4  0  0  0  0
 19 20  4  0  0  0  0
 20 21  4  0  0  0  0
 21 22  4  0  0  0  0
 22 23  4  0  0  0  0
 23 24  2  0  0  0  0
 24 25  4  0  0  0  0
  1 26  1  0  0  0  0
 22 26  4  0  0  0  0
 25 26  4  0  0  0  0
 25 27  4  0  0  0  0
 27 28  1  0  0  0  0
 28 29  4  0  0  0  0
 29 30  4  0  0  0  0
 30 31  4  0  0  0  0
 31 32  1  0  0  0  0
 31 33  4  0  0  0  0
 28 34  4  0  0  0  0
 33 34  4  0  0  0  0
 27 35  4  0  0  0  0
 35 36  4  0  0  0  0
 36 37  2  0  0  0  0
  2 38  4  0  0  0  0
 37 38  1  0  0  0  0
  1 39  1  0  0  0  0
 35 39  4  0  0  0  0
 38 39  4  0  0  0  0
  2 40  1  0  0  0  0
  4 41  1  0  0  0  0
  5 42  1  0  0  0  0
 10 43  1  0  0  0  0
 11 44  1  0  0  0  0
 13 45  1  0  0  0  0
 13 46  1  0  0  0  0
 14 47  1  0  0  0  0
 15 48  1  0  0  0  0
 17 49  1  0  0  0  0
 18 50  1  0  0  0  0
 23 51  1  0  0  0  0
 24 52  1  0  0  0  0
 29 53  1  0  0  0  0
 30 54  1  0  0  0  0
 32 55  1  0  0  0  0
 32 56  1  0  0  0  0
 33 57  1  0  0  0  0
 34 58  1  0  0  0  0
 36 59  1  0  0  0  0
 37 60  1  0  0  0  0
 62 63  4  0  0  0  0
 63 64  4  0  0  0  0
 64 65  2  0  0  0  0
 65 66  4  0  0  0  0
 61 67  1  0  0  0  0
 63 67  4  0  0  0  0
 66 67  4  0  0  0  0
 66 68  4  0  0  0  0
 68 69  1  0  0  0  0
 69 70  4  0  0  0  0
 70 71  4  0  0  0  0
 71 72  4  0  0  0  0
 72 73  1  0  0  0  0
 72 74  4  0  0  0  0
 69 75  4  0  0  0  0
 74 75  4  0  0  0  0
 68 76  4  0  0  0  0
 76 77  4  0  0  0  0
 77 78  2  0  0  0  0
 61 79  1  0  0  0  0
 76 79  4  0  0  0  0
 78 80  4  0  0  0  0
 79 80  4  0  0  0  0
 80 81  4  0  0  0  0
 81 82  4  0  0  0  0
 82 83  4  0  0  0  0
 83 84  2  0  0  0  0
 84 85  4  0  0  0  0
 61 86  1  0  0  0  0
 82 86  4  0  0  0  0
 85 86  4  0  0  0  0
 85 87  4  0  0  0  0
 87 88  1  0  0  0  0
 88 89  4  0  0  0  0
 89 90  4  0  0  0  0
 90 91  4  0  0  0  0
 91 92  1  0  0  0  0
 91 93  4  0  0  0  0
 88 94  4  0  0  0  0
 93 94  4  0  0  0  0
 87 95  4  0  0  0  0
 95 96  4  0  0  0  0
 96 97  2  0  0  0  0
 62 98  4  0  0  0  0
 97 98  1  0  0  0  0
 61 99  1  0  0  0  0
 95 99  4  0  0  0  0
 98 99  4  0  0  0  0
 62100  1  0  0  0  0
 64101  1  0  0  0  0
 65102  1  0  0  0  0
 70103  1  0  0  0  0
 71104  1  0  0  0  0
 73105  1  0  0  0  0
 73106  1  0  0  0  0
 74107  1  0  0  0  0
 75108  1  0  0  0  0
 77109  1  0  0  0  0
 78110  1  0  0  0  0
 83111  1  0  0  0  0
 84112  1  0  0  0  0
 89113  1  0  0  0  0
 90114  1  0  0  0  0
 92115  1  0  0  0  0
 92116  1  0  0  0  0
 93117  1  0  0  0  0
 94118  1  0  0  0  0
 96119  1  0  0  0  0
 97120  1  0  0  0  0
 21121  4  0  0  0  0
121122  3  0  0  0  0
122123  4  0  0  0  0
123124  3  0  0  0  0
124125  4  0  0  0  0
125126  3  0  0  0  0
126127  4  0  0  0  0
 81128  4  0  0  0  0
127128  3  0  0  0  0
M  END
