 xtb: 6.5.1 (b24c23e)
          07302211423D

242281  0     0  0            999 V2000
   46.6525   -0.0225   -0.0230 Zn  0  0  0  0  0  0  0  0  0  0  0  0
   43.2429   -0.0602   -0.0551 C   0  0  0  0  0  0  0  0  0  0  0  0
   43.8747   -1.2968    0.0031 C   0  0  0  0  0  0  0  0  0  0  0  0
   43.2026   -2.5624    0.0940 C   0  0  0  0  0  0  0  0  0  0  0  0
   44.1630   -3.5191    0.1474 C   0  0  0  0  0  0  0  0  0  0  0  0
   45.4350   -2.8497    0.0787 C   0  0  0  0  0  0  0  0  0  0  0  0
   45.2244   -1.5039    0.0001 N   0  0  0  0  0  0  0  0  0  0  0  0
   46.6870   -3.4764    0.1132 C   0  0  0  0  0  0  0  0  0  0  0  0
   46.7030   -4.9593    0.1836 C   0  0  0  0  0  0  0  0  0  0  0  0
   46.1413   -5.7263   -0.8374 C   0  0  0  0  0  0  0  0  0  0  0  0
   46.1571   -7.1114   -0.7747 C   0  0  0  0  0  0  0  0  0  0  0  0
   46.7336   -7.7469    0.3223 C   0  0  0  0  0  0  0  0  0  0  0  0
   46.7678   -9.1013    0.4256 O   0  0  0  0  0  0  0  0  0  0  0  0
   47.2953   -6.9931    1.3510 C   0  0  0  0  0  0  0  0  0  0  0  0
   47.2806   -5.6115    1.2759 C   0  0  0  0  0  0  0  0  0  0  0  0
   47.9248   -2.8238    0.0904 C   0  0  0  0  0  0  0  0  0  0  0  0
   49.2056   -3.4748    0.0698 C   0  0  0  0  0  0  0  0  0  0  0  0
   50.1502   -2.5002    0.0393 C   0  0  0  0  0  0  0  0  0  0  0  0
   48.1162   -1.4681    0.0575 N   0  0  0  0  0  0  0  0  0  0  0  0
   49.4577   -1.2453    0.0328 C   0  0  0  0  0  0  0  0  0  0  0  0
   50.0864    0.0155    0.0027 C   0  0  0  0  0  0  0  0  0  0  0  0
   49.4312    1.2625   -0.0324 C   0  0  0  0  0  0  0  0  0  0  0  0
   50.0971    2.5300   -0.1014 C   0  0  0  0  0  0  0  0  0  0  0  0
   49.1319    3.4833   -0.1523 C   0  0  0  0  0  0  0  0  0  0  0  0
   47.8648    2.8072   -0.1051 C   0  0  0  0  0  0  0  0  0  0  0  0
   48.0851    1.4571   -0.0381 N   0  0  0  0  0  0  0  0  0  0  0  0
   46.6134    3.4314   -0.1550 C   0  0  0  0  0  0  0  0  0  0  0  0
   46.5961    4.9149   -0.2148 C   0  0  0  0  0  0  0  0  0  0  0  0
   47.1321    5.6757    0.8270 C   0  0  0  0  0  0  0  0  0  0  0  0
   47.1167    7.0585    0.7764 C   0  0  0  0  0  0  0  0  0  0  0  0
   46.5665    7.7033   -0.3296 C   0  0  0  0  0  0  0  0  0  0  0  0
   46.5712    9.0620   -0.3495 O   0  0  0  0  0  0  0  0  0  0  0  0
   46.0307    6.9585   -1.3774 C   0  0  0  0  0  0  0  0  0  0  0  0
   46.0445    5.5735   -1.3140 C   0  0  0  0  0  0  0  0  0  0  0  0
   45.3755    2.7765   -0.1542 C   0  0  0  0  0  0  0  0  0  0  0  0
   44.0893    3.4219   -0.1547 C   0  0  0  0  0  0  0  0  0  0  0  0
   43.1494    2.4440   -0.1305 C   0  0  0  0  0  0  0  0  0  0  0  0
   43.8484    1.1898   -0.1059 C   0  0  0  0  0  0  0  0  0  0  0  0
   45.1935    1.4247   -0.1188 N   0  0  0  0  0  0  0  0  0  0  0  0
   42.1573   -0.0713   -0.0473 H   0  0  0  0  0  0  0  0  0  0  0  0
   42.1317   -2.6906    0.1217 H   0  0  0  0  0  0  0  0  0  0  0  0
   44.0262   -4.5848    0.2390 H   0  0  0  0  0  0  0  0  0  0  0  0
   45.7037   -5.2335   -1.6986 H   0  0  0  0  0  0  0  0  0  0  0  0
   45.7249   -7.7023   -1.5752 H   0  0  0  0  0  0  0  0  0  0  0  0
   46.3503   -9.5225   -0.3376 H   0  0  0  0  0  0  0  0  0  0  0  0
   47.7366   -7.5004    2.2000 H   0  0  0  0  0  0  0  0  0  0  0  0
   47.7066   -5.0252    2.0824 H   0  0  0  0  0  0  0  0  0  0  0  0
   49.3610   -4.5417    0.0644 H   0  0  0  0  0  0  0  0  0  0  0  0
   51.2224   -2.6138    0.0172 H   0  0  0  0  0  0  0  0  0  0  0  0
   51.1669    2.6651   -0.1176 H   0  0  0  0  0  0  0  0  0  0  0  0
   49.2650    4.5504   -0.2297 H   0  0  0  0  0  0  0  0  0  0  0  0
   47.5494    5.1745    1.6932 H   0  0  0  0  0  0  0  0  0  0  0  0
   47.5258    7.6504    1.5859 H   0  0  0  0  0  0  0  0  0  0  0  0
   46.1663    9.4028   -1.1583 H   0  0  0  0  0  0  0  0  0  0  0  0
   45.6071    7.4647   -2.2383 H   0  0  0  0  0  0  0  0  0  0  0  0
   45.6383    4.9949   -2.1363 H   0  0  0  0  0  0  0  0  0  0  0  0
   43.9301    4.4885   -0.1582 H   0  0  0  0  0  0  0  0  0  0  0  0
   42.0759    2.5510   -0.1214 H   0  0  0  0  0  0  0  0  0  0  0  0
   87.0944   -0.0010   -0.0042 Zn  0  0  0  0  0  0  0  0  0  0  0  0
   90.5036    0.0430   -0.0549 C   0  0  0  0  0  0  0  0  0  0  0  0
   89.8675    1.2745   -0.1576 C   0  0  0  0  0  0  0  0  0  0  0  0
   90.5354    2.5428   -0.2430 C   0  0  0  0  0  0  0  0  0  0  0  0
   89.5717    3.4957   -0.3051 C   0  0  0  0  0  0  0  0  0  0  0  0
   88.3018    2.8199   -0.2669 C   0  0  0  0  0  0  0  0  0  0  0  0
   88.5171    1.4759   -0.1722 N   0  0  0  0  0  0  0  0  0  0  0  0
   87.0481    3.4438   -0.2877 C   0  0  0  0  0  0  0  0  0  0  0  0
   87.0269    4.9229   -0.4153 C   0  0  0  0  0  0  0  0  0  0  0  0
   87.5560    5.5442   -1.5469 C   0  0  0  0  0  0  0  0  0  0  0  0
   87.5296    6.9244   -1.6759 C   0  0  0  0  0  0  0  0  0  0  0  0
   86.9755    7.7026   -0.6625 C   0  0  0  0  0  0  0  0  0  0  0  0
   86.9304    9.0579   -0.7474 O   0  0  0  0  0  0  0  0  0  0  0  0
   86.4485    7.0956    0.4758 C   0  0  0  0  0  0  0  0  0  0  0  0
   86.4734    5.7169    0.5921 C   0  0  0  0  0  0  0  0  0  0  0  0
   85.8129    2.7921   -0.2007 C   0  0  0  0  0  0  0  0  0  0  0  0
   84.5292    3.4343   -0.2674 C   0  0  0  0  0  0  0  0  0  0  0  0
   83.5883    2.4609   -0.1682 C   0  0  0  0  0  0  0  0  0  0  0  0
   85.6265    1.4411   -0.0740 N   0  0  0  0  0  0  0  0  0  0  0  0
   84.2857    1.2142   -0.0504 C   0  0  0  0  0  0  0  0  0  0  0  0
   83.6612   -0.0458    0.0408 C   0  0  0  0  0  0  0  0  0  0  0  0
   84.3201   -1.2887    0.1201 C   0  0  0  0  0  0  0  0  0  0  0  0
   83.6587   -2.5587    0.1839 C   0  0  0  0  0  0  0  0  0  0  0  0
   84.6272   -3.5077    0.2512 C   0  0  0  0  0  0  0  0  0  0  0  0
   85.8916   -2.8252    0.2367 C   0  0  0  0  0  0  0  0  0  0  0  0
   85.6668   -1.4773    0.1470 N   0  0  0  0  0  0  0  0  0  0  0  0
   87.1452   -3.4456    0.2805 C   0  0  0  0  0  0  0  0  0  0  0  0
   87.1661   -4.9242    0.4143 C   0  0  0  0  0  0  0  0  0  0  0  0
   86.6156   -5.5425    1.5396 C   0  0  0  0  0  0  0  0  0  0  0  0
   86.6352   -6.9195    1.6737 C   0  0  0  0  0  0  0  0  0  0  0  0
   87.2043   -7.7031    0.6717 C   0  0  0  0  0  0  0  0  0  0  0  0
   87.2038   -9.0522    0.8329 O   0  0  0  0  0  0  0  0  0  0  0  0
   87.7540   -7.1016   -0.4578 C   0  0  0  0  0  0  0  0  0  0  0  0
   87.7359   -5.7205   -0.5794 C   0  0  0  0  0  0  0  0  0  0  0  0
   88.3812   -2.7906    0.2121 C   0  0  0  0  0  0  0  0  0  0  0  0
   89.6695   -3.4254    0.3016 C   0  0  0  0  0  0  0  0  0  0  0  0
   90.6059   -2.4488    0.2021 C   0  0  0  0  0  0  0  0  0  0  0  0
   89.9026   -1.2049    0.0610 C   0  0  0  0  0  0  0  0  0  0  0  0
   88.5584   -1.4446    0.0748 N   0  0  0  0  0  0  0  0  0  0  0  0
   91.5892    0.0585   -0.0531 H   0  0  0  0  0  0  0  0  0  0  0  0
   91.6060    2.6762   -0.2459 H   0  0  0  0  0  0  0  0  0  0  0  0
   89.7046    4.5645   -0.3576 H   0  0  0  0  0  0  0  0  0  0  0  0
   87.9755    4.9389   -2.3430 H   0  0  0  0  0  0  0  0  0  0  0  0
   87.9354    7.4011   -2.5620 H   0  0  0  0  0  0  0  0  0  0  0  0
   87.3209    9.3713   -1.5741 H   0  0  0  0  0  0  0  0  0  0  0  0
   86.0249    7.7132    1.2581 H   0  0  0  0  0  0  0  0  0  0  0  0
   86.0737    5.2457    1.4832 H   0  0  0  0  0  0  0  0  0  0  0  0
   84.3688    4.4934   -0.3895 H   0  0  0  0  0  0  0  0  0  0  0  0
   82.5154    2.5694   -0.1818 H   0  0  0  0  0  0  0  0  0  0  0  0
   82.5894   -2.6989    0.1721 H   0  0  0  0  0  0  0  0  0  0  0  0
   84.4983   -4.5773    0.2927 H   0  0  0  0  0  0  0  0  0  0  0  0
   86.1833   -4.9324    2.3249 H   0  0  0  0  0  0  0  0  0  0  0  0
   86.2151   -7.4004    2.5485 H   0  0  0  0  0  0  0  0  0  0  0  0
   87.6212   -9.4959    0.0824 H   0  0  0  0  0  0  0  0  0  0  0  0
   88.1920   -7.7159   -1.2374 H   0  0  0  0  0  0  0  0  0  0  0  0
   88.1531   -5.2547   -1.4654 H   0  0  0  0  0  0  0  0  0  0  0  0
   89.8325   -4.4827    0.4372 H   0  0  0  0  0  0  0  0  0  0  0  0
   91.6798   -2.5497    0.2290 H   0  0  0  0  0  0  0  0  0  0  0  0
   52.7152    0.0364   -0.0142 C   0  0  0  0  0  0  0  0  0  0  0  0
   51.4932    0.0290   -0.0061 C   0  0  0  0  0  0  0  0  0  0  0  0
   54.0654    0.0427   -0.0240 C   0  0  0  0  0  0  0  0  0  0  0  0
   55.2876    0.0464   -0.0321 C   0  0  0  0  0  0  0  0  0  0  0  0
   66.2003    0.0069   -0.0595 C   0  0  0  0  0  0  0  0  0  0  0  0
   64.9776    0.0176   -0.0570 C   0  0  0  0  0  0  0  0  0  0  0  0
   67.5491   -0.0031   -0.0598 C   0  0  0  0  0  0  0  0  0  0  0  0
   68.7717   -0.0128   -0.0595 C   0  0  0  0  0  0  0  0  0  0  0  0
   79.6823   -0.0650    0.0263 C   0  0  0  0  0  0  0  0  0  0  0  0
   78.4602   -0.0593    0.0168 C   0  0  0  0  0  0  0  0  0  0  0  0
   81.0325   -0.0660    0.0344 C   0  0  0  0  0  0  0  0  0  0  0  0
   82.2545   -0.0621    0.0385 C   0  0  0  0  0  0  0  0  0  0  0  0
   60.1333    0.0391   -0.0544 Zn  0  0  0  0  0  0  0  0  0  0  0  0
   56.6938    0.0465   -0.0417 C   0  0  0  0  0  0  0  0  0  0  0  0
   57.3418    1.1212    0.5996 C   0  0  0  0  0  0  0  0  0  0  0  0
   56.6688    2.1838    1.2857 C   0  0  0  0  0  0  0  0  0  0  0  0
   57.6285    3.0095    1.7770 C   0  0  0  0  0  0  0  0  0  0  0  0
   58.8977    2.4633    1.3860 C   0  0  0  0  0  0  0  0  0  0  0  0
   58.6864    1.3108    0.6771 N   0  0  0  0  0  0  0  0  0  0  0  0
   60.1462    3.0100    1.7043 C   0  0  0  0  0  0  0  0  0  0  0  0
   60.1541    4.2838    2.4671 C   0  0  0  0  0  0  0  0  0  0  0  0
   60.7334    4.3462    3.7369 C   0  0  0  0  0  0  0  0  0  0  0  0
   60.7442    5.5291    4.4546 C   0  0  0  0  0  0  0  0  0  0  0  0
   60.1771    6.6766    3.9035 C   0  0  0  0  0  0  0  0  0  0  0  0
   60.2090    7.8225    4.6324 O   0  0  0  0  0  0  0  0  0  0  0  0
   59.5982    6.6308    2.6375 C   0  0  0  0  0  0  0  0  0  0  0  0
   59.5859    5.4389    1.9293 C   0  0  0  0  0  0  0  0  0  0  0  0
   61.3896    2.4611    1.3709 C   0  0  0  0  0  0  0  0  0  0  0  0
   62.6637    3.0585    1.6568 C   0  0  0  0  0  0  0  0  0  0  0  0
   63.6163    2.2240    1.1665 C   0  0  0  0  0  0  0  0  0  0  0  0
   61.5911    1.2841    0.7001 N   0  0  0  0  0  0  0  0  0  0  0  0
   62.9339    1.1154    0.5686 C   0  0  0  0  0  0  0  0  0  0  0  0
   63.5731    0.0253   -0.0567 C   0  0  0  0  0  0  0  0  0  0  0  0
   62.9241   -1.0584   -0.6832 C   0  0  0  0  0  0  0  0  0  0  0  0
   63.5969   -2.1713   -1.2843 C   0  0  0  0  0  0  0  0  0  0  0  0
   62.6372   -2.9958   -1.7774 C   0  0  0  0  0  0  0  0  0  0  0  0
   61.3683   -2.3884   -1.4891 C   0  0  0  0  0  0  0  0  0  0  0  0
   61.5800   -1.2151   -0.8151 N   0  0  0  0  0  0  0  0  0  0  0  0
   60.1203   -2.9271   -1.8214 C   0  0  0  0  0  0  0  0  0  0  0  0
   60.1174   -4.1987   -2.5879 C   0  0  0  0  0  0  0  0  0  0  0  0
   59.5445   -5.3517   -2.0506 C   0  0  0  0  0  0  0  0  0  0  0  0
   59.5469   -6.5419   -2.7616 C   0  0  0  0  0  0  0  0  0  0  0  0
   60.1205   -6.5881   -4.0299 C   0  0  0  0  0  0  0  0  0  0  0  0
   60.1423   -7.7326   -4.7618 O   0  0  0  0  0  0  0  0  0  0  0  0
   60.6923   -5.4428   -4.5806 C   0  0  0  0  0  0  0  0  0  0  0  0
   60.6916   -4.2615   -3.8600 C   0  0  0  0  0  0  0  0  0  0  0  0
   58.8766   -2.3742   -1.4953 C   0  0  0  0  0  0  0  0  0  0  0  0
   57.6022   -2.9135   -1.8789 C   0  0  0  0  0  0  0  0  0  0  0  0
   56.6497   -2.0865   -1.3760 C   0  0  0  0  0  0  0  0  0  0  0  0
   57.3323   -1.0290   -0.6915 C   0  0  0  0  0  0  0  0  0  0  0  0
   58.6755   -1.2233   -0.7809 N   0  0  0  0  0  0  0  0  0  0  0  0
   55.5987    2.2754    1.3832 H   0  0  0  0  0  0  0  0  0  0  0  0
   57.4897    3.9028    2.3645 H   0  0  0  0  0  0  0  0  0  0  0  0
   61.1642    3.4506    4.1707 H   0  0  0  0  0  0  0  0  0  0  0  0
   61.1869    5.5780    5.4418 H   0  0  0  0  0  0  0  0  0  0  0  0
   59.7857    8.5517    4.1598 H   0  0  0  0  0  0  0  0  0  0  0  0
   59.1616    7.5276    2.2108 H   0  0  0  0  0  0  0  0  0  0  0  0
   59.1462    5.4080    0.9385 H   0  0  0  0  0  0  0  0  0  0  0  0
   62.8104    4.0026    2.1564 H   0  0  0  0  0  0  0  0  0  0  0  0
   64.6874    2.3463    1.1967 H   0  0  0  0  0  0  0  0  0  0  0  0
   64.6668   -2.3030   -1.3145 H   0  0  0  0  0  0  0  0  0  0  0  0
   62.7756   -3.9395   -2.2801 H   0  0  0  0  0  0  0  0  0  0  0  0
   59.1091   -5.3204   -1.0580 H   0  0  0  0  0  0  0  0  0  0  0  0
   59.1066   -7.4371   -2.3353 H   0  0  0  0  0  0  0  0  0  0  0  0
   59.7199   -8.4610   -4.2872 H   0  0  0  0  0  0  0  0  0  0  0  0
   61.1310   -5.4921   -5.5695 H   0  0  0  0  0  0  0  0  0  0  0  0
   61.1266   -3.3677   -4.2931 H   0  0  0  0  0  0  0  0  0  0  0  0
   57.4553   -3.8036   -2.4693 H   0  0  0  0  0  0  0  0  0  0  0  0
   55.5785   -2.1738   -1.4652 H   0  0  0  0  0  0  0  0  0  0  0  0
   73.6153   -0.0333   -0.0280 Zn  0  0  0  0  0  0  0  0  0  0  0  0
   70.1762   -0.0190   -0.0531 C   0  0  0  0  0  0  0  0  0  0  0  0
   70.8201    1.0452    0.6111 C   0  0  0  0  0  0  0  0  0  0  0  0
   70.1421    2.1012    1.3021 C   0  0  0  0  0  0  0  0  0  0  0  0
   71.0981    2.9278    1.7993 C   0  0  0  0  0  0  0  0  0  0  0  0
   72.3698    2.3887    1.4069 C   0  0  0  0  0  0  0  0  0  0  0  0
   72.1635    1.2374    0.6940 N   0  0  0  0  0  0  0  0  0  0  0  0
   73.6154    2.9439    1.7205 C   0  0  0  0  0  0  0  0  0  0  0  0
   73.6148    4.2230    2.4743 C   0  0  0  0  0  0  0  0  0  0  0  0
   74.1966    4.3016    3.7420 C   0  0  0  0  0  0  0  0  0  0  0  0
   74.1931    5.4894    4.4517 C   0  0  0  0  0  0  0  0  0  0  0  0
   73.6093    6.6256    3.8944 C   0  0  0  0  0  0  0  0  0  0  0  0
   73.6257    7.7762    4.6164 O   0  0  0  0  0  0  0  0  0  0  0  0
   73.0293    6.5640    2.6296 C   0  0  0  0  0  0  0  0  0  0  0  0
   73.0312    5.3672    1.9297 C   0  0  0  0  0  0  0  0  0  0  0  0
   74.8612    2.4001    1.3873 C   0  0  0  0  0  0  0  0  0  0  0  0
   76.1328    3.0063    1.6663 C   0  0  0  0  0  0  0  0  0  0  0  0
   77.0889    2.1698    1.1864 C   0  0  0  0  0  0  0  0  0  0  0  0
   75.0674    1.2173    0.7290 N   0  0  0  0  0  0  0  0  0  0  0  0
   76.4113    1.0510    0.6018 C   0  0  0  0  0  0  0  0  0  0  0  0
   77.0541   -0.0516    0.0041 C   0  0  0  0  0  0  0  0  0  0  0  0
   76.4104   -1.1455   -0.6083 C   0  0  0  0  0  0  0  0  0  0  0  0
   77.0869   -2.2675   -1.1880 C   0  0  0  0  0  0  0  0  0  0  0  0
   76.1311   -3.0896   -1.6928 C   0  0  0  0  0  0  0  0  0  0  0  0
   74.8610   -2.4720   -1.4327 C   0  0  0  0  0  0  0  0  0  0  0  0
   75.0673   -1.2966   -0.7615 N   0  0  0  0  0  0  0  0  0  0  0  0
   73.6160   -3.0002   -1.7938 C   0  0  0  0  0  0  0  0  0  0  0  0
   73.6191   -4.2675   -2.5671 C   0  0  0  0  0  0  0  0  0  0  0  0
   73.0166   -5.4167   -2.0548 C   0  0  0  0  0  0  0  0  0  0  0  0
   73.0201   -6.6007   -2.7763 C   0  0  0  0  0  0  0  0  0  0  0  0
   73.6248   -6.6443   -4.0302 C   0  0  0  0  0  0  0  0  0  0  0  0
   73.6476   -7.7820   -4.7723 O   0  0  0  0  0  0  0  0  0  0  0  0
   74.2280   -5.5030   -4.5552 C   0  0  0  0  0  0  0  0  0  0  0  0
   74.2256   -4.3282   -3.8243 C   0  0  0  0  0  0  0  0  0  0  0  0
   72.3703   -2.4371   -1.4948 C   0  0  0  0  0  0  0  0  0  0  0  0
   71.0999   -2.9628   -1.9094 C   0  0  0  0  0  0  0  0  0  0  0  0
   70.1436   -2.1323   -1.4192 C   0  0  0  0  0  0  0  0  0  0  0  0
   70.8203   -1.0864   -0.7117 C   0  0  0  0  0  0  0  0  0  0  0  0
   72.1632   -1.2892   -0.7768 N   0  0  0  0  0  0  0  0  0  0  0  0
   69.0716    2.1891    1.3978 H   0  0  0  0  0  0  0  0  0  0  0  0
   70.9550    3.8174    2.3913 H   0  0  0  0  0  0  0  0  0  0  0  0
   74.6397    3.4147    4.1811 H   0  0  0  0  0  0  0  0  0  0  0  0
   74.6368    5.5509    5.4377 H   0  0  0  0  0  0  0  0  0  0  0  0
   73.1909    8.4961    4.1400 H   0  0  0  0  0  0  0  0  0  0  0  0
   72.5800    7.4520    2.1978 H   0  0  0  0  0  0  0  0  0  0  0  0
   72.5899    5.3237    0.9401 H   0  0  0  0  0  0  0  0  0  0  0  0
   76.2752    3.9565    2.1553 H   0  0  0  0  0  0  0  0  0  0  0  0
   78.1595    2.2965    1.2162 H   0  0  0  0  0  0  0  0  0  0  0  0
   78.1564   -2.4054   -1.1989 H   0  0  0  0  0  0  0  0  0  0  0  0
   76.2727   -4.0376   -2.1863 H   0  0  0  0  0  0  0  0  0  0  0  0
   72.5563   -5.3880   -1.0734 H   0  0  0  0  0  0  0  0  0  0  0  0
   72.5560   -7.4929   -2.3696 H   0  0  0  0  0  0  0  0  0  0  0  0
   73.1989   -8.5073   -4.3176 H   0  0  0  0  0  0  0  0  0  0  0  0
   74.6912   -5.5502   -5.5329 H   0  0  0  0  0  0  0  0  0  0  0  0
   74.6841   -3.4370   -4.2382 H   0  0  0  0  0  0  0  0  0  0  0  0
   70.9580   -3.8469   -2.5099 H   0  0  0  0  0  0  0  0  0  0  0  0
   69.0738   -2.2105   -1.5307 H   0  0  0  0  0  0  0  0  0  0  0  0
  2  3  4  0  0  0  0
  3  4  1  0  0  0  0
  4  5  2  0  0  0  0
  5  6  4  0  0  0  0
  1  7  1  0  0  0  0
  3  7  4  0  0  0  0
  6  7  4  0  0  0  0
  6  8  4  0  0  0  0
  8  9  1  0  0  0  0
  9 10  4  0  0  0  0
 10 11  4  0  0  0  0
 11 12  4  0  0  0  0
 12 13  1  0  0  0  0
 12 14  4  0  0  0  0
  9 15  4  0  0  0  0
 14 15  4  0  0  0  0
  8 16  4  0  0  0  0
 16 17  4  0  0  0  0
 17 18  2  0  0  0  0
  1 19  1  0  0  0  0
 16 19  4  0  0  0  0
 18 20  4  0  0  0  0
 19 20  4  0  0  0  0
 20 21  4  0  0  0  0
 21 22  4  0  0  0  0
 22 23  4  0  0  0  0
 23 24  2  0  0  0  0
 24 25  4  0  0  0  0
  1 26  1  0  0  0  0
 22 26  4  0  0  0  0
 25 26  4  0  0  0  0
 25 27  4  0  0  0  0
 27 28  1  0  0  0  0
 28 29  4  0  0  0  0
 29 30  4  0  0  0  0
 30 31  4  0  0  0  0
 31 32  1  0  0  0  0
 31 33  4  0  0  0  0
 28 34  4  0  0  0  0
 33 34  4  0  0  0  0
 27 35  4  0  0  0  0
 35 36  4  0  0  0  0
 36 37  2  0  0  0  0
  2 38  4  0  0  0  0
 37 38  1  0  0  0  0
  1 39  1  0  0  0  0
 35 39  4  0  0  0  0
 38 39  4  0  0  0  0
  2 40  1  0  0  0  0
  4 41  1  0  0  0  0
  5 42  1  0  0  0  0
 10 43  1  0  0  0  0
 11 44  1  0  0  0  0
 13 45  1  0  0  0  0
 14 46  1  0  0  0  0
 15 47  1  0  0  0  0
 17 48  1  0  0  0  0
 18 49  1  0  0  0  0
 23 50  1  0  0  0  0
 24 51  1  0  0  0  0
 29 52  1  0  0  0  0
 30 53  1  0  0  0  0
 32 54  1  0  0  0  0
 33 55  1  0  0  0  0
 34 56  1  0  0  0  0
 36 57  1  0  0  0  0
 37 58  1  0  0  0  0
 60 61  4  0  0  0  0
 61 62  1  0  0  0  0
 62 63  2  0  0  0  0
 63 64  4  0  0  0  0
 59 65  1  0  0  0  0
 61 65  4  0  0  0  0
 64 65  4  0  0  0  0
 64 66  4  0  0  0  0
 66 67  1  0  0  0  0
 67 68  4  0  0  0  0
 68 69  4  0  0  0  0
 69 70  4  0  0  0  0
 70 71  1  0  0  0  0
 70 72  4  0  0  0  0
 67 73  4  0  0  0  0
 72 73  4  0  0  0  0
 66 74  4  0  0  0  0
 74 75  4  0  0  0  0
 75 76  2  0  0  0  0
 59 77  1  0  0  0  0
 74 77  4  0  0  0  0
 76 78  4  0  0  0  0
 77 78  4  0  0  0  0
 78 79  4  0  0  0  0
 79 80  4  0  0  0  0
 80 81  4  0  0  0  0
 81 82  2  0  0  0  0
 82 83  4  0  0  0  0
 59 84  1  0  0  0  0
 80 84  4  0  0  0  0
 83 84  4  0  0  0  0
 83 85  4  0  0  0  0
 85 86  1  0  0  0  0
 86 87  4  0  0  0  0
 87 88  4  0  0  0  0
 88 89  4  0  0  0  0
 89 90  1  0  0  0  0
 89 91  4  0  0  0  0
 86 92  4  0  0  0  0
 91 92  4  0  0  0  0
 85 93  4  0  0  0  0
 93 94  4  0  0  0  0
 94 95  2  0  0  0  0
 60 96  4  0  0  0  0
 95 96  1  0  0  0  0
 59 97  1  0  0  0  0
 93 97  4  0  0  0  0
 96 97  4  0  0  0  0
 60 98  1  0  0  0  0
 62 99  1  0  0  0  0
 63100  1  0  0  0  0
 68101  1  0  0  0  0
 69102  1  0  0  0  0
 71103  1  0  0  0  0
 72104  1  0  0  0  0
 73105  1  0  0  0  0
 75106  1  0  0  0  0
 76107  1  0  0  0  0
 81108  1  0  0  0  0
 82109  1  0  0  0  0
 87110  1  0  0  0  0
 88111  1  0  0  0  0
 90112  1  0  0  0  0
 91113  1  0  0  0  0
 92114  1  0  0  0  0
 94115  1  0  0  0  0
 95116  1  0  0  0  0
 21118  4  0  0  0  0
117118  3  0  0  0  0
117119  4  0  0  0  0
119120  3  0  0  0  0
121122  3  0  0  0  0
121123  4  0  0  0  0
123124  3  0  0  0  0
125126  3  0  0  0  0
125127  4  0  0  0  0
 79128  4  0  0  0  0
127128  3  0  0  0  0
120130  4  0  0  0  0
130131  4  0  0  0  0
131132  4  0  0  0  0
132133  2  0  0  0  0
133134  4  0  0  0  0
129135  1  0  0  0  0
131135  4  0  0  0  0
134135  4  0  0  0  0
134136  4  0  0  0  0
136137  1  0  0  0  0
137138  4  0  0  0  0
138139  4  0  0  0  0
139140  4  0  0  0  0
140141  1  0  0  0  0
140142  4  0  0  0  0
137143  4  0  0  0  0
142143  4  0  0  0  0
136144  4  0  0  0  0
144145  4  0  0  0  0
145146  2  0  0  0  0
129147  1  0  0  0  0
144147  4  0  0  0  0
146148  4  0  0  0  0
147148  4  0  0  0  0
122149  4  0  0  0  0
148149  4  0  0  0  0
149150  4  0  0  0  0
150151  4  0  0  0  0
151152  2  0  0  0  0
152153  4  0  0  0  0
129154  1  0  0  0  0
150154  4  0  0  0  0
153154  4  0  0  0  0
153155  4  0  0  0  0
155156  1  0  0  0  0
156157  4  0  0  0  0
157158  4  0  0  0  0
158159  4  0  0  0  0
159160  1  0  0  0  0
159161  4  0  0  0  0
156162  4  0  0  0  0
161162  4  0  0  0  0
155163  4  0  0  0  0
163164  4  0  0  0  0
164165  2  0  0  0  0
130166  4  0  0  0  0
165166  4  0  0  0  0
129167  1  0  0  0  0
163167  4  0  0  0  0
166167  4  0  0  0  0
132168  1  0  0  0  0
133169  1  0  0  0  0
138170  1  0  0  0  0
139171  1  0  0  0  0
141172  1  0  0  0  0
142173  1  0  0  0  0
143174  1  0  0  0  0
145175  1  0  0  0  0
146176  1  0  0  0  0
151177  1  0  0  0  0
152178  1  0  0  0  0
157179  1  0  0  0  0
158180  1  0  0  0  0
160181  1  0  0  0  0
161182  1  0  0  0  0
162183  1  0  0  0  0
164184  1  0  0  0  0
165185  1  0  0  0  0
124187  4  0  0  0  0
187188  4  0  0  0  0
188189  4  0  0  0  0
189190  2  0  0  0  0
190191  4  0  0  0  0
186192  1  0  0  0  0
188192  4  0  0  0  0
191192  4  0  0  0  0
191193  4  0  0  0  0
193194  1  0  0  0  0
194195  4  0  0  0  0
195196  4  0  0  0  0
196197  4  0  0  0  0
197198  1  0  0  0  0
197199  4  0  0  0  0
194200  4  0  0  0  0
199200  4  0  0  0  0
193201  4  0  0  0  0
201202  4  0  0  0  0
202203  2  0  0  0  0
186204  1  0  0  0  0
201204  4  0  0  0  0
203205  4  0  0  0  0
204205  4  0  0  0  0
126206  4  0  0  0  0
205206  4  0  0  0  0
206207  4  0  0  0  0
207208  4  0  0  0  0
208209  2  0  0  0  0
209210  4  0  0  0  0
186211  1  0  0  0  0
207211  4  0  0  0  0
210211  4  0  0  0  0
210212  4  0  0  0  0
212213  1  0  0  0  0
213214  4  0  0  0  0
214215  4  0  0  0  0
215216  4  0  0  0  0
216217  1  0  0  0  0
216218  4  0  0  0  0
213219  4  0  0  0  0
218219  4  0  0  0  0
212220  4  0  0  0  0
220221  4  0  0  0  0
221222  2  0  0  0  0
187223  4  0  0  0  0
222223  4  0  0  0  0
186224  1  0  0  0  0
220224  4  0  0  0  0
223224  4  0  0  0  0
189225  1  0  0  0  0
190226  1  0  0  0  0
195227  1  0  0  0  0
196228  1  0  0  0  0
198229  1  0  0  0  0
199230  1  0  0  0  0
200231  1  0  0  0  0
202232  1  0  0  0  0
203233  1  0  0  0  0
208234  1  0  0  0  0
209235  1  0  0  0  0
214236  1  0  0  0  0
215237  1  0  0  0  0
217238  1  0  0  0  0
218239  1  0  0  0  0
219240  1  0  0  0  0
221241  1  0  0  0  0
222242  1  0  0  0  0
M  END
