302

C 41.164978 -0.044642 -0.115065
C 41.892362 -0.241414 1.254720
C 41.291083 -0.594081 2.443032
C 42.311397 -0.628660 3.427223
C 43.492251 -0.265454 2.816626
N 43.235949 -0.090075 1.478564
C 44.910332 -0.117942 3.514929
C 46.044349 -0.061446 2.759045
C 47.356241 0.088835 3.355997
C 48.257948 0.149830 2.384070
N 46.238759 -0.101928 1.402759
C 47.572882 0.017555 1.112518
C 48.233163 0.025941 -0.075068
C 47.449365 -0.165724 -1.443525
C 47.961331 -0.715200 -2.602277
C 46.939479 -0.677003 -3.583815
C 45.835599 -0.101841 -2.999953
C 44.433088 0.162959 -3.704636
C 44.426147 0.376547 -5.182962
C 44.918203 1.565857 -5.758853
O 45.412542 2.650808 -5.082679
C 44.531370 3.218322 -4.113161
C 45.019664 1.691348 -7.152059
C 44.590288 0.666562 -7.991323
C 44.074401 -0.503740 -7.439834
C 44.010701 -0.666716 -6.049386
O 43.506007 -1.810464 -5.478882
C 43.753043 -3.032508 -6.168640
C 43.309936 0.189285 -2.939922
C 41.978909 0.352502 -3.496666
C 41.095269 0.271415 -2.505014
C 41.829584 0.081065 -1.278349
N 43.156387 0.063798 -1.586919
N 46.136795 0.153799 -1.680672
C 44.947613 -0.002885 5.004814
C 44.647070 1.211278 5.661561
O 44.183378 2.331752 5.019823
C 45.197003 3.005792 4.277876
C 44.679738 1.302568 7.057909
C 45.037803 0.198183 7.824378
C 45.324158 -1.014217 7.196314
C 45.279019 -1.126311 5.797359
O 45.484422 -2.314139 5.141455
C 46.270030 -3.299953 5.791479
H 40.073388 -0.008310 -0.110034
H 40.241048 -0.799209 2.584796
H 42.193301 -0.867455 4.471565
H 43.934164 0.108289 0.765654
H 47.569724 0.152613 4.406970
H 49.315884 0.260257 2.538374
H 48.955022 -1.112562 -2.724510
H 46.995778 -1.029985 -4.601076
H 45.043351 3.245725 -3.141942
H 44.318266 4.250676 -4.411986
H 43.581749 2.700908 -4.007211
H 45.437076 2.601704 -7.571033
H 44.657584 0.778591 -9.066968
H 43.727535 -1.287422 -8.104953
H 43.604281 -3.858752 -5.469975
H 43.034500 -3.157714 -6.985594
H 44.781535 -3.087132 -6.540459
H 41.741278 0.475136 -4.535750
H 40.023807 0.323430 -2.596017
H 45.460314 0.446311 -0.980750
H 45.477928 3.923618 4.803669
H 44.784836 3.293339 3.305442
H 46.097826 2.421650 4.105977
H 44.412295 2.237666 7.539025
H 45.066891 0.279281 8.907563
H 45.552219 -1.871008 7.818539
H 45.694252 -3.793667 6.576984
H 46.544189 -4.055609 5.052526
H 47.195071 -2.876338 6.198408
C 92.369471 -0.040828 -0.028985
C 91.642087 -0.357979 -1.375999
C 92.243366 -0.814364 -2.528463
C 91.223052 -0.935853 -3.505738
C 90.042198 -0.520066 -2.929658
N 90.298500 -0.227030 -1.612351
C 88.624117 -0.434894 -3.638271
C 87.490100 -0.311765 -2.890346
C 86.178208 -0.214870 -3.498250
C 85.276500 -0.068153 -2.535526
N 87.295690 -0.232133 -1.535795
C 85.961566 -0.087447 -1.257259
C 85.301286 0.025941 -0.075068
C 86.085083 -0.043940 1.304978
C 85.573117 -0.488778 2.507787
C 86.594970 -0.363919 3.482100
C 87.698849 0.157350 2.849656
C 89.101360 0.483437 3.528157
C 89.108302 0.826938 4.981800
C 88.616246 2.062522 5.450245
O 88.121907 3.083417 4.680763
C 89.003079 3.562958 3.664851
C 88.514785 2.310742 6.826892
C 88.944161 1.364200 7.753504
C 89.460048 0.149708 7.307683
C 89.523747 -0.135607 5.937098
O 90.028441 -1.325330 5.469988
C 89.781405 -2.481580 6.265126
C 90.224512 0.442026 2.764112
C 91.555540 0.653843 3.304239
C 92.439180 0.485368 2.323644
C 91.704865 0.187272 1.118622
N 90.378061 0.197365 1.427510
N 87.397653 0.295305 1.512936
C 88.586836 -0.452060 -5.132493
C 88.887378 0.699259 -5.894052
O 89.351070 1.872100 -5.353929
C 88.337446 2.609120 -4.674505
C 88.854711 0.666692 -7.293003
C 88.496645 -0.501154 -7.958791
C 88.210291 -1.653255 -7.225958
C 88.255429 -1.641179 -5.822571
O 88.050027 -2.766341 -5.064181
C 87.264419 -3.805783 -5.624468
H 93.461061 -0.005083 -0.037210
H 93.293401 -1.031226 -2.651528
H 91.341148 -1.266078 -4.524867
H 89.600284 0.033609 -0.919779
H 85.964724 -0.244295 -4.550745
H 84.218565 0.028194 -2.698993
H 84.579427 -0.873772 2.664685
H 86.538670 -0.625546 4.526594
H 88.491098 3.504355 2.695015
H 89.216182 4.617696 3.871199
H 89.952699 3.038202 3.605079
H 88.097373 3.254586 7.163709
H 88.876865 1.570925 8.815026
H 89.806914 -0.572076 8.039508
H 89.930168 -3.366379 5.642276
H 90.499949 -2.534039 7.089953
H 88.752913 -2.503104 6.640320
H 91.793171 0.867898 4.328404
H 93.510642 0.545228 2.409690
H 88.074135 0.524766 0.789885
H 88.056520 3.476846 -5.279414
H 88.749612 2.981547 -3.731313
H 87.436622 2.042471 -4.451615
H 89.122153 1.555574 -7.854937
H 88.467557 -0.516176 -9.044904
H 87.982230 -2.561720 -7.769966
H 87.840197 -4.367036 -6.363228
H 86.990259 -4.493121 -4.821578
H 86.339377 -3.419818 -6.067268
C 52.054640 0.038672 -0.072543
C 50.802370 0.019491 -0.076892
C 53.368308 0.037906 -0.070611
C 54.871442 0.019491 -0.076892
C 66.027994 0.038672 -0.072543
C 64.775723 0.019491 -0.076892
C 67.341662 0.037906 -0.070611
C 68.844795 0.019491 -0.076892
C 80.001347 0.038672 -0.072543
C 78.749077 0.019491 -0.076892
C 81.315015 0.037906 -0.070611
C 82.818149 0.019491 -0.076892
C 56.239749 -0.027926 0.082518
C 57.030911 1.228458 0.645903
C 56.502019 2.262770 1.389592
C 57.536911 3.210288 1.576239
C 58.671610 2.723728 0.963742
N 58.370577 1.485394 0.453387
C 60.079058 3.457060 0.867682
C 61.211061 2.735573 0.636394
C 62.511810 3.364093 0.514860
C 63.421916 2.417271 0.334660
N 61.416228 1.390500 0.479090
C 62.748814 1.135332 0.290798
C 63.417999 -0.027926 0.082518
C 62.616394 -1.391622 -0.020459
C 63.115185 -2.662661 0.211239
C 62.079300 -3.584795 -0.073861
C 60.980223 -2.847138 -0.478339
C 59.585441 -3.432754 -0.956594
C 59.591571 -4.779594 -1.606591
C 59.227651 -5.911635 -0.828096
O 58.903181 -5.695194 0.487844
C 57.963841 -6.585986 1.071708
C 59.269947 -7.201921 -1.375720
C 59.680252 -7.390387 -2.686804
C 60.045313 -6.290208 -3.455043
C 59.992165 -4.985562 -2.943792
O 60.402750 -4.058231 -3.871937
C 59.732406 -2.796875 -3.855908
C 58.447932 -2.704404 -0.786580
C 57.143918 -3.212914 -1.166115
C 56.231239 -2.295517 -0.872718
C 56.908632 -1.144516 -0.306568
N 58.245274 -1.447164 -0.284967
N 61.295593 -1.514882 -0.377912
C 60.108422 4.941519 1.019478
C 60.175197 5.778044 -0.113307
O 60.235521 5.219427 -1.367511
C 59.100439 5.575020 -2.159727
C 60.244559 7.172641 0.021486
C 60.212897 7.758285 1.284887
C 60.106455 6.952883 2.416721
C 60.073458 5.558412 2.288967
O 59.912681 4.853316 3.454279
C 61.148667 4.277915 3.884071
H 55.482278 2.347002 1.743366
H 57.465841 4.149179 2.102045
H 59.041078 0.852962 0.019295
H 62.715777 4.416758 0.574272
H 64.474928 2.589309 0.223945
H 64.118282 -2.905283 0.536239
H 62.131131 -4.664426 -0.005984
H 57.564478 -6.113960 1.976351
H 58.458763 -7.517408 1.374942
H 57.114482 -6.785968 0.402229
H 59.024082 -8.071617 -0.779292
H 59.730428 -8.388377 -3.109915
H 60.374182 -6.439078 -4.474380
H 59.736959 -2.453911 -4.906018
H 58.668826 -2.896222 -3.568843
H 60.274567 -2.053436 -3.256562
H 56.943828 -4.171518 -1.605118
H 55.177169 -2.409264 -1.044310
H 60.649774 -0.738497 -0.500379
H 59.328412 6.489721 -2.723293
H 58.190914 5.727667 -1.566067
H 58.921069 4.769548 -2.885899
H 60.340320 7.799187 -0.859697
H 60.271404 8.837555 1.385042
H 60.072722 7.397258 3.403651
H 61.895103 4.164504 3.094687
H 60.931553 3.291663 4.314306
H 61.574647 4.909954 4.672061
C 70.213102 -0.027926 0.082518
C 71.004265 1.228458 0.645903
C 70.475372 2.262770 1.389592
C 71.510265 3.210288 1.576239
C 72.644963 2.723728 0.963742
N 72.343931 1.485394 0.453387
C 74.052411 3.457060 0.867682
C 75.184415 2.735573 0.636394
C 76.485164 3.364093 0.514860
C 77.395269 2.417271 0.334660
N 75.389582 1.390500 0.479090
C 76.722167 1.135332 0.290798
C 77.391353 -0.027926 0.082518
C 76.589747 -1.391622 -0.020459
C 77.088538 -2.662661 0.211239
C 76.052653 -3.584795 -0.073861
C 74.953576 -2.847138 -0.478339
C 73.558795 -3.432754 -0.956594
C 73.564924 -4.779594 -1.606591
C 73.201005 -5.911635 -0.828096
O 72.876535 -5.695194 0.487844
C 71.937195 -6.585986 1.071708
C 73.243300 -7.201921 -1.375720
C 73.653606 -7.390387 -2.686804
C 74.018666 -6.290208 -3.455043
C 73.965519 -4.985562 -2.943792
O 74.376103 -4.058231 -3.871937
C 73.705759 -2.796875 -3.855908
C 72.421285 -2.704404 -0.786580
C 71.117272 -3.212914 -1.166115
C 70.204593 -2.295517 -0.872718
C 70.881986 -1.144516 -0.306568
N 72.218628 -1.447164 -0.284967
N 75.268947 -1.514882 -0.377912
C 74.081775 4.941519 1.019478
C 74.148551 5.778044 -0.113307
O 74.208875 5.219427 -1.367511
C 73.073793 5.575020 -2.159727
C 74.217913 7.172641 0.021486
C 74.186250 7.758285 1.284887
C 74.079808 6.952883 2.416721
C 74.046812 5.558412 2.288967
O 73.886035 4.853316 3.454279
C 75.122021 4.277915 3.884071
H 69.455631 2.347002 1.743366
H 71.439194 4.149179 2.102045
H 73.014432 0.852962 0.019295
H 76.689130 4.416758 0.574272
H 78.448282 2.589309 0.223945
H 78.091636 -2.905283 0.536239
H 76.104484 -4.664426 -0.005984
H 71.537831 -6.113960 1.976351
H 72.432117 -7.517408 1.374942
H 71.087835 -6.785968 0.402229
H 72.997435 -8.071617 -0.779292
H 73.703781 -8.388377 -3.109915
H 74.347535 -6.439078 -4.474380
H 73.710313 -2.453911 -4.906018
H 72.642180 -2.896222 -3.568843
H 74.247921 -2.053436 -3.256562
H 70.917181 -4.171518 -1.605118
H 69.150523 -2.409264 -1.044310
H 74.623127 -0.738497 -0.500379
H 73.301766 6.489721 -2.723293
H 72.164267 5.727667 -1.566067
H 72.894423 4.769548 -2.885899
H 74.313674 7.799187 -0.859697
H 74.244757 8.837555 1.385042
H 74.046075 7.397258 3.403651
H 75.868456 4.164504 3.094687
H 74.904907 3.291663 4.314306
H 75.548000 4.909954 4.672061
