 xtb: 6.5.1 (b24c23e)
          07302203403D

302329  0     0  0            999 V2000
   43.1258    0.0824    0.0455 C   0  0  0  0  0  0  0  0  0  0  0  0
   43.7576    0.1415    1.2808 C   0  0  0  0  0  0  0  0  0  0  0  0
   43.1378    0.1740    2.5624 C   0  0  0  0  0  0  0  0  0  0  0  0
   44.1240    0.2406    3.5057 C   0  0  0  0  0  0  0  0  0  0  0  0
   45.3782    0.2456    2.8312 C   0  0  0  0  0  0  0  0  0  0  0  0
   45.1065    0.1892    1.4931 N   0  0  0  0  0  0  0  0  0  0  0  0
   46.6503    0.3002    3.4062 C   0  0  0  0  0  0  0  0  0  0  0  0
   47.8574    0.2562    2.7076 C   0  0  0  0  0  0  0  0  0  0  0  0
   49.1575    0.2551    3.3537 C   0  0  0  0  0  0  0  0  0  0  0  0
   50.0750    0.2097    2.3653 C   0  0  0  0  0  0  0  0  0  0  0  0
   48.0057    0.2208    1.3553 N   0  0  0  0  0  0  0  0  0  0  0  0
   49.3336    0.1882    1.1186 C   0  0  0  0  0  0  0  0  0  0  0  0
   49.9580    0.1429   -0.1430 C   0  0  0  0  0  0  0  0  0  0  0  0
   49.3014    0.1229   -1.3861 C   0  0  0  0  0  0  0  0  0  0  0  0
   49.9152    0.1132   -2.6678 C   0  0  0  0  0  0  0  0  0  0  0  0
   48.9244    0.1213   -3.6098 C   0  0  0  0  0  0  0  0  0  0  0  0
   47.6741    0.1294   -2.9311 C   0  0  0  0  0  0  0  0  0  0  0  0
   46.4025    0.1416   -3.5090 C   0  0  0  0  0  0  0  0  0  0  0  0
   46.3500    0.0984   -5.0030 C   0  0  0  0  0  0  0  0  0  0  0  0
   46.2442    1.2129   -5.8390 C   0  0  0  0  0  0  0  0  0  0  0  0
   46.1864    2.5137   -5.4534 O   0  0  0  0  0  0  0  0  0  0  0  0
   46.0899    2.9442   -4.1095 C   0  0  0  0  0  0  0  0  0  0  0  0
   46.2090    1.0394   -7.2300 C   0  0  0  0  0  0  0  0  0  0  0  0
   46.2758   -0.2222   -7.7828 C   0  0  0  0  0  0  0  0  0  0  0  0
   46.3812   -1.3457   -6.9710 C   0  0  0  0  0  0  0  0  0  0  0  0
   46.4199   -1.1805   -5.5918 C   0  0  0  0  0  0  0  0  0  0  0  0
   46.5273   -2.2143   -4.7134 O   0  0  0  0  0  0  0  0  0  0  0  0
   46.5781   -3.5469   -5.1814 C   0  0  0  0  0  0  0  0  0  0  0  0
   45.1955    0.1031   -2.8069 C   0  0  0  0  0  0  0  0  0  0  0  0
   43.8901    0.0401   -3.4450 C   0  0  0  0  0  0  0  0  0  0  0  0
   42.9798    0.0179   -2.4501 C   0  0  0  0  0  0  0  0  0  0  0  0
   43.7285    0.0741   -1.2065 C   0  0  0  0  0  0  0  0  0  0  0  0
   45.0589    0.1263   -1.4594 N   0  0  0  0  0  0  0  0  0  0  0  0
   47.9535    0.1327   -1.5901 N   0  0  0  0  0  0  0  0  0  0  0  0
   46.7009    0.3112    4.9012 C   0  0  0  0  0  0  0  0  0  0  0  0
   46.6931    1.4581    5.6988 C   0  0  0  0  0  0  0  0  0  0  0  0
   46.6403    2.7436    5.2628 O   0  0  0  0  0  0  0  0  0  0  0  0
   46.8545    3.1323    3.9192 C   0  0  0  0  0  0  0  0  0  0  0  0
   46.7163    1.3361    7.0952 C   0  0  0  0  0  0  0  0  0  0  0  0
   46.7526    0.0927    7.6908 C   0  0  0  0  0  0  0  0  0  0  0  0
   46.7679   -1.0623    6.9175 C   0  0  0  0  0  0  0  0  0  0  0  0
   46.7394   -0.9482    5.5328 C   0  0  0  0  0  0  0  0  0  0  0  0
   46.7385   -2.0162    4.6897 O   0  0  0  0  0  0  0  0  0  0  0  0
   46.8174   -3.3309    5.2022 C   0  0  0  0  0  0  0  0  0  0  0  0
   42.0415    0.0436    0.0698 H   0  0  0  0  0  0  0  0  0  0  0  0
   42.0721    0.1504    2.7261 H   0  0  0  0  0  0  0  0  0  0  0  0
   44.0059    0.2796    4.5767 H   0  0  0  0  0  0  0  0  0  0  0  0
   45.8105    0.1607    0.7635 H   0  0  0  0  0  0  0  0  0  0  0  0
   49.3168    0.2775    4.4200 H   0  0  0  0  0  0  0  0  0  0  0  0
   51.1503    0.1902    2.4440 H   0  0  0  0  0  0  0  0  0  0  0  0
   50.9803    0.1044   -2.8349 H   0  0  0  0  0  0  0  0  0  0  0  0
   49.0388    0.1189   -4.6817 H   0  0  0  0  0  0  0  0  0  0  0  0
   46.9669    2.6478   -3.5242 H   0  0  0  0  0  0  0  0  0  0  0  0
   46.0400    4.0350   -4.1487 H   0  0  0  0  0  0  0  0  0  0  0  0
   45.1835    2.5611   -3.6285 H   0  0  0  0  0  0  0  0  0  0  0  0
   46.1286    1.9216   -7.8525 H   0  0  0  0  0  0  0  0  0  0  0  0
   46.2462   -0.3419   -8.8599 H   0  0  0  0  0  0  0  0  0  0  0  0
   46.4335   -2.3294   -7.4175 H   0  0  0  0  0  0  0  0  0  0  0  0
   46.6469   -4.1782   -4.2935 H   0  0  0  0  0  0  0  0  0  0  0  0
   45.6727   -3.8105   -5.7414 H   0  0  0  0  0  0  0  0  0  0  0  0
   47.4581   -3.7178   -5.8135 H   0  0  0  0  0  0  0  0  0  0  0  0
   43.7256    0.0080   -4.5103 H   0  0  0  0  0  0  0  0  0  0  0  0
   41.9042   -0.0315   -2.5190 H   0  0  0  0  0  0  0  0  0  0  0  0
   47.2525    0.1252   -0.8568 H   0  0  0  0  0  0  0  0  0  0  0  0
   47.8134    2.7612    3.5418 H   0  0  0  0  0  0  0  0  0  0  0  0
   46.8692    4.2248    3.9228 H   0  0  0  0  0  0  0  0  0  0  0  0
   46.0468    2.7888    3.2639 H   0  0  0  0  0  0  0  0  0  0  0  0
   46.7056    2.2423    7.6876 H   0  0  0  0  0  0  0  0  0  0  0  0
   46.7717    0.0121    8.7718 H   0  0  0  0  0  0  0  0  0  0  0  0
   46.7972   -2.0310    7.3977 H   0  0  0  0  0  0  0  0  0  0  0  0
   45.9504   -3.5708    5.8297 H   0  0  0  0  0  0  0  0  0  0  0  0
   46.8268   -3.9946    4.3356 H   0  0  0  0  0  0  0  0  0  0  0  0
   47.7366   -3.4815    5.7811 H   0  0  0  0  0  0  0  0  0  0  0  0
   90.3832   -0.0037   -0.1349 C   0  0  0  0  0  0  0  0  0  0  0  0
   89.7816   -0.1927   -1.3722 C   0  0  0  0  0  0  0  0  0  0  0  0
   90.4319   -0.3950   -2.6227 C   0  0  0  0  0  0  0  0  0  0  0  0
   89.4681   -0.5307   -3.5817 C   0  0  0  0  0  0  0  0  0  0  0  0
   88.1978   -0.4228   -2.9470 C   0  0  0  0  0  0  0  0  0  0  0  0
   88.4376   -0.2134   -1.6180 N   0  0  0  0  0  0  0  0  0  0  0  0
   86.9395   -0.5182   -3.5463 C   0  0  0  0  0  0  0  0  0  0  0  0
   85.7164   -0.4593   -2.8771 C   0  0  0  0  0  0  0  0  0  0  0  0
   84.4340   -0.6337   -3.5347 C   0  0  0  0  0  0  0  0  0  0  0  0
   83.4924   -0.4938   -2.5781 C   0  0  0  0  0  0  0  0  0  0  0  0
   85.5340   -0.2136   -1.5511 N   0  0  0  0  0  0  0  0  0  0  0  0
   84.2014   -0.2265   -1.3414 C   0  0  0  0  0  0  0  0  0  0  0  0
   83.5451    0.0129   -0.1181 C   0  0  0  0  0  0  0  0  0  0  0  0
   84.1717    0.2852    1.1112 C   0  0  0  0  0  0  0  0  0  0  0  0
   83.5273    0.5492    2.3497 C   0  0  0  0  0  0  0  0  0  0  0  0
   84.4954    0.7517    3.2938 C   0  0  0  0  0  0  0  0  0  0  0  0
   85.7614    0.6125    2.6604 C   0  0  0  0  0  0  0  0  0  0  0  0
   87.0186    0.7338    3.2574 C   0  0  0  0  0  0  0  0  0  0  0  0
   87.0317    0.9761    4.7332 C   0  0  0  0  0  0  0  0  0  0  0  0
   87.1368    2.2266    5.3472 C   0  0  0  0  0  0  0  0  0  0  0  0
   87.2310    3.4301    4.7259 O   0  0  0  0  0  0  0  0  0  0  0  0
   87.3355    3.5996    3.3255 C   0  0  0  0  0  0  0  0  0  0  0  0
   87.1326    2.3178    6.7465 C   0  0  0  0  0  0  0  0  0  0  0  0
   87.0275    1.1842    7.5247 C   0  0  0  0  0  0  0  0  0  0  0  0
   86.9217   -0.0707    6.9361 C   0  0  0  0  0  0  0  0  0  0  0  0
   86.9220   -0.1678    5.5500 C   0  0  0  0  0  0  0  0  0  0  0  0
   86.8186   -1.3472    4.8789 O   0  0  0  0  0  0  0  0  0  0  0  0
   86.7289   -2.5672    5.5866 C   0  0  0  0  0  0  0  0  0  0  0  0
   88.2426    0.5571    2.6082 C   0  0  0  0  0  0  0  0  0  0  0  0
   89.5315    0.6233    3.2787 C   0  0  0  0  0  0  0  0  0  0  0  0
   90.4665    0.4134    2.3297 C   0  0  0  0  0  0  0  0  0  0  0  0
   89.7493    0.2239    1.0806 C   0  0  0  0  0  0  0  0  0  0  0  0
   88.4130    0.3174    1.2857 N   0  0  0  0  0  0  0  0  0  0  0  0
   85.5143    0.3379    1.3414 N   0  0  0  0  0  0  0  0  0  0  0  0
   86.9256   -0.7951   -5.0161 C   0  0  0  0  0  0  0  0  0  0  0  0
   86.9597    0.1807   -6.0154 C   0  0  0  0  0  0  0  0  0  0  0  0
   87.0066    1.5251   -5.8250 O   0  0  0  0  0  0  0  0  0  0  0  0
   86.6914    2.1585   -4.5993 C   0  0  0  0  0  0  0  0  0  0  0  0
   86.9762   -0.2024   -7.3635 C   0  0  0  0  0  0  0  0  0  0  0  0
   86.9511   -1.5362   -7.7142 C   0  0  0  0  0  0  0  0  0  0  0  0
   86.9075   -2.5243   -6.7374 C   0  0  0  0  0  0  0  0  0  0  0  0
   86.8982   -2.1509   -5.3987 C   0  0  0  0  0  0  0  0  0  0  0  0
   86.8720   -3.0405   -4.3694 O   0  0  0  0  0  0  0  0  0  0  0  0
   86.7978   -4.4281   -4.6267 C   0  0  0  0  0  0  0  0  0  0  0  0
   91.4679   -0.0331   -0.1263 H   0  0  0  0  0  0  0  0  0  0  0  0
   91.5015   -0.4282   -2.7566 H   0  0  0  0  0  0  0  0  0  0  0  0
   89.6119   -0.6962   -4.6373 H   0  0  0  0  0  0  0  0  0  0  0  0
   87.7169   -0.1143   -0.9113 H   0  0  0  0  0  0  0  0  0  0  0  0
   84.3019   -0.8425   -4.5842 H   0  0  0  0  0  0  0  0  0  0  0  0
   82.4202   -0.5589   -2.6733 H   0  0  0  0  0  0  0  0  0  0  0  0
   82.4584    0.5779    2.4882 H   0  0  0  0  0  0  0  0  0  0  0  0
   84.3554    0.9743    4.3392 H   0  0  0  0  0  0  0  0  0  0  0  0
   86.4585    3.2037    2.8023 H   0  0  0  0  0  0  0  0  0  0  0  0
   87.3929    4.6780    3.1593 H   0  0  0  0  0  0  0  0  0  0  0  0
   88.2409    3.1273    2.9295 H   0  0  0  0  0  0  0  0  0  0  0  0
   87.2133    3.3003    7.1941 H   0  0  0  0  0  0  0  0  0  0  0  0
   87.0263    1.2695    8.6055 H   0  0  0  0  0  0  0  0  0  0  0  0
   86.8391   -0.9520    7.5577 H   0  0  0  0  0  0  0  0  0  0  0  0
   86.6701   -3.3529    4.8309 H   0  0  0  0  0  0  0  0  0  0  0  0
   87.6141   -2.7347    6.2120 H   0  0  0  0  0  0  0  0  0  0  0  0
   85.8297   -2.6033    6.2137 H   0  0  0  0  0  0  0  0  0  0  0  0
   89.6693    0.7993    4.3337 H   0  0  0  0  0  0  0  0  0  0  0  0
   91.5400    0.3834    2.4332 H   0  0  0  0  0  0  0  0  0  0  0  0
   86.2324    0.1721    0.6441 H   0  0  0  0  0  0  0  0  0  0  0  0
   85.7162    1.8353   -4.2199 H   0  0  0  0  0  0  0  0  0  0  0  0
   86.6555    3.2290   -4.8157 H   0  0  0  0  0  0  0  0  0  0  0  0
   87.4579    1.9745   -3.8387 H   0  0  0  0  0  0  0  0  0  0  0  0
   87.0073    0.5756   -8.1159 H   0  0  0  0  0  0  0  0  0  0  0  0
   86.9619   -1.8197   -8.7605 H   0  0  0  0  0  0  0  0  0  0  0  0
   86.8864   -3.5662   -7.0269 H   0  0  0  0  0  0  0  0  0  0  0  0
   87.6782   -4.7832   -5.1761 H   0  0  0  0  0  0  0  0  0  0  0  0
   86.7636   -4.9166   -3.6511 H   0  0  0  0  0  0  0  0  0  0  0  0
   85.8919   -4.6838   -5.1895 H   0  0  0  0  0  0  0  0  0  0  0  0
   52.5876    0.1119   -0.2055 C   0  0  0  0  0  0  0  0  0  0  0  0
   51.3669    0.1260   -0.1765 C   0  0  0  0  0  0  0  0  0  0  0  0
   53.9396    0.1005   -0.2297 C   0  0  0  0  0  0  0  0  0  0  0  0
   55.1606    0.0859   -0.2508 C   0  0  0  0  0  0  0  0  0  0  0  0
   66.0765   -0.0254   -0.2059 C   0  0  0  0  0  0  0  0  0  0  0  0
   64.8539   -0.0099   -0.2127 C   0  0  0  0  0  0  0  0  0  0  0  0
   67.4250   -0.0323   -0.2000 C   0  0  0  0  0  0  0  0  0  0  0  0
   68.6477   -0.0354   -0.1946 C   0  0  0  0  0  0  0  0  0  0  0  0
   79.5637   -0.0326   -0.1139 C   0  0  0  0  0  0  0  0  0  0  0  0
   78.3422   -0.0361   -0.1180 C   0  0  0  0  0  0  0  0  0  0  0  0
   80.9153   -0.0219   -0.1110 C   0  0  0  0  0  0  0  0  0  0  0  0
   82.1367   -0.0082   -0.1141 C   0  0  0  0  0  0  0  0  0  0  0  0
   56.5690    0.0803   -0.2716 C   0  0  0  0  0  0  0  0  0  0  0  0
   57.2062    1.2637    0.1430 C   0  0  0  0  0  0  0  0  0  0  0  0
   56.5708    2.4570    0.5778 C   0  0  0  0  0  0  0  0  0  0  0  0
   57.5465    3.3660    0.8802 C   0  0  0  0  0  0  0  0  0  0  0  0
   58.8070    2.7552    0.6364 C   0  0  0  0  0  0  0  0  0  0  0  0
   58.5502    1.4846    0.1966 N   0  0  0  0  0  0  0  0  0  0  0  0
   60.0699    3.3253    0.8260 C   0  0  0  0  0  0  0  0  0  0  0  0
   61.2916    2.6852    0.6227 C   0  0  0  0  0  0  0  0  0  0  0  0
   62.5798    3.3275    0.8116 C   0  0  0  0  0  0  0  0  0  0  0  0
   63.5164    2.4003    0.5247 C   0  0  0  0  0  0  0  0  0  0  0  0
   61.4672    1.3975    0.2148 N   0  0  0  0  0  0  0  0  0  0  0  0
   62.7983    1.1966    0.1519 C   0  0  0  0  0  0  0  0  0  0  0  0
   63.4499    0.0056   -0.2282 C   0  0  0  0  0  0  0  0  0  0  0  0
   62.8131   -1.1806   -0.6416 C   0  0  0  0  0  0  0  0  0  0  0  0
   63.4466   -2.3806   -1.0574 C   0  0  0  0  0  0  0  0  0  0  0  0
   62.4692   -3.2737   -1.4032 C   0  0  0  0  0  0  0  0  0  0  0  0
   61.2108   -2.6448   -1.2025 C   0  0  0  0  0  0  0  0  0  0  0  0
   59.9484   -3.1946   -1.4467 C   0  0  0  0  0  0  0  0  0  0  0  0
   59.9264   -4.6170   -1.9073 C   0  0  0  0  0  0  0  0  0  0  0  0
   60.0805   -5.5974   -0.9057 C   0  0  0  0  0  0  0  0  0  0  0  0
   60.2470   -5.1127    0.3552 O   0  0  0  0  0  0  0  0  0  0  0  0
   60.3862   -5.9973    1.4485 C   0  0  0  0  0  0  0  0  0  0  0  0
   60.0552   -6.9530   -1.2093 C   0  0  0  0  0  0  0  0  0  0  0  0
   59.8769   -7.3457   -2.5310 C   0  0  0  0  0  0  0  0  0  0  0  0
   59.7331   -6.4052   -3.5291 C   0  0  0  0  0  0  0  0  0  0  0  0
   59.7583   -5.0353   -3.2299 C   0  0  0  0  0  0  0  0  0  0  0  0
   59.6194   -4.2405   -4.3214 O   0  0  0  0  0  0  0  0  0  0  0  0
   59.6743   -2.8269   -4.2944 C   0  0  0  0  0  0  0  0  0  0  0  0
   58.7261   -2.5632   -1.2191 C   0  0  0  0  0  0  0  0  0  0  0  0
   57.4398   -3.2039   -1.4263 C   0  0  0  0  0  0  0  0  0  0  0  0
   56.5015   -2.2905   -1.1002 C   0  0  0  0  0  0  0  0  0  0  0  0
   57.2166   -1.0952   -0.6973 C   0  0  0  0  0  0  0  0  0  0  0  0
   58.5491   -1.2864   -0.7816 N   0  0  0  0  0  0  0  0  0  0  0  0
   61.4693   -1.3810   -0.7428 N   0  0  0  0  0  0  0  0  0  0  0  0
   60.0901    4.7435    1.2855 C   0  0  0  0  0  0  0  0  0  0  0  0
   59.6663    5.7691    0.4298 C   0  0  0  0  0  0  0  0  0  0  0  0
   59.2539    5.3792   -0.8059 O   0  0  0  0  0  0  0  0  0  0  0  0
   58.8247    6.3374   -1.7525 C   0  0  0  0  0  0  0  0  0  0  0  0
   59.6917    7.0971    0.8540 C   0  0  0  0  0  0  0  0  0  0  0  0
   60.1337    7.3933    2.1345 C   0  0  0  0  0  0  0  0  0  0  0  0
   60.5513    6.3948    3.0012 C   0  0  0  0  0  0  0  0  0  0  0  0
   60.5314    5.0669    2.5757 C   0  0  0  0  0  0  0  0  0  0  0  0
   60.9089    4.0194    3.3539 O   0  0  0  0  0  0  0  0  0  0  0  0
   61.4106    4.2388    4.6571 C   0  0  0  0  0  0  0  0  0  0  0  0
   55.5033    2.5912    0.6477 H   0  0  0  0  0  0  0  0  0  0  0  0
   57.4106    4.3719    1.2424 H   0  0  0  0  0  0  0  0  0  0  0  0
   59.2623    0.8050   -0.0484 H   0  0  0  0  0  0  0  0  0  0  0  0
   62.7233    4.3503    1.1204 H   0  0  0  0  0  0  0  0  0  0  0  0
   64.5903    2.4961    0.5487 H   0  0  0  0  0  0  0  0  0  0  0  0
   64.5138   -2.5306   -1.0881 H   0  0  0  0  0  0  0  0  0  0  0  0
   62.6004   -4.2805   -1.7653 H   0  0  0  0  0  0  0  0  0  0  0  0
   60.4897   -5.3696    2.3356 H   0  0  0  0  0  0  0  0  0  0  0  0
   61.2795   -6.6256    1.3462 H   0  0  0  0  0  0  0  0  0  0  0  0
   59.5033   -6.6380    1.5619 H   0  0  0  0  0  0  0  0  0  0  0  0
   60.1706   -7.7009   -0.4365 H   0  0  0  0  0  0  0  0  0  0  0  0
   59.8547   -8.4015   -2.7764 H   0  0  0  0  0  0  0  0  0  0  0  0
   59.5999   -6.6991   -4.5626 H   0  0  0  0  0  0  0  0  0  0  0  0
   59.6492   -2.5075   -5.3391 H   0  0  0  0  0  0  0  0  0  0  0  0
   58.8127   -2.4010   -3.7691 H   0  0  0  0  0  0  0  0  0  0  0  0
   60.5991   -2.4660   -3.8320 H   0  0  0  0  0  0  0  0  0  0  0  0
   57.3024   -4.2181   -1.7655 H   0  0  0  0  0  0  0  0  0  0  0  0
   55.4279   -2.3906   -1.1181 H   0  0  0  0  0  0  0  0  0  0  0  0
   60.7596   -0.6976   -0.5009 H   0  0  0  0  0  0  0  0  0  0  0  0
   59.6254    7.0452   -1.9984 H   0  0  0  0  0  0  0  0  0  0  0  0
   57.9483    6.8911   -1.3947 H   0  0  0  0  0  0  0  0  0  0  0  0
   58.5530    5.7775   -2.6493 H   0  0  0  0  0  0  0  0  0  0  0  0
   59.3716    7.8964    0.1992 H   0  0  0  0  0  0  0  0  0  0  0  0
   60.1515    8.4260    2.4651 H   0  0  0  0  0  0  0  0  0  0  0  0
   60.8862    6.6546    3.9964 H   0  0  0  0  0  0  0  0  0  0  0  0
   62.3076    4.8694    4.6407 H   0  0  0  0  0  0  0  0  0  0  0  0
   61.6711    3.2549    5.0515 H   0  0  0  0  0  0  0  0  0  0  0  0
   60.6556    4.6987    5.3062 H   0  0  0  0  0  0  0  0  0  0  0  0
   70.0517   -0.0332   -0.1941 C   0  0  0  0  0  0  0  0  0  0  0  0
   70.6775    1.1628    0.2073 C   0  0  0  0  0  0  0  0  0  0  0  0
   70.0290    2.3576    0.6155 C   0  0  0  0  0  0  0  0  0  0  0  0
   70.9951    3.2718    0.9344 C   0  0  0  0  0  0  0  0  0  0  0  0
   72.2623    2.6620    0.7268 C   0  0  0  0  0  0  0  0  0  0  0  0
   72.0189    1.3881    0.2881 N   0  0  0  0  0  0  0  0  0  0  0  0
   73.5188    3.2324    0.9535 C   0  0  0  0  0  0  0  0  0  0  0  0
   74.7470    2.5969    0.7752 C   0  0  0  0  0  0  0  0  0  0  0  0
   76.0282    3.2403    1.0068 C   0  0  0  0  0  0  0  0  0  0  0  0
   76.9750    2.3263    0.7125 C   0  0  0  0  0  0  0  0  0  0  0  0
   74.9367    1.3205    0.3416 N   0  0  0  0  0  0  0  0  0  0  0  0
   76.2710    1.1293    0.2933 C   0  0  0  0  0  0  0  0  0  0  0  0
   76.9344   -0.0391   -0.1284 C   0  0  0  0  0  0  0  0  0  0  0  0
   76.3124   -1.2185   -0.5781 C   0  0  0  0  0  0  0  0  0  0  0  0
   76.9597   -2.4002   -1.0257 C   0  0  0  0  0  0  0  0  0  0  0  0
   75.9925   -3.3043   -1.3707 C   0  0  0  0  0  0  0  0  0  0  0  0
   74.7267   -2.7008   -1.1398 C   0  0  0  0  0  0  0  0  0  0  0  0
   73.4698   -3.2728   -1.3604 C   0  0  0  0  0  0  0  0  0  0  0  0
   73.4655   -4.6959   -1.8213 C   0  0  0  0  0  0  0  0  0  0  0  0
   73.5985   -5.6734   -0.8140 C   0  0  0  0  0  0  0  0  0  0  0  0
   73.7200   -5.1850    0.4506 O   0  0  0  0  0  0  0  0  0  0  0  0
   73.8305   -6.0665    1.5495 C   0  0  0  0  0  0  0  0  0  0  0  0
   73.6009   -7.0295   -1.1164 C   0  0  0  0  0  0  0  0  0  0  0  0
   73.4740   -7.4253   -2.4431 C   0  0  0  0  0  0  0  0  0  0  0  0
   73.3482   -6.4876   -3.4461 C   0  0  0  0  0  0  0  0  0  0  0  0
   73.3422   -5.1172   -3.1477 C   0  0  0  0  0  0  0  0  0  0  0  0
   73.2293   -4.3252   -4.2441 O   0  0  0  0  0  0  0  0  0  0  0  0
   73.1356   -2.9141   -4.2054 C   0  0  0  0  0  0  0  0  0  0  0  0
   72.2413   -2.6640   -1.1093 C   0  0  0  0  0  0  0  0  0  0  0  0
   70.9633   -3.3253   -1.2993 C   0  0  0  0  0  0  0  0  0  0  0  0
   70.0142   -2.4214   -0.9764 C   0  0  0  0  0  0  0  0  0  0  0  0
   70.7152   -1.2122   -0.5920 C   0  0  0  0  0  0  0  0  0  0  0  0
   72.0486   -1.3856   -0.6802 N   0  0  0  0  0  0  0  0  0  0  0  0
   74.9705   -1.4394   -0.6658 N   0  0  0  0  0  0  0  0  0  0  0  0
   73.5241    4.6475    1.4231 C   0  0  0  0  0  0  0  0  0  0  0  0
   73.1323    5.6792    0.5594 C   0  0  0  0  0  0  0  0  0  0  0  0
   72.7633    5.2977   -0.6923 O   0  0  0  0  0  0  0  0  0  0  0  0
   72.3858    6.2640   -1.6526 C   0  0  0  0  0  0  0  0  0  0  0  0
   73.1433    7.0043    0.9935 C   0  0  0  0  0  0  0  0  0  0  0  0
   73.5399    7.2914    2.2908 C   0  0  0  0  0  0  0  0  0  0  0  0
   73.9255    6.2867    3.1651 C   0  0  0  0  0  0  0  0  0  0  0  0
   73.9189    4.9616    2.7304 C   0  0  0  0  0  0  0  0  0  0  0  0
   74.2675    3.9081    3.5144 O   0  0  0  0  0  0  0  0  0  0  0  0
   74.7053    4.1177    4.8419 C   0  0  0  0  0  0  0  0  0  0  0  0
   68.9599    2.4897    0.6591 H   0  0  0  0  0  0  0  0  0  0  0  0
   70.8476    4.2801    1.2852 H   0  0  0  0  0  0  0  0  0  0  0  0
   72.7382    0.7087    0.0642 H   0  0  0  0  0  0  0  0  0  0  0  0
   76.1598    4.2550    1.3460 H   0  0  0  0  0  0  0  0  0  0  0  0
   78.0477    2.4269    0.7588 H   0  0  0  0  0  0  0  0  0  0  0  0
   78.0287   -2.5311   -1.0744 H   0  0  0  0  0  0  0  0  0  0  0  0
   76.1351   -4.3029   -1.7509 H   0  0  0  0  0  0  0  0  0  0  0  0
   73.9013   -5.4366    2.4383 H   0  0  0  0  0  0  0  0  0  0  0  0
   74.7309   -6.6889    1.4772 H   0  0  0  0  0  0  0  0  0  0  0  0
   72.9489   -6.7132    1.6360 H   0  0  0  0  0  0  0  0  0  0  0  0
   73.7000   -7.7752   -0.3393 H   0  0  0  0  0  0  0  0  0  0  0  0
   73.4754   -8.4814   -2.6881 H   0  0  0  0  0  0  0  0  0  0  0  0
   73.2520   -6.7841   -4.4830 H   0  0  0  0  0  0  0  0  0  0  0  0
   73.0875   -2.5901   -5.2478 H   0  0  0  0  0  0  0  0  0  0  0  0
   72.2290   -2.5858   -3.6858 H   0  0  0  0  0  0  0  0  0  0  0  0
   74.0129   -2.4620   -3.7306 H   0  0  0  0  0  0  0  0  0  0  0  0
   70.8383   -4.3449   -1.6273 H   0  0  0  0  0  0  0  0  0  0  0  0
   68.9420   -2.5369   -0.9863 H   0  0  0  0  0  0  0  0  0  0  0  0
   74.2529   -0.7729   -0.4016 H   0  0  0  0  0  0  0  0  0  0  0  0
   73.2008    6.9697   -1.8536 H   0  0  0  0  0  0  0  0  0  0  0  0
   71.4950    6.8195   -1.3351 H   0  0  0  0  0  0  0  0  0  0  0  0
   72.1566    5.7113   -2.5656 H   0  0  0  0  0  0  0  0  0  0  0  0
   72.8465    7.8082    0.3334 H   0  0  0  0  0  0  0  0  0  0  0  0
   73.5470    8.3219    2.6287 H   0  0  0  0  0  0  0  0  0  0  0  0
   74.2259    6.5397    4.1730 H   0  0  0  0  0  0  0  0  0  0  0  0
   75.6048    4.7442    4.8737 H   0  0  0  0  0  0  0  0  0  0  0  0
   74.9415    3.1304    5.2431 H   0  0  0  0  0  0  0  0  0  0  0  0
   73.9211    4.5776    5.4555 H   0  0  0  0  0  0  0  0  0  0  0  0
  1  2  4  0  0  0  0
  2  3  4  0  0  0  0
  3  4  2  0  0  0  0
  4  5  4  0  0  0  0
  2  6  4  0  0  0  0
  5  6  4  0  0  0  0
  5  7  4  0  0  0  0
  7  8  4  0  0  0  0
  8  9  1  0  0  0  0
  9 10  2  0  0  0  0
  8 11  4  0  0  0  0
 10 12  1  0  0  0  0
 11 12  4  0  0  0  0
 12 13  4  0  0  0  0
 13 14  4  0  0  0  0
 14 15  4  0  0  0  0
 15 16  2  0  0  0  0
 16 17  4  0  0  0  0
 17 18  4  0  0  0  0
 18 19  1  0  0  0  0
 19 20  4  0  0  0  0
 20 21  1  0  0  0  0
 21 22  1  0  0  0  0
 20 23  4  0  0  0  0
 23 24  4  0  0  0  0
 24 25  4  0  0  0  0
 19 26  4  0  0  0  0
 25 26  4  0  0  0  0
 26 27  1  0  0  0  0
 27 28  1  0  0  0  0
 18 29  4  0  0  0  0
 29 30  1  0  0  0  0
 30 31  2  0  0  0  0
  1 32  4  0  0  0  0
 31 32  1  0  0  0  0
 29 33  4  0  0  0  0
 32 33  4  0  0  0  0
 14 34  4  0  0  0  0
 17 34  4  0  0  0  0
  7 35  1  0  0  0  0
 35 36  4  0  0  0  0
 36 37  1  0  0  0  0
 37 38  1  0  0  0  0
 36 39  4  0  0  0  0
 39 40  4  0  0  0  0
 40 41  4  0  0  0  0
 35 42  4  0  0  0  0
 41 42  4  0  0  0  0
 42 43  1  0  0  0  0
 43 44  1  0  0  0  0
  1 45  1  0  0  0  0
  3 46  1  0  0  0  0
  4 47  1  0  0  0  0
  6 48  1  0  0  0  0
  9 49  1  0  0  0  0
 10 50  1  0  0  0  0
 15 51  1  0  0  0  0
 16 52  1  0  0  0  0
 22 53  1  0  0  0  0
 22 54  1  0  0  0  0
 22 55  1  0  0  0  0
 23 56  1  0  0  0  0
 24 57  1  0  0  0  0
 25 58  1  0  0  0  0
 28 59  1  0  0  0  0
 28 60  1  0  0  0  0
 28 61  1  0  0  0  0
 30 62  1  0  0  0  0
 31 63  1  0  0  0  0
 34 64  1  0  0  0  0
 38 65  1  0  0  0  0
 38 66  1  0  0  0  0
 38 67  1  0  0  0  0
 39 68  1  0  0  0  0
 40 69  1  0  0  0  0
 41 70  1  0  0  0  0
 44 71  1  0  0  0  0
 44 72  1  0  0  0  0
 44 73  1  0  0  0  0
 74 75  4  0  0  0  0
 75 76  4  0  0  0  0
 76 77  2  0  0  0  0
 77 78  4  0  0  0  0
 75 79  4  0  0  0  0
 78 79  4  0  0  0  0
 78 80  4  0  0  0  0
 80 81  4  0  0  0  0
 81 82  1  0  0  0  0
 82 83  2  0  0  0  0
 81 84  4  0  0  0  0
 83 85  1  0  0  0  0
 84 85  4  0  0  0  0
 85 86  4  0  0  0  0
 86 87  4  0  0  0  0
 87 88  4  0  0  0  0
 88 89  2  0  0  0  0
 89 90  4  0  0  0  0
 90 91  4  0  0  0  0
 91 92  1  0  0  0  0
 92 93  4  0  0  0  0
 93 94  1  0  0  0  0
 94 95  1  0  0  0  0
 93 96  4  0  0  0  0
 96 97  4  0  0  0  0
 97 98  4  0  0  0  0
 92 99  4  0  0  0  0
 98 99  4  0  0  0  0
 99100  1  0  0  0  0
100101  1  0  0  0  0
 91102  4  0  0  0  0
102103  1  0  0  0  0
103104  2  0  0  0  0
 74105  4  0  0  0  0
104105  1  0  0  0  0
102106  4  0  0  0  0
105106  4  0  0  0  0
 87107  4  0  0  0  0
 90107  4  0  0  0  0
 80108  1  0  0  0  0
108109  4  0  0  0  0
109110  1  0  0  0  0
110111  1  0  0  0  0
109112  4  0  0  0  0
112113  4  0  0  0  0
113114  4  0  0  0  0
108115  4  0  0  0  0
114115  4  0  0  0  0
115116  1  0  0  0  0
116117  1  0  0  0  0
 74118  1  0  0  0  0
 76119  1  0  0  0  0
 77120  1  0  0  0  0
 79121  1  0  0  0  0
 82122  1  0  0  0  0
 83123  1  0  0  0  0
 88124  1  0  0  0  0
 89125  1  0  0  0  0
 95126  1  0  0  0  0
 95127  1  0  0  0  0
 95128  1  0  0  0  0
 96129  1  0  0  0  0
 97130  1  0  0  0  0
 98131  1  0  0  0  0
101132  1  0  0  0  0
101133  1  0  0  0  0
101134  1  0  0  0  0
103135  1  0  0  0  0
104136  1  0  0  0  0
107137  1  0  0  0  0
111138  1  0  0  0  0
111139  1  0  0  0  0
111140  1  0  0  0  0
112141  1  0  0  0  0
113142  1  0  0  0  0
114143  1  0  0  0  0
117144  1  0  0  0  0
117145  1  0  0  0  0
117146  1  0  0  0  0
 13148  4  0  0  0  0
147148  3  0  0  0  0
147149  4  0  0  0  0
149150  3  0  0  0  0
151152  3  0  0  0  0
151153  4  0  0  0  0
153154  3  0  0  0  0
155156  3  0  0  0  0
155157  4  0  0  0  0
 86158  4  0  0  0  0
157158  3  0  0  0  0
150159  4  0  0  0  0
159160  4  0  0  0  0
160161  4  0  0  0  0
161162  2  0  0  0  0
162163  4  0  0  0  0
160164  4  0  0  0  0
163164  4  0  0  0  0
163165  4  0  0  0  0
165166  4  0  0  0  0
166167  1  0  0  0  0
167168  2  0  0  0  0
166169  4  0  0  0  0
168170  1  0  0  0  0
169170  4  0  0  0  0
152171  4  0  0  0  0
170171  4  0  0  0  0
171172  4  0  0  0  0
172173  4  0  0  0  0
173174  2  0  0  0  0
174175  4  0  0  0  0
175176  4  0  0  0  0
176177  1  0  0  0  0
177178  4  0  0  0  0
178179  1  0  0  0  0
179180  1  0  0  0  0
178181  4  0  0  0  0
181182  4  0  0  0  0
182183  4  0  0  0  0
177184  4  0  0  0  0
183184  4  0  0  0  0
184185  1  0  0  0  0
185186  1  0  0  0  0
176187  4  0  0  0  0
187188  1  0  0  0  0
188189  2  0  0  0  0
159190  4  0  0  0  0
189190  1  0  0  0  0
187191  4  0  0  0  0
190191  4  0  0  0  0
172192  4  0  0  0  0
175192  4  0  0  0  0
165193  1  0  0  0  0
193194  4  0  0  0  0
194195  1  0  0  0  0
195196  1  0  0  0  0
194197  4  0  0  0  0
197198  4  0  0  0  0
198199  4  0  0  0  0
193200  4  0  0  0  0
199200  4  0  0  0  0
200201  1  0  0  0  0
201202  1  0  0  0  0
161203  1  0  0  0  0
162204  1  0  0  0  0
164205  1  0  0  0  0
167206  1  0  0  0  0
168207  1  0  0  0  0
173208  1  0  0  0  0
174209  1  0  0  0  0
180210  1  0  0  0  0
180211  1  0  0  0  0
180212  1  0  0  0  0
181213  1  0  0  0  0
182214  1  0  0  0  0
183215  1  0  0  0  0
186216  1  0  0  0  0
186217  1  0  0  0  0
186218  1  0  0  0  0
188219  1  0  0  0  0
189220  1  0  0  0  0
192221  1  0  0  0  0
196222  1  0  0  0  0
196223  1  0  0  0  0
196224  1  0  0  0  0
197225  1  0  0  0  0
198226  1  0  0  0  0
199227  1  0  0  0  0
202228  1  0  0  0  0
202229  1  0  0  0  0
202230  1  0  0  0  0
154231  4  0  0  0  0
231232  4  0  0  0  0
232233  4  0  0  0  0
233234  2  0  0  0  0
234235  4  0  0  0  0
232236  4  0  0  0  0
235236  4  0  0  0  0
235237  4  0  0  0  0
237238  4  0  0  0  0
238239  1  0  0  0  0
239240  2  0  0  0  0
238241  4  0  0  0  0
240242  1  0  0  0  0
241242  4  0  0  0  0
156243  4  0  0  0  0
242243  4  0  0  0  0
243244  4  0  0  0  0
244245  4  0  0  0  0
245246  2  0  0  0  0
246247  4  0  0  0  0
247248  4  0  0  0  0
248249  1  0  0  0  0
249250  4  0  0  0  0
250251  1  0  0  0  0
251252  1  0  0  0  0
250253  4  0  0  0  0
253254  4  0  0  0  0
254255  4  0  0  0  0
249256  4  0  0  0  0
255256  4  0  0  0  0
256257  1  0  0  0  0
257258  1  0  0  0  0
248259  4  0  0  0  0
259260  1  0  0  0  0
260261  2  0  0  0  0
231262  4  0  0  0  0
261262  1  0  0  0  0
259263  4  0  0  0  0
262263  4  0  0  0  0
244264  4  0  0  0  0
247264  4  0  0  0  0
237265  1  0  0  0  0
265266  4  0  0  0  0
266267  1  0  0  0  0
267268  1  0  0  0  0
266269  4  0  0  0  0
269270  4  0  0  0  0
270271  4  0  0  0  0
265272  4  0  0  0  0
271272  4  0  0  0  0
272273  1  0  0  0  0
273274  1  0  0  0  0
233275  1  0  0  0  0
234276  1  0  0  0  0
236277  1  0  0  0  0
239278  1  0  0  0  0
240279  1  0  0  0  0
245280  1  0  0  0  0
246281  1  0  0  0  0
252282  1  0  0  0  0
252283  1  0  0  0  0
252284  1  0  0  0  0
253285  1  0  0  0  0
254286  1  0  0  0  0
255287  1  0  0  0  0
258288  1  0  0  0  0
258289  1  0  0  0  0
258290  1  0  0  0  0
260291  1  0  0  0  0
261292  1  0  0  0  0
264293  1  0  0  0  0
268294  1  0  0  0  0
268295  1  0  0  0  0
268296  1  0  0  0  0
269297  1  0  0  0  0
270298  1  0  0  0  0
271299  1  0  0  0  0
274300  1  0  0  0  0
274301  1  0  0  0  0
274302  1  0  0  0  0
M  END
