 xtb: 6.5.1 (b24c23e)
          07292222123D

 78 93  0     0  0            999 V2000
    6.5672   -0.0085    0.0278 Co  0  0  0  0  0  0  0  0  0  0  0  0
    3.3298   -0.6129    0.7399 C   0  0  0  0  0  0  0  0  0  0  0  0
    3.9300   -1.3621   -0.2513 C   0  0  0  0  0  0  0  0  0  0  0  0
    3.2459   -2.3464   -1.0371 C   0  0  0  0  0  0  0  0  0  0  0  0
    4.1107   -2.7472   -1.9989 C   0  0  0  0  0  0  0  0  0  0  0  0
    5.3407   -2.0506   -1.7635 C   0  0  0  0  0  0  0  0  0  0  0  0
    5.2130   -1.1928   -0.7030 N   0  0  0  0  0  0  0  0  0  0  0  0
    6.5177   -2.3168   -2.4331 C   0  0  0  0  0  0  0  0  0  0  0  0
    7.7397   -1.8326   -2.0176 C   0  0  0  0  0  0  0  0  0  0  0  0
    8.9965   -2.3064   -2.5121 C   0  0  0  0  0  0  0  0  0  0  0  0
    9.9570   -1.7196   -1.7577 C   0  0  0  0  0  0  0  0  0  0  0  0
    7.9330   -0.9269   -1.0018 N   0  0  0  0  0  0  0  0  0  0  0  0
    9.2866   -0.8456   -0.8444 C   0  0  0  0  0  0  0  0  0  0  0  0
    9.9542    0.0654   -0.0194 C   0  0  0  0  0  0  0  0  0  0  0  0
    9.2670    1.0909    0.6383 C   0  0  0  0  0  0  0  0  0  0  0  0
    9.9151    2.2068    1.2559 C   0  0  0  0  0  0  0  0  0  0  0  0
    8.9361    3.0537    1.6564 C   0  0  0  0  0  0  0  0  0  0  0  0
    7.6917    2.4243    1.3331 C   0  0  0  0  0  0  0  0  0  0  0  0
    7.9103    1.2292    0.6893 N   0  0  0  0  0  0  0  0  0  0  0  0
    6.4632    2.8961    1.7426 C   0  0  0  0  0  0  0  0  0  0  0  0
    5.3069    2.1473    1.6552 C   0  0  0  0  0  0  0  0  0  0  0  0
    4.0796    2.4884    2.3114 C   0  0  0  0  0  0  0  0  0  0  0  0
    3.2330    1.4493    2.1190 C   0  0  0  0  0  0  0  0  0  0  0  0
    3.9243    0.5010    1.2961 C   0  0  0  0  0  0  0  0  0  0  0  0
    5.1980    0.9333    1.0304 N   0  0  0  0  0  0  0  0  0  0  0  0
    2.3091   -0.8472    1.0184 H   0  0  0  0  0  0  0  0  0  0  0  0
    2.2257   -2.6556   -0.8735 H   0  0  0  0  0  0  0  0  0  0  0  0
    3.9597   -3.4687   -2.7863 H   0  0  0  0  0  0  0  0  0  0  0  0
    6.4952   -3.0206   -3.2569 H   0  0  0  0  0  0  0  0  0  0  0  0
    9.1081   -3.0189   -3.3139 H   0  0  0  0  0  0  0  0  0  0  0  0
   11.0274   -1.8333   -1.8194 H   0  0  0  0  0  0  0  0  0  0  0  0
   10.9839    2.3220    1.3399 H   0  0  0  0  0  0  0  0  0  0  0  0
    9.0279    4.0055    2.1549 H   0  0  0  0  0  0  0  0  0  0  0  0
    6.4213    3.8530    2.2496 H   0  0  0  0  0  0  0  0  0  0  0  0
    3.9176    3.3990    2.8662 H   0  0  0  0  0  0  0  0  0  0  0  0
    2.2196    1.3289    2.4681 H   0  0  0  0  0  0  0  0  0  0  0  0
   22.4974   -0.0093    0.0164 Co  0  0  0  0  0  0  0  0  0  0  0  0
   25.7167   -0.0666    0.9956 C   0  0  0  0  0  0  0  0  0  0  0  0
   25.1254    1.1597    0.7703 C   0  0  0  0  0  0  0  0  0  0  0  0
   25.8137    2.4125    0.8761 C   0  0  0  0  0  0  0  0  0  0  0  0
   24.9668    3.3629    0.4143 C   0  0  0  0  0  0  0  0  0  0  0  0
   23.7416    2.6976    0.0830 C   0  0  0  0  0  0  0  0  0  0  0  0
   23.8550    1.3485    0.2910 N   0  0  0  0  0  0  0  0  0  0  0  0
   22.5795    3.3516   -0.2739 C   0  0  0  0  0  0  0  0  0  0  0  0
   21.3538    2.7225   -0.3214 C   0  0  0  0  0  0  0  0  0  0  0  0
   20.1030    3.4134   -0.4053 C   0  0  0  0  0  0  0  0  0  0  0  0
   19.1328    2.4820   -0.2390 C   0  0  0  0  0  0  0  0  0  0  0  0
   21.1471    1.3728   -0.1619 N   0  0  0  0  0  0  0  0  0  0  0  0
   19.7920    1.2183   -0.1150 C   0  0  0  0  0  0  0  0  0  0  0  0
   19.1157   -0.0062   -0.0938 C   0  0  0  0  0  0  0  0  0  0  0  0
   19.7949   -1.2151   -0.2790 C   0  0  0  0  0  0  0  0  0  0  0  0
   19.1390   -2.4543   -0.5632 C   0  0  0  0  0  0  0  0  0  0  0  0
   20.1119   -3.3561   -0.8397 C   0  0  0  0  0  0  0  0  0  0  0  0
   21.3608   -2.6792   -0.6639 C   0  0  0  0  0  0  0  0  0  0  0  0
   21.1506   -1.3602   -0.3385 N   0  0  0  0  0  0  0  0  0  0  0  0
   22.5869   -3.3089   -0.6856 C   0  0  0  0  0  0  0  0  0  0  0  0
   23.7457   -2.7034   -0.2427 C   0  0  0  0  0  0  0  0  0  0  0  0
   24.9692   -3.4038    0.0143 C   0  0  0  0  0  0  0  0  0  0  0  0
   25.8131   -2.5153    0.5906 C   0  0  0  0  0  0  0  0  0  0  0  0
   25.1252   -1.2585    0.6299 C   0  0  0  0  0  0  0  0  0  0  0  0
   23.8569   -1.3891    0.1262 N   0  0  0  0  0  0  0  0  0  0  0  0
   26.7307   -0.0888    1.3772 H   0  0  0  0  0  0  0  0  0  0  0  0
   26.8254    2.5240    1.2330 H   0  0  0  0  0  0  0  0  0  0  0  0
   25.1268    4.4258    0.3254 H   0  0  0  0  0  0  0  0  0  0  0  0
   22.6141    4.4253   -0.4165 H   0  0  0  0  0  0  0  0  0  0  0  0
   20.0012    4.4783   -0.5419 H   0  0  0  0  0  0  0  0  0  0  0  0
   18.0629    2.6161   -0.2292 H   0  0  0  0  0  0  0  0  0  0  0  0
   18.0694   -2.5905   -0.5730 H   0  0  0  0  0  0  0  0  0  0  0  0
   20.0131   -4.3960   -1.1077 H   0  0  0  0  0  0  0  0  0  0  0  0
   22.6236   -4.3568   -0.9593 H   0  0  0  0  0  0  0  0  0  0  0  0
   25.1301   -4.4487   -0.1993 H   0  0  0  0  0  0  0  0  0  0  0  0
   26.8227   -2.6688    0.9376 H   0  0  0  0  0  0  0  0  0  0  0  0
   15.1502   -0.0246    0.0958 C   0  0  0  0  0  0  0  0  0  0  0  0
   13.9215   -0.0216    0.1087 C   0  0  0  0  0  0  0  0  0  0  0  0
   12.5780   -0.0002    0.0904 C   0  0  0  0  0  0  0  0  0  0  0  0
   11.3550    0.0301    0.0438 C   0  0  0  0  0  0  0  0  0  0  0  0
   16.4933   -0.0241    0.0562 C   0  0  0  0  0  0  0  0  0  0  0  0
   17.7153   -0.0128   -0.0185 C   0  0  0  0  0  0  0  0  0  0  0  0
  2  3  4  0  0  0  0
  3  4  1  0  0  0  0
  4  5  2  0  0  0  0
  5  6  1  0  0  0  0
  1  7  1  0  0  0  0
  3  7  4  0  0  0  0
  6  7  4  0  0  0  0
  6  8  4  0  0  0  0
  8  9  4  0  0  0  0
  9 10  1  0  0  0  0
 10 11  2  0  0  0  0
  1 12  1  0  0  0  0
  9 12  4  0  0  0  0
 11 13  4  0  0  0  0
 12 13  4  0  0  0  0
 13 14  4  0  0  0  0
 14 15  4  0  0  0  0
 15 16  4  0  0  0  0
 16 17  2  0  0  0  0
 17 18  1  0  0  0  0
  1 19  1  0  0  0  0
 15 19  4  0  0  0  0
 18 19  4  0  0  0  0
 18 20  4  0  0  0  0
 20 21  4  0  0  0  0
 21 22  1  0  0  0  0
 22 23  2  0  0  0  0
  2 24  4  0  0  0  0
 23 24  1  0  0  0  0
  1 25  1  0  0  0  0
 21 25  4  0  0  0  0
 24 25  4  0  0  0  0
  2 26  1  0  0  0  0
  4 27  1  0  0  0  0
  5 28  1  0  0  0  0
  8 29  1  0  0  0  0
 10 30  1  0  0  0  0
 11 31  1  0  0  0  0
 16 32  1  0  0  0  0
 17 33  1  0  0  0  0
 20 34  1  0  0  0  0
 22 35  1  0  0  0  0
 23 36  1  0  0  0  0
 38 39  4  0  0  0  0
 39 40  1  0  0  0  0
 40 41  2  0  0  0  0
 41 42  1  0  0  0  0
 37 43  1  0  0  0  0
 39 43  4  0  0  0  0
 42 43  4  0  0  0  0
 42 44  4  0  0  0  0
 44 45  4  0  0  0  0
 45 46  1  0  0  0  0
 46 47  2  0  0  0  0
 37 48  1  0  0  0  0
 45 48  4  0  0  0  0
 47 49  4  0  0  0  0
 48 49  4  0  0  0  0
 49 50  4  0  0  0  0
 50 51  4  0  0  0  0
 51 52  4  0  0  0  0
 52 53  2  0  0  0  0
 53 54  1  0  0  0  0
 37 55  1  0  0  0  0
 51 55  4  0  0  0  0
 54 55  4  0  0  0  0
 54 56  4  0  0  0  0
 56 57  4  0  0  0  0
 57 58  1  0  0  0  0
 58 59  2  0  0  0  0
 38 60  4  0  0  0  0
 59 60  1  0  0  0  0
 37 61  1  0  0  0  0
 57 61  4  0  0  0  0
 60 61  4  0  0  0  0
 38 62  1  0  0  0  0
 40 63  1  0  0  0  0
 41 64  1  0  0  0  0
 44 65  1  0  0  0  0
 46 66  1  0  0  0  0
 47 67  1  0  0  0  0
 52 68  1  0  0  0  0
 53 69  1  0  0  0  0
 56 70  1  0  0  0  0
 58 71  1  0  0  0  0
 59 72  1  0  0  0  0
 73 74  3  0  0  0  0
 74 75  4  0  0  0  0
 14 76  4  0  0  0  0
 75 76  3  0  0  0  0
 73 77  4  0  0  0  0
 50 78  4  0  0  0  0
 77 78  3  0  0  0  0
M  END
