 xtb: 6.5.1 (b24c23e)
          07292216413D

220259  0     0  0            999 V2000
   41.0091   -0.0156   -0.0285 Fe  0  0  0  0  0  0  0  0  0  0  0  0
   37.6236   -0.0345   -0.0469 C   0  0  0  0  0  0  0  0  0  0  0  0
   38.2751   -1.2508   -0.0284 C   0  0  0  0  0  0  0  0  0  0  0  0
   37.6015   -2.5144   -0.0154 C   0  0  0  0  0  0  0  0  0  0  0  0
   38.5565   -3.4619    0.1363 C   0  0  0  0  0  0  0  0  0  0  0  0
   39.8142   -2.7756    0.2108 C   0  0  0  0  0  0  0  0  0  0  0  0
   39.6297   -1.4258    0.0816 N   0  0  0  0  0  0  0  0  0  0  0  0
   41.0234   -3.3967    0.5043 C   0  0  0  0  0  0  0  0  0  0  0  0
   41.0309   -4.8631    0.7193 C   0  0  0  0  0  0  0  0  0  0  0  0
   41.3319   -5.4134    1.9639 C   0  0  0  0  0  0  0  0  0  0  0  0
   41.3283   -6.7918    2.1102 C   0  0  0  0  0  0  0  0  0  0  0  0
   41.0541   -7.6254    1.1120 N   0  0  0  0  0  0  0  0  0  0  0  0
   40.7673   -7.1079   -0.0781 C   0  0  0  0  0  0  0  0  0  0  0  0
   40.7404   -5.7437   -0.3215 C   0  0  0  0  0  0  0  0  0  0  0  0
   42.2232   -2.7067    0.6020 C   0  0  0  0  0  0  0  0  0  0  0  0
   43.4824   -3.3240    0.8969 C   0  0  0  0  0  0  0  0  0  0  0  0
   44.4295   -2.3653    0.7602 C   0  0  0  0  0  0  0  0  0  0  0  0
   42.4034   -1.3755    0.3107 N   0  0  0  0  0  0  0  0  0  0  0  0
   43.7495   -1.1682    0.3741 C   0  0  0  0  0  0  0  0  0  0  0  0
   44.4126   -0.0001   -0.0194 C   0  0  0  0  0  0  0  0  0  0  0  0
   43.7391    1.1622   -0.4117 C   0  0  0  0  0  0  0  0  0  0  0  0
   44.4044    2.3562   -0.8310 C   0  0  0  0  0  0  0  0  0  0  0  0
   43.4486    3.3067   -0.9678 C   0  0  0  0  0  0  0  0  0  0  0  0
   42.2015    2.6908   -0.6232 C   0  0  0  0  0  0  0  0  0  0  0  0
   42.3925    1.3621   -0.3306 N   0  0  0  0  0  0  0  0  0  0  0  0
   40.9935    3.3698   -0.5422 C   0  0  0  0  0  0  0  0  0  0  0  0
   40.9919    4.8357   -0.7472 C   0  0  0  0  0  0  0  0  0  0  0  0
   40.2649    5.4262   -1.7801 C   0  0  0  0  0  0  0  0  0  0  0  0
   40.2993    6.8039   -1.9280 C   0  0  0  0  0  0  0  0  0  0  0  0
   40.9932    7.6020   -1.1230 N   0  0  0  0  0  0  0  0  0  0  0  0
   41.6872    7.0473   -0.1344 C   0  0  0  0  0  0  0  0  0  0  0  0
   41.7204    5.6802    0.0901 C   0  0  0  0  0  0  0  0  0  0  0  0
   39.7866    2.7309   -0.2767 C   0  0  0  0  0  0  0  0  0  0  0  0
   38.5263    3.4057   -0.1563 C   0  0  0  0  0  0  0  0  0  0  0  0
   37.5794    2.4462   -0.0294 C   0  0  0  0  0  0  0  0  0  0  0  0
   38.2631    1.1883   -0.0557 C   0  0  0  0  0  0  0  0  0  0  0  0
   39.6158    1.3777   -0.1650 N   0  0  0  0  0  0  0  0  0  0  0  0
   36.5395   -0.0398   -0.0478 H   0  0  0  0  0  0  0  0  0  0  0  0
   36.5336   -2.6394   -0.0985 H   0  0  0  0  0  0  0  0  0  0  0  0
   38.4319   -4.5300    0.2104 H   0  0  0  0  0  0  0  0  0  0  0  0
   41.5516   -4.7712    2.8083 H   0  0  0  0  0  0  0  0  0  0  0  0
   41.5563   -7.2453    3.0704 H   0  0  0  0  0  0  0  0  0  0  0  0
   40.5497   -7.8146   -0.8735 H   0  0  0  0  0  0  0  0  0  0  0  0
   40.5118   -5.3658   -1.3109 H   0  0  0  0  0  0  0  0  0  0  0  0
   43.6169   -4.3613    1.1565 H   0  0  0  0  0  0  0  0  0  0  0  0
   45.4964   -2.4527    0.8869 H   0  0  0  0  0  0  0  0  0  0  0  0
   45.4671    2.4443   -0.9894 H   0  0  0  0  0  0  0  0  0  0  0  0
   43.5666    4.3323   -1.2773 H   0  0  0  0  0  0  0  0  0  0  0  0
   39.6944    4.8139   -2.4683 H   0  0  0  0  0  0  0  0  0  0  0  0
   39.7453    7.2868   -2.7277 H   0  0  0  0  0  0  0  0  0  0  0  0
   42.2420    7.7254    0.5073 H   0  0  0  0  0  0  0  0  0  0  0  0
   42.2916    5.2723    0.9156 H   0  0  0  0  0  0  0  0  0  0  0  0
   38.3960    4.4756   -0.1674 H   0  0  0  0  0  0  0  0  0  0  0  0
   36.5120    2.5603    0.0744 H   0  0  0  0  0  0  0  0  0  0  0  0
   73.5424    0.0541   -0.0165 Fe  0  0  0  0  0  0  0  0  0  0  0  0
   76.9351    0.0605   -0.0516 C   0  0  0  0  0  0  0  0  0  0  0  0
   76.2858    1.2251   -0.4050 C   0  0  0  0  0  0  0  0  0  0  0  0
   76.9666    2.4298   -0.7731 C   0  0  0  0  0  0  0  0  0  0  0  0
   76.0135    3.3738   -0.9538 C   0  0  0  0  0  0  0  0  0  0  0  0
   74.7506    2.7409   -0.7035 C   0  0  0  0  0  0  0  0  0  0  0  0
   74.9301    1.4228   -0.3832 N   0  0  0  0  0  0  0  0  0  0  0  0
   73.5341    3.4144   -0.6965 C   0  0  0  0  0  0  0  0  0  0  0  0
   73.5310    4.8678   -0.9878 C   0  0  0  0  0  0  0  0  0  0  0  0
   73.1727    5.8000   -0.0154 C   0  0  0  0  0  0  0  0  0  0  0  0
   73.1859    7.1483   -0.3366 C   0  0  0  0  0  0  0  0  0  0  0  0
   73.5223    7.6029   -1.5393 N   0  0  0  0  0  0  0  0  0  0  0  0
   73.8636    6.7199   -2.4721 C   0  0  0  0  0  0  0  0  0  0  0  0
   73.8856    5.3526   -2.2456 C   0  0  0  0  0  0  0  0  0  0  0  0
   72.3240    2.7907   -0.4317 C   0  0  0  0  0  0  0  0  0  0  0  0
   71.0609    3.4671   -0.4415 C   0  0  0  0  0  0  0  0  0  0  0  0
   70.1109    2.5214   -0.2497 C   0  0  0  0  0  0  0  0  0  0  0  0
   72.1422    1.4438   -0.2230 N   0  0  0  0  0  0  0  0  0  0  0  0
   70.7928    1.2704   -0.1347 C   0  0  0  0  0  0  0  0  0  0  0  0
   70.1280    0.0453   -0.0014 C   0  0  0  0  0  0  0  0  0  0  0  0
   70.8016   -1.1745    0.1351 C   0  0  0  0  0  0  0  0  0  0  0  0
   70.1310   -2.4338    0.2220 C   0  0  0  0  0  0  0  0  0  0  0  0
   71.0880   -3.3726    0.4148 C   0  0  0  0  0  0  0  0  0  0  0  0
   72.3423   -2.6812    0.4488 C   0  0  0  0  0  0  0  0  0  0  0  0
   72.1515   -1.3362    0.2385 N   0  0  0  0  0  0  0  0  0  0  0  0
   73.5595   -3.3014    0.6911 C   0  0  0  0  0  0  0  0  0  0  0  0
   73.5654   -4.7509    0.9941 C   0  0  0  0  0  0  0  0  0  0  0  0
   74.2185   -5.6619    0.1649 C   0  0  0  0  0  0  0  0  0  0  0  0
   74.1923   -7.0091    0.4894 C   0  0  0  0  0  0  0  0  0  0  0  0
   73.5743   -7.4828    1.5664 N   0  0  0  0  0  0  0  0  0  0  0  0
   72.9514   -6.6206    2.3634 C   0  0  0  0  0  0  0  0  0  0  0  0
   72.9164   -5.2567    2.1197 C   0  0  0  0  0  0  0  0  0  0  0  0
   74.7739   -2.6246    0.6565 C   0  0  0  0  0  0  0  0  0  0  0  0
   76.0408   -3.2370    0.9360 C   0  0  0  0  0  0  0  0  0  0  0  0
   76.9871   -2.2940    0.7177 C   0  0  0  0  0  0  0  0  0  0  0  0
   76.2965   -1.1047    0.3191 C   0  0  0  0  0  0  0  0  0  0  0  0
   74.9417   -1.3103    0.3150 N   0  0  0  0  0  0  0  0  0  0  0  0
   78.0193    0.0631   -0.0589 H   0  0  0  0  0  0  0  0  0  0  0  0
   78.0370    2.5243   -0.8640 H   0  0  0  0  0  0  0  0  0  0  0  0
   76.1419    4.4107   -1.2183 H   0  0  0  0  0  0  0  0  0  0  0  0
   72.9013    5.4745    0.9817 H   0  0  0  0  0  0  0  0  0  0  0  0
   72.9142    7.8946    0.4042 H   0  0  0  0  0  0  0  0  0  0  0  0
   74.1314    7.1224   -3.4446 H   0  0  0  0  0  0  0  0  0  0  0  0
   74.1604    4.6680   -3.0391 H   0  0  0  0  0  0  0  0  0  0  0  0
   70.9274    4.5262   -0.5893 H   0  0  0  0  0  0  0  0  0  0  0  0
   69.0421    2.6463   -0.1927 H   0  0  0  0  0  0  0  0  0  0  0  0
   69.0655   -2.5699    0.1362 H   0  0  0  0  0  0  0  0  0  0  0  0
   70.9664   -4.4387    0.5156 H   0  0  0  0  0  0  0  0  0  0  0  0
   74.7256   -5.3218   -0.7302 H   0  0  0  0  0  0  0  0  0  0  0  0
   74.6893   -7.7386   -0.1434 H   0  0  0  0  0  0  0  0  0  0  0  0
   72.4576   -7.0381    3.2360 H   0  0  0  0  0  0  0  0  0  0  0  0
   72.4048   -4.5890    2.8027 H   0  0  0  0  0  0  0  0  0  0  0  0
   76.1750   -4.2561    1.2603 H   0  0  0  0  0  0  0  0  0  0  0  0
   78.0580   -2.3761    0.8143 H   0  0  0  0  0  0  0  0  0  0  0  0
   45.8171    0.0041   -0.0230 C   0  0  0  0  0  0  0  0  0  0  0  0
   47.0353    0.0055   -0.0234 C   0  0  0  0  0  0  0  0  0  0  0  0
   56.6662   -0.0061   -0.0229 C   0  0  0  0  0  0  0  0  0  0  0  0
   57.8859   -0.0055   -0.0259 C   0  0  0  0  0  0  0  0  0  0  0  0
   67.5046    0.0308   -0.0159 C   0  0  0  0  0  0  0  0  0  0  0  0
   68.7236    0.0390   -0.0080 C   0  0  0  0  0  0  0  0  0  0  0  0
   51.8520   -0.0038   -0.0264 Fe  0  0  0  0  0  0  0  0  0  0  0  0
   48.4391    0.0032   -0.0246 C   0  0  0  0  0  0  0  0  0  0  0  0
   49.1078   -0.7960    0.9105 C   0  0  0  0  0  0  0  0  0  0  0  0
   48.4372   -1.5684    1.9080 C   0  0  0  0  0  0  0  0  0  0  0  0
   49.3917   -2.2840    2.5517 C   0  0  0  0  0  0  0  0  0  0  0  0
   50.6405   -1.9502    1.9359 C   0  0  0  0  0  0  0  0  0  0  0  0
   50.4547   -1.0013    0.9615 N   0  0  0  0  0  0  0  0  0  0  0  0
   51.8492   -2.5648    2.2434 C   0  0  0  0  0  0  0  0  0  0  0  0
   51.8476   -3.6697    3.2283 C   0  0  0  0  0  0  0  0  0  0  0  0
   51.1147   -4.8355    3.0087 C   0  0  0  0  0  0  0  0  0  0  0  0
   51.1463   -5.8420    3.9610 C   0  0  0  0  0  0  0  0  0  0  0  0
   51.8427   -5.7497    5.0892 N   0  0  0  0  0  0  0  0  0  0  0  0
   52.5418   -4.6407    5.3075 C   0  0  0  0  0  0  0  0  0  0  0  0
   52.5785   -3.5830    4.4127 C   0  0  0  0  0  0  0  0  0  0  0  0
   53.0578   -2.1895    1.6715 C   0  0  0  0  0  0  0  0  0  0  0  0
   54.3053   -2.8445    1.9275 C   0  0  0  0  0  0  0  0  0  0  0  0
   55.2614   -2.1208    1.2956 C   0  0  0  0  0  0  0  0  0  0  0  0
   53.2475   -1.1065    0.8475 N   0  0  0  0  0  0  0  0  0  0  0  0
   54.5934   -1.0338    0.6521 C   0  0  0  0  0  0  0  0  0  0  0  0
   55.2657   -0.0054   -0.0227 C   0  0  0  0  0  0  0  0  0  0  0  0
   54.5955    1.0229   -0.6998 C   0  0  0  0  0  0  0  0  0  0  0  0
   55.2658    2.1079   -1.3441 C   0  0  0  0  0  0  0  0  0  0  0  0
   54.3121    2.8297   -1.9819 C   0  0  0  0  0  0  0  0  0  0  0  0
   53.0636    2.1759   -1.7278 C   0  0  0  0  0  0  0  0  0  0  0  0
   53.2502    1.0956   -0.8998 N   0  0  0  0  0  0  0  0  0  0  0  0
   51.8566    2.5511   -2.3034 C   0  0  0  0  0  0  0  0  0  0  0  0
   51.8592    3.6526   -3.2920 C   0  0  0  0  0  0  0  0  0  0  0  0
   52.5938    3.5613   -4.4738 C   0  0  0  0  0  0  0  0  0  0  0  0
   52.5617    4.6167   -5.3716 C   0  0  0  0  0  0  0  0  0  0  0  0
   51.8637    5.7274   -5.1589 N   0  0  0  0  0  0  0  0  0  0  0  0
   51.1636    5.8238   -4.0332 C   0  0  0  0  0  0  0  0  0  0  0  0
   51.1274    4.8202   -3.0781 C   0  0  0  0  0  0  0  0  0  0  0  0
   50.6461    1.9410   -1.9942 C   0  0  0  0  0  0  0  0  0  0  0  0
   49.3981    2.2773   -2.6102 C   0  0  0  0  0  0  0  0  0  0  0  0
   48.4411    1.5695   -1.9616 C   0  0  0  0  0  0  0  0  0  0  0  0
   49.1096    0.7981   -0.9620 C   0  0  0  0  0  0  0  0  0  0  0  0
   50.4573    0.9970   -1.0156 N   0  0  0  0  0  0  0  0  0  0  0  0
   47.3742   -1.5531    2.0861 H   0  0  0  0  0  0  0  0  0  0  0  0
   49.2700   -2.9720    3.3721 H   0  0  0  0  0  0  0  0  0  0  0  0
   50.5419   -4.9586    2.0973 H   0  0  0  0  0  0  0  0  0  0  0  0
   50.5877   -6.7611    3.8109 H   0  0  0  0  0  0  0  0  0  0  0  0
   53.0980   -4.5947    6.2391 H   0  0  0  0  0  0  0  0  0  0  0  0
   53.1531   -2.6923    4.6374 H   0  0  0  0  0  0  0  0  0  0  0  0
   54.4245   -3.7434    2.5099 H   0  0  0  0  0  0  0  0  0  0  0  0
   56.3236   -2.2993    1.2574 H   0  0  0  0  0  0  0  0  0  0  0  0
   56.3279    2.2868   -1.3026 H   0  0  0  0  0  0  0  0  0  0  0  0
   54.4336    3.7265   -2.5669 H   0  0  0  0  0  0  0  0  0  0  0  0
   53.1678    2.6692   -4.6942 H   0  0  0  0  0  0  0  0  0  0  0  0
   53.1211    4.5670   -6.3012 H   0  0  0  0  0  0  0  0  0  0  0  0
   50.6060    6.7443   -3.8874 H   0  0  0  0  0  0  0  0  0  0  0  0
   50.5521    4.9470   -2.1689 H   0  0  0  0  0  0  0  0  0  0  0  0
   49.2784    2.9618   -3.4340 H   0  0  0  0  0  0  0  0  0  0  0  0
   47.3777    1.5584   -2.1379 H   0  0  0  0  0  0  0  0  0  0  0  0
   62.6936    0.0021   -0.0330 Fe  0  0  0  0  0  0  0  0  0  0  0  0
   59.2861   -0.0049   -0.0288 C   0  0  0  0  0  0  0  0  0  0  0  0
   59.9626   -0.7360    0.9581 C   0  0  0  0  0  0  0  0  0  0  0  0
   59.3069   -1.4364    2.0167 C   0  0  0  0  0  0  0  0  0  0  0  0
   60.2657   -2.1367    2.6718 C   0  0  0  0  0  0  0  0  0  0  0  0
   61.5023   -1.8658    2.0024 C   0  0  0  0  0  0  0  0  0  0  0  0
   61.3057   -0.9594    0.9894 N   0  0  0  0  0  0  0  0  0  0  0  0
   62.7033   -2.5081    2.2784 C   0  0  0  0  0  0  0  0  0  0  0  0
   62.7107   -3.5896    3.2876 C   0  0  0  0  0  0  0  0  0  0  0  0
   61.9124   -4.7236    3.1404 C   0  0  0  0  0  0  0  0  0  0  0  0
   61.9559   -5.7107    4.1123 C   0  0  0  0  0  0  0  0  0  0  0  0
   62.7241   -5.6289    5.1937 N   0  0  0  0  0  0  0  0  0  0  0  0
   63.4855   -4.5499    5.3435 C   0  0  0  0  0  0  0  0  0  0  0  0
   63.5156   -3.5134    4.4240 C   0  0  0  0  0  0  0  0  0  0  0  0
   63.8993   -2.1776    1.6497 C   0  0  0  0  0  0  0  0  0  0  0  0
   65.1400   -2.8580    1.8669 C   0  0  0  0  0  0  0  0  0  0  0  0
   66.0934   -2.1447    1.2183 C   0  0  0  0  0  0  0  0  0  0  0  0
   64.0873   -1.0984    0.8224 N   0  0  0  0  0  0  0  0  0  0  0  0
   65.4310   -1.0419    0.5974 C   0  0  0  0  0  0  0  0  0  0  0  0
   66.1014    0.0214   -0.0234 C   0  0  0  0  0  0  0  0  0  0  0  0
   65.4226    1.0733   -0.6539 C   0  0  0  0  0  0  0  0  0  0  0  0
   66.0763    2.1782   -1.2804 C   0  0  0  0  0  0  0  0  0  0  0  0
   65.1194    2.8728   -1.9440 C   0  0  0  0  0  0  0  0  0  0  0  0
   63.8851    2.1807   -1.7278 C   0  0  0  0  0  0  0  0  0  0  0  0
   64.0799    1.1114   -0.8896 N   0  0  0  0  0  0  0  0  0  0  0  0
   62.6879    2.4957   -2.3623 C   0  0  0  0  0  0  0  0  0  0  0  0
   62.6890    3.5659   -3.3835 C   0  0  0  0  0  0  0  0  0  0  0  0
   63.4937    3.4799   -4.5193 C   0  0  0  0  0  0  0  0  0  0  0  0
   63.4545    4.5028   -5.4537 C   0  0  0  0  0  0  0  0  0  0  0  0
   62.6847    5.5778   -5.3186 N   0  0  0  0  0  0  0  0  0  0  0  0
   61.9181    5.6699   -4.2369 C   0  0  0  0  0  0  0  0  0  0  0  0
   61.8833    4.6966   -3.2509 C   0  0  0  0  0  0  0  0  0  0  0  0
   61.4906    1.8496   -2.0796 C   0  0  0  0  0  0  0  0  0  0  0  0
   60.2510    2.1118   -2.7471 C   0  0  0  0  0  0  0  0  0  0  0  0
   59.2960    1.4156   -2.0822 C   0  0  0  0  0  0  0  0  0  0  0  0
   59.9573    0.7247   -1.0207 C   0  0  0  0  0  0  0  0  0  0  0  0
   61.2997    0.9504   -1.0589 N   0  0  0  0  0  0  0  0  0  0  0  0
   58.2503   -1.3885    2.2245 H   0  0  0  0  0  0  0  0  0  0  0  0
   60.1541   -2.7759    3.5323 H   0  0  0  0  0  0  0  0  0  0  0  0
   61.2803   -4.8386    2.2680 H   0  0  0  0  0  0  0  0  0  0  0  0
   61.3471   -6.6050    4.0176 H   0  0  0  0  0  0  0  0  0  0  0  0
   64.0999   -4.5115    6.2382 H   0  0  0  0  0  0  0  0  0  0  0  0
   64.1425   -2.6462    4.5939 H   0  0  0  0  0  0  0  0  0  0  0  0
   65.2586   -3.7623    2.4409 H   0  0  0  0  0  0  0  0  0  0  0  0
   67.1528   -2.3351    1.1662 H   0  0  0  0  0  0  0  0  0  0  0  0
   67.1330    2.3812   -1.2227 H   0  0  0  0  0  0  0  0  0  0  0  0
   65.2313    3.7722   -2.5272 H   0  0  0  0  0  0  0  0  0  0  0  0
   64.1271    2.6152   -4.6773 H   0  0  0  0  0  0  0  0  0  0  0  0
   64.0677    4.4559   -6.3488 H   0  0  0  0  0  0  0  0  0  0  0  0
   61.3028    6.5610   -4.1543 H   0  0  0  0  0  0  0  0  0  0  0  0
   61.2518    4.8198   -2.3792 H   0  0  0  0  0  0  0  0  0  0  0  0
   60.1348    2.7432   -3.6127 H   0  0  0  0  0  0  0  0  0  0  0  0
   58.2388    1.3636   -2.2858 H   0  0  0  0  0  0  0  0  0  0  0  0
  2  3  4  0  0  0  0
  3  4  4  0  0  0  0
  4  5  2  0  0  0  0
  5  6  4  0  0  0  0
  1  7  1  0  0  0  0
  3  7  4  0  0  0  0
  6  7  4  0  0  0  0
  6  8  4  0  0  0  0
  8  9  1  0  0  0  0
  9 10  4  0  0  0  0
 10 11  4  0  0  0  0
 11 12  4  0  0  0  0
 12 13  4  0  0  0  0
  9 14  4  0  0  0  0
 13 14  4  0  0  0  0
  8 15  4  0  0  0  0
 15 16  4  0  0  0  0
 16 17  2  0  0  0  0
  1 18  1  0  0  0  0
 15 18  4  0  0  0  0
 17 19  4  0  0  0  0
 18 19  4  0  0  0  0
 19 20  4  0  0  0  0
 20 21  4  0  0  0  0
 21 22  4  0  0  0  0
 22 23  2  0  0  0  0
 23 24  4  0  0  0  0
  1 25  1  0  0  0  0
 21 25  4  0  0  0  0
 24 25  4  0  0  0  0
 24 26  4  0  0  0  0
 26 27  1  0  0  0  0
 27 28  4  0  0  0  0
 28 29  4  0  0  0  0
 29 30  4  0  0  0  0
 30 31  4  0  0  0  0
 27 32  4  0  0  0  0
 31 32  4  0  0  0  0
 26 33  4  0  0  0  0
 33 34  4  0  0  0  0
 34 35  2  0  0  0  0
  2 36  4  0  0  0  0
 35 36  4  0  0  0  0
  1 37  1  0  0  0  0
 33 37  4  0  0  0  0
 36 37  4  0  0  0  0
  2 38  1  0  0  0  0
  4 39  1  0  0  0  0
  5 40  1  0  0  0  0
 10 41  1  0  0  0  0
 11 42  1  0  0  0  0
 13 43  1  0  0  0  0
 14 44  1  0  0  0  0
 16 45  1  0  0  0  0
 17 46  1  0  0  0  0
 22 47  1  0  0  0  0
 23 48  1  0  0  0  0
 28 49  1  0  0  0  0
 29 50  1  0  0  0  0
 31 51  1  0  0  0  0
 32 52  1  0  0  0  0
 34 53  1  0  0  0  0
 35 54  1  0  0  0  0
 56 57  4  0  0  0  0
 57 58  4  0  0  0  0
 58 59  2  0  0  0  0
 59 60  4  0  0  0  0
 55 61  1  0  0  0  0
 57 61  4  0  0  0  0
 60 61  4  0  0  0  0
 60 62  4  0  0  0  0
 62 63  1  0  0  0  0
 63 64  4  0  0  0  0
 64 65  4  0  0  0  0
 65 66  4  0  0  0  0
 66 67  4  0  0  0  0
 63 68  4  0  0  0  0
 67 68  4  0  0  0  0
 62 69  4  0  0  0  0
 69 70  4  0  0  0  0
 70 71  2  0  0  0  0
 55 72  1  0  0  0  0
 69 72  4  0  0  0  0
 71 73  4  0  0  0  0
 72 73  4  0  0  0  0
 73 74  4  0  0  0  0
 74 75  4  0  0  0  0
 75 76  4  0  0  0  0
 76 77  2  0  0  0  0
 77 78  4  0  0  0  0
 55 79  1  0  0  0  0
 75 79  4  0  0  0  0
 78 79  4  0  0  0  0
 78 80  4  0  0  0  0
 80 81  1  0  0  0  0
 81 82  4  0  0  0  0
 82 83  4  0  0  0  0
 83 84  4  0  0  0  0
 84 85  4  0  0  0  0
 81 86  4  0  0  0  0
 85 86  4  0  0  0  0
 80 87  4  0  0  0  0
 87 88  4  0  0  0  0
 88 89  2  0  0  0  0
 56 90  4  0  0  0  0
 89 90  4  0  0  0  0
 55 91  1  0  0  0  0
 87 91  4  0  0  0  0
 90 91  4  0  0  0  0
 56 92  1  0  0  0  0
 58 93  1  0  0  0  0
 59 94  1  0  0  0  0
 64 95  1  0  0  0  0
 65 96  1  0  0  0  0
 67 97  1  0  0  0  0
 68 98  1  0  0  0  0
 70 99  1  0  0  0  0
 71100  1  0  0  0  0
 76101  1  0  0  0  0
 77102  1  0  0  0  0
 82103  1  0  0  0  0
 83104  1  0  0  0  0
 85105  1  0  0  0  0
 86106  1  0  0  0  0
 88107  1  0  0  0  0
 89108  1  0  0  0  0
 20109  1  0  0  0  0
109110  3  0  0  0  0
111112  3  0  0  0  0
 74114  1  0  0  0  0
113114  3  0  0  0  0
110116  1  0  0  0  0
116117  4  0  0  0  0
117118  4  0  0  0  0
118119  2  0  0  0  0
119120  4  0  0  0  0
115121  1  0  0  0  0
117121  4  0  0  0  0
120121  4  0  0  0  0
120122  4  0  0  0  0
122123  1  0  0  0  0
123124  4  0  0  0  0
124125  4  0  0  0  0
125126  4  0  0  0  0
126127  4  0  0  0  0
123128  4  0  0  0  0
127128  4  0  0  0  0
122129  4  0  0  0  0
129130  4  0  0  0  0
130131  2  0  0  0  0
115132  1  0  0  0  0
129132  4  0  0  0  0
131133  4  0  0  0  0
132133  4  0  0  0  0
111134  4  0  0  0  0
133134  4  0  0  0  0
134135  4  0  0  0  0
135136  4  0  0  0  0
136137  2  0  0  0  0
137138  4  0  0  0  0
115139  1  0  0  0  0
135139  4  0  0  0  0
138139  4  0  0  0  0
138140  4  0  0  0  0
140141  1  0  0  0  0
141142  4  0  0  0  0
142143  4  0  0  0  0
143144  4  0  0  0  0
144145  4  0  0  0  0
141146  4  0  0  0  0
145146  4  0  0  0  0
140147  4  0  0  0  0
147148  4  0  0  0  0
148149  2  0  0  0  0
116150  4  0  0  0  0
149150  4  0  0  0  0
115151  1  0  0  0  0
147151  4  0  0  0  0
150151  4  0  0  0  0
118152  1  0  0  0  0
119153  1  0  0  0  0
124154  1  0  0  0  0
125155  1  0  0  0  0
127156  1  0  0  0  0
128157  1  0  0  0  0
130158  1  0  0  0  0
131159  1  0  0  0  0
136160  1  0  0  0  0
137161  1  0  0  0  0
142162  1  0  0  0  0
143163  1  0  0  0  0
145164  1  0  0  0  0
146165  1  0  0  0  0
148166  1  0  0  0  0
149167  1  0  0  0  0
112169  4  0  0  0  0
169170  4  0  0  0  0
170171  4  0  0  0  0
171172  2  0  0  0  0
172173  4  0  0  0  0
168174  1  0  0  0  0
170174  4  0  0  0  0
173174  4  0  0  0  0
173175  4  0  0  0  0
175176  1  0  0  0  0
176177  4  0  0  0  0
177178  4  0  0  0  0
178179  4  0  0  0  0
179180  4  0  0  0  0
176181  4  0  0  0  0
180181  4  0  0  0  0
175182  4  0  0  0  0
182183  4  0  0  0  0
183184  2  0  0  0  0
168185  1  0  0  0  0
182185  4  0  0  0  0
184186  4  0  0  0  0
185186  4  0  0  0  0
113187  1  0  0  0  0
186187  4  0  0  0  0
187188  4  0  0  0  0
188189  4  0  0  0  0
189190  2  0  0  0  0
190191  4  0  0  0  0
168192  1  0  0  0  0
188192  4  0  0  0  0
191192  4  0  0  0  0
191193  4  0  0  0  0
193194  1  0  0  0  0
194195  4  0  0  0  0
195196  4  0  0  0  0
196197  4  0  0  0  0
197198  4  0  0  0  0
194199  4  0  0  0  0
198199  4  0  0  0  0
193200  4  0  0  0  0
200201  4  0  0  0  0
201202  2  0  0  0  0
169203  4  0  0  0  0
202203  4  0  0  0  0
168204  1  0  0  0  0
200204  4  0  0  0  0
203204  4  0  0  0  0
171205  1  0  0  0  0
172206  1  0  0  0  0
177207  1  0  0  0  0
178208  1  0  0  0  0
180209  1  0  0  0  0
181210  1  0  0  0  0
183211  1  0  0  0  0
184212  1  0  0  0  0
189213  1  0  0  0  0
190214  1  0  0  0  0
195215  1  0  0  0  0
196216  1  0  0  0  0
198217  1  0  0  0  0
199218  1  0  0  0  0
201219  1  0  0  0  0
202220  1  0  0  0  0
M  END
