 xtb: 6.5.1 (b24c23e)
          07282214313D

304331  0     0  0            999 V2000
   50.3292   -0.1427   -0.0021 C   0  0  0  0  0  0  0  0  0  0  0  0
   50.9427   -1.3877    0.0497 C   0  0  0  0  0  0  0  0  0  0  0  0
   50.3054   -2.6600    0.0982 C   0  0  0  0  0  0  0  0  0  0  0  0
   51.2797   -3.6175    0.1392 C   0  0  0  0  0  0  0  0  0  0  0  0
   52.5433   -2.9604    0.1179 C   0  0  0  0  0  0  0  0  0  0  0  0
   52.2892   -1.6191    0.0641 N   0  0  0  0  0  0  0  0  0  0  0  0
   53.8058   -3.5566    0.1453 C   0  0  0  0  0  0  0  0  0  0  0  0
   53.8331   -5.0484    0.1942 C   0  0  0  0  0  0  0  0  0  0  0  0
   53.8615   -5.7834   -0.9945 C   0  0  0  0  0  0  0  0  0  0  0  0
   53.8703   -5.0696   -2.3200 C   0  0  0  0  0  0  0  0  0  0  0  0
   53.8845   -7.1720   -0.9390 C   0  0  0  0  0  0  0  0  0  0  0  0
   53.8809   -7.8388    0.2819 C   0  0  0  0  0  0  0  0  0  0  0  0
   53.8850   -9.3430    0.3277 C   0  0  0  0  0  0  0  0  0  0  0  0
   53.8535   -7.0973    1.4584 C   0  0  0  0  0  0  0  0  0  0  0  0
   53.8301   -5.7078    1.4265 C   0  0  0  0  0  0  0  0  0  0  0  0
   53.8049   -4.9124    2.7046 C   0  0  0  0  0  0  0  0  0  0  0  0
   55.0253   -2.8809    0.1244 C   0  0  0  0  0  0  0  0  0  0  0  0
   56.3115   -3.5532    0.1518 C   0  0  0  0  0  0  0  0  0  0  0  0
   57.2493   -2.5837    0.1105 C   0  0  0  0  0  0  0  0  0  0  0  0
   55.2024   -1.5322    0.0696 N   0  0  0  0  0  0  0  0  0  0  0  0
   56.5346   -1.3227    0.0586 C   0  0  0  0  0  0  0  0  0  0  0  0
   57.1833   -0.0739   -0.0180 C   0  0  0  0  0  0  0  0  0  0  0  0
   56.5451    1.1778   -0.0925 C   0  0  0  0  0  0  0  0  0  0  0  0
   57.1748    2.4497   -0.1521 C   0  0  0  0  0  0  0  0  0  0  0  0
   56.1961    3.4043   -0.1890 C   0  0  0  0  0  0  0  0  0  0  0  0
   54.9374    2.7425   -0.1512 C   0  0  0  0  0  0  0  0  0  0  0  0
   55.1999    1.3993   -0.0955 N   0  0  0  0  0  0  0  0  0  0  0  0
   53.6758    3.3409   -0.1619 C   0  0  0  0  0  0  0  0  0  0  0  0
   53.6461    4.8322   -0.2137 C   0  0  0  0  0  0  0  0  0  0  0  0
   53.6264    5.4895   -1.4470 C   0  0  0  0  0  0  0  0  0  0  0  0
   53.6403    4.6926   -2.7243 C   0  0  0  0  0  0  0  0  0  0  0  0
   53.5941    6.8788   -1.4809 C   0  0  0  0  0  0  0  0  0  0  0  0
   53.5818    7.6225   -0.3056 C   0  0  0  0  0  0  0  0  0  0  0  0
   53.5233    9.1255   -0.3540 C   0  0  0  0  0  0  0  0  0  0  0  0
   53.6022    6.9579    0.9164 C   0  0  0  0  0  0  0  0  0  0  0  0
   53.6348    5.5696    0.9739 C   0  0  0  0  0  0  0  0  0  0  0  0
   53.6579    4.8589    2.3009 C   0  0  0  0  0  0  0  0  0  0  0  0
   52.4557    2.6642   -0.1241 C   0  0  0  0  0  0  0  0  0  0  0  0
   51.1624    3.3297   -0.1424 C   0  0  0  0  0  0  0  0  0  0  0  0
   50.2312    2.3554   -0.1002 C   0  0  0  0  0  0  0  0  0  0  0  0
   50.9553    1.0967   -0.0538 C   0  0  0  0  0  0  0  0  0  0  0  0
   52.2917    1.3205   -0.0700 N   0  0  0  0  0  0  0  0  0  0  0  0
   49.2441   -0.1479   -0.0022 H   0  0  0  0  0  0  0  0  0  0  0  0
   49.2373   -2.8085    0.1003 H   0  0  0  0  0  0  0  0  0  0  0  0
   51.1478   -4.6868    0.1808 H   0  0  0  0  0  0  0  0  0  0  0  0
   53.0019   -0.8978    0.0366 H   0  0  0  0  0  0  0  0  0  0  0  0
   52.9764   -4.4517   -2.4242 H   0  0  0  0  0  0  0  0  0  0  0  0
   53.9014   -5.7808   -3.1449 H   0  0  0  0  0  0  0  0  0  0  0  0
   54.7396   -4.4132   -2.3906 H   0  0  0  0  0  0  0  0  0  0  0  0
   53.9075   -7.7423   -1.8619 H   0  0  0  0  0  0  0  0  0  0  0  0
   52.8591   -9.7181    0.3036 H   0  0  0  0  0  0  0  0  0  0  0  0
   54.4167   -9.7562   -0.5298 H   0  0  0  0  0  0  0  0  0  0  0  0
   54.3562   -9.7030    1.2426 H   0  0  0  0  0  0  0  0  0  0  0  0
   53.8525   -7.6088    2.4154 H   0  0  0  0  0  0  0  0  0  0  0  0
   52.9000   -4.3036    2.7544 H   0  0  0  0  0  0  0  0  0  0  0  0
   53.8313   -5.5699    3.5730 H   0  0  0  0  0  0  0  0  0  0  0  0
   54.6628   -4.2389    2.7484 H   0  0  0  0  0  0  0  0  0  0  0  0
   56.4496   -4.6218    0.1949 H   0  0  0  0  0  0  0  0  0  0  0  0
   58.3226   -2.6871    0.1070 H   0  0  0  0  0  0  0  0  0  0  0  0
   58.2415    2.6052   -0.1598 H   0  0  0  0  0  0  0  0  0  0  0  0
   56.3246    4.4736   -0.2359 H   0  0  0  0  0  0  0  0  0  0  0  0
   54.4908    0.6749   -0.0555 H   0  0  0  0  0  0  0  0  0  0  0  0
   53.5931    5.3488   -3.5929 H   0  0  0  0  0  0  0  0  0  0  0  0
   54.5512    4.0941   -2.7876 H   0  0  0  0  0  0  0  0  0  0  0  0
   52.7895    4.0095   -2.7542 H   0  0  0  0  0  0  0  0  0  0  0  0
   53.5788    7.3885   -2.4388 H   0  0  0  0  0  0  0  0  0  0  0  0
   54.0267    9.5619    0.5091 H   0  0  0  0  0  0  0  0  0  0  0  0
   52.4822    9.4569   -0.3429 H   0  0  0  0  0  0  0  0  0  0  0  0
   53.9898    9.5039   -1.2638 H   0  0  0  0  0  0  0  0  0  0  0  0
   53.5934    7.5298    1.8386 H   0  0  0  0  0  0  0  0  0  0  0  0
   53.6344    5.5717    3.1247 H   0  0  0  0  0  0  0  0  0  0  0  0
   52.7976    4.1929    2.3892 H   0  0  0  0  0  0  0  0  0  0  0  0
   54.5606    4.2513    2.3899 H   0  0  0  0  0  0  0  0  0  0  0  0
   51.0192    4.3978   -0.1833 H   0  0  0  0  0  0  0  0  0  0  0  0
   49.1562    2.4470   -0.0982 H   0  0  0  0  0  0  0  0  0  0  0  0
   90.0353    0.1146   -0.0410 C   0  0  0  0  0  0  0  0  0  0  0  0
   89.4187    1.3442   -0.2339 C   0  0  0  0  0  0  0  0  0  0  0  0
   90.0522    2.6052   -0.4221 C   0  0  0  0  0  0  0  0  0  0  0  0
   89.0751    3.5487   -0.5732 C   0  0  0  0  0  0  0  0  0  0  0  0
   87.8135    2.8938   -0.4835 C   0  0  0  0  0  0  0  0  0  0  0  0
   88.0716    1.5678   -0.2789 N   0  0  0  0  0  0  0  0  0  0  0  0
   86.5491    3.4783   -0.5838 C   0  0  0  0  0  0  0  0  0  0  0  0
   86.5183    4.9551   -0.8000 C   0  0  0  0  0  0  0  0  0  0  0  0
   86.5181    5.4720   -2.0984 C   0  0  0  0  0  0  0  0  0  0  0  0
   86.5425    4.5384   -3.2793 C   0  0  0  0  0  0  0  0  0  0  0  0
   86.4930    6.8492   -2.2861 C   0  0  0  0  0  0  0  0  0  0  0  0
   86.4670    7.7181   -1.2004 C   0  0  0  0  0  0  0  0  0  0  0  0
   86.4613    9.2078   -1.4137 C   0  0  0  0  0  0  0  0  0  0  0  0
   86.4667    7.1925    0.0878 C   0  0  0  0  0  0  0  0  0  0  0  0
   86.4915    5.8191    0.2988 C   0  0  0  0  0  0  0  0  0  0  0  0
   86.4866    5.2588    1.6961 C   0  0  0  0  0  0  0  0  0  0  0  0
   85.3316    2.8047   -0.4949 C   0  0  0  0  0  0  0  0  0  0  0  0
   84.0438    3.4651   -0.6061 C   0  0  0  0  0  0  0  0  0  0  0  0
   83.1084    2.5027   -0.4641 C   0  0  0  0  0  0  0  0  0  0  0  0
   85.1577    1.4697   -0.2912 N   0  0  0  0  0  0  0  0  0  0  0  0
   83.8262    1.2579   -0.2670 C   0  0  0  0  0  0  0  0  0  0  0  0
   83.1798    0.0230   -0.0583 C   0  0  0  0  0  0  0  0  0  0  0  0
   83.8211   -1.2105    0.1579 C   0  0  0  0  0  0  0  0  0  0  0  0
   83.1955   -2.4716    0.3487 C   0  0  0  0  0  0  0  0  0  0  0  0
   84.1772   -3.4119    0.4976 C   0  0  0  0  0  0  0  0  0  0  0  0
   85.4339   -2.7523    0.4004 C   0  0  0  0  0  0  0  0  0  0  0  0
   85.1670   -1.4242    0.1975 N   0  0  0  0  0  0  0  0  0  0  0  0
   86.6971   -3.3408    0.4869 C   0  0  0  0  0  0  0  0  0  0  0  0
   86.7298   -4.8174    0.7012 C   0  0  0  0  0  0  0  0  0  0  0  0
   86.7513   -5.6799   -0.3988 C   0  0  0  0  0  0  0  0  0  0  0  0
   86.7395   -5.1180   -1.7955 C   0  0  0  0  0  0  0  0  0  0  0  0
   86.7831   -7.0536   -0.1901 C   0  0  0  0  0  0  0  0  0  0  0  0
   86.7931   -7.5810    1.0972 C   0  0  0  0  0  0  0  0  0  0  0  0
   86.8498   -9.0699    1.3087 C   0  0  0  0  0  0  0  0  0  0  0  0
   86.7716   -6.7137    2.1843 C   0  0  0  0  0  0  0  0  0  0  0  0
   86.7394   -5.3364    1.9989 C   0  0  0  0  0  0  0  0  0  0  0  0
   86.7143   -4.4051    3.1816 C   0  0  0  0  0  0  0  0  0  0  0  0
   87.9156   -2.6678    0.3835 C   0  0  0  0  0  0  0  0  0  0  0  0
   89.2105   -3.3229    0.4828 C   0  0  0  0  0  0  0  0  0  0  0  0
   90.1393   -2.3564    0.3364 C   0  0  0  0  0  0  0  0  0  0  0  0
   89.4121   -1.1130    0.1465 C   0  0  0  0  0  0  0  0  0  0  0  0
   88.0762   -1.3381    0.1809 N   0  0  0  0  0  0  0  0  0  0  0  0
   91.1204    0.1229   -0.0378 H   0  0  0  0  0  0  0  0  0  0  0  0
   91.1199    2.7566   -0.4371 H   0  0  0  0  0  0  0  0  0  0  0  0
   89.2044    4.6071   -0.7338 H   0  0  0  0  0  0  0  0  0  0  0  0
   87.3611    0.8514   -0.1747 H   0  0  0  0  0  0  0  0  0  0  0  0
   87.4464    3.9263   -3.2600 H   0  0  0  0  0  0  0  0  0  0  0  0
   86.5176    5.0945   -4.2159 H   0  0  0  0  0  0  0  0  0  0  0  0
   85.6834    3.8657   -3.2481 H   0  0  0  0  0  0  0  0  0  0  0  0
   86.4917    7.2498   -3.2946 H   0  0  0  0  0  0  0  0  0  0  0  0
   87.4853    9.5886   -1.4026 H   0  0  0  0  0  0  0  0  0  0  0  0
   86.0150    9.4617   -2.3754 H   0  0  0  0  0  0  0  0  0  0  0  0
   85.9050    9.7108   -0.6222 H   0  0  0  0  0  0  0  0  0  0  0  0
   86.4449    7.8629    0.9408 H   0  0  0  0  0  0  0  0  0  0  0  0
   87.3846    4.6625    1.8690 H   0  0  0  0  0  0  0  0  0  0  0  0
   86.4505    6.0580    2.4358 H   0  0  0  0  0  0  0  0  0  0  0  0
   85.6217    4.6086    1.8404 H   0  0  0  0  0  0  0  0  0  0  0  0
   83.9032    4.5217   -0.7688 H   0  0  0  0  0  0  0  0  0  0  0  0
   82.0348    2.6015   -0.4803 H   0  0  0  0  0  0  0  0  0  0  0  0
   82.1295   -2.6308    0.3625 H   0  0  0  0  0  0  0  0  0  0  0  0
   84.0521   -4.4706    0.6580 H   0  0  0  0  0  0  0  0  0  0  0  0
   85.8734   -0.7048    0.0845 H   0  0  0  0  0  0  0  0  0  0  0  0
   86.7713   -5.9163   -2.5365 H   0  0  0  0  0  0  0  0  0  0  0  0
   85.8370   -4.5256   -1.9583 H   0  0  0  0  0  0  0  0  0  0  0  0
   87.5999   -4.4639   -1.9481 H   0  0  0  0  0  0  0  0  0  0  0  0
   86.7993   -7.7226   -1.0443 H   0  0  0  0  0  0  0  0  0  0  0  0
   86.3965   -9.3454    2.2612 H   0  0  0  0  0  0  0  0  0  0  0  0
   87.8899   -9.4043    1.3178 H   0  0  0  0  0  0  0  0  0  0  0  0
   86.3325   -9.5960    0.5059 H   0  0  0  0  0  0  0  0  0  0  0  0
   86.7790   -7.1159    3.1922 H   0  0  0  0  0  0  0  0  0  0  0  0
   86.7559   -4.9625    4.1169 H   0  0  0  0  0  0  0  0  0  0  0  0
   87.5636   -3.7205    3.1433 H   0  0  0  0  0  0  0  0  0  0  0  0
   85.8019   -3.8056    3.1723 H   0  0  0  0  0  0  0  0  0  0  0  0
   89.3561   -4.3793    0.6437 H   0  0  0  0  0  0  0  0  0  0  0  0
   91.2145   -2.4441    0.3498 H   0  0  0  0  0  0  0  0  0  0  0  0
   58.5923   -0.0646   -0.0214 C   0  0  0  0  0  0  0  0  0  0  0  0
   59.8093   -0.0562   -0.0224 C   0  0  0  0  0  0  0  0  0  0  0  0
   69.5717   -0.0819   -0.0754 C   0  0  0  0  0  0  0  0  0  0  0  0
   70.7906   -0.0885   -0.0807 C   0  0  0  0  0  0  0  0  0  0  0  0
   80.5539   -0.0148   -0.0730 C   0  0  0  0  0  0  0  0  0  0  0  0
   81.7707    0.0083   -0.0644 C   0  0  0  0  0  0  0  0  0  0  0  0
   61.2174   -0.0568   -0.0229 C   0  0  0  0  0  0  0  0  0  0  0  0
   61.8508   -1.0994    0.6787 C   0  0  0  0  0  0  0  0  0  0  0  0
   61.2240   -2.1348    1.4197 C   0  0  0  0  0  0  0  0  0  0  0  0
   62.2063   -2.9227    1.9554 C   0  0  0  0  0  0  0  0  0  0  0  0
   63.4620   -2.3901    1.5548 C   0  0  0  0  0  0  0  0  0  0  0  0
   63.1966   -1.2884    0.7868 N   0  0  0  0  0  0  0  0  0  0  0  0
   64.7247   -2.8997    1.8701 C   0  0  0  0  0  0  0  0  0  0  0  0
   64.7417   -4.1227    2.7269 C   0  0  0  0  0  0  0  0  0  0  0  0
   64.6808   -5.3907    2.1424 C   0  0  0  0  0  0  0  0  0  0  0  0
   64.5996   -5.5254    0.6451 C   0  0  0  0  0  0  0  0  0  0  0  0
   64.6973   -6.5189    2.9542 C   0  0  0  0  0  0  0  0  0  0  0  0
   64.7723   -6.4027    4.3383 C   0  0  0  0  0  0  0  0  0  0  0  0
   64.8096   -7.6315    5.2062 C   0  0  0  0  0  0  0  0  0  0  0  0
   64.8338   -5.1356    4.9092 C   0  0  0  0  0  0  0  0  0  0  0  0
   64.8188   -3.9938    4.1169 C   0  0  0  0  0  0  0  0  0  0  0  0
   64.8844   -2.6265    4.7433 C   0  0  0  0  0  0  0  0  0  0  0  0
   65.9515   -2.3773    1.4675 C   0  0  0  0  0  0  0  0  0  0  0  0
   67.2227   -2.9942    1.7991 C   0  0  0  0  0  0  0  0  0  0  0  0
   68.1782   -2.2150    1.2513 C   0  0  0  0  0  0  0  0  0  0  0  0
   66.1565   -1.2485    0.7324 N   0  0  0  0  0  0  0  0  0  0  0  0
   67.4918   -1.1199    0.5962 C   0  0  0  0  0  0  0  0  0  0  0  0
   68.1648   -0.0725   -0.0681 C   0  0  0  0  0  0  0  0  0  0  0  0
   67.5266    0.9967   -0.7283 C   0  0  0  0  0  0  0  0  0  0  0  0
   68.1493    2.0864   -1.3893 C   0  0  0  0  0  0  0  0  0  0  0  0
   67.1664    2.8837   -1.9092 C   0  0  0  0  0  0  0  0  0  0  0  0
   65.9121    2.3055   -1.5743 C   0  0  0  0  0  0  0  0  0  0  0  0
   66.1804    1.1705   -0.8559 N   0  0  0  0  0  0  0  0  0  0  0  0
   64.6504    2.7982   -1.9196 C   0  0  0  0  0  0  0  0  0  0  0  0
   64.6382    4.0390   -2.7504 C   0  0  0  0  0  0  0  0  0  0  0  0
   64.6859    3.9428   -4.1442 C   0  0  0  0  0  0  0  0  0  0  0  0
   64.7463    2.5907   -4.8035 C   0  0  0  0  0  0  0  0  0  0  0  0
   64.6730    5.1026   -4.9100 C   0  0  0  0  0  0  0  0  0  0  0  0
   64.6116    6.3556   -4.3088 C   0  0  0  0  0  0  0  0  0  0  0  0
   64.6166    7.6037   -5.1496 C   0  0  0  0  0  0  0  0  0  0  0  0
   64.5645    6.4394   -2.9213 C   0  0  0  0  0  0  0  0  0  0  0  0
   64.5768    5.2927   -2.1355 C   0  0  0  0  0  0  0  0  0  0  0  0
   64.5217    5.3918   -0.6343 C   0  0  0  0  0  0  0  0  0  0  0  0
   63.4214    2.2444   -1.5683 C   0  0  0  0  0  0  0  0  0  0  0  0
   62.1472    2.8109   -1.9729 C   0  0  0  0  0  0  0  0  0  0  0  0
   61.1919    2.0192   -1.4422 C   0  0  0  0  0  0  0  0  0  0  0  0
   61.8839    0.9735   -0.7148 C   0  0  0  0  0  0  0  0  0  0  0  0
   63.2199    1.1314   -0.8108 N   0  0  0  0  0  0  0  0  0  0  0  0
   60.1582   -2.2517    1.5301 H   0  0  0  0  0  0  0  0  0  0  0  0
   62.0799   -3.7958    2.5750 H   0  0  0  0  0  0  0  0  0  0  0  0
   63.8995   -0.6918    0.3635 H   0  0  0  0  0  0  0  0  0  0  0  0
   63.6841   -5.0619    0.2722 H   0  0  0  0  0  0  0  0  0  0  0  0
   65.4450   -5.0218    0.1728 H   0  0  0  0  0  0  0  0  0  0  0  0
   64.6054   -6.5736    0.3479 H   0  0  0  0  0  0  0  0  0  0  0  0
   64.6498   -7.5033    2.5001 H   0  0  0  0  0  0  0  0  0  0  0  0
   64.3647   -7.4318    6.1814 H   0  0  0  0  0  0  0  0  0  0  0  0
   64.2739   -8.4562    4.7356 H   0  0  0  0  0  0  0  0  0  0  0  0
   65.8446   -7.9443    5.3632 H   0  0  0  0  0  0  0  0  0  0  0  0
   64.8931   -5.0352    5.9880 H   0  0  0  0  0  0  0  0  0  0  0  0
   64.0041   -2.0413    4.4704 H   0  0  0  0  0  0  0  0  0  0  0  0
   64.9334   -2.6980    5.8295 H   0  0  0  0  0  0  0  0  0  0  0  0
   65.7656   -2.0890    4.3879 H   0  0  0  0  0  0  0  0  0  0  0  0
   67.3395   -3.9027    2.3680 H   0  0  0  0  0  0  0  0  0  0  0  0
   69.2468   -2.3518    1.2696 H   0  0  0  0  0  0  0  0  0  0  0  0
   69.2136    2.2397   -1.4513 H   0  0  0  0  0  0  0  0  0  0  0  0
   67.2919    3.7944   -2.4721 H   0  0  0  0  0  0  0  0  0  0  0  0
   65.4777    0.5460   -0.4745 H   0  0  0  0  0  0  0  0  0  0  0  0
   64.7309    2.6860   -5.8888 H   0  0  0  0  0  0  0  0  0  0  0  0
   63.8972    1.9793   -4.4929 H   0  0  0  0  0  0  0  0  0  0  0  0
   65.6590    2.0672   -4.5120 H   0  0  0  0  0  0  0  0  0  0  0  0
   64.7086    5.0276   -5.9920 H   0  0  0  0  0  0  0  0  0  0  0  0
   64.1263    7.4281   -6.1075 H   0  0  0  0  0  0  0  0  0  0  0  0
   65.6452    7.9146   -5.3473 H   0  0  0  0  0  0  0  0  0  0  0  0
   64.1079    8.4203   -4.6368 H   0  0  0  0  0  0  0  0  0  0  0  0
   64.5152    7.4124   -2.4435 H   0  0  0  0  0  0  0  0  0  0  0  0
   65.3982    4.9162   -0.1902 H   0  0  0  0  0  0  0  0  0  0  0  0
   64.4886    6.4327   -0.3139 H   0  0  0  0  0  0  0  0  0  0  0  0
   63.6357    4.8802   -0.2538 H   0  0  0  0  0  0  0  0  0  0  0  0
   62.0287    3.6923   -2.5825 H   0  0  0  0  0  0  0  0  0  0  0  0
   60.1206    2.1093   -1.5250 H   0  0  0  0  0  0  0  0  0  0  0  0
   72.1975   -0.0907   -0.0838 C   0  0  0  0  0  0  0  0  0  0  0  0
   72.8412   -0.9757    0.8041 C   0  0  0  0  0  0  0  0  0  0  0  0
   72.2263   -1.8595    1.7276 C   0  0  0  0  0  0  0  0  0  0  0  0
   73.2141   -2.5563    2.3686 C   0  0  0  0  0  0  0  0  0  0  0  0
   74.4639   -2.1126    1.8576 C   0  0  0  0  0  0  0  0  0  0  0  0
   74.1882   -1.1529    0.9202 N   0  0  0  0  0  0  0  0  0  0  0  0
   75.7279   -2.5748    2.2349 C   0  0  0  0  0  0  0  0  0  0  0  0
   75.7477   -3.6621    3.2582 C   0  0  0  0  0  0  0  0  0  0  0  0
   75.6679   -4.9988    2.8572 C   0  0  0  0  0  0  0  0  0  0  0  0
   75.5615   -5.3402    1.3948 C   0  0  0  0  0  0  0  0  0  0  0  0
   75.6879   -6.0028    3.8182 C   0  0  0  0  0  0  0  0  0  0  0  0
   75.7848   -5.6952    5.1714 C   0  0  0  0  0  0  0  0  0  0  0  0
   75.8276   -6.7929    6.1999 C   0  0  0  0  0  0  0  0  0  0  0  0
   75.8635   -4.3617    5.5590 C   0  0  0  0  0  0  0  0  0  0  0  0
   75.8456   -3.3413    4.6152 C   0  0  0  0  0  0  0  0  0  0  0  0
   75.9313   -1.9004    5.0430 C   0  0  0  0  0  0  0  0  0  0  0  0
   76.9535   -2.1154    1.7579 C   0  0  0  0  0  0  0  0  0  0  0  0
   78.2304   -2.6453    2.2017 C   0  0  0  0  0  0  0  0  0  0  0  0
   79.1818   -1.9366    1.5586 C   0  0  0  0  0  0  0  0  0  0  0  0
   77.1496   -1.1139    0.8570 N   0  0  0  0  0  0  0  0  0  0  0  0
   78.4849   -0.9793    0.7225 C   0  0  0  0  0  0  0  0  0  0  0  0
   79.1458   -0.0274   -0.0787 C   0  0  0  0  0  0  0  0  0  0  0  0
   78.5056    0.9214   -0.8977 C   0  0  0  0  0  0  0  0  0  0  0  0
   79.1259    1.8849   -1.7348 C   0  0  0  0  0  0  0  0  0  0  0  0
   78.1394    2.5706   -2.3899 C   0  0  0  0  0  0  0  0  0  0  0  0
   76.8874    2.0427   -1.9718 C   0  0  0  0  0  0  0  0  0  0  0  0
   77.1591    1.0543   -1.0646 N   0  0  0  0  0  0  0  0  0  0  0  0
   75.6235    2.4350   -2.4217 C   0  0  0  0  0  0  0  0  0  0  0  0
   75.6019    3.5162   -3.4517 C   0  0  0  0  0  0  0  0  0  0  0  0
   75.6735    3.1884   -4.8086 C   0  0  0  0  0  0  0  0  0  0  0  0
   75.7742    1.7467   -5.2305 C   0  0  0  0  0  0  0  0  0  0  0  0
   75.6484    4.2024   -5.7590 C   0  0  0  0  0  0  0  0  0  0  0  0
   75.5527    5.5368   -5.3783 C   0  0  0  0  0  0  0  0  0  0  0  0
   75.5449    6.6276   -6.4151 C   0  0  0  0  0  0  0  0  0  0  0  0
   75.4843    5.8515   -4.0250 C   0  0  0  0  0  0  0  0  0  0  0  0
   75.5074    4.8539   -3.0575 C   0  0  0  0  0  0  0  0  0  0  0  0
   75.4295    5.2035   -1.5952 C   0  0  0  0  0  0  0  0  0  0  0  0
   74.4000    1.9132   -2.0084 C   0  0  0  0  0  0  0  0  0  0  0  0
   73.1268    2.3531   -2.5487 C   0  0  0  0  0  0  0  0  0  0  0  0
   72.1751    1.6482   -1.9022 C   0  0  0  0  0  0  0  0  0  0  0  0
   72.8660    0.7843   -0.9665 C   0  0  0  0  0  0  0  0  0  0  0  0
   74.2002    0.9551   -1.0601 N   0  0  0  0  0  0  0  0  0  0  0  0
   71.1638   -1.9437    1.8827 H   0  0  0  0  0  0  0  0  0  0  0  0
   73.0950   -3.3090    3.1310 H   0  0  0  0  0  0  0  0  0  0  0  0
   74.8862   -0.6458    0.3865 H   0  0  0  0  0  0  0  0  0  0  0  0
   74.6357   -4.9376    0.9786 H   0  0  0  0  0  0  0  0  0  0  0  0
   76.3941   -4.9024    0.8413 H   0  0  0  0  0  0  0  0  0  0  0  0
   75.5699   -6.4194    1.2453 H   0  0  0  0  0  0  0  0  0  0  0  0
   75.6261   -7.0405    3.5067 H   0  0  0  0  0  0  0  0  0  0  0  0
   75.4466   -6.4425    7.1594 H   0  0  0  0  0  0  0  0  0  0  0  0
   75.2369   -7.6507    5.8771 H   0  0  0  0  0  0  0  0  0  0  0  0
   76.8580   -7.1262    6.3444 H   0  0  0  0  0  0  0  0  0  0  0  0
   75.9388   -4.1123    6.6123 H   0  0  0  0  0  0  0  0  0  0  0  0
   75.0619   -1.3457    4.6853 H   0  0  0  0  0  0  0  0  0  0  0  0
   75.9762   -1.8186    6.1285 H   0  0  0  0  0  0  0  0  0  0  0  0
   76.8224   -1.4329    4.6199 H   0  0  0  0  0  0  0  0  0  0  0  0
   78.3534   -3.4486    2.9103 H   0  0  0  0  0  0  0  0  0  0  0  0
   80.2537   -2.0293    1.6311 H   0  0  0  0  0  0  0  0  0  0  0  0
   80.1909    2.0249   -1.8244 H   0  0  0  0  0  0  0  0  0  0  0  0
   78.2603    3.3701   -3.1028 H   0  0  0  0  0  0  0  0  0  0  0  0
   76.4603    0.4908   -0.5917 H   0  0  0  0  0  0  0  0  0  0  0  0
   75.7807    1.6587   -6.3165 H   0  0  0  0  0  0  0  0  0  0  0  0
   74.9307    1.1763   -4.8373 H   0  0  0  0  0  0  0  0  0  0  0  0
   76.6904    1.3006   -4.8386 H   0  0  0  0  0  0  0  0  0  0  0  0
   75.7016    3.9471   -6.8124 H   0  0  0  0  0  0  0  0  0  0  0  0
   75.1336    6.2654   -7.3575 H   0  0  0  0  0  0  0  0  0  0  0  0
   76.5652    6.9721   -6.5996 H   0  0  0  0  0  0  0  0  0  0  0  0
   74.9557    7.4804   -6.0770 H   0  0  0  0  0  0  0  0  0  0  0  0
   75.4092    6.8898   -3.7186 H   0  0  0  0  0  0  0  0  0  0  0  0
   76.3148    4.8392   -1.0706 H   0  0  0  0  0  0  0  0  0  0  0  0
   75.3602    6.2820   -1.4561 H   0  0  0  0  0  0  0  0  0  0  0  0
   74.5552    4.7349   -1.1397 H   0  0  0  0  0  0  0  0  0  0  0  0
   73.0058    3.0976   -3.3191 H   0  0  0  0  0  0  0  0  0  0  0  0
   71.1066    1.6846   -2.0363 H   0  0  0  0  0  0  0  0  0  0  0  0
  1  2  4  0  0  0  0
  2  3  4  0  0  0  0
  3  4  2  0  0  0  0
  4  5  4  0  0  0  0
  2  6  4  0  0  0  0
  5  6  4  0  0  0  0
  5  7  4  0  0  0  0
  7  8  1  0  0  0  0
  8  9  4  0  0  0  0
  9 10  1  0  0  0  0
  9 11  4  0  0  0  0
 11 12  4  0  0  0  0
 12 13  1  0  0  0  0
 12 14  4  0  0  0  0
  8 15  4  0  0  0  0
 14 15  4  0  0  0  0
 15 16  1  0  0  0  0
  7 17  4  0  0  0  0
 17 18  1  0  0  0  0
 18 19  2  0  0  0  0
 17 20  4  0  0  0  0
 19 21  1  0  0  0  0
 20 21  4  0  0  0  0
 21 22  4  0  0  0  0
 22 23  4  0  0  0  0
 23 24  4  0  0  0  0
 24 25  2  0  0  0  0
 25 26  4  0  0  0  0
 23 27  4  0  0  0  0
 26 27  4  0  0  0  0
 26 28  4  0  0  0  0
 28 29  1  0  0  0  0
 29 30  4  0  0  0  0
 30 31  1  0  0  0  0
 30 32  4  0  0  0  0
 32 33  4  0  0  0  0
 33 34  1  0  0  0  0
 33 35  4  0  0  0  0
 29 36  4  0  0  0  0
 35 36  4  0  0  0  0
 36 37  1  0  0  0  0
 28 38  4  0  0  0  0
 38 39  1  0  0  0  0
 39 40  2  0  0  0  0
  1 41  4  0  0  0  0
 40 41  1  0  0  0  0
 38 42  4  0  0  0  0
 41 42  4  0  0  0  0
  1 43  1  0  0  0  0
  3 44  1  0  0  0  0
  4 45  1  0  0  0  0
  6 46  1  0  0  0  0
 10 47  1  0  0  0  0
 10 48  1  0  0  0  0
 10 49  1  0  0  0  0
 11 50  1  0  0  0  0
 13 51  1  0  0  0  0
 13 52  1  0  0  0  0
 13 53  1  0  0  0  0
 14 54  1  0  0  0  0
 16 55  1  0  0  0  0
 16 56  1  0  0  0  0
 16 57  1  0  0  0  0
 18 58  1  0  0  0  0
 19 59  1  0  0  0  0
 24 60  1  0  0  0  0
 25 61  1  0  0  0  0
 27 62  1  0  0  0  0
 31 63  1  0  0  0  0
 31 64  1  0  0  0  0
 31 65  1  0  0  0  0
 32 66  1  0  0  0  0
 34 67  1  0  0  0  0
 34 68  1  0  0  0  0
 34 69  1  0  0  0  0
 35 70  1  0  0  0  0
 37 71  1  0  0  0  0
 37 72  1  0  0  0  0
 37 73  1  0  0  0  0
 39 74  1  0  0  0  0
 40 75  1  0  0  0  0
 76 77  4  0  0  0  0
 77 78  4  0  0  0  0
 78 79  2  0  0  0  0
 79 80  4  0  0  0  0
 77 81  4  0  0  0  0
 80 81  4  0  0  0  0
 80 82  4  0  0  0  0
 82 83  1  0  0  0  0
 83 84  4  0  0  0  0
 84 85  1  0  0  0  0
 84 86  4  0  0  0  0
 86 87  4  0  0  0  0
 87 88  1  0  0  0  0
 87 89  4  0  0  0  0
 83 90  4  0  0  0  0
 89 90  4  0  0  0  0
 90 91  1  0  0  0  0
 82 92  4  0  0  0  0
 92 93  1  0  0  0  0
 93 94  2  0  0  0  0
 92 95  4  0  0  0  0
 94 96  1  0  0  0  0
 95 96  4  0  0  0  0
 96 97  4  0  0  0  0
 97 98  4  0  0  0  0
 98 99  4  0  0  0  0
 99100  2  0  0  0  0
100101  4  0  0  0  0
 98102  4  0  0  0  0
101102  4  0  0  0  0
101103  4  0  0  0  0
103104  1  0  0  0  0
104105  4  0  0  0  0
105106  1  0  0  0  0
105107  4  0  0  0  0
107108  4  0  0  0  0
108109  1  0  0  0  0
108110  4  0  0  0  0
104111  4  0  0  0  0
110111  4  0  0  0  0
111112  1  0  0  0  0
103113  4  0  0  0  0
113114  1  0  0  0  0
114115  2  0  0  0  0
 76116  4  0  0  0  0
115116  1  0  0  0  0
113117  4  0  0  0  0
116117  4  0  0  0  0
 76118  1  0  0  0  0
 78119  1  0  0  0  0
 79120  1  0  0  0  0
 81121  1  0  0  0  0
 85122  1  0  0  0  0
 85123  1  0  0  0  0
 85124  1  0  0  0  0
 86125  1  0  0  0  0
 88126  1  0  0  0  0
 88127  1  0  0  0  0
 88128  1  0  0  0  0
 89129  1  0  0  0  0
 91130  1  0  0  0  0
 91131  1  0  0  0  0
 91132  1  0  0  0  0
 93133  1  0  0  0  0
 94134  1  0  0  0  0
 99135  1  0  0  0  0
100136  1  0  0  0  0
102137  1  0  0  0  0
106138  1  0  0  0  0
106139  1  0  0  0  0
106140  1  0  0  0  0
107141  1  0  0  0  0
109142  1  0  0  0  0
109143  1  0  0  0  0
109144  1  0  0  0  0
110145  1  0  0  0  0
112146  1  0  0  0  0
112147  1  0  0  0  0
112148  1  0  0  0  0
114149  1  0  0  0  0
115150  1  0  0  0  0
 22151  4  0  0  0  0
151152  3  0  0  0  0
153154  3  0  0  0  0
 97156  4  0  0  0  0
155156  3  0  0  0  0
152157  4  0  0  0  0
157158  4  0  0  0  0
158159  4  0  0  0  0
159160  2  0  0  0  0
160161  4  0  0  0  0
158162  4  0  0  0  0
161162  4  0  0  0  0
161163  4  0  0  0  0
163164  1  0  0  0  0
164165  4  0  0  0  0
165166  1  0  0  0  0
165167  4  0  0  0  0
167168  4  0  0  0  0
168169  1  0  0  0  0
168170  4  0  0  0  0
164171  4  0  0  0  0
170171  4  0  0  0  0
171172  1  0  0  0  0
163173  4  0  0  0  0
173174  1  0  0  0  0
174175  2  0  0  0  0
173176  4  0  0  0  0
175177  1  0  0  0  0
176177  4  0  0  0  0
153178  4  0  0  0  0
177178  4  0  0  0  0
178179  4  0  0  0  0
179180  4  0  0  0  0
180181  2  0  0  0  0
181182  4  0  0  0  0
179183  4  0  0  0  0
182183  4  0  0  0  0
182184  4  0  0  0  0
184185  1  0  0  0  0
185186  4  0  0  0  0
186187  1  0  0  0  0
186188  4  0  0  0  0
188189  4  0  0  0  0
189190  1  0  0  0  0
189191  4  0  0  0  0
185192  4  0  0  0  0
191192  4  0  0  0  0
192193  1  0  0  0  0
184194  4  0  0  0  0
194195  1  0  0  0  0
195196  2  0  0  0  0
157197  4  0  0  0  0
196197  1  0  0  0  0
194198  4  0  0  0  0
197198  4  0  0  0  0
159199  1  0  0  0  0
160200  1  0  0  0  0
162201  1  0  0  0  0
166202  1  0  0  0  0
166203  1  0  0  0  0
166204  1  0  0  0  0
167205  1  0  0  0  0
169206  1  0  0  0  0
169207  1  0  0  0  0
169208  1  0  0  0  0
170209  1  0  0  0  0
172210  1  0  0  0  0
172211  1  0  0  0  0
172212  1  0  0  0  0
174213  1  0  0  0  0
175214  1  0  0  0  0
180215  1  0  0  0  0
181216  1  0  0  0  0
183217  1  0  0  0  0
187218  1  0  0  0  0
187219  1  0  0  0  0
187220  1  0  0  0  0
188221  1  0  0  0  0
190222  1  0  0  0  0
190223  1  0  0  0  0
190224  1  0  0  0  0
191225  1  0  0  0  0
193226  1  0  0  0  0
193227  1  0  0  0  0
193228  1  0  0  0  0
195229  1  0  0  0  0
196230  1  0  0  0  0
154231  4  0  0  0  0
231232  4  0  0  0  0
232233  4  0  0  0  0
233234  2  0  0  0  0
234235  4  0  0  0  0
232236  4  0  0  0  0
235236  4  0  0  0  0
235237  4  0  0  0  0
237238  1  0  0  0  0
238239  4  0  0  0  0
239240  1  0  0  0  0
239241  4  0  0  0  0
241242  4  0  0  0  0
242243  1  0  0  0  0
242244  4  0  0  0  0
238245  4  0  0  0  0
244245  4  0  0  0  0
245246  1  0  0  0  0
237247  4  0  0  0  0
247248  1  0  0  0  0
248249  2  0  0  0  0
247250  4  0  0  0  0
249251  1  0  0  0  0
250251  4  0  0  0  0
155252  4  0  0  0  0
251252  4  0  0  0  0
252253  4  0  0  0  0
253254  4  0  0  0  0
254255  2  0  0  0  0
255256  4  0  0  0  0
253257  4  0  0  0  0
256257  4  0  0  0  0
256258  4  0  0  0  0
258259  1  0  0  0  0
259260  4  0  0  0  0
260261  1  0  0  0  0
260262  4  0  0  0  0
262263  4  0  0  0  0
263264  1  0  0  0  0
263265  4  0  0  0  0
259266  4  0  0  0  0
265266  4  0  0  0  0
266267  1  0  0  0  0
258268  4  0  0  0  0
268269  1  0  0  0  0
269270  2  0  0  0  0
231271  4  0  0  0  0
270271  1  0  0  0  0
268272  4  0  0  0  0
271272  4  0  0  0  0
233273  1  0  0  0  0
234274  1  0  0  0  0
236275  1  0  0  0  0
240276  1  0  0  0  0
240277  1  0  0  0  0
240278  1  0  0  0  0
241279  1  0  0  0  0
243280  1  0  0  0  0
243281  1  0  0  0  0
243282  1  0  0  0  0
244283  1  0  0  0  0
246284  1  0  0  0  0
246285  1  0  0  0  0
246286  1  0  0  0  0
248287  1  0  0  0  0
249288  1  0  0  0  0
254289  1  0  0  0  0
255290  1  0  0  0  0
257291  1  0  0  0  0
261292  1  0  0  0  0
261293  1  0  0  0  0
261294  1  0  0  0  0
262295  1  0  0  0  0
264296  1  0  0  0  0
264297  1  0  0  0  0
264298  1  0  0  0  0
265299  1  0  0  0  0
267300  1  0  0  0  0
267301  1  0  0  0  0
267302  1  0  0  0  0
269303  1  0  0  0  0
270304  1  0  0  0  0
M  END
