640

C 166.195349 0.045789 0.110393
C 166.925746 -1.331804 0.081178
C 166.320460 -2.564408 0.171472
C 167.343426 -3.540188 0.047967
C 168.539250 -2.868639 -0.118310
N 168.278307 -1.523113 -0.043107
C 169.961313 -3.518541 -0.378114
C 171.090325 -2.761478 -0.329729
C 172.394272 -3.313177 -0.636102
C 173.294432 -2.342334 -0.536181
N 171.285072 -1.437468 -0.037409
C 172.615001 -1.123114 -0.144401
C 173.281272 0.046583 0.047425
C 172.503947 1.350941 0.508847
C 173.046081 2.425324 1.186220
C 172.020495 3.389638 1.349665
C 170.877787 2.872363 0.778270
C 169.466477 3.589265 0.689093
C 169.429864 5.063946 0.795107
C 169.739624 5.857976 -0.314928
C 169.713171 7.251242 -0.213810
C 169.377807 7.859335 1.002895
C 169.359937 9.340481 1.067338
O 169.032620 9.811437 2.285849
O 169.605316 10.108793 0.154607
C 169.069778 7.067542 2.116867
C 169.097436 5.675099 2.010530
C 168.342095 2.848284 0.511193
C 167.019036 3.438051 0.408010
C 166.135102 2.456468 0.254370
C 166.858718 1.209086 0.247464
N 168.179723 1.496483 0.391785
N 171.168925 1.610673 0.315364
C 169.999440 -4.957845 -0.725648
C 169.732636 -5.371437 -2.036027
C 169.751138 -6.729081 -2.365635
C 170.040327 -7.683197 -1.381005
C 170.071692 -9.134578 -1.681969
O 169.805050 -9.412462 -2.971923
O 170.306346 -10.032511 -0.892783
C 170.309111 -7.272500 -0.068964
C 170.285612 -5.914146 0.255891
H 165.117305 0.051061 0.003979
H 165.263073 -2.741378 0.294106
H 167.216833 -4.612553 0.054074
H 168.977886 -0.785731 -0.079090
H 172.607995 -4.329871 -0.913040
H 174.347017 -2.464892 -0.715250
H 174.069382 2.514331 1.517539
H 172.107959 4.353331 1.827561
H 169.997290 5.376260 -1.256028
H 169.953586 7.851557 -1.087425
H 169.063404 10.781294 2.165117
H 168.804967 7.515659 3.069521
H 168.856927 5.049065 2.867735
H 166.787279 4.486725 0.446658
H 165.071216 2.566076 0.148384
H 170.484956 0.957138 -0.056920
H 169.512434 -4.621068 -2.792471
H 169.539147 -7.023003 -3.389360
H 169.864236 -10.388191 -3.006098
H 170.538388 -7.999953 0.705627
H 170.492297 -5.583930 1.271376
C 275.854062 0.019060 0.104065
C 275.123665 1.263524 0.695609
C 275.728951 2.324807 1.328969
C 274.705985 3.252386 1.656074
C 273.510161 2.726671 1.206351
N 273.771104 1.490251 0.670291
C 272.088098 3.424074 1.265515
C 270.959086 2.725677 0.969327
C 269.655139 3.356180 0.942835
C 268.754979 2.443589 0.596862
N 270.764339 1.411142 0.636985
C 269.434410 1.178127 0.400406
C 268.768139 0.046583 0.047425
C 269.545464 -1.326205 -0.124954
C 269.003330 -2.590253 -0.001193
C 270.028916 -3.525491 -0.287456
C 271.171624 -2.806932 -0.566275
C 272.582935 -3.407753 -0.967415
C 272.619547 -4.773434 -1.533843
C 272.309787 -4.985485 -2.882063
C 272.336240 -6.276197 -3.416363
C 272.671604 -7.365264 -2.601452
C 272.689474 -8.718085 -3.207936
O 273.016791 -9.685382 -2.329924
O 272.444095 -8.995610 -4.368264
C 272.979633 -7.156978 -1.250717
C 272.951975 -5.864662 -0.721450
C 273.707316 -2.665662 -0.794206
C 275.030375 -3.146564 -1.150864
C 275.914309 -2.200287 -0.848093
C 275.190694 -1.082214 -0.294989
N 273.869688 -1.403813 -0.294846
N 270.880486 -1.471618 -0.414353
C 272.049972 4.866420 1.600197
C 272.316775 5.823633 0.614349
C 272.298273 7.184950 0.928441
C 272.009084 7.596320 2.236343
C 271.977719 9.028582 2.618067
O 272.244361 9.855333 1.589630
O 271.743065 9.477362 3.726081
C 271.740301 6.640950 3.224975
C 271.763799 5.281130 2.906316
H 276.932106 0.062059 0.006583
H 276.786338 2.428008 1.517932
H 274.832578 4.208184 2.142339
H 273.071525 0.847273 0.307515
H 269.441416 4.389123 1.151138
H 267.702394 2.633424 0.491751
H 267.980029 -2.818363 0.255051
H 269.941452 -4.601160 -0.292369
H 272.052121 -4.132949 -3.507285
H 272.095825 -6.421096 -4.466403
H 272.986007 -10.498160 -2.872687
H 273.244444 -7.984662 -0.600102
H 273.192484 -5.689415 0.325454
H 275.262132 -4.101252 -1.586502
H 276.978195 -2.250741 -0.991973
H 271.564455 -0.720536 -0.454101
H 272.536978 5.492072 -0.398237
H 272.510264 7.906670 0.145165
H 272.185175 10.742815 1.996561
H 271.511024 6.943891 4.243506
H 271.557114 4.530663 3.665954
C 175.470449 0.046583 0.047425
C 176.692366 0.046583 0.047425
C 186.706273 0.046583 0.047425
C 187.928191 0.046583 0.047425
C 197.942098 0.046583 0.047425
C 199.164015 0.046583 0.047425
C 209.177922 0.046583 0.047425
C 210.399840 0.046583 0.047425
C 220.413747 0.046583 0.047425
C 221.635664 0.046583 0.047425
C 231.649571 0.046583 0.047425
C 232.871489 0.046583 0.047425
C 242.885396 0.046583 0.047425
C 244.107313 0.046583 0.047425
C 254.121220 0.046583 0.047425
C 255.343138 0.046583 0.047425
C 265.357045 0.046583 0.047425
C 266.578962 0.046583 0.047425
C 178.109112 -0.013524 -0.013768
C 178.903492 0.779482 -1.131873
C 178.399189 1.242680 -2.330053
C 179.436757 1.962679 -2.975904
C 180.543767 1.910585 -2.154970
N 180.231209 1.125314 -1.073714
C 181.932307 2.629531 -2.401902
C 183.067802 2.128347 -1.848838
C 184.354415 2.777277 -1.996528
C 185.262812 2.059333 -1.344824
N 183.276350 1.017091 -1.080366
C 184.601046 0.916261 -0.749061
C 185.265240 -0.013524 -0.013768
C 184.470563 -1.233605 0.610550
C 184.973365 -2.487204 0.893936
C 183.935385 -3.229502 1.513424
C 182.829937 -2.407852 1.582828
C 181.442323 -2.753879 2.261244
C 181.454834 -3.714765 3.387392
C 181.016466 -5.032356 3.203787
C 181.043110 -5.939042 4.266169
C 181.513003 -5.533025 5.521804
C 181.525079 -6.526616 6.622206
O 181.989248 -6.024408 7.782350
O 181.167250 -7.689103 6.551383
C 181.955844 -4.217174 5.708367
C 181.926896 -3.313872 4.642794
C 180.306308 -2.137067 1.842682
C 179.020404 -2.373552 2.466064
C 178.111849 -1.626627 1.848022
C 178.773048 -0.875730 0.799913
N 180.097072 -1.220878 0.849814
N 183.143271 -1.224506 0.962573
C 181.923915 3.871993 -3.206932
C 181.453904 5.067143 -2.650238
C 181.431005 6.238448 -3.411602
C 181.877043 6.220378 -4.739390
C 181.836222 7.485220 -5.511953
O 182.284183 7.347266 -6.774640
O 181.449995 8.568145 -5.109137
C 182.344873 5.025548 -5.301457
C 182.365337 3.856891 -4.536339
H 177.391998 1.099291 -2.690879
H 179.376657 2.477725 -3.922751
H 180.890610 0.812828 -0.366888
H 184.550510 3.689456 -2.530839
H 186.307327 2.303650 -1.279061
H 185.979671 -2.825018 0.697960
H 183.994002 -4.241410 1.884982
H 180.651319 -5.337234 2.224846
H 180.695551 -6.955990 4.105592
H 181.933667 -6.785475 8.393909
H 182.325363 -3.879298 6.671736
H 182.269642 -2.289695 4.778004
H 178.824589 -3.031323 3.293708
H 177.067603 -1.595373 2.100265
H 182.484530 -0.479187 0.756161
H 181.108306 5.072263 -1.618236
H 181.064188 7.156921 -2.961260
H 182.195640 8.249549 -7.141479
H 182.696286 4.986785 -6.327922
H 182.728479 2.923271 -4.962172
C 189.344936 -0.013524 -0.013768
C 190.139317 0.779482 -1.131873
C 189.635014 1.242680 -2.330053
C 190.672581 1.962679 -2.975904
C 191.779592 1.910585 -2.154970
N 191.467034 1.125314 -1.073714
C 193.168132 2.629531 -2.401902
C 194.303627 2.128347 -1.848838
C 195.590239 2.777277 -1.996528
C 196.498636 2.059333 -1.344824
N 194.512174 1.017091 -1.080366
C 195.836870 0.916261 -0.749061
C 196.501065 -0.013524 -0.013768
C 195.706388 -1.233605 0.610550
C 196.209190 -2.487204 0.893936
C 195.171210 -3.229502 1.513424
C 194.065761 -2.407852 1.582828
C 192.678148 -2.753879 2.261244
C 192.690658 -3.714765 3.387392
C 192.252290 -5.032356 3.203787
C 192.278935 -5.939042 4.266169
C 192.748827 -5.533025 5.521804
C 192.760903 -6.526616 6.622206
O 193.225072 -6.024408 7.782350
O 192.403075 -7.689103 6.551383
C 193.191669 -4.217174 5.708367
C 193.162721 -3.313872 4.642794
C 191.542132 -2.137067 1.842682
C 190.256229 -2.373552 2.466064
C 189.347673 -1.626627 1.848022
C 190.008872 -0.875730 0.799913
N 191.332897 -1.220878 0.849814
N 194.379095 -1.224506 0.962573
C 193.159739 3.871993 -3.206932
C 192.689728 5.067143 -2.650238
C 192.666830 6.238448 -3.411602
C 193.112868 6.220378 -4.739390
C 193.072046 7.485220 -5.511953
O 193.520008 7.347266 -6.774640
O 192.685819 8.568145 -5.109137
C 193.580697 5.025548 -5.301457
C 193.601161 3.856891 -4.536339
H 188.627823 1.099291 -2.690879
H 190.612481 2.477725 -3.922751
H 192.126434 0.812828 -0.366888
H 195.786335 3.689456 -2.530839
H 197.543152 2.303650 -1.279061
H 197.215496 -2.825018 0.697960
H 195.229827 -4.241410 1.884982
H 191.887144 -5.337234 2.224846
H 191.931375 -6.955990 4.105592
H 193.169491 -6.785475 8.393909
H 193.561187 -3.879298 6.671736
H 193.505466 -2.289695 4.778004
H 190.060414 -3.031323 3.293708
H 188.303428 -1.595373 2.100265
H 193.720355 -0.479187 0.756161
H 192.344131 5.072263 -1.618236
H 192.300012 7.156921 -2.961260
H 193.431464 8.249549 -7.141479
H 193.932110 4.986785 -6.327922
H 193.964304 2.923271 -4.962172
C 200.580761 -0.013524 -0.013768
C 201.375141 0.779482 -1.131873
C 200.870838 1.242680 -2.330053
C 201.908406 1.962679 -2.975904
C 203.015416 1.910585 -2.154970
N 202.702858 1.125314 -1.073714
C 204.403956 2.629531 -2.401902
C 205.539451 2.128347 -1.848838
C 206.826064 2.777277 -1.996528
C 207.734461 2.059333 -1.344824
N 205.747999 1.017091 -1.080366
C 207.072695 0.916261 -0.749061
C 207.736889 -0.013524 -0.013768
C 206.942212 -1.233605 0.610550
C 207.445014 -2.487204 0.893936
C 206.407034 -3.229502 1.513424
C 205.301586 -2.407852 1.582828
C 203.913972 -2.753879 2.261244
C 203.926483 -3.714765 3.387392
C 203.488115 -5.032356 3.203787
C 203.514759 -5.939042 4.266169
C 203.984651 -5.533025 5.521804
C 203.996728 -6.526616 6.622206
O 204.460897 -6.024408 7.782350
O 203.638899 -7.689103 6.551383
C 204.427493 -4.217174 5.708367
C 204.398545 -3.313872 4.642794
C 202.777957 -2.137067 1.842682
C 201.492053 -2.373552 2.466064
C 200.583498 -1.626627 1.848022
C 201.244697 -0.875730 0.799913
N 202.568721 -1.220878 0.849814
N 205.614920 -1.224506 0.962573
C 204.395564 3.871993 -3.206932
C 203.925553 5.067143 -2.650238
C 203.902654 6.238448 -3.411602
C 204.348692 6.220378 -4.739390
C 204.307871 7.485220 -5.511953
O 204.755832 7.347266 -6.774640
O 203.921644 8.568145 -5.109137
C 204.816522 5.025548 -5.301457
C 204.836986 3.856891 -4.536339
H 199.863647 1.099291 -2.690879
H 201.848305 2.477725 -3.922751
H 203.362259 0.812828 -0.366888
H 207.022159 3.689456 -2.530839
H 208.778976 2.303650 -1.279061
H 208.451320 -2.825018 0.697960
H 206.465651 -4.241410 1.884982
H 203.122968 -5.337234 2.224846
H 203.167200 -6.955990 4.105592
H 204.405315 -6.785475 8.393909
H 204.797012 -3.879298 6.671736
H 204.741291 -2.289695 4.778004
H 201.296238 -3.031323 3.293708
H 199.539252 -1.595373 2.100265
H 204.956179 -0.479187 0.756161
H 203.579955 5.072263 -1.618236
H 203.535836 7.156921 -2.961260
H 204.667289 8.249549 -7.141479
H 205.167935 4.986785 -6.327922
H 205.200128 2.923271 -4.962172
C 211.816585 -0.013524 -0.013768
C 212.610966 0.779482 -1.131873
C 212.106663 1.242680 -2.330053
C 213.144230 1.962679 -2.975904
C 214.251240 1.910585 -2.154970
N 213.938683 1.125314 -1.073714
C 215.639781 2.629531 -2.401902
C 216.775276 2.128347 -1.848838
C 218.061888 2.777277 -1.996528
C 218.970285 2.059333 -1.344824
N 216.983823 1.017091 -1.080366
C 218.308519 0.916261 -0.749061
C 218.972714 -0.013524 -0.013768
C 218.178036 -1.233605 0.610550
C 218.680839 -2.487204 0.893936
C 217.642858 -3.229502 1.513424
C 216.537410 -2.407852 1.582828
C 215.149796 -2.753879 2.261244
C 215.162307 -3.714765 3.387392
C 214.723939 -5.032356 3.203787
C 214.750584 -5.939042 4.266169
C 215.220476 -5.533025 5.521804
C 215.232552 -6.526616 6.622206
O 215.696721 -6.024408 7.782350
O 214.874724 -7.689103 6.551383
C 215.663318 -4.217174 5.708367
C 215.634370 -3.313872 4.642794
C 214.013781 -2.137067 1.842682
C 212.727878 -2.373552 2.466064
C 211.819322 -1.626627 1.848022
C 212.480521 -0.875730 0.799913
N 213.804546 -1.220878 0.849814
N 216.850744 -1.224506 0.962573
C 215.631388 3.871993 -3.206932
C 215.161377 5.067143 -2.650238
C 215.138479 6.238448 -3.411602
C 215.584517 6.220378 -4.739390
C 215.543695 7.485220 -5.511953
O 215.991657 7.347266 -6.774640
O 215.157468 8.568145 -5.109137
C 216.052346 5.025548 -5.301457
C 216.072810 3.856891 -4.536339
H 211.099472 1.099291 -2.690879
H 213.084130 2.477725 -3.922751
H 214.598083 0.812828 -0.366888
H 218.257984 3.689456 -2.530839
H 220.014801 2.303650 -1.279061
H 219.687145 -2.825018 0.697960
H 217.701476 -4.241410 1.884982
H 214.358793 -5.337234 2.224846
H 214.403024 -6.955990 4.105592
H 215.641140 -6.785475 8.393909
H 216.032836 -3.879298 6.671736
H 215.977115 -2.289695 4.778004
H 212.532063 -3.031323 3.293708
H 210.775077 -1.595373 2.100265
H 216.192004 -0.479187 0.756161
H 214.815780 5.072263 -1.618236
H 214.771661 7.156921 -2.961260
H 215.903113 8.249549 -7.141479
H 216.403759 4.986785 -6.327922
H 216.435953 2.923271 -4.962172
C 223.052410 -0.013524 -0.013768
C 223.846790 0.779482 -1.131873
C 223.342487 1.242680 -2.330053
C 224.380055 1.962679 -2.975904
C 225.487065 1.910585 -2.154970
N 225.174507 1.125314 -1.073714
C 226.875605 2.629531 -2.401902
C 228.011100 2.128347 -1.848838
C 229.297713 2.777277 -1.996528
C 230.206110 2.059333 -1.344824
N 228.219648 1.017091 -1.080366
C 229.544344 0.916261 -0.749061
C 230.208538 -0.013524 -0.013768
C 229.413861 -1.233605 0.610550
C 229.916663 -2.487204 0.893936
C 228.878683 -3.229502 1.513424
C 227.773235 -2.407852 1.582828
C 226.385621 -2.753879 2.261244
C 226.398132 -3.714765 3.387392
C 225.959764 -5.032356 3.203787
C 225.986408 -5.939042 4.266169
C 226.456300 -5.533025 5.521804
C 226.468377 -6.526616 6.622206
O 226.932546 -6.024408 7.782350
O 226.110548 -7.689103 6.551383
C 226.899142 -4.217174 5.708367
C 226.870194 -3.313872 4.642794
C 225.249606 -2.137067 1.842682
C 223.963702 -2.373552 2.466064
C 223.055147 -1.626627 1.848022
C 223.716346 -0.875730 0.799913
N 225.040370 -1.220878 0.849814
N 228.086569 -1.224506 0.962573
C 226.867213 3.871993 -3.206932
C 226.397202 5.067143 -2.650238
C 226.374303 6.238448 -3.411602
C 226.820341 6.220378 -4.739390
C 226.779519 7.485220 -5.511953
O 227.227481 7.347266 -6.774640
O 226.393293 8.568145 -5.109137
C 227.288171 5.025548 -5.301457
C 227.308635 3.856891 -4.536339
H 222.335296 1.099291 -2.690879
H 224.319954 2.477725 -3.922751
H 225.833908 0.812828 -0.366888
H 229.493808 3.689456 -2.530839
H 231.250625 2.303650 -1.279061
H 230.922969 -2.825018 0.697960
H 228.937300 -4.241410 1.884982
H 225.594617 -5.337234 2.224846
H 225.638849 -6.955990 4.105592
H 226.876964 -6.785475 8.393909
H 227.268661 -3.879298 6.671736
H 227.212940 -2.289695 4.778004
H 223.767887 -3.031323 3.293708
H 222.010901 -1.595373 2.100265
H 227.427828 -0.479187 0.756161
H 226.051604 5.072263 -1.618236
H 226.007485 7.156921 -2.961260
H 227.138938 8.249549 -7.141479
H 227.639584 4.986785 -6.327922
H 227.671777 2.923271 -4.962172
C 234.288234 -0.013524 -0.013768
C 235.082615 0.779482 -1.131873
C 234.578312 1.242680 -2.330053
C 235.615879 1.962679 -2.975904
C 236.722889 1.910585 -2.154970
N 236.410331 1.125314 -1.073714
C 238.111430 2.629531 -2.401902
C 239.246925 2.128347 -1.848838
C 240.533537 2.777277 -1.996528
C 241.441934 2.059333 -1.344824
N 239.455472 1.017091 -1.080366
C 240.780168 0.916261 -0.749061
C 241.444363 -0.013524 -0.013768
C 240.649685 -1.233605 0.610550
C 241.152488 -2.487204 0.893936
C 240.114507 -3.229502 1.513424
C 239.009059 -2.407852 1.582828
C 237.621445 -2.753879 2.261244
C 237.633956 -3.714765 3.387392
C 237.195588 -5.032356 3.203787
C 237.222233 -5.939042 4.266169
C 237.692125 -5.533025 5.521804
C 237.704201 -6.526616 6.622206
O 238.168370 -6.024408 7.782350
O 237.346373 -7.689103 6.551383
C 238.134966 -4.217174 5.708367
C 238.106019 -3.313872 4.642794
C 236.485430 -2.137067 1.842682
C 235.199527 -2.373552 2.466064
C 234.290971 -1.626627 1.848022
C 234.952170 -0.875730 0.799913
N 236.276195 -1.220878 0.849814
N 239.322393 -1.224506 0.962573
C 238.103037 3.871993 -3.206932
C 237.633026 5.067143 -2.650238
C 237.610128 6.238448 -3.411602
C 238.056166 6.220378 -4.739390
C 238.015344 7.485220 -5.511953
O 238.463306 7.347266 -6.774640
O 237.629117 8.568145 -5.109137
C 238.523995 5.025548 -5.301457
C 238.544459 3.856891 -4.536339
H 233.571121 1.099291 -2.690879
H 235.555779 2.477725 -3.922751
H 237.069732 0.812828 -0.366888
H 240.729632 3.689456 -2.530839
H 242.486450 2.303650 -1.279061
H 242.158794 -2.825018 0.697960
H 240.173125 -4.241410 1.884982
H 236.830442 -5.337234 2.224846
H 236.874673 -6.955990 4.105592
H 238.112789 -6.785475 8.393909
H 238.504485 -3.879298 6.671736
H 238.448764 -2.289695 4.778004
H 235.003712 -3.031323 3.293708
H 233.246726 -1.595373 2.100265
H 238.663653 -0.479187 0.756161
H 237.287429 5.072263 -1.618236
H 237.243310 7.156921 -2.961260
H 238.374762 8.249549 -7.141479
H 238.875408 4.986785 -6.327922
H 238.907602 2.923271 -4.962172
C 245.524059 -0.013524 -0.013768
C 246.318439 0.779482 -1.131873
C 245.814136 1.242680 -2.330053
C 246.851704 1.962679 -2.975904
C 247.958714 1.910585 -2.154970
N 247.646156 1.125314 -1.073714
C 249.347254 2.629531 -2.401902
C 250.482749 2.128347 -1.848838
C 251.769362 2.777277 -1.996528
C 252.677759 2.059333 -1.344824
N 250.691297 1.017091 -1.080366
C 252.015993 0.916261 -0.749061
C 252.680187 -0.013524 -0.013768
C 251.885510 -1.233605 0.610550
C 252.388312 -2.487204 0.893936
C 251.350332 -3.229502 1.513424
C 250.244884 -2.407852 1.582828
C 248.857270 -2.753879 2.261244
C 248.869781 -3.714765 3.387392
C 248.431412 -5.032356 3.203787
C 248.458057 -5.939042 4.266169
C 248.927949 -5.533025 5.521804
C 248.940026 -6.526616 6.622206
O 249.404195 -6.024408 7.782350
O 248.582197 -7.689103 6.551383
C 249.370791 -4.217174 5.708367
C 249.341843 -3.313872 4.642794
C 247.721255 -2.137067 1.842682
C 246.435351 -2.373552 2.466064
C 245.526796 -1.626627 1.848022
C 246.187995 -0.875730 0.799913
N 247.512019 -1.220878 0.849814
N 250.558218 -1.224506 0.962573
C 249.338862 3.871993 -3.206932
C 248.868851 5.067143 -2.650238
C 248.845952 6.238448 -3.411602
C 249.291990 6.220378 -4.739390
C 249.251168 7.485220 -5.511953
O 249.699130 7.347266 -6.774640
O 248.864942 8.568145 -5.109137
C 249.759820 5.025548 -5.301457
C 249.780283 3.856891 -4.536339
H 244.806945 1.099291 -2.690879
H 246.791603 2.477725 -3.922751
H 248.305557 0.812828 -0.366888
H 251.965457 3.689456 -2.530839
H 253.722274 2.303650 -1.279061
H 253.394618 -2.825018 0.697960
H 251.408949 -4.241410 1.884982
H 248.066266 -5.337234 2.224846
H 248.110498 -6.955990 4.105592
H 249.348613 -6.785475 8.393909
H 249.740310 -3.879298 6.671736
H 249.684589 -2.289695 4.778004
H 246.239536 -3.031323 3.293708
H 244.482550 -1.595373 2.100265
H 249.899477 -0.479187 0.756161
H 248.523253 5.072263 -1.618236
H 248.479134 7.156921 -2.961260
H 249.610587 8.249549 -7.141479
H 250.111233 4.986785 -6.327922
H 250.143426 2.923271 -4.962172
C 256.759883 -0.013524 -0.013768
C 257.554264 0.779482 -1.131873
C 257.049960 1.242680 -2.330053
C 258.087528 1.962679 -2.975904
C 259.194538 1.910585 -2.154970
N 258.881980 1.125314 -1.073714
C 260.583079 2.629531 -2.401902
C 261.718574 2.128347 -1.848838
C 263.005186 2.777277 -1.996528
C 263.913583 2.059333 -1.344824
N 261.927121 1.017091 -1.080366
C 263.251817 0.916261 -0.749061
C 263.916012 -0.013524 -0.013768
C 263.121334 -1.233605 0.610550
C 263.624136 -2.487204 0.893936
C 262.586156 -3.229502 1.513424
C 261.480708 -2.407852 1.582828
C 260.093094 -2.753879 2.261244
C 260.105605 -3.714765 3.387392
C 259.667237 -5.032356 3.203787
C 259.693882 -5.939042 4.266169
C 260.163774 -5.533025 5.521804
C 260.175850 -6.526616 6.622206
O 260.640019 -6.024408 7.782350
O 259.818021 -7.689103 6.551383
C 260.606615 -4.217174 5.708367
C 260.577668 -3.313872 4.642794
C 258.957079 -2.137067 1.842682
C 257.671176 -2.373552 2.466064
C 256.762620 -1.626627 1.848022
C 257.423819 -0.875730 0.799913
N 258.747844 -1.220878 0.849814
N 261.794042 -1.224506 0.962573
C 260.574686 3.871993 -3.206932
C 260.104675 5.067143 -2.650238
C 260.081777 6.238448 -3.411602
C 260.527815 6.220378 -4.739390
C 260.486993 7.485220 -5.511953
O 260.934954 7.347266 -6.774640
O 260.100766 8.568145 -5.109137
C 260.995644 5.025548 -5.301457
C 261.016108 3.856891 -4.536339
H 256.042770 1.099291 -2.690879
H 258.027428 2.477725 -3.922751
H 259.541381 0.812828 -0.366888
H 263.201281 3.689456 -2.530839
H 264.958099 2.303650 -1.279061
H 264.630443 -2.825018 0.697960
H 262.644774 -4.241410 1.884982
H 259.302091 -5.337234 2.224846
H 259.346322 -6.955990 4.105592
H 260.584438 -6.785475 8.393909
H 260.976134 -3.879298 6.671736
H 260.920413 -2.289695 4.778004
H 257.475361 -3.031323 3.293708
H 255.718375 -1.595373 2.100265
H 261.135302 -0.479187 0.756161
H 259.759078 5.072263 -1.618236
H 259.714959 7.156921 -2.961260
H 260.846411 8.249549 -7.141479
H 261.347057 4.986785 -6.327922
H 261.379251 2.923271 -4.962172
