 xtb: 6.5.1 (b24c23e)
          07302209163D

183212  0     0  0            999 V2000
   23.7134   -0.0103    0.0012 Cu  0  0  0  0  0  0  0  0  0  0  0  0
   20.3073   -0.0430   -0.0230 C   0  0  0  0  0  0  0  0  0  0  0  0
   20.9436   -1.2734   -0.0908 C   0  0  0  0  0  0  0  0  0  0  0  0
   20.2700   -2.5395   -0.1384 C   0  0  0  0  0  0  0  0  0  0  0  0
   21.2300   -3.4965   -0.1788 C   0  0  0  0  0  0  0  0  0  0  0  0
   22.4998   -2.8226   -0.1638 C   0  0  0  0  0  0  0  0  0  0  0  0
   22.2946   -1.4741   -0.1049 N   0  0  0  0  0  0  0  0  0  0  0  0
   23.7446   -3.4558   -0.1739 C   0  0  0  0  0  0  0  0  0  0  0  0
   24.9765   -2.8023   -0.1205 C   0  0  0  0  0  0  0  0  0  0  0  0
   26.2544   -3.4541   -0.1728 C   0  0  0  0  0  0  0  0  0  0  0  0
   27.2000   -2.4823   -0.1146 C   0  0  0  0  0  0  0  0  0  0  0  0
   25.1644   -1.4473   -0.0424 N   0  0  0  0  0  0  0  0  0  0  0  0
   26.5076   -1.2313   -0.0341 C   0  0  0  0  0  0  0  0  0  0  0  0
   27.1423    0.0221    0.0252 C   0  0  0  0  0  0  0  0  0  0  0  0
   26.4825    1.2628    0.0771 C   0  0  0  0  0  0  0  0  0  0  0  0
   27.1500    2.5294    0.1015 C   0  0  0  0  0  0  0  0  0  0  0  0
   26.1857    3.4835    0.1425 C   0  0  0  0  0  0  0  0  0  0  0  0
   24.9210    2.8043    0.1515 C   0  0  0  0  0  0  0  0  0  0  0  0
   23.6762    3.4353    0.1800 C   0  0  0  0  0  0  0  0  0  0  0  0
   23.6628    4.9180    0.2597 C   0  0  0  0  0  0  0  0  0  0  0  0
   23.1134    5.6773   -0.7740 C   0  0  0  0  0  0  0  0  0  0  0  0
   23.1078    7.0622   -0.6999 C   0  0  0  0  0  0  0  0  0  0  0  0
   23.6452    7.7044    0.4074 C   0  0  0  0  0  0  0  0  0  0  0  0
   24.1907    6.9557    1.4413 C   0  0  0  0  0  0  0  0  0  0  0  0
   24.2025    5.5709    1.3686 C   0  0  0  0  0  0  0  0  0  0  0  0
   22.4438    2.7790    0.1389 C   0  0  0  0  0  0  0  0  0  0  0  0
   21.1609    3.4239    0.2098 C   0  0  0  0  0  0  0  0  0  0  0  0
   20.2202    2.4489    0.1486 C   0  0  0  0  0  0  0  0  0  0  0  0
   20.9190    1.1996    0.0492 C   0  0  0  0  0  0  0  0  0  0  0  0
   22.2656    1.4283    0.0503 N   0  0  0  0  0  0  0  0  0  0  0  0
   25.1353    1.4519    0.1015 N   0  0  0  0  0  0  0  0  0  0  0  0
   23.7588   -4.9395   -0.2432 C   0  0  0  0  0  0  0  0  0  0  0  0
   23.2594   -5.6007   -1.3656 C   0  0  0  0  0  0  0  0  0  0  0  0
   23.2763   -6.9861   -1.4279 C   0  0  0  0  0  0  0  0  0  0  0  0
   23.7854   -7.7264   -0.3697 C   0  0  0  0  0  0  0  0  0  0  0  0
   24.2816   -7.0754    0.7516 C   0  0  0  0  0  0  0  0  0  0  0  0
   24.2719   -5.6902    0.8150 C   0  0  0  0  0  0  0  0  0  0  0  0
   19.2222   -0.0542   -0.0165 H   0  0  0  0  0  0  0  0  0  0  0  0
   19.1988   -2.6658   -0.1340 H   0  0  0  0  0  0  0  0  0  0  0  0
   21.0982   -4.5663   -0.2054 H   0  0  0  0  0  0  0  0  0  0  0  0
   26.4043   -4.5184   -0.2560 H   0  0  0  0  0  0  0  0  0  0  0  0
   28.2725   -2.5923   -0.1305 H   0  0  0  0  0  0  0  0  0  0  0  0
   28.2199    2.6618    0.0822 H   0  0  0  0  0  0  0  0  0  0  0  0
   26.3151    4.5536    0.1524 H   0  0  0  0  0  0  0  0  0  0  0  0
   22.7050    5.1775   -1.6454 H   0  0  0  0  0  0  0  0  0  0  0  0
   22.6832    7.6426   -1.5115 H   0  0  0  0  0  0  0  0  0  0  0  0
   23.6391    8.7870    0.4643 H   0  0  0  0  0  0  0  0  0  0  0  0
   24.6094    7.4525    2.3096 H   0  0  0  0  0  0  0  0  0  0  0  0
   24.6189    4.9870    2.1820 H   0  0  0  0  0  0  0  0  0  0  0  0
   21.0072    4.4867    0.3060 H   0  0  0  0  0  0  0  0  0  0  0  0
   19.1468    2.5518    0.1743 H   0  0  0  0  0  0  0  0  0  0  0  0
   22.8716   -5.0234   -2.1975 H   0  0  0  0  0  0  0  0  0  0  0  0
   22.8912   -7.4899   -2.3076 H   0  0  0  0  0  0  0  0  0  0  0  0
   23.7964   -8.8093   -0.4192 H   0  0  0  0  0  0  0  0  0  0  0  0
   24.6782   -7.6494    1.5818 H   0  0  0  0  0  0  0  0  0  0  0  0
   24.6500   -5.1829    1.6957 H   0  0  0  0  0  0  0  0  0  0  0  0
   60.9244    0.0362    0.0091 Cu  0  0  0  0  0  0  0  0  0  0  0  0
   64.3306    0.0641   -0.0284 C   0  0  0  0  0  0  0  0  0  0  0  0
   63.6965    1.2973   -0.0416 C   0  0  0  0  0  0  0  0  0  0  0  0
   64.3724    2.5631   -0.0389 C   0  0  0  0  0  0  0  0  0  0  0  0
   63.4141    3.5227   -0.0352 C   0  0  0  0  0  0  0  0  0  0  0  0
   62.1430    2.8510   -0.0430 C   0  0  0  0  0  0  0  0  0  0  0  0
   62.3459    1.5008   -0.0416 N   0  0  0  0  0  0  0  0  0  0  0  0
   60.8994    3.4860   -0.0208 C   0  0  0  0  0  0  0  0  0  0  0  0
   59.6665    2.8329    0.0110 C   0  0  0  0  0  0  0  0  0  0  0  0
   58.3897    3.4887   -0.0082 C   0  0  0  0  0  0  0  0  0  0  0  0
   57.4425    2.5171    0.0157 C   0  0  0  0  0  0  0  0  0  0  0  0
   59.4763    1.4761    0.0344 N   0  0  0  0  0  0  0  0  0  0  0  0
   58.1327    1.2626    0.0415 C   0  0  0  0  0  0  0  0  0  0  0  0
   57.4952    0.0092    0.0531 C   0  0  0  0  0  0  0  0  0  0  0  0
   58.1525   -1.2339    0.0471 C   0  0  0  0  0  0  0  0  0  0  0  0
   57.4826   -2.4992    0.0201 C   0  0  0  0  0  0  0  0  0  0  0  0
   58.4453   -3.4558    0.0116 C   0  0  0  0  0  0  0  0  0  0  0  0
   59.7114   -2.7801    0.0424 C   0  0  0  0  0  0  0  0  0  0  0  0
   60.9553   -3.4136    0.0353 C   0  0  0  0  0  0  0  0  0  0  0  0
   60.9672   -4.8984    0.0465 C   0  0  0  0  0  0  0  0  0  0  0  0
   61.5133   -5.6093   -1.0229 C   0  0  0  0  0  0  0  0  0  0  0  0
   61.5191   -6.9961   -1.0128 C   0  0  0  0  0  0  0  0  0  0  0  0
   60.9848   -7.6887    0.0651 C   0  0  0  0  0  0  0  0  0  0  0  0
   60.4423   -6.9886    1.1341 C   0  0  0  0  0  0  0  0  0  0  0  0
   60.4307   -5.6018    1.1256 C   0  0  0  0  0  0  0  0  0  0  0  0
   62.1888   -2.7583    0.0181 C   0  0  0  0  0  0  0  0  0  0  0  0
   63.4708   -3.4080    0.0555 C   0  0  0  0  0  0  0  0  0  0  0  0
   64.4131   -2.4330    0.0343 C   0  0  0  0  0  0  0  0  0  0  0  0
   63.7165   -1.1793   -0.0074 C   0  0  0  0  0  0  0  0  0  0  0  0
   62.3695   -1.4053   -0.0112 N   0  0  0  0  0  0  0  0  0  0  0  0
   59.4995   -1.4263    0.0540 N   0  0  0  0  0  0  0  0  0  0  0  0
   60.8869    4.9713   -0.0269 C   0  0  0  0  0  0  0  0  0  0  0  0
   61.3848    5.6798   -1.1206 C   0  0  0  0  0  0  0  0  0  0  0  0
   61.3682    7.0666   -1.1234 C   0  0  0  0  0  0  0  0  0  0  0  0
   60.8607    7.7610   -0.0339 C   0  0  0  0  0  0  0  0  0  0  0  0
   60.3661    7.0628    1.0594 C   0  0  0  0  0  0  0  0  0  0  0  0
   60.3757    5.6761    1.0634 C   0  0  0  0  0  0  0  0  0  0  0  0
   65.4157    0.0728   -0.0255 H   0  0  0  0  0  0  0  0  0  0  0  0
   65.4439    2.6872   -0.0339 H   0  0  0  0  0  0  0  0  0  0  0  0
   63.5479    4.5923   -0.0176 H   0  0  0  0  0  0  0  0  0  0  0  0
   58.2415    4.5557   -0.0478 H   0  0  0  0  0  0  0  0  0  0  0  0
   56.3702    2.6298    0.0097 H   0  0  0  0  0  0  0  0  0  0  0  0
   56.4123   -2.6287    0.0023 H   0  0  0  0  0  0  0  0  0  0  0  0
   58.3137   -4.5251   -0.0255 H   0  0  0  0  0  0  0  0  0  0  0  0
   61.9193   -5.0698   -1.8714 H   0  0  0  0  0  0  0  0  0  0  0  0
   61.9414   -7.5384   -1.8516 H   0  0  0  0  0  0  0  0  0  0  0  0
   60.9910   -8.7728    0.0720 H   0  0  0  0  0  0  0  0  0  0  0  0
   60.0261   -7.5249    1.9797 H   0  0  0  0  0  0  0  0  0  0  0  0
   60.0172   -5.0562    1.9665 H   0  0  0  0  0  0  0  0  0  0  0  0
   63.6228   -4.4743    0.1041 H   0  0  0  0  0  0  0  0  0  0  0  0
   65.4865   -2.5390    0.0515 H   0  0  0  0  0  0  0  0  0  0  0  0
   61.7707    5.1385   -1.9773 H   0  0  0  0  0  0  0  0  0  0  0  0
   61.7520    7.6075   -1.9814 H   0  0  0  0  0  0  0  0  0  0  0  0
   60.8497    8.8451   -0.0369 H   0  0  0  0  0  0  0  0  0  0  0  0
   59.9709    7.6006    1.9140 H   0  0  0  0  0  0  0  0  0  0  0  0
   59.9990    5.1316    1.9222 H   0  0  0  0  0  0  0  0  0  0  0  0
   28.5473    0.0366    0.0218 C   0  0  0  0  0  0  0  0  0  0  0  0
   29.7717    0.0470    0.0235 C   0  0  0  0  0  0  0  0  0  0  0  0
   31.1141    0.0537    0.0211 C   0  0  0  0  0  0  0  0  0  0  0  0
   32.3448    0.0573    0.0204 C   0  0  0  0  0  0  0  0  0  0  0  0
   33.6823    0.0570    0.0173 C   0  0  0  0  0  0  0  0  0  0  0  0
   34.9130    0.0512    0.0120 C   0  0  0  0  0  0  0  0  0  0  0  0
   36.2551    0.0487    0.0060 C   0  0  0  0  0  0  0  0  0  0  0  0
   37.4798    0.0411   -0.0003 C   0  0  0  0  0  0  0  0  0  0  0  0
   47.1573    0.0164    0.0403 C   0  0  0  0  0  0  0  0  0  0  0  0
   48.3820    0.0129    0.0533 C   0  0  0  0  0  0  0  0  0  0  0  0
   49.7242    0.0089    0.0635 C   0  0  0  0  0  0  0  0  0  0  0  0
   50.9549    0.0077    0.0696 C   0  0  0  0  0  0  0  0  0  0  0  0
   52.2925    0.0009    0.0737 C   0  0  0  0  0  0  0  0  0  0  0  0
   53.5232   -0.0041    0.0716 C   0  0  0  0  0  0  0  0  0  0  0  0
   54.8657   -0.0014    0.0700 C   0  0  0  0  0  0  0  0  0  0  0  0
   56.0901    0.0007    0.0598 C   0  0  0  0  0  0  0  0  0  0  0  0
   42.3185    0.0288    0.0059 Cu  0  0  0  0  0  0  0  0  0  0  0  0
   38.8841    0.0368   -0.0036 C   0  0  0  0  0  0  0  0  0  0  0  0
   39.5288   -1.2136   -0.0026 C   0  0  0  0  0  0  0  0  0  0  0  0
   38.8475   -2.4723    0.0401 C   0  0  0  0  0  0  0  0  0  0  0  0
   39.8012   -3.4381    0.0215 C   0  0  0  0  0  0  0  0  0  0  0  0
   41.0716   -2.7735   -0.0402 C   0  0  0  0  0  0  0  0  0  0  0  0
   40.8725   -1.4184   -0.0480 N   0  0  0  0  0  0  0  0  0  0  0  0
   42.3103   -3.4170   -0.0658 C   0  0  0  0  0  0  0  0  0  0  0  0
   43.5516   -2.7780   -0.0657 C   0  0  0  0  0  0  0  0  0  0  0  0
   44.8189   -3.4455   -0.1536 C   0  0  0  0  0  0  0  0  0  0  0  0
   45.7773   -2.4845   -0.1279 C   0  0  0  0  0  0  0  0  0  0  0  0
   43.7571   -1.4254   -0.0003 N   0  0  0  0  0  0  0  0  0  0  0  0
   45.1020   -1.2254   -0.0325 C   0  0  0  0  0  0  0  0  0  0  0  0
   45.7531    0.0203    0.0270 C   0  0  0  0  0  0  0  0  0  0  0  0
   45.1078    1.2695    0.0766 C   0  0  0  0  0  0  0  0  0  0  0  0
   45.7883    2.5249    0.1828 C   0  0  0  0  0  0  0  0  0  0  0  0
   44.8347    3.4909    0.1972 C   0  0  0  0  0  0  0  0  0  0  0  0
   43.5651    2.8302    0.0917 C   0  0  0  0  0  0  0  0  0  0  0  0
   42.3267    3.4747    0.0785 C   0  0  0  0  0  0  0  0  0  0  0  0
   42.3290    4.9592    0.1147 C   0  0  0  0  0  0  0  0  0  0  0  0
   41.7543    5.6397    1.1889 C   0  0  0  0  0  0  0  0  0  0  0  0
   41.7592    7.0260    1.2239 C   0  0  0  0  0  0  0  0  0  0  0  0
   42.3316    7.7485    0.1858 C   0  0  0  0  0  0  0  0  0  0  0  0
   42.9026    7.0786   -0.8877 C   0  0  0  0  0  0  0  0  0  0  0  0
   42.9050    5.6922   -0.9234 C   0  0  0  0  0  0  0  0  0  0  0  0
   41.0856    2.8365    0.0376 C   0  0  0  0  0  0  0  0  0  0  0  0
   39.8189    3.5069   -0.0373 C   0  0  0  0  0  0  0  0  0  0  0  0
   38.8607    2.5456   -0.0588 C   0  0  0  0  0  0  0  0  0  0  0  0
   39.5355    1.2838   -0.0063 C   0  0  0  0  0  0  0  0  0  0  0  0
   40.8799    1.4823    0.0468 N   0  0  0  0  0  0  0  0  0  0  0  0
   43.7646    1.4766    0.0265 N   0  0  0  0  0  0  0  0  0  0  0  0
   42.3082   -4.9019   -0.0912 C   0  0  0  0  0  0  0  0  0  0  0  0
   41.7547   -5.5910   -1.1707 C   0  0  0  0  0  0  0  0  0  0  0  0
   41.7581   -6.9778   -1.1926 C   0  0  0  0  0  0  0  0  0  0  0  0
   42.3069   -7.6915   -0.1360 C   0  0  0  0  0  0  0  0  0  0  0  0
   42.8562   -7.0127    0.9433 C   0  0  0  0  0  0  0  0  0  0  0  0
   42.8607   -5.6261    0.9658 C   0  0  0  0  0  0  0  0  0  0  0  0
   37.7768   -2.5918    0.0860 H   0  0  0  0  0  0  0  0  0  0  0  0
   39.6613   -4.5064    0.0592 H   0  0  0  0  0  0  0  0  0  0  0  0
   44.9537   -4.5117   -0.2378 H   0  0  0  0  0  0  0  0  0  0  0  0
   46.8475   -2.6071   -0.1769 H   0  0  0  0  0  0  0  0  0  0  0  0
   46.8584    2.6419    0.2459 H   0  0  0  0  0  0  0  0  0  0  0  0
   44.9741    4.5562    0.2851 H   0  0  0  0  0  0  0  0  0  0  0  0
   41.3168    5.0764    2.0056 H   0  0  0  0  0  0  0  0  0  0  0  0
   41.3146    7.5444    2.0662 H   0  0  0  0  0  0  0  0  0  0  0  0
   42.3325    8.8323    0.2134 H   0  0  0  0  0  0  0  0  0  0  0  0
   43.3481    7.6385   -1.7026 H   0  0  0  0  0  0  0  0  0  0  0  0
   43.3414    5.1705   -1.7680 H   0  0  0  0  0  0  0  0  0  0  0  0
   39.6843    4.5755   -0.0818 H   0  0  0  0  0  0  0  0  0  0  0  0
   37.7910    2.6702   -0.1138 H   0  0  0  0  0  0  0  0  0  0  0  0
   41.3351   -5.0347   -2.0015 H   0  0  0  0  0  0  0  0  0  0  0  0
   41.3307   -7.5034   -2.0393 H   0  0  0  0  0  0  0  0  0  0  0  0
   42.3067   -8.7755   -0.1535 H   0  0  0  0  0  0  0  0  0  0  0  0
   43.2832   -7.5656    1.7726 H   0  0  0  0  0  0  0  0  0  0  0  0
   43.2808   -5.0969    1.8139 H   0  0  0  0  0  0  0  0  0  0  0  0
  2  3  4  0  0  0  0
  3  4  1  0  0  0  0
  4  5  2  0  0  0  0
  5  6  4  0  0  0  0
  1  7  1  0  0  0  0
  3  7  4  0  0  0  0
  6  7  4  0  0  0  0
  6  8  4  0  0  0  0
  8  9  4  0  0  0  0
  9 10  4  0  0  0  0
 10 11  2  0  0  0  0
  1 12  1  0  0  0  0
  9 12  4  0  0  0  0
 11 13  4  0  0  0  0
 12 13  4  0  0  0  0
 13 14  4  0  0  0  0
 14 15  4  0  0  0  0
 15 16  4  0  0  0  0
 16 17  2  0  0  0  0
 17 18  4  0  0  0  0
 18 19  4  0  0  0  0
 19 20  1  0  0  0  0
 20 21  4  0  0  0  0
 21 22  4  0  0  0  0
 22 23  4  0  0  0  0
 23 24  4  0  0  0  0
 20 25  4  0  0  0  0
 24 25  4  0  0  0  0
 19 26  4  0  0  0  0
 26 27  4  0  0  0  0
 27 28  2  0  0  0  0
  2 29  4  0  0  0  0
 28 29  1  0  0  0  0
  1 30  1  0  0  0  0
 26 30  4  0  0  0  0
 29 30  4  0  0  0  0
  1 31  1  0  0  0  0
 15 31  4  0  0  0  0
 18 31  4  0  0  0  0
  8 32  1  0  0  0  0
 32 33  4  0  0  0  0
 33 34  4  0  0  0  0
 34 35  4  0  0  0  0
 35 36  4  0  0  0  0
 32 37  4  0  0  0  0
 36 37  4  0  0  0  0
  2 38  1  0  0  0  0
  4 39  1  0  0  0  0
  5 40  1  0  0  0  0
 10 41  1  0  0  0  0
 11 42  1  0  0  0  0
 16 43  1  0  0  0  0
 17 44  1  0  0  0  0
 21 45  1  0  0  0  0
 22 46  1  0  0  0  0
 23 47  1  0  0  0  0
 24 48  1  0  0  0  0
 25 49  1  0  0  0  0
 27 50  1  0  0  0  0
 28 51  1  0  0  0  0
 33 52  1  0  0  0  0
 34 53  1  0  0  0  0
 35 54  1  0  0  0  0
 36 55  1  0  0  0  0
 37 56  1  0  0  0  0
 58 59  4  0  0  0  0
 59 60  1  0  0  0  0
 60 61  2  0  0  0  0
 61 62  4  0  0  0  0
 57 63  1  0  0  0  0
 59 63  4  0  0  0  0
 62 63  4  0  0  0  0
 62 64  4  0  0  0  0
 64 65  4  0  0  0  0
 65 66  4  0  0  0  0
 66 67  2  0  0  0  0
 57 68  1  0  0  0  0
 65 68  4  0  0  0  0
 67 69  4  0  0  0  0
 68 69  4  0  0  0  0
 69 70  4  0  0  0  0
 70 71  4  0  0  0  0
 71 72  4  0  0  0  0
 72 73  2  0  0  0  0
 73 74  4  0  0  0  0
 74 75  4  0  0  0  0
 75 76  1  0  0  0  0
 76 77  4  0  0  0  0
 77 78  4  0  0  0  0
 78 79  4  0  0  0  0
 79 80  4  0  0  0  0
 76 81  4  0  0  0  0
 80 81  4  0  0  0  0
 75 82  4  0  0  0  0
 82 83  4  0  0  0  0
 83 84  2  0  0  0  0
 58 85  4  0  0  0  0
 84 85  1  0  0  0  0
 57 86  1  0  0  0  0
 82 86  4  0  0  0  0
 85 86  4  0  0  0  0
 57 87  1  0  0  0  0
 71 87  4  0  0  0  0
 74 87  4  0  0  0  0
 64 88  1  0  0  0  0
 88 89  4  0  0  0  0
 89 90  4  0  0  0  0
 90 91  4  0  0  0  0
 91 92  4  0  0  0  0
 88 93  4  0  0  0  0
 92 93  4  0  0  0  0
 58 94  1  0  0  0  0
 60 95  1  0  0  0  0
 61 96  1  0  0  0  0
 66 97  1  0  0  0  0
 67 98  1  0  0  0  0
 72 99  1  0  0  0  0
 73100  1  0  0  0  0
 77101  1  0  0  0  0
 78102  1  0  0  0  0
 79103  1  0  0  0  0
 80104  1  0  0  0  0
 81105  1  0  0  0  0
 83106  1  0  0  0  0
 84107  1  0  0  0  0
 89108  1  0  0  0  0
 90109  1  0  0  0  0
 91110  1  0  0  0  0
 92111  1  0  0  0  0
 93112  1  0  0  0  0
 14113  4  0  0  0  0
113114  3  0  0  0  0
114115  4  0  0  0  0
115116  3  0  0  0  0
116117  4  0  0  0  0
117118  3  0  0  0  0
118119  4  0  0  0  0
119120  3  0  0  0  0
121122  3  0  0  0  0
122123  4  0  0  0  0
123124  3  0  0  0  0
124125  4  0  0  0  0
125126  3  0  0  0  0
126127  4  0  0  0  0
 70128  4  0  0  0  0
127128  3  0  0  0  0
120130  4  0  0  0  0
130131  4  0  0  0  0
131132  4  0  0  0  0
132133  2  0  0  0  0
133134  4  0  0  0  0
129135  1  0  0  0  0
131135  4  0  0  0  0
134135  4  0  0  0  0
134136  4  0  0  0  0
136137  4  0  0  0  0
137138  4  0  0  0  0
138139  2  0  0  0  0
129140  1  0  0  0  0
137140  4  0  0  0  0
139141  4  0  0  0  0
140141  4  0  0  0  0
121142  4  0  0  0  0
141142  4  0  0  0  0
142143  4  0  0  0  0
143144  4  0  0  0  0
144145  2  0  0  0  0
145146  4  0  0  0  0
146147  4  0  0  0  0
147148  1  0  0  0  0
148149  4  0  0  0  0
149150  4  0  0  0  0
150151  4  0  0  0  0
151152  4  0  0  0  0
148153  4  0  0  0  0
152153  4  0  0  0  0
147154  4  0  0  0  0
154155  4  0  0  0  0
155156  2  0  0  0  0
130157  4  0  0  0  0
156157  4  0  0  0  0
129158  1  0  0  0  0
154158  4  0  0  0  0
157158  4  0  0  0  0
129159  1  0  0  0  0
143159  4  0  0  0  0
146159  4  0  0  0  0
136160  1  0  0  0  0
160161  4  0  0  0  0
161162  4  0  0  0  0
162163  4  0  0  0  0
163164  4  0  0  0  0
160165  4  0  0  0  0
164165  4  0  0  0  0
132166  1  0  0  0  0
133167  1  0  0  0  0
138168  1  0  0  0  0
139169  1  0  0  0  0
144170  1  0  0  0  0
145171  1  0  0  0  0
149172  1  0  0  0  0
150173  1  0  0  0  0
151174  1  0  0  0  0
152175  1  0  0  0  0
153176  1  0  0  0  0
155177  1  0  0  0  0
156178  1  0  0  0  0
161179  1  0  0  0  0
162180  1  0  0  0  0
163181  1  0  0  0  0
164182  1  0  0  0  0
165183  1  0  0  0  0
M  END
