 xtb: 6.5.1 (b24c23e)
          07292220403D

185214  0     0  0            999 V2000
   28.6068   -0.0358   -0.1065 Fe  0  0  0  0  0  0  0  0  0  0  0  0
   25.2358   -0.0676   -0.4210 C   0  0  0  0  0  0  0  0  0  0  0  0
   25.8709   -1.2707   -0.1898 C   0  0  0  0  0  0  0  0  0  0  0  0
   25.1810   -2.5139   -0.0239 C   0  0  0  0  0  0  0  0  0  0  0  0
   26.1301   -3.4636    0.1522 C   0  0  0  0  0  0  0  0  0  0  0  0
   27.4002   -2.8028    0.0619 C   0  0  0  0  0  0  0  0  0  0  0  0
   27.2255   -1.4548   -0.1014 N   0  0  0  0  0  0  0  0  0  0  0  0
   28.6247   -3.4631    0.0609 C   0  0  0  0  0  0  0  0  0  0  0  0
   28.6392   -4.9417    0.1530 C   0  0  0  0  0  0  0  0  0  0  0  0
   28.0096   -5.7227   -0.8168 C   0  0  0  0  0  0  0  0  0  0  0  0
   28.0262   -7.1062   -0.7321 C   0  0  0  0  0  0  0  0  0  0  0  0
   28.6708   -7.7257    0.3362 C   0  0  0  0  0  0  0  0  0  0  0  0
   28.7066   -9.0772    0.4607 O   0  0  0  0  0  0  0  0  0  0  0  0
   29.3029   -6.9570    1.3121 C   0  0  0  0  0  0  0  0  0  0  0  0
   29.2891   -5.5772    1.2141 C   0  0  0  0  0  0  0  0  0  0  0  0
   29.8363   -2.7949   -0.0566 C   0  0  0  0  0  0  0  0  0  0  0  0
   31.1012   -3.4526   -0.1981 C   0  0  0  0  0  0  0  0  0  0  0  0
   32.0437   -2.4807   -0.2544 C   0  0  0  0  0  0  0  0  0  0  0  0
   30.0069   -1.4316   -0.0531 N   0  0  0  0  0  0  0  0  0  0  0  0
   31.3535   -1.2344   -0.1395 C   0  0  0  0  0  0  0  0  0  0  0  0
   32.0091   -0.0029   -0.0190 C   0  0  0  0  0  0  0  0  0  0  0  0
   31.3268    1.2094    0.1453 C   0  0  0  0  0  0  0  0  0  0  0  0
   31.9905    2.4599    0.3418 C   0  0  0  0  0  0  0  0  0  0  0  0
   31.0255    3.4100    0.3769 C   0  0  0  0  0  0  0  0  0  0  0  0
   29.7739    2.7364    0.1940 C   0  0  0  0  0  0  0  0  0  0  0  0
   29.9763    1.3808    0.0803 N   0  0  0  0  0  0  0  0  0  0  0  0
   28.5638    3.3923    0.0178 C   0  0  0  0  0  0  0  0  0  0  0  0
   28.5451    4.8742    0.0794 C   0  0  0  0  0  0  0  0  0  0  0  0
   28.8454    5.5400    1.2697 C   0  0  0  0  0  0  0  0  0  0  0  0
   28.8254    6.9223    1.3314 C   0  0  0  0  0  0  0  0  0  0  0  0
   28.5105    7.6609    0.1922 C   0  0  0  0  0  0  0  0  0  0  0  0
   28.5030    9.0155    0.2867 O   0  0  0  0  0  0  0  0  0  0  0  0
   28.2153    7.0098   -1.0033 C   0  0  0  0  0  0  0  0  0  0  0  0
   28.2304    5.6245   -1.0537 C   0  0  0  0  0  0  0  0  0  0  0  0
   27.3737    2.7216   -0.2475 C   0  0  0  0  0  0  0  0  0  0  0  0
   26.1162    3.3747   -0.4711 C   0  0  0  0  0  0  0  0  0  0  0  0
   25.1894    2.3998   -0.6251 C   0  0  0  0  0  0  0  0  0  0  0  0
   25.8765    1.1532   -0.4710 C   0  0  0  0  0  0  0  0  0  0  0  0
   27.2146    1.3626   -0.2613 N   0  0  0  0  0  0  0  0  0  0  0  0
   24.1575   -0.0781   -0.5351 H   0  0  0  0  0  0  0  0  0  0  0  0
   24.1082   -2.6245   -0.0325 H   0  0  0  0  0  0  0  0  0  0  0  0
   25.9935   -4.5183    0.3283 H   0  0  0  0  0  0  0  0  0  0  0  0
   27.5199   -5.2425   -1.6566 H   0  0  0  0  0  0  0  0  0  0  0  0
   27.5418   -7.7086   -1.4931 H   0  0  0  0  0  0  0  0  0  0  0  0
   28.2380   -9.5105   -0.2653 H   0  0  0  0  0  0  0  0  0  0  0  0
   29.7980   -7.4522    2.1382 H   0  0  0  0  0  0  0  0  0  0  0  0
   29.7718   -4.9786    1.9785 H   0  0  0  0  0  0  0  0  0  0  0  0
   31.2387   -4.5198   -0.2604 H   0  0  0  0  0  0  0  0  0  0  0  0
   33.1122   -2.5834   -0.3558 H   0  0  0  0  0  0  0  0  0  0  0  0
   33.0581    2.5802    0.4324 H   0  0  0  0  0  0  0  0  0  0  0  0
   31.1427    4.4752    0.4918 H   0  0  0  0  0  0  0  0  0  0  0  0
   29.0805    4.9649    2.1582 H   0  0  0  0  0  0  0  0  0  0  0  0
   29.0506    7.4421    2.2544 H   0  0  0  0  0  0  0  0  0  0  0  0
   28.2699    9.4259   -0.5569 H   0  0  0  0  0  0  0  0  0  0  0  0
   27.9763    7.5887   -1.8890 H   0  0  0  0  0  0  0  0  0  0  0  0
   28.0133    5.1187   -1.9879 H   0  0  0  0  0  0  0  0  0  0  0  0
   25.9699    4.4423   -0.4936 H   0  0  0  0  0  0  0  0  0  0  0  0
   24.1305    2.4968   -0.8053 H   0  0  0  0  0  0  0  0  0  0  0  0
   60.5651    0.0036   -0.0938 Fe  0  0  0  0  0  0  0  0  0  0  0  0
   63.9457    0.0087   -0.3221 C   0  0  0  0  0  0  0  0  0  0  0  0
   63.2884    1.2124   -0.4713 C   0  0  0  0  0  0  0  0  0  0  0  0
   63.9620    2.4569   -0.6879 C   0  0  0  0  0  0  0  0  0  0  0  0
   63.0152    3.4233   -0.6387 C   0  0  0  0  0  0  0  0  0  0  0  0
   61.7603    2.7651   -0.4155 C   0  0  0  0  0  0  0  0  0  0  0  0
   61.9404    1.4117   -0.3248 N   0  0  0  0  0  0  0  0  0  0  0  0
   60.5510    3.4326   -0.2444 C   0  0  0  0  0  0  0  0  0  0  0  0
   60.5471    4.9151   -0.2815 C   0  0  0  0  0  0  0  0  0  0  0  0
   60.9048    5.6002   -1.4428 C   0  0  0  0  0  0  0  0  0  0  0  0
   60.9021    6.9862   -1.4755 C   0  0  0  0  0  0  0  0  0  0  0  0
   60.5452    7.7040   -0.3364 C   0  0  0  0  0  0  0  0  0  0  0  0
   60.5342    9.0617   -0.3231 O   0  0  0  0  0  0  0  0  0  0  0  0
   60.1861    7.0310    0.8301 C   0  0  0  0  0  0  0  0  0  0  0  0
   60.1847    5.6477    0.8512 C   0  0  0  0  0  0  0  0  0  0  0  0
   59.3458    2.7716   -0.0545 C   0  0  0  0  0  0  0  0  0  0  0  0
   58.0802    3.4369    0.0409 C   0  0  0  0  0  0  0  0  0  0  0  0
   57.1317    2.4706    0.0814 C   0  0  0  0  0  0  0  0  0  0  0  0
   59.1674    1.4078   -0.0511 N   0  0  0  0  0  0  0  0  0  0  0  0
   57.8193    1.2195    0.0134 C   0  0  0  0  0  0  0  0  0  0  0  0
   57.1579   -0.0147   -0.0349 C   0  0  0  0  0  0  0  0  0  0  0  0
   57.8346   -1.2411   -0.0539 C   0  0  0  0  0  0  0  0  0  0  0  0
   57.1638   -2.5028   -0.0819 C   0  0  0  0  0  0  0  0  0  0  0  0
   58.1222   -3.4538    0.0322 C   0  0  0  0  0  0  0  0  0  0  0  0
   59.3764   -2.7679    0.1280 C   0  0  0  0  0  0  0  0  0  0  0  0
   59.1839   -1.4098    0.0412 N   0  0  0  0  0  0  0  0  0  0  0  0
   60.5974   -3.4076    0.2939 C   0  0  0  0  0  0  0  0  0  0  0  0
   60.6058   -4.8776    0.4764 C   0  0  0  0  0  0  0  0  0  0  0  0
   59.9493   -5.4593    1.5641 C   0  0  0  0  0  0  0  0  0  0  0  0
   59.9545   -6.8309    1.7439 C   0  0  0  0  0  0  0  0  0  0  0  0
   60.6135   -7.6460    0.8251 C   0  0  0  0  0  0  0  0  0  0  0  0
   60.5953   -8.9881    1.0290 O   0  0  0  0  0  0  0  0  0  0  0  0
   61.2668   -7.0807   -0.2677 C   0  0  0  0  0  0  0  0  0  0  0  0
   61.2635   -5.7048   -0.4348 C   0  0  0  0  0  0  0  0  0  0  0  0
   61.8117   -2.7284    0.2696 C   0  0  0  0  0  0  0  0  0  0  0  0
   63.0892   -3.3620    0.4265 C   0  0  0  0  0  0  0  0  0  0  0  0
   64.0275   -2.4082    0.2180 C   0  0  0  0  0  0  0  0  0  0  0  0
   63.3225   -1.1889   -0.0370 C   0  0  0  0  0  0  0  0  0  0  0  0
   61.9690   -1.3902    0.0289 N   0  0  0  0  0  0  0  0  0  0  0  0
   65.0270    0.0097   -0.4026 H   0  0  0  0  0  0  0  0  0  0  0  0
   65.0255    2.5598   -0.8350 H   0  0  0  0  0  0  0  0  0  0  0  0
   63.1462    4.4891   -0.7320 H   0  0  0  0  0  0  0  0  0  0  0  0
   61.1699    5.0427   -2.3342 H   0  0  0  0  0  0  0  0  0  0  0  0
   61.1752    7.5143   -2.3829 H   0  0  0  0  0  0  0  0  0  0  0  0
   60.8005    9.4248   -1.1785 H   0  0  0  0  0  0  0  0  0  0  0  0
   59.9129    7.6020    1.7088 H   0  0  0  0  0  0  0  0  0  0  0  0
   59.9164    5.1234    1.7616 H   0  0  0  0  0  0  0  0  0  0  0  0
   57.9432    4.5058    0.0515 H   0  0  0  0  0  0  0  0  0  0  0  0
   56.0610    2.5797    0.1437 H   0  0  0  0  0  0  0  0  0  0  0  0
   56.0971   -2.6290   -0.1735 H   0  0  0  0  0  0  0  0  0  0  0  0
   58.0013   -4.5247    0.0383 H   0  0  0  0  0  0  0  0  0  0  0  0
   59.4461   -4.8242    2.2845 H   0  0  0  0  0  0  0  0  0  0  0  0
   59.4534   -7.2839    2.5903 H   0  0  0  0  0  0  0  0  0  0  0  0
   61.0806   -9.4565    0.3365 H   0  0  0  0  0  0  0  0  0  0  0  0
   61.7731   -7.7194   -0.9835 H   0  0  0  0  0  0  0  0  0  0  0  0
   61.7597   -5.2675   -1.2941 H   0  0  0  0  0  0  0  0  0  0  0  0
   63.2378   -4.4019    0.6679 H   0  0  0  0  0  0  0  0  0  0  0  0
   65.1018   -2.5008    0.2414 H   0  0  0  0  0  0  0  0  0  0  0  0
   37.2069    0.0514   -0.0924 C   0  0  0  0  0  0  0  0  0  0  0  0
   35.9766    0.0436   -0.0737 C   0  0  0  0  0  0  0  0  0  0  0  0
   34.6354    0.0296   -0.0543 C   0  0  0  0  0  0  0  0  0  0  0  0
   33.4098    0.0142   -0.0358 C   0  0  0  0  0  0  0  0  0  0  0  0
   38.5480    0.0584   -0.0995 C   0  0  0  0  0  0  0  0  0  0  0  0
   39.7741    0.0547   -0.1115 C   0  0  0  0  0  0  0  0  0  0  0  0
   53.1911   -0.0497   -0.0308 C   0  0  0  0  0  0  0  0  0  0  0  0
   51.9601   -0.0572   -0.0219 C   0  0  0  0  0  0  0  0  0  0  0  0
   50.6197   -0.0599   -0.0170 C   0  0  0  0  0  0  0  0  0  0  0  0
   49.3932   -0.0607   -0.0141 C   0  0  0  0  0  0  0  0  0  0  0  0
   54.5317   -0.0383   -0.0362 C   0  0  0  0  0  0  0  0  0  0  0  0
   55.7579   -0.0247   -0.0398 C   0  0  0  0  0  0  0  0  0  0  0  0
   44.5844    0.0064   -0.0719 Fe  0  0  0  0  0  0  0  0  0  0  0  0
   41.1736    0.0479   -0.1089 C   0  0  0  0  0  0  0  0  0  0  0  0
   41.8497    1.0251    0.6341 C   0  0  0  0  0  0  0  0  0  0  0  0
   41.1866    2.0133    1.4241 C   0  0  0  0  0  0  0  0  0  0  0  0
   42.1485    2.8522    1.8823 C   0  0  0  0  0  0  0  0  0  0  0  0
   43.3938    2.3769    1.3592 C   0  0  0  0  0  0  0  0  0  0  0  0
   43.1977    1.2272    0.6344 N   0  0  0  0  0  0  0  0  0  0  0  0
   44.6069    3.0407    1.5054 C   0  0  0  0  0  0  0  0  0  0  0  0
   44.6178    4.3521    2.1924 C   0  0  0  0  0  0  0  0  0  0  0  0
   45.3772    4.5410    3.3502 C   0  0  0  0  0  0  0  0  0  0  0  0
   45.3856    5.7619    4.0001 C   0  0  0  0  0  0  0  0  0  0  0  0
   44.6382    6.8223    3.4898 C   0  0  0  0  0  0  0  0  0  0  0  0
   44.6744    8.0077    4.1489 O   0  0  0  0  0  0  0  0  0  0  0  0
   43.8810    6.6503    2.3330 C   0  0  0  0  0  0  0  0  0  0  0  0
   43.8691    5.4199    1.6953 C   0  0  0  0  0  0  0  0  0  0  0  0
   45.8103    2.5267    1.0358 C   0  0  0  0  0  0  0  0  0  0  0  0
   47.0640    3.2141    1.1138 C   0  0  0  0  0  0  0  0  0  0  0  0
   48.0128    2.3465    0.6829 C   0  0  0  0  0  0  0  0  0  0  0  0
   45.9884    1.2709    0.5090 N   0  0  0  0  0  0  0  0  0  0  0  0
   47.3336    1.1387    0.3353 C   0  0  0  0  0  0  0  0  0  0  0  0
   47.9946   -0.0452   -0.0215 C   0  0  0  0  0  0  0  0  0  0  0  0
   47.3085   -1.2102   -0.3928 C   0  0  0  0  0  0  0  0  0  0  0  0
   47.9591   -2.4405   -0.7144 C   0  0  0  0  0  0  0  0  0  0  0  0
   46.9980   -3.2766   -1.1796 C   0  0  0  0  0  0  0  0  0  0  0  0
   45.7664   -2.5468   -1.1497 C   0  0  0  0  0  0  0  0  0  0  0  0
   45.9665   -1.2985   -0.6135 N   0  0  0  0  0  0  0  0  0  0  0  0
   44.5660   -3.0156   -1.6726 C   0  0  0  0  0  0  0  0  0  0  0  0
   44.5620   -4.3175   -2.3766 C   0  0  0  0  0  0  0  0  0  0  0  0
   43.7445   -5.3609   -1.9394 C   0  0  0  0  0  0  0  0  0  0  0  0
   43.7412   -6.5810   -2.5965 C   0  0  0  0  0  0  0  0  0  0  0  0
   44.5543   -6.7679   -3.7124 C   0  0  0  0  0  0  0  0  0  0  0  0
   44.5780   -7.9439   -4.3889 O   0  0  0  0  0  0  0  0  0  0  0  0
   45.3726   -5.7327   -4.1619 C   0  0  0  0  0  0  0  0  0  0  0  0
   45.3771   -4.5219   -3.4935 C   0  0  0  0  0  0  0  0  0  0  0  0
   43.3702   -2.3142   -1.5615 C   0  0  0  0  0  0  0  0  0  0  0  0
   42.1271   -2.7464   -2.1257 C   0  0  0  0  0  0  0  0  0  0  0  0
   41.1748   -1.8941   -1.6719 C   0  0  0  0  0  0  0  0  0  0  0  0
   41.8429   -0.9364   -0.8494 C   0  0  0  0  0  0  0  0  0  0  0  0
   43.1853   -1.1703   -0.8240 N   0  0  0  0  0  0  0  0  0  0  0  0
   40.1229    2.0502    1.5961 H   0  0  0  0  0  0  0  0  0  0  0  0
   42.0333    3.7128    2.5209 H   0  0  0  0  0  0  0  0  0  0  0  0
   45.9487    3.7128    3.7540 H   0  0  0  0  0  0  0  0  0  0  0  0
   45.9648    5.9083    4.9034 H   0  0  0  0  0  0  0  0  0  0  0  0
   44.1227    8.6716    3.7137 H   0  0  0  0  0  0  0  0  0  0  0  0
   43.3055    7.4797    1.9362 H   0  0  0  0  0  0  0  0  0  0  0  0
   43.2894    5.2907    0.7882 H   0  0  0  0  0  0  0  0  0  0  0  0
   47.1928    4.2297    1.4510 H   0  0  0  0  0  0  0  0  0  0  0  0
   49.0777    2.4962    0.6065 H   0  0  0  0  0  0  0  0  0  0  0  0
   49.0146   -2.6260   -0.5967 H   0  0  0  0  0  0  0  0  0  0  0  0
   47.1049   -4.2972   -1.5091 H   0  0  0  0  0  0  0  0  0  0  0  0
   43.1216   -5.2219   -1.0628 H   0  0  0  0  0  0  0  0  0  0  0  0
   43.1104   -7.3911   -2.2467 H   0  0  0  0  0  0  0  0  0  0  0  0
   43.9747   -8.5895   -3.9969 H   0  0  0  0  0  0  0  0  0  0  0  0
   45.9960   -5.8904   -5.0333 H   0  0  0  0  0  0  0  0  0  0  0  0
   46.0036   -3.7127   -3.8515 H   0  0  0  0  0  0  0  0  0  0  0  0
   42.0061   -3.5897   -2.7858 H   0  0  0  0  0  0  0  0  0  0  0  0
   40.1151   -1.9006   -1.8700 H   0  0  0  0  0  0  0  0  0  0  0  0
  2  3  4  0  0  0  0
  3  4  4  0  0  0  0
  4  5  2  0  0  0  0
  5  6  4  0  0  0  0
  1  7  1  0  0  0  0
  3  7  4  0  0  0  0
  6  7  4  0  0  0  0
  6  8  4  0  0  0  0
  8  9  1  0  0  0  0
  9 10  4  0  0  0  0
 10 11  4  0  0  0  0
 11 12  4  0  0  0  0
 12 13  1  0  0  0  0
 12 14  4  0  0  0  0
  9 15  4  0  0  0  0
 14 15  4  0  0  0  0
  8 16  4  0  0  0  0
 16 17  4  0  0  0  0
 17 18  2  0  0  0  0
  1 19  1  0  0  0  0
 16 19  4  0  0  0  0
 18 20  4  0  0  0  0
 19 20  4  0  0  0  0
 20 21  4  0  0  0  0
 21 22  4  0  0  0  0
 22 23  4  0  0  0  0
 23 24  2  0  0  0  0
 24 25  4  0  0  0  0
  1 26  1  0  0  0  0
 22 26  4  0  0  0  0
 25 26  4  0  0  0  0
 25 27  4  0  0  0  0
 27 28  1  0  0  0  0
 28 29  4  0  0  0  0
 29 30  4  0  0  0  0
 30 31  4  0  0  0  0
 31 32  1  0  0  0  0
 31 33  4  0  0  0  0
 28 34  4  0  0  0  0
 33 34  4  0  0  0  0
 27 35  4  0  0  0  0
 35 36  4  0  0  0  0
 36 37  2  0  0  0  0
  2 38  4  0  0  0  0
 37 38  4  0  0  0  0
  1 39  1  0  0  0  0
 35 39  4  0  0  0  0
 38 39  4  0  0  0  0
  2 40  1  0  0  0  0
  4 41  1  0  0  0  0
  5 42  1  0  0  0  0
 10 43  1  0  0  0  0
 11 44  1  0  0  0  0
 13 45  1  0  0  0  0
 14 46  1  0  0  0  0
 15 47  1  0  0  0  0
 17 48  1  0  0  0  0
 18 49  1  0  0  0  0
 23 50  1  0  0  0  0
 24 51  1  0  0  0  0
 29 52  1  0  0  0  0
 30 53  1  0  0  0  0
 32 54  1  0  0  0  0
 33 55  1  0  0  0  0
 34 56  1  0  0  0  0
 36 57  1  0  0  0  0
 37 58  1  0  0  0  0
 60 61  4  0  0  0  0
 61 62  4  0  0  0  0
 62 63  2  0  0  0  0
 63 64  4  0  0  0  0
 59 65  1  0  0  0  0
 61 65  4  0  0  0  0
 64 65  4  0  0  0  0
 64 66  4  0  0  0  0
 66 67  1  0  0  0  0
 67 68  4  0  0  0  0
 68 69  4  0  0  0  0
 69 70  4  0  0  0  0
 70 71  1  0  0  0  0
 70 72  4  0  0  0  0
 67 73  4  0  0  0  0
 72 73  4  0  0  0  0
 66 74  4  0  0  0  0
 74 75  4  0  0  0  0
 75 76  2  0  0  0  0
 59 77  1  0  0  0  0
 74 77  4  0  0  0  0
 76 78  4  0  0  0  0
 77 78  4  0  0  0  0
 78 79  4  0  0  0  0
 79 80  4  0  0  0  0
 80 81  4  0  0  0  0
 81 82  2  0  0  0  0
 82 83  4  0  0  0  0
 59 84  1  0  0  0  0
 80 84  4  0  0  0  0
 83 84  4  0  0  0  0
 83 85  4  0  0  0  0
 85 86  1  0  0  0  0
 86 87  4  0  0  0  0
 87 88  4  0  0  0  0
 88 89  4  0  0  0  0
 89 90  1  0  0  0  0
 89 91  4  0  0  0  0
 86 92  4  0  0  0  0
 91 92  4  0  0  0  0
 85 93  4  0  0  0  0
 93 94  4  0  0  0  0
 94 95  2  0  0  0  0
 60 96  4  0  0  0  0
 95 96  4  0  0  0  0
 59 97  1  0  0  0  0
 93 97  4  0  0  0  0
 96 97  4  0  0  0  0
 60 98  1  0  0  0  0
 62 99  1  0  0  0  0
 63100  1  0  0  0  0
 68101  1  0  0  0  0
 69102  1  0  0  0  0
 71103  1  0  0  0  0
 72104  1  0  0  0  0
 73105  1  0  0  0  0
 75106  1  0  0  0  0
 76107  1  0  0  0  0
 81108  1  0  0  0  0
 82109  1  0  0  0  0
 87110  1  0  0  0  0
 88111  1  0  0  0  0
 90112  1  0  0  0  0
 91113  1  0  0  0  0
 92114  1  0  0  0  0
 94115  1  0  0  0  0
 95116  1  0  0  0  0
117118  3  0  0  0  0
118119  4  0  0  0  0
 21120  4  0  0  0  0
119120  3  0  0  0  0
117121  4  0  0  0  0
121122  3  0  0  0  0
123124  3  0  0  0  0
124125  4  0  0  0  0
125126  3  0  0  0  0
123127  4  0  0  0  0
 79128  4  0  0  0  0
127128  3  0  0  0  0
122130  4  0  0  0  0
130131  4  0  0  0  0
131132  4  0  0  0  0
132133  2  0  0  0  0
133134  4  0  0  0  0
129135  1  0  0  0  0
131135  4  0  0  0  0
134135  4  0  0  0  0
134136  4  0  0  0  0
136137  1  0  0  0  0
137138  4  0  0  0  0
138139  4  0  0  0  0
139140  4  0  0  0  0
140141  1  0  0  0  0
140142  4  0  0  0  0
137143  4  0  0  0  0
142143  4  0  0  0  0
136144  4  0  0  0  0
144145  4  0  0  0  0
145146  2  0  0  0  0
129147  1  0  0  0  0
144147  4  0  0  0  0
146148  4  0  0  0  0
147148  4  0  0  0  0
126149  4  0  0  0  0
148149  4  0  0  0  0
149150  4  0  0  0  0
150151  4  0  0  0  0
151152  2  0  0  0  0
152153  4  0  0  0  0
129154  1  0  0  0  0
150154  4  0  0  0  0
153154  4  0  0  0  0
153155  4  0  0  0  0
155156  1  0  0  0  0
156157  4  0  0  0  0
157158  4  0  0  0  0
158159  4  0  0  0  0
159160  1  0  0  0  0
159161  4  0  0  0  0
156162  4  0  0  0  0
161162  4  0  0  0  0
155163  4  0  0  0  0
163164  4  0  0  0  0
164165  2  0  0  0  0
130166  4  0  0  0  0
165166  4  0  0  0  0
129167  1  0  0  0  0
163167  4  0  0  0  0
166167  4  0  0  0  0
132168  1  0  0  0  0
133169  1  0  0  0  0
138170  1  0  0  0  0
139171  1  0  0  0  0
141172  1  0  0  0  0
142173  1  0  0  0  0
143174  1  0  0  0  0
145175  1  0  0  0  0
146176  1  0  0  0  0
151177  1  0  0  0  0
152178  1  0  0  0  0
157179  1  0  0  0  0
158180  1  0  0  0  0
160181  1  0  0  0  0
161182  1  0  0  0  0
162183  1  0  0  0  0
164184  1  0  0  0  0
165185  1  0  0  0  0
M  END
