432

C 86.218037 0.016233 0.059761
C 86.942904 1.209561 -0.634617
C 86.328099 2.234916 -1.316342
C 87.349113 3.126865 -1.734725
C 88.553514 2.618270 -1.288620
N 88.297311 1.425507 -0.659610
C 89.980122 3.292683 -1.442980
C 90.025894 4.690486 -1.933479
C 90.291557 4.949941 -3.284762
C 90.327338 6.262496 -3.758243
C 90.093538 7.313775 -2.874214
O 90.121189 8.611108 -3.301691
C 89.825954 7.073612 -1.530630
C 89.792030 5.759515 -1.059396
C 91.109930 2.611856 -1.109627
C 92.418942 3.229071 -1.173817
C 93.321097 2.342316 -0.770546
N 91.303232 1.331045 -0.662597
C 92.637579 1.106811 -0.441518
C 93.305562 0.005769 -0.004823
C 92.525473 -1.340112 0.311304
C 93.062511 -2.612768 0.306490
C 92.037720 -3.511331 0.693620
C 90.900057 -2.764342 0.912825
N 91.193466 -1.450820 0.629876
C 89.491277 -3.320670 1.385026
C 89.457587 -4.634088 2.067079
C 89.836299 -4.745214 3.410513
C 89.816601 -5.988261 4.046876
C 89.419714 -7.116356 3.336831
O 89.410483 -8.316293 3.989970
C 89.042539 -7.025441 1.998757
C 89.064313 -5.781836 1.365258
C 88.367611 -2.591563 1.157937
C 87.047386 -3.032491 1.573005
C 86.162569 -2.114243 1.196360
C 86.883009 -1.051432 0.539190
N 88.202926 -1.378500 0.549187
H 85.141395 0.070948 0.167827
H 85.266403 2.338122 -1.479309
H 87.217025 4.049549 -2.279451
H 89.001335 0.803717 -0.269146
H 90.474112 4.112826 -3.955589
H 90.538243 6.434006 -4.807234
H 90.338667 8.597115 -4.247115
H 89.646034 7.897603 -0.848931
H 89.586594 5.552629 -0.011539
H 92.633861 4.237935 -1.477940
H 94.377254 2.530959 -0.709963
H 94.082369 -2.869604 0.063867
H 92.121431 -4.581910 0.804477
H 90.512836 -0.695671 0.607730
H 90.143602 -3.852770 3.950978
H 90.109224 -6.067453 5.088115
H 89.101227 -8.984528 3.358308
H 88.730558 -7.895070 1.432500
H 88.772146 -5.685909 0.321361
H 86.819318 -3.941583 2.099588
H 85.100638 -2.146622 1.359262
C 178.454790 0.054422 0.038921
C 177.729923 -1.175198 0.666796
C 178.344728 -2.303294 1.160254
C 177.323714 -3.137742 1.684004
C 176.119313 -2.487396 1.497649
N 176.375516 -1.313056 0.834881
C 174.692705 -2.982105 1.981304
C 174.646933 -4.150899 2.891451
C 174.381270 -5.427689 2.378529
C 174.345489 -6.536046 3.226191
C 174.579289 -6.361390 4.588612
O 174.551638 -7.422822 5.448362
C 174.846873 -5.101512 5.113591
C 174.880797 -3.994211 4.263418
C 173.562897 -2.333395 1.589101
C 172.253885 -2.721325 2.073440
C 171.351730 -1.902396 1.545883
N 173.369595 -1.264458 0.753824
C 172.035248 -0.957210 0.684862
C 171.367265 0.005769 -0.004823
C 172.147355 0.999825 -0.965648
C 171.610316 1.684354 -2.038540
C 172.635107 2.496098 -2.584760
C 173.772770 2.276284 -1.837950
N 173.479361 1.327639 -0.886387
C 175.181550 2.974402 -2.050328
C 175.215240 4.258633 -2.785866
C 174.836528 5.448568 -2.152449
C 174.856226 6.656299 -2.853526
C 175.253113 6.669523 -4.186413
O 175.262344 7.868037 -4.842160
C 175.630288 5.495031 -4.833928
C 175.608514 4.289406 -4.130831
C 176.305216 2.388937 -1.560027
C 177.625442 2.976570 -1.706266
C 178.510258 2.162993 -1.137818
C 177.789818 1.035281 -0.599573
N 176.469901 1.220651 -0.869224
H 179.531432 0.115700 0.143405
H 179.406424 -2.496187 1.158875
H 177.455802 -4.095073 2.165241
H 175.671493 -0.648257 0.523227
H 174.198715 -5.538920 1.311572
H 174.134584 -7.511030 2.802866
H 174.334160 -8.210340 4.925067
H 175.026793 -4.974038 6.175394
H 175.086234 -3.001040 4.656379
H 172.038966 -3.522941 2.757333
H 170.295573 -1.953513 1.737308
H 170.590458 1.619273 -2.385808
H 172.551396 3.168570 -3.425123
H 174.159992 0.900436 -0.263299
H 174.529225 5.420230 -1.109494
H 174.563603 7.574815 -2.356757
H 175.571600 7.698370 -5.745901
H 175.942269 5.489334 -5.871651
H 175.900681 3.359602 -4.614965
H 177.853509 3.911289 -2.185890
H 179.572189 2.317510 -1.076909
C 96.986258 0.018500 -0.002298
C 95.733987 -0.000681 -0.006647
C 98.299926 0.017735 -0.000366
C 99.803060 -0.000681 -0.006647
C 110.830628 0.018500 -0.002298
C 109.578357 -0.000681 -0.006647
C 112.144296 0.017735 -0.000366
C 113.647430 -0.000681 -0.006647
C 124.674998 0.018500 -0.002298
C 123.422727 -0.000681 -0.006647
C 125.988666 0.017735 -0.000366
C 127.491800 -0.000681 -0.006647
C 138.519368 0.018500 -0.002298
C 137.267097 -0.000681 -0.006647
C 139.833036 0.017735 -0.000366
C 141.336170 -0.000681 -0.006647
C 152.363738 0.018500 -0.002298
C 151.111467 -0.000681 -0.006647
C 153.677406 0.017735 -0.000366
C 155.180539 -0.000681 -0.006647
C 166.208108 0.018500 -0.002298
C 164.955837 -0.000681 -0.006647
C 167.521776 0.017735 -0.000366
C 169.024909 -0.000681 -0.006647
C 101.080295 -0.002291 0.002513
C 101.884437 -1.033863 -0.902804
C 101.373666 -1.765070 -1.960083
C 102.409505 -2.582364 -2.456876
C 103.529448 -2.328424 -1.685099
N 103.218418 -1.331501 -0.793876
C 104.932766 -3.062813 -1.819641
C 104.935303 -4.406895 -2.437810
C 105.407921 -4.579711 -3.746942
C 105.412852 -5.843735 -4.336888
C 104.933232 -6.932135 -3.611991
O 104.916816 -8.184958 -4.157947
C 104.442189 -6.779114 -2.321184
C 104.443159 -5.513712 -1.734272
C 106.062559 -2.462288 -1.369057
C 107.356132 -3.110052 -1.436386
C 108.268568 -2.273165 -0.944994
N 106.264543 -1.242389 -0.796569
C 107.595123 -1.058498 -0.536309
C 108.251042 -0.002291 0.002513
C 107.451031 1.303007 0.433308
C 107.996002 2.554786 0.636001
C 106.974786 3.387163 1.134984
C 105.813431 2.638776 1.171564
N 106.110913 1.376616 0.718601
C 104.397636 3.137383 1.706979
C 104.367911 4.354458 2.551833
C 104.516238 5.614674 1.960574
C 104.476466 6.773279 2.741569
C 104.250879 6.667808 4.112554
O 104.156383 7.815471 4.844972
C 104.107990 5.420824 4.721514
C 104.179206 4.264365 3.938593
C 103.260393 2.449019 1.394801
C 101.960922 2.866571 1.878893
C 101.054719 1.995279 1.432989
C 101.732571 1.013763 0.618253
N 103.061808 1.345125 0.630425
H 100.359363 -1.722768 -2.322550
H 102.350820 -3.295319 -3.271996
H 103.882859 -0.870074 -0.176491
H 105.777513 -3.713403 -4.296188
H 105.805763 -5.947959 -5.335609
H 105.217990 -8.100185 -5.076545
H 104.054990 -7.632115 -1.781731
H 104.059649 -5.370279 -0.726162
H 107.564592 -4.099732 -1.810313
H 109.317805 -2.488524 -0.865568
H 109.029748 2.828846 0.491920
H 107.080704 4.415783 1.456902
H 105.438336 0.626906 0.606520
H 104.664386 5.679099 0.884589
H 104.601822 7.747891 2.287360
H 103.544129 7.618806 5.581584
H 103.942326 5.328191 5.786748
H 104.064194 3.282255 4.387084
H 101.744789 3.725091 2.489972
H 99.998731 2.052781 1.631435
C 114.924665 -0.002291 0.002513
C 115.728806 -1.033863 -0.902804
C 115.218036 -1.765070 -1.960083
C 116.253875 -2.582364 -2.456876
C 117.373818 -2.328424 -1.685099
N 117.062788 -1.331501 -0.793876
C 118.777136 -3.062813 -1.819641
C 118.779673 -4.406895 -2.437810
C 119.252291 -4.579711 -3.746942
C 119.257222 -5.843735 -4.336888
C 118.777602 -6.932135 -3.611991
O 118.761186 -8.184958 -4.157947
C 118.286559 -6.779114 -2.321184
C 118.287529 -5.513712 -1.734272
C 119.906929 -2.462288 -1.369057
C 121.200501 -3.110052 -1.436386
C 122.112938 -2.273165 -0.944994
N 120.108912 -1.242389 -0.796569
C 121.439493 -1.058498 -0.536309
C 122.095412 -0.002291 0.002513
C 121.295401 1.303007 0.433308
C 121.840372 2.554786 0.636001
C 120.819156 3.387163 1.134984
C 119.657801 2.638776 1.171564
N 119.955283 1.376616 0.718601
C 118.242006 3.137383 1.706979
C 118.212281 4.354458 2.551833
C 118.360608 5.614674 1.960574
C 118.320836 6.773279 2.741569
C 118.095249 6.667808 4.112554
O 118.000753 7.815471 4.844972
C 117.952360 5.420824 4.721514
C 118.023576 4.264365 3.938593
C 117.104763 2.449019 1.394801
C 115.805292 2.866571 1.878893
C 114.899089 1.995279 1.432989
C 115.576941 1.013763 0.618253
N 116.906178 1.345125 0.630425
H 114.203733 -1.722768 -2.322550
H 116.195190 -3.295319 -3.271996
H 117.727229 -0.870074 -0.176491
H 119.621883 -3.713403 -4.296188
H 119.650133 -5.947959 -5.335609
H 119.062360 -8.100185 -5.076545
H 117.899360 -7.632115 -1.781731
H 117.904019 -5.370279 -0.726162
H 121.408962 -4.099732 -1.810313
H 123.162175 -2.488524 -0.865568
H 122.874118 2.828846 0.491920
H 120.925074 4.415783 1.456902
H 119.282706 0.626906 0.606520
H 118.508756 5.679099 0.884589
H 118.446192 7.747891 2.287360
H 117.388499 7.618806 5.581584
H 117.786696 5.328191 5.786748
H 117.908564 3.282255 4.387084
H 115.589159 3.725091 2.489972
H 113.843100 2.052781 1.631435
C 128.769035 -0.002291 0.002513
C 129.573176 -1.033863 -0.902804
C 129.062406 -1.765070 -1.960083
C 130.098245 -2.582364 -2.456876
C 131.218188 -2.328424 -1.685099
N 130.907158 -1.331501 -0.793876
C 132.621506 -3.062813 -1.819641
C 132.624043 -4.406895 -2.437810
C 133.096661 -4.579711 -3.746942
C 133.101592 -5.843735 -4.336888
C 132.621972 -6.932135 -3.611991
O 132.605556 -8.184958 -4.157947
C 132.130929 -6.779114 -2.321184
C 132.131899 -5.513712 -1.734272
C 133.751299 -2.462288 -1.369057
C 135.044871 -3.110052 -1.436386
C 135.957308 -2.273165 -0.944994
N 133.953282 -1.242389 -0.796569
C 135.283863 -1.058498 -0.536309
C 135.939781 -0.002291 0.002513
C 135.139771 1.303007 0.433308
C 135.684742 2.554786 0.636001
C 134.663526 3.387163 1.134984
C 133.502171 2.638776 1.171564
N 133.799652 1.376616 0.718601
C 132.086376 3.137383 1.706979
C 132.056651 4.354458 2.551833
C 132.204978 5.614674 1.960574
C 132.165206 6.773279 2.741569
C 131.939619 6.667808 4.112554
O 131.845123 7.815471 4.844972
C 131.796730 5.420824 4.721514
C 131.867946 4.264365 3.938593
C 130.949133 2.449019 1.394801
C 129.649662 2.866571 1.878893
C 128.743459 1.995279 1.432989
C 129.421311 1.013763 0.618253
N 130.750548 1.345125 0.630425
H 128.048103 -1.722768 -2.322550
H 130.039560 -3.295319 -3.271996
H 131.571599 -0.870074 -0.176491
H 133.466252 -3.713403 -4.296188
H 133.494503 -5.947959 -5.335609
H 132.906730 -8.100185 -5.076545
H 131.743730 -7.632115 -1.781731
H 131.748389 -5.370279 -0.726162
H 135.253332 -4.099732 -1.810313
H 137.006545 -2.488524 -0.865568
H 136.718488 2.828846 0.491920
H 134.769444 4.415783 1.456902
H 133.127076 0.626906 0.606520
H 132.353126 5.679099 0.884589
H 132.290562 7.747891 2.287360
H 131.232869 7.618806 5.581584
H 131.631066 5.328191 5.786748
H 131.752934 3.282255 4.387084
H 129.433529 3.725091 2.489972
H 127.687470 2.052781 1.631435
C 142.613405 -0.002291 0.002513
C 143.417546 -1.033863 -0.902804
C 142.906776 -1.765070 -1.960083
C 143.942615 -2.582364 -2.456876
C 145.062558 -2.328424 -1.685099
N 144.751528 -1.331501 -0.793876
C 146.465876 -3.062813 -1.819641
C 146.468413 -4.406895 -2.437810
C 146.941030 -4.579711 -3.746942
C 146.945962 -5.843735 -4.336888
C 146.466342 -6.932135 -3.611991
O 146.449926 -8.184958 -4.157947
C 145.975299 -6.779114 -2.321184
C 145.976269 -5.513712 -1.734272
C 147.595669 -2.462288 -1.369057
C 148.889241 -3.110052 -1.436386
C 149.801678 -2.273165 -0.944994
N 147.797652 -1.242389 -0.796569
C 149.128233 -1.058498 -0.536309
C 149.784151 -0.002291 0.002513
C 148.984141 1.303007 0.433308
C 149.529111 2.554786 0.636001
C 148.507896 3.387163 1.134984
C 147.346541 2.638776 1.171564
N 147.644022 1.376616 0.718601
C 145.930746 3.137383 1.706979
C 145.901021 4.354458 2.551833
C 146.049348 5.614674 1.960574
C 146.009576 6.773279 2.741569
C 145.783989 6.667808 4.112554
O 145.689493 7.815471 4.844972
C 145.641100 5.420824 4.721514
C 145.712316 4.264365 3.938593
C 144.793503 2.449019 1.394801
C 143.494032 2.866571 1.878893
C 142.587829 1.995279 1.432989
C 143.265681 1.013763 0.618253
N 144.594918 1.345125 0.630425
H 141.892473 -1.722768 -2.322550
H 143.883930 -3.295319 -3.271996
H 145.415969 -0.870074 -0.176491
H 147.310622 -3.713403 -4.296188
H 147.338872 -5.947959 -5.335609
H 146.751100 -8.100185 -5.076545
H 145.588100 -7.632115 -1.781731
H 145.592759 -5.370279 -0.726162
H 149.097702 -4.099732 -1.810313
H 150.850915 -2.488524 -0.865568
H 150.562858 2.828846 0.491920
H 148.613814 4.415783 1.456902
H 146.971445 0.626906 0.606520
H 146.197496 5.679099 0.884589
H 146.134932 7.747891 2.287360
H 145.077239 7.618806 5.581584
H 145.475436 5.328191 5.786748
H 145.597304 3.282255 4.387084
H 143.277899 3.725091 2.489972
H 141.531840 2.052781 1.631435
C 156.457775 -0.002291 0.002513
C 157.261916 -1.033863 -0.902804
C 156.751146 -1.765070 -1.960083
C 157.786985 -2.582364 -2.456876
C 158.906928 -2.328424 -1.685099
N 158.595898 -1.331501 -0.793876
C 160.310246 -3.062813 -1.819641
C 160.312783 -4.406895 -2.437810
C 160.785400 -4.579711 -3.746942
C 160.790332 -5.843735 -4.336888
C 160.310712 -6.932135 -3.611991
O 160.294296 -8.184958 -4.157947
C 159.819669 -6.779114 -2.321184
C 159.820639 -5.513712 -1.734272
C 161.440039 -2.462288 -1.369057
C 162.733611 -3.110052 -1.436386
C 163.646048 -2.273165 -0.944994
N 161.642022 -1.242389 -0.796569
C 162.972602 -1.058498 -0.536309
C 163.628521 -0.002291 0.002513
C 162.828511 1.303007 0.433308
C 163.373481 2.554786 0.636001
C 162.352266 3.387163 1.134984
C 161.190911 2.638776 1.171564
N 161.488392 1.376616 0.718601
C 159.775115 3.137383 1.706979
C 159.745391 4.354458 2.551833
C 159.893718 5.614674 1.960574
C 159.853946 6.773279 2.741569
C 159.628359 6.667808 4.112554
O 159.533863 7.815471 4.844972
C 159.485470 5.420824 4.721514
C 159.556686 4.264365 3.938593
C 158.637873 2.449019 1.394801
C 157.338402 2.866571 1.878893
C 156.432199 1.995279 1.432989
C 157.110051 1.013763 0.618253
N 158.439288 1.345125 0.630425
H 155.736843 -1.722768 -2.322550
H 157.728300 -3.295319 -3.271996
H 159.260339 -0.870074 -0.176491
H 161.154992 -3.713403 -4.296188
H 161.183242 -5.947959 -5.335609
H 160.595470 -8.100185 -5.076545
H 159.432470 -7.632115 -1.781731
H 159.437129 -5.370279 -0.726162
H 162.942072 -4.099732 -1.810313
H 164.695285 -2.488524 -0.865568
H 164.407228 2.828846 0.491920
H 162.458184 4.415783 1.456902
H 160.815815 0.626906 0.606520
H 160.041866 5.679099 0.884589
H 159.979302 7.747891 2.287360
H 158.921609 7.618806 5.581584
H 159.319806 5.328191 5.786748
H 159.441674 3.282255 4.387084
H 157.122269 3.725091 2.489972
H 155.376210 2.052781 1.631435
