 xtb: 6.5.1 (b24c23e)
          07292220103D

262301  0     0  0            999 V2000
   39.8785    0.0242    0.0458 Fe  0  0  0  0  0  0  0  0  0  0  0  0
   36.4984    0.1116    0.1350 C   0  0  0  0  0  0  0  0  0  0  0  0
   37.1521    1.1123   -0.5551 C   0  0  0  0  0  0  0  0  0  0  0  0
   36.4856    2.1574   -1.2707 C   0  0  0  0  0  0  0  0  0  0  0  0
   37.4482    3.0079   -1.7014 C   0  0  0  0  0  0  0  0  0  0  0  0
   38.7005    2.4901   -1.2317 C   0  0  0  0  0  0  0  0  0  0  0  0
   38.5092    1.3028   -0.5790 N   0  0  0  0  0  0  0  0  0  0  0  0
   39.9188    3.1535   -1.3569 C   0  0  0  0  0  0  0  0  0  0  0  0
   39.9384    4.5026   -1.9621 C   0  0  0  0  0  0  0  0  0  0  0  0
   40.7192    4.7645   -3.0914 C   0  0  0  0  0  0  0  0  0  0  0  0
   40.7413    6.0240   -3.6626 C   0  0  0  0  0  0  0  0  0  0  0  0
   39.9918    7.0617   -3.1017 C   0  0  0  0  0  0  0  0  0  0  0  0
   39.9832    8.3131   -3.6908 N   0  0  0  0  0  0  0  0  0  0  0  0
   39.2056    6.8076   -1.9744 C   0  0  0  0  0  0  0  0  0  0  0  0
   39.1799    5.5421   -1.4167 C   0  0  0  0  0  0  0  0  0  0  0  0
   41.1176    2.5972   -0.9281 C   0  0  0  0  0  0  0  0  0  0  0  0
   42.3789    3.2754   -0.9663 C   0  0  0  0  0  0  0  0  0  0  0  0
   43.3195    2.3756   -0.5879 C   0  0  0  0  0  0  0  0  0  0  0  0
   41.2852    1.3108   -0.4739 N   0  0  0  0  0  0  0  0  0  0  0  0
   42.6295    1.1558   -0.3096 C   0  0  0  0  0  0  0  0  0  0  0  0
   43.2801   -0.0485   -0.0107 C   0  0  0  0  0  0  0  0  0  0  0  0
   42.5897   -1.2271    0.3008 C   0  0  0  0  0  0  0  0  0  0  0  0
   43.2365   -2.4774    0.5447 C   0  0  0  0  0  0  0  0  0  0  0  0
   42.2699   -3.3446    0.9337 C   0  0  0  0  0  0  0  0  0  0  0  0
   41.0371   -2.6147    0.9415 C   0  0  0  0  0  0  0  0  0  0  0  0
   41.2452   -1.3295    0.4999 N   0  0  0  0  0  0  0  0  0  0  0  0
   39.8304   -3.1244    1.4042 C   0  0  0  0  0  0  0  0  0  0  0  0
   39.8070   -4.4852    1.9827 C   0  0  0  0  0  0  0  0  0  0  0  0
   40.6161   -4.8103    3.0750 C   0  0  0  0  0  0  0  0  0  0  0  0
   40.5965   -6.0816    3.6194 C   0  0  0  0  0  0  0  0  0  0  0  0
   39.7743   -7.0682    3.0680 C   0  0  0  0  0  0  0  0  0  0  0  0
   39.7253   -8.3303    3.6316 N   0  0  0  0  0  0  0  0  0  0  0  0
   38.9584   -6.7503    1.9788 C   0  0  0  0  0  0  0  0  0  0  0  0
   38.9754   -5.4731    1.4480 C   0  0  0  0  0  0  0  0  0  0  0  0
   38.6417   -2.4004    1.3454 C   0  0  0  0  0  0  0  0  0  0  0  0
   37.3907   -2.8605    1.8748 C   0  0  0  0  0  0  0  0  0  0  0  0
   36.4542   -1.9492    1.5173 C   0  0  0  0  0  0  0  0  0  0  0  0
   37.1356   -0.9284    0.7809 C   0  0  0  0  0  0  0  0  0  0  0  0
   38.4795   -1.1928    0.7234 N   0  0  0  0  0  0  0  0  0  0  0  0
   35.4149    0.1413    0.1672 H   0  0  0  0  0  0  0  0  0  0  0  0
   35.4186    2.2157   -1.4165 H   0  0  0  0  0  0  0  0  0  0  0  0
   37.3320    3.9045   -2.2884 H   0  0  0  0  0  0  0  0  0  0  0  0
   41.2965    3.9623   -3.5379 H   0  0  0  0  0  0  0  0  0  0  0  0
   41.3412    6.2113   -4.5465 H   0  0  0  0  0  0  0  0  0  0  0  0
   40.7847    8.5214   -4.2644 H   0  0  0  0  0  0  0  0  0  0  0  0
   39.7061    9.0692   -3.0856 H   0  0  0  0  0  0  0  0  0  0  0  0
   38.6200    7.6084   -1.5362 H   0  0  0  0  0  0  0  0  0  0  0  0
   38.5833    5.3587   -0.5298 H   0  0  0  0  0  0  0  0  0  0  0  0
   42.5176    4.3088   -1.2397 H   0  0  0  0  0  0  0  0  0  0  0  0
   44.3856    2.5115   -0.5016 H   0  0  0  0  0  0  0  0  0  0  0  0
   44.2936   -2.6548    0.4276 H   0  0  0  0  0  0  0  0  0  0  0  0
   42.3736   -4.3869    1.1878 H   0  0  0  0  0  0  0  0  0  0  0  0
   41.2494   -4.0478    3.5151 H   0  0  0  0  0  0  0  0  0  0  0  0
   41.2197   -6.3180    4.4749 H   0  0  0  0  0  0  0  0  0  0  0  0
   40.5367   -8.5912    4.1686 H   0  0  0  0  0  0  0  0  0  0  0  0
   39.3863   -9.0581    3.0231 H   0  0  0  0  0  0  0  0  0  0  0  0
   38.3157   -7.5108    1.5488 H   0  0  0  0  0  0  0  0  0  0  0  0
   38.3540   -5.2403    0.5902 H   0  0  0  0  0  0  0  0  0  0  0  0
   37.2582   -3.7623    2.4503 H   0  0  0  0  0  0  0  0  0  0  0  0
   35.3955   -1.9525    1.7233 H   0  0  0  0  0  0  0  0  0  0  0  0
   95.5109    0.0049    0.0787 Fe  0  0  0  0  0  0  0  0  0  0  0  0
   98.8930    0.0143    0.1769 C   0  0  0  0  0  0  0  0  0  0  0  0
   98.2384   -1.1107    0.6354 C   0  0  0  0  0  0  0  0  0  0  0  0
   98.9064   -2.2793    1.1222 C   0  0  0  0  0  0  0  0  0  0  0  0
   97.9444   -3.1083    1.5933 C   0  0  0  0  0  0  0  0  0  0  0  0
   96.6905   -2.4369    1.4086 C   0  0  0  0  0  0  0  0  0  0  0  0
   96.8806   -1.2405    0.7717 N   0  0  0  0  0  0  0  0  0  0  0  0
   95.4708   -2.9154    1.8800 C   0  0  0  0  0  0  0  0  0  0  0  0
   95.4521   -4.1653    2.6705 C   0  0  0  0  0  0  0  0  0  0  0  0
   94.6878   -5.2590    2.2547 C   0  0  0  0  0  0  0  0  0  0  0  0
   94.6675   -6.4310    2.9889 C   0  0  0  0  0  0  0  0  0  0  0  0
   95.4022   -6.5292    4.1737 C   0  0  0  0  0  0  0  0  0  0  0  0
   95.4135   -7.7116    4.8914 N   0  0  0  0  0  0  0  0  0  0  0  0
   96.1716   -5.4412    4.5952 C   0  0  0  0  0  0  0  0  0  0  0  0
   96.1956   -4.2770    3.8486 C   0  0  0  0  0  0  0  0  0  0  0  0
   94.2699   -2.2581    1.6424 C   0  0  0  0  0  0  0  0  0  0  0  0
   93.0067   -2.6755    2.1735 C   0  0  0  0  0  0  0  0  0  0  0  0
   92.0665   -1.8613    1.6344 C   0  0  0  0  0  0  0  0  0  0  0  0
   94.1034   -1.1652    0.8258 N   0  0  0  0  0  0  0  0  0  0  0  0
   92.7586   -0.9436    0.7859 C   0  0  0  0  0  0  0  0  0  0  0  0
   92.1094   -0.0145   -0.0367 C   0  0  0  0  0  0  0  0  0  0  0  0
   92.7989    0.9106   -0.8301 C   0  0  0  0  0  0  0  0  0  0  0  0
   92.1497    1.8208   -1.7198 C   0  0  0  0  0  0  0  0  0  0  0  0
   93.1168    2.6242   -2.2261 C   0  0  0  0  0  0  0  0  0  0  0  0
   94.3523    2.2118   -1.6295 C   0  0  0  0  0  0  0  0  0  0  0  0
   94.1456    1.1233   -0.8155 N   0  0  0  0  0  0  0  0  0  0  0  0
   95.5614    2.8729   -1.8047 C   0  0  0  0  0  0  0  0  0  0  0  0
   95.5873    4.1104   -2.6144 C   0  0  0  0  0  0  0  0  0  0  0  0
   94.7958    5.2087   -2.2678 C   0  0  0  0  0  0  0  0  0  0  0  0
   94.8206    6.3676   -3.0225 C   0  0  0  0  0  0  0  0  0  0  0  0
   95.6301    6.4475   -4.1590 C   0  0  0  0  0  0  0  0  0  0  0  0
   95.6851    7.6171   -4.8954 N   0  0  0  0  0  0  0  0  0  0  0  0
   96.4282    5.3553   -4.5102 C   0  0  0  0  0  0  0  0  0  0  0  0
   96.4064    4.2046   -3.7430 C   0  0  0  0  0  0  0  0  0  0  0  0
   96.7515    2.4156   -1.2440 C   0  0  0  0  0  0  0  0  0  0  0  0
   98.0043    3.1072   -1.3396 C   0  0  0  0  0  0  0  0  0  0  0  0
   98.9405    2.3022   -0.7825 C   0  0  0  0  0  0  0  0  0  0  0  0
   98.2572    1.1263   -0.3367 C   0  0  0  0  0  0  0  0  0  0  0  0
   96.9133    1.2260   -0.5880 N   0  0  0  0  0  0  0  0  0  0  0  0
   99.9764    0.0239    0.2201 H   0  0  0  0  0  0  0  0  0  0  0  0
   99.9743   -2.4287    1.0979 H   0  0  0  0  0  0  0  0  0  0  0  0
   98.0619   -4.0893    2.0243 H   0  0  0  0  0  0  0  0  0  0  0  0
   94.1222   -5.1939    1.3316 H   0  0  0  0  0  0  0  0  0  0  0  0
   94.0806   -7.2772    2.6490 H   0  0  0  0  0  0  0  0  0  0  0  0
   94.6204   -8.3133    4.7371 H   0  0  0  0  0  0  0  0  0  0  0  0
   95.6767   -7.6222    5.8597 H   0  0  0  0  0  0  0  0  0  0  0  0
   96.7457   -5.5123    5.5126 H   0  0  0  0  0  0  0  0  0  0  0  0
   96.7791   -3.4304    4.1935 H   0  0  0  0  0  0  0  0  0  0  0  0
   92.8665   -3.4814    2.8753 H   0  0  0  0  0  0  0  0  0  0  0  0
   90.9995   -1.8694    1.7893 H   0  0  0  0  0  0  0  0  0  0  0  0
   91.0908    1.8309   -1.9224 H   0  0  0  0  0  0  0  0  0  0  0  0
   93.0117    3.4225   -2.9427 H   0  0  0  0  0  0  0  0  0  0  0  0
   94.1725    5.1585   -1.3817 H   0  0  0  0  0  0  0  0  0  0  0  0
   94.2114    7.2179   -2.7360 H   0  0  0  0  0  0  0  0  0  0  0  0
   94.8823    8.2186   -4.8042 H   0  0  0  0  0  0  0  0  0  0  0  0
   96.0114    7.5114   -5.8427 H   0  0  0  0  0  0  0  0  0  0  0  0
   97.0610    5.4126   -5.3891 H   0  0  0  0  0  0  0  0  0  0  0  0
   97.0143    3.3546   -4.0330 H   0  0  0  0  0  0  0  0  0  0  0  0
   98.1375    4.0855   -1.7722 H   0  0  0  0  0  0  0  0  0  0  0  0
  100.0000    2.4728   -0.6743 H   0  0  0  0  0  0  0  0  0  0  0  0
   44.6791   -0.0749   -0.0287 C   0  0  0  0  0  0  0  0  0  0  0  0
   45.9055   -0.0923   -0.0469 C   0  0  0  0  0  0  0  0  0  0  0  0
   47.2443   -0.1065   -0.0652 C   0  0  0  0  0  0  0  0  0  0  0  0
   48.4772   -0.1124   -0.0797 C   0  0  0  0  0  0  0  0  0  0  0  0
   49.8113   -0.1149   -0.0867 C   0  0  0  0  0  0  0  0  0  0  0  0
   51.0443   -0.1093   -0.0932 C   0  0  0  0  0  0  0  0  0  0  0  0
   52.3830   -0.1057   -0.0883 C   0  0  0  0  0  0  0  0  0  0  0  0
   53.6097   -0.0941   -0.0777 C   0  0  0  0  0  0  0  0  0  0  0  0
   63.2272   -0.0777   -0.0943 C   0  0  0  0  0  0  0  0  0  0  0  0
   64.4540   -0.0781   -0.1182 C   0  0  0  0  0  0  0  0  0  0  0  0
   65.7924   -0.0791   -0.1377 C   0  0  0  0  0  0  0  0  0  0  0  0
   67.0257   -0.0748   -0.1440 C   0  0  0  0  0  0  0  0  0  0  0  0
   68.3595   -0.0752   -0.1474 C   0  0  0  0  0  0  0  0  0  0  0  0
   69.5927   -0.0721   -0.1385 C   0  0  0  0  0  0  0  0  0  0  0  0
   70.9312   -0.0677   -0.1233 C   0  0  0  0  0  0  0  0  0  0  0  0
   72.1580   -0.0595   -0.1021 C   0  0  0  0  0  0  0  0  0  0  0  0
   81.7783   -0.0430   -0.1009 C   0  0  0  0  0  0  0  0  0  0  0  0
   83.0045   -0.0442   -0.1202 C   0  0  0  0  0  0  0  0  0  0  0  0
   84.3441   -0.0430   -0.1339 C   0  0  0  0  0  0  0  0  0  0  0  0
   85.5766   -0.0382   -0.1348 C   0  0  0  0  0  0  0  0  0  0  0  0
   86.9115   -0.0319   -0.1293 C   0  0  0  0  0  0  0  0  0  0  0  0
   88.1438   -0.0243   -0.1138 C   0  0  0  0  0  0  0  0  0  0  0  0
   89.4834   -0.0185   -0.0933 C   0  0  0  0  0  0  0  0  0  0  0  0
   90.7093   -0.0142   -0.0689 C   0  0  0  0  0  0  0  0  0  0  0  0
   58.4195   -0.0632   -0.0069 Fe  0  0  0  0  0  0  0  0  0  0  0  0
   55.0086   -0.0848   -0.0609 C   0  0  0  0  0  0  0  0  0  0  0  0
   55.6789    1.0380   -0.5640 C   0  0  0  0  0  0  0  0  0  0  0  0
   55.0009    2.1829   -1.0835 C   0  0  0  0  0  0  0  0  0  0  0  0
   55.9503    3.1219   -1.3159 C   0  0  0  0  0  0  0  0  0  0  0  0
   57.2068    2.5385   -0.9535 C   0  0  0  0  0  0  0  0  0  0  0  0
   57.0246    1.2499   -0.5146 N   0  0  0  0  0  0  0  0  0  0  0  0
   58.4113    3.2338   -0.9389 C   0  0  0  0  0  0  0  0  0  0  0  0
   58.4053    4.6662   -1.3164 C   0  0  0  0  0  0  0  0  0  0  0  0
   58.0420    5.0644   -2.6050 C   0  0  0  0  0  0  0  0  0  0  0  0
   58.0305    6.4026   -2.9556 C   0  0  0  0  0  0  0  0  0  0  0  0
   58.3676    7.3777   -2.0128 C   0  0  0  0  0  0  0  0  0  0  0  0
   58.3888    8.7139   -2.3689 N   0  0  0  0  0  0  0  0  0  0  0  0
   58.7401    6.9858   -0.7241 C   0  0  0  0  0  0  0  0  0  0  0  0
   58.7604    5.6448   -0.3850 C   0  0  0  0  0  0  0  0  0  0  0  0
   59.6212    2.6441   -0.5922 C   0  0  0  0  0  0  0  0  0  0  0  0
   60.8802    3.3257   -0.6340 C   0  0  0  0  0  0  0  0  0  0  0  0
   61.8373    2.3944   -0.4027 C   0  0  0  0  0  0  0  0  0  0  0  0
   59.8102    1.3118   -0.3129 N   0  0  0  0  0  0  0  0  0  0  0  0
   61.1599    1.1497   -0.2217 C   0  0  0  0  0  0  0  0  0  0  0  0
   61.8289   -0.0709   -0.0569 C   0  0  0  0  0  0  0  0  0  0  0  0
   61.1582   -1.2826    0.1571 C   0  0  0  0  0  0  0  0  0  0  0  0
   61.8292   -2.5347    0.3058 C   0  0  0  0  0  0  0  0  0  0  0  0
   60.8775   -3.4490    0.6167 C   0  0  0  0  0  0  0  0  0  0  0  0
   59.6306   -2.7467    0.6649 C   0  0  0  0  0  0  0  0  0  0  0  0
   59.8147   -1.4260    0.3361 N   0  0  0  0  0  0  0  0  0  0  0  0
   58.4241   -3.3268    1.0422 C   0  0  0  0  0  0  0  0  0  0  0  0
   58.4243   -4.7333    1.4973 C   0  0  0  0  0  0  0  0  0  0  0  0
   57.6427   -5.6921    0.8460 C   0  0  0  0  0  0  0  0  0  0  0  0
   57.6400   -7.0096    1.2657 C   0  0  0  0  0  0  0  0  0  0  0  0
   58.4103   -7.3970    2.3659 C   0  0  0  0  0  0  0  0  0  0  0  0
   58.4372   -8.7196    2.7664 N   0  0  0  0  0  0  0  0  0  0  0  0
   59.1984   -6.4455    3.0199 C   0  0  0  0  0  0  0  0  0  0  0  0
   59.2053   -5.1325    2.5856 C   0  0  0  0  0  0  0  0  0  0  0  0
   57.2136   -2.6429    0.9946 C   0  0  0  0  0  0  0  0  0  0  0  0
   55.9623   -3.1972    1.4155 C   0  0  0  0  0  0  0  0  0  0  0  0
   55.0049   -2.2954    1.0858 C   0  0  0  0  0  0  0  0  0  0  0  0
   55.6779   -1.1880    0.4856 C   0  0  0  0  0  0  0  0  0  0  0  0
   57.0260   -1.3868    0.4718 N   0  0  0  0  0  0  0  0  0  0  0  0
   53.9347    2.2528   -1.2272 H   0  0  0  0  0  0  0  0  0  0  0  0
   55.8158    4.1261   -1.6833 H   0  0  0  0  0  0  0  0  0  0  0  0
   57.7874    4.3129   -3.3442 H   0  0  0  0  0  0  0  0  0  0  0  0
   57.7577    6.6998   -3.9622 H   0  0  0  0  0  0  0  0  0  0  0  0
   57.8160    8.9546   -3.1620 H   0  0  0  0  0  0  0  0  0  0  0  0
   58.3178    9.3626   -1.6014 H   0  0  0  0  0  0  0  0  0  0  0  0
   59.0084    7.7376    0.0099 H   0  0  0  0  0  0  0  0  0  0  0  0
   59.0331    5.3487    0.6220 H   0  0  0  0  0  0  0  0  0  0  0  0
   61.0090    4.3759   -0.8387 H   0  0  0  0  0  0  0  0  0  0  0  0
   62.9072    2.5225   -0.3666 H   0  0  0  0  0  0  0  0  0  0  0  0
   62.8906   -2.6810    0.1856 H   0  0  0  0  0  0  0  0  0  0  0  0
   61.0002   -4.5058    0.7888 H   0  0  0  0  0  0  0  0  0  0  0  0
   57.0509   -5.4019   -0.0151 H   0  0  0  0  0  0  0  0  0  0  0  0
   57.0395   -7.7466    0.7439 H   0  0  0  0  0  0  0  0  0  0  0  0
   58.7353   -8.8755    3.7159 H   0  0  0  0  0  0  0  0  0  0  0  0
   57.6383   -9.2682    2.4917 H   0  0  0  0  0  0  0  0  0  0  0  0
   59.8007   -6.7409    3.8720 H   0  0  0  0  0  0  0  0  0  0  0  0
   59.8040   -4.3964    3.1107 H   0  0  0  0  0  0  0  0  0  0  0  0
   55.8393   -4.1491    1.9057 H   0  0  0  0  0  0  0  0  0  0  0  0
   53.9391   -2.3591    1.2352 H   0  0  0  0  0  0  0  0  0  0  0  0
   76.9678   -0.0268   -0.0156 Fe  0  0  0  0  0  0  0  0  0  0  0  0
   73.5566   -0.0489   -0.0765 C   0  0  0  0  0  0  0  0  0  0  0  0
   74.2270    1.0874   -0.5485 C   0  0  0  0  0  0  0  0  0  0  0  0
   73.5479    2.2446   -1.0397 C   0  0  0  0  0  0  0  0  0  0  0  0
   74.4979    3.1849   -1.2625 C   0  0  0  0  0  0  0  0  0  0  0  0
   75.7559    2.5908   -0.9225 C   0  0  0  0  0  0  0  0  0  0  0  0
   75.5731    1.2952   -0.5026 N   0  0  0  0  0  0  0  0  0  0  0  0
   76.9627    3.2799   -0.9198 C   0  0  0  0  0  0  0  0  0  0  0  0
   76.9642    4.7109   -1.3034 C   0  0  0  0  0  0  0  0  0  0  0  0
   76.5965    5.1024   -2.5927 C   0  0  0  0  0  0  0  0  0  0  0  0
   76.6091    6.4366   -2.9583 C   0  0  0  0  0  0  0  0  0  0  0  0
   76.9874    7.4137   -2.0334 C   0  0  0  0  0  0  0  0  0  0  0  0
   76.9556    8.7521   -2.3807 N   0  0  0  0  0  0  0  0  0  0  0  0
   77.3420    7.0303   -0.7372 C   0  0  0  0  0  0  0  0  0  0  0  0
   77.3383    5.6929   -0.3832 C   0  0  0  0  0  0  0  0  0  0  0  0
   78.1747    2.6831   -0.5901 C   0  0  0  0  0  0  0  0  0  0  0  0
   79.4351    3.3612   -0.6406 C   0  0  0  0  0  0  0  0  0  0  0  0
   80.3912    2.4272   -0.4160 C   0  0  0  0  0  0  0  0  0  0  0  0
   78.3611    1.3503   -0.3153 N   0  0  0  0  0  0  0  0  0  0  0  0
   79.7116    1.1843   -0.2321 C   0  0  0  0  0  0  0  0  0  0  0  0
   80.3787   -0.0362   -0.0668 C   0  0  0  0  0  0  0  0  0  0  0  0
   79.7082   -1.2468    0.1475 C   0  0  0  0  0  0  0  0  0  0  0  0
   80.3798   -2.4982    0.2979 C   0  0  0  0  0  0  0  0  0  0  0  0
   79.4279   -3.4134    0.6056 C   0  0  0  0  0  0  0  0  0  0  0  0
   78.1803   -2.7124    0.6487 C   0  0  0  0  0  0  0  0  0  0  0  0
   78.3636   -1.3918    0.3221 N   0  0  0  0  0  0  0  0  0  0  0  0
   76.9721   -3.2977    1.0152 C   0  0  0  0  0  0  0  0  0  0  0  0
   76.9815   -4.7027    1.4762 C   0  0  0  0  0  0  0  0  0  0  0  0
   76.2228   -5.6771    0.8217 C   0  0  0  0  0  0  0  0  0  0  0  0
   76.2379   -6.9927    1.2480 C   0  0  0  0  0  0  0  0  0  0  0  0
   77.0131   -7.3644    2.3502 C   0  0  0  0  0  0  0  0  0  0  0  0
   76.9921   -8.6678    2.8099 N   0  0  0  0  0  0  0  0  0  0  0  0
   77.7644   -6.3934    3.0185 C   0  0  0  0  0  0  0  0  0  0  0  0
   77.7536   -5.0827    2.5778 C   0  0  0  0  0  0  0  0  0  0  0  0
   75.7598   -2.6204    0.9550 C   0  0  0  0  0  0  0  0  0  0  0  0
   74.5051   -3.1858    1.3512 C   0  0  0  0  0  0  0  0  0  0  0  0
   73.5484   -2.2841    1.0201 C   0  0  0  0  0  0  0  0  0  0  0  0
   74.2247   -1.1645    0.4463 C   0  0  0  0  0  0  0  0  0  0  0  0
   75.5732   -1.3581    0.4446 N   0  0  0  0  0  0  0  0  0  0  0  0
   72.4807    2.3202   -1.1727 H   0  0  0  0  0  0  0  0  0  0  0  0
   74.3642    4.1965   -1.6091 H   0  0  0  0  0  0  0  0  0  0  0  0
   76.3201    4.3481   -3.3211 H   0  0  0  0  0  0  0  0  0  0  0  0
   76.3301    6.7285   -3.9648 H   0  0  0  0  0  0  0  0  0  0  0  0
   77.0150    8.9395   -3.3687 H   0  0  0  0  0  0  0  0  0  0  0  0
   77.5310    9.3550   -1.8147 H   0  0  0  0  0  0  0  0  0  0  0  0
   77.6223    7.7854   -0.0110 H   0  0  0  0  0  0  0  0  0  0  0  0
   77.6084    5.4030    0.6263 H   0  0  0  0  0  0  0  0  0  0  0  0
   79.5657    4.4114   -0.8441 H   0  0  0  0  0  0  0  0  0  0  0  0
   81.4616    2.5523   -0.3860 H   0  0  0  0  0  0  0  0  0  0  0  0
   81.4416   -2.6436    0.1804 H   0  0  0  0  0  0  0  0  0  0  0  0
   79.5510   -4.4702    0.7774 H   0  0  0  0  0  0  0  0  0  0  0  0
   75.6352   -5.4012   -0.0470 H   0  0  0  0  0  0  0  0  0  0  0  0
   75.6521   -7.7414    0.7262 H   0  0  0  0  0  0  0  0  0  0  0  0
   77.7845   -8.9393    3.3694 H   0  0  0  0  0  0  0  0  0  0  0  0
   76.7115   -9.3584    2.1325 H   0  0  0  0  0  0  0  0  0  0  0  0
   78.3566   -6.6731    3.8829 H   0  0  0  0  0  0  0  0  0  0  0  0
   78.3320   -4.3334    3.1070 H   0  0  0  0  0  0  0  0  0  0  0  0
   74.3800   -4.1450    1.8263 H   0  0  0  0  0  0  0  0  0  0  0  0
   72.4810   -2.3545    1.1540 H   0  0  0  0  0  0  0  0  0  0  0  0
  2  3  4  0  0  0  0
  3  4  4  0  0  0  0
  4  5  2  0  0  0  0
  5  6  4  0  0  0  0
  1  7  1  0  0  0  0
  3  7  4  0  0  0  0
  6  7  4  0  0  0  0
  6  8  4  0  0  0  0
  8  9  1  0  0  0  0
  9 10  4  0  0  0  0
 10 11  4  0  0  0  0
 11 12  4  0  0  0  0
 12 13  1  0  0  0  0
 12 14  4  0  0  0  0
  9 15  4  0  0  0  0
 14 15  4  0  0  0  0
  8 16  4  0  0  0  0
 16 17  4  0  0  0  0
 17 18  2  0  0  0  0
  1 19  1  0  0  0  0
 16 19  4  0  0  0  0
 18 20  4  0  0  0  0
 19 20  4  0  0  0  0
 20 21  4  0  0  0  0
 21 22  4  0  0  0  0
 22 23  4  0  0  0  0
 23 24  2  0  0  0  0
 24 25  4  0  0  0  0
  1 26  1  0  0  0  0
 22 26  4  0  0  0  0
 25 26  4  0  0  0  0
 25 27  4  0  0  0  0
 27 28  1  0  0  0  0
 28 29  4  0  0  0  0
 29 30  4  0  0  0  0
 30 31  4  0  0  0  0
 31 32  1  0  0  0  0
 31 33  4  0  0  0  0
 28 34  4  0  0  0  0
 33 34  4  0  0  0  0
 27 35  4  0  0  0  0
 35 36  4  0  0  0  0
 36 37  2  0  0  0  0
  2 38  4  0  0  0  0
 37 38  4  0  0  0  0
  1 39  1  0  0  0  0
 35 39  4  0  0  0  0
 38 39  4  0  0  0  0
  2 40  1  0  0  0  0
  4 41  1  0  0  0  0
  5 42  1  0  0  0  0
 10 43  1  0  0  0  0
 11 44  1  0  0  0  0
 13 45  1  0  0  0  0
 13 46  1  0  0  0  0
 14 47  1  0  0  0  0
 15 48  1  0  0  0  0
 17 49  1  0  0  0  0
 18 50  1  0  0  0  0
 23 51  1  0  0  0  0
 24 52  1  0  0  0  0
 29 53  1  0  0  0  0
 30 54  1  0  0  0  0
 32 55  1  0  0  0  0
 32 56  1  0  0  0  0
 33 57  1  0  0  0  0
 34 58  1  0  0  0  0
 36 59  1  0  0  0  0
 37 60  1  0  0  0  0
 62 63  4  0  0  0  0
 63 64  4  0  0  0  0
 64 65  2  0  0  0  0
 65 66  4  0  0  0  0
 61 67  1  0  0  0  0
 63 67  4  0  0  0  0
 66 67  4  0  0  0  0
 66 68  4  0  0  0  0
 68 69  1  0  0  0  0
 69 70  4  0  0  0  0
 70 71  4  0  0  0  0
 71 72  4  0  0  0  0
 72 73  1  0  0  0  0
 72 74  4  0  0  0  0
 69 75  4  0  0  0  0
 74 75  4  0  0  0  0
 68 76  4  0  0  0  0
 76 77  4  0  0  0  0
 77 78  2  0  0  0  0
 61 79  1  0  0  0  0
 76 79  4  0  0  0  0
 78 80  4  0  0  0  0
 79 80  4  0  0  0  0
 80 81  4  0  0  0  0
 81 82  4  0  0  0  0
 82 83  4  0  0  0  0
 83 84  2  0  0  0  0
 84 85  4  0  0  0  0
 61 86  1  0  0  0  0
 82 86  4  0  0  0  0
 85 86  4  0  0  0  0
 85 87  4  0  0  0  0
 87 88  1  0  0  0  0
 88 89  4  0  0  0  0
 89 90  4  0  0  0  0
 90 91  4  0  0  0  0
 91 92  1  0  0  0  0
 91 93  4  0  0  0  0
 88 94  4  0  0  0  0
 93 94  4  0  0  0  0
 87 95  4  0  0  0  0
 95 96  4  0  0  0  0
 96 97  2  0  0  0  0
 62 98  4  0  0  0  0
 97 98  4  0  0  0  0
 61 99  1  0  0  0  0
 95 99  4  0  0  0  0
 98 99  4  0  0  0  0
 62100  1  0  0  0  0
 64101  1  0  0  0  0
 65102  1  0  0  0  0
 70103  1  0  0  0  0
 71104  1  0  0  0  0
 73105  1  0  0  0  0
 73106  1  0  0  0  0
 74107  1  0  0  0  0
 75108  1  0  0  0  0
 77109  1  0  0  0  0
 78110  1  0  0  0  0
 83111  1  0  0  0  0
 84112  1  0  0  0  0
 89113  1  0  0  0  0
 90114  1  0  0  0  0
 92115  1  0  0  0  0
 92116  1  0  0  0  0
 93117  1  0  0  0  0
 94118  1  0  0  0  0
 96119  1  0  0  0  0
 97120  1  0  0  0  0
 21121  4  0  0  0  0
121122  3  0  0  0  0
122123  4  0  0  0  0
123124  3  0  0  0  0
124125  4  0  0  0  0
125126  3  0  0  0  0
126127  4  0  0  0  0
127128  3  0  0  0  0
129130  3  0  0  0  0
130131  4  0  0  0  0
131132  3  0  0  0  0
132133  4  0  0  0  0
133134  3  0  0  0  0
134135  4  0  0  0  0
135136  3  0  0  0  0
137138  3  0  0  0  0
138139  4  0  0  0  0
139140  3  0  0  0  0
140141  4  0  0  0  0
141142  3  0  0  0  0
142143  4  0  0  0  0
 81144  4  0  0  0  0
143144  3  0  0  0  0
128146  4  0  0  0  0
146147  4  0  0  0  0
147148  4  0  0  0  0
148149  2  0  0  0  0
149150  4  0  0  0  0
145151  1  0  0  0  0
147151  4  0  0  0  0
150151  4  0  0  0  0
150152  4  0  0  0  0
152153  1  0  0  0  0
153154  4  0  0  0  0
154155  4  0  0  0  0
155156  4  0  0  0  0
156157  1  0  0  0  0
156158  4  0  0  0  0
153159  4  0  0  0  0
158159  4  0  0  0  0
152160  4  0  0  0  0
160161  4  0  0  0  0
161162  2  0  0  0  0
145163  1  0  0  0  0
160163  4  0  0  0  0
162164  4  0  0  0  0
163164  4  0  0  0  0
129165  4  0  0  0  0
164165  4  0  0  0  0
165166  4  0  0  0  0
166167  4  0  0  0  0
167168  2  0  0  0  0
168169  4  0  0  0  0
145170  1  0  0  0  0
166170  4  0  0  0  0
169170  4  0  0  0  0
169171  4  0  0  0  0
171172  1  0  0  0  0
172173  4  0  0  0  0
173174  4  0  0  0  0
174175  4  0  0  0  0
175176  1  0  0  0  0
175177  4  0  0  0  0
172178  4  0  0  0  0
177178  4  0  0  0  0
171179  4  0  0  0  0
179180  4  0  0  0  0
180181  2  0  0  0  0
146182  4  0  0  0  0
181182  4  0  0  0  0
145183  1  0  0  0  0
179183  4  0  0  0  0
182183  4  0  0  0  0
148184  1  0  0  0  0
149185  1  0  0  0  0
154186  1  0  0  0  0
155187  1  0  0  0  0
157188  1  0  0  0  0
157189  1  0  0  0  0
158190  1  0  0  0  0
159191  1  0  0  0  0
161192  1  0  0  0  0
162193  1  0  0  0  0
167194  1  0  0  0  0
168195  1  0  0  0  0
173196  1  0  0  0  0
174197  1  0  0  0  0
176198  1  0  0  0  0
176199  1  0  0  0  0
177200  1  0  0  0  0
178201  1  0  0  0  0
180202  1  0  0  0  0
181203  1  0  0  0  0
136205  4  0  0  0  0
205206  4  0  0  0  0
206207  4  0  0  0  0
207208  2  0  0  0  0
208209  4  0  0  0  0
204210  1  0  0  0  0
206210  4  0  0  0  0
209210  4  0  0  0  0
209211  4  0  0  0  0
211212  1  0  0  0  0
212213  4  0  0  0  0
213214  4  0  0  0  0
214215  4  0  0  0  0
215216  1  0  0  0  0
215217  4  0  0  0  0
212218  4  0  0  0  0
217218  4  0  0  0  0
211219  4  0  0  0  0
219220  4  0  0  0  0
220221  2  0  0  0  0
204222  1  0  0  0  0
219222  4  0  0  0  0
221223  4  0  0  0  0
222223  4  0  0  0  0
137224  4  0  0  0  0
223224  4  0  0  0  0
224225  4  0  0  0  0
225226  4  0  0  0  0
226227  2  0  0  0  0
227228  4  0  0  0  0
204229  1  0  0  0  0
225229  4  0  0  0  0
228229  4  0  0  0  0
228230  4  0  0  0  0
230231  1  0  0  0  0
231232  4  0  0  0  0
232233  4  0  0  0  0
233234  4  0  0  0  0
234235  1  0  0  0  0
234236  4  0  0  0  0
231237  4  0  0  0  0
236237  4  0  0  0  0
230238  4  0  0  0  0
238239  4  0  0  0  0
239240  2  0  0  0  0
205241  4  0  0  0  0
240241  4  0  0  0  0
204242  1  0  0  0  0
238242  4  0  0  0  0
241242  4  0  0  0  0
207243  1  0  0  0  0
208244  1  0  0  0  0
213245  1  0  0  0  0
214246  1  0  0  0  0
216247  1  0  0  0  0
216248  1  0  0  0  0
217249  1  0  0  0  0
218250  1  0  0  0  0
220251  1  0  0  0  0
221252  1  0  0  0  0
226253  1  0  0  0  0
227254  1  0  0  0  0
232255  1  0  0  0  0
233256  1  0  0  0  0
235257  1  0  0  0  0
235258  1  0  0  0  0
236259  1  0  0  0  0
237260  1  0  0  0  0
239261  1  0  0  0  0
240262  1  0  0  0  0
M  END
