 xtb: 6.5.1 (b24c23e)
          07302210273D

326360  0     0  0            999 V2000
   56.4413   -0.0739   -0.1262 C   0  0  0  0  0  0  0  0  0  0  0  0
   57.0579   -1.2859   -0.4081 C   0  0  0  0  0  0  0  0  0  0  0  0
   56.4142   -2.5113   -0.7391 C   0  0  0  0  0  0  0  0  0  0  0  0
   57.3811   -3.4597   -0.9187 C   0  0  0  0  0  0  0  0  0  0  0  0
   58.6468   -2.8458   -0.6943 C   0  0  0  0  0  0  0  0  0  0  0  0
   58.4015   -1.5349   -0.4012 N   0  0  0  0  0  0  0  0  0  0  0  0
   59.9128   -3.4374   -0.7773 C   0  0  0  0  0  0  0  0  0  0  0  0
   59.9484   -4.8873   -1.0801 C   0  0  0  0  0  0  0  0  0  0  0  0
   60.5900   -5.3559   -2.2309 C   0  0  0  0  0  0  0  0  0  0  0  0
   60.6148   -6.7077   -2.5146 C   0  0  0  0  0  0  0  0  0  0  0  0
   60.0037   -7.6236   -1.6517 C   0  0  0  0  0  0  0  0  0  0  0  0
   60.0441   -9.0612   -1.9762 C   0  0  0  0  0  0  0  0  0  0  0  0
   60.5751   -9.5107   -2.9594 O   0  0  0  0  0  0  0  0  0  0  0  0
   59.3657   -7.1574   -0.4998 C   0  0  0  0  0  0  0  0  0  0  0  0
   59.3358   -5.8029   -0.2196 C   0  0  0  0  0  0  0  0  0  0  0  0
   61.1258   -2.7671   -0.5979 C   0  0  0  0  0  0  0  0  0  0  0  0
   62.4247   -3.4156   -0.6346 C   0  0  0  0  0  0  0  0  0  0  0  0
   63.3408   -2.4476   -0.4267 C   0  0  0  0  0  0  0  0  0  0  0  0
   61.2738   -1.4377   -0.3478 N   0  0  0  0  0  0  0  0  0  0  0  0
   62.6002   -1.2130   -0.2510 C   0  0  0  0  0  0  0  0  0  0  0  0
   63.2307    0.0268   -0.0250 C   0  0  0  0  0  0  0  0  0  0  0  0
   62.5884    1.2573    0.2080 C   0  0  0  0  0  0  0  0  0  0  0  0
   63.2262    2.5075    0.4257 C   0  0  0  0  0  0  0  0  0  0  0  0
   62.2547    3.4451    0.6402 C   0  0  0  0  0  0  0  0  0  0  0  0
   60.9922    2.7932    0.5670 C   0  0  0  0  0  0  0  0  0  0  0  0
   61.2456    1.4755    0.2937 N   0  0  0  0  0  0  0  0  0  0  0  0
   59.7266    3.3731    0.7103 C   0  0  0  0  0  0  0  0  0  0  0  0
   59.6874    4.8145    1.0467 C   0  0  0  0  0  0  0  0  0  0  0  0
   60.2826    5.2832    2.2225 C   0  0  0  0  0  0  0  0  0  0  0  0
   60.2378    6.6267    2.5404 C   0  0  0  0  0  0  0  0  0  0  0  0
   59.6019    7.5352    1.6876 C   0  0  0  0  0  0  0  0  0  0  0  0
   59.5678    8.9638    2.0494 C   0  0  0  0  0  0  0  0  0  0  0  0
   60.0663    9.4128    3.0498 O   0  0  0  0  0  0  0  0  0  0  0  0
   59.0111    7.0695    0.5104 C   0  0  0  0  0  0  0  0  0  0  0  0
   59.0519    5.7231    0.1951 C   0  0  0  0  0  0  0  0  0  0  0  0
   58.5121    2.6936    0.5616 C   0  0  0  0  0  0  0  0  0  0  0  0
   57.2040    3.2983    0.7630 C   0  0  0  0  0  0  0  0  0  0  0  0
   56.2955    2.3324    0.5208 C   0  0  0  0  0  0  0  0  0  0  0  0
   57.0471    1.1352    0.1875 C   0  0  0  0  0  0  0  0  0  0  0  0
   58.3786    1.3877    0.2317 N   0  0  0  0  0  0  0  0  0  0  0  0
   55.3563   -0.0843   -0.1496 H   0  0  0  0  0  0  0  0  0  0  0  0
   55.3471   -2.6362   -0.8302 H   0  0  0  0  0  0  0  0  0  0  0  0
   57.2367   -4.4922   -1.1924 H   0  0  0  0  0  0  0  0  0  0  0  0
   59.1217   -0.8465   -0.2095 H   0  0  0  0  0  0  0  0  0  0  0  0
   61.0527   -4.6475   -2.9086 H   0  0  0  0  0  0  0  0  0  0  0  0
   61.1045   -7.0784   -3.4086 H   0  0  0  0  0  0  0  0  0  0  0  0
   59.5383   -9.7110   -1.2305 H   0  0  0  0  0  0  0  0  0  0  0  0
   58.8931   -7.8612    0.1776 H   0  0  0  0  0  0  0  0  0  0  0  0
   58.8514   -5.4459    0.6824 H   0  0  0  0  0  0  0  0  0  0  0  0
   62.5910   -4.4698   -0.7854 H   0  0  0  0  0  0  0  0  0  0  0  0
   64.4144   -2.5356   -0.3822 H   0  0  0  0  0  0  0  0  0  0  0  0
   64.2933    2.6603    0.4138 H   0  0  0  0  0  0  0  0  0  0  0  0
   62.3966    4.4979    0.8219 H   0  0  0  0  0  0  0  0  0  0  0  0
   60.5272    0.7699    0.1689 H   0  0  0  0  0  0  0  0  0  0  0  0
   60.7622    4.5801    2.8941 H   0  0  0  0  0  0  0  0  0  0  0  0
   60.6905    6.9963    3.4543 H   0  0  0  0  0  0  0  0  0  0  0  0
   59.0378    9.6076    1.3154 H   0  0  0  0  0  0  0  0  0  0  0  0
   58.5201    7.7680   -0.1594 H   0  0  0  0  0  0  0  0  0  0  0  0
   58.6049    5.3673   -0.7262 H   0  0  0  0  0  0  0  0  0  0  0  0
   57.0291    4.3190    1.0628 H   0  0  0  0  0  0  0  0  0  0  0  0
   55.2194    2.3906    0.5664 H   0  0  0  0  0  0  0  0  0  0  0  0
  127.3025    0.0999   -0.0801 C   0  0  0  0  0  0  0  0  0  0  0  0
  126.6847    1.2644    0.3570 C   0  0  0  0  0  0  0  0  0  0  0  0
  127.3265    2.4734    0.7468 C   0  0  0  0  0  0  0  0  0  0  0  0
  126.3588    3.3610    1.1240 C   0  0  0  0  0  0  0  0  0  0  0  0
  125.0946    2.7195    0.9843 C   0  0  0  0  0  0  0  0  0  0  0  0
  125.3415    1.4629    0.5104 N   0  0  0  0  0  0  0  0  0  0  0  0
  123.8283    3.2567    1.2433 C   0  0  0  0  0  0  0  0  0  0  0  0
  123.7912    4.6369    1.7810 C   0  0  0  0  0  0  0  0  0  0  0  0
  123.1490    5.6576    1.0734 C   0  0  0  0  0  0  0  0  0  0  0  0
  123.1228    6.9446    1.5749 C   0  0  0  0  0  0  0  0  0  0  0  0
  123.7327    7.2403    2.7986 C   0  0  0  0  0  0  0  0  0  0  0  0
  123.6909    8.6212    3.3130 C   0  0  0  0  0  0  0  0  0  0  0  0
  123.1612    9.5353    2.7346 O   0  0  0  0  0  0  0  0  0  0  0  0
  124.3715    6.2207    3.5085 C   0  0  0  0  0  0  0  0  0  0  0  0
  124.4031    4.9336    3.0024 C   0  0  0  0  0  0  0  0  0  0  0  0
  122.6163    2.5933    1.0343 C   0  0  0  0  0  0  0  0  0  0  0  0
  121.3169    3.1561    1.3567 C   0  0  0  0  0  0  0  0  0  0  0  0
  120.4023    2.2256    1.0149 C   0  0  0  0  0  0  0  0  0  0  0  0
  122.4700    1.3379    0.5298 N   0  0  0  0  0  0  0  0  0  0  0  0
  121.1443    1.0919    0.4973 C   0  0  0  0  0  0  0  0  0  0  0  0
  120.5154   -0.0827    0.0384 C   0  0  0  0  0  0  0  0  0  0  0  0
  121.1583   -1.2454   -0.4255 C   0  0  0  0  0  0  0  0  0  0  0  0
  120.5208   -2.4216   -0.9024 C   0  0  0  0  0  0  0  0  0  0  0  0
  121.4934   -3.3171   -1.2505 C   0  0  0  0  0  0  0  0  0  0  0  0
  122.7565   -2.7168   -0.9883 C   0  0  0  0  0  0  0  0  0  0  0  0
  122.5019   -1.4636   -0.4984 N   0  0  0  0  0  0  0  0  0  0  0  0
  124.0230   -3.2670   -1.2149 C   0  0  0  0  0  0  0  0  0  0  0  0
  124.0664   -4.6545   -1.7305 C   0  0  0  0  0  0  0  0  0  0  0  0
  123.5016   -5.7027   -0.9968 C   0  0  0  0  0  0  0  0  0  0  0  0
  123.5508   -6.9970   -1.4771 C   0  0  0  0  0  0  0  0  0  0  0  0
  124.1609   -7.2739   -2.7052 C   0  0  0  0  0  0  0  0  0  0  0  0
  124.2007   -8.6633   -3.1958 C   0  0  0  0  0  0  0  0  0  0  0  0
  123.7285   -9.5974   -2.5998 O   0  0  0  0  0  0  0  0  0  0  0  0
  124.7216   -6.2273   -3.4414 C   0  0  0  0  0  0  0  0  0  0  0  0
  124.6764   -4.9322   -2.9575 C   0  0  0  0  0  0  0  0  0  0  0  0
  125.2362   -2.6053   -0.9925 C   0  0  0  0  0  0  0  0  0  0  0  0
  126.5460   -3.2104   -1.1814 C   0  0  0  0  0  0  0  0  0  0  0  0
  127.4528   -2.2636   -0.8677 C   0  0  0  0  0  0  0  0  0  0  0  0
  126.6987   -1.0864   -0.4742 C   0  0  0  0  0  0  0  0  0  0  0  0
  125.3674   -1.3320   -0.5531 N   0  0  0  0  0  0  0  0  0  0  0  0
  128.3872    0.1277   -0.1077 H   0  0  0  0  0  0  0  0  0  0  0  0
  128.3929    2.6322    0.7307 H   0  0  0  0  0  0  0  0  0  0  0  0
  126.5015    4.3751    1.4603 H   0  0  0  0  0  0  0  0  0  0  0  0
  124.6225    0.7791    0.2993 H   0  0  0  0  0  0  0  0  0  0  0  0
  122.6868    5.4345    0.1185 H   0  0  0  0  0  0  0  0  0  0  0  0
  122.6324    7.7433    1.0288 H   0  0  0  0  0  0  0  0  0  0  0  0
  124.1955    8.7577    4.2933 H   0  0  0  0  0  0  0  0  0  0  0  0
  124.8433    6.4402    4.4608 H   0  0  0  0  0  0  0  0  0  0  0  0
  124.8884    4.1419    3.5623 H   0  0  0  0  0  0  0  0  0  0  0  0
  121.1494    4.1257    1.7966 H   0  0  0  0  0  0  0  0  0  0  0  0
  119.3289    2.2728    1.1038 H   0  0  0  0  0  0  0  0  0  0  0  0
  119.4532   -2.5537   -0.9718 H   0  0  0  0  0  0  0  0  0  0  0  0
  121.3515   -4.3023   -1.6636 H   0  0  0  0  0  0  0  0  0  0  0  0
  123.2199   -0.7948   -0.2398 H   0  0  0  0  0  0  0  0  0  0  0  0
  123.0424   -5.4949   -0.0369 H   0  0  0  0  0  0  0  0  0  0  0  0
  123.1217   -7.8162   -0.9101 H   0  0  0  0  0  0  0  0  0  0  0  0
  124.7080   -8.7860   -4.1765 H   0  0  0  0  0  0  0  0  0  0  0  0
  125.1925   -6.4323   -4.3973 H   0  0  0  0  0  0  0  0  0  0  0  0
  125.1000   -4.1204   -3.5380 H   0  0  0  0  0  0  0  0  0  0  0  0
  126.7234   -4.2261   -1.4960 H   0  0  0  0  0  0  0  0  0  0  0  0
  128.5294   -2.3287   -0.8808 H   0  0  0  0  0  0  0  0  0  0  0  0
   68.4340    0.0974   -0.0443 C   0  0  0  0  0  0  0  0  0  0  0  0
   67.2059    0.0881   -0.0379 C   0  0  0  0  0  0  0  0  0  0  0  0
   65.8609    0.0718   -0.0319 C   0  0  0  0  0  0  0  0  0  0  0  0
   64.6374    0.0503   -0.0261 C   0  0  0  0  0  0  0  0  0  0  0  0
   69.7789    0.1011   -0.0492 C   0  0  0  0  0  0  0  0  0  0  0  0
   71.0027    0.0979   -0.0503 C   0  0  0  0  0  0  0  0  0  0  0  0
   84.4719   -0.0204   -0.0242 C   0  0  0  0  0  0  0  0  0  0  0  0
   83.2430   -0.0178   -0.0308 C   0  0  0  0  0  0  0  0  0  0  0  0
   81.8996   -0.0112   -0.0344 C   0  0  0  0  0  0  0  0  0  0  0  0
   80.6751   -0.0013   -0.0399 C   0  0  0  0  0  0  0  0  0  0  0  0
   85.8153   -0.0213   -0.0209 C   0  0  0  0  0  0  0  0  0  0  0  0
   87.0398   -0.0222   -0.0152 C   0  0  0  0  0  0  0  0  0  0  0  0
  100.5040   -0.0434   -0.0316 C   0  0  0  0  0  0  0  0  0  0  0  0
   99.2750   -0.0406   -0.0364 C   0  0  0  0  0  0  0  0  0  0  0  0
   97.9317   -0.0375   -0.0352 C   0  0  0  0  0  0  0  0  0  0  0  0
   96.7072   -0.0339   -0.0321 C   0  0  0  0  0  0  0  0  0  0  0  0
  101.8473   -0.0453   -0.0294 C   0  0  0  0  0  0  0  0  0  0  0  0
  103.0718   -0.0475   -0.0216 C   0  0  0  0  0  0  0  0  0  0  0  0
  116.5397   -0.1300    0.0311 C   0  0  0  0  0  0  0  0  0  0  0  0
  115.3116   -0.1294    0.0237 C   0  0  0  0  0  0  0  0  0  0  0  0
  113.9666   -0.1247    0.0183 C   0  0  0  0  0  0  0  0  0  0  0  0
  112.7430   -0.1128    0.0133 C   0  0  0  0  0  0  0  0  0  0  0  0
  117.8849   -0.1230    0.0362 C   0  0  0  0  0  0  0  0  0  0  0  0
  119.1084   -0.1084    0.0403 C   0  0  0  0  0  0  0  0  0  0  0  0
   72.4086    0.0870   -0.0500 C   0  0  0  0  0  0  0  0  0  0  0  0
   73.0443    1.0191   -0.8921 C   0  0  0  0  0  0  0  0  0  0  0  0
   72.4045    1.9413   -1.7601 C   0  0  0  0  0  0  0  0  0  0  0  0
   73.3764    2.6657   -2.3944 C   0  0  0  0  0  0  0  0  0  0  0  0
   74.6388    2.2127   -1.9229 C   0  0  0  0  0  0  0  0  0  0  0  0
   74.3874    1.2111   -1.0244 N   0  0  0  0  0  0  0  0  0  0  0  0
   75.9040    2.6731   -2.3093 C   0  0  0  0  0  0  0  0  0  0  0  0
   75.9305    3.7907   -3.2828 C   0  0  0  0  0  0  0  0  0  0  0  0
   76.5359    3.6245   -4.5323 C   0  0  0  0  0  0  0  0  0  0  0  0
   76.5613    4.6660   -5.4395 C   0  0  0  0  0  0  0  0  0  0  0  0
   75.9869    5.8999   -5.1167 C   0  0  0  0  0  0  0  0  0  0  0  0
   76.0329    6.9981   -6.0995 C   0  0  0  0  0  0  0  0  0  0  0  0
   76.5388    6.9009   -7.1880 O   0  0  0  0  0  0  0  0  0  0  0  0
   75.3827    6.0677   -3.8685 C   0  0  0  0  0  0  0  0  0  0  0  0
   75.3522    5.0222   -2.9627 C   0  0  0  0  0  0  0  0  0  0  0  0
   77.1253    2.1710   -1.8560 C   0  0  0  0  0  0  0  0  0  0  0  0
   78.4158    2.7218   -2.2308 C   0  0  0  0  0  0  0  0  0  0  0  0
   79.3467    1.9797   -1.5967 C   0  0  0  0  0  0  0  0  0  0  0  0
   77.2934    1.1293   -0.9956 N   0  0  0  0  0  0  0  0  0  0  0  0
   78.6236    0.9842   -0.8301 C   0  0  0  0  0  0  0  0  0  0  0  0
   79.2709    0.0111   -0.0421 C   0  0  0  0  0  0  0  0  0  0  0  0
   78.6342   -0.9613    0.7533 C   0  0  0  0  0  0  0  0  0  0  0  0
   79.2730   -1.9651    1.5263 C   0  0  0  0  0  0  0  0  0  0  0  0
   78.3011   -2.6923    2.1570 C   0  0  0  0  0  0  0  0  0  0  0  0
   77.0398   -2.1459    1.7939 C   0  0  0  0  0  0  0  0  0  0  0  0
   77.2918   -1.1090    0.9363 N   0  0  0  0  0  0  0  0  0  0  0  0
   75.7752   -2.5847    2.2053 C   0  0  0  0  0  0  0  0  0  0  0  0
   75.7502   -3.7114    3.1684 C   0  0  0  0  0  0  0  0  0  0  0  0
   75.1332   -4.9180    2.8266 C   0  0  0  0  0  0  0  0  0  0  0  0
   75.1117   -5.9725    3.7219 C   0  0  0  0  0  0  0  0  0  0  0  0
   75.7027   -5.8393    4.9806 C   0  0  0  0  0  0  0  0  0  0  0  0
   75.6928   -6.9472    5.9534 C   0  0  0  0  0  0  0  0  0  0  0  0
   76.1888   -6.8797    7.0486 O   0  0  0  0  0  0  0  0  0  0  0  0
   76.3169   -4.6306    5.3245 C   0  0  0  0  0  0  0  0  0  0  0  0
   76.3435   -3.5800    4.4277 C   0  0  0  0  0  0  0  0  0  0  0  0
   74.5539   -2.0506    1.7889 C   0  0  0  0  0  0  0  0  0  0  0  0
   73.2646   -2.4936    2.2896 C   0  0  0  0  0  0  0  0  0  0  0  0
   72.3335   -1.7488    1.6590 C   0  0  0  0  0  0  0  0  0  0  0  0
   73.0554   -0.8468    0.7834 C   0  0  0  0  0  0  0  0  0  0  0  0
   74.3858   -1.0430    0.8899 N   0  0  0  0  0  0  0  0  0  0  0  0
   71.3370    2.0279   -1.8826 H   0  0  0  0  0  0  0  0  0  0  0  0
   73.2329    3.4386   -3.1316 H   0  0  0  0  0  0  0  0  0  0  0  0
   75.1035    0.6841   -0.5358 H   0  0  0  0  0  0  0  0  0  0  0  0
   76.9719    2.6658   -4.7894 H   0  0  0  0  0  0  0  0  0  0  0  0
   77.0245    4.5434   -6.4126 H   0  0  0  0  0  0  0  0  0  0  0  0
   75.5573    7.9403   -5.7528 H   0  0  0  0  0  0  0  0  0  0  0  0
   74.9379    7.0227   -3.6084 H   0  0  0  0  0  0  0  0  0  0  0  0
   74.8952    5.1605   -1.9893 H   0  0  0  0  0  0  0  0  0  0  0  0
   78.5671    3.5700   -2.8785 H   0  0  0  0  0  0  0  0  0  0  0  0
   80.4199    2.0802   -1.6222 H   0  0  0  0  0  0  0  0  0  0  0  0
   80.3399   -2.1090    1.5823 H   0  0  0  0  0  0  0  0  0  0  0  0
   78.4433   -3.5388    2.8087 H   0  0  0  0  0  0  0  0  0  0  0  0
   76.5771   -0.5383    0.4973 H   0  0  0  0  0  0  0  0  0  0  0  0
   74.6844   -5.0282    1.8459 H   0  0  0  0  0  0  0  0  0  0  0  0
   74.6356   -6.9078    3.4459 H   0  0  0  0  0  0  0  0  0  0  0  0
   75.1822   -7.8657    5.5933 H   0  0  0  0  0  0  0  0  0  0  0  0
   76.7691   -4.5344    6.3058 H   0  0  0  0  0  0  0  0  0  0  0  0
   76.8087   -2.6401    4.7026 H   0  0  0  0  0  0  0  0  0  0  0  0
   73.1144   -3.2592    3.0333 H   0  0  0  0  0  0  0  0  0  0  0  0
   71.2610   -1.7807    1.7647 H   0  0  0  0  0  0  0  0  0  0  0  0
   88.4439   -0.0194   -0.0140 C   0  0  0  0  0  0  0  0  0  0  0  0
   89.0691    0.9082   -0.8702 C   0  0  0  0  0  0  0  0  0  0  0  0
   88.4177    1.8133   -1.7474 C   0  0  0  0  0  0  0  0  0  0  0  0
   89.3802    2.5480   -2.3844 C   0  0  0  0  0  0  0  0  0  0  0  0
   90.6478    2.1175   -1.9064 C   0  0  0  0  0  0  0  0  0  0  0  0
   90.4091    1.1182   -1.0015 N   0  0  0  0  0  0  0  0  0  0  0  0
   91.9069    2.5953   -2.2910 C   0  0  0  0  0  0  0  0  0  0  0  0
   91.9189    3.7123   -3.2656 C   0  0  0  0  0  0  0  0  0  0  0  0
   92.5272    3.5543   -4.5146 C   0  0  0  0  0  0  0  0  0  0  0  0
   92.5364    4.5953   -5.4228 C   0  0  0  0  0  0  0  0  0  0  0  0
   91.9430    5.8205   -5.1013 C   0  0  0  0  0  0  0  0  0  0  0  0
   91.9705    6.9177   -6.0861 C   0  0  0  0  0  0  0  0  0  0  0  0
   92.4781    6.8269   -7.1743 O   0  0  0  0  0  0  0  0  0  0  0  0
   91.3369    5.9804   -3.8530 C   0  0  0  0  0  0  0  0  0  0  0  0
   91.3222    4.9353   -2.9464 C   0  0  0  0  0  0  0  0  0  0  0  0
   93.1339    2.1098   -1.8351 C   0  0  0  0  0  0  0  0  0  0  0  0
   94.4182    2.6743   -2.2106 C   0  0  0  0  0  0  0  0  0  0  0  0
   95.3573    1.9408   -1.5783 C   0  0  0  0  0  0  0  0  0  0  0  0
   93.3133    1.0702   -0.9746 N   0  0  0  0  0  0  0  0  0  0  0  0
   94.6451    0.9378   -0.8114 C   0  0  0  0  0  0  0  0  0  0  0  0
   95.3030   -0.0304   -0.0260 C   0  0  0  0  0  0  0  0  0  0  0  0
   94.6776   -1.0049    0.7763 C   0  0  0  0  0  0  0  0  0  0  0  0
   95.3287   -2.0013    1.5483 C   0  0  0  0  0  0  0  0  0  0  0  0
   94.3663   -2.7306    2.1916 C   0  0  0  0  0  0  0  0  0  0  0  0
   93.0992   -2.1928    1.8372 C   0  0  0  0  0  0  0  0  0  0  0  0
   93.3378   -1.1594    0.9715 N   0  0  0  0  0  0  0  0  0  0  0  0
   91.8401   -2.6350    2.2630 C   0  0  0  0  0  0  0  0  0  0  0  0
   91.8296   -3.7532    3.2360 C   0  0  0  0  0  0  0  0  0  0  0  0
   91.2126   -4.9648    2.9120 C   0  0  0  0  0  0  0  0  0  0  0  0
   91.2062   -6.0121    3.8160 C   0  0  0  0  0  0  0  0  0  0  0  0
   91.8126   -5.8666    5.0660 C   0  0  0  0  0  0  0  0  0  0  0  0
   91.8193   -6.9667    6.0478 C   0  0  0  0  0  0  0  0  0  0  0  0
   92.3295   -6.8885    7.1359 O   0  0  0  0  0  0  0  0  0  0  0  0
   92.4266   -4.6529    5.3924 C   0  0  0  0  0  0  0  0  0  0  0  0
   92.4379   -3.6095    4.4869 C   0  0  0  0  0  0  0  0  0  0  0  0
   90.6133   -2.1119    1.8503 C   0  0  0  0  0  0  0  0  0  0  0  0
   89.3295   -2.5557    2.3638 C   0  0  0  0  0  0  0  0  0  0  0  0
   88.3904   -1.8262    1.7270 C   0  0  0  0  0  0  0  0  0  0  0  0
   89.1022   -0.9324    0.8348 C   0  0  0  0  0  0  0  0  0  0  0  0
   90.4336   -1.1172    0.9382 N   0  0  0  0  0  0  0  0  0  0  0  0
   87.3494    1.8832   -1.8731 H   0  0  0  0  0  0  0  0  0  0  0  0
   89.2272    3.3133   -3.1275 H   0  0  0  0  0  0  0  0  0  0  0  0
   91.1325    0.6067   -0.5071 H   0  0  0  0  0  0  0  0  0  0  0  0
   92.9776    2.6022   -4.7710 H   0  0  0  0  0  0  0  0  0  0  0  0
   93.0012    4.4790   -6.3960 H   0  0  0  0  0  0  0  0  0  0  0  0
   91.4786    7.8522   -5.7413 H   0  0  0  0  0  0  0  0  0  0  0  0
   90.8778    6.9288   -3.5936 H   0  0  0  0  0  0  0  0  0  0  0  0
   90.8629    5.0673   -1.9731 H   0  0  0  0  0  0  0  0  0  0  0  0
   94.5599    3.5244   -2.8578 H   0  0  0  0  0  0  0  0  0  0  0  0
   96.4293    2.0520   -1.6050 H   0  0  0  0  0  0  0  0  0  0  0  0
   96.3967   -2.1392    1.5955 H   0  0  0  0  0  0  0  0  0  0  0  0
   94.5193   -3.5730    2.8461 H   0  0  0  0  0  0  0  0  0  0  0  0
   92.6147   -0.5958    0.5370 H   0  0  0  0  0  0  0  0  0  0  0  0
   90.7526   -5.0849    1.9377 H   0  0  0  0  0  0  0  0  0  0  0  0
   90.7305   -6.9514    3.5534 H   0  0  0  0  0  0  0  0  0  0  0  0
   91.3095   -7.8907    5.7009 H   0  0  0  0  0  0  0  0  0  0  0  0
   92.8905   -4.5470    6.3672 H   0  0  0  0  0  0  0  0  0  0  0  0
   92.9030   -2.6657    4.7485 H   0  0  0  0  0  0  0  0  0  0  0  0
   89.1880   -3.3113    3.1194 H   0  0  0  0  0  0  0  0  0  0  0  0
   87.3186   -1.8634    1.8383 H   0  0  0  0  0  0  0  0  0  0  0  0
  104.4760   -0.0514   -0.0126 C   0  0  0  0  0  0  0  0  0  0  0  0
  105.1111    0.8760   -0.8613 C   0  0  0  0  0  0  0  0  0  0  0  0
  104.4704    1.7880   -1.7394 C   0  0  0  0  0  0  0  0  0  0  0  0
  105.4410    2.5214   -2.3652 C   0  0  0  0  0  0  0  0  0  0  0  0
  106.7032    2.0836   -1.8790 C   0  0  0  0  0  0  0  0  0  0  0  0
  106.4530    1.0808   -0.9811 N   0  0  0  0  0  0  0  0  0  0  0  0
  107.9668    2.5594   -2.2500 C   0  0  0  0  0  0  0  0  0  0  0  0
  107.9905    3.6806   -3.2194 C   0  0  0  0  0  0  0  0  0  0  0  0
  108.6091    3.5255   -4.4637 C   0  0  0  0  0  0  0  0  0  0  0  0
  108.6266    4.5688   -5.3691 C   0  0  0  0  0  0  0  0  0  0  0  0
  108.0315    5.7936   -5.0492 C   0  0  0  0  0  0  0  0  0  0  0  0
  108.0653    6.8923   -6.0322 C   0  0  0  0  0  0  0  0  0  0  0  0
  108.5777    6.8023   -7.1182 O   0  0  0  0  0  0  0  0  0  0  0  0
  107.4165    5.9512   -3.8050 C   0  0  0  0  0  0  0  0  0  0  0  0
  107.3934    4.9037   -2.9013 C   0  0  0  0  0  0  0  0  0  0  0  0
  109.1889    2.0672   -1.7866 C   0  0  0  0  0  0  0  0  0  0  0  0
  110.4777    2.6318   -2.1469 C   0  0  0  0  0  0  0  0  0  0  0  0
  111.4099    1.8898   -1.5147 C   0  0  0  0  0  0  0  0  0  0  0  0
  109.3583    1.0198   -0.9348 N   0  0  0  0  0  0  0  0  0  0  0  0
  110.6893    0.8811   -0.7631 C   0  0  0  0  0  0  0  0  0  0  0  0
  111.3369   -0.1010    0.0116 C   0  0  0  0  0  0  0  0  0  0  0  0
  110.7019   -1.0819    0.7969 C   0  0  0  0  0  0  0  0  0  0  0  0
  111.3421   -2.0911    1.5618 C   0  0  0  0  0  0  0  0  0  0  0  0
  110.3718   -2.8158    2.1978 C   0  0  0  0  0  0  0  0  0  0  0  0
  109.1102   -2.2630    1.8456 C   0  0  0  0  0  0  0  0  0  0  0  0
  109.3598   -1.2263    0.9876 N   0  0  0  0  0  0  0  0  0  0  0  0
  107.8468   -2.6953    2.2691 C   0  0  0  0  0  0  0  0  0  0  0  0
  107.8261   -3.8137    3.2415 C   0  0  0  0  0  0  0  0  0  0  0  0
  107.1961   -5.0191    2.9192 C   0  0  0  0  0  0  0  0  0  0  0  0
  107.1787   -6.0651    3.8246 C   0  0  0  0  0  0  0  0  0  0  0  0
  107.7873   -5.9246    5.0740 C   0  0  0  0  0  0  0  0  0  0  0  0
  107.7810   -7.0225    6.0584 C   0  0  0  0  0  0  0  0  0  0  0  0
  108.2916   -6.9476    7.1467 O   0  0  0  0  0  0  0  0  0  0  0  0
  108.4156   -4.7176    5.3982 C   0  0  0  0  0  0  0  0  0  0  0  0
  108.4376   -3.6755    4.4915 C   0  0  0  0  0  0  0  0  0  0  0  0
  106.6249   -2.1613    1.8556 C   0  0  0  0  0  0  0  0  0  0  0  0
  105.3364   -2.5970    2.3647 C   0  0  0  0  0  0  0  0  0  0  0  0
  104.4042   -1.8608    1.7254 C   0  0  0  0  0  0  0  0  0  0  0  0
  105.1249   -0.9702    0.8371 C   0  0  0  0  0  0  0  0  0  0  0  0
  106.4548   -1.1638    0.9448 N   0  0  0  0  0  0  0  0  0  0  0  0
  103.4034    1.8629   -1.8731 H   0  0  0  0  0  0  0  0  0  0  0  0
  105.2971    3.2910   -3.1058 H   0  0  0  0  0  0  0  0  0  0  0  0
  107.1692    0.5629   -0.4829 H   0  0  0  0  0  0  0  0  0  0  0  0
  109.0606    2.5735   -4.7190 H   0  0  0  0  0  0  0  0  0  0  0  0
  109.0988    4.4544   -6.3389 H   0  0  0  0  0  0  0  0  0  0  0  0
  107.5724    7.8267   -5.6887 H   0  0  0  0  0  0  0  0  0  0  0  0
  106.9566    6.8995   -3.5467 H   0  0  0  0  0  0  0  0  0  0  0  0
  106.9268    5.0337   -1.9313 H   0  0  0  0  0  0  0  0  0  0  0  0
  110.6265    3.4877   -2.7848 H   0  0  0  0  0  0  0  0  0  0  0  0
  112.4825    1.9979   -1.5323 H   0  0  0  0  0  0  0  0  0  0  0  0
  112.4087   -2.2395    1.6099 H   0  0  0  0  0  0  0  0  0  0  0  0
  110.5154   -3.6647    2.8460 H   0  0  0  0  0  0  0  0  0  0  0  0
  108.6441   -0.6510    0.5563 H   0  0  0  0  0  0  0  0  0  0  0  0
  106.7342   -5.1354    1.9453 H   0  0  0  0  0  0  0  0  0  0  0  0
  106.6926   -6.9994    3.5633 H   0  0  0  0  0  0  0  0  0  0  0  0
  107.2612   -7.9416    5.7132 H   0  0  0  0  0  0  0  0  0  0  0  0
  108.8817   -4.6158    6.3724 H   0  0  0  0  0  0  0  0  0  0  0  0
  108.9132   -2.7366    4.7517 H   0  0  0  0  0  0  0  0  0  0  0  0
  105.1873   -3.3523    3.1191 H   0  0  0  0  0  0  0  0  0  0  0  0
  103.3319   -1.8913    1.8330 H   0  0  0  0  0  0  0  0  0  0  0  0
  1  2  4  0  0  0  0
  2  3  4  0  0  0  0
  3  4  2  0  0  0  0
  4  5  4  0  0  0  0
  2  6  4  0  0  0  0
  5  6  4  0  0  0  0
  5  7  4  0  0  0  0
  7  8  1  0  0  0  0
  8  9  4  0  0  0  0
  9 10  4  0  0  0  0
 10 11  4  0  0  0  0
 11 12  1  0  0  0  0
 12 13  2  0  0  0  0
 11 14  4  0  0  0  0
  8 15  4  0  0  0  0
 14 15  4  0  0  0  0
  7 16  4  0  0  0  0
 16 17  1  0  0  0  0
 17 18  2  0  0  0  0
 16 19  4  0  0  0  0
 18 20  1  0  0  0  0
 19 20  4  0  0  0  0
 20 21  4  0  0  0  0
 21 22  4  0  0  0  0
 22 23  4  0  0  0  0
 23 24  2  0  0  0  0
 24 25  4  0  0  0  0
 22 26  4  0  0  0  0
 25 26  4  0  0  0  0
 25 27  4  0  0  0  0
 27 28  1  0  0  0  0
 28 29  4  0  0  0  0
 29 30  4  0  0  0  0
 30 31  4  0  0  0  0
 31 32  1  0  0  0  0
 32 33  2  0  0  0  0
 31 34  4  0  0  0  0
 28 35  4  0  0  0  0
 34 35  4  0  0  0  0
 27 36  4  0  0  0  0
 36 37  1  0  0  0  0
 37 38  2  0  0  0  0
  1 39  4  0  0  0  0
 38 39  1  0  0  0  0
 36 40  4  0  0  0  0
 39 40  4  0  0  0  0
  1 41  1  0  0  0  0
  3 42  1  0  0  0  0
  4 43  1  0  0  0  0
  6 44  1  0  0  0  0
  9 45  1  0  0  0  0
 10 46  1  0  0  0  0
 12 47  1  0  0  0  0
 14 48  1  0  0  0  0
 15 49  1  0  0  0  0
 17 50  1  0  0  0  0
 18 51  1  0  0  0  0
 23 52  1  0  0  0  0
 24 53  1  0  0  0  0
 26 54  1  0  0  0  0
 29 55  1  0  0  0  0
 30 56  1  0  0  0  0
 32 57  1  0  0  0  0
 34 58  1  0  0  0  0
 35 59  1  0  0  0  0
 37 60  1  0  0  0  0
 38 61  1  0  0  0  0
 62 63  4  0  0  0  0
 63 64  4  0  0  0  0
 64 65  2  0  0  0  0
 65 66  4  0  0  0  0
 63 67  4  0  0  0  0
 66 67  4  0  0  0  0
 66 68  4  0  0  0  0
 68 69  1  0  0  0  0
 69 70  4  0  0  0  0
 70 71  4  0  0  0  0
 71 72  4  0  0  0  0
 72 73  1  0  0  0  0
 73 74  2  0  0  0  0
 72 75  4  0  0  0  0
 69 76  4  0  0  0  0
 75 76  4  0  0  0  0
 68 77  4  0  0  0  0
 77 78  1  0  0  0  0
 78 79  2  0  0  0  0
 77 80  4  0  0  0  0
 79 81  1  0  0  0  0
 80 81  4  0  0  0  0
 81 82  4  0  0  0  0
 82 83  4  0  0  0  0
 83 84  4  0  0  0  0
 84 85  2  0  0  0  0
 85 86  4  0  0  0  0
 83 87  4  0  0  0  0
 86 87  4  0  0  0  0
 86 88  4  0  0  0  0
 88 89  1  0  0  0  0
 89 90  4  0  0  0  0
 90 91  4  0  0  0  0
 91 92  4  0  0  0  0
 92 93  1  0  0  0  0
 93 94  2  0  0  0  0
 92 95  4  0  0  0  0
 89 96  4  0  0  0  0
 95 96  4  0  0  0  0
 88 97  4  0  0  0  0
 97 98  1  0  0  0  0
 98 99  2  0  0  0  0
 62100  4  0  0  0  0
 99100  1  0  0  0  0
 97101  4  0  0  0  0
100101  4  0  0  0  0
 62102  1  0  0  0  0
 64103  1  0  0  0  0
 65104  1  0  0  0  0
 67105  1  0  0  0  0
 70106  1  0  0  0  0
 71107  1  0  0  0  0
 73108  1  0  0  0  0
 75109  1  0  0  0  0
 76110  1  0  0  0  0
 78111  1  0  0  0  0
 79112  1  0  0  0  0
 84113  1  0  0  0  0
 85114  1  0  0  0  0
 87115  1  0  0  0  0
 90116  1  0  0  0  0
 91117  1  0  0  0  0
 93118  1  0  0  0  0
 95119  1  0  0  0  0
 96120  1  0  0  0  0
 98121  1  0  0  0  0
 99122  1  0  0  0  0
123124  3  0  0  0  0
124125  4  0  0  0  0
 21126  4  0  0  0  0
125126  3  0  0  0  0
123127  4  0  0  0  0
127128  3  0  0  0  0
129130  3  0  0  0  0
130131  4  0  0  0  0
131132  3  0  0  0  0
129133  4  0  0  0  0
133134  3  0  0  0  0
135136  3  0  0  0  0
136137  4  0  0  0  0
137138  3  0  0  0  0
135139  4  0  0  0  0
139140  3  0  0  0  0
141142  3  0  0  0  0
142143  4  0  0  0  0
143144  3  0  0  0  0
141145  4  0  0  0  0
 82146  4  0  0  0  0
145146  3  0  0  0  0
128147  4  0  0  0  0
147148  4  0  0  0  0
148149  4  0  0  0  0
149150  2  0  0  0  0
150151  4  0  0  0  0
148152  4  0  0  0  0
151152  4  0  0  0  0
151153  4  0  0  0  0
153154  1  0  0  0  0
154155  4  0  0  0  0
155156  4  0  0  0  0
156157  4  0  0  0  0
157158  1  0  0  0  0
158159  2  0  0  0  0
157160  4  0  0  0  0
154161  4  0  0  0  0
160161  4  0  0  0  0
153162  4  0  0  0  0
162163  1  0  0  0  0
163164  2  0  0  0  0
162165  4  0  0  0  0
164166  1  0  0  0  0
165166  4  0  0  0  0
132167  4  0  0  0  0
166167  4  0  0  0  0
167168  4  0  0  0  0
168169  4  0  0  0  0
169170  2  0  0  0  0
170171  4  0  0  0  0
168172  4  0  0  0  0
171172  4  0  0  0  0
171173  4  0  0  0  0
173174  1  0  0  0  0
174175  4  0  0  0  0
175176  4  0  0  0  0
176177  4  0  0  0  0
177178  1  0  0  0  0
178179  2  0  0  0  0
177180  4  0  0  0  0
174181  4  0  0  0  0
180181  4  0  0  0  0
173182  4  0  0  0  0
182183  1  0  0  0  0
183184  2  0  0  0  0
147185  4  0  0  0  0
184185  1  0  0  0  0
182186  4  0  0  0  0
185186  4  0  0  0  0
149187  1  0  0  0  0
150188  1  0  0  0  0
152189  1  0  0  0  0
155190  1  0  0  0  0
156191  1  0  0  0  0
158192  1  0  0  0  0
160193  1  0  0  0  0
161194  1  0  0  0  0
163195  1  0  0  0  0
164196  1  0  0  0  0
169197  1  0  0  0  0
170198  1  0  0  0  0
172199  1  0  0  0  0
175200  1  0  0  0  0
176201  1  0  0  0  0
178202  1  0  0  0  0
180203  1  0  0  0  0
181204  1  0  0  0  0
183205  1  0  0  0  0
184206  1  0  0  0  0
134207  4  0  0  0  0
207208  4  0  0  0  0
208209  4  0  0  0  0
209210  2  0  0  0  0
210211  4  0  0  0  0
208212  4  0  0  0  0
211212  4  0  0  0  0
211213  4  0  0  0  0
213214  1  0  0  0  0
214215  4  0  0  0  0
215216  4  0  0  0  0
216217  4  0  0  0  0
217218  1  0  0  0  0
218219  2  0  0  0  0
217220  4  0  0  0  0
214221  4  0  0  0  0
220221  4  0  0  0  0
213222  4  0  0  0  0
222223  1  0  0  0  0
223224  2  0  0  0  0
222225  4  0  0  0  0
224226  1  0  0  0  0
225226  4  0  0  0  0
138227  4  0  0  0  0
226227  4  0  0  0  0
227228  4  0  0  0  0
228229  4  0  0  0  0
229230  2  0  0  0  0
230231  4  0  0  0  0
228232  4  0  0  0  0
231232  4  0  0  0  0
231233  4  0  0  0  0
233234  1  0  0  0  0
234235  4  0  0  0  0
235236  4  0  0  0  0
236237  4  0  0  0  0
237238  1  0  0  0  0
238239  2  0  0  0  0
237240  4  0  0  0  0
234241  4  0  0  0  0
240241  4  0  0  0  0
233242  4  0  0  0  0
242243  1  0  0  0  0
243244  2  0  0  0  0
207245  4  0  0  0  0
244245  1  0  0  0  0
242246  4  0  0  0  0
245246  4  0  0  0  0
209247  1  0  0  0  0
210248  1  0  0  0  0
212249  1  0  0  0  0
215250  1  0  0  0  0
216251  1  0  0  0  0
218252  1  0  0  0  0
220253  1  0  0  0  0
221254  1  0  0  0  0
223255  1  0  0  0  0
224256  1  0  0  0  0
229257  1  0  0  0  0
230258  1  0  0  0  0
232259  1  0  0  0  0
235260  1  0  0  0  0
236261  1  0  0  0  0
238262  1  0  0  0  0
240263  1  0  0  0  0
241264  1  0  0  0  0
243265  1  0  0  0  0
244266  1  0  0  0  0
140267  4  0  0  0  0
267268  4  0  0  0  0
268269  4  0  0  0  0
269270  2  0  0  0  0
270271  4  0  0  0  0
268272  4  0  0  0  0
271272  4  0  0  0  0
271273  4  0  0  0  0
273274  1  0  0  0  0
274275  4  0  0  0  0
275276  4  0  0  0  0
276277  4  0  0  0  0
277278  1  0  0  0  0
278279  2  0  0  0  0
277280  4  0  0  0  0
274281  4  0  0  0  0
280281  4  0  0  0  0
273282  4  0  0  0  0
282283  1  0  0  0  0
283284  2  0  0  0  0
282285  4  0  0  0  0
284286  1  0  0  0  0
285286  4  0  0  0  0
144287  4  0  0  0  0
286287  4  0  0  0  0
287288  4  0  0  0  0
288289  4  0  0  0  0
289290  2  0  0  0  0
290291  4  0  0  0  0
288292  4  0  0  0  0
291292  4  0  0  0  0
291293  4  0  0  0  0
293294  1  0  0  0  0
294295  4  0  0  0  0
295296  4  0  0  0  0
296297  4  0  0  0  0
297298  1  0  0  0  0
298299  2  0  0  0  0
297300  4  0  0  0  0
294301  4  0  0  0  0
300301  4  0  0  0  0
293302  4  0  0  0  0
302303  1  0  0  0  0
303304  2  0  0  0  0
267305  4  0  0  0  0
304305  1  0  0  0  0
302306  4  0  0  0  0
305306  4  0  0  0  0
269307  1  0  0  0  0
270308  1  0  0  0  0
272309  1  0  0  0  0
275310  1  0  0  0  0
276311  1  0  0  0  0
278312  1  0  0  0  0
280313  1  0  0  0  0
281314  1  0  0  0  0
283315  1  0  0  0  0
284316  1  0  0  0  0
289317  1  0  0  0  0
290318  1  0  0  0  0
292319  1  0  0  0  0
295320  1  0  0  0  0
296321  1  0  0  0  0
298322  1  0  0  0  0
300323  1  0  0  0  0
301324  1  0  0  0  0
303325  1  0  0  0  0
304326  1  0  0  0  0
M  END
