 xtb: 6.5.1 (b24c23e)
          07302211403D

120139  0     0  0            999 V2000
   11.4705   -0.0314   -0.0055 Zn  0  0  0  0  0  0  0  0  0  0  0  0
    8.0595   -0.0600   -0.0225 C   0  0  0  0  0  0  0  0  0  0  0  0
    8.6891   -1.2974   -0.0856 C   0  0  0  0  0  0  0  0  0  0  0  0
    8.0155   -2.5652   -0.1211 C   0  0  0  0  0  0  0  0  0  0  0  0
    8.9747   -3.5236   -0.1634 C   0  0  0  0  0  0  0  0  0  0  0  0
   10.2472   -2.8519   -0.1632 C   0  0  0  0  0  0  0  0  0  0  0  0
   10.0385   -1.5048   -0.1085 N   0  0  0  0  0  0  0  0  0  0  0  0
   11.4981   -3.4805   -0.1866 C   0  0  0  0  0  0  0  0  0  0  0  0
   12.7370   -2.8328   -0.1453 C   0  0  0  0  0  0  0  0  0  0  0  0
   14.0161   -3.4833   -0.2187 C   0  0  0  0  0  0  0  0  0  0  0  0
   14.9629   -2.5123   -0.1628 C   0  0  0  0  0  0  0  0  0  0  0  0
   12.9317   -1.4797   -0.0586 N   0  0  0  0  0  0  0  0  0  0  0  0
   14.2732   -1.2596   -0.0625 C   0  0  0  0  0  0  0  0  0  0  0  0
   14.9050   -0.0011    0.0076 C   0  0  0  0  0  0  0  0  0  0  0  0
   14.2513    1.2461    0.0768 C   0  0  0  0  0  0  0  0  0  0  0  0
   14.9190    2.5140    0.1176 C   0  0  0  0  0  0  0  0  0  0  0  0
   13.9552    3.4688    0.1641 C   0  0  0  0  0  0  0  0  0  0  0  0
   12.6875    2.7921    0.1601 C   0  0  0  0  0  0  0  0  0  0  0  0
   11.4373    3.4186    0.1820 C   0  0  0  0  0  0  0  0  0  0  0  0
   11.4221    4.9016    0.2628 C   0  0  0  0  0  0  0  0  0  0  0  0
   10.8807    5.6605   -0.7756 C   0  0  0  0  0  0  0  0  0  0  0  0
   10.8680    7.0453   -0.6998 C   0  0  0  0  0  0  0  0  0  0  0  0
   11.3897    7.6883    0.4146 C   0  0  0  0  0  0  0  0  0  0  0  0
   11.9283    6.9402    1.4529 C   0  0  0  0  0  0  0  0  0  0  0  0
   11.9478    5.5555    1.3779 C   0  0  0  0  0  0  0  0  0  0  0  0
   10.1977    2.7691    0.1336 C   0  0  0  0  0  0  0  0  0  0  0  0
    8.9134    3.4150    0.1998 C   0  0  0  0  0  0  0  0  0  0  0  0
    7.9713    2.4408    0.1392 C   0  0  0  0  0  0  0  0  0  0  0  0
    8.6672    1.1881    0.0440 C   0  0  0  0  0  0  0  0  0  0  0  0
   10.0128    1.4203    0.0463 N   0  0  0  0  0  0  0  0  0  0  0  0
   12.9060    1.4411    0.1000 N   0  0  0  0  0  0  0  0  0  0  0  0
   11.5105   -4.9639   -0.2599 C   0  0  0  0  0  0  0  0  0  0  0  0
   10.9772   -5.6228   -1.3683 C   0  0  0  0  0  0  0  0  0  0  0  0
   10.9915   -7.0080   -1.4347 C   0  0  0  0  0  0  0  0  0  0  0  0
   11.5322   -7.7514   -0.3942 C   0  0  0  0  0  0  0  0  0  0  0  0
   12.0637   -7.1033    0.7125 C   0  0  0  0  0  0  0  0  0  0  0  0
   12.0560   -5.7181    0.7798 C   0  0  0  0  0  0  0  0  0  0  0  0
    6.9738   -0.0701   -0.0139 H   0  0  0  0  0  0  0  0  0  0  0  0
    6.9444   -2.6940   -0.1074 H   0  0  0  0  0  0  0  0  0  0  0  0
    8.8380   -4.5931   -0.1814 H   0  0  0  0  0  0  0  0  0  0  0  0
   14.1681   -4.5464   -0.3142 H   0  0  0  0  0  0  0  0  0  0  0  0
   16.0348   -2.6263   -0.1932 H   0  0  0  0  0  0  0  0  0  0  0  0
   15.9889    2.6487    0.1048 H   0  0  0  0  0  0  0  0  0  0  0  0
   14.0886    4.5384    0.1864 H   0  0  0  0  0  0  0  0  0  0  0  0
   10.4830    5.1602   -1.6516 H   0  0  0  0  0  0  0  0  0  0  0  0
   10.4493    7.6250   -1.5149 H   0  0  0  0  0  0  0  0  0  0  0  0
   11.3767    8.7707    0.4738 H   0  0  0  0  0  0  0  0  0  0  0  0
   12.3350    7.4376    2.3265 H   0  0  0  0  0  0  0  0  0  0  0  0
   12.3589    4.9724    2.1945 H   0  0  0  0  0  0  0  0  0  0  0  0
    8.7577    4.4779    0.2933 H   0  0  0  0  0  0  0  0  0  0  0  0
    6.8981    2.5488    0.1632 H   0  0  0  0  0  0  0  0  0  0  0  0
   10.5649   -5.0433   -2.1872 H   0  0  0  0  0  0  0  0  0  0  0  0
   10.5786   -7.5094   -2.3033 H   0  0  0  0  0  0  0  0  0  0  0  0
   11.5400   -8.8342   -0.4462 H   0  0  0  0  0  0  0  0  0  0  0  0
   12.4842   -7.6793    1.5289 H   0  0  0  0  0  0  0  0  0  0  0  0
   12.4611   -5.2133    1.6498 H   0  0  0  0  0  0  0  0  0  0  0  0
   30.0819    0.0283   -0.0040 Zn  0  0  0  0  0  0  0  0  0  0  0  0
   33.4928    0.0587   -0.0209 C   0  0  0  0  0  0  0  0  0  0  0  0
   32.8631    1.2976   -0.0285 C   0  0  0  0  0  0  0  0  0  0  0  0
   33.5365    2.5659   -0.0070 C   0  0  0  0  0  0  0  0  0  0  0  0
   32.5771    3.5250   -0.0068 C   0  0  0  0  0  0  0  0  0  0  0  0
   31.3048    2.8536   -0.0375 C   0  0  0  0  0  0  0  0  0  0  0  0
   31.5137    1.5055   -0.0426 N   0  0  0  0  0  0  0  0  0  0  0  0
   30.0536    3.4822   -0.0350 C   0  0  0  0  0  0  0  0  0  0  0  0
   28.8149    2.8327   -0.0236 C   0  0  0  0  0  0  0  0  0  0  0  0
   27.5357    3.4852   -0.0711 C   0  0  0  0  0  0  0  0  0  0  0  0
   26.5892    2.5123   -0.0578 C   0  0  0  0  0  0  0  0  0  0  0  0
   28.6207    1.4770    0.0050 N   0  0  0  0  0  0  0  0  0  0  0  0
   27.2793    1.2568   -0.0100 C   0  0  0  0  0  0  0  0  0  0  0  0
   26.6476   -0.0037    0.0063 C   0  0  0  0  0  0  0  0  0  0  0  0
   27.3012   -1.2526    0.0230 C   0  0  0  0  0  0  0  0  0  0  0  0
   26.6338   -2.5213    0.0108 C   0  0  0  0  0  0  0  0  0  0  0  0
   27.5978   -3.4769    0.0165 C   0  0  0  0  0  0  0  0  0  0  0  0
   28.8653   -2.8003    0.0402 C   0  0  0  0  0  0  0  0  0  0  0  0
   30.1158   -3.4267    0.0339 C   0  0  0  0  0  0  0  0  0  0  0  0
   30.1321   -4.9118    0.0499 C   0  0  0  0  0  0  0  0  0  0  0  0
   30.6736   -5.6242   -1.0209 C   0  0  0  0  0  0  0  0  0  0  0  0
   30.6878   -7.0109   -1.0057 C   0  0  0  0  0  0  0  0  0  0  0  0
   30.1676   -7.7024    0.0799 C   0  0  0  0  0  0  0  0  0  0  0  0
   29.6289   -7.0010    1.1502 C   0  0  0  0  0  0  0  0  0  0  0  0
   29.6078   -5.6144    1.1357 C   0  0  0  0  0  0  0  0  0  0  0  0
   31.3551   -2.7751    0.0127 C   0  0  0  0  0  0  0  0  0  0  0  0
   32.6396   -3.4228    0.0494 C   0  0  0  0  0  0  0  0  0  0  0  0
   33.5815   -2.4467    0.0304 C   0  0  0  0  0  0  0  0  0  0  0  0
   32.8852   -1.1912   -0.0092 C   0  0  0  0  0  0  0  0  0  0  0  0
   31.5396   -1.4237   -0.0159 N   0  0  0  0  0  0  0  0  0  0  0  0
   28.6465   -1.4482    0.0375 N   0  0  0  0  0  0  0  0  0  0  0  0
   30.0405    4.9673   -0.0440 C   0  0  0  0  0  0  0  0  0  0  0  0
   30.5784    5.6740   -1.1204 C   0  0  0  0  0  0  0  0  0  0  0  0
   30.5634    7.0607   -1.1268 C   0  0  0  0  0  0  0  0  0  0  0  0
   30.0176    7.7580   -0.0576 C   0  0  0  0  0  0  0  0  0  0  0  0
   29.4814    7.0623    1.0176 C   0  0  0  0  0  0  0  0  0  0  0  0
   29.4898    5.6755    1.0249 C   0  0  0  0  0  0  0  0  0  0  0  0
   34.5784    0.0683   -0.0125 H   0  0  0  0  0  0  0  0  0  0  0  0
   34.6075    2.6942    0.0130 H   0  0  0  0  0  0  0  0  0  0  0  0
   32.7135    4.5942    0.0234 H   0  0  0  0  0  0  0  0  0  0  0  0
   27.3833    4.5513   -0.1216 H   0  0  0  0  0  0  0  0  0  0  0  0
   25.5173    2.6270   -0.0849 H   0  0  0  0  0  0  0  0  0  0  0  0
   25.5638   -2.6555   -0.0069 H   0  0  0  0  0  0  0  0  0  0  0  0
   27.4646   -4.5466   -0.0060 H   0  0  0  0  0  0  0  0  0  0  0  0
   31.0701   -5.0856   -1.8745 H   0  0  0  0  0  0  0  0  0  0  0  0
   31.1066   -7.5540   -1.8456 H   0  0  0  0  0  0  0  0  0  0  0  0
   30.1820   -8.7864    0.0918 H   0  0  0  0  0  0  0  0  0  0  0  0
   29.2234   -7.5365    2.0015 H   0  0  0  0  0  0  0  0  0  0  0  0
   29.1967   -5.0679    1.9774 H   0  0  0  0  0  0  0  0  0  0  0  0
   32.7958   -4.4887    0.0964 H   0  0  0  0  0  0  0  0  0  0  0  0
   34.6547   -2.5552    0.0486 H   0  0  0  0  0  0  0  0  0  0  0  0
   30.9948    5.1308   -1.9618 H   0  0  0  0  0  0  0  0  0  0  0  0
   30.9801    7.5996   -1.9708 H   0  0  0  0  0  0  0  0  0  0  0  0
   30.0087    8.8421   -0.0626 H   0  0  0  0  0  0  0  0  0  0  0  0
   29.0551    7.6023    1.8561 H   0  0  0  0  0  0  0  0  0  0  0  0
   29.0799    5.1332    1.8702 H   0  0  0  0  0  0  0  0  0  0  0  0
   16.3096    0.0095   -0.0020 C   0  0  0  0  0  0  0  0  0  0  0  0
   17.5344    0.0099   -0.0076 C   0  0  0  0  0  0  0  0  0  0  0  0
   18.8767    0.0086   -0.0135 C   0  0  0  0  0  0  0  0  0  0  0  0
   20.1075    0.0029   -0.0162 C   0  0  0  0  0  0  0  0  0  0  0  0
   21.4451   -0.0033   -0.0174 C   0  0  0  0  0  0  0  0  0  0  0  0
   22.6759   -0.0095   -0.0152 C   0  0  0  0  0  0  0  0  0  0  0  0
   24.0182   -0.0126   -0.0104 C   0  0  0  0  0  0  0  0  0  0  0  0
   25.2430   -0.0132   -0.0044 C   0  0  0  0  0  0  0  0  0  0  0  0
  2  3  4  0  0  0  0
  3  4  4  0  0  0  0
  4  5  2  0  0  0  0
  5  6  4  0  0  0  0
  1  7  1  0  0  0  0
  3  7  4  0  0  0  0
  6  7  4  0  0  0  0
  6  8  4  0  0  0  0
  8  9  4  0  0  0  0
  9 10  4  0  0  0  0
 10 11  2  0  0  0  0
  1 12  1  0  0  0  0
  9 12  4  0  0  0  0
 11 13  4  0  0  0  0
 12 13  4  0  0  0  0
 13 14  4  0  0  0  0
 14 15  4  0  0  0  0
 15 16  4  0  0  0  0
 16 17  2  0  0  0  0
 17 18  4  0  0  0  0
 18 19  4  0  0  0  0
 19 20  1  0  0  0  0
 20 21  4  0  0  0  0
 21 22  4  0  0  0  0
 22 23  4  0  0  0  0
 23 24  4  0  0  0  0
 20 25  4  0  0  0  0
 24 25  4  0  0  0  0
 19 26  4  0  0  0  0
 26 27  4  0  0  0  0
 27 28  2  0  0  0  0
  2 29  4  0  0  0  0
 28 29  4  0  0  0  0
  1 30  1  0  0  0  0
 26 30  4  0  0  0  0
 29 30  4  0  0  0  0
  1 31  1  0  0  0  0
 15 31  4  0  0  0  0
 18 31  4  0  0  0  0
  8 32  1  0  0  0  0
 32 33  4  0  0  0  0
 33 34  4  0  0  0  0
 34 35  4  0  0  0  0
 35 36  4  0  0  0  0
 32 37  4  0  0  0  0
 36 37  4  0  0  0  0
  2 38  1  0  0  0  0
  4 39  1  0  0  0  0
  5 40  1  0  0  0  0
 10 41  1  0  0  0  0
 11 42  1  0  0  0  0
 16 43  1  0  0  0  0
 17 44  1  0  0  0  0
 21 45  1  0  0  0  0
 22 46  1  0  0  0  0
 23 47  1  0  0  0  0
 24 48  1  0  0  0  0
 25 49  1  0  0  0  0
 27 50  1  0  0  0  0
 28 51  1  0  0  0  0
 33 52  1  0  0  0  0
 34 53  1  0  0  0  0
 35 54  1  0  0  0  0
 36 55  1  0  0  0  0
 37 56  1  0  0  0  0
 58 59  4  0  0  0  0
 59 60  4  0  0  0  0
 60 61  2  0  0  0  0
 61 62  4  0  0  0  0
 57 63  1  0  0  0  0
 59 63  4  0  0  0  0
 62 63  4  0  0  0  0
 62 64  4  0  0  0  0
 64 65  4  0  0  0  0
 65 66  4  0  0  0  0
 66 67  2  0  0  0  0
 57 68  1  0  0  0  0
 65 68  4  0  0  0  0
 67 69  4  0  0  0  0
 68 69  4  0  0  0  0
 69 70  4  0  0  0  0
 70 71  4  0  0  0  0
 71 72  4  0  0  0  0
 72 73  2  0  0  0  0
 73 74  4  0  0  0  0
 74 75  4  0  0  0  0
 75 76  1  0  0  0  0
 76 77  4  0  0  0  0
 77 78  4  0  0  0  0
 78 79  4  0  0  0  0
 79 80  4  0  0  0  0
 76 81  4  0  0  0  0
 80 81  4  0  0  0  0
 75 82  4  0  0  0  0
 82 83  4  0  0  0  0
 83 84  2  0  0  0  0
 58 85  4  0  0  0  0
 84 85  4  0  0  0  0
 57 86  1  0  0  0  0
 82 86  4  0  0  0  0
 85 86  4  0  0  0  0
 57 87  1  0  0  0  0
 71 87  4  0  0  0  0
 74 87  4  0  0  0  0
 64 88  1  0  0  0  0
 88 89  4  0  0  0  0
 89 90  4  0  0  0  0
 90 91  4  0  0  0  0
 91 92  4  0  0  0  0
 88 93  4  0  0  0  0
 92 93  4  0  0  0  0
 58 94  1  0  0  0  0
 60 95  1  0  0  0  0
 61 96  1  0  0  0  0
 66 97  1  0  0  0  0
 67 98  1  0  0  0  0
 72 99  1  0  0  0  0
 73100  1  0  0  0  0
 77101  1  0  0  0  0
 78102  1  0  0  0  0
 79103  1  0  0  0  0
 80104  1  0  0  0  0
 81105  1  0  0  0  0
 83106  1  0  0  0  0
 84107  1  0  0  0  0
 89108  1  0  0  0  0
 90109  1  0  0  0  0
 91110  1  0  0  0  0
 92111  1  0  0  0  0
 93112  1  0  0  0  0
 14113  4  0  0  0  0
113114  3  0  0  0  0
114115  4  0  0  0  0
115116  3  0  0  0  0
116117  4  0  0  0  0
117118  3  0  0  0  0
118119  4  0  0  0  0
 70120  4  0  0  0  0
119120  3  0  0  0  0
M  END
