 xtb: 6.5.1 (b24c23e)
          07302203113D

124137  0     0  0            999 V2000
   14.1475   -0.1034   -0.1523 C   0  0  0  0  0  0  0  0  0  0  0  0
   14.7632   -1.3128   -0.4469 C   0  0  0  0  0  0  0  0  0  0  0  0
   14.1211   -2.5337   -0.7971 C   0  0  0  0  0  0  0  0  0  0  0  0
   15.0880   -3.4836   -0.9691 C   0  0  0  0  0  0  0  0  0  0  0  0
   16.3517   -2.8754   -0.7195 C   0  0  0  0  0  0  0  0  0  0  0  0
   16.1061   -1.5647   -0.4256 N   0  0  0  0  0  0  0  0  0  0  0  0
   17.6157   -3.4747   -0.7620 C   0  0  0  0  0  0  0  0  0  0  0  0
   17.6547   -4.9279   -1.0464 C   0  0  0  0  0  0  0  0  0  0  0  0
   18.3448   -5.4129   -2.1619 C   0  0  0  0  0  0  0  0  0  0  0  0
   18.3778   -6.7682   -2.4275 C   0  0  0  0  0  0  0  0  0  0  0  0
   17.7278   -7.6717   -1.5802 C   0  0  0  0  0  0  0  0  0  0  0  0
   17.7799   -9.1137   -1.8833 C   0  0  0  0  0  0  0  0  0  0  0  0
   18.3456   -9.5761   -2.8406 O   0  0  0  0  0  0  0  0  0  0  0  0
   17.0413   -7.1893   -0.4633 C   0  0  0  0  0  0  0  0  0  0  0  0
   17.0022   -5.8312   -0.2023 C   0  0  0  0  0  0  0  0  0  0  0  0
   18.8278   -2.8115   -0.5497 C   0  0  0  0  0  0  0  0  0  0  0  0
   20.1159   -3.4791   -0.5028 C   0  0  0  0  0  0  0  0  0  0  0  0
   21.0364   -2.5158   -0.2919 C   0  0  0  0  0  0  0  0  0  0  0  0
   18.9859   -1.4755   -0.3436 N   0  0  0  0  0  0  0  0  0  0  0  0
   20.3115   -1.2635   -0.2066 C   0  0  0  0  0  0  0  0  0  0  0  0
   20.9513   -0.0208   -0.0237 C   0  0  0  0  0  0  0  0  0  0  0  0
   20.3082    1.2177    0.1623 C   0  0  0  0  0  0  0  0  0  0  0  0
   20.9385    2.4810    0.3108 C   0  0  0  0  0  0  0  0  0  0  0  0
   19.9660    3.4180    0.5242 C   0  0  0  0  0  0  0  0  0  0  0  0
   18.7084    2.7538    0.5113 C   0  0  0  0  0  0  0  0  0  0  0  0
   18.9654    1.4302    0.2727 N   0  0  0  0  0  0  0  0  0  0  0  0
   17.4444    3.3318    0.6791 C   0  0  0  0  0  0  0  0  0  0  0  0
   17.4119    4.7743    1.0111 C   0  0  0  0  0  0  0  0  0  0  0  0
   18.0397    5.2463    2.1687 C   0  0  0  0  0  0  0  0  0  0  0  0
   17.9992    6.5897    2.4872 C   0  0  0  0  0  0  0  0  0  0  0  0
   17.3374    7.4956    1.6515 C   0  0  0  0  0  0  0  0  0  0  0  0
   17.3076    8.9243    2.0142 C   0  0  0  0  0  0  0  0  0  0  0  0
   17.8164    9.3724    3.0095 O   0  0  0  0  0  0  0  0  0  0  0  0
   16.7163    7.0272    0.4911 C   0  0  0  0  0  0  0  0  0  0  0  0
   16.7511    5.6805    0.1765 C   0  0  0  0  0  0  0  0  0  0  0  0
   16.2283    2.6512    0.5556 C   0  0  0  0  0  0  0  0  0  0  0  0
   14.9231    3.2557    0.7760 C   0  0  0  0  0  0  0  0  0  0  0  0
   14.0107    2.2940    0.5315 C   0  0  0  0  0  0  0  0  0  0  0  0
   14.7574    1.0991    0.1795 C   0  0  0  0  0  0  0  0  0  0  0  0
   16.0896    1.3476    0.2181 N   0  0  0  0  0  0  0  0  0  0  0  0
   13.0626   -0.1099   -0.1791 H   0  0  0  0  0  0  0  0  0  0  0  0
   13.0550   -2.6549   -0.9039 H   0  0  0  0  0  0  0  0  0  0  0  0
   14.9447   -4.5137   -1.2525 H   0  0  0  0  0  0  0  0  0  0  0  0
   16.8251   -0.8797   -0.2180 H   0  0  0  0  0  0  0  0  0  0  0  0
   18.8399   -4.7144   -2.8270 H   0  0  0  0  0  0  0  0  0  0  0  0
   18.9050   -7.1516   -3.2945 H   0  0  0  0  0  0  0  0  0  0  0  0
   17.2469   -9.7534   -1.1478 H   0  0  0  0  0  0  0  0  0  0  0  0
   16.5387   -7.8834    0.2024 H   0  0  0  0  0  0  0  0  0  0  0  0
   16.4807   -5.4618    0.6736 H   0  0  0  0  0  0  0  0  0  0  0  0
   20.2717   -4.5414   -0.5984 H   0  0  0  0  0  0  0  0  0  0  0  0
   22.1029   -2.6221   -0.1800 H   0  0  0  0  0  0  0  0  0  0  0  0
   22.0010    2.6478    0.2490 H   0  0  0  0  0  0  0  0  0  0  0  0
   20.1038    4.4778    0.6630 H   0  0  0  0  0  0  0  0  0  0  0  0
   18.2503    0.7154    0.1876 H   0  0  0  0  0  0  0  0  0  0  0  0
   18.5410    4.5451    2.8265 H   0  0  0  0  0  0  0  0  0  0  0  0
   18.4757    6.9615    3.3879 H   0  0  0  0  0  0  0  0  0  0  0  0
   16.7649    9.5675    1.2890 H   0  0  0  0  0  0  0  0  0  0  0  0
   16.2058    7.7239   -0.1659 H   0  0  0  0  0  0  0  0  0  0  0  0
   16.2797    5.3227   -0.7319 H   0  0  0  0  0  0  0  0  0  0  0  0
   14.7527    4.2734    1.0881 H   0  0  0  0  0  0  0  0  0  0  0  0
   12.9351    2.3536    0.5862 H   0  0  0  0  0  0  0  0  0  0  0  0
   31.7919    0.1705   -0.0693 C   0  0  0  0  0  0  0  0  0  0  0  0
   31.1762    1.3402    0.3564 C   0  0  0  0  0  0  0  0  0  0  0  0
   31.8183    2.5502    0.7423 C   0  0  0  0  0  0  0  0  0  0  0  0
   30.8515    3.4361    1.1261 C   0  0  0  0  0  0  0  0  0  0  0  0
   29.5877    2.7916    0.9964 C   0  0  0  0  0  0  0  0  0  0  0  0
   29.8333    1.5379    0.5139 N   0  0  0  0  0  0  0  0  0  0  0  0
   28.3237    3.3137    1.2934 C   0  0  0  0  0  0  0  0  0  0  0  0
   28.2847    4.6807    1.8629 C   0  0  0  0  0  0  0  0  0  0  0  0
   27.5946    5.7031    1.2038 C   0  0  0  0  0  0  0  0  0  0  0  0
   27.5616    6.9780    1.7346 C   0  0  0  0  0  0  0  0  0  0  0  0
   28.2116    7.2597    2.9408 C   0  0  0  0  0  0  0  0  0  0  0  0
   28.1594    8.6276    3.4885 C   0  0  0  0  0  0  0  0  0  0  0  0
   27.5937    9.5434    2.9485 O   0  0  0  0  0  0  0  0  0  0  0  0
   28.8982    6.2388    3.6025 C   0  0  0  0  0  0  0  0  0  0  0  0
   28.9372    4.9641    3.0663 C   0  0  0  0  0  0  0  0  0  0  0  0
   27.1116    2.6442    1.1022 C   0  0  0  0  0  0  0  0  0  0  0  0
   25.8235    3.1737    1.5115 C   0  0  0  0  0  0  0  0  0  0  0  0
   24.9030    2.2552    1.1526 C   0  0  0  0  0  0  0  0  0  0  0  0
   26.9535    1.4183    0.5326 N   0  0  0  0  0  0  0  0  0  0  0  0
   25.6279    1.1659    0.5290 C   0  0  0  0  0  0  0  0  0  0  0  0
   24.9881    0.0305   -0.0082 C   0  0  0  0  0  0  0  0  0  0  0  0
   25.6312   -1.1032   -0.5404 C   0  0  0  0  0  0  0  0  0  0  0  0
   25.0008   -2.2367   -1.1177 C   0  0  0  0  0  0  0  0  0  0  0  0
   25.9734   -3.1347   -1.4598 C   0  0  0  0  0  0  0  0  0  0  0  0
   27.2309   -2.5749   -1.1021 C   0  0  0  0  0  0  0  0  0  0  0  0
   26.9740   -1.3412   -0.5664 N   0  0  0  0  0  0  0  0  0  0  0  0
   28.4949   -3.1489   -1.2832 C   0  0  0  0  0  0  0  0  0  0  0  0
   28.5274   -4.5333   -1.8072 C   0  0  0  0  0  0  0  0  0  0  0  0
   27.8996   -5.5681   -1.1058 C   0  0  0  0  0  0  0  0  0  0  0  0
   27.9400   -6.8626   -1.5861 C   0  0  0  0  0  0  0  0  0  0  0  0
   28.6022   -7.1528   -2.7837 C   0  0  0  0  0  0  0  0  0  0  0  0
   28.6331   -8.5429   -3.2738 C   0  0  0  0  0  0  0  0  0  0  0  0
   28.1229   -9.4677   -2.6950 O   0  0  0  0  0  0  0  0  0  0  0  0
   29.2232   -6.1194   -3.4894 C   0  0  0  0  0  0  0  0  0  0  0  0
   29.1883   -4.8243   -3.0042 C   0  0  0  0  0  0  0  0  0  0  0  0
   29.7111   -2.5141   -1.0083 C   0  0  0  0  0  0  0  0  0  0  0  0
   31.0163   -3.1394   -1.1603 C   0  0  0  0  0  0  0  0  0  0  0  0
   31.9287   -2.2036   -0.8303 C   0  0  0  0  0  0  0  0  0  0  0  0
   31.1820   -1.0141   -0.4603 C   0  0  0  0  0  0  0  0  0  0  0  0
   29.8498   -1.2423   -0.5660 N   0  0  0  0  0  0  0  0  0  0  0  0
   32.8768    0.1907   -0.0880 H   0  0  0  0  0  0  0  0  0  0  0  0
   32.8844    2.7103    0.7207 H   0  0  0  0  0  0  0  0  0  0  0  0
   30.9948    4.4503    1.4616 H   0  0  0  0  0  0  0  0  0  0  0  0
   29.1143    0.8529    0.3066 H   0  0  0  0  0  0  0  0  0  0  0  0
   27.0995    5.4908    0.2629 H   0  0  0  0  0  0  0  0  0  0  0  0
   27.0343    7.7779    1.2259 H   0  0  0  0  0  0  0  0  0  0  0  0
   28.6925    8.7520    4.4552 H   0  0  0  0  0  0  0  0  0  0  0  0
   29.4008    6.4471    4.5414 H   0  0  0  0  0  0  0  0  0  0  0  0
   29.4588    4.1708    3.5902 H   0  0  0  0  0  0  0  0  0  0  0  0
   25.6677    4.1106    2.0212 H   0  0  0  0  0  0  0  0  0  0  0  0
   23.8365    2.2816    1.3048 H   0  0  0  0  0  0  0  0  0  0  0  0
   23.9383   -2.3412   -1.2616 H   0  0  0  0  0  0  0  0  0  0  0  0
   25.8355   -4.0935   -1.9322 H   0  0  0  0  0  0  0  0  0  0  0  0
   27.6890   -0.6994   -0.2407 H   0  0  0  0  0  0  0  0  0  0  0  0
   27.3983   -5.3497   -0.1695 H   0  0  0  0  0  0  0  0  0  0  0  0
   27.4638   -7.6716   -1.0427 H   0  0  0  0  0  0  0  0  0  0  0  0
   29.1734   -8.6754   -4.2354 H   0  0  0  0  0  0  0  0  0  0  0  0
   29.7337   -6.3346   -4.4225 H   0  0  0  0  0  0  0  0  0  0  0  0
   29.6596   -4.0227   -3.5616 H   0  0  0  0  0  0  0  0  0  0  0  0
   31.1866   -4.1593   -1.4651 H   0  0  0  0  0  0  0  0  0  0  0  0
   33.0043   -2.2835   -0.8178 H   0  0  0  0  0  0  0  0  0  0  0  0
   22.3610   -0.0039   -0.0174 C   0  0  0  0  0  0  0  0  0  0  0  0
   23.5784    0.0130   -0.0122 C   0  0  0  0  0  0  0  0  0  0  0  0
  1  2  4  0  0  0  0
  2  3  4  0  0  0  0
  3  4  2  0  0  0  0
  4  5  4  0  0  0  0
  2  6  4  0  0  0  0
  5  6  4  0  0  0  0
  5  7  4  0  0  0  0
  7  8  1  0  0  0  0
  8  9  4  0  0  0  0
  9 10  4  0  0  0  0
 10 11  4  0  0  0  0
 11 12  1  0  0  0  0
 12 13  2  0  0  0  0
 11 14  4  0  0  0  0
  8 15  4  0  0  0  0
 14 15  4  0  0  0  0
  7 16  4  0  0  0  0
 16 17  1  0  0  0  0
 17 18  2  0  0  0  0
 16 19  4  0  0  0  0
 18 20  1  0  0  0  0
 19 20  4  0  0  0  0
 20 21  4  0  0  0  0
 21 22  4  0  0  0  0
 22 23  4  0  0  0  0
 23 24  2  0  0  0  0
 24 25  4  0  0  0  0
 22 26  4  0  0  0  0
 25 26  4  0  0  0  0
 25 27  4  0  0  0  0
 27 28  1  0  0  0  0
 28 29  4  0  0  0  0
 29 30  4  0  0  0  0
 30 31  4  0  0  0  0
 31 32  1  0  0  0  0
 32 33  2  0  0  0  0
 31 34  4  0  0  0  0
 28 35  4  0  0  0  0
 34 35  4  0  0  0  0
 27 36  4  0  0  0  0
 36 37  1  0  0  0  0
 37 38  2  0  0  0  0
  1 39  4  0  0  0  0
 38 39  1  0  0  0  0
 36 40  4  0  0  0  0
 39 40  4  0  0  0  0
  1 41  1  0  0  0  0
  3 42  1  0  0  0  0
  4 43  1  0  0  0  0
  6 44  1  0  0  0  0
  9 45  1  0  0  0  0
 10 46  1  0  0  0  0
 12 47  1  0  0  0  0
 14 48  1  0  0  0  0
 15 49  1  0  0  0  0
 17 50  1  0  0  0  0
 18 51  1  0  0  0  0
 23 52  1  0  0  0  0
 24 53  1  0  0  0  0
 26 54  1  0  0  0  0
 29 55  1  0  0  0  0
 30 56  1  0  0  0  0
 32 57  1  0  0  0  0
 34 58  1  0  0  0  0
 35 59  1  0  0  0  0
 37 60  1  0  0  0  0
 38 61  1  0  0  0  0
 62 63  4  0  0  0  0
 63 64  4  0  0  0  0
 64 65  2  0  0  0  0
 65 66  4  0  0  0  0
 63 67  4  0  0  0  0
 66 67  4  0  0  0  0
 66 68  4  0  0  0  0
 68 69  1  0  0  0  0
 69 70  4  0  0  0  0
 70 71  4  0  0  0  0
 71 72  4  0  0  0  0
 72 73  1  0  0  0  0
 73 74  2  0  0  0  0
 72 75  4  0  0  0  0
 69 76  4  0  0  0  0
 75 76  4  0  0  0  0
 68 77  4  0  0  0  0
 77 78  1  0  0  0  0
 78 79  2  0  0  0  0
 77 80  4  0  0  0  0
 79 81  1  0  0  0  0
 80 81  4  0  0  0  0
 81 82  4  0  0  0  0
 82 83  4  0  0  0  0
 83 84  4  0  0  0  0
 84 85  2  0  0  0  0
 85 86  4  0  0  0  0
 83 87  4  0  0  0  0
 86 87  4  0  0  0  0
 86 88  4  0  0  0  0
 88 89  1  0  0  0  0
 89 90  4  0  0  0  0
 90 91  4  0  0  0  0
 91 92  4  0  0  0  0
 92 93  1  0  0  0  0
 93 94  2  0  0  0  0
 92 95  4  0  0  0  0
 89 96  4  0  0  0  0
 95 96  4  0  0  0  0
 88 97  4  0  0  0  0
 97 98  1  0  0  0  0
 98 99  2  0  0  0  0
 62100  4  0  0  0  0
 99100  1  0  0  0  0
 97101  4  0  0  0  0
100101  4  0  0  0  0
 62102  1  0  0  0  0
 64103  1  0  0  0  0
 65104  1  0  0  0  0
 67105  1  0  0  0  0
 70106  1  0  0  0  0
 71107  1  0  0  0  0
 73108  1  0  0  0  0
 75109  1  0  0  0  0
 76110  1  0  0  0  0
 78111  1  0  0  0  0
 79112  1  0  0  0  0
 84113  1  0  0  0  0
 85114  1  0  0  0  0
 87115  1  0  0  0  0
 90116  1  0  0  0  0
 91117  1  0  0  0  0
 93118  1  0  0  0  0
 95119  1  0  0  0  0
 96120  1  0  0  0  0
 98121  1  0  0  0  0
 99122  1  0  0  0  0
 21123  4  0  0  0  0
 82124  4  0  0  0  0
123124  3  0  0  0  0
M  END
