 xtb: 6.5.1 (b24c23e)
          07302205203D

177206  0     0  0            999 V2000
   30.3885    0.4191    0.3105 Cu  0  0  0  0  0  0  0  0  0  0  0  0
   26.9833    0.3736    0.2281 C   0  0  0  0  0  0  0  0  0  0  0  0
   27.6226   -0.8553    0.2971 C   0  0  0  0  0  0  0  0  0  0  0  0
   26.9509   -2.1204    0.3795 C   0  0  0  0  0  0  0  0  0  0  0  0
   27.9126   -3.0749    0.4397 C   0  0  0  0  0  0  0  0  0  0  0  0
   29.1819   -2.4020    0.3828 C   0  0  0  0  0  0  0  0  0  0  0  0
   28.9737   -1.0546    0.3020 N   0  0  0  0  0  0  0  0  0  0  0  0
   30.4281   -3.0311    0.4274 C   0  0  0  0  0  0  0  0  0  0  0  0
   30.4510   -4.5146    0.4613 C   0  0  0  0  0  0  0  0  0  0  0  0
   29.9456   -5.2490   -0.5409 C   0  0  0  0  0  0  0  0  0  0  0  0
   29.9434   -6.7555   -0.5200 C   0  0  0  0  0  0  0  0  0  0  0  0
   30.8715   -7.2734    0.4889 N   0  0  0  0  0  0  0  0  0  0  0  0
   31.2062   -6.5158    1.5818 C   0  0  0  0  0  0  0  0  0  0  0  0
   31.0568   -5.1798    1.6063 C   0  0  0  0  0  0  0  0  0  0  0  0
   31.6580   -2.3689    0.4398 C   0  0  0  0  0  0  0  0  0  0  0  0
   32.9378   -3.0185    0.4294 C   0  0  0  0  0  0  0  0  0  0  0  0
   33.8806   -2.0422    0.4190 C   0  0  0  0  0  0  0  0  0  0  0  0
   31.8418   -1.0117    0.4304 N   0  0  0  0  0  0  0  0  0  0  0  0
   33.1855   -0.7901    0.4171 C   0  0  0  0  0  0  0  0  0  0  0  0
   33.8151    0.4649    0.3842 C   0  0  0  0  0  0  0  0  0  0  0  0
   33.1542    1.7027    0.3268 C   0  0  0  0  0  0  0  0  0  0  0  0
   33.8151    2.9729    0.3545 C   0  0  0  0  0  0  0  0  0  0  0  0
   32.8479    3.9237    0.3043 C   0  0  0  0  0  0  0  0  0  0  0  0
   31.5876    3.2402    0.2391 C   0  0  0  0  0  0  0  0  0  0  0  0
   31.8069    1.8884    0.2568 N   0  0  0  0  0  0  0  0  0  0  0  0
   30.3412    3.8692    0.1958 C   0  0  0  0  0  0  0  0  0  0  0  0
   30.3264    5.3530    0.1644 C   0  0  0  0  0  0  0  0  0  0  0  0
   29.7641    6.0714    1.1476 C   0  0  0  0  0  0  0  0  0  0  0  0
   29.7254    7.5774    1.1292 C   0  0  0  0  0  0  0  0  0  0  0  0
   30.6818    8.1202    0.1606 N   0  0  0  0  0  0  0  0  0  0  0  0
   31.0758    7.3753   -0.9212 C   0  0  0  0  0  0  0  0  0  0  0  0
   30.9589    6.0362   -0.9552 C   0  0  0  0  0  0  0  0  0  0  0  0
   29.1116    3.2071    0.1814 C   0  0  0  0  0  0  0  0  0  0  0  0
   27.8292    3.8463    0.0641 C   0  0  0  0  0  0  0  0  0  0  0  0
   26.8914    2.8664    0.0763 C   0  0  0  0  0  0  0  0  0  0  0  0
   27.5919    1.6194    0.1902 C   0  0  0  0  0  0  0  0  0  0  0  0
   28.9358    1.8544    0.2510 N   0  0  0  0  0  0  0  0  0  0  0  0
   25.8984    0.3590    0.2017 H   0  0  0  0  0  0  0  0  0  0  0  0
   25.8797   -2.2472    0.3996 H   0  0  0  0  0  0  0  0  0  0  0  0
   27.7811   -4.1413    0.5288 H   0  0  0  0  0  0  0  0  0  0  0  0
   29.4963   -4.7906   -1.4142 H   0  0  0  0  0  0  0  0  0  0  0  0
   30.2526   -7.1479   -1.4983 H   0  0  0  0  0  0  0  0  0  0  0  0
   28.9219   -7.1331   -0.3254 H   0  0  0  0  0  0  0  0  0  0  0  0
   30.7901   -8.2678    0.6445 H   0  0  0  0  0  0  0  0  0  0  0  0
   31.6781   -7.0669    2.3891 H   0  0  0  0  0  0  0  0  0  0  0  0
   31.3734   -4.5928    2.4567 H   0  0  0  0  0  0  0  0  0  0  0  0
   33.0912   -4.0855    0.4185 H   0  0  0  0  0  0  0  0  0  0  0  0
   34.9532   -2.1518    0.4020 H   0  0  0  0  0  0  0  0  0  0  0  0
   34.8827    3.1110    0.4173 H   0  0  0  0  0  0  0  0  0  0  0  0
   32.9719    4.9945    0.3210 H   0  0  0  0  0  0  0  0  0  0  0  0
   29.2929    5.5992    2.0017 H   0  0  0  0  0  0  0  0  0  0  0  0
   29.9843    7.9746    2.1201 H   0  0  0  0  0  0  0  0  0  0  0  0
   28.7039    7.9305    0.8929 H   0  0  0  0  0  0  0  0  0  0  0  0
   30.5846    9.1133    0.0056 H   0  0  0  0  0  0  0  0  0  0  0  0
   31.5653    7.9404   -1.7080 H   0  0  0  0  0  0  0  0  0  0  0  0
   31.3217    5.4597   -1.7943 H   0  0  0  0  0  0  0  0  0  0  0  0
   27.6742    4.9091   -0.0296 H   0  0  0  0  0  0  0  0  0  0  0  0
   25.8195    2.9646    0.0040 H   0  0  0  0  0  0  0  0  0  0  0  0
   52.1863    0.3786    0.3368 Cu  0  0  0  0  0  0  0  0  0  0  0  0
   55.5905    0.2973    0.2962 C   0  0  0  0  0  0  0  0  0  0  0  0
   54.9964    1.5501    0.3350 C   0  0  0  0  0  0  0  0  0  0  0  0
   55.7123    2.7913    0.4079 C   0  0  0  0  0  0  0  0  0  0  0  0
   54.7855    3.7816    0.4207 C   0  0  0  0  0  0  0  0  0  0  0  0
   53.4940    3.1548    0.3406 C   0  0  0  0  0  0  0  0  0  0  0  0
   53.6540    1.7989    0.3027 N   0  0  0  0  0  0  0  0  0  0  0  0
   52.2713    3.8296    0.3125 C   0  0  0  0  0  0  0  0  0  0  0  0
   52.3014    5.3132    0.3137 C   0  0  0  0  0  0  0  0  0  0  0  0
   52.8802    6.0098   -0.6756 C   0  0  0  0  0  0  0  0  0  0  0  0
   52.9415    7.5152   -0.6769 C   0  0  0  0  0  0  0  0  0  0  0  0
   51.9861    8.0863    0.2764 N   0  0  0  0  0  0  0  0  0  0  0  0
   51.5726    7.3616    1.3651 C   0  0  0  0  0  0  0  0  0  0  0  0
   51.6693    6.0217    1.4180 C   0  0  0  0  0  0  0  0  0  0  0  0
   51.0182    3.2123    0.2888 C   0  0  0  0  0  0  0  0  0  0  0  0
   49.7645    3.9053    0.1971 C   0  0  0  0  0  0  0  0  0  0  0  0
   48.7867    2.9640    0.2051 C   0  0  0  0  0  0  0  0  0  0  0  0
   50.7846    1.8640    0.3367 N   0  0  0  0  0  0  0  0  0  0  0  0
   49.4344    1.6898    0.2960 C   0  0  0  0  0  0  0  0  0  0  0  0
   48.7601    0.4605    0.3745 C   0  0  0  0  0  0  0  0  0  0  0  0
   49.3763   -0.8001    0.4381 C   0  0  0  0  0  0  0  0  0  0  0  0
   48.6707   -2.0422    0.5421 C   0  0  0  0  0  0  0  0  0  0  0  0
   49.6026   -3.0290    0.5306 C   0  0  0  0  0  0  0  0  0  0  0  0
   50.8856   -2.3965    0.4132 C   0  0  0  0  0  0  0  0  0  0  0  0
   50.7155   -1.0385    0.3695 N   0  0  0  0  0  0  0  0  0  0  0  0
   52.1071   -3.0725    0.3637 C   0  0  0  0  0  0  0  0  0  0  0  0
   52.0672   -4.5560    0.3673 C   0  0  0  0  0  0  0  0  0  0  0  0
   52.6302   -5.2755    1.3492 C   0  0  0  0  0  0  0  0  0  0  0  0
   52.6199   -6.7822    1.3569 C   0  0  0  0  0  0  0  0  0  0  0  0
   51.6226   -7.3108    0.4221 N   0  0  0  0  0  0  0  0  0  0  0  0
   51.2245   -6.5713   -0.6622 C   0  0  0  0  0  0  0  0  0  0  0  0
   51.3828   -5.2376   -0.7225 C   0  0  0  0  0  0  0  0  0  0  0  0
   53.3595   -2.4567    0.3062 C   0  0  0  0  0  0  0  0  0  0  0  0
   54.6172   -3.1447    0.1963 C   0  0  0  0  0  0  0  0  0  0  0  0
   55.5902   -2.1998    0.1846 C   0  0  0  0  0  0  0  0  0  0  0  0
   54.9364   -0.9257    0.2728 C   0  0  0  0  0  0  0  0  0  0  0  0
   53.5849   -1.1100    0.3379 N   0  0  0  0  0  0  0  0  0  0  0  0
   56.6754    0.2713    0.2832 H   0  0  0  0  0  0  0  0  0  0  0  0
   56.7865    2.8794    0.4543 H   0  0  0  0  0  0  0  0  0  0  0  0
   54.9546    4.8442    0.4891 H   0  0  0  0  0  0  0  0  0  0  0  0
   53.3515    5.5194   -1.5194 H   0  0  0  0  0  0  0  0  0  0  0  0
   52.6972    7.9033   -1.6750 H   0  0  0  0  0  0  0  0  0  0  0  0
   53.9665    7.8553   -0.4367 H   0  0  0  0  0  0  0  0  0  0  0  0
   52.1019    9.0789    0.4220 H   0  0  0  0  0  0  0  0  0  0  0  0
   51.0856    7.9445    2.1404 H   0  0  0  0  0  0  0  0  0  0  0  0
   51.2911    5.4623    2.2619 H   0  0  0  0  0  0  0  0  0  0  0  0
   49.6520    4.9752    0.1273 H   0  0  0  0  0  0  0  0  0  0  0  0
   47.7196    3.1105    0.1528 H   0  0  0  0  0  0  0  0  0  0  0  0
   47.5991   -2.1383    0.6153 H   0  0  0  0  0  0  0  0  0  0  0  0
   49.4407   -4.0925    0.6023 H   0  0  0  0  0  0  0  0  0  0  0  0
   53.1396   -4.8048    2.1820 H   0  0  0  0  0  0  0  0  0  0  0  0
   52.3740   -7.1541    2.3607 H   0  0  0  0  0  0  0  0  0  0  0  0
   53.6234   -7.1718    1.1014 H   0  0  0  0  0  0  0  0  0  0  0  0
   51.6875   -8.3085    0.2800 H   0  0  0  0  0  0  0  0  0  0  0  0
   50.6972   -7.1335   -1.4265 H   0  0  0  0  0  0  0  0  0  0  0  0
   51.0166   -4.6640   -1.5621 H   0  0  0  0  0  0  0  0  0  0  0  0
   54.7334   -4.2142    0.1259 H   0  0  0  0  0  0  0  0  0  0  0  0
   56.6576   -2.3390    0.1121 H   0  0  0  0  0  0  0  0  0  0  0  0
   35.2265    0.4831    0.4067 C   0  0  0  0  0  0  0  0  0  0  0  0
   36.4424    0.4979    0.4208 C   0  0  0  0  0  0  0  0  0  0  0  0
   46.1332    0.5169    0.4100 C   0  0  0  0  0  0  0  0  0  0  0  0
   47.3487    0.4929    0.3907 C   0  0  0  0  0  0  0  0  0  0  0  0
   41.2885    0.5275    0.4370 Cu  0  0  0  0  0  0  0  0  0  0  0  0
   37.8535    0.5106    0.4308 C   0  0  0  0  0  0  0  0  0  0  0  0
   38.4967    1.4966   -0.3361 C   0  0  0  0  0  0  0  0  0  0  0  0
   37.8170    2.5059   -1.0908 C   0  0  0  0  0  0  0  0  0  0  0  0
   38.7706    3.2418   -1.7167 C   0  0  0  0  0  0  0  0  0  0  0  0
   40.0408    2.6805   -1.3546 C   0  0  0  0  0  0  0  0  0  0  0  0
   39.8415    1.6245   -0.5056 N   0  0  0  0  0  0  0  0  0  0  0  0
   41.2784    3.1512   -1.7974 C   0  0  0  0  0  0  0  0  0  0  0  0
   41.2775    4.2584   -2.7858 C   0  0  0  0  0  0  0  0  0  0  0  0
   40.7297    4.1093   -4.0013 C   0  0  0  0  0  0  0  0  0  0  0  0
   40.7631    5.1950   -5.0443 C   0  0  0  0  0  0  0  0  0  0  0  0
   41.0988    6.4920   -4.4505 N   0  0  0  0  0  0  0  0  0  0  0  0
   41.7949    6.5651   -3.2720 C   0  0  0  0  0  0  0  0  0  0  0  0
   41.8883    5.5281   -2.4210 C   0  0  0  0  0  0  0  0  0  0  0  0
   42.5200    2.6552   -1.3940 C   0  0  0  0  0  0  0  0  0  0  0  0
   43.7861    3.1043   -1.8985 C   0  0  0  0  0  0  0  0  0  0  0  0
   44.7455    2.3752   -1.2733 C   0  0  0  0  0  0  0  0  0  0  0  0
   42.7269    1.6562   -0.4807 N   0  0  0  0  0  0  0  0  0  0  0  0
   44.0727    1.4702   -0.3907 C   0  0  0  0  0  0  0  0  0  0  0  0
   44.7218    0.5287    0.4245 C   0  0  0  0  0  0  0  0  0  0  0  0
   44.0786   -0.4069    1.2516 C   0  0  0  0  0  0  0  0  0  0  0  0
   44.7589   -1.3044    2.1358 C   0  0  0  0  0  0  0  0  0  0  0  0
   43.8053   -2.0317    2.7720 C   0  0  0  0  0  0  0  0  0  0  0  0
   42.5348   -1.5911    2.2707 C   0  0  0  0  0  0  0  0  0  0  0  0
   42.7339   -0.5941    1.3529 N   0  0  0  0  0  0  0  0  0  0  0  0
   41.2964   -2.0968    2.6718 C   0  0  0  0  0  0  0  0  0  0  0  0
   41.2929   -3.2131    3.6500 C   0  0  0  0  0  0  0  0  0  0  0  0
   41.8478   -4.4017    3.3708 C   0  0  0  0  0  0  0  0  0  0  0  0
   41.8721   -5.5363    4.3619 C   0  0  0  0  0  0  0  0  0  0  0  0
   40.9149   -5.3133    5.4490 N   0  0  0  0  0  0  0  0  0  0  0  0
   40.5256   -4.0418    5.7845 C   0  0  0  0  0  0  0  0  0  0  0  0
   40.6520   -3.0029    4.9407 C   0  0  0  0  0  0  0  0  0  0  0  0
   40.0561   -1.6304    2.2311 C   0  0  0  0  0  0  0  0  0  0  0  0
   38.7902   -2.2004    2.5945 C   0  0  0  0  0  0  0  0  0  0  0  0
   37.8315   -1.4778    1.9614 C   0  0  0  0  0  0  0  0  0  0  0  0
   38.5039   -0.4653    1.2036 C   0  0  0  0  0  0  0  0  0  0  0  0
   39.8494   -0.5790    1.3787 N   0  0  0  0  0  0  0  0  0  0  0  0
   36.7467    2.6321   -1.1284 H   0  0  0  0  0  0  0  0  0  0  0  0
   38.6315    4.0973   -2.3576 H   0  0  0  0  0  0  0  0  0  0  0  0
   40.2961    3.1681   -4.3189 H   0  0  0  0  0  0  0  0  0  0  0  0
   41.4915    4.9408   -5.8372 H   0  0  0  0  0  0  0  0  0  0  0  0
   39.7798    5.2859   -5.5260 H   0  0  0  0  0  0  0  0  0  0  0  0
   41.2925    7.2141   -5.1292 H   0  0  0  0  0  0  0  0  0  0  0  0
   42.1924    7.5484   -3.0414 H   0  0  0  0  0  0  0  0  0  0  0  0
   42.3750    5.6299   -1.4614 H   0  0  0  0  0  0  0  0  0  0  0  0
   43.9197    3.8705   -2.6453 H   0  0  0  0  0  0  0  0  0  0  0  0
   45.8148    2.4304   -1.4017 H   0  0  0  0  0  0  0  0  0  0  0  0
   45.8288   -1.3541    2.2608 H   0  0  0  0  0  0  0  0  0  0  0  0
   43.9462   -2.7896    3.5254 H   0  0  0  0  0  0  0  0  0  0  0  0
   42.3255   -4.5994    2.4183 H   0  0  0  0  0  0  0  0  0  0  0  0
   42.8914   -5.6606    4.7736 H   0  0  0  0  0  0  0  0  0  0  0  0
   41.6066   -6.4791    3.8647 H   0  0  0  0  0  0  0  0  0  0  0  0
   41.0098   -5.9654    6.2142 H   0  0  0  0  0  0  0  0  0  0  0  0
   40.0319   -3.9571    6.7474 H   0  0  0  0  0  0  0  0  0  0  0  0
   40.2921   -2.0177    5.2014 H   0  0  0  0  0  0  0  0  0  0  0  0
   38.6572   -3.0506    3.2439 H   0  0  0  0  0  0  0  0  0  0  0  0
   36.7622   -1.6124    1.9980 H   0  0  0  0  0  0  0  0  0  0  0  0
  2  3  4  0  0  0  0
  3  4  1  0  0  0  0
  4  5  2  0  0  0  0
  5  6  4  0  0  0  0
  1  7  1  0  0  0  0
  3  7  4  0  0  0  0
  6  7  4  0  0  0  0
  6  8  4  0  0  0  0
  8  9  1  0  0  0  0
  9 10  2  0  0  0  0
 10 11  1  0  0  0  0
 11 12  1  0  0  0  0
 12 13  1  0  0  0  0
  9 14  1  0  0  0  0
 13 14  2  0  0  0  0
  8 15  4  0  0  0  0
 15 16  4  0  0  0  0
 16 17  2  0  0  0  0
  1 18  1  0  0  0  0
 15 18  4  0  0  0  0
 17 19  4  0  0  0  0
 18 19  4  0  0  0  0
 19 20  4  0  0  0  0
 20 21  4  0  0  0  0
 21 22  4  0  0  0  0
 22 23  2  0  0  0  0
 23 24  4  0  0  0  0
  1 25  1  0  0  0  0
 21 25  4  0  0  0  0
 24 25  4  0  0  0  0
 24 26  4  0  0  0  0
 26 27  1  0  0  0  0
 27 28  2  0  0  0  0
 28 29  1  0  0  0  0
 29 30  1  0  0  0  0
 30 31  1  0  0  0  0
 27 32  1  0  0  0  0
 31 32  2  0  0  0  0
 26 33  4  0  0  0  0
 33 34  4  0  0  0  0
 34 35  2  0  0  0  0
  2 36  4  0  0  0  0
 35 36  1  0  0  0  0
  1 37  1  0  0  0  0
 33 37  4  0  0  0  0
 36 37  4  0  0  0  0
  2 38  1  0  0  0  0
  4 39  1  0  0  0  0
  5 40  1  0  0  0  0
 10 41  1  0  0  0  0
 11 42  1  0  0  0  0
 11 43  1  0  0  0  0
 12 44  1  0  0  0  0
 13 45  1  0  0  0  0
 14 46  1  0  0  0  0
 16 47  1  0  0  0  0
 17 48  1  0  0  0  0
 22 49  1  0  0  0  0
 23 50  1  0  0  0  0
 28 51  1  0  0  0  0
 29 52  1  0  0  0  0
 29 53  1  0  0  0  0
 30 54  1  0  0  0  0
 31 55  1  0  0  0  0
 32 56  1  0  0  0  0
 34 57  1  0  0  0  0
 35 58  1  0  0  0  0
 60 61  4  0  0  0  0
 61 62  1  0  0  0  0
 62 63  2  0  0  0  0
 63 64  4  0  0  0  0
 59 65  1  0  0  0  0
 61 65  4  0  0  0  0
 64 65  4  0  0  0  0
 64 66  4  0  0  0  0
 66 67  1  0  0  0  0
 67 68  2  0  0  0  0
 68 69  1  0  0  0  0
 69 70  1  0  0  0  0
 70 71  1  0  0  0  0
 67 72  1  0  0  0  0
 71 72  2  0  0  0  0
 66 73  4  0  0  0  0
 73 74  4  0  0  0  0
 74 75  2  0  0  0  0
 59 76  1  0  0  0  0
 73 76  4  0  0  0  0
 75 77  4  0  0  0  0
 76 77  4  0  0  0  0
 77 78  4  0  0  0  0
 78 79  4  0  0  0  0
 79 80  4  0  0  0  0
 80 81  2  0  0  0  0
 81 82  4  0  0  0  0
 59 83  1  0  0  0  0
 79 83  4  0  0  0  0
 82 83  4  0  0  0  0
 82 84  4  0  0  0  0
 84 85  1  0  0  0  0
 85 86  2  0  0  0  0
 86 87  1  0  0  0  0
 87 88  1  0  0  0  0
 88 89  1  0  0  0  0
 85 90  1  0  0  0  0
 89 90  2  0  0  0  0
 84 91  4  0  0  0  0
 91 92  4  0  0  0  0
 92 93  2  0  0  0  0
 60 94  4  0  0  0  0
 93 94  1  0  0  0  0
 59 95  1  0  0  0  0
 91 95  4  0  0  0  0
 94 95  4  0  0  0  0
 60 96  1  0  0  0  0
 62 97  1  0  0  0  0
 63 98  1  0  0  0  0
 68 99  1  0  0  0  0
 69100  1  0  0  0  0
 69101  1  0  0  0  0
 70102  1  0  0  0  0
 71103  1  0  0  0  0
 72104  1  0  0  0  0
 74105  1  0  0  0  0
 75106  1  0  0  0  0
 80107  1  0  0  0  0
 81108  1  0  0  0  0
 86109  1  0  0  0  0
 87110  1  0  0  0  0
 87111  1  0  0  0  0
 88112  1  0  0  0  0
 89113  1  0  0  0  0
 90114  1  0  0  0  0
 92115  1  0  0  0  0
 93116  1  0  0  0  0
 20117  4  0  0  0  0
117118  3  0  0  0  0
 78120  4  0  0  0  0
119120  3  0  0  0  0
118122  4  0  0  0  0
122123  4  0  0  0  0
123124  4  0  0  0  0
124125  2  0  0  0  0
125126  4  0  0  0  0
121127  1  0  0  0  0
123127  4  0  0  0  0
126127  4  0  0  0  0
126128  4  0  0  0  0
128129  1  0  0  0  0
129130  2  0  0  0  0
130131  1  0  0  0  0
131132  1  0  0  0  0
132133  1  0  0  0  0
129134  1  0  0  0  0
133134  2  0  0  0  0
128135  4  0  0  0  0
135136  4  0  0  0  0
136137  2  0  0  0  0
121138  1  0  0  0  0
135138  4  0  0  0  0
137139  4  0  0  0  0
138139  4  0  0  0  0
119140  4  0  0  0  0
139140  4  0  0  0  0
140141  4  0  0  0  0
141142  4  0  0  0  0
142143  2  0  0  0  0
143144  4  0  0  0  0
121145  1  0  0  0  0
141145  4  0  0  0  0
144145  4  0  0  0  0
144146  4  0  0  0  0
146147  1  0  0  0  0
147148  2  0  0  0  0
148149  1  0  0  0  0
149150  1  0  0  0  0
150151  1  0  0  0  0
147152  1  0  0  0  0
151152  2  0  0  0  0
146153  4  0  0  0  0
153154  4  0  0  0  0
154155  2  0  0  0  0
122156  4  0  0  0  0
155156  4  0  0  0  0
121157  1  0  0  0  0
153157  4  0  0  0  0
156157  4  0  0  0  0
124158  1  0  0  0  0
125159  1  0  0  0  0
130160  1  0  0  0  0
131161  1  0  0  0  0
131162  1  0  0  0  0
132163  1  0  0  0  0
133164  1  0  0  0  0
134165  1  0  0  0  0
136166  1  0  0  0  0
137167  1  0  0  0  0
142168  1  0  0  0  0
143169  1  0  0  0  0
148170  1  0  0  0  0
149171  1  0  0  0  0
149172  1  0  0  0  0
150173  1  0  0  0  0
151174  1  0  0  0  0
152175  1  0  0  0  0
154176  1  0  0  0  0
155177  1  0  0  0  0
M  END
