 xtb: 6.5.1 (b24c23e)
          07302202043D

 74 89  0     0  0            999 V2000
    9.0860   -0.0403   -0.0161 Ni  0  0  0  0  0  0  0  0  0  0  0  0
    5.6755   -0.0532   -0.0350 C   0  0  0  0  0  0  0  0  0  0  0  0
    6.3341   -0.9023   -0.9004 C   0  0  0  0  0  0  0  0  0  0  0  0
    5.6647   -1.7874   -1.8076 C   0  0  0  0  0  0  0  0  0  0  0  0
    6.6284   -2.4875   -2.4501 C   0  0  0  0  0  0  0  0  0  0  0  0
    7.8841   -2.0282   -1.9342 C   0  0  0  0  0  0  0  0  0  0  0  0
    7.6948   -1.0473   -0.9943 N   0  0  0  0  0  0  0  0  0  0  0  0
    9.1045   -2.5412   -2.3214 C   0  0  0  0  0  0  0  0  0  0  0  0
   10.3169   -2.1024   -1.8314 C   0  0  0  0  0  0  0  0  0  0  0  0
   11.5768   -2.6438   -2.2406 C   0  0  0  0  0  0  0  0  0  0  0  0
   12.5318   -1.9377   -1.5898 C   0  0  0  0  0  0  0  0  0  0  0  0
   10.4965   -1.0819   -0.9273 N   0  0  0  0  0  0  0  0  0  0  0  0
   11.8523   -0.9690   -0.7853 C   0  0  0  0  0  0  0  0  0  0  0  0
   12.5142   -0.0157   -0.0094 C   0  0  0  0  0  0  0  0  0  0  0  0
   11.8357    0.9252    0.7672 C   0  0  0  0  0  0  0  0  0  0  0  0
   12.4982    1.8983    1.5806 C   0  0  0  0  0  0  0  0  0  0  0  0
   11.5308    2.5841    2.2347 C   0  0  0  0  0  0  0  0  0  0  0  0
   10.2804    2.0275    1.8171 C   0  0  0  0  0  0  0  0  0  0  0  0
   10.4779    1.0166    0.9060 N   0  0  0  0  0  0  0  0  0  0  0  0
    9.0598    2.4483    2.3026 C   0  0  0  0  0  0  0  0  0  0  0  0
    7.8477    1.9275    1.9000 C   0  0  0  0  0  0  0  0  0  0  0  0
    6.5829    2.3750    2.4039 C   0  0  0  0  0  0  0  0  0  0  0  0
    5.6316    1.6739    1.7443 C   0  0  0  0  0  0  0  0  0  0  0  0
    6.3177    0.7983    0.8403 C   0  0  0  0  0  0  0  0  0  0  0  0
    7.6762    0.9514    0.9517 N   0  0  0  0  0  0  0  0  0  0  0  0
    4.5918   -0.0566   -0.0418 H   0  0  0  0  0  0  0  0  0  0  0  0
    4.5937   -1.8502   -1.9187 H   0  0  0  0  0  0  0  0  0  0  0  0
    6.5221   -3.2509   -3.2046 H   0  0  0  0  0  0  0  0  0  0  0  0
    9.1122   -3.3379   -3.0562 H   0  0  0  0  0  0  0  0  0  0  0  0
   11.6944   -3.4558   -2.9404 H   0  0  0  0  0  0  0  0  0  0  0  0
   13.6033   -2.0448   -1.6431 H   0  0  0  0  0  0  0  0  0  0  0  0
   13.5678    2.0213    1.6378 H   0  0  0  0  0  0  0  0  0  0  0  0
   11.6341    3.3921    2.9414 H   0  0  0  0  0  0  0  0  0  0  0  0
    9.0536    3.2394    3.0434 H   0  0  0  0  0  0  0  0  0  0  0  0
    6.4625    3.1328    3.1619 H   0  0  0  0  0  0  0  0  0  0  0  0
    4.5590    1.7294    1.8424 H   0  0  0  0  0  0  0  0  0  0  0  0
   19.9803    0.0406    0.0152 Ni  0  0  0  0  0  0  0  0  0  0  0  0
   23.3907    0.0629    0.0099 C   0  0  0  0  0  0  0  0  0  0  0  0
   22.7322    1.2733   -0.0591 C   0  0  0  0  0  0  0  0  0  0  0  0
   23.4015    2.5386   -0.1347 C   0  0  0  0  0  0  0  0  0  0  0  0
   22.4378    3.4888   -0.1391 C   0  0  0  0  0  0  0  0  0  0  0  0
   21.1822    2.8019   -0.0664 C   0  0  0  0  0  0  0  0  0  0  0  0
   21.3715    1.4438   -0.0310 N   0  0  0  0  0  0  0  0  0  0  0  0
   19.9617    3.4419   -0.0077 C   0  0  0  0  0  0  0  0  0  0  0  0
   18.7493    2.7876    0.0597 C   0  0  0  0  0  0  0  0  0  0  0  0
   17.4895    3.4634    0.1212 C   0  0  0  0  0  0  0  0  0  0  0  0
   16.5344    2.5032    0.1276 C   0  0  0  0  0  0  0  0  0  0  0  0
   18.5698    1.4243    0.0419 N   0  0  0  0  0  0  0  0  0  0  0  0
   17.2139    1.2453    0.0710 C   0  0  0  0  0  0  0  0  0  0  0  0
   16.5520    0.0180    0.0036 C   0  0  0  0  0  0  0  0  0  0  0  0
   17.2305   -1.2007   -0.0548 C   0  0  0  0  0  0  0  0  0  0  0  0
   16.5681   -2.4678   -0.1078 C   0  0  0  0  0  0  0  0  0  0  0  0
   17.5355   -3.4153   -0.0853 C   0  0  0  0  0  0  0  0  0  0  0  0
   18.7859   -2.7225   -0.0198 C   0  0  0  0  0  0  0  0  0  0  0  0
   18.5884   -1.3617   -0.0137 N   0  0  0  0  0  0  0  0  0  0  0  0
   20.0065   -3.3605    0.0563 C   0  0  0  0  0  0  0  0  0  0  0  0
   21.2186   -2.7043    0.1088 C   0  0  0  0  0  0  0  0  0  0  0  0
   22.4834   -3.3745    0.1805 C   0  0  0  0  0  0  0  0  0  0  0  0
   23.4346   -2.4119    0.1643 C   0  0  0  0  0  0  0  0  0  0  0  0
   22.7485   -1.1560    0.0846 C   0  0  0  0  0  0  0  0  0  0  0  0
   21.3901   -1.3442    0.0640 N   0  0  0  0  0  0  0  0  0  0  0  0
   24.4745    0.0701    0.0072 H   0  0  0  0  0  0  0  0  0  0  0  0
   24.4725    2.6597   -0.1747 H   0  0  0  0  0  0  0  0  0  0  0  0
   22.5441    4.5612   -0.1836 H   0  0  0  0  0  0  0  0  0  0  0  0
   19.9540    4.5257   -0.0153 H   0  0  0  0  0  0  0  0  0  0  0  0
   17.3719    4.5350    0.1497 H   0  0  0  0  0  0  0  0  0  0  0  0
   15.4629    2.6183    0.1601 H   0  0  0  0  0  0  0  0  0  0  0  0
   15.4985   -2.5973   -0.1483 H   0  0  0  0  0  0  0  0  0  0  0  0
   17.4322   -4.4886   -0.1061 H   0  0  0  0  0  0  0  0  0  0  0  0
   20.0127   -4.4442    0.0720 H   0  0  0  0  0  0  0  0  0  0  0  0
   22.6038   -4.4451    0.2315 H   0  0  0  0  0  0  0  0  0  0  0  0
   24.5073   -2.5190    0.1995 H   0  0  0  0  0  0  0  0  0  0  0  0
   13.9256   -0.0049   -0.0070 C   0  0  0  0  0  0  0  0  0  0  0  0
   15.1407    0.0083   -0.0018 C   0  0  0  0  0  0  0  0  0  0  0  0
  2  3  4  0  0  0  0
  3  4  4  0  0  0  0
  4  5  2  0  0  0  0
  5  6  4  0  0  0  0
  1  7  1  0  0  0  0
  3  7  4  0  0  0  0
  6  7  4  0  0  0  0
  6  8  4  0  0  0  0
  8  9  4  0  0  0  0
  9 10  4  0  0  0  0
 10 11  2  0  0  0  0
  1 12  1  0  0  0  0
  9 12  4  0  0  0  0
 11 13  4  0  0  0  0
 12 13  4  0  0  0  0
 13 14  4  0  0  0  0
 14 15  4  0  0  0  0
 15 16  4  0  0  0  0
 16 17  2  0  0  0  0
 17 18  4  0  0  0  0
  1 19  1  0  0  0  0
 15 19  4  0  0  0  0
 18 19  4  0  0  0  0
 18 20  4  0  0  0  0
 20 21  4  0  0  0  0
 21 22  4  0  0  0  0
 22 23  2  0  0  0  0
  2 24  4  0  0  0  0
 23 24  4  0  0  0  0
  1 25  1  0  0  0  0
 21 25  4  0  0  0  0
 24 25  4  0  0  0  0
  2 26  1  0  0  0  0
  4 27  1  0  0  0  0
  5 28  1  0  0  0  0
  8 29  1  0  0  0  0
 10 30  1  0  0  0  0
 11 31  1  0  0  0  0
 16 32  1  0  0  0  0
 17 33  1  0  0  0  0
 20 34  1  0  0  0  0
 22 35  1  0  0  0  0
 23 36  1  0  0  0  0
 38 39  4  0  0  0  0
 39 40  4  0  0  0  0
 40 41  2  0  0  0  0
 41 42  4  0  0  0  0
 37 43  1  0  0  0  0
 39 43  4  0  0  0  0
 42 43  4  0  0  0  0
 42 44  4  0  0  0  0
 44 45  4  0  0  0  0
 45 46  4  0  0  0  0
 46 47  2  0  0  0  0
 37 48  1  0  0  0  0
 45 48  4  0  0  0  0
 47 49  4  0  0  0  0
 48 49  4  0  0  0  0
 49 50  4  0  0  0  0
 50 51  4  0  0  0  0
 51 52  4  0  0  0  0
 52 53  2  0  0  0  0
 53 54  4  0  0  0  0
 37 55  1  0  0  0  0
 51 55  4  0  0  0  0
 54 55  4  0  0  0  0
 54 56  4  0  0  0  0
 56 57  4  0  0  0  0
 57 58  4  0  0  0  0
 58 59  2  0  0  0  0
 38 60  4  0  0  0  0
 59 60  4  0  0  0  0
 37 61  1  0  0  0  0
 57 61  4  0  0  0  0
 60 61  4  0  0  0  0
 38 62  1  0  0  0  0
 40 63  1  0  0  0  0
 41 64  1  0  0  0  0
 44 65  1  0  0  0  0
 46 66  1  0  0  0  0
 47 67  1  0  0  0  0
 52 68  1  0  0  0  0
 53 69  1  0  0  0  0
 56 70  1  0  0  0  0
 58 71  1  0  0  0  0
 59 72  1  0  0  0  0
 14 73  4  0  0  0  0
 50 74  4  0  0  0  0
 73 74  3  0  0  0  0
M  END
