 xtb: 6.5.1 (b24c23e)
          07302209463D

215244  0     0  0            999 V2000
   28.3599    0.0587   -0.1049 Zn  0  0  0  0  0  0  0  0  0  0  0  0
   24.9553    0.1659   -0.2938 C   0  0  0  0  0  0  0  0  0  0  0  0
   25.5934    1.3503    0.0553 C   0  0  0  0  0  0  0  0  0  0  0  0
   24.9289    2.5830    0.3738 C   0  0  0  0  0  0  0  0  0  0  0  0
   25.8936    3.4874    0.6770 C   0  0  0  0  0  0  0  0  0  0  0  0
   27.1609    2.8207    0.5364 C   0  0  0  0  0  0  0  0  0  0  0  0
   26.9429    1.5256    0.1664 N   0  0  0  0  0  0  0  0  0  0  0  0
   28.4147    3.4008    0.7638 C   0  0  0  0  0  0  0  0  0  0  0  0
   29.6470    2.7482    0.6560 C   0  0  0  0  0  0  0  0  0  0  0  0
   30.9314    3.3683    0.8303 C   0  0  0  0  0  0  0  0  0  0  0  0
   31.8702    2.4098    0.6237 C   0  0  0  0  0  0  0  0  0  0  0  0
   29.8310    1.4287    0.3379 N   0  0  0  0  0  0  0  0  0  0  0  0
   31.1706    1.1966    0.3177 C   0  0  0  0  0  0  0  0  0  0  0  0
   31.7916   -0.0382    0.0401 C   0  0  0  0  0  0  0  0  0  0  0  0
   31.1272   -1.2418   -0.2717 C   0  0  0  0  0  0  0  0  0  0  0  0
   31.7832   -2.4837   -0.5584 C   0  0  0  0  0  0  0  0  0  0  0  0
   30.8117   -3.3935   -0.8258 C   0  0  0  0  0  0  0  0  0  0  0  0
   29.5506   -2.7162   -0.7006 C   0  0  0  0  0  0  0  0  0  0  0  0
   28.2977   -3.2953   -0.9261 C   0  0  0  0  0  0  0  0  0  0  0  0
   28.2715   -4.7405   -1.2691 C   0  0  0  0  0  0  0  0  0  0  0  0
   27.7980   -5.1618   -2.5097 C   0  0  0  0  0  0  0  0  0  0  0  0
   27.7765   -6.5147   -2.8364 C   0  0  0  0  0  0  0  0  0  0  0  0
   27.2523   -6.9572   -4.1761 C   0  0  0  0  0  0  0  0  0  0  0  0
   28.2263   -7.4470   -1.9083 C   0  0  0  0  0  0  0  0  0  0  0  0
   28.6995   -7.0419   -0.6624 C   0  0  0  0  0  0  0  0  0  0  0  0
   29.1951   -8.0647    0.3242 C   0  0  0  0  0  0  0  0  0  0  0  0
   28.7227   -5.6880   -0.3501 C   0  0  0  0  0  0  0  0  0  0  0  0
   27.0669   -2.6314   -0.8583 C   0  0  0  0  0  0  0  0  0  0  0  0
   25.7781   -3.2381   -1.0623 C   0  0  0  0  0  0  0  0  0  0  0  0
   24.8462   -2.2672   -0.8911 C   0  0  0  0  0  0  0  0  0  0  0  0
   25.5524   -1.0584   -0.5704 C   0  0  0  0  0  0  0  0  0  0  0  0
   26.8940   -1.3119   -0.5576 N   0  0  0  0  0  0  0  0  0  0  0  0
   29.7810   -1.4081   -0.3658 N   0  0  0  0  0  0  0  0  0  0  0  0
   28.4401    4.8339    1.1536 C   0  0  0  0  0  0  0  0  0  0  0  0
   27.9653    5.8117    0.2804 C   0  0  0  0  0  0  0  0  0  0  0  0
   27.9908    7.1541    0.6418 C   0  0  0  0  0  0  0  0  0  0  0  0
   27.5034    8.2097   -0.3138 C   0  0  0  0  0  0  0  0  0  0  0  0
   28.4924    7.5158    1.8889 C   0  0  0  0  0  0  0  0  0  0  0  0
   28.9683    6.5517    2.7722 C   0  0  0  0  0  0  0  0  0  0  0  0
   29.4862    6.9500    4.1280 C   0  0  0  0  0  0  0  0  0  0  0  0
   28.9411    5.2123    2.3981 C   0  0  0  0  0  0  0  0  0  0  0  0
   23.8711    0.1970   -0.3426 H   0  0  0  0  0  0  0  0  0  0  0  0
   23.8593    2.7246    0.3706 H   0  0  0  0  0  0  0  0  0  0  0  0
   25.7634    4.5142    0.9798 H   0  0  0  0  0  0  0  0  0  0  0  0
   31.0922    4.4078    1.0669 H   0  0  0  0  0  0  0  0  0  0  0  0
   32.9432    2.5090    0.6686 H   0  0  0  0  0  0  0  0  0  0  0  0
   32.8514   -2.6317   -0.5582 H   0  0  0  0  0  0  0  0  0  0  0  0
   30.9361   -4.4295   -1.0969 H   0  0  0  0  0  0  0  0  0  0  0  0
   27.4607   -4.4250   -3.2306 H   0  0  0  0  0  0  0  0  0  0  0  0
   27.6002   -7.9611   -4.4193 H   0  0  0  0  0  0  0  0  0  0  0  0
   26.1601   -6.9669   -4.1634 H   0  0  0  0  0  0  0  0  0  0  0  0
   27.5740   -6.2723   -4.9614 H   0  0  0  0  0  0  0  0  0  0  0  0
   28.2101   -8.5034   -2.1563 H   0  0  0  0  0  0  0  0  0  0  0  0
   29.2928   -7.6319    1.3197 H   0  0  0  0  0  0  0  0  0  0  0  0
   28.5113   -8.9131    0.3745 H   0  0  0  0  0  0  0  0  0  0  0  0
   30.1735   -8.4385    0.0143 H   0  0  0  0  0  0  0  0  0  0  0  0
   29.0788   -5.3600    0.6205 H   0  0  0  0  0  0  0  0  0  0  0  0
   25.6121   -4.2776   -1.2961 H   0  0  0  0  0  0  0  0  0  0  0  0
   23.7732   -2.3521   -0.9653 H   0  0  0  0  0  0  0  0  0  0  0  0
   27.5897    5.5189   -0.6941 H   0  0  0  0  0  0  0  0  0  0  0  0
   27.0070    9.0186    0.2232 H   0  0  0  0  0  0  0  0  0  0  0  0
   26.8071    7.7875   -1.0386 H   0  0  0  0  0  0  0  0  0  0  0  0
   28.3485    8.6349   -0.8601 H   0  0  0  0  0  0  0  0  0  0  0  0
   28.5131    8.5625    2.1751 H   0  0  0  0  0  0  0  0  0  0  0  0
   28.6661    6.9623    4.8496 H   0  0  0  0  0  0  0  0  0  0  0  0
   29.9266    7.9469    4.0984 H   0  0  0  0  0  0  0  0  0  0  0  0
   30.2370    6.2422    4.4801 H   0  0  0  0  0  0  0  0  0  0  0  0
   29.2982    4.4505    3.0826 H   0  0  0  0  0  0  0  0  0  0  0  0
   60.4547    0.0592   -0.0717 Zn  0  0  0  0  0  0  0  0  0  0  0  0
   63.8570    0.2268   -0.2585 C   0  0  0  0  0  0  0  0  0  0  0  0
   63.2130   -0.4490   -1.2882 C   0  0  0  0  0  0  0  0  0  0  0  0
   63.8708   -1.1011   -2.3859 C   0  0  0  0  0  0  0  0  0  0  0  0
   62.9020   -1.6567   -3.1561 C   0  0  0  0  0  0  0  0  0  0  0  0
   61.6387   -1.3412   -2.5437 C   0  0  0  0  0  0  0  0  0  0  0  0
   61.8633   -0.6151   -1.4106 N   0  0  0  0  0  0  0  0  0  0  0  0
   60.3831   -1.7348   -3.0213 C   0  0  0  0  0  0  0  0  0  0  0  0
   59.1548   -1.4541   -2.4143 C   0  0  0  0  0  0  0  0  0  0  0  0
   57.8676   -1.8093   -2.9452 C   0  0  0  0  0  0  0  0  0  0  0  0
   56.9339   -1.3395   -2.0793 C   0  0  0  0  0  0  0  0  0  0  0  0
   58.9777   -0.7693   -1.2418 N   0  0  0  0  0  0  0  0  0  0  0  0
   57.6394   -0.6898   -1.0136 C   0  0  0  0  0  0  0  0  0  0  0  0
   57.0249   -0.0607    0.0874 C   0  0  0  0  0  0  0  0  0  0  0  0
   57.6939    0.5939    1.1404 C   0  0  0  0  0  0  0  0  0  0  0  0
   57.0441    1.2302    2.2486 C   0  0  0  0  0  0  0  0  0  0  0  0
   58.0202    1.7466    3.0381 C   0  0  0  0  0  0  0  0  0  0  0  0
   59.2780    1.4279    2.4205 C   0  0  0  0  0  0  0  0  0  0  0  0
   60.5339    1.8075    2.9054 C   0  0  0  0  0  0  0  0  0  0  0  0
   60.5674    2.5451    4.1944 C   0  0  0  0  0  0  0  0  0  0  0  0
   61.0448    3.8528    4.2467 C   0  0  0  0  0  0  0  0  0  0  0  0
   61.0749    4.5472    5.4526 C   0  0  0  0  0  0  0  0  0  0  0  0
   61.6039    5.9555    5.4971 C   0  0  0  0  0  0  0  0  0  0  0  0
   60.6293    3.9206    6.6111 C   0  0  0  0  0  0  0  0  0  0  0  0
   60.1518    2.6125    6.5757 C   0  0  0  0  0  0  0  0  0  0  0  0
   59.6605    1.9552    7.8373 C   0  0  0  0  0  0  0  0  0  0  0  0
   60.1202    1.9316    5.3647 C   0  0  0  0  0  0  0  0  0  0  0  0
   61.7610    1.5539    2.2810 C   0  0  0  0  0  0  0  0  0  0  0  0
   63.0529    1.9249    2.7951 C   0  0  0  0  0  0  0  0  0  0  0  0
   63.9791    1.4891    1.9048 C   0  0  0  0  0  0  0  0  0  0  0  0
   63.2666    0.8365    0.8422 C   0  0  0  0  0  0  0  0  0  0  0  0
   61.9268    0.8914    1.0998 N   0  0  0  0  0  0  0  0  0  0  0  0
   59.0414    0.7303    1.2661 N   0  0  0  0  0  0  0  0  0  0  0  0
   60.3502   -2.5151   -4.2849 C   0  0  0  0  0  0  0  0  0  0  0  0
   60.8011   -1.9471   -5.4756 C   0  0  0  0  0  0  0  0  0  0  0  0
   60.7667   -2.6720   -6.6616 C   0  0  0  0  0  0  0  0  0  0  0  0
   61.2272   -2.0459   -7.9504 C   0  0  0  0  0  0  0  0  0  0  0  0
   60.2806   -3.9764   -6.6503 C   0  0  0  0  0  0  0  0  0  0  0  0
   59.8289   -4.5580   -5.4697 C   0  0  0  0  0  0  0  0  0  0  0  0
   59.3274   -5.9770   -5.4629 C   0  0  0  0  0  0  0  0  0  0  0  0
   59.8644   -3.8216   -4.2902 C   0  0  0  0  0  0  0  0  0  0  0  0
   64.9405    0.2710   -0.3124 H   0  0  0  0  0  0  0  0  0  0  0  0
   64.9391   -1.1306   -2.5338 H   0  0  0  0  0  0  0  0  0  0  0  0
   63.0267   -2.2388   -4.0553 H   0  0  0  0  0  0  0  0  0  0  0  0
   57.7018   -2.3384   -3.8699 H   0  0  0  0  0  0  0  0  0  0  0  0
   55.8607   -1.4174   -2.1517 H   0  0  0  0  0  0  0  0  0  0  0  0
   55.9765    1.2750    2.3948 H   0  0  0  0  0  0  0  0  0  0  0  0
   57.9013    2.3061    3.9520 H   0  0  0  0  0  0  0  0  0  0  0  0
   61.3785    4.3361    3.3348 H   0  0  0  0  0  0  0  0  0  0  0  0
   61.2578    6.4746    6.3909 H   0  0  0  0  0  0  0  0  0  0  0  0
   62.6961    5.9422    5.5101 H   0  0  0  0  0  0  0  0  0  0  0  0
   61.2843    6.5155    4.6176 H   0  0  0  0  0  0  0  0  0  0  0  0
   60.6525    4.4560    7.5547 H   0  0  0  0  0  0  0  0  0  0  0  0
   59.5691    0.8771    7.7058 H   0  0  0  0  0  0  0  0  0  0  0  0
   60.3430    2.1526    8.6649 H   0  0  0  0  0  0  0  0  0  0  0  0
   58.6796    2.3528    8.1072 H   0  0  0  0  0  0  0  0  0  0  0  0
   59.7610    0.9090    5.3252 H   0  0  0  0  0  0  0  0  0  0  0  0
   63.2248    2.4439    3.7246 H   0  0  0  0  0  0  0  0  0  0  0  0
   65.0522    1.5882    1.9566 H   0  0  0  0  0  0  0  0  0  0  0  0
   61.1649   -0.9253   -5.4741 H   0  0  0  0  0  0  0  0  0  0  0  0
   61.7205   -2.7831   -8.5846 H   0  0  0  0  0  0  0  0  0  0  0  0
   61.9185   -1.2250   -7.7593 H   0  0  0  0  0  0  0  0  0  0  0  0
   60.3691   -1.6489   -8.4976 H   0  0  0  0  0  0  0  0  0  0  0  0
   60.2529   -4.5458   -7.5737 H   0  0  0  0  0  0  0  0  0  0  0  0
   60.1583   -6.6635   -5.2844 H   0  0  0  0  0  0  0  0  0  0  0  0
   58.8754   -6.2340   -6.4212 H   0  0  0  0  0  0  0  0  0  0  0  0
   58.5902   -6.1245   -4.6734 H   0  0  0  0  0  0  0  0  0  0  0  0
   59.5256   -4.2678   -3.3615 H   0  0  0  0  0  0  0  0  0  0  0  0
   36.9928   -0.1114    0.0899 C   0  0  0  0  0  0  0  0  0  0  0  0
   35.7643   -0.1021    0.0895 C   0  0  0  0  0  0  0  0  0  0  0  0
   34.4201   -0.0873    0.0788 C   0  0  0  0  0  0  0  0  0  0  0  0
   33.1962   -0.0680    0.0660 C   0  0  0  0  0  0  0  0  0  0  0  0
   38.3370   -0.1168    0.0887 C   0  0  0  0  0  0  0  0  0  0  0  0
   39.5613   -0.1187    0.0840 C   0  0  0  0  0  0  0  0  0  0  0  0
   53.0501   -0.0921    0.1652 C   0  0  0  0  0  0  0  0  0  0  0  0
   51.8222   -0.0960    0.1652 C   0  0  0  0  0  0  0  0  0  0  0  0
   50.4768   -0.1040    0.1564 C   0  0  0  0  0  0  0  0  0  0  0  0
   49.2532   -0.1053    0.1381 C   0  0  0  0  0  0  0  0  0  0  0  0
   54.3956   -0.0859    0.1525 C   0  0  0  0  0  0  0  0  0  0  0  0
   55.6189   -0.0781    0.1294 C   0  0  0  0  0  0  0  0  0  0  0  0
   44.4072   -0.1156    0.0782 Zn  0  0  0  0  0  0  0  0  0  0  0  0
   40.9660   -0.1188    0.0785 C   0  0  0  0  0  0  0  0  0  0  0  0
   41.6093    1.1287   -0.0546 C   0  0  0  0  0  0  0  0  0  0  0  0
   40.9317    2.3866   -0.1636 C   0  0  0  0  0  0  0  0  0  0  0  0
   41.8878    3.3426   -0.2895 C   0  0  0  0  0  0  0  0  0  0  0  0
   43.1592    2.6753   -0.2645 C   0  0  0  0  0  0  0  0  0  0  0  0
   42.9528    1.3303   -0.1116 N   0  0  0  0  0  0  0  0  0  0  0  0
   44.4044    3.3063   -0.3560 C   0  0  0  0  0  0  0  0  0  0  0  0
   45.6508    2.6766   -0.2732 C   0  0  0  0  0  0  0  0  0  0  0  0
   46.9223    3.3322   -0.4012 C   0  0  0  0  0  0  0  0  0  0  0  0
   47.8795    2.3794   -0.2620 C   0  0  0  0  0  0  0  0  0  0  0  0
   45.8586    1.3376   -0.0759 N   0  0  0  0  0  0  0  0  0  0  0  0
   47.2030    1.1322   -0.0610 C   0  0  0  0  0  0  0  0  0  0  0  0
   47.8472   -0.1087    0.1153 C   0  0  0  0  0  0  0  0  0  0  0  0
   47.2047   -1.3538    0.2658 C   0  0  0  0  0  0  0  0  0  0  0  0
   47.8822   -2.6013    0.4614 C   0  0  0  0  0  0  0  0  0  0  0  0
   46.9266   -3.5609    0.5578 C   0  0  0  0  0  0  0  0  0  0  0  0
   45.6553   -2.9080    0.4150 C   0  0  0  0  0  0  0  0  0  0  0  0
   44.4101   -3.5438    0.4669 C   0  0  0  0  0  0  0  0  0  0  0  0
   44.4130   -5.0203    0.6292 C   0  0  0  0  0  0  0  0  0  0  0  0
   43.8469   -5.6052    1.7603 C   0  0  0  0  0  0  0  0  0  0  0  0
   43.8465   -6.9878    1.9165 C   0  0  0  0  0  0  0  0  0  0  0  0
   43.2516   -7.6075    3.1523 C   0  0  0  0  0  0  0  0  0  0  0  0
   44.4169   -7.7854    0.9300 C   0  0  0  0  0  0  0  0  0  0  0  0
   44.9846   -7.2162   -0.2070 C   0  0  0  0  0  0  0  0  0  0  0  0
   45.6109   -8.0917   -1.2588 C   0  0  0  0  0  0  0  0  0  0  0  0
   44.9819   -5.8336   -0.3506 C   0  0  0  0  0  0  0  0  0  0  0  0
   43.1638   -2.9143    0.3823 C   0  0  0  0  0  0  0  0  0  0  0  0
   41.8931   -3.5834    0.3980 C   0  0  0  0  0  0  0  0  0  0  0  0
   40.9356   -2.6264    0.2932 C   0  0  0  0  0  0  0  0  0  0  0  0
   41.6114   -1.3662    0.2012 C   0  0  0  0  0  0  0  0  0  0  0  0
   42.9553   -1.5670    0.2521 N   0  0  0  0  0  0  0  0  0  0  0  0
   45.8613   -1.5649    0.2469 N   0  0  0  0  0  0  0  0  0  0  0  0
   44.4015    4.7776   -0.5608 C   0  0  0  0  0  0  0  0  0  0  0  0
   44.9515    5.6251    0.3993 C   0  0  0  0  0  0  0  0  0  0  0  0
   44.9467    7.0034    0.2113 C   0  0  0  0  0  0  0  0  0  0  0  0
   45.5557    7.9103    1.2465 C   0  0  0  0  0  0  0  0  0  0  0  0
   44.3918    7.5315   -0.9502 C   0  0  0  0  0  0  0  0  0  0  0  0
   43.8391    6.6982   -1.9187 C   0  0  0  0  0  0  0  0  0  0  0  0
   43.2589    7.2796   -3.1798 C   0  0  0  0  0  0  0  0  0  0  0  0
   43.8457    5.3224   -1.7178 C   0  0  0  0  0  0  0  0  0  0  0  0
   39.8612    2.5151   -0.1405 H   0  0  0  0  0  0  0  0  0  0  0  0
   41.7466    4.4077   -0.3793 H   0  0  0  0  0  0  0  0  0  0  0  0
   47.0631    4.3852   -0.5846 H   0  0  0  0  0  0  0  0  0  0  0  0
   48.9503    2.5014   -0.3002 H   0  0  0  0  0  0  0  0  0  0  0  0
   48.9525   -2.7195    0.5219 H   0  0  0  0  0  0  0  0  0  0  0  0
   47.0681   -4.6169    0.7229 H   0  0  0  0  0  0  0  0  0  0  0  0
   43.4164   -4.9728    2.5291 H   0  0  0  0  0  0  0  0  0  0  0  0
   42.9441   -8.6360    2.9631 H   0  0  0  0  0  0  0  0  0  0  0  0
   43.9907   -7.6147    3.9567 H   0  0  0  0  0  0  0  0  0  0  0  0
   42.3870   -7.0371    3.4931 H   0  0  0  0  0  0  0  0  0  0  0  0
   44.4171   -8.8645    1.0454 H   0  0  0  0  0  0  0  0  0  0  0  0
   45.6916   -7.5632   -2.2087 H   0  0  0  0  0  0  0  0  0  0  0  0
   45.0232   -8.9981   -1.4077 H   0  0  0  0  0  0  0  0  0  0  0  0
   46.6148   -8.3876   -0.9458 H   0  0  0  0  0  0  0  0  0  0  0  0
   45.4076   -5.3789   -1.2385 H   0  0  0  0  0  0  0  0  0  0  0  0
   41.7529   -4.6500    0.4693 H   0  0  0  0  0  0  0  0  0  0  0  0
   39.8652   -2.7555    0.2716 H   0  0  0  0  0  0  0  0  0  0  0  0
   45.3681    5.2029    1.3073 H   0  0  0  0  0  0  0  0  0  0  0  0
   45.0894    8.8955    1.2239 H   0  0  0  0  0  0  0  0  0  0  0  0
   46.6229    8.0343    1.0488 H   0  0  0  0  0  0  0  0  0  0  0  0
   45.4435    7.4888    2.2457 H   0  0  0  0  0  0  0  0  0  0  0  0
   44.3860    8.6061   -1.1015 H   0  0  0  0  0  0  0  0  0  0  0  0
   42.8035    8.2509   -2.9851 H   0  0  0  0  0  0  0  0  0  0  0  0
   42.5062    6.6149   -3.6040 H   0  0  0  0  0  0  0  0  0  0  0  0
   44.0483    7.4180   -3.9222 H   0  0  0  0  0  0  0  0  0  0  0  0
   43.4282    4.6619   -2.4700 H   0  0  0  0  0  0  0  0  0  0  0  0
  2  3  4  0  0  0  0
  3  4  1  0  0  0  0
  4  5  2  0  0  0  0
  5  6  4  0  0  0  0
  1  7  1  0  0  0  0
  3  7  4  0  0  0  0
  6  7  4  0  0  0  0
  6  8  4  0  0  0  0
  8  9  4  0  0  0  0
  9 10  4  0  0  0  0
 10 11  2  0  0  0  0
  1 12  1  0  0  0  0
  9 12  4  0  0  0  0
 11 13  4  0  0  0  0
 12 13  4  0  0  0  0
 13 14  4  0  0  0  0
 14 15  4  0  0  0  0
 15 16  4  0  0  0  0
 16 17  2  0  0  0  0
 17 18  4  0  0  0  0
 18 19  4  0  0  0  0
 19 20  1  0  0  0  0
 20 21  4  0  0  0  0
 21 22  4  0  0  0  0
 22 23  1  0  0  0  0
 22 24  4  0  0  0  0
 24 25  4  0  0  0  0
 25 26  1  0  0  0  0
 20 27  4  0  0  0  0
 25 27  4  0  0  0  0
 19 28  4  0  0  0  0
 28 29  4  0  0  0  0
 29 30  2  0  0  0  0
  2 31  4  0  0  0  0
 30 31  1  0  0  0  0
  1 32  1  0  0  0  0
 28 32  4  0  0  0  0
 31 32  4  0  0  0  0
  1 33  1  0  0  0  0
 15 33  4  0  0  0  0
 18 33  4  0  0  0  0
  8 34  1  0  0  0  0
 34 35  4  0  0  0  0
 35 36  4  0  0  0  0
 36 37  1  0  0  0  0
 36 38  4  0  0  0  0
 38 39  4  0  0  0  0
 39 40  1  0  0  0  0
 34 41  4  0  0  0  0
 39 41  4  0  0  0  0
  2 42  1  0  0  0  0
  4 43  1  0  0  0  0
  5 44  1  0  0  0  0
 10 45  1  0  0  0  0
 11 46  1  0  0  0  0
 16 47  1  0  0  0  0
 17 48  1  0  0  0  0
 21 49  1  0  0  0  0
 23 50  1  0  0  0  0
 23 51  1  0  0  0  0
 23 52  1  0  0  0  0
 24 53  1  0  0  0  0
 26 54  1  0  0  0  0
 26 55  1  0  0  0  0
 26 56  1  0  0  0  0
 27 57  1  0  0  0  0
 29 58  1  0  0  0  0
 30 59  1  0  0  0  0
 35 60  1  0  0  0  0
 37 61  1  0  0  0  0
 37 62  1  0  0  0  0
 37 63  1  0  0  0  0
 38 64  1  0  0  0  0
 40 65  1  0  0  0  0
 40 66  1  0  0  0  0
 40 67  1  0  0  0  0
 41 68  1  0  0  0  0
 70 71  4  0  0  0  0
 71 72  1  0  0  0  0
 72 73  2  0  0  0  0
 73 74  4  0  0  0  0
 69 75  1  0  0  0  0
 71 75  4  0  0  0  0
 74 75  4  0  0  0  0
 74 76  4  0  0  0  0
 76 77  4  0  0  0  0
 77 78  4  0  0  0  0
 78 79  2  0  0  0  0
 69 80  1  0  0  0  0
 77 80  4  0  0  0  0
 79 81  4  0  0  0  0
 80 81  4  0  0  0  0
 81 82  4  0  0  0  0
 82 83  4  0  0  0  0
 83 84  4  0  0  0  0
 84 85  2  0  0  0  0
 85 86  4  0  0  0  0
 86 87  4  0  0  0  0
 87 88  1  0  0  0  0
 88 89  4  0  0  0  0
 89 90  4  0  0  0  0
 90 91  1  0  0  0  0
 90 92  4  0  0  0  0
 92 93  4  0  0  0  0
 93 94  1  0  0  0  0
 88 95  4  0  0  0  0
 93 95  4  0  0  0  0
 87 96  4  0  0  0  0
 96 97  4  0  0  0  0
 97 98  2  0  0  0  0
 70 99  4  0  0  0  0
 98 99  1  0  0  0  0
 69100  1  0  0  0  0
 96100  4  0  0  0  0
 99100  4  0  0  0  0
 69101  1  0  0  0  0
 83101  4  0  0  0  0
 86101  4  0  0  0  0
 76102  1  0  0  0  0
102103  4  0  0  0  0
103104  4  0  0  0  0
104105  1  0  0  0  0
104106  4  0  0  0  0
106107  4  0  0  0  0
107108  1  0  0  0  0
102109  4  0  0  0  0
107109  4  0  0  0  0
 70110  1  0  0  0  0
 72111  1  0  0  0  0
 73112  1  0  0  0  0
 78113  1  0  0  0  0
 79114  1  0  0  0  0
 84115  1  0  0  0  0
 85116  1  0  0  0  0
 89117  1  0  0  0  0
 91118  1  0  0  0  0
 91119  1  0  0  0  0
 91120  1  0  0  0  0
 92121  1  0  0  0  0
 94122  1  0  0  0  0
 94123  1  0  0  0  0
 94124  1  0  0  0  0
 95125  1  0  0  0  0
 97126  1  0  0  0  0
 98127  1  0  0  0  0
103128  1  0  0  0  0
105129  1  0  0  0  0
105130  1  0  0  0  0
105131  1  0  0  0  0
106132  1  0  0  0  0
108133  1  0  0  0  0
108134  1  0  0  0  0
108135  1  0  0  0  0
109136  1  0  0  0  0
137138  3  0  0  0  0
138139  4  0  0  0  0
 14140  4  0  0  0  0
139140  3  0  0  0  0
137141  4  0  0  0  0
141142  3  0  0  0  0
143144  3  0  0  0  0
144145  4  0  0  0  0
145146  3  0  0  0  0
143147  4  0  0  0  0
 82148  4  0  0  0  0
147148  3  0  0  0  0
142150  4  0  0  0  0
150151  4  0  0  0  0
151152  4  0  0  0  0
152153  2  0  0  0  0
153154  4  0  0  0  0
149155  1  0  0  0  0
151155  4  0  0  0  0
154155  4  0  0  0  0
154156  4  0  0  0  0
156157  4  0  0  0  0
157158  4  0  0  0  0
158159  2  0  0  0  0
149160  1  0  0  0  0
157160  4  0  0  0  0
159161  4  0  0  0  0
160161  4  0  0  0  0
146162  4  0  0  0  0
161162  4  0  0  0  0
162163  4  0  0  0  0
163164  4  0  0  0  0
164165  2  0  0  0  0
165166  4  0  0  0  0
166167  4  0  0  0  0
167168  1  0  0  0  0
168169  4  0  0  0  0
169170  4  0  0  0  0
170171  1  0  0  0  0
170172  4  0  0  0  0
172173  4  0  0  0  0
173174  1  0  0  0  0
168175  4  0  0  0  0
173175  4  0  0  0  0
167176  4  0  0  0  0
176177  4  0  0  0  0
177178  2  0  0  0  0
150179  4  0  0  0  0
178179  4  0  0  0  0
149180  1  0  0  0  0
176180  4  0  0  0  0
179180  4  0  0  0  0
149181  1  0  0  0  0
163181  4  0  0  0  0
166181  4  0  0  0  0
156182  1  0  0  0  0
182183  4  0  0  0  0
183184  4  0  0  0  0
184185  1  0  0  0  0
184186  4  0  0  0  0
186187  4  0  0  0  0
187188  1  0  0  0  0
182189  4  0  0  0  0
187189  4  0  0  0  0
152190  1  0  0  0  0
153191  1  0  0  0  0
158192  1  0  0  0  0
159193  1  0  0  0  0
164194  1  0  0  0  0
165195  1  0  0  0  0
169196  1  0  0  0  0
171197  1  0  0  0  0
171198  1  0  0  0  0
171199  1  0  0  0  0
172200  1  0  0  0  0
174201  1  0  0  0  0
174202  1  0  0  0  0
174203  1  0  0  0  0
175204  1  0  0  0  0
177205  1  0  0  0  0
178206  1  0  0  0  0
183207  1  0  0  0  0
185208  1  0  0  0  0
185209  1  0  0  0  0
185210  1  0  0  0  0
186211  1  0  0  0  0
188212  1  0  0  0  0
188213  1  0  0  0  0
188214  1  0  0  0  0
189215  1  0  0  0  0
M  END
