 xtb: 6.5.1 (b24c23e)
          07312213283D

338372  0     0  0            999 V2000
   62.4034    0.0080    0.1012 C   0  0  0  0  0  0  0  0  0  0  0  0
   63.0006   -1.2071   -0.2069 C   0  0  0  0  0  0  0  0  0  0  0  0
   62.3380   -2.4408   -0.4626 C   0  0  0  0  0  0  0  0  0  0  0  0
   63.2899   -3.3810   -0.7377 C   0  0  0  0  0  0  0  0  0  0  0  0
   64.5653   -2.7496   -0.6676 C   0  0  0  0  0  0  0  0  0  0  0  0
   64.3402   -1.4443   -0.3356 N   0  0  0  0  0  0  0  0  0  0  0  0
   65.8220   -3.3316   -0.8661 C   0  0  0  0  0  0  0  0  0  0  0  0
   65.8376   -4.7649   -1.2462 C   0  0  0  0  0  0  0  0  0  0  0  0
   65.2259   -5.1854   -2.4301 C   0  0  0  0  0  0  0  0  0  0  0  0
   65.2407   -6.5219   -2.7935 C   0  0  0  0  0  0  0  0  0  0  0  0
   65.8675   -7.4315   -1.9573 C   0  0  0  0  0  0  0  0  0  0  0  0
   65.8968   -9.1233   -2.4163 S   0  0  0  0  0  0  0  0  0  0  0  0
   65.7614   -9.2717   -3.8358 O   0  0  0  0  0  0  0  0  0  0  0  0
   64.4959   -9.5778   -1.7311 O   0  0  0  0  0  0  0  0  0  0  0  0
   66.9680   -9.8081   -1.7557 O   0  0  0  0  0  0  0  0  0  0  0  0
   66.4827   -7.0454   -0.7775 C   0  0  0  0  0  0  0  0  0  0  0  0
   66.4657   -5.7057   -0.4262 C   0  0  0  0  0  0  0  0  0  0  0  0
   67.0458   -2.6687   -0.7366 C   0  0  0  0  0  0  0  0  0  0  0  0
   68.3349   -3.2842   -1.0005 C   0  0  0  0  0  0  0  0  0  0  0  0
   69.2653   -2.3364   -0.7662 C   0  0  0  0  0  0  0  0  0  0  0  0
   67.2134   -1.3690   -0.3733 N   0  0  0  0  0  0  0  0  0  0  0  0
   68.5436   -1.1412   -0.3728 C   0  0  0  0  0  0  0  0  0  0  0  0
   69.1910    0.0656   -0.0480 C   0  0  0  0  0  0  0  0  0  0  0  0
   68.5697    1.2810    0.2894 C   0  0  0  0  0  0  0  0  0  0  0  0
   69.2278    2.4917    0.6348 C   0  0  0  0  0  0  0  0  0  0  0  0
   68.2713    3.4344    0.8891 C   0  0  0  0  0  0  0  0  0  0  0  0
   66.9975    2.8293    0.6983 C   0  0  0  0  0  0  0  0  0  0  0  0
   67.2297    1.5272    0.3446 N   0  0  0  0  0  0  0  0  0  0  0  0
   65.7407    3.4205    0.8671 C   0  0  0  0  0  0  0  0  0  0  0  0
   65.7248    4.8571    1.2314 C   0  0  0  0  0  0  0  0  0  0  0  0
   66.2928    5.8070    0.3780 C   0  0  0  0  0  0  0  0  0  0  0  0
   66.2806    7.1508    0.7128 C   0  0  0  0  0  0  0  0  0  0  0  0
   65.7001    7.5322    1.9116 C   0  0  0  0  0  0  0  0  0  0  0  0
   65.6794    9.2317    2.3404 S   0  0  0  0  0  0  0  0  0  0  0  0
   65.7744   10.0553    1.1712 O   0  0  0  0  0  0  0  0  0  0  0  0
   67.1050    9.2937    3.1178 O   0  0  0  0  0  0  0  0  0  0  0  0
   64.6394    9.5048    3.2878 O   0  0  0  0  0  0  0  0  0  0  0  0
   65.1265    6.6150    2.7772 C   0  0  0  0  0  0  0  0  0  0  0  0
   65.1404    5.2742    2.4302 C   0  0  0  0  0  0  0  0  0  0  0  0
   64.5162    2.7601    0.7194 C   0  0  0  0  0  0  0  0  0  0  0  0
   63.2170    3.4030    0.8482 C   0  0  0  0  0  0  0  0  0  0  0  0
   62.2942    2.4437    0.6369 C   0  0  0  0  0  0  0  0  0  0  0  0
   63.0280    1.2193    0.3668 C   0  0  0  0  0  0  0  0  0  0  0  0
   64.3631    1.4499    0.4165 N   0  0  0  0  0  0  0  0  0  0  0  0
   61.3186    0.0021    0.1316 H   0  0  0  0  0  0  0  0  0  0  0  0
   61.2691   -2.5785   -0.4312 H   0  0  0  0  0  0  0  0  0  0  0  0
   63.1297   -4.4234   -0.9608 H   0  0  0  0  0  0  0  0  0  0  0  0
   65.0712   -0.7538   -0.2012 H   0  0  0  0  0  0  0  0  0  0  0  0
   64.7536   -4.4560   -3.0778 H   0  0  0  0  0  0  0  0  0  0  0  0
   64.7806   -6.8565   -3.7148 H   0  0  0  0  0  0  0  0  0  0  0  0
   64.2856  -10.4876   -1.9744 H   0  0  0  0  0  0  0  0  0  0  0  0
   66.9677   -7.7825   -0.1500 H   0  0  0  0  0  0  0  0  0  0  0  0
   66.9313   -5.3844    0.4981 H   0  0  0  0  0  0  0  0  0  0  0  0
   68.4854   -4.2984   -1.3330 H   0  0  0  0  0  0  0  0  0  0  0  0
   70.3374   -2.4095   -0.8542 H   0  0  0  0  0  0  0  0  0  0  0  0
   70.2977    2.6138    0.6854 H   0  0  0  0  0  0  0  0  0  0  0  0
   68.4308    4.4559    1.1937 H   0  0  0  0  0  0  0  0  0  0  0  0
   66.4994    0.8469    0.1613 H   0  0  0  0  0  0  0  0  0  0  0  0
   66.7292    5.4897   -0.5620 H   0  0  0  0  0  0  0  0  0  0  0  0
   66.7079    7.8958    0.0534 H   0  0  0  0  0  0  0  0  0  0  0  0
   67.2826   10.1943    3.4155 H   0  0  0  0  0  0  0  0  0  0  0  0
   64.6764    6.9488    3.7036 H   0  0  0  0  0  0  0  0  0  0  0  0
   64.7086    4.5394    3.0996 H   0  0  0  0  0  0  0  0  0  0  0  0
   63.0577    4.4485    1.0571 H   0  0  0  0  0  0  0  0  0  0  0  0
   61.2189    2.5270    0.6462 H   0  0  0  0  0  0  0  0  0  0  0  0
  122.9905    0.0469    0.0902 C   0  0  0  0  0  0  0  0  0  0  0  0
  122.3929    1.2427    0.4655 C   0  0  0  0  0  0  0  0  0  0  0  0
  123.0551    2.4305    0.8863 C   0  0  0  0  0  0  0  0  0  0  0  0
  122.1026    3.3744    1.1463 C   0  0  0  0  0  0  0  0  0  0  0  0
  120.8271    2.7965    0.8827 C   0  0  0  0  0  0  0  0  0  0  0  0
  121.0528    1.5093    0.4867 N   0  0  0  0  0  0  0  0  0  0  0  0
  119.5696    3.3958    1.0138 C   0  0  0  0  0  0  0  0  0  0  0  0
  119.5503    4.8165    1.4373 C   0  0  0  0  0  0  0  0  0  0  0  0
  120.1670    5.7962    0.6548 C   0  0  0  0  0  0  0  0  0  0  0  0
  120.1499    7.1243    1.0478 C   0  0  0  0  0  0  0  0  0  0  0  0
  119.5157    7.4592    2.2332 C   0  0  0  0  0  0  0  0  0  0  0  0
  119.4859    9.1391    2.7336 S   0  0  0  0  0  0  0  0  0  0  0  0
  119.6270   10.0138    1.6065 O   0  0  0  0  0  0  0  0  0  0  0  0
  120.8842    9.1643    3.5603 O   0  0  0  0  0  0  0  0  0  0  0  0
  118.4111    9.3734    3.6517 O   0  0  0  0  0  0  0  0  0  0  0  0
  118.8939    6.5112    3.0295 C   0  0  0  0  0  0  0  0  0  0  0  0
  118.9131    5.1869    2.6245 C   0  0  0  0  0  0  0  0  0  0  0  0
  118.3471    2.7596    0.7804 C   0  0  0  0  0  0  0  0  0  0  0  0
  117.0581    3.4246    0.8588 C   0  0  0  0  0  0  0  0  0  0  0  0
  116.1282    2.4883    0.5802 C   0  0  0  0  0  0  0  0  0  0  0  0
  118.1803    1.4544    0.4369 N   0  0  0  0  0  0  0  0  0  0  0  0
  116.8502    1.2569    0.3227 C   0  0  0  0  0  0  0  0  0  0  0  0
  116.2028    0.0438    0.0209 C   0  0  0  0  0  0  0  0  0  0  0  0
  116.8247   -1.1787   -0.2887 C   0  0  0  0  0  0  0  0  0  0  0  0
  116.1681   -2.4040   -0.5814 C   0  0  0  0  0  0  0  0  0  0  0  0
  117.1250   -3.3393   -0.8611 C   0  0  0  0  0  0  0  0  0  0  0  0
  118.3972   -2.7104   -0.7544 C   0  0  0  0  0  0  0  0  0  0  0  0
  118.1641   -1.4100   -0.3954 N   0  0  0  0  0  0  0  0  0  0  0  0
  119.6541   -3.2940   -0.9470 C   0  0  0  0  0  0  0  0  0  0  0  0
  119.6714   -4.7121   -1.3777 C   0  0  0  0  0  0  0  0  0  0  0  0
  119.0720   -5.0886   -2.5827 C   0  0  0  0  0  0  0  0  0  0  0  0
  119.0905   -6.4106   -2.9954 C   0  0  0  0  0  0  0  0  0  0  0  0
  119.7085   -7.3509   -2.1870 C   0  0  0  0  0  0  0  0  0  0  0  0
  119.7416   -9.0247   -2.7068 S   0  0  0  0  0  0  0  0  0  0  0  0
  119.6077   -9.1200   -4.1307 O   0  0  0  0  0  0  0  0  0  0  0  0
  118.3432   -9.5063   -2.0342 O   0  0  0  0  0  0  0  0  0  0  0  0
  120.8125   -9.7342   -2.0714 O   0  0  0  0  0  0  0  0  0  0  0  0
  120.3119   -7.0089   -0.9877 C   0  0  0  0  0  0  0  0  0  0  0  0
  120.2916   -5.6832   -0.5870 C   0  0  0  0  0  0  0  0  0  0  0  0
  120.8784   -2.6412   -0.7662 C   0  0  0  0  0  0  0  0  0  0  0  0
  122.1771   -3.2480   -1.0177 C   0  0  0  0  0  0  0  0  0  0  0  0
  123.0996   -2.3114   -0.7208 C   0  0  0  0  0  0  0  0  0  0  0  0
  122.3660   -1.1294   -0.3023 C   0  0  0  0  0  0  0  0  0  0  0  0
  121.0312   -1.3617   -0.3520 N   0  0  0  0  0  0  0  0  0  0  0  0
  124.0757    0.0409    0.1052 H   0  0  0  0  0  0  0  0  0  0  0  0
  124.1243    2.5339    0.9794 H   0  0  0  0  0  0  0  0  0  0  0  0
  122.2626    4.3805    1.4984 H   0  0  0  0  0  0  0  0  0  0  0  0
  120.3219    0.8481    0.2463 H   0  0  0  0  0  0  0  0  0  0  0  0
  120.6452    5.5161   -0.2766 H   0  0  0  0  0  0  0  0  0  0  0  0
  120.6143    7.8929    0.4428 H   0  0  0  0  0  0  0  0  0  0  0  0
  121.1073   10.0695    3.8093 H   0  0  0  0  0  0  0  0  0  0  0  0
  118.4026    6.8088    3.9473 H   0  0  0  0  0  0  0  0  0  0  0  0
  118.4426    4.4280    3.2386 H   0  0  0  0  0  0  0  0  0  0  0  0
  116.9076    4.4685    1.0814 H   0  0  0  0  0  0  0  0  0  0  0  0
  115.0563    2.5963    0.5378 H   0  0  0  0  0  0  0  0  0  0  0  0
  115.0991   -2.5426   -0.5728 H   0  0  0  0  0  0  0  0  0  0  0  0
  116.9674   -4.3762   -1.1089 H   0  0  0  0  0  0  0  0  0  0  0  0
  118.8936   -0.7237   -0.2322 H   0  0  0  0  0  0  0  0  0  0  0  0
  118.6068   -4.3354   -3.2080 H   0  0  0  0  0  0  0  0  0  0  0  0
  118.6399   -6.7106   -3.9331 H   0  0  0  0  0  0  0  0  0  0  0  0
  118.1819  -10.4373   -2.2302 H   0  0  0  0  0  0  0  0  0  0  0  0
  120.7907   -7.7690   -0.3831 H   0  0  0  0  0  0  0  0  0  0  0  0
  120.7471   -5.3970    0.3537 H   0  0  0  0  0  0  0  0  0  0  0  0
  122.3361   -4.2493   -1.3842 H   0  0  0  0  0  0  0  0  0  0  0  0
  124.1745   -2.3798   -0.7788 H   0  0  0  0  0  0  0  0  0  0  0  0
   71.8221    0.0807   -0.0525 C   0  0  0  0  0  0  0  0  0  0  0  0
   70.6012    0.0719   -0.0570 C   0  0  0  0  0  0  0  0  0  0  0  0
   73.1745    0.0872   -0.0438 C   0  0  0  0  0  0  0  0  0  0  0  0
   74.3954    0.0937   -0.0267 C   0  0  0  0  0  0  0  0  0  0  0  0
   85.2906    0.0997    0.0567 C   0  0  0  0  0  0  0  0  0  0  0  0
   84.0681    0.1081    0.0528 C   0  0  0  0  0  0  0  0  0  0  0  0
   86.6392    0.0944    0.0556 C   0  0  0  0  0  0  0  0  0  0  0  0
   87.8618    0.0927    0.0566 C   0  0  0  0  0  0  0  0  0  0  0  0
   98.7558    0.0849    0.0741 C   0  0  0  0  0  0  0  0  0  0  0  0
   97.5332    0.0923    0.0715 C   0  0  0  0  0  0  0  0  0  0  0  0
  100.1044    0.0870    0.0775 C   0  0  0  0  0  0  0  0  0  0  0  0
  101.3270    0.0856    0.0785 C   0  0  0  0  0  0  0  0  0  0  0  0
  112.2199    0.0500    0.0528 C   0  0  0  0  0  0  0  0  0  0  0  0
  110.9989    0.0607    0.0646 C   0  0  0  0  0  0  0  0  0  0  0  0
  113.5720    0.0430    0.0391 C   0  0  0  0  0  0  0  0  0  0  0  0
  114.7929    0.0417    0.0253 C   0  0  0  0  0  0  0  0  0  0  0  0
   75.8046    0.1043   -0.0099 C   0  0  0  0  0  0  0  0  0  0  0  0
   76.4358    0.8071   -1.0520 C   0  0  0  0  0  0  0  0  0  0  0  0
   75.7926    1.4788   -2.1244 C   0  0  0  0  0  0  0  0  0  0  0  0
   76.7608    2.0382   -2.9118 C   0  0  0  0  0  0  0  0  0  0  0  0
   78.0247    1.7308   -2.3370 C   0  0  0  0  0  0  0  0  0  0  0  0
   77.7779    0.9789   -1.2206 N   0  0  0  0  0  0  0  0  0  0  0  0
   79.2876    2.0943   -2.8203 C   0  0  0  0  0  0  0  0  0  0  0  0
   79.3076    2.9377   -4.0409 C   0  0  0  0  0  0  0  0  0  0  0  0
   79.9071    2.4668   -5.2117 C   0  0  0  0  0  0  0  0  0  0  0  0
   79.9290    3.2493   -6.3544 C   0  0  0  0  0  0  0  0  0  0  0  0
   79.3481    4.5062   -6.3109 C   0  0  0  0  0  0  0  0  0  0  0  0
   79.3847    5.5078   -7.7494 S   0  0  0  0  0  0  0  0  0  0  0  0
   79.2681    6.8955   -7.4098 O   0  0  0  0  0  0  0  0  0  0  0  0
   77.9764    5.0311   -8.4033 O   0  0  0  0  0  0  0  0  0  0  0  0
   80.4476    5.1032   -8.6211 O   0  0  0  0  0  0  0  0  0  0  0  0
   78.7508    5.0028   -5.1638 C   0  0  0  0  0  0  0  0  0  0  0  0
   78.7305    4.2100   -4.0282 C   0  0  0  0  0  0  0  0  0  0  0  0
   80.5111    1.7318   -2.2547 C   0  0  0  0  0  0  0  0  0  0  0  0
   81.7996    2.1755   -2.7570 C   0  0  0  0  0  0  0  0  0  0  0  0
   82.7329    1.6203   -1.9569 C   0  0  0  0  0  0  0  0  0  0  0  0
   80.6826    0.9419   -1.1594 N   0  0  0  0  0  0  0  0  0  0  0  0
   82.0130    0.8488   -0.9625 C   0  0  0  0  0  0  0  0  0  0  0  0
   82.6633    0.1158    0.0506 C   0  0  0  0  0  0  0  0  0  0  0  0
   82.0308   -0.6146    1.0749 C   0  0  0  0  0  0  0  0  0  0  0  0
   82.6743   -1.3671    2.0915 C   0  0  0  0  0  0  0  0  0  0  0  0
   81.7056   -1.9079    2.8916 C   0  0  0  0  0  0  0  0  0  0  0  0
   80.4411   -1.4938    2.3895 C   0  0  0  0  0  0  0  0  0  0  0  0
   80.6887   -0.7216    1.2866 N   0  0  0  0  0  0  0  0  0  0  0  0
   79.1781   -1.8258    2.8940 C   0  0  0  0  0  0  0  0  0  0  0  0
   79.1584   -2.6535    4.1251 C   0  0  0  0  0  0  0  0  0  0  0  0
   78.5770   -3.9238    4.1120 C   0  0  0  0  0  0  0  0  0  0  0  0
   78.5604   -4.7015    5.2582 C   0  0  0  0  0  0  0  0  0  0  0  0
   79.1260   -4.1921    6.4158 C   0  0  0  0  0  0  0  0  0  0  0  0
   79.1199   -5.1739    7.8684 S   0  0  0  0  0  0  0  0  0  0  0  0
   78.9913   -6.5631    7.5417 O   0  0  0  0  0  0  0  0  0  0  0  0
   77.7108   -4.6621    8.4926 O   0  0  0  0  0  0  0  0  0  0  0  0
   80.1708   -4.7744    8.7579 O   0  0  0  0  0  0  0  0  0  0  0  0
   79.7110   -2.9370    6.4597 C   0  0  0  0  0  0  0  0  0  0  0  0
   79.7263   -2.1699    5.3066 C   0  0  0  0  0  0  0  0  0  0  0  0
   77.9540   -1.4450    2.3400 C   0  0  0  0  0  0  0  0  0  0  0  0
   76.6641   -1.7719    2.9227 C   0  0  0  0  0  0  0  0  0  0  0  0
   75.7310   -1.2379    2.1084 C   0  0  0  0  0  0  0  0  0  0  0  0
   76.4517   -0.5760    1.0383 C   0  0  0  0  0  0  0  0  0  0  0  0
   77.7840   -0.7099    1.2084 N   0  0  0  0  0  0  0  0  0  0  0  0
   74.7253    1.5185   -2.2701 H   0  0  0  0  0  0  0  0  0  0  0  0
   76.6148    2.6051   -3.8166 H   0  0  0  0  0  0  0  0  0  0  0  0
   78.4965    0.5986   -0.6137 H   0  0  0  0  0  0  0  0  0  0  0  0
   80.3467    1.4764   -5.2271 H   0  0  0  0  0  0  0  0  0  0  0  0
   80.3920    2.8948   -7.2667 H   0  0  0  0  0  0  0  0  0  0  0  0
   77.7859    5.5460   -9.1970 H   0  0  0  0  0  0  0  0  0  0  0  0
   78.3173    5.9951   -5.1614 H   0  0  0  0  0  0  0  0  0  0  0  0
   78.2804    4.5852   -3.1165 H   0  0  0  0  0  0  0  0  0  0  0  0
   81.9482    2.8332   -3.5979 H   0  0  0  0  0  0  0  0  0  0  0  0
   83.8057    1.7150   -2.0076 H   0  0  0  0  0  0  0  0  0  0  0  0
   83.7420   -1.4793    2.1880 H   0  0  0  0  0  0  0  0  0  0  0  0
   81.8519   -2.5460    3.7476 H   0  0  0  0  0  0  0  0  0  0  0  0
   79.9709   -0.2977    0.7085 H   0  0  0  0  0  0  0  0  0  0  0  0
   78.1513   -4.3083    3.1926 H   0  0  0  0  0  0  0  0  0  0  0  0
   78.1224   -5.6917    5.2565 H   0  0  0  0  0  0  0  0  0  0  0  0
   77.5641   -5.0612    9.3588 H   0  0  0  0  0  0  0  0  0  0  0  0
   80.1487   -2.5722    7.3805 H   0  0  0  0  0  0  0  0  0  0  0  0
   80.1687   -1.1806    5.3229 H   0  0  0  0  0  0  0  0  0  0  0  0
   76.5146   -2.3229    3.8369 H   0  0  0  0  0  0  0  0  0  0  0  0
   74.6575   -1.2661    2.2046 H   0  0  0  0  0  0  0  0  0  0  0  0
   89.2664    0.0930    0.0574 C   0  0  0  0  0  0  0  0  0  0  0  0
   89.8933    0.7706   -1.0063 C   0  0  0  0  0  0  0  0  0  0  0  0
   89.2445    1.4218   -2.0871 C   0  0  0  0  0  0  0  0  0  0  0  0
   90.2090    1.9640   -2.8918 C   0  0  0  0  0  0  0  0  0  0  0  0
   91.4755    1.6664   -2.3185 C   0  0  0  0  0  0  0  0  0  0  0  0
   91.2340    0.9356   -1.1864 N   0  0  0  0  0  0  0  0  0  0  0  0
   92.7361    2.0231   -2.8130 C   0  0  0  0  0  0  0  0  0  0  0  0
   92.7504    2.8456   -4.0478 C   0  0  0  0  0  0  0  0  0  0  0  0
   93.3482    2.3560   -5.2117 C   0  0  0  0  0  0  0  0  0  0  0  0
   93.3658    3.1188   -6.3678 C   0  0  0  0  0  0  0  0  0  0  0  0
   92.7824    4.3750   -6.3446 C   0  0  0  0  0  0  0  0  0  0  0  0
   92.8150    5.3534   -7.7997 S   0  0  0  0  0  0  0  0  0  0  0  0
   92.7287    6.7490   -7.4827 O   0  0  0  0  0  0  0  0  0  0  0  0
   91.3862    4.9012   -8.4242 O   0  0  0  0  0  0  0  0  0  0  0  0
   93.8589    4.9123   -8.6756 O   0  0  0  0  0  0  0  0  0  0  0  0
   92.1866    4.8899   -5.2047 C   0  0  0  0  0  0  0  0  0  0  0  0
   92.1704    4.1167   -4.0555 C   0  0  0  0  0  0  0  0  0  0  0  0
   93.9626    1.6738   -2.2456 C   0  0  0  0  0  0  0  0  0  0  0  0
   95.2477    2.1165   -2.7574 C   0  0  0  0  0  0  0  0  0  0  0  0
   96.1857    1.5772   -1.9519 C   0  0  0  0  0  0  0  0  0  0  0  0
   94.1407    0.8995   -1.1401 N   0  0  0  0  0  0  0  0  0  0  0  0
   95.4722    0.8149   -0.9461 C   0  0  0  0  0  0  0  0  0  0  0  0
   96.1287    0.0934    0.0713 C   0  0  0  0  0  0  0  0  0  0  0  0
   95.5019   -0.6342    1.1015 C   0  0  0  0  0  0  0  0  0  0  0  0
   96.1507   -1.3857    2.1150 C   0  0  0  0  0  0  0  0  0  0  0  0
   95.1860   -1.9256    2.9211 C   0  0  0  0  0  0  0  0  0  0  0  0
   93.9195   -1.5102    2.4267 C   0  0  0  0  0  0  0  0  0  0  0  0
   94.1609   -0.7401    1.3212 N   0  0  0  0  0  0  0  0  0  0  0  0
   92.6587   -1.8350    2.9428 C   0  0  0  0  0  0  0  0  0  0  0  0
   92.6462   -2.6641    4.1732 C   0  0  0  0  0  0  0  0  0  0  0  0
   92.0593   -3.9319    4.1616 C   0  0  0  0  0  0  0  0  0  0  0  0
   92.0515   -4.7136    5.3050 C   0  0  0  0  0  0  0  0  0  0  0  0
   92.6308   -4.2105    6.4586 C   0  0  0  0  0  0  0  0  0  0  0  0
   92.6367   -5.1988    7.9070 S   0  0  0  0  0  0  0  0  0  0  0  0
   92.5246   -6.5890    7.5769 O   0  0  0  0  0  0  0  0  0  0  0  0
   91.2190   -4.7105    8.5294 O   0  0  0  0  0  0  0  0  0  0  0  0
   93.6842   -4.7894    8.7952 O   0  0  0  0  0  0  0  0  0  0  0  0
   93.2203   -2.9575    6.5013 C   0  0  0  0  0  0  0  0  0  0  0  0
   93.2270   -2.1864    5.3507 C   0  0  0  0  0  0  0  0  0  0  0  0
   91.4323   -1.4470    2.4017 C   0  0  0  0  0  0  0  0  0  0  0  0
   90.1470   -1.7574    3.0024 C   0  0  0  0  0  0  0  0  0  0  0  0
   89.2089   -1.2193    2.1963 C   0  0  0  0  0  0  0  0  0  0  0  0
   89.9227   -0.5745    1.1113 C   0  0  0  0  0  0  0  0  0  0  0  0
   91.2541   -0.7181    1.2655 N   0  0  0  0  0  0  0  0  0  0  0  0
   88.1763    1.4609   -2.2271 H   0  0  0  0  0  0  0  0  0  0  0  0
   90.0582    2.5133   -3.8066 H   0  0  0  0  0  0  0  0  0  0  0  0
   91.9551    0.5665   -0.5757 H   0  0  0  0  0  0  0  0  0  0  0  0
   93.7901    1.3665   -5.2110 H   0  0  0  0  0  0  0  0  0  0  0  0
   93.8274    2.7496   -7.2750 H   0  0  0  0  0  0  0  0  0  0  0  0
   91.1266    5.5014   -9.1340 H   0  0  0  0  0  0  0  0  0  0  0  0
   91.7513    5.8812   -5.2182 H   0  0  0  0  0  0  0  0  0  0  0  0
   91.7218    4.5067   -3.1493 H   0  0  0  0  0  0  0  0  0  0  0  0
   95.3908    2.7634   -3.6075 H   0  0  0  0  0  0  0  0  0  0  0  0
   97.2579    1.6762   -2.0066 H   0  0  0  0  0  0  0  0  0  0  0  0
   97.2189   -1.4988    2.2055 H   0  0  0  0  0  0  0  0  0  0  0  0
   95.3372   -2.5633    3.7766 H   0  0  0  0  0  0  0  0  0  0  0  0
   93.4399   -0.3162    0.7469 H   0  0  0  0  0  0  0  0  0  0  0  0
   91.6226   -4.3112    3.2451 H   0  0  0  0  0  0  0  0  0  0  0  0
   91.6100   -5.7023    5.3042 H   0  0  0  0  0  0  0  0  0  0  0  0
   91.0287   -5.1883    9.3461 H   0  0  0  0  0  0  0  0  0  0  0  0
   93.6681   -2.5976    7.4190 H   0  0  0  0  0  0  0  0  0  0  0  0
   93.6731   -1.1988    5.3659 H   0  0  0  0  0  0  0  0  0  0  0  0
   90.0041   -2.3003    3.9226 H   0  0  0  0  0  0  0  0  0  0  0  0
   88.1365   -1.2362    2.3063 H   0  0  0  0  0  0  0  0  0  0  0  0
  102.7317    0.0907    0.0813 C   0  0  0  0  0  0  0  0  0  0  0  0
  103.3573    0.7818   -0.9741 C   0  0  0  0  0  0  0  0  0  0  0  0
  102.7075    1.4438   -2.0481 C   0  0  0  0  0  0  0  0  0  0  0  0
  103.6707    2.0023   -2.8427 C   0  0  0  0  0  0  0  0  0  0  0  0
  104.9378    1.7045   -2.2700 C   0  0  0  0  0  0  0  0  0  0  0  0
  104.6975    0.9564   -1.1489 N   0  0  0  0  0  0  0  0  0  0  0  0
  106.1972    2.0779   -2.7536 C   0  0  0  0  0  0  0  0  0  0  0  0
  106.2124    2.9195   -3.9751 C   0  0  0  0  0  0  0  0  0  0  0  0
  106.8247    2.4532   -5.1412 C   0  0  0  0  0  0  0  0  0  0  0  0
  106.8422    3.2322   -6.2863 C   0  0  0  0  0  0  0  0  0  0  0  0
  106.2442    4.4813   -6.2500 C   0  0  0  0  0  0  0  0  0  0  0  0
  106.2737    5.4786   -7.6923 S   0  0  0  0  0  0  0  0  0  0  0  0
  106.1718    6.8691   -7.3586 O   0  0  0  0  0  0  0  0  0  0  0  0
  104.8521    5.0193   -8.3285 O   0  0  0  0  0  0  0  0  0  0  0  0
  107.3254    5.0591   -8.5695 O   0  0  0  0  0  0  0  0  0  0  0  0
  105.6347    4.9736   -5.1074 C   0  0  0  0  0  0  0  0  0  0  0  0
  105.6187    4.1843   -3.9693 C   0  0  0  0  0  0  0  0  0  0  0  0
  107.4241    1.7241   -2.1875 C   0  0  0  0  0  0  0  0  0  0  0  0
  108.7085    2.1874   -2.6835 C   0  0  0  0  0  0  0  0  0  0  0  0
  109.6472    1.6281   -1.8930 C   0  0  0  0  0  0  0  0  0  0  0  0
  107.6021    0.9212   -1.1044 N   0  0  0  0  0  0  0  0  0  0  0  0
  108.9352    0.8334   -0.9113 C   0  0  0  0  0  0  0  0  0  0  0  0
  109.5901    0.0731    0.0754 C   0  0  0  0  0  0  0  0  0  0  0  0
  108.9657   -0.6823    1.0844 C   0  0  0  0  0  0  0  0  0  0  0  0
  109.6152   -1.4623    2.0766 C   0  0  0  0  0  0  0  0  0  0  0  0
  108.6523   -2.0057    2.8817 C   0  0  0  0  0  0  0  0  0  0  0  0
  107.3857   -1.5661    2.4077 C   0  0  0  0  0  0  0  0  0  0  0  0
  107.6251   -0.7793    1.3141 N   0  0  0  0  0  0  0  0  0  0  0  0
  106.1264   -1.8830    2.9323 C   0  0  0  0  0  0  0  0  0  0  0  0
  106.1161   -2.7221    4.1559 C   0  0  0  0  0  0  0  0  0  0  0  0
  105.5133   -3.9823    4.1418 C   0  0  0  0  0  0  0  0  0  0  0  0
  105.5061   -4.7711    5.2804 C   0  0  0  0  0  0  0  0  0  0  0  0
  106.1023   -4.2827    6.4317 C   0  0  0  0  0  0  0  0  0  0  0  0
  106.1082   -5.2803    7.8735 S   0  0  0  0  0  0  0  0  0  0  0  0
  105.9659   -6.6655    7.5343 O   0  0  0  0  0  0  0  0  0  0  0  0
  104.7093   -4.7685    8.5186 O   0  0  0  0  0  0  0  0  0  0  0  0
  107.1742   -4.8976    8.7519 O   0  0  0  0  0  0  0  0  0  0  0  0
  106.7084   -3.0378    6.4766 C   0  0  0  0  0  0  0  0  0  0  0  0
  106.7144   -2.2596    5.3307 C   0  0  0  0  0  0  0  0  0  0  0  0
  104.8996   -1.4774    2.4048 C   0  0  0  0  0  0  0  0  0  0  0  0
  103.6154   -1.7847    3.0096 C   0  0  0  0  0  0  0  0  0  0  0  0
  102.6766   -1.2362    2.2114 C   0  0  0  0  0  0  0  0  0  0  0  0
  103.3889   -0.5863    1.1285 C   0  0  0  0  0  0  0  0  0  0  0  0
  104.7202   -0.7374    1.2761 N   0  0  0  0  0  0  0  0  0  0  0  0
  101.6395    1.4788   -2.1901 H   0  0  0  0  0  0  0  0  0  0  0  0
  103.5192    2.5629   -3.7505 H   0  0  0  0  0  0  0  0  0  0  0  0
  105.4190    0.5821   -0.5418 H   0  0  0  0  0  0  0  0  0  0  0  0
  107.2776    1.4687   -5.1510 H   0  0  0  0  0  0  0  0  0  0  0  0
  107.3146    2.8810   -7.1951 H   0  0  0  0  0  0  0  0  0  0  0  0
  104.5915    5.6233   -9.0346 H   0  0  0  0  0  0  0  0  0  0  0  0
  105.1885    5.9602   -5.1104 H   0  0  0  0  0  0  0  0  0  0  0  0
  105.1595    4.5568   -3.0610 H   0  0  0  0  0  0  0  0  0  0  0  0
  108.8502    2.8602   -3.5135 H   0  0  0  0  0  0  0  0  0  0  0  0
  110.7190    1.7332   -1.9425 H   0  0  0  0  0  0  0  0  0  0  0  0
  110.6829   -1.5883    2.1547 H   0  0  0  0  0  0  0  0  0  0  0  0
  108.8038   -2.6607    3.7239 H   0  0  0  0  0  0  0  0  0  0  0  0
  106.9032   -0.3349    0.7568 H   0  0  0  0  0  0  0  0  0  0  0  0
  105.0632   -4.3503    3.2272 H   0  0  0  0  0  0  0  0  0  0  0  0
  105.0519   -5.7540    5.2775 H   0  0  0  0  0  0  0  0  0  0  0  0
  104.5356   -5.2263    9.3502 H   0  0  0  0  0  0  0  0  0  0  0  0
  107.1693   -2.6893    7.3923 H   0  0  0  0  0  0  0  0  0  0  0  0
  107.1734   -1.2780    5.3480 H   0  0  0  0  0  0  0  0  0  0  0  0
  103.4736   -2.3334    3.9265 H   0  0  0  0  0  0  0  0  0  0  0  0
  101.6045   -1.2484    2.3261 H   0  0  0  0  0  0  0  0  0  0  0  0
  1  2  4  0  0  0  0
  2  3  4  0  0  0  0
  3  4  2  0  0  0  0
  4  5  4  0  0  0  0
  2  6  4  0  0  0  0
  5  6  4  0  0  0  0
  5  7  4  0  0  0  0
  7  8  1  0  0  0  0
  8  9  4  0  0  0  0
  9 10  4  0  0  0  0
 10 11  4  0  0  0  0
 11 12  1  0  0  0  0
 12 13  2  0  0  0  0
 12 14  1  0  0  0  0
 12 15  2  0  0  0  0
 11 16  4  0  0  0  0
  8 17  4  0  0  0  0
 16 17  4  0  0  0  0
  7 18  4  0  0  0  0
 18 19  1  0  0  0  0
 19 20  2  0  0  0  0
 18 21  4  0  0  0  0
 20 22  1  0  0  0  0
 21 22  4  0  0  0  0
 22 23  4  0  0  0  0
 23 24  4  0  0  0  0
 24 25  4  0  0  0  0
 25 26  2  0  0  0  0
 26 27  4  0  0  0  0
 24 28  4  0  0  0  0
 27 28  4  0  0  0  0
 27 29  4  0  0  0  0
 29 30  1  0  0  0  0
 30 31  4  0  0  0  0
 31 32  4  0  0  0  0
 32 33  4  0  0  0  0
 33 34  1  0  0  0  0
 34 35  2  0  0  0  0
 34 36  1  0  0  0  0
 34 37  2  0  0  0  0
 33 38  4  0  0  0  0
 30 39  4  0  0  0  0
 38 39  4  0  0  0  0
 29 40  4  0  0  0  0
 40 41  1  0  0  0  0
 41 42  2  0  0  0  0
  1 43  4  0  0  0  0
 42 43  1  0  0  0  0
 40 44  4  0  0  0  0
 43 44  4  0  0  0  0
  1 45  1  0  0  0  0
  3 46  1  0  0  0  0
  4 47  1  0  0  0  0
  6 48  1  0  0  0  0
  9 49  1  0  0  0  0
 10 50  1  0  0  0  0
 14 51  1  0  0  0  0
 16 52  1  0  0  0  0
 17 53  1  0  0  0  0
 19 54  1  0  0  0  0
 20 55  1  0  0  0  0
 25 56  1  0  0  0  0
 26 57  1  0  0  0  0
 28 58  1  0  0  0  0
 31 59  1  0  0  0  0
 32 60  1  0  0  0  0
 36 61  1  0  0  0  0
 38 62  1  0  0  0  0
 39 63  1  0  0  0  0
 41 64  1  0  0  0  0
 42 65  1  0  0  0  0
 66 67  4  0  0  0  0
 67 68  4  0  0  0  0
 68 69  2  0  0  0  0
 69 70  4  0  0  0  0
 67 71  4  0  0  0  0
 70 71  4  0  0  0  0
 70 72  4  0  0  0  0
 72 73  1  0  0  0  0
 73 74  4  0  0  0  0
 74 75  4  0  0  0  0
 75 76  4  0  0  0  0
 76 77  1  0  0  0  0
 77 78  2  0  0  0  0
 77 79  1  0  0  0  0
 77 80  2  0  0  0  0
 76 81  4  0  0  0  0
 73 82  4  0  0  0  0
 81 82  4  0  0  0  0
 72 83  4  0  0  0  0
 83 84  1  0  0  0  0
 84 85  2  0  0  0  0
 83 86  4  0  0  0  0
 85 87  1  0  0  0  0
 86 87  4  0  0  0  0
 87 88  4  0  0  0  0
 88 89  4  0  0  0  0
 89 90  4  0  0  0  0
 90 91  2  0  0  0  0
 91 92  4  0  0  0  0
 89 93  4  0  0  0  0
 92 93  4  0  0  0  0
 92 94  4  0  0  0  0
 94 95  1  0  0  0  0
 95 96  4  0  0  0  0
 96 97  4  0  0  0  0
 97 98  4  0  0  0  0
 98 99  1  0  0  0  0
 99100  2  0  0  0  0
 99101  1  0  0  0  0
 99102  2  0  0  0  0
 98103  4  0  0  0  0
 95104  4  0  0  0  0
103104  4  0  0  0  0
 94105  4  0  0  0  0
105106  1  0  0  0  0
106107  2  0  0  0  0
 66108  4  0  0  0  0
107108  1  0  0  0  0
105109  4  0  0  0  0
108109  4  0  0  0  0
 66110  1  0  0  0  0
 68111  1  0  0  0  0
 69112  1  0  0  0  0
 71113  1  0  0  0  0
 74114  1  0  0  0  0
 75115  1  0  0  0  0
 79116  1  0  0  0  0
 81117  1  0  0  0  0
 82118  1  0  0  0  0
 84119  1  0  0  0  0
 85120  1  0  0  0  0
 90121  1  0  0  0  0
 91122  1  0  0  0  0
 93123  1  0  0  0  0
 96124  1  0  0  0  0
 97125  1  0  0  0  0
101126  1  0  0  0  0
103127  1  0  0  0  0
104128  1  0  0  0  0
106129  1  0  0  0  0
107130  1  0  0  0  0
 23132  1  0  0  0  0
131132  3  0  0  0  0
131133  4  0  0  0  0
133134  3  0  0  0  0
135136  3  0  0  0  0
135137  4  0  0  0  0
137138  3  0  0  0  0
139140  3  0  0  0  0
139141  4  0  0  0  0
141142  3  0  0  0  0
143144  3  0  0  0  0
143145  4  0  0  0  0
 88146  4  0  0  0  0
145146  3  0  0  0  0
134147  4  0  0  0  0
147148  4  0  0  0  0
148149  4  0  0  0  0
149150  2  0  0  0  0
150151  4  0  0  0  0
148152  4  0  0  0  0
151152  4  0  0  0  0
151153  4  0  0  0  0
153154  1  0  0  0  0
154155  4  0  0  0  0
155156  4  0  0  0  0
156157  4  0  0  0  0
157158  1  0  0  0  0
158159  2  0  0  0  0
158160  1  0  0  0  0
158161  2  0  0  0  0
157162  4  0  0  0  0
154163  4  0  0  0  0
162163  4  0  0  0  0
153164  4  0  0  0  0
164165  1  0  0  0  0
165166  2  0  0  0  0
164167  4  0  0  0  0
166168  1  0  0  0  0
167168  4  0  0  0  0
136169  4  0  0  0  0
168169  4  0  0  0  0
169170  4  0  0  0  0
170171  4  0  0  0  0
171172  2  0  0  0  0
172173  4  0  0  0  0
170174  4  0  0  0  0
173174  4  0  0  0  0
173175  4  0  0  0  0
175176  1  0  0  0  0
176177  4  0  0  0  0
177178  4  0  0  0  0
178179  4  0  0  0  0
179180  1  0  0  0  0
180181  2  0  0  0  0
180182  1  0  0  0  0
180183  2  0  0  0  0
179184  4  0  0  0  0
176185  4  0  0  0  0
184185  4  0  0  0  0
175186  4  0  0  0  0
186187  1  0  0  0  0
187188  2  0  0  0  0
147189  4  0  0  0  0
188189  1  0  0  0  0
186190  4  0  0  0  0
189190  4  0  0  0  0
149191  1  0  0  0  0
150192  1  0  0  0  0
152193  1  0  0  0  0
155194  1  0  0  0  0
156195  1  0  0  0  0
160196  1  0  0  0  0
162197  1  0  0  0  0
163198  1  0  0  0  0
165199  1  0  0  0  0
166200  1  0  0  0  0
171201  1  0  0  0  0
172202  1  0  0  0  0
174203  1  0  0  0  0
177204  1  0  0  0  0
178205  1  0  0  0  0
182206  1  0  0  0  0
184207  1  0  0  0  0
185208  1  0  0  0  0
187209  1  0  0  0  0
188210  1  0  0  0  0
138211  4  0  0  0  0
211212  4  0  0  0  0
212213  4  0  0  0  0
213214  2  0  0  0  0
214215  4  0  0  0  0
212216  4  0  0  0  0
215216  4  0  0  0  0
215217  4  0  0  0  0
217218  1  0  0  0  0
218219  4  0  0  0  0
219220  4  0  0  0  0
220221  4  0  0  0  0
221222  1  0  0  0  0
222223  2  0  0  0  0
222224  1  0  0  0  0
222225  2  0  0  0  0
221226  4  0  0  0  0
218227  4  0  0  0  0
226227  4  0  0  0  0
217228  4  0  0  0  0
228229  1  0  0  0  0
229230  2  0  0  0  0
228231  4  0  0  0  0
230232  1  0  0  0  0
231232  4  0  0  0  0
140233  4  0  0  0  0
232233  4  0  0  0  0
233234  4  0  0  0  0
234235  4  0  0  0  0
235236  2  0  0  0  0
236237  4  0  0  0  0
234238  4  0  0  0  0
237238  4  0  0  0  0
237239  4  0  0  0  0
239240  1  0  0  0  0
240241  4  0  0  0  0
241242  4  0  0  0  0
242243  4  0  0  0  0
243244  1  0  0  0  0
244245  2  0  0  0  0
244246  1  0  0  0  0
244247  2  0  0  0  0
243248  4  0  0  0  0
240249  4  0  0  0  0
248249  4  0  0  0  0
239250  4  0  0  0  0
250251  1  0  0  0  0
251252  2  0  0  0  0
211253  4  0  0  0  0
252253  1  0  0  0  0
250254  4  0  0  0  0
253254  4  0  0  0  0
213255  1  0  0  0  0
214256  1  0  0  0  0
216257  1  0  0  0  0
219258  1  0  0  0  0
220259  1  0  0  0  0
224260  1  0  0  0  0
226261  1  0  0  0  0
227262  1  0  0  0  0
229263  1  0  0  0  0
230264  1  0  0  0  0
235265  1  0  0  0  0
236266  1  0  0  0  0
238267  1  0  0  0  0
241268  1  0  0  0  0
242269  1  0  0  0  0
246270  1  0  0  0  0
248271  1  0  0  0  0
249272  1  0  0  0  0
251273  1  0  0  0  0
252274  1  0  0  0  0
142275  4  0  0  0  0
275276  4  0  0  0  0
276277  4  0  0  0  0
277278  2  0  0  0  0
278279  4  0  0  0  0
276280  4  0  0  0  0
279280  4  0  0  0  0
279281  4  0  0  0  0
281282  1  0  0  0  0
282283  4  0  0  0  0
283284  4  0  0  0  0
284285  4  0  0  0  0
285286  1  0  0  0  0
286287  2  0  0  0  0
286288  1  0  0  0  0
286289  2  0  0  0  0
285290  4  0  0  0  0
282291  4  0  0  0  0
290291  4  0  0  0  0
281292  4  0  0  0  0
292293  1  0  0  0  0
293294  2  0  0  0  0
292295  4  0  0  0  0
294296  1  0  0  0  0
295296  4  0  0  0  0
144297  4  0  0  0  0
296297  4  0  0  0  0
297298  4  0  0  0  0
298299  4  0  0  0  0
299300  2  0  0  0  0
300301  4  0  0  0  0
298302  4  0  0  0  0
301302  4  0  0  0  0
301303  4  0  0  0  0
303304  1  0  0  0  0
304305  4  0  0  0  0
305306  4  0  0  0  0
306307  4  0  0  0  0
307308  1  0  0  0  0
308309  2  0  0  0  0
308310  1  0  0  0  0
308311  2  0  0  0  0
307312  4  0  0  0  0
304313  4  0  0  0  0
312313  4  0  0  0  0
303314  4  0  0  0  0
314315  1  0  0  0  0
315316  2  0  0  0  0
275317  4  0  0  0  0
316317  1  0  0  0  0
314318  4  0  0  0  0
317318  4  0  0  0  0
277319  1  0  0  0  0
278320  1  0  0  0  0
280321  1  0  0  0  0
283322  1  0  0  0  0
284323  1  0  0  0  0
288324  1  0  0  0  0
290325  1  0  0  0  0
291326  1  0  0  0  0
293327  1  0  0  0  0
294328  1  0  0  0  0
299329  1  0  0  0  0
300330  1  0  0  0  0
302331  1  0  0  0  0
305332  1  0  0  0  0
306333  1  0  0  0  0
310334  1  0  0  0  0
312335  1  0  0  0  0
313336  1  0  0  0  0
315337  1  0  0  0  0
316338  1  0  0  0  0
M  END
