190

C 26.319069 0.030532 0.000561
C 27.043923 -1.023402 0.891844
C 26.428472 -2.010578 1.627929
C 27.449899 -2.714716 2.315723
C 28.655576 -2.127265 1.982274
N 28.398596 -1.123750 1.082391
C 30.083630 -2.512625 2.552542
C 30.133131 -3.459913 3.691298
C 30.382518 -4.818311 3.472956
C 30.435125 -5.708903 4.549392
C 30.280572 -5.248600 5.859883
N 30.241914 -6.159820 6.929951
C 29.956985 -3.904068 6.068742
C 29.905615 -3.009750 4.995216
C 31.212279 -1.955605 2.034904
C 32.521574 -2.235985 2.587645
C 33.423101 -1.539627 1.905487
N 31.405318 -1.077980 0.999535
C 32.739483 -0.788088 0.871324
C 33.409389 0.016872 0.003487
C 32.634857 0.796905 -1.143054
C 33.189237 1.290066 -2.307921
C 32.164182 1.957513 -3.022084
C 31.007483 1.841563 -2.281971
N 31.293719 1.096040 -1.161981
C 29.590434 2.444407 -2.661634
C 29.540653 3.526169 -3.669935
C 29.320837 3.226260 -5.018031
C 29.271764 4.248729 -5.969877
C 29.394902 5.585856 -5.582528
N 29.434706 6.602000 -6.553462
C 29.684890 5.876741 -4.245701
C 29.736718 4.856749 -3.290360
C 28.468265 1.969436 -2.060990
C 27.142996 2.481896 -2.361846
C 26.259418 1.811144 -1.629062
C 26.984644 0.851911 -0.832899
N 28.307104 0.992325 -1.118122
H 25.240067 0.096209 0.069824
H 25.365810 -2.194729 1.675146
H 27.317880 -3.543650 2.995909
H 29.102366 -0.545865 0.629432
H 30.530345 -5.171439 2.455698
H 30.608817 -6.760792 4.347724
H 30.470387 -5.717381 7.814504
H 30.807613 -6.983339 6.750284
H 29.750825 -3.530867 7.066680
H 29.681115 -1.958139 5.161455
H 32.737637 -2.884260 3.417717
H 34.479300 -1.552923 2.101761
H 34.220700 1.193930 -2.609774
H 32.260562 2.468007 -3.968328
H 30.604997 0.779324 -0.484450
H 29.195303 2.187760 -5.314903
H 29.127468 3.984110 -7.011827
H 28.887499 6.365438 -7.373854
H 29.183968 7.505999 -6.167370
H 29.864530 6.898418 -3.926983
H 29.934820 5.086271 -2.245561
H 26.911358 3.268345 -3.057155
H 25.194400 1.954627 -1.624828
C 63.759465 0.017152 0.017455
C 63.034611 0.643329 -1.212612
C 63.650062 1.133726 -2.342147
C 62.628635 1.641946 -3.185107
C 61.422958 1.451922 -2.536896
N 61.679938 0.805825 -1.353938
C 59.994904 1.918759 -3.042635
C 59.945403 2.810257 -4.225576
C 59.696016 2.286571 -5.497846
C 59.643409 3.130393 -6.611325
C 59.797962 4.511478 -6.463435
N 59.836620 5.344376 -7.595534
C 60.121549 5.022756 -5.202490
C 60.172919 4.182621 -4.086051
C 58.866255 1.542472 -2.381855
C 57.556960 2.016295 -2.781390
C 56.655433 1.511778 -1.947293
N 58.673216 0.735655 -1.290406
C 57.339050 0.677255 -0.978855
C 56.669145 0.016872 0.003487
C 57.443677 -0.920516 1.025404
C 56.889297 -1.941451 1.772273
C 57.914352 -2.483744 2.585559
C 59.071051 -1.789867 2.303163
N 58.784814 -0.870420 1.320921
C 60.488100 -2.021351 2.976944
C 60.537881 -2.755061 4.260903
C 60.757697 -4.136011 4.277757
C 60.806770 -4.828348 5.491068
C 60.683632 -4.145021 6.703920
N 60.643828 -4.857387 7.915446
C 60.393644 -2.777107 6.680864
C 60.341816 -2.080800 5.469164
C 61.610269 -1.545471 2.377020
C 62.935538 -1.720946 2.944768
C 63.819116 -1.161285 2.124000
C 63.093890 -0.606007 1.007905
N 61.771430 -0.851484 1.209917
H 64.838467 0.099618 0.065521
H 64.712724 1.137506 -2.532218
H 62.760654 2.114176 -4.147803
H 60.976168 0.497276 -0.687665
H 59.548189 1.215473 -5.608577
H 59.469717 2.693145 -7.589054
H 59.608146 6.306755 -7.367470
H 59.270921 4.980854 -8.356004
H 60.327709 6.079646 -5.067795
H 60.397419 4.585318 -3.100477
H 57.340897 2.675807 -3.602562
H 55.599234 1.699789 -2.005194
H 55.857834 -2.257299 1.747834
H 57.817972 -3.287898 3.299223
H 59.473537 -0.283448 0.857433
H 60.883231 -4.662866 3.334867
H 60.951066 -5.903209 5.472149
H 61.191035 -5.710154 7.873089
H 60.894566 -4.274494 8.706975
H 60.214004 -2.232842 7.602373
H 60.143714 -1.011206 5.453266
H 63.167176 -2.217629 3.869572
H 64.884134 -1.124297 2.262699
C 37.232847 0.029603 0.006012
C 35.980576 0.010422 0.001664
C 38.546515 0.028837 0.007945
C 40.049648 0.010422 0.001664
C 51.367226 0.029603 0.006012
C 50.114955 0.010422 0.001664
C 52.680894 0.028837 0.007945
C 54.184028 0.010422 0.001664
C 41.463039 -0.035696 -0.007313
C 42.255684 -0.621854 1.233318
C 41.747191 -1.432287 2.228149
C 42.783805 -1.644800 3.172722
C 43.894824 -0.963924 2.721253
N 43.584977 -0.408774 1.504895
C 45.284550 -0.832760 3.469034
C 45.278691 -0.925413 4.947710
C 45.738259 -2.079292 5.591479
C 45.729582 -2.161373 6.987213
C 45.299968 -1.078725 7.759714
N 45.206459 -1.199694 9.157053
C 44.770482 0.041918 7.113405
C 44.778741 0.128642 5.717697
C 46.419277 -0.595467 2.759019
C 47.706249 -0.406268 3.396384
C 48.613924 -0.187323 2.451219
N 46.627242 -0.467413 1.413355
C 47.951617 -0.225564 1.162932
C 48.615723 -0.035696 -0.007313
C 47.823065 -0.085338 -1.378509
C 48.331371 -0.438485 -2.612189
C 47.294776 -0.261304 -3.564050
C 46.183952 0.187044 -2.880787
N 46.493904 0.218025 -1.544125
C 44.794258 0.602436 -3.516239
C 44.799939 1.099756 -4.911826
C 45.297563 2.372825 -5.204194
C 45.305423 2.842836 -6.521244
C 44.777892 2.066276 -7.556913
N 44.871159 2.505570 -8.888927
C 44.350632 0.766068 -7.273416
C 44.342273 0.291827 -5.958174
C 43.659555 0.540688 -2.770150
C 42.372565 0.965598 -3.281445
C 41.464866 0.794174 -2.326540
C 42.127177 0.251321 -1.157573
N 43.451605 0.128032 -1.482938
H 40.737727 -1.810426 2.283206
H 42.721478 -2.211962 4.089445
H 44.246960 0.049553 0.885361
H 46.098800 -2.911964 4.991512
H 46.071149 -3.077369 7.457626
H 45.898883 -1.839471 9.531541
H 45.220888 -0.296631 9.619162
H 44.353048 0.865346 7.683432
H 44.389567 1.013014 5.218193
H 47.901689 -0.426586 4.453529
H 49.658164 -0.009584 2.632269
H 49.340705 -0.764786 -2.811793
H 47.356955 -0.421539 -4.630061
H 45.832007 0.395441 -0.794105
H 45.685157 2.989730 -4.396553
H 45.721017 3.825017 -6.720747
H 44.180049 2.063388 -9.485497
H 44.854523 3.517607 -8.958099
H 44.010633 0.108713 -8.066695
H 43.983486 -0.710490 -5.734762
H 42.177151 1.363480 -4.261083
H 40.420594 1.028664 -2.422976
