 xtb: 6.5.1 (b24c23e)
          07282220403D

122135  0     0  0            999 V2000
   13.2150   -0.0148   -0.2105 C   0  0  0  0  0  0  0  0  0  0  0  0
   13.8244    1.0003   -0.9392 C   0  0  0  0  0  0  0  0  0  0  0  0
   13.1829    1.9956   -1.7267 C   0  0  0  0  0  0  0  0  0  0  0  0
   14.1537    2.7926   -2.2689 C   0  0  0  0  0  0  0  0  0  0  0  0
   15.4138    2.3055   -1.8292 C   0  0  0  0  0  0  0  0  0  0  0  0
   15.1698    1.2286   -1.0319 N   0  0  0  0  0  0  0  0  0  0  0  0
   16.6831    2.8200   -2.1489 C   0  0  0  0  0  0  0  0  0  0  0  0
   16.7117    3.9512   -2.9944 C   0  0  0  0  0  0  0  0  0  0  0  0
   16.7304    4.9248   -3.7186 C   0  0  0  0  0  0  0  0  0  0  0  0
   16.7661    6.0580   -4.5627 C   0  0  0  0  0  0  0  0  0  0  0  0
   15.5946    6.5953   -5.1093 C   0  0  0  0  0  0  0  0  0  0  0  0
   15.6857    7.7056   -5.9295 C   0  0  0  0  0  0  0  0  0  0  0  0
   16.8397    8.2965   -6.2287 N   0  0  0  0  0  0  0  0  0  0  0  0
   17.9578    7.7926   -5.7121 C   0  0  0  0  0  0  0  0  0  0  0  0
   17.9758    6.6859   -4.8822 C   0  0  0  0  0  0  0  0  0  0  0  0
   17.9083    2.3005   -1.7004 C   0  0  0  0  0  0  0  0  0  0  0  0
   19.1933    2.8580   -2.0738 C   0  0  0  0  0  0  0  0  0  0  0  0
   20.1282    2.0993   -1.4637 C   0  0  0  0  0  0  0  0  0  0  0  0
   18.0745    1.2327   -0.8820 N   0  0  0  0  0  0  0  0  0  0  0  0
   19.4082    1.0854   -0.7176 C   0  0  0  0  0  0  0  0  0  0  0  0
   20.0520    0.1069    0.0635 C   0  0  0  0  0  0  0  0  0  0  0  0
   19.4157   -0.8966    0.8204 C   0  0  0  0  0  0  0  0  0  0  0  0
   20.0500   -1.8814    1.6211 C   0  0  0  0  0  0  0  0  0  0  0  0
   19.0738   -2.6644    2.1766 C   0  0  0  0  0  0  0  0  0  0  0  0
   17.8187   -2.1783    1.7276 C   0  0  0  0  0  0  0  0  0  0  0  0
   18.0716   -1.1102    0.9149 N   0  0  0  0  0  0  0  0  0  0  0  0
   16.5504   -2.6957    2.0453 C   0  0  0  0  0  0  0  0  0  0  0  0
   16.5203   -3.8202    2.8981 C   0  0  0  0  0  0  0  0  0  0  0  0
   16.4970   -4.7900    3.6277 C   0  0  0  0  0  0  0  0  0  0  0  0
   16.4657   -5.9218    4.4734 C   0  0  0  0  0  0  0  0  0  0  0  0
   17.6462   -6.5120    4.9404 C   0  0  0  0  0  0  0  0  0  0  0  0
   17.5613   -7.6204    5.7638 C   0  0  0  0  0  0  0  0  0  0  0  0
   16.4047   -8.1608    6.1396 N   0  0  0  0  0  0  0  0  0  0  0  0
   15.2780   -7.6055    5.7002 C   0  0  0  0  0  0  0  0  0  0  0  0
   15.2534   -6.4965    4.8735 C   0  0  0  0  0  0  0  0  0  0  0  0
   15.3253   -2.1874    1.5776 C   0  0  0  0  0  0  0  0  0  0  0  0
   14.0348   -2.7565    1.9250 C   0  0  0  0  0  0  0  0  0  0  0  0
   13.1074   -2.0081    1.2935 C   0  0  0  0  0  0  0  0  0  0  0  0
   13.8346   -0.9844    0.5633 C   0  0  0  0  0  0  0  0  0  0  0  0
   15.1725   -1.1270    0.7596 N   0  0  0  0  0  0  0  0  0  0  0  0
   12.1311   -0.0424   -0.2577 H   0  0  0  0  0  0  0  0  0  0  0  0
   12.1156    2.0808   -1.8541 H   0  0  0  0  0  0  0  0  0  0  0  0
   14.0194    3.6433   -2.9176 H   0  0  0  0  0  0  0  0  0  0  0  0
   15.8856    0.6751   -0.5730 H   0  0  0  0  0  0  0  0  0  0  0  0
   14.6333    6.1453   -4.8918 H   0  0  0  0  0  0  0  0  0  0  0  0
   14.7929    8.1420   -6.3686 H   0  0  0  0  0  0  0  0  0  0  0  0
   18.8815    8.2997   -5.9757 H   0  0  0  0  0  0  0  0  0  0  0  0
   18.9096    6.3086   -4.4830 H   0  0  0  0  0  0  0  0  0  0  0  0
   19.3319    3.7118   -2.7177 H   0  0  0  0  0  0  0  0  0  0  0  0
   21.2017    2.1954   -1.4967 H   0  0  0  0  0  0  0  0  0  0  0  0
   21.1164   -1.9715    1.7508 H   0  0  0  0  0  0  0  0  0  0  0  0
   19.2040   -3.5055    2.8385 H   0  0  0  0  0  0  0  0  0  0  0  0
   17.3593   -0.5600    0.4464 H   0  0  0  0  0  0  0  0  0  0  0  0
   18.6096   -6.1047    4.6583 H   0  0  0  0  0  0  0  0  0  0  0  0
   18.4612   -8.0989    6.1395 H   0  0  0  0  0  0  0  0  0  0  0  0
   14.3525   -8.0707    6.0270 H   0  0  0  0  0  0  0  0  0  0  0  0
   14.3125   -6.0763    4.5393 H   0  0  0  0  0  0  0  0  0  0  0  0
   13.8912   -3.6118    2.5661 H   0  0  0  0  0  0  0  0  0  0  0  0
   12.0338   -2.1122    1.3010 H   0  0  0  0  0  0  0  0  0  0  0  0
   33.4930   -0.2100   -0.0415 C   0  0  0  0  0  0  0  0  0  0  0  0
   32.8841   -1.0433    0.8899 C   0  0  0  0  0  0  0  0  0  0  0  0
   33.5261   -1.9328    1.7949 C   0  0  0  0  0  0  0  0  0  0  0  0
   32.5556   -2.5584    2.5286 C   0  0  0  0  0  0  0  0  0  0  0  0
   31.2952   -2.0698    2.0913 C   0  0  0  0  0  0  0  0  0  0  0  0
   31.5387   -1.1610    1.1067 N   0  0  0  0  0  0  0  0  0  0  0  0
   30.0260   -2.4443    2.5677 C   0  0  0  0  0  0  0  0  0  0  0  0
   29.9968   -3.4060    3.6019 C   0  0  0  0  0  0  0  0  0  0  0  0
   29.9772   -4.2346    4.4885 C   0  0  0  0  0  0  0  0  0  0  0  0
   29.9405   -5.1932    5.5266 C   0  0  0  0  0  0  0  0  0  0  0  0
   31.1123   -5.7846    6.0137 C   0  0  0  0  0  0  0  0  0  0  0  0
   31.0191   -6.7182    7.0303 C   0  0  0  0  0  0  0  0  0  0  0  0
   29.8628   -7.0869    7.5760 N   0  0  0  0  0  0  0  0  0  0  0  0
   28.7444   -6.5284    7.1193 C   0  0  0  0  0  0  0  0  0  0  0  0
   28.7284   -5.5865    6.1063 C   0  0  0  0  0  0  0  0  0  0  0  0
   28.8005   -1.9432    2.0994 C   0  0  0  0  0  0  0  0  0  0  0  0
   27.5157   -2.3758    2.6126 C   0  0  0  0  0  0  0  0  0  0  0  0
   26.5806   -1.6871    1.9249 C   0  0  0  0  0  0  0  0  0  0  0  0
   28.6340   -1.0134    1.1270 N   0  0  0  0  0  0  0  0  0  0  0  0
   27.3002   -0.8345    0.9986 C   0  0  0  0  0  0  0  0  0  0  0  0
   26.6562    0.0490    0.1116 C   0  0  0  0  0  0  0  0  0  0  0  0
   27.2923    0.9122   -0.8023 C   0  0  0  0  0  0  0  0  0  0  0  0
   26.6577    1.8174   -1.6917 C   0  0  0  0  0  0  0  0  0  0  0  0
   27.6337    2.4554   -2.4095 C   0  0  0  0  0  0  0  0  0  0  0  0
   28.8888    1.9542   -1.9775 C   0  0  0  0  0  0  0  0  0  0  0  0
   28.6362    1.0288   -1.0053 N   0  0  0  0  0  0  0  0  0  0  0  0
   30.1567    2.3250   -2.4591 C   0  0  0  0  0  0  0  0  0  0  0  0
   30.1863    3.2961   -3.4831 C   0  0  0  0  0  0  0  0  0  0  0  0
   30.2102    4.1290   -4.3657 C   0  0  0  0  0  0  0  0  0  0  0  0
   30.2433    5.0945   -5.3971 C   0  0  0  0  0  0  0  0  0  0  0  0
   29.0644    5.6363   -5.9233 C   0  0  0  0  0  0  0  0  0  0  0  0
   29.1518    6.5765   -6.9344 C   0  0  0  0  0  0  0  0  0  0  0  0
   30.3091    6.9982   -7.4378 N   0  0  0  0  0  0  0  0  0  0  0  0
   31.4342    6.4888   -6.9424 C   0  0  0  0  0  0  0  0  0  0  0  0
   31.4564    5.5438   -5.9324 C   0  0  0  0  0  0  0  0  0  0  0  0
   31.3819    1.8025   -2.0073 C   0  0  0  0  0  0  0  0  0  0  0  0
   32.6720    2.2075   -2.5378 C   0  0  0  0  0  0  0  0  0  0  0  0
   33.5996    1.4983   -1.8630 C   0  0  0  0  0  0  0  0  0  0  0  0
   32.8730    0.6632   -0.9224 C   0  0  0  0  0  0  0  0  0  0  0  0
   31.5351    0.8750   -1.0414 N   0  0  0  0  0  0  0  0  0  0  0  0
   34.5769   -0.2538   -0.0744 H   0  0  0  0  0  0  0  0  0  0  0  0
   34.5935   -2.0677    1.8662 H   0  0  0  0  0  0  0  0  0  0  0  0
   32.6902   -3.2949    3.3046 H   0  0  0  0  0  0  0  0  0  0  0  0
   30.8227   -0.6457    0.6057 H   0  0  0  0  0  0  0  0  0  0  0  0
   32.0754   -5.5134    5.5981 H   0  0  0  0  0  0  0  0  0  0  0  0
   31.9121   -7.1938    7.4263 H   0  0  0  0  0  0  0  0  0  0  0  0
   27.8188   -6.8517    7.5867 H   0  0  0  0  0  0  0  0  0  0  0  0
   27.7944   -5.1570    5.7645 H   0  0  0  0  0  0  0  0  0  0  0  0
   27.3774   -3.1090    3.3911 H   0  0  0  0  0  0  0  0  0  0  0  0
   25.5071   -1.7307    2.0168 H   0  0  0  0  0  0  0  0  0  0  0  0
   25.5913    1.9572   -1.7657 H   0  0  0  0  0  0  0  0  0  0  0  0
   27.5033    3.2063   -3.1720 H   0  0  0  0  0  0  0  0  0  0  0  0
   29.3486    0.5018   -0.5110 H   0  0  0  0  0  0  0  0  0  0  0  0
   28.1004    5.3213   -5.5424 H   0  0  0  0  0  0  0  0  0  0  0  0
   28.2532    7.0131   -7.3609 H   0  0  0  0  0  0  0  0  0  0  0  0
   32.3605    6.8544   -7.3765 H   0  0  0  0  0  0  0  0  0  0  0  0
   32.3960    5.1549   -5.5589 H   0  0  0  0  0  0  0  0  0  0  0  0
   32.8153    2.9364   -3.3197 H   0  0  0  0  0  0  0  0  0  0  0  0
   34.6731    1.5157   -1.9674 H   0  0  0  0  0  0  0  0  0  0  0  0
   22.6795    0.1089    0.1120 C   0  0  0  0  0  0  0  0  0  0  0  0
   21.4574    0.1155    0.0955 C   0  0  0  0  0  0  0  0  0  0  0  0
   24.0288    0.0973    0.1217 C   0  0  0  0  0  0  0  0  0  0  0  0
   25.2507    0.0810    0.1242 C   0  0  0  0  0  0  0  0  0  0  0  0
  1  2  4  0  0  0  0
  2  3  4  0  0  0  0
  3  4  2  0  0  0  0
  4  5  4  0  0  0  0
  2  6  4  0  0  0  0
  5  6  4  0  0  0  0
  5  7  4  0  0  0  0
  7  8  1  0  0  0  0
  8  9  3  0  0  0  0
  9 10  1  0  0  0  0
 10 11  4  0  0  0  0
 11 12  4  0  0  0  0
 12 13  4  0  0  0  0
 13 14  4  0  0  0  0
 10 15  4  0  0  0  0
 14 15  4  0  0  0  0
  7 16  4  0  0  0  0
 16 17  1  0  0  0  0
 17 18  2  0  0  0  0
 16 19  4  0  0  0  0
 18 20  1  0  0  0  0
 19 20  4  0  0  0  0
 20 21  4  0  0  0  0
 21 22  4  0  0  0  0
 22 23  4  0  0  0  0
 23 24  2  0  0  0  0
 24 25  4  0  0  0  0
 22 26  4  0  0  0  0
 25 26  4  0  0  0  0
 25 27  4  0  0  0  0
 27 28  1  0  0  0  0
 28 29  3  0  0  0  0
 29 30  1  0  0  0  0
 30 31  4  0  0  0  0
 31 32  4  0  0  0  0
 32 33  4  0  0  0  0
 33 34  4  0  0  0  0
 30 35  4  0  0  0  0
 34 35  4  0  0  0  0
 27 36  4  0  0  0  0
 36 37  1  0  0  0  0
 37 38  2  0  0  0  0
  1 39  4  0  0  0  0
 38 39  1  0  0  0  0
 36 40  4  0  0  0  0
 39 40  4  0  0  0  0
  1 41  1  0  0  0  0
  3 42  1  0  0  0  0
  4 43  1  0  0  0  0
  6 44  1  0  0  0  0
 11 45  1  0  0  0  0
 12 46  1  0  0  0  0
 14 47  1  0  0  0  0
 15 48  1  0  0  0  0
 17 49  1  0  0  0  0
 18 50  1  0  0  0  0
 23 51  1  0  0  0  0
 24 52  1  0  0  0  0
 26 53  1  0  0  0  0
 31 54  1  0  0  0  0
 32 55  1  0  0  0  0
 34 56  1  0  0  0  0
 35 57  1  0  0  0  0
 37 58  1  0  0  0  0
 38 59  1  0  0  0  0
 60 61  4  0  0  0  0
 61 62  4  0  0  0  0
 62 63  2  0  0  0  0
 63 64  4  0  0  0  0
 61 65  4  0  0  0  0
 64 65  4  0  0  0  0
 64 66  4  0  0  0  0
 66 67  1  0  0  0  0
 67 68  3  0  0  0  0
 68 69  1  0  0  0  0
 69 70  4  0  0  0  0
 70 71  4  0  0  0  0
 71 72  4  0  0  0  0
 72 73  4  0  0  0  0
 69 74  4  0  0  0  0
 73 74  4  0  0  0  0
 66 75  4  0  0  0  0
 75 76  1  0  0  0  0
 76 77  2  0  0  0  0
 75 78  4  0  0  0  0
 77 79  1  0  0  0  0
 78 79  4  0  0  0  0
 79 80  4  0  0  0  0
 80 81  4  0  0  0  0
 81 82  4  0  0  0  0
 82 83  2  0  0  0  0
 83 84  4  0  0  0  0
 81 85  4  0  0  0  0
 84 85  4  0  0  0  0
 84 86  4  0  0  0  0
 86 87  1  0  0  0  0
 87 88  3  0  0  0  0
 88 89  1  0  0  0  0
 89 90  4  0  0  0  0
 90 91  4  0  0  0  0
 91 92  4  0  0  0  0
 92 93  4  0  0  0  0
 89 94  4  0  0  0  0
 93 94  4  0  0  0  0
 86 95  4  0  0  0  0
 95 96  1  0  0  0  0
 96 97  2  0  0  0  0
 60 98  4  0  0  0  0
 97 98  1  0  0  0  0
 95 99  4  0  0  0  0
 98 99  4  0  0  0  0
 60100  1  0  0  0  0
 62101  1  0  0  0  0
 63102  1  0  0  0  0
 65103  1  0  0  0  0
 70104  1  0  0  0  0
 71105  1  0  0  0  0
 73106  1  0  0  0  0
 74107  1  0  0  0  0
 76108  1  0  0  0  0
 77109  1  0  0  0  0
 82110  1  0  0  0  0
 83111  1  0  0  0  0
 85112  1  0  0  0  0
 90113  1  0  0  0  0
 91114  1  0  0  0  0
 93115  1  0  0  0  0
 94116  1  0  0  0  0
 96117  1  0  0  0  0
 97118  1  0  0  0  0
 21120  4  0  0  0  0
119120  3  0  0  0  0
119121  4  0  0  0  0
 80122  4  0  0  0  0
121122  3  0  0  0  0
M  END
