 xtb: 6.5.1 (b24c23e)
          07262215503D

 80 89  0     0  0            999 V2000
    3.0553   -0.0849   -0.0020 C   0  0  0  0  0  0  0  0  0  0  0  0
    3.6812   -1.3234   -0.0656 C   0  0  0  0  0  0  0  0  0  0  0  0
    3.0692   -2.6081   -0.1329 C   0  0  0  0  0  0  0  0  0  0  0  0
    4.0628   -3.5450   -0.1807 C   0  0  0  0  0  0  0  0  0  0  0  0
    5.3129   -2.8627   -0.1439 C   0  0  0  0  0  0  0  0  0  0  0  0
    5.0315   -1.5288   -0.0752 N   0  0  0  0  0  0  0  0  0  0  0  0
    6.5825   -3.4278   -0.1700 C   0  0  0  0  0  0  0  0  0  0  0  0
    7.8012   -2.7655   -0.1329 C   0  0  0  0  0  0  0  0  0  0  0  0
    9.0803   -3.4523   -0.1627 C   0  0  0  0  0  0  0  0  0  0  0  0
   10.0287   -2.4942   -0.1117 C   0  0  0  0  0  0  0  0  0  0  0  0
    7.9927   -1.4199   -0.0654 N   0  0  0  0  0  0  0  0  0  0  0  0
    9.3252   -1.2255   -0.0517 C   0  0  0  0  0  0  0  0  0  0  0  0
    9.9796    0.0229    0.0086 C   0  0  0  0  0  0  0  0  0  0  0  0
    9.3284    1.2695    0.0655 C   0  0  0  0  0  0  0  0  0  0  0  0
    9.9346    2.5534    0.1277 C   0  0  0  0  0  0  0  0  0  0  0  0
    8.9369    3.4878    0.1725 C   0  0  0  0  0  0  0  0  0  0  0  0
    7.6911    2.8007    0.1391 C   0  0  0  0  0  0  0  0  0  0  0  0
    7.9802    1.4644    0.0742 N   0  0  0  0  0  0  0  0  0  0  0  0
    6.4226    3.3666    0.1675 C   0  0  0  0  0  0  0  0  0  0  0  0
    5.2027    2.7021    0.1360 C   0  0  0  0  0  0  0  0  0  0  0  0
    3.9171    3.3824    0.1709 C   0  0  0  0  0  0  0  0  0  0  0  0
    2.9747    2.4195    0.1241 C   0  0  0  0  0  0  0  0  0  0  0  0
    3.6855    1.1523    0.0605 C   0  0  0  0  0  0  0  0  0  0  0  0
    5.0235    1.3621    0.0699 N   0  0  0  0  0  0  0  0  0  0  0  0
    1.9705   -0.0936   -0.0021 H   0  0  0  0  0  0  0  0  0  0  0  0
    2.0042   -2.7777   -0.1427 H   0  0  0  0  0  0  0  0  0  0  0  0
    3.9537   -4.6166   -0.2367 H   0  0  0  0  0  0  0  0  0  0  0  0
    5.7249   -0.7893   -0.0362 H   0  0  0  0  0  0  0  0  0  0  0  0
    6.6155   -4.5112   -0.2252 H   0  0  0  0  0  0  0  0  0  0  0  0
    9.2023   -4.5228   -0.2153 H   0  0  0  0  0  0  0  0  0  0  0  0
   11.1015   -2.6044   -0.1137 H   0  0  0  0  0  0  0  0  0  0  0  0
   10.9988    2.7268    0.1365 H   0  0  0  0  0  0  0  0  0  0  0  0
    9.0425    4.5597    0.2245 H   0  0  0  0  0  0  0  0  0  0  0  0
    7.2898    0.7217    0.0385 H   0  0  0  0  0  0  0  0  0  0  0  0
    6.3912    4.4501    0.2207 H   0  0  0  0  0  0  0  0  0  0  0  0
    3.7896    4.4525    0.2239 H   0  0  0  0  0  0  0  0  0  0  0  0
    1.9007    2.5218    0.1302 H   0  0  0  0  0  0  0  0  0  0  0  0
   26.0778    0.0807   -0.0108 C   0  0  0  0  0  0  0  0  0  0  0  0
   25.4527    1.3011   -0.2333 C   0  0  0  0  0  0  0  0  0  0  0  0
   26.0655    2.5659   -0.4660 C   0  0  0  0  0  0  0  0  0  0  0  0
   25.0725    3.4894   -0.6353 C   0  0  0  0  0  0  0  0  0  0  0  0
   23.8220    2.8183   -0.5108 C   0  0  0  0  0  0  0  0  0  0  0  0
   24.1025    1.5044   -0.2698 N   0  0  0  0  0  0  0  0  0  0  0  0
   22.5528    3.3760   -0.6102 C   0  0  0  0  0  0  0  0  0  0  0  0
   21.3336    2.7251   -0.4870 C   0  0  0  0  0  0  0  0  0  0  0  0
   20.0550    3.4032   -0.6050 C   0  0  0  0  0  0  0  0  0  0  0  0
   19.1059    2.4605   -0.4297 C   0  0  0  0  0  0  0  0  0  0  0  0
   21.1412    1.3997   -0.2455 N   0  0  0  0  0  0  0  0  0  0  0  0
   19.8086    1.2097   -0.2060 C   0  0  0  0  0  0  0  0  0  0  0  0
   19.1535   -0.0199    0.0152 C   0  0  0  0  0  0  0  0  0  0  0  0
   19.8039   -1.2495    0.2311 C   0  0  0  0  0  0  0  0  0  0  0  0
   19.1968   -2.5144    0.4566 C   0  0  0  0  0  0  0  0  0  0  0  0
   20.1939   -3.4364    0.6192 C   0  0  0  0  0  0  0  0  0  0  0  0
   21.4401   -2.7602    0.4977 C   0  0  0  0  0  0  0  0  0  0  0  0
   21.1519   -1.4428    0.2637 N   0  0  0  0  0  0  0  0  0  0  0  0
   22.7083   -3.3189    0.5969 C   0  0  0  0  0  0  0  0  0  0  0  0
   23.9286   -2.6647    0.4808 C   0  0  0  0  0  0  0  0  0  0  0  0
   25.2137   -3.3359    0.6016 C   0  0  0  0  0  0  0  0  0  0  0  0
   26.1567   -2.3872    0.4332 C   0  0  0  0  0  0  0  0  0  0  0  0
   25.4468   -1.1380    0.2091 C   0  0  0  0  0  0  0  0  0  0  0  0
   24.1087   -1.3440    0.2451 N   0  0  0  0  0  0  0  0  0  0  0  0
   27.1626    0.0886   -0.0117 H   0  0  0  0  0  0  0  0  0  0  0  0
   27.1306    2.7323   -0.4972 H   0  0  0  0  0  0  0  0  0  0  0  0
   25.1823    4.5445   -0.8296 H   0  0  0  0  0  0  0  0  0  0  0  0
   23.4087    0.7766   -0.1358 H   0  0  0  0  0  0  0  0  0  0  0  0
   22.5205    4.4431   -0.8056 H   0  0  0  0  0  0  0  0  0  0  0  0
   19.9337    4.4579   -0.7961 H   0  0  0  0  0  0  0  0  0  0  0  0
   18.0332    2.5704   -0.4452 H   0  0  0  0  0  0  0  0  0  0  0  0
   18.1325   -2.6844    0.4882 H   0  0  0  0  0  0  0  0  0  0  0  0
   20.0876   -4.4929    0.8071 H   0  0  0  0  0  0  0  0  0  0  0  0
   21.8429   -0.7113    0.1330 H   0  0  0  0  0  0  0  0  0  0  0  0
   22.7389   -4.3869    0.7870 H   0  0  0  0  0  0  0  0  0  0  0  0
   25.3406   -4.3907    0.7900 H   0  0  0  0  0  0  0  0  0  0  0  0
   27.2307   -2.4887    0.4522 H   0  0  0  0  0  0  0  0  0  0  0  0
   15.1808   -0.0030    0.0212 C   0  0  0  0  0  0  0  0  0  0  0  0
   13.9523    0.0122    0.0178 C   0  0  0  0  0  0  0  0  0  0  0  0
   12.6080    0.0251    0.0149 C   0  0  0  0  0  0  0  0  0  0  0  0
   11.3839    0.0324    0.0126 C   0  0  0  0  0  0  0  0  0  0  0  0
   16.5250   -0.0181    0.0221 C   0  0  0  0  0  0  0  0  0  0  0  0
   17.7491   -0.0279    0.0201 C   0  0  0  0  0  0  0  0  0  0  0  0
  1  2  4  0  0  0  0
  2  3  4  0  0  0  0
  3  4  2  0  0  0  0
  4  5  4  0  0  0  0
  2  6  4  0  0  0  0
  5  6  4  0  0  0  0
  5  7  4  0  0  0  0
  7  8  4  0  0  0  0
  8  9  1  0  0  0  0
  9 10  2  0  0  0  0
  8 11  4  0  0  0  0
 10 12  1  0  0  0  0
 11 12  4  0  0  0  0
 12 13  4  0  0  0  0
 13 14  4  0  0  0  0
 14 15  4  0  0  0  0
 15 16  2  0  0  0  0
 16 17  4  0  0  0  0
 14 18  4  0  0  0  0
 17 18  4  0  0  0  0
 17 19  4  0  0  0  0
 19 20  4  0  0  0  0
 20 21  1  0  0  0  0
 21 22  2  0  0  0  0
  1 23  4  0  0  0  0
 22 23  1  0  0  0  0
 20 24  4  0  0  0  0
 23 24  4  0  0  0  0
  1 25  1  0  0  0  0
  3 26  1  0  0  0  0
  4 27  1  0  0  0  0
  6 28  1  0  0  0  0
  7 29  1  0  0  0  0
  9 30  1  0  0  0  0
 10 31  1  0  0  0  0
 15 32  1  0  0  0  0
 16 33  1  0  0  0  0
 18 34  1  0  0  0  0
 19 35  1  0  0  0  0
 21 36  1  0  0  0  0
 22 37  1  0  0  0  0
 38 39  4  0  0  0  0
 39 40  4  0  0  0  0
 40 41  2  0  0  0  0
 41 42  4  0  0  0  0
 39 43  4  0  0  0  0
 42 43  4  0  0  0  0
 42 44  4  0  0  0  0
 44 45  4  0  0  0  0
 45 46  1  0  0  0  0
 46 47  2  0  0  0  0
 45 48  4  0  0  0  0
 47 49  1  0  0  0  0
 48 49  4  0  0  0  0
 49 50  4  0  0  0  0
 50 51  4  0  0  0  0
 51 52  4  0  0  0  0
 52 53  2  0  0  0  0
 53 54  4  0  0  0  0
 51 55  4  0  0  0  0
 54 55  4  0  0  0  0
 54 56  4  0  0  0  0
 56 57  4  0  0  0  0
 57 58  1  0  0  0  0
 58 59  2  0  0  0  0
 38 60  4  0  0  0  0
 59 60  1  0  0  0  0
 57 61  4  0  0  0  0
 60 61  4  0  0  0  0
 38 62  1  0  0  0  0
 40 63  1  0  0  0  0
 41 64  1  0  0  0  0
 43 65  1  0  0  0  0
 44 66  1  0  0  0  0
 46 67  1  0  0  0  0
 47 68  1  0  0  0  0
 52 69  1  0  0  0  0
 53 70  1  0  0  0  0
 55 71  1  0  0  0  0
 56 72  1  0  0  0  0
 58 73  1  0  0  0  0
 59 74  1  0  0  0  0
 75 76  3  0  0  0  0
 76 77  4  0  0  0  0
 13 78  4  0  0  0  0
 77 78  3  0  0  0  0
 75 79  4  0  0  0  0
 50 80  4  0  0  0  0
 79 80  3  0  0  0  0
M  END
