222

C 19.842803 -0.049060 0.089701
C 20.571402 1.231008 0.602750
C 19.961277 2.337476 1.148229
C 20.982874 3.283529 1.421376
C 22.182805 2.723780 1.028385
N 21.924537 1.454026 0.575681
C 23.606340 3.422076 1.059406
C 24.734662 2.709496 0.793842
C 26.038459 3.338542 0.741920
C 26.939086 2.412507 0.435074
N 24.930158 1.381376 0.518599
C 26.260310 1.139381 0.291765
C 26.927639 -0.005570 -0.012842
C 26.153052 -1.386813 -0.122080
C 26.700622 -2.643424 0.051066
C 25.676034 -3.593056 -0.185363
C 24.528458 -2.890534 -0.483830
C 23.115723 -3.515765 -0.846376
C 23.084292 -4.902170 -1.366800
C 22.720978 -5.966767 -0.532311
C 22.701530 -7.280692 -1.016200
C 22.270002 -8.407320 -0.128403
C 23.036515 -7.518696 -2.356902
C 23.419150 -6.466261 -3.200740
C 23.749496 -6.718147 -4.639866
C 23.431155 -5.159023 -2.697877
C 21.990495 -2.769963 -0.692607
C 20.666157 -3.269598 -1.017747
C 19.781612 -2.313751 -0.749353
C 20.506182 -1.168547 -0.254935
N 21.827883 -1.487764 -0.246365
N 24.815763 -1.548712 -0.392002
C 23.645472 4.877839 1.338565
C 23.916106 5.341927 2.631598
C 23.944395 6.714654 2.907066
C 24.280991 7.195105 4.285206
C 23.714751 7.624242 1.864787
C 23.426026 7.175334 0.567957
C 23.207857 8.148098 -0.550262
C 23.403544 5.798533 0.312483
H 18.764050 -0.015040 -0.004091
H 18.901999 2.456966 1.315277
H 20.854949 4.272240 1.836630
H 22.626191 0.788526 0.259419
H 26.249647 4.379935 0.907946
H 27.991640 2.597973 0.324308
H 27.726790 -2.857650 0.307838
H 25.764567 -4.668572 -0.145382
H 22.448235 -5.745074 0.498148
H 21.216886 -8.646075 -0.310491
H 22.875725 -9.300854 -0.316080
H 22.392480 -8.147787 0.928977
H 22.998925 -8.532883 -2.746315
H 24.494313 -6.001539 -5.000364
H 24.171138 -7.719625 -4.775032
H 22.847435 -6.629184 -5.252495
H 23.704825 -4.318287 -3.333235
H 20.436164 -4.243385 -1.411157
H 18.716901 -2.373581 -0.883720
H 24.128451 -0.802349 -0.458910
H 24.111905 4.610410 3.413853
H 23.891393 6.508470 5.044366
H 23.836196 8.176881 4.476854
H 25.365896 7.272501 4.399987
H 23.761099 8.691615 2.064133
H 22.793611 9.089838 -0.175156
H 24.155746 8.356592 -1.054955
H 22.496639 7.749733 -1.281200
H 23.202666 5.418595 -0.687849
C 67.452046 -0.019840 0.097624
C 66.723448 -1.383739 -0.106272
C 67.333573 -2.614201 -0.194481
C 66.311976 -3.568647 -0.436679
C 65.112045 -2.887043 -0.493062
N 65.370313 -1.562531 -0.242297
C 63.688509 -3.505354 -0.819055
C 62.560188 -2.756230 -0.688260
C 61.256391 -3.272876 -1.050850
C 60.355763 -2.318682 -0.847848
N 62.364692 -1.470997 -0.254858
C 61.034540 -1.147560 -0.328368
C 60.367211 -0.005570 -0.012842
C 61.141798 1.241647 0.590660
C 60.594228 2.238650 1.374903
C 61.618815 3.177635 1.650596
C 62.766391 2.722129 1.038115
C 64.179126 3.444862 1.041087
C 64.210558 4.904257 1.292338
C 64.573872 5.401452 2.550326
C 64.593320 6.779839 2.796493
C 65.024848 7.303637 4.131824
C 64.258334 7.662535 1.759682
C 63.875700 7.180560 0.499770
C 63.545354 8.124958 -0.614968
C 63.863694 5.798358 0.273356
C 65.304354 2.723544 0.797027
C 66.628693 3.318990 0.768833
C 67.513237 2.358494 0.517585
C 66.788668 1.120396 0.365741
N 65.466967 1.391556 0.534399
N 62.479086 1.517727 0.439502
C 63.649378 -4.902723 -1.313559
C 63.378744 -5.956452 -0.432102
C 63.350455 -7.280296 -0.887843
C 63.013859 -8.391141 0.058797
C 63.580099 -7.538744 -2.246850
C 63.868824 -6.496198 -3.139253
C 64.086993 -6.770805 -4.595713
C 63.891306 -5.178940 -2.664199
H 68.530799 -0.001818 -0.000505
H 68.392851 -2.801712 -0.110681
H 66.439901 -4.631696 -0.577785
H 64.668659 -0.828426 -0.179038
H 61.045203 -4.255486 -1.433658
H 59.303210 -2.422785 -1.037135
H 59.568059 2.293814 1.704723
H 61.530283 4.085623 2.228430
H 64.846614 4.689561 3.327633
H 66.077964 7.601674 4.095293
H 64.419125 8.169580 4.421251
H 64.902370 6.545489 4.913246
H 64.295925 8.734517 1.935961
H 62.800536 7.688632 -1.288100
H 63.123712 9.057531 -0.225692
H 64.447415 8.357670 -1.188619
H 63.590025 5.393762 -0.699689
H 66.858685 4.358125 0.921252
H 68.577948 2.478007 0.431850
H 63.166399 0.907407 0.004712
H 63.182945 -5.720323 0.612543
H 63.403456 -8.182077 1.060837
H 63.458654 -9.335244 -0.271782
H 61.928954 -8.515920 0.118755
H 63.533751 -8.560609 -2.614027
H 64.501239 -7.773036 -4.747739
H 63.139104 -6.695778 -5.136597
H 64.798211 -6.057756 -5.025276
H 64.092183 -4.345700 -3.335562
C 29.761772 0.008088 -0.003288
C 31.219998 -0.013748 -0.021162
C 32.353926 -0.034502 -0.022653
C 33.715308 -0.047092 -0.024844
C 34.989526 -0.036786 -0.029609
C 36.177989 -0.017987 -0.035765
C 37.530350 0.006797 -0.019897
C 38.630617 0.008088 -0.003288
C 48.548912 0.008088 -0.003288
C 50.007139 -0.013748 -0.021162
C 51.141067 -0.034502 -0.022653
C 52.502448 -0.047092 -0.024844
C 53.776667 -0.036786 -0.029609
C 54.965130 -0.017987 -0.035765
C 56.317490 0.006797 -0.019897
C 57.417758 0.008088 -0.003288
C 40.071932 0.009400 0.026836
C 40.863317 -1.130370 0.792790
C 40.350307 -1.996548 1.737087
C 41.387041 -2.895589 2.095061
C 42.503045 -2.545740 1.364310
N 42.194792 -1.426810 0.631399
C 43.895863 -3.300791 1.358404
C 45.029856 -2.635256 1.014316
C 46.317935 -3.292849 0.934888
C 47.224923 -2.394068 0.567618
N 45.236619 -1.326979 0.673404
C 46.561348 -1.116804 0.397952
C 47.225110 0.009400 0.026836
C 46.433018 1.372410 -0.135676
C 46.943479 2.645131 0.023719
C 45.907006 3.560014 -0.292357
C 44.793634 2.818008 -0.626874
C 43.401667 3.386057 -1.125580
C 43.406930 4.696754 -1.817908
C 42.979217 5.852675 -1.152374
C 42.999916 7.097454 -1.793843
C 42.575930 8.330935 -1.056773
C 43.478568 7.178459 -3.109277
C 43.899270 6.029314 -3.794026
C 44.437432 6.122020 -5.188969
C 43.869845 4.793623 -3.135015
C 42.267671 2.657318 -0.951437
C 40.979793 3.103385 -1.441433
C 40.072689 2.183237 -1.132204
C 40.736035 1.104858 -0.426782
N 42.060745 1.443968 -0.354991
N 45.103023 1.491397 -0.457497
C 43.890227 -4.745084 1.692282
C 43.428660 -5.680131 0.758925
C 43.394788 -7.045354 1.070664
C 42.857707 -8.027700 0.075131
C 43.809653 -7.465821 2.342641
C 44.287254 -6.543936 3.284917
C 44.704097 -6.991627 4.652452
C 44.312814 -5.183307 2.953780
H 39.338050 -1.998358 2.111539
H 41.322380 -3.718554 2.791014
H 42.859151 -0.880350 0.091147
H 46.513120 -4.332734 1.127726
H 48.269987 -2.599678 0.424518
H 47.953900 2.890652 0.313399
H 45.969875 4.637916 -0.295402
H 42.631266 5.759045 -0.124942
H 43.440032 8.789920 -0.566189
H 42.128790 9.058982 -1.741841
H 41.822553 8.095612 -0.297208
H 43.523235 8.144553 -3.605282
H 44.223330 5.207608 -5.752165
H 45.520425 6.276772 -5.162924
H 43.974678 6.952857 -5.732052
H 44.209516 3.887345 -3.633585
H 40.784482 4.016522 -1.974984
H 39.027790 2.246145 -1.375193
H 44.439430 0.724553 -0.515148
H 43.092495 -5.321350 -0.212491
H 43.308133 -9.015564 0.218102
H 43.087595 -7.712098 -0.948092
H 41.772276 -8.115762 0.183898
H 43.760963 -8.520416 2.600937
H 45.491814 -6.344665 5.052837
H 45.104168 -8.010601 4.625252
H 43.846602 -6.967324 5.331990
H 44.659377 -4.440237 3.670207
