177

Zn 35.680598 -0.295363 -0.201735
C 32.294892 -0.153039 -0.153859
C 32.960387 0.636763 0.693662
C 32.312782 1.522292 1.654396
C 33.257294 2.170267 2.311084
C 34.561816 1.731703 1.795697
N 34.380171 0.754187 0.771038
C 35.755188 2.205133 2.201965
C 35.796601 3.219009 3.232173
C 35.833630 4.064227 4.090914
C 35.878539 5.072540 5.115695
C 37.084132 5.717700 5.414973
C 37.105983 6.694279 6.414320
N 35.964938 7.009493 7.085173
C 34.782427 6.394971 6.810708
C 34.716999 5.412961 5.818647
C 37.050089 1.750205 1.636192
C 38.341404 2.369916 1.957114
C 39.277754 1.707853 1.309160
N 37.190504 0.746299 0.824719
C 38.592317 0.654774 0.568796
C 39.188350 -0.283317 -0.186693
C 38.431362 -1.330558 -0.912845
C 38.984244 -2.411434 -1.449580
C 37.937797 -3.133649 -2.144716
C 36.811221 -2.447775 -1.987410
N 37.032969 -1.275156 -1.200398
C 35.513755 -2.818859 -2.606564
C 35.507058 -3.829076 -3.642793
C 35.501921 -4.670812 -4.505819
C 35.495623 -5.675153 -5.535520
C 36.688699 -6.299389 -5.916156
C 36.660833 -7.272006 -6.919257
N 35.483912 -7.603920 -7.515065
C 34.312564 -7.010191 -7.160600
C 34.296428 -6.032585 -6.162008
C 34.350691 -2.256287 -2.235414
C 33.030999 -2.572783 -2.779547
C 32.168852 -1.845043 -2.096422
C 32.928309 -1.061791 -1.122820
N 34.201279 -1.294379 -1.193725
H 31.211448 -0.129458 -0.134789
H 31.248433 1.641146 1.811823
H 33.074898 2.901999 3.087709
H 37.994863 5.468854 4.882489
H 38.030532 7.201690 6.656689
H 33.892757 6.668731 7.362601
H 33.773469 4.925587 5.602322
H 38.516076 3.218041 2.606285
H 40.336961 1.924855 1.345196
H 40.026059 -2.698543 -1.403810
H 38.063482 -4.049905 -2.707037
H 37.627824 -6.037494 -5.443524
H 37.575377 -7.763141 -7.224071
H 33.393388 -7.296900 -7.653915
H 33.361572 -5.561716 -5.882180
H 32.783680 -3.266499 -3.572846
H 31.096151 -1.841624 -2.238625
Zn 55.865954 -0.264224 -0.184078
C 59.251660 -0.378374 -0.281638
C 58.586164 -1.511147 -0.524339
C 59.233770 -2.790220 -0.791071
C 58.289258 -3.686416 -1.010026
C 56.984736 -3.018983 -0.898243
N 57.166381 -1.637830 -0.585387
C 55.791364 -3.610672 -1.095964
C 55.749951 -5.015253 -1.437176
C 55.712922 -6.186104 -1.721673
C 55.668013 -7.583172 -2.060895
C 54.462420 -8.171205 -2.460915
C 54.440569 -9.530155 -2.785961
N 55.581614 -10.267682 -2.712078
C 56.764125 -9.716671 -2.325613
C 56.829552 -8.361186 -1.992166
C 54.496463 -2.891599 -0.996004
C 53.205148 -3.485141 -1.363074
C 52.268798 -2.589208 -1.127545
N 54.356048 -1.679848 -0.551060
C 52.954234 -1.413236 -0.603897
C 52.358202 -0.283317 -0.186693
C 53.115190 0.877461 0.339241
C 52.562308 1.892952 0.991280
C 53.608755 2.860257 1.254207
C 54.735331 2.373159 0.746365
N 54.513583 1.095790 0.144078
C 56.032797 3.095001 0.746968
C 56.039494 4.502870 1.081947
C 56.044631 5.675611 1.361257
C 56.050929 7.074861 1.694545
C 54.857852 7.721972 2.034843
C 54.885719 9.082110 2.354561
N 56.062639 9.763808 2.333536
C 57.233988 9.154818 2.005983
C 57.250124 7.795989 1.679668
C 57.195860 2.487686 0.454719
C 58.515553 3.117123 0.446990
C 59.377700 2.157291 0.173154
C 58.618243 0.919680 0.000800
N 57.345273 1.099931 0.164000
H 60.335104 -0.406845 -0.292085
H 60.298119 -2.986334 -0.812251
H 58.471654 -4.728538 -1.239289
H 53.551688 -7.586494 -2.520719
H 53.516020 -9.998635 -3.096984
H 57.653795 -10.330828 -2.277225
H 57.773083 -7.925341 -1.684968
H 53.030476 -4.477637 -1.757651
H 51.209591 -2.731533 -1.295271
H 51.520493 2.001064 1.261165
H 53.483070 3.813196 1.751839
H 53.918728 7.181926 2.052724
H 53.971175 9.595823 2.619560
H 58.153164 9.725353 1.998780
H 58.184980 7.314121 1.419234
H 58.762872 4.154038 0.635068
H 60.450401 2.277570 0.097218
C 40.448865 -0.283317 -0.186693
C 41.670782 -0.283317 -0.186693
C 49.875770 -0.283317 -0.186693
C 51.097687 -0.283317 -0.186693
Zn 45.844103 0.469381 0.391904
C 42.362490 0.596456 0.393038
C 43.017636 1.146640 -0.642928
C 42.364538 1.706985 -1.823173
C 43.292236 1.977325 -2.715390
C 44.599491 1.662122 -2.134527
N 44.434359 1.121497 -0.826635
C 45.779201 1.848734 -2.755492
C 45.786089 2.246111 -4.144692
C 45.780902 2.532143 -5.317829
C 45.762392 2.835027 -6.721741
C 46.706927 2.258919 -7.576216
C 46.658885 2.549217 -8.942528
N 45.696481 3.378077 -9.429578
C 44.760548 3.938425 -8.616563
C 44.777535 3.681045 -7.243889
C 47.091066 1.642561 -2.096390
C 48.362653 2.127351 -2.640839
C 49.313892 1.803155 -1.788339
N 47.257224 1.042570 -0.963255
C 48.656861 1.100152 -0.696404
C 49.262285 0.596456 0.393038
C 48.535704 -0.172364 1.429916
C 49.125952 -0.810673 2.437128
C 48.100266 -1.544222 3.154031
C 46.947591 -1.304277 2.540819
N 47.131352 -0.424366 1.428778
C 45.648849 -1.898109 2.946894
C 45.669656 -3.096002 3.754965
C 45.703326 -4.133789 4.367778
C 45.767242 -5.410475 5.022566
C 44.597633 -6.044154 5.449488
C 44.663898 -7.367789 5.886937
N 45.856332 -8.019625 5.913017
C 47.010300 -7.412155 5.540568
C 46.987713 -6.094389 5.090937
C 44.468574 -1.408689 2.531585
C 43.154112 -1.893221 2.942535
C 42.273147 -1.171468 2.278941
C 43.013495 -0.238084 1.424128
N 44.298260 -0.370896 1.566813
H 41.310903 1.870832 -1.968366
H 43.105087 2.410951 -3.680347
H 47.468927 1.592334 -7.194558
H 47.391060 2.121444 -9.611294
H 44.005120 4.585957 -9.036789
H 44.024562 4.122070 -6.604695
H 48.511837 2.666681 -3.564801
H 50.362785 2.024257 -1.910524
H 50.182871 -0.831391 2.667682
H 48.256856 -2.184538 4.019195
H 43.638131 -5.537685 5.382948
H 43.761094 -7.887991 6.174124
H 47.939270 -7.960580 5.559000
H 47.901809 -5.630353 4.745018
H 42.919505 -2.680510 3.647922
H 41.197709 -1.277922 2.356972
