 xtb: 6.5.1 (b24c23e)
          07302208593D

248287  0     0  0            999 V2000
   46.9115    0.0363    0.0445 Co  0  0  0  0  0  0  0  0  0  0  0  0
   43.5423    0.0442    0.1711 C   0  0  0  0  0  0  0  0  0  0  0  0
   44.1985    1.2536    0.0860 C   0  0  0  0  0  0  0  0  0  0  0  0
   43.5393    2.5215    0.0082 C   0  0  0  0  0  0  0  0  0  0  0  0
   44.5002    3.4673    0.1322 C   0  0  0  0  0  0  0  0  0  0  0  0
   45.7437    2.7743    0.3046 C   0  0  0  0  0  0  0  0  0  0  0  0
   45.5559    1.4199    0.2022 N   0  0  0  0  0  0  0  0  0  0  0  0
   46.9394    3.3856    0.6606 C   0  0  0  0  0  0  0  0  0  0  0  0
   46.9554    4.8416    0.9228 C   0  0  0  0  0  0  0  0  0  0  0  0
   46.1407    5.3942    1.9139 C   0  0  0  0  0  0  0  0  0  0  0  0
   46.1574    6.7550    2.1618 C   0  0  0  0  0  0  0  0  0  0  0  0
   46.9897    7.5935    1.4144 C   0  0  0  0  0  0  0  0  0  0  0  0
   47.0073    8.9949    1.6642 C   0  0  0  0  0  0  0  0  0  0  0  0
   47.0235   10.1277    1.8652 N   0  0  0  0  0  0  0  0  0  0  0  0
   47.8055    7.0457    0.4198 C   0  0  0  0  0  0  0  0  0  0  0  0
   47.7885    5.6833    0.1817 C   0  0  0  0  0  0  0  0  0  0  0  0
   48.1190    2.6663    0.7868 C   0  0  0  0  0  0  0  0  0  0  0  0
   49.3616    3.2243    1.2287 C   0  0  0  0  0  0  0  0  0  0  0  0
   50.3059    2.2700    1.0448 C   0  0  0  0  0  0  0  0  0  0  0  0
   48.2920    1.3564    0.4034 N   0  0  0  0  0  0  0  0  0  0  0  0
   49.6369    1.1323    0.4984 C   0  0  0  0  0  0  0  0  0  0  0  0
   50.3022    0.0140   -0.0117 C   0  0  0  0  0  0  0  0  0  0  0  0
   49.6067   -1.0876   -0.5182 C   0  0  0  0  0  0  0  0  0  0  0  0
   50.2417   -2.2196   -1.1146 C   0  0  0  0  0  0  0  0  0  0  0  0
   49.2757   -3.1505   -1.3063 C   0  0  0  0  0  0  0  0  0  0  0  0
   48.0559   -2.5879   -0.8096 C   0  0  0  0  0  0  0  0  0  0  0  0
   48.2615   -1.2920   -0.3937 N   0  0  0  0  0  0  0  0  0  0  0  0
   46.8751   -3.2976   -0.6488 C   0  0  0  0  0  0  0  0  0  0  0  0
   46.8562   -4.7448   -0.9557 C   0  0  0  0  0  0  0  0  0  0  0  0
   45.9756   -5.2550   -1.9128 C   0  0  0  0  0  0  0  0  0  0  0  0
   45.9559   -6.6074   -2.2022 C   0  0  0  0  0  0  0  0  0  0  0  0
   46.8170   -7.4805   -1.5307 C   0  0  0  0  0  0  0  0  0  0  0  0
   46.7967   -8.8736   -1.8231 C   0  0  0  0  0  0  0  0  0  0  0  0
   46.7797   -9.9998   -2.0585 N   0  0  0  0  0  0  0  0  0  0  0  0
   47.6978   -6.9756   -0.5696 C   0  0  0  0  0  0  0  0  0  0  0  0
   47.7166   -5.6212   -0.2898 C   0  0  0  0  0  0  0  0  0  0  0  0
   45.7102   -2.6884   -0.1985 C   0  0  0  0  0  0  0  0  0  0  0  0
   44.4798   -3.3805    0.0526 C   0  0  0  0  0  0  0  0  0  0  0  0
   43.5397   -2.4350    0.2879 C   0  0  0  0  0  0  0  0  0  0  0  0
   44.1982   -1.1680    0.1893 C   0  0  0  0  0  0  0  0  0  0  0  0
   45.5405   -1.3371   -0.0437 N   0  0  0  0  0  0  0  0  0  0  0  0
   42.4597    0.0462    0.2172 H   0  0  0  0  0  0  0  0  0  0  0  0
   42.4764    2.6506   -0.1197 H   0  0  0  0  0  0  0  0  0  0  0  0
   44.3902    4.5394    0.1148 H   0  0  0  0  0  0  0  0  0  0  0  0
   45.5039    4.7458    2.5050 H   0  0  0  0  0  0  0  0  0  0  0  0
   45.5273    7.1756    2.9367 H   0  0  0  0  0  0  0  0  0  0  0  0
   48.4495    7.6931   -0.1637 H   0  0  0  0  0  0  0  0  0  0  0  0
   48.4136    5.2635   -0.5982 H   0  0  0  0  0  0  0  0  0  0  0  0
   49.4840    4.2181    1.6275 H   0  0  0  0  0  0  0  0  0  0  0  0
   51.3639    2.3198    1.2460 H   0  0  0  0  0  0  0  0  0  0  0  0
   51.2930   -2.2803   -1.3456 H   0  0  0  0  0  0  0  0  0  0  0  0
   49.3701   -4.1322   -1.7410 H   0  0  0  0  0  0  0  0  0  0  0  0
   45.3150   -4.5794   -2.4444 H   0  0  0  0  0  0  0  0  0  0  0  0
   45.2745   -6.9950   -2.9504 H   0  0  0  0  0  0  0  0  0  0  0  0
   48.3637   -7.6501   -0.0441 H   0  0  0  0  0  0  0  0  0  0  0  0
   48.3917   -5.2354    0.4657 H   0  0  0  0  0  0  0  0  0  0  0  0
   44.3641   -4.4522    0.0455 H   0  0  0  0  0  0  0  0  0  0  0  0
   42.4903   -2.5632    0.5003 H   0  0  0  0  0  0  0  0  0  0  0  0
   94.7705    0.0112    0.0775 Co  0  0  0  0  0  0  0  0  0  0  0  0
   98.1408    0.0088    0.1947 C   0  0  0  0  0  0  0  0  0  0  0  0
   97.4847   -1.2032    0.1763 C   0  0  0  0  0  0  0  0  0  0  0  0
   98.1452   -2.4728    0.1661 C   0  0  0  0  0  0  0  0  0  0  0  0
   97.1848   -3.4121    0.3334 C   0  0  0  0  0  0  0  0  0  0  0  0
   95.9397   -2.7131    0.4663 C   0  0  0  0  0  0  0  0  0  0  0  0
   96.1268   -1.3648    0.2951 N   0  0  0  0  0  0  0  0  0  0  0  0
   94.7444   -3.3078    0.8467 C   0  0  0  0  0  0  0  0  0  0  0  0
   94.7281   -4.7506    1.1747 C   0  0  0  0  0  0  0  0  0  0  0  0
   95.5389   -5.2573    2.1932 C   0  0  0  0  0  0  0  0  0  0  0  0
   95.5245   -6.6060    2.5001 C   0  0  0  0  0  0  0  0  0  0  0  0
   94.6981   -7.4786    1.7859 C   0  0  0  0  0  0  0  0  0  0  0  0
   94.6844   -8.8680    2.0955 C   0  0  0  0  0  0  0  0  0  0  0  0
   94.6724   -9.9914    2.3447 N   0  0  0  0  0  0  0  0  0  0  0  0
   93.8849   -6.9767    0.7654 C   0  0  0  0  0  0  0  0  0  0  0  0
   93.8998   -5.6259    0.4680 C   0  0  0  0  0  0  0  0  0  0  0  0
   93.5645   -2.5832    0.9385 C   0  0  0  0  0  0  0  0  0  0  0  0
   92.3230   -3.1206    1.4078 C   0  0  0  0  0  0  0  0  0  0  0  0
   91.3787   -2.1744    1.1867 C   0  0  0  0  0  0  0  0  0  0  0  0
   93.3913   -1.2920    0.4975 N   0  0  0  0  0  0  0  0  0  0  0  0
   92.0459   -1.0618    0.5887 C   0  0  0  0  0  0  0  0  0  0  0  0
   91.3794    0.0324    0.0345 C   0  0  0  0  0  0  0  0  0  0  0  0
   92.0706    1.1076   -0.5270 C   0  0  0  0  0  0  0  0  0  0  0  0
   91.4314    2.2102   -1.1720 C   0  0  0  0  0  0  0  0  0  0  0  0
   92.3973    3.1265   -1.4238 C   0  0  0  0  0  0  0  0  0  0  0  0
   93.6218    2.5865   -0.9138 C   0  0  0  0  0  0  0  0  0  0  0  0
   93.4189    1.3145   -0.4296 N   0  0  0  0  0  0  0  0  0  0  0  0
   94.8060    3.3010   -0.8070 C   0  0  0  0  0  0  0  0  0  0  0  0
   94.8265    4.7281   -1.1981 C   0  0  0  0  0  0  0  0  0  0  0  0
   95.6950    5.1754   -2.1966 C   0  0  0  0  0  0  0  0  0  0  0  0
   95.7186    6.5084   -2.5648 C   0  0  0  0  0  0  0  0  0  0  0  0
   94.8735    7.4252   -1.9323 C   0  0  0  0  0  0  0  0  0  0  0  0
   94.8997    8.7989   -2.3046 C   0  0  0  0  0  0  0  0  0  0  0  0
   94.9251    9.9100   -2.6034 N   0  0  0  0  0  0  0  0  0  0  0  0
   94.0043    6.9832   -0.9305 C   0  0  0  0  0  0  0  0  0  0  0  0
   93.9815    5.6475   -0.5718 C   0  0  0  0  0  0  0  0  0  0  0  0
   95.9727    2.7162   -0.3323 C   0  0  0  0  0  0  0  0  0  0  0  0
   97.2049    3.4202   -0.1277 C   0  0  0  0  0  0  0  0  0  0  0  0
   98.1444    2.4896    0.1624 C   0  0  0  0  0  0  0  0  0  0  0  0
   97.4847    1.2196    0.1416 C   0  0  0  0  0  0  0  0  0  0  0  0
   96.1420    1.3757   -0.0988 N   0  0  0  0  0  0  0  0  0  0  0  0
   99.2232    0.0096    0.2416 H   0  0  0  0  0  0  0  0  0  0  0  0
   99.2087   -2.6069    0.0489 H   0  0  0  0  0  0  0  0  0  0  0  0
   97.2960   -4.4836    0.3704 H   0  0  0  0  0  0  0  0  0  0  0  0
   96.1714   -4.5821    2.7582 H   0  0  0  0  0  0  0  0  0  0  0  0
   96.1522   -6.9909    3.2953 H   0  0  0  0  0  0  0  0  0  0  0  0
   93.2449   -7.6506    0.2080 H   0  0  0  0  0  0  0  0  0  0  0  0
   93.2767   -5.2422   -0.3319 H   0  0  0  0  0  0  0  0  0  0  0  0
   92.2016   -4.0962    1.8496 H   0  0  0  0  0  0  0  0  0  0  0  0
   90.3215   -2.2142    1.3940 H   0  0  0  0  0  0  0  0  0  0  0  0
   90.3775    2.2625   -1.3927 H   0  0  0  0  0  0  0  0  0  0  0  0
   92.2999    4.0850   -1.9068 H   0  0  0  0  0  0  0  0  0  0  0  0
   96.3438    4.4654   -2.6970 H   0  0  0  0  0  0  0  0  0  0  0  0
   96.3908    6.8470   -3.3446 H   0  0  0  0  0  0  0  0  0  0  0  0
   93.3506    7.6918   -0.4355 H   0  0  0  0  0  0  0  0  0  0  0  0
   93.3157    5.3111    0.2149 H   0  0  0  0  0  0  0  0  0  0  0  0
   97.3216    4.4894   -0.2001 H   0  0  0  0  0  0  0  0  0  0  0  0
   99.1945    2.6290    0.3642 H   0  0  0  0  0  0  0  0  0  0  0  0
   55.5009   -0.0148   -0.0390 C   0  0  0  0  0  0  0  0  0  0  0  0
   54.2714   -0.0129   -0.0365 C   0  0  0  0  0  0  0  0  0  0  0  0
   52.9287   -0.0054   -0.0306 C   0  0  0  0  0  0  0  0  0  0  0  0
   51.7041    0.0016   -0.0247 C   0  0  0  0  0  0  0  0  0  0  0  0
   56.8434   -0.0149   -0.0429 C   0  0  0  0  0  0  0  0  0  0  0  0
   58.0684   -0.0127   -0.0456 C   0  0  0  0  0  0  0  0  0  0  0  0
   71.4520    0.0147    0.0392 C   0  0  0  0  0  0  0  0  0  0  0  0
   70.2225    0.0138    0.0352 C   0  0  0  0  0  0  0  0  0  0  0  0
   68.8803    0.0090    0.0268 C   0  0  0  0  0  0  0  0  0  0  0  0
   67.6553    0.0106    0.0147 C   0  0  0  0  0  0  0  0  0  0  0  0
   72.7943    0.0166    0.0397 C   0  0  0  0  0  0  0  0  0  0  0  0
   74.0193    0.0222    0.0365 C   0  0  0  0  0  0  0  0  0  0  0  0
   87.4061    0.0584    0.0186 C   0  0  0  0  0  0  0  0  0  0  0  0
   86.1780    0.0599    0.0135 C   0  0  0  0  0  0  0  0  0  0  0  0
   84.8332    0.0612    0.0073 C   0  0  0  0  0  0  0  0  0  0  0  0
   83.6095    0.0605    0.0015 C   0  0  0  0  0  0  0  0  0  0  0  0
   88.7512    0.0521    0.0251 C   0  0  0  0  0  0  0  0  0  0  0  0
   89.9745    0.0451    0.0291 C   0  0  0  0  0  0  0  0  0  0  0  0
   62.8622    0.0143   -0.0559 Co  0  0  0  0  0  0  0  0  0  0  0  0
   59.4690   -0.0073   -0.0451 C   0  0  0  0  0  0  0  0  0  0  0  0
   60.1571   -1.2149   -0.2024 C   0  0  0  0  0  0  0  0  0  0  0  0
   59.5140   -2.4839   -0.3274 C   0  0  0  0  0  0  0  0  0  0  0  0
   60.4746   -3.3721   -0.6829 C   0  0  0  0  0  0  0  0  0  0  0  0
   61.6984   -2.6364   -0.7844 C   0  0  0  0  0  0  0  0  0  0  0  0
   61.5020   -1.3267   -0.4144 N   0  0  0  0  0  0  0  0  0  0  0  0
   62.8786   -3.1441   -1.3117 C   0  0  0  0  0  0  0  0  0  0  0  0
   62.8853   -4.5137   -1.8699 C   0  0  0  0  0  0  0  0  0  0  0  0
   62.0202   -4.8590   -2.9111 C   0  0  0  0  0  0  0  0  0  0  0  0
   62.0273   -6.1378   -3.4379 C   0  0  0  0  0  0  0  0  0  0  0  0
   62.8999   -7.1024   -2.9251 C   0  0  0  0  0  0  0  0  0  0  0  0
   62.9080   -8.4207   -3.4625 C   0  0  0  0  0  0  0  0  0  0  0  0
   62.9161   -9.4868   -3.8955 N   0  0  0  0  0  0  0  0  0  0  0  0
   63.7650   -6.7630   -1.8806 C   0  0  0  0  0  0  0  0  0  0  0  0
   63.7576   -5.4803   -1.3633 C   0  0  0  0  0  0  0  0  0  0  0  0
   64.0538   -2.4045   -1.3278 C   0  0  0  0  0  0  0  0  0  0  0  0
   65.2856   -2.8513   -1.9042 C   0  0  0  0  0  0  0  0  0  0  0  0
   66.2379   -1.9635   -1.5256 C   0  0  0  0  0  0  0  0  0  0  0  0
   64.2384   -1.2119   -0.6685 N   0  0  0  0  0  0  0  0  0  0  0  0
   65.5813   -0.9735   -0.7330 C   0  0  0  0  0  0  0  0  0  0  0  0
   66.2548    0.0096   -0.0001 C   0  0  0  0  0  0  0  0  0  0  0  0
   65.5639    0.9936    0.7144 C   0  0  0  0  0  0  0  0  0  0  0  0
   66.2032    1.9929    1.5098 C   0  0  0  0  0  0  0  0  0  0  0  0
   65.2424    2.8826    1.8604 C   0  0  0  0  0  0  0  0  0  0  0  0
   64.0224    2.4269    1.2659 C   0  0  0  0  0  0  0  0  0  0  0  0
   64.2206    1.2252    0.6270 N   0  0  0  0  0  0  0  0  0  0  0  0
   62.8456    3.1626    1.2247 C   0  0  0  0  0  0  0  0  0  0  0  0
   62.8395    4.5374    1.7701 C   0  0  0  0  0  0  0  0  0  0  0  0
   61.9592    4.8882    2.7967 C   0  0  0  0  0  0  0  0  0  0  0  0
   61.9537    6.1718    3.3118 C   0  0  0  0  0  0  0  0  0  0  0  0
   62.8285    7.1356    2.8016 C   0  0  0  0  0  0  0  0  0  0  0  0
   62.8227    8.4588    3.3269 C   0  0  0  0  0  0  0  0  0  0  0  0
   62.8174    9.5279    3.7524 N   0  0  0  0  0  0  0  0  0  0  0  0
   63.7089    6.7907    1.7717 C   0  0  0  0  0  0  0  0  0  0  0  0
   63.7142    5.5032    1.2662 C   0  0  0  0  0  0  0  0  0  0  0  0
   61.6739    2.6450    0.6880 C   0  0  0  0  0  0  0  0  0  0  0  0
   60.4466    3.3717    0.5680 C   0  0  0  0  0  0  0  0  0  0  0  0
   59.4942    2.4731    0.2160 C   0  0  0  0  0  0  0  0  0  0  0  0
   60.1463    1.2072    0.1095 C   0  0  0  0  0  0  0  0  0  0  0  0
   61.4876    1.3289    0.3359 N   0  0  0  0  0  0  0  0  0  0  0  0
   58.4614   -2.6553   -0.1700 H   0  0  0  0  0  0  0  0  0  0  0  0
   60.3731   -4.4296   -0.8644 H   0  0  0  0  0  0  0  0  0  0  0  0
   61.3513   -4.1102   -3.3201 H   0  0  0  0  0  0  0  0  0  0  0  0
   61.3583   -6.3964   -4.2502 H   0  0  0  0  0  0  0  0  0  0  0  0
   64.4398   -7.5092   -1.4780 H   0  0  0  0  0  0  0  0  0  0  0  0
   64.4208   -5.2245   -0.5447 H   0  0  0  0  0  0  0  0  0  0  0  0
   65.3978   -3.7313   -2.5162 H   0  0  0  0  0  0  0  0  0  0  0  0
   67.2926   -1.9691   -1.7487 H   0  0  0  0  0  0  0  0  0  0  0  0
   67.2536    2.0034    1.7521 H   0  0  0  0  0  0  0  0  0  0  0  0
   65.3413    3.7703    2.4637 H   0  0  0  0  0  0  0  0  0  0  0  0
   61.2885    4.1401    3.2038 H   0  0  0  0  0  0  0  0  0  0  0  0
   61.2729    6.4347    4.1129 H   0  0  0  0  0  0  0  0  0  0  0  0
   64.3856    7.5363    1.3711 H   0  0  0  0  0  0  0  0  0  0  0  0
   64.3894    5.2429    0.4589 H   0  0  0  0  0  0  0  0  0  0  0  0
   60.3374    4.4309    0.7350 H   0  0  0  0  0  0  0  0  0  0  0  0
   58.4419    2.6364    0.0477 H   0  0  0  0  0  0  0  0  0  0  0  0
   78.8131    0.0456    0.0129 Co  0  0  0  0  0  0  0  0  0  0  0  0
   75.4200    0.0301    0.0278 C   0  0  0  0  0  0  0  0  0  0  0  0
   76.1079   -1.1742   -0.1521 C   0  0  0  0  0  0  0  0  0  0  0  0
   75.4658   -2.4435   -0.2801 C   0  0  0  0  0  0  0  0  0  0  0  0
   76.4240   -3.3270   -0.6528 C   0  0  0  0  0  0  0  0  0  0  0  0
   77.6456   -2.5884   -0.7617 C   0  0  0  0  0  0  0  0  0  0  0  0
   77.4497   -1.2805   -0.3836 N   0  0  0  0  0  0  0  0  0  0  0  0
   78.8214   -3.0893   -1.3033 C   0  0  0  0  0  0  0  0  0  0  0  0
   78.8249   -4.4557   -1.8698 C   0  0  0  0  0  0  0  0  0  0  0  0
   77.9502   -4.7952   -2.9050 C   0  0  0  0  0  0  0  0  0  0  0  0
   77.9505   -6.0718   -3.4374 C   0  0  0  0  0  0  0  0  0  0  0  0
   78.8260   -7.0399   -2.9364 C   0  0  0  0  0  0  0  0  0  0  0  0
   78.8253   -8.3563   -3.4784 C   0  0  0  0  0  0  0  0  0  0  0  0
   78.8236   -9.4207   -3.9155 N   0  0  0  0  0  0  0  0  0  0  0  0
   79.7014   -6.7060   -1.8987 C   0  0  0  0  0  0  0  0  0  0  0  0
   79.7006   -5.4256   -1.3756 C   0  0  0  0  0  0  0  0  0  0  0  0
   79.9950   -2.3467   -1.3237 C   0  0  0  0  0  0  0  0  0  0  0  0
   81.2225   -2.7898   -1.9122 C   0  0  0  0  0  0  0  0  0  0  0  0
   82.1773   -1.9040   -1.5363 C   0  0  0  0  0  0  0  0  0  0  0  0
   80.1825   -1.1550   -0.6643 N   0  0  0  0  0  0  0  0  0  0  0  0
   81.5269   -0.9177   -0.7339 C   0  0  0  0  0  0  0  0  0  0  0  0
   82.2060    0.0600   -0.0020 C   0  0  0  0  0  0  0  0  0  0  0  0
   81.5226    1.0395    0.7235 C   0  0  0  0  0  0  0  0  0  0  0  0
   82.1685    2.0382    1.5139 C   0  0  0  0  0  0  0  0  0  0  0  0
   81.2110    2.9281    1.8732 C   0  0  0  0  0  0  0  0  0  0  0  0
   79.9855    2.4718    1.2912 C   0  0  0  0  0  0  0  0  0  0  0  0
   80.1781    1.2742    0.6452 N   0  0  0  0  0  0  0  0  0  0  0  0
   78.8056    3.2049    1.2694 C   0  0  0  0  0  0  0  0  0  0  0  0
   78.8061    4.5803    1.8137 C   0  0  0  0  0  0  0  0  0  0  0  0
   77.9468    4.9308    2.8579 C   0  0  0  0  0  0  0  0  0  0  0  0
   77.9465    6.2163    3.3685 C   0  0  0  0  0  0  0  0  0  0  0  0
   78.8058    7.1821    2.8361 C   0  0  0  0  0  0  0  0  0  0  0  0
   78.8043    8.5074    3.3561 C   0  0  0  0  0  0  0  0  0  0  0  0
   78.8009    9.5794    3.7745 N   0  0  0  0  0  0  0  0  0  0  0  0
   79.6663    6.8370    1.7897 C   0  0  0  0  0  0  0  0  0  0  0  0
   79.6666    5.5477    1.2888 C   0  0  0  0  0  0  0  0  0  0  0  0
   77.6275    2.6840    0.7533 C   0  0  0  0  0  0  0  0  0  0  0  0
   76.3942    3.4057    0.6623 C   0  0  0  0  0  0  0  0  0  0  0  0
   75.4398    2.5056    0.3220 C   0  0  0  0  0  0  0  0  0  0  0  0
   76.0958    1.2435    0.1920 C   0  0  0  0  0  0  0  0  0  0  0  0
   77.4411    1.3700    0.3902 N   0  0  0  0  0  0  0  0  0  0  0  0
   74.4155   -2.6182   -0.1114 H   0  0  0  0  0  0  0  0  0  0  0  0
   76.3226   -4.3835   -0.8401 H   0  0  0  0  0  0  0  0  0  0  0  0
   77.2784   -4.0438   -3.3044 H   0  0  0  0  0  0  0  0  0  0  0  0
   77.2735   -6.3259   -4.2445 H   0  0  0  0  0  0  0  0  0  0  0  0
   80.3786   -7.4550   -1.5054 H   0  0  0  0  0  0  0  0  0  0  0  0
   80.3715   -5.1745   -0.5619 H   0  0  0  0  0  0  0  0  0  0  0  0
   81.3301   -3.6674   -2.5285 H   0  0  0  0  0  0  0  0  0  0  0  0
   83.2304   -1.9085   -1.7667 H   0  0  0  0  0  0  0  0  0  0  0  0
   83.2211    2.0489    1.7468 H   0  0  0  0  0  0  0  0  0  0  0  0
   81.3150    3.8153    2.4762 H   0  0  0  0  0  0  0  0  0  0  0  0
   77.2881    4.1813    3.2819 H   0  0  0  0  0  0  0  0  0  0  0  0
   77.2817    6.4792    4.1828 H   0  0  0  0  0  0  0  0  0  0  0  0
   80.3313    7.5840    1.3725 H   0  0  0  0  0  0  0  0  0  0  0  0
   80.3264    5.2869    0.4691 H   0  0  0  0  0  0  0  0  0  0  0  0
   76.2830    4.4628    0.8409 H   0  0  0  0  0  0  0  0  0  0  0  0
   74.3836    2.6647    0.1756 H   0  0  0  0  0  0  0  0  0  0  0  0
  2  3  4  0  0  0  0
  3  4  1  0  0  0  0
  4  5  2  0  0  0  0
  5  6  4  0  0  0  0
  1  7  1  0  0  0  0
  3  7  4  0  0  0  0
  6  7  4  0  0  0  0
  6  8  4  0  0  0  0
  8  9  1  0  0  0  0
  9 10  4  0  0  0  0
 10 11  4  0  0  0  0
 11 12  4  0  0  0  0
 12 13  1  0  0  0  0
 13 14  3  0  0  0  0
 12 15  4  0  0  0  0
  9 16  4  0  0  0  0
 15 16  4  0  0  0  0
  8 17  4  0  0  0  0
 17 18  4  0  0  0  0
 18 19  2  0  0  0  0
  1 20  1  0  0  0  0
 17 20  4  0  0  0  0
 19 21  4  0  0  0  0
 20 21  4  0  0  0  0
 21 22  4  0  0  0  0
 22 23  4  0  0  0  0
 23 24  4  0  0  0  0
 24 25  2  0  0  0  0
 25 26  4  0  0  0  0
  1 27  1  0  0  0  0
 23 27  4  0  0  0  0
 26 27  4  0  0  0  0
 26 28  4  0  0  0  0
 28 29  1  0  0  0  0
 29 30  4  0  0  0  0
 30 31  4  0  0  0  0
 31 32  4  0  0  0  0
 32 33  1  0  0  0  0
 33 34  3  0  0  0  0
 32 35  4  0  0  0  0
 29 36  4  0  0  0  0
 35 36  4  0  0  0  0
 28 37  4  0  0  0  0
 37 38  4  0  0  0  0
 38 39  2  0  0  0  0
  2 40  4  0  0  0  0
 39 40  1  0  0  0  0
  1 41  1  0  0  0  0
 37 41  4  0  0  0  0
 40 41  4  0  0  0  0
  2 42  1  0  0  0  0
  4 43  1  0  0  0  0
  5 44  1  0  0  0  0
 10 45  1  0  0  0  0
 11 46  1  0  0  0  0
 15 47  1  0  0  0  0
 16 48  1  0  0  0  0
 18 49  1  0  0  0  0
 19 50  1  0  0  0  0
 24 51  1  0  0  0  0
 25 52  1  0  0  0  0
 30 53  1  0  0  0  0
 31 54  1  0  0  0  0
 35 55  1  0  0  0  0
 36 56  1  0  0  0  0
 38 57  1  0  0  0  0
 39 58  1  0  0  0  0
 60 61  4  0  0  0  0
 61 62  1  0  0  0  0
 62 63  2  0  0  0  0
 63 64  4  0  0  0  0
 59 65  1  0  0  0  0
 61 65  4  0  0  0  0
 64 65  4  0  0  0  0
 64 66  4  0  0  0  0
 66 67  1  0  0  0  0
 67 68  4  0  0  0  0
 68 69  4  0  0  0  0
 69 70  4  0  0  0  0
 70 71  1  0  0  0  0
 71 72  3  0  0  0  0
 70 73  4  0  0  0  0
 67 74  4  0  0  0  0
 73 74  4  0  0  0  0
 66 75  4  0  0  0  0
 75 76  4  0  0  0  0
 76 77  2  0  0  0  0
 59 78  1  0  0  0  0
 75 78  4  0  0  0  0
 77 79  4  0  0  0  0
 78 79  4  0  0  0  0
 79 80  4  0  0  0  0
 80 81  4  0  0  0  0
 81 82  4  0  0  0  0
 82 83  2  0  0  0  0
 83 84  4  0  0  0  0
 59 85  1  0  0  0  0
 81 85  4  0  0  0  0
 84 85  4  0  0  0  0
 84 86  4  0  0  0  0
 86 87  1  0  0  0  0
 87 88  4  0  0  0  0
 88 89  4  0  0  0  0
 89 90  4  0  0  0  0
 90 91  1  0  0  0  0
 91 92  3  0  0  0  0
 90 93  4  0  0  0  0
 87 94  4  0  0  0  0
 93 94  4  0  0  0  0
 86 95  4  0  0  0  0
 95 96  4  0  0  0  0
 96 97  2  0  0  0  0
 60 98  4  0  0  0  0
 97 98  1  0  0  0  0
 59 99  1  0  0  0  0
 95 99  4  0  0  0  0
 98 99  4  0  0  0  0
 60100  1  0  0  0  0
 62101  1  0  0  0  0
 63102  1  0  0  0  0
 68103  1  0  0  0  0
 69104  1  0  0  0  0
 73105  1  0  0  0  0
 74106  1  0  0  0  0
 76107  1  0  0  0  0
 77108  1  0  0  0  0
 82109  1  0  0  0  0
 83110  1  0  0  0  0
 88111  1  0  0  0  0
 89112  1  0  0  0  0
 93113  1  0  0  0  0
 94114  1  0  0  0  0
 96115  1  0  0  0  0
 97116  1  0  0  0  0
117118  3  0  0  0  0
118119  4  0  0  0  0
 22120  4  0  0  0  0
119120  3  0  0  0  0
117121  4  0  0  0  0
121122  3  0  0  0  0
123124  3  0  0  0  0
124125  4  0  0  0  0
125126  3  0  0  0  0
123127  4  0  0  0  0
127128  3  0  0  0  0
129130  3  0  0  0  0
130131  4  0  0  0  0
131132  3  0  0  0  0
129133  4  0  0  0  0
 80134  4  0  0  0  0
133134  3  0  0  0  0
122136  4  0  0  0  0
136137  4  0  0  0  0
137138  4  0  0  0  0
138139  2  0  0  0  0
139140  4  0  0  0  0
135141  1  0  0  0  0
137141  4  0  0  0  0
140141  4  0  0  0  0
140142  4  0  0  0  0
142143  1  0  0  0  0
143144  4  0  0  0  0
144145  4  0  0  0  0
145146  4  0  0  0  0
146147  1  0  0  0  0
147148  3  0  0  0  0
146149  4  0  0  0  0
143150  4  0  0  0  0
149150  4  0  0  0  0
142151  4  0  0  0  0
151152  4  0  0  0  0
152153  2  0  0  0  0
135154  1  0  0  0  0
151154  4  0  0  0  0
153155  4  0  0  0  0
154155  4  0  0  0  0
126156  4  0  0  0  0
155156  4  0  0  0  0
156157  4  0  0  0  0
157158  4  0  0  0  0
158159  2  0  0  0  0
159160  4  0  0  0  0
135161  1  0  0  0  0
157161  4  0  0  0  0
160161  4  0  0  0  0
160162  4  0  0  0  0
162163  1  0  0  0  0
163164  4  0  0  0  0
164165  4  0  0  0  0
165166  4  0  0  0  0
166167  1  0  0  0  0
167168  3  0  0  0  0
166169  4  0  0  0  0
163170  4  0  0  0  0
169170  4  0  0  0  0
162171  4  0  0  0  0
171172  4  0  0  0  0
172173  2  0  0  0  0
136174  4  0  0  0  0
173174  4  0  0  0  0
135175  1  0  0  0  0
171175  4  0  0  0  0
174175  4  0  0  0  0
138176  1  0  0  0  0
139177  1  0  0  0  0
144178  1  0  0  0  0
145179  1  0  0  0  0
149180  1  0  0  0  0
150181  1  0  0  0  0
152182  1  0  0  0  0
153183  1  0  0  0  0
158184  1  0  0  0  0
159185  1  0  0  0  0
164186  1  0  0  0  0
165187  1  0  0  0  0
169188  1  0  0  0  0
170189  1  0  0  0  0
172190  1  0  0  0  0
173191  1  0  0  0  0
128193  4  0  0  0  0
193194  4  0  0  0  0
194195  4  0  0  0  0
195196  2  0  0  0  0
196197  4  0  0  0  0
192198  1  0  0  0  0
194198  4  0  0  0  0
197198  4  0  0  0  0
197199  4  0  0  0  0
199200  1  0  0  0  0
200201  4  0  0  0  0
201202  4  0  0  0  0
202203  4  0  0  0  0
203204  1  0  0  0  0
204205  3  0  0  0  0
203206  4  0  0  0  0
200207  4  0  0  0  0
206207  4  0  0  0  0
199208  4  0  0  0  0
208209  4  0  0  0  0
209210  2  0  0  0  0
192211  1  0  0  0  0
208211  4  0  0  0  0
210212  4  0  0  0  0
211212  4  0  0  0  0
132213  4  0  0  0  0
212213  4  0  0  0  0
213214  4  0  0  0  0
214215  4  0  0  0  0
215216  2  0  0  0  0
216217  4  0  0  0  0
192218  1  0  0  0  0
214218  4  0  0  0  0
217218  4  0  0  0  0
217219  4  0  0  0  0
219220  1  0  0  0  0
220221  4  0  0  0  0
221222  4  0  0  0  0
222223  4  0  0  0  0
223224  1  0  0  0  0
224225  3  0  0  0  0
223226  4  0  0  0  0
220227  4  0  0  0  0
226227  4  0  0  0  0
219228  4  0  0  0  0
228229  4  0  0  0  0
229230  2  0  0  0  0
193231  4  0  0  0  0
230231  4  0  0  0  0
192232  1  0  0  0  0
228232  4  0  0  0  0
231232  4  0  0  0  0
195233  1  0  0  0  0
196234  1  0  0  0  0
201235  1  0  0  0  0
202236  1  0  0  0  0
206237  1  0  0  0  0
207238  1  0  0  0  0
209239  1  0  0  0  0
210240  1  0  0  0  0
215241  1  0  0  0  0
216242  1  0  0  0  0
221243  1  0  0  0  0
222244  1  0  0  0  0
226245  1  0  0  0  0
227246  1  0  0  0  0
229247  1  0  0  0  0
230248  1  0  0  0  0
M  END
