 xtb: 6.5.1 (b24c23e)
          07302202453D

177206  0     0  0            999 V2000
   19.6247   -0.0170    0.0042 Ni  0  0  0  0  0  0  0  0  0  0  0  0
   16.2293   -0.0378    0.0633 C   0  0  0  0  0  0  0  0  0  0  0  0
   16.8841   -1.2505    0.1093 C   0  0  0  0  0  0  0  0  0  0  0  0
   16.2058   -2.5082    0.1874 C   0  0  0  0  0  0  0  0  0  0  0  0
   17.1633   -3.4607    0.2691 C   0  0  0  0  0  0  0  0  0  0  0  0
   18.4267   -2.7833    0.2377 C   0  0  0  0  0  0  0  0  0  0  0  0
   18.2450   -1.4271    0.1308 N   0  0  0  0  0  0  0  0  0  0  0  0
   19.6486   -3.4261    0.3839 C   0  0  0  0  0  0  0  0  0  0  0  0
   19.6580   -4.9006    0.5387 C   0  0  0  0  0  0  0  0  0  0  0  0
   20.0832   -5.5028    1.7217 C   0  0  0  0  0  0  0  0  0  0  0  0
   20.0712   -6.8856    1.8171 C   0  0  0  0  0  0  0  0  0  0  0  0
   19.6741   -7.6766    0.8257 N   0  0  0  0  0  0  0  0  0  0  0  0
   19.2686   -7.1099   -0.3060 C   0  0  0  0  0  0  0  0  0  0  0  0
   19.2402   -5.7371   -0.4953 C   0  0  0  0  0  0  0  0  0  0  0  0
   20.8598   -2.7489    0.3986 C   0  0  0  0  0  0  0  0  0  0  0  0
   22.1283   -3.3970    0.5425 C   0  0  0  0  0  0  0  0  0  0  0  0
   23.0736   -2.4323    0.4449 C   0  0  0  0  0  0  0  0  0  0  0  0
   21.0282   -1.3949    0.2129 N   0  0  0  0  0  0  0  0  0  0  0  0
   22.3819   -1.2013    0.2293 C   0  0  0  0  0  0  0  0  0  0  0  0
   23.0407    0.0097    0.0015 C   0  0  0  0  0  0  0  0  0  0  0  0
   22.3614    1.2074   -0.2363 C   0  0  0  0  0  0  0  0  0  0  0  0
   23.0307    2.4386   -0.5123 C   0  0  0  0  0  0  0  0  0  0  0  0
   22.0690    3.3840   -0.6366 C   0  0  0  0  0  0  0  0  0  0  0  0
   20.8147    2.7277   -0.4239 C   0  0  0  0  0  0  0  0  0  0  0  0
   21.0052    1.3815   -0.2066 N   0  0  0  0  0  0  0  0  0  0  0  0
   19.5934    3.3871   -0.4223 C   0  0  0  0  0  0  0  0  0  0  0  0
   19.5813    4.8578   -0.6037 C   0  0  0  0  0  0  0  0  0  0  0  0
   18.9602    5.4476   -1.7036 C   0  0  0  0  0  0  0  0  0  0  0  0
   18.9763    6.8280   -1.8281 C   0  0  0  0  0  0  0  0  0  0  0  0
   19.5557    7.6287   -0.9395 N   0  0  0  0  0  0  0  0  0  0  0  0
   20.1479    7.0743    0.1133 C   0  0  0  0  0  0  0  0  0  0  0  0
   20.1892    5.7047    0.3221 C   0  0  0  0  0  0  0  0  0  0  0  0
   18.3829    2.7291   -0.2490 C   0  0  0  0  0  0  0  0  0  0  0  0
   17.1142    3.3948   -0.1954 C   0  0  0  0  0  0  0  0  0  0  0  0
   16.1726    2.4327   -0.0580 C   0  0  0  0  0  0  0  0  0  0  0  0
   16.8669    1.1820   -0.0198 C   0  0  0  0  0  0  0  0  0  0  0  0
   18.2228    1.3727   -0.1150 N   0  0  0  0  0  0  0  0  0  0  0  0
   15.1459   -0.0440    0.0922 H   0  0  0  0  0  0  0  0  0  0  0  0
   15.1338   -2.6250    0.1868 H   0  0  0  0  0  0  0  0  0  0  0  0
   17.0392   -4.5277    0.3582 H   0  0  0  0  0  0  0  0  0  0  0  0
   20.4053   -4.8968    2.5601 H   0  0  0  0  0  0  0  0  0  0  0  0
   20.3945   -7.3784    2.7294 H   0  0  0  0  0  0  0  0  0  0  0  0
   18.9521   -7.7826   -1.0978 H   0  0  0  0  0  0  0  0  0  0  0  0
   18.9111   -5.3189   -1.4391 H   0  0  0  0  0  0  0  0  0  0  0  0
   22.2679   -4.4556    0.6872 H   0  0  0  0  0  0  0  0  0  0  0  0
   24.1457   -2.5309    0.4992 H   0  0  0  0  0  0  0  0  0  0  0  0
   24.0995    2.5481   -0.6001 H   0  0  0  0  0  0  0  0  0  0  0  0
   22.1875    4.4320   -0.8579 H   0  0  0  0  0  0  0  0  0  0  0  0
   18.4843    4.8333   -2.4586 H   0  0  0  0  0  0  0  0  0  0  0  0
   18.5033    7.3108   -2.6782 H   0  0  0  0  0  0  0  0  0  0  0  0
   20.6103    7.7546    0.8225 H   0  0  0  0  0  0  0  0  0  0  0  0
   20.6745    5.2972    1.2009 H   0  0  0  0  0  0  0  0  0  0  0  0
   16.9764    4.4624   -0.2504 H   0  0  0  0  0  0  0  0  0  0  0  0
   15.1019    2.5395    0.0137 H   0  0  0  0  0  0  0  0  0  0  0  0
   56.7627    0.0363    0.0026 Ni  0  0  0  0  0  0  0  0  0  0  0  0
   60.1589    0.0648    0.0615 C   0  0  0  0  0  0  0  0  0  0  0  0
   59.5081    1.2425   -0.2399 C   0  0  0  0  0  0  0  0  0  0  0  0
   60.1912    2.4693   -0.5164 C   0  0  0  0  0  0  0  0  0  0  0  0
   59.2370    3.4049   -0.7284 C   0  0  0  0  0  0  0  0  0  0  0  0
   57.9712    2.7470   -0.5846 C   0  0  0  0  0  0  0  0  0  0  0  0
   58.1478    1.4186   -0.2880 N   0  0  0  0  0  0  0  0  0  0  0  0
   56.7499    3.4020   -0.6675 C   0  0  0  0  0  0  0  0  0  0  0  0
   56.7449    4.8553   -0.9608 C   0  0  0  0  0  0  0  0  0  0  0  0
   56.2909    5.7813   -0.0228 C   0  0  0  0  0  0  0  0  0  0  0  0
   56.3085    7.1299   -0.3428 C   0  0  0  0  0  0  0  0  0  0  0  0
   56.7372    7.5909   -1.5132 N   0  0  0  0  0  0  0  0  0  0  0  0
   57.1700    6.7141   -2.4133 C   0  0  0  0  0  0  0  0  0  0  0  0
   57.1956    5.3472   -2.1847 C   0  0  0  0  0  0  0  0  0  0  0  0
   55.5348    2.7587   -0.4786 C   0  0  0  0  0  0  0  0  0  0  0  0
   54.2676    3.4183   -0.5705 C   0  0  0  0  0  0  0  0  0  0  0  0
   53.3192    2.4722   -0.3733 C   0  0  0  0  0  0  0  0  0  0  0  0
   55.3628    1.4146   -0.2336 N   0  0  0  0  0  0  0  0  0  0  0  0
   54.0081    1.2368   -0.1754 C   0  0  0  0  0  0  0  0  0  0  0  0
   53.3456    0.0194    0.0020 C   0  0  0  0  0  0  0  0  0  0  0  0
   54.0206   -1.1934    0.1644 C   0  0  0  0  0  0  0  0  0  0  0  0
   53.3458   -2.4450    0.2984 C   0  0  0  0  0  0  0  0  0  0  0  0
   54.3045   -3.3875    0.4611 C   0  0  0  0  0  0  0  0  0  0  0  0
   55.5626   -2.7048    0.4396 C   0  0  0  0  0  0  0  0  0  0  0  0
   55.3767   -1.3562    0.2322 N   0  0  0  0  0  0  0  0  0  0  0  0
   56.7836   -3.3404    0.6167 C   0  0  0  0  0  0  0  0  0  0  0  0
   56.7923   -4.7980    0.8843 C   0  0  0  0  0  0  0  0  0  0  0  0
   57.3880   -5.6940   -0.0022 C   0  0  0  0  0  0  0  0  0  0  0  0
   57.3710   -7.0481    0.2935 C   0  0  0  0  0  0  0  0  0  0  0  0
   56.8136   -7.5422    1.3943 N   0  0  0  0  0  0  0  0  0  0  0  0
   56.2453   -6.6942    2.2454 C   0  0  0  0  0  0  0  0  0  0  0  0
   56.2073   -5.3248    2.0349 C   0  0  0  0  0  0  0  0  0  0  0  0
   57.9974   -2.6680    0.5646 C   0  0  0  0  0  0  0  0  0  0  0  0
   59.2656   -3.2960    0.7947 C   0  0  0  0  0  0  0  0  0  0  0  0
   60.2100   -2.3392    0.6408 C   0  0  0  0  0  0  0  0  0  0  0  0
   59.5179   -1.1273    0.3245 C   0  0  0  0  0  0  0  0  0  0  0  0
   58.1610   -1.3320    0.2969 N   0  0  0  0  0  0  0  0  0  0  0  0
   61.2422    0.0764    0.0911 H   0  0  0  0  0  0  0  0  0  0  0  0
   61.2636    2.5806   -0.5341 H   0  0  0  0  0  0  0  0  0  0  0  0
   59.3648    4.4521   -0.9494 H   0  0  0  0  0  0  0  0  0  0  0  0
   55.9424    5.4513    0.9485 H   0  0  0  0  0  0  0  0  0  0  0  0
   55.9635    7.8710    0.3723 H   0  0  0  0  0  0  0  0  0  0  0  0
   57.5117    7.1215   -3.3603 H   0  0  0  0  0  0  0  0  0  0  0  0
   57.5478    4.6680   -2.9519 H   0  0  0  0  0  0  0  0  0  0  0  0
   54.1311    4.4682   -0.7713 H   0  0  0  0  0  0  0  0  0  0  0  0
   52.2469    2.5825   -0.3705 H   0  0  0  0  0  0  0  0  0  0  0  0
   52.2757   -2.5705    0.2638 H   0  0  0  0  0  0  0  0  0  0  0  0
   54.1816   -4.4515    0.5790 H   0  0  0  0  0  0  0  0  0  0  0  0
   57.8453   -5.3370   -0.9172 H   0  0  0  0  0  0  0  0  0  0  0  0
   57.8248   -7.7663   -0.3831 H   0  0  0  0  0  0  0  0  0  0  0  0
   55.8006   -7.1280    3.1363 H   0  0  0  0  0  0  0  0  0  0  0  0
   55.7423   -4.6698    2.7619 H   0  0  0  0  0  0  0  0  0  0  0  0
   59.4012   -4.3347    1.0484 H   0  0  0  0  0  0  0  0  0  0  0  0
   61.2811   -2.4253    0.7309 H   0  0  0  0  0  0  0  0  0  0  0  0
   24.4456    0.0215   -0.0001 C   0  0  0  0  0  0  0  0  0  0  0  0
   25.6696    0.0325    0.0031 C   0  0  0  0  0  0  0  0  0  0  0  0
   27.0127    0.0417    0.0019 C   0  0  0  0  0  0  0  0  0  0  0  0
   28.2429    0.0465    0.0014 C   0  0  0  0  0  0  0  0  0  0  0  0
   29.5811    0.0521    0.0018 C   0  0  0  0  0  0  0  0  0  0  0  0
   30.8115    0.0520   -0.0000 C   0  0  0  0  0  0  0  0  0  0  0  0
   32.1543    0.0499   -0.0009 C   0  0  0  0  0  0  0  0  0  0  0  0
   33.3786    0.0441   -0.0008 C   0  0  0  0  0  0  0  0  0  0  0  0
   43.0084   -0.0042    0.0093 C   0  0  0  0  0  0  0  0  0  0  0  0
   44.2326   -0.0045    0.0160 C   0  0  0  0  0  0  0  0  0  0  0  0
   45.5752   -0.0053    0.0205 C   0  0  0  0  0  0  0  0  0  0  0  0
   46.8056   -0.0063    0.0216 C   0  0  0  0  0  0  0  0  0  0  0  0
   48.1436   -0.0061    0.0199 C   0  0  0  0  0  0  0  0  0  0  0  0
   49.3740   -0.0037    0.0196 C   0  0  0  0  0  0  0  0  0  0  0  0
   50.7168    0.0038    0.0166 C   0  0  0  0  0  0  0  0  0  0  0  0
   51.9409    0.0124    0.0065 C   0  0  0  0  0  0  0  0  0  0  0  0
   38.1935    0.0005   -0.0176 Ni  0  0  0  0  0  0  0  0  0  0  0  0
   34.7823    0.0323   -0.0052 C   0  0  0  0  0  0  0  0  0  0  0  0
   35.4528   -0.7138    0.9691 C   0  0  0  0  0  0  0  0  0  0  0  0
   34.7853   -1.4372    2.0035 C   0  0  0  0  0  0  0  0  0  0  0  0
   35.7360   -2.1513    2.6541 C   0  0  0  0  0  0  0  0  0  0  0  0
   36.9806   -1.8666    2.0079 C   0  0  0  0  0  0  0  0  0  0  0  0
   36.8005   -0.9433    1.0033 N   0  0  0  0  0  0  0  0  0  0  0  0
   38.1789   -2.4994    2.3128 C   0  0  0  0  0  0  0  0  0  0  0  0
   38.1712   -3.5826    3.3222 C   0  0  0  0  0  0  0  0  0  0  0  0
   37.4124   -4.7380    3.1392 C   0  0  0  0  0  0  0  0  0  0  0  0
   37.4380   -5.7240    4.1130 C   0  0  0  0  0  0  0  0  0  0  0  0
   38.1527   -5.6214    5.2288 N   0  0  0  0  0  0  0  0  0  0  0  0
   38.8768   -4.5221    5.4122 C   0  0  0  0  0  0  0  0  0  0  0  0
   38.9207   -3.4849    4.4939 C   0  0  0  0  0  0  0  0  0  0  0  0
   39.3839   -2.1533    1.7154 C   0  0  0  0  0  0  0  0  0  0  0  0
   40.6260   -2.8162    1.9714 C   0  0  0  0  0  0  0  0  0  0  0  0
   41.5860   -2.1105    1.3253 C   0  0  0  0  0  0  0  0  0  0  0  0
   39.5754   -1.0832    0.8710 N   0  0  0  0  0  0  0  0  0  0  0  0
   40.9263   -1.0286    0.6673 C   0  0  0  0  0  0  0  0  0  0  0  0
   41.6049   -0.0044   -0.0008 C   0  0  0  0  0  0  0  0  0  0  0  0
   40.9357    1.0158   -0.6842 C   0  0  0  0  0  0  0  0  0  0  0  0
   41.6050    2.0868   -1.3506 C   0  0  0  0  0  0  0  0  0  0  0  0
   40.6548    2.7797   -2.0244 C   0  0  0  0  0  0  0  0  0  0  0  0
   39.4084    2.1239   -1.7713 C   0  0  0  0  0  0  0  0  0  0  0  0
   39.5874    1.0683   -0.9065 N   0  0  0  0  0  0  0  0  0  0  0  0
   38.2090    2.4697   -2.3803 C   0  0  0  0  0  0  0  0  0  0  0  0
   38.2183    3.5348   -3.4089 C   0  0  0  0  0  0  0  0  0  0  0  0
   38.9672    3.4045   -4.5779 C   0  0  0  0  0  0  0  0  0  0  0  0
   38.9426    4.4272   -5.5130 C   0  0  0  0  0  0  0  0  0  0  0  0
   38.2387    5.5425   -5.3481 N   0  0  0  0  0  0  0  0  0  0  0  0
   37.5250    5.6760   -4.2349 C   0  0  0  0  0  0  0  0  0  0  0  0
   37.4804    4.7065   -3.2455 C   0  0  0  0  0  0  0  0  0  0  0  0
   37.0019    1.8618   -2.0607 C   0  0  0  0  0  0  0  0  0  0  0  0
   35.7576    2.1641   -2.6995 C   0  0  0  0  0  0  0  0  0  0  0  0
   34.7975    1.4845   -2.0264 C   0  0  0  0  0  0  0  0  0  0  0  0
   35.4591    0.7601   -0.9889 C   0  0  0  0  0  0  0  0  0  0  0  0
   36.8111    0.9586   -1.0397 N   0  0  0  0  0  0  0  0  0  0  0  0
   33.7248   -1.3969    2.1928 H   0  0  0  0  0  0  0  0  0  0  0  0
   35.6153   -2.8110    3.4977 H   0  0  0  0  0  0  0  0  0  0  0  0
   36.8231   -4.8695    2.2396 H   0  0  0  0  0  0  0  0  0  0  0  0
   36.8595   -6.6349    3.9910 H   0  0  0  0  0  0  0  0  0  0  0  0
   39.4472   -4.4666    6.3347 H   0  0  0  0  0  0  0  0  0  0  0  0
   39.5162   -2.6015    4.6909 H   0  0  0  0  0  0  0  0  0  0  0  0
   40.7392   -3.7063    2.5684 H   0  0  0  0  0  0  0  0  0  0  0  0
   42.6480   -2.2924    1.2902 H   0  0  0  0  0  0  0  0  0  0  0  0
   42.6665    2.2690   -1.3039 H   0  0  0  0  0  0  0  0  0  0  0  0
   40.7766    3.6580   -2.6368 H   0  0  0  0  0  0  0  0  0  0  0  0
   39.5477    2.5079   -4.7592 H   0  0  0  0  0  0  0  0  0  0  0  0
   39.5132    4.3468   -6.4335 H   0  0  0  0  0  0  0  0  0  0  0  0
   36.9632    6.5994   -4.1282 H   0  0  0  0  0  0  0  0  0  0  0  0
   36.8932    4.8633   -2.3485 H   0  0  0  0  0  0  0  0  0  0  0  0
   35.6433    2.8126   -3.5527 H   0  0  0  0  0  0  0  0  0  0  0  0
   33.7342    1.4671   -2.2030 H   0  0  0  0  0  0  0  0  0  0  0  0
  2  3  4  0  0  0  0
  3  4  4  0  0  0  0
  4  5  2  0  0  0  0
  5  6  4  0  0  0  0
  1  7  1  0  0  0  0
  3  7  4  0  0  0  0
  6  7  4  0  0  0  0
  6  8  4  0  0  0  0
  8  9  1  0  0  0  0
  9 10  4  0  0  0  0
 10 11  4  0  0  0  0
 11 12  4  0  0  0  0
 12 13  4  0  0  0  0
  9 14  4  0  0  0  0
 13 14  4  0  0  0  0
  8 15  4  0  0  0  0
 15 16  4  0  0  0  0
 16 17  2  0  0  0  0
  1 18  1  0  0  0  0
 15 18  4  0  0  0  0
 17 19  4  0  0  0  0
 18 19  4  0  0  0  0
 19 20  4  0  0  0  0
 20 21  4  0  0  0  0
 21 22  4  0  0  0  0
 22 23  2  0  0  0  0
 23 24  4  0  0  0  0
  1 25  1  0  0  0  0
 21 25  4  0  0  0  0
 24 25  4  0  0  0  0
 24 26  4  0  0  0  0
 26 27  1  0  0  0  0
 27 28  4  0  0  0  0
 28 29  4  0  0  0  0
 29 30  4  0  0  0  0
 30 31  4  0  0  0  0
 27 32  4  0  0  0  0
 31 32  4  0  0  0  0
 26 33  4  0  0  0  0
 33 34  4  0  0  0  0
 34 35  2  0  0  0  0
  2 36  4  0  0  0  0
 35 36  4  0  0  0  0
  1 37  1  0  0  0  0
 33 37  4  0  0  0  0
 36 37  4  0  0  0  0
  2 38  1  0  0  0  0
  4 39  1  0  0  0  0
  5 40  1  0  0  0  0
 10 41  1  0  0  0  0
 11 42  1  0  0  0  0
 13 43  1  0  0  0  0
 14 44  1  0  0  0  0
 16 45  1  0  0  0  0
 17 46  1  0  0  0  0
 22 47  1  0  0  0  0
 23 48  1  0  0  0  0
 28 49  1  0  0  0  0
 29 50  1  0  0  0  0
 31 51  1  0  0  0  0
 32 52  1  0  0  0  0
 34 53  1  0  0  0  0
 35 54  1  0  0  0  0
 56 57  4  0  0  0  0
 57 58  4  0  0  0  0
 58 59  2  0  0  0  0
 59 60  4  0  0  0  0
 55 61  1  0  0  0  0
 57 61  4  0  0  0  0
 60 61  4  0  0  0  0
 60 62  4  0  0  0  0
 62 63  1  0  0  0  0
 63 64  4  0  0  0  0
 64 65  4  0  0  0  0
 65 66  4  0  0  0  0
 66 67  4  0  0  0  0
 63 68  4  0  0  0  0
 67 68  4  0  0  0  0
 62 69  4  0  0  0  0
 69 70  4  0  0  0  0
 70 71  2  0  0  0  0
 55 72  1  0  0  0  0
 69 72  4  0  0  0  0
 71 73  4  0  0  0  0
 72 73  4  0  0  0  0
 73 74  4  0  0  0  0
 74 75  4  0  0  0  0
 75 76  4  0  0  0  0
 76 77  2  0  0  0  0
 77 78  4  0  0  0  0
 55 79  1  0  0  0  0
 75 79  4  0  0  0  0
 78 79  4  0  0  0  0
 78 80  4  0  0  0  0
 80 81  1  0  0  0  0
 81 82  4  0  0  0  0
 82 83  4  0  0  0  0
 83 84  4  0  0  0  0
 84 85  4  0  0  0  0
 81 86  4  0  0  0  0
 85 86  4  0  0  0  0
 80 87  4  0  0  0  0
 87 88  4  0  0  0  0
 88 89  2  0  0  0  0
 56 90  4  0  0  0  0
 89 90  4  0  0  0  0
 55 91  1  0  0  0  0
 87 91  4  0  0  0  0
 90 91  4  0  0  0  0
 56 92  1  0  0  0  0
 58 93  1  0  0  0  0
 59 94  1  0  0  0  0
 64 95  1  0  0  0  0
 65 96  1  0  0  0  0
 67 97  1  0  0  0  0
 68 98  1  0  0  0  0
 70 99  1  0  0  0  0
 71100  1  0  0  0  0
 76101  1  0  0  0  0
 77102  1  0  0  0  0
 82103  1  0  0  0  0
 83104  1  0  0  0  0
 85105  1  0  0  0  0
 86106  1  0  0  0  0
 88107  1  0  0  0  0
 89108  1  0  0  0  0
 20109  4  0  0  0  0
109110  3  0  0  0  0
110111  4  0  0  0  0
111112  3  0  0  0  0
112113  4  0  0  0  0
113114  3  0  0  0  0
114115  4  0  0  0  0
115116  3  0  0  0  0
117118  3  0  0  0  0
118119  4  0  0  0  0
119120  3  0  0  0  0
120121  4  0  0  0  0
121122  3  0  0  0  0
122123  4  0  0  0  0
 74124  4  0  0  0  0
123124  3  0  0  0  0
116126  4  0  0  0  0
126127  4  0  0  0  0
127128  4  0  0  0  0
128129  2  0  0  0  0
129130  4  0  0  0  0
125131  1  0  0  0  0
127131  4  0  0  0  0
130131  4  0  0  0  0
130132  4  0  0  0  0
132133  1  0  0  0  0
133134  4  0  0  0  0
134135  4  0  0  0  0
135136  4  0  0  0  0
136137  4  0  0  0  0
133138  4  0  0  0  0
137138  4  0  0  0  0
132139  4  0  0  0  0
139140  4  0  0  0  0
140141  2  0  0  0  0
125142  1  0  0  0  0
139142  4  0  0  0  0
141143  4  0  0  0  0
142143  4  0  0  0  0
117144  4  0  0  0  0
143144  4  0  0  0  0
144145  4  0  0  0  0
145146  4  0  0  0  0
146147  2  0  0  0  0
147148  4  0  0  0  0
125149  1  0  0  0  0
145149  4  0  0  0  0
148149  4  0  0  0  0
148150  4  0  0  0  0
150151  1  0  0  0  0
151152  4  0  0  0  0
152153  4  0  0  0  0
153154  4  0  0  0  0
154155  4  0  0  0  0
151156  4  0  0  0  0
155156  4  0  0  0  0
150157  4  0  0  0  0
157158  4  0  0  0  0
158159  2  0  0  0  0
126160  4  0  0  0  0
159160  4  0  0  0  0
125161  1  0  0  0  0
157161  4  0  0  0  0
160161  4  0  0  0  0
128162  1  0  0  0  0
129163  1  0  0  0  0
134164  1  0  0  0  0
135165  1  0  0  0  0
137166  1  0  0  0  0
138167  1  0  0  0  0
140168  1  0  0  0  0
141169  1  0  0  0  0
146170  1  0  0  0  0
147171  1  0  0  0  0
152172  1  0  0  0  0
153173  1  0  0  0  0
155174  1  0  0  0  0
156175  1  0  0  0  0
158176  1  0  0  0  0
159177  1  0  0  0  0
M  END
