538

C 110.866573 -0.005731 -0.060085
C 111.595066 -1.263908 0.504520
C 110.986457 -2.428428 0.914233
C 112.008245 -3.279690 1.409081
C 113.206314 -2.602295 1.291229
N 112.947707 -1.395166 0.691540
C 114.628803 -3.104409 1.780760
C 115.758635 -2.429182 1.435918
C 117.063273 -2.825421 1.925109
C 117.965639 -1.975162 1.449807
N 115.954911 -1.322918 0.651450
C 117.286463 -0.998127 0.621459
C 117.954108 0.004378 -0.009635
C 117.176458 1.037253 -0.930330
C 117.716849 1.772640 -1.967295
C 116.692057 2.606274 -2.480145
C 115.551812 2.348918 -1.749470
C 114.142512 3.054634 -1.932883
C 114.115267 4.392949 -2.565759
C 113.742590 4.538128 -3.908058
C 113.731646 5.800138 -4.504995
C 114.096404 6.924578 -3.763463
C 114.471787 6.787893 -2.426264
C 114.482069 5.525461 -1.829789
C 113.016885 2.433340 -1.493663
C 111.695005 3.022094 -1.616742
C 110.809189 2.169977 -1.109318
C 111.530813 1.015206 -0.633314
N 112.851905 1.223019 -0.879365
N 115.842476 1.354949 -0.844838
C 114.666268 -4.296240 2.661610
C 114.413912 -4.167772 4.032547
C 114.438476 -5.290685 4.861783
C 114.714533 -6.548674 4.324121
C 114.966295 -6.684991 2.958213
C 114.941311 -5.561935 2.129259
H 109.788738 0.042637 0.038042
H 109.928093 -2.635177 0.877165
H 111.881058 -4.266465 1.828233
H 113.648921 -0.705774 0.431762
H 117.274349 -3.656881 2.573712
H 119.019173 -2.025470 1.655168
H 118.738764 1.726709 -2.311526
H 116.776569 3.317982 -3.287542
H 113.458357 3.654281 -4.475242
H 113.437361 5.898252 -5.544891
H 114.087612 7.906141 -4.226419
H 114.756820 7.657501 -1.842829
H 114.773095 5.408158 -0.788147
H 111.467157 3.982674 -2.042468
H 109.745686 2.314300 -1.051522
H 115.159179 0.893549 -0.249891
H 114.201592 -3.181988 4.440756
H 114.243230 -5.176396 5.923188
H 114.735192 -7.421241 4.969197
H 115.184095 -7.659510 2.533256
H 115.139257 -5.654804 1.063586
C 225.635290 -0.036928 -0.040313
C 224.906797 1.010755 -0.937057
C 225.515406 1.878389 -1.815227
C 224.493618 2.689280 -2.373776
C 223.295549 2.293529 -1.811518
N 223.554156 1.235912 -0.975915
C 221.873060 2.950563 -2.056600
C 220.743228 2.350470 -1.593204
C 219.438590 2.961999 -1.742690
C 218.536225 2.169211 -1.176705
N 220.546952 1.168816 -0.927695
C 219.215400 1.003043 -0.646790
C 218.547755 0.004378 -0.009635
C 219.325405 -1.269137 0.531353
C 218.785014 -2.520799 0.753688
C 219.809806 -3.340445 1.288609
C 220.950051 -2.569830 1.367805
C 222.359351 -3.036958 1.927686
C 222.386597 -4.180591 2.867753
C 222.759273 -5.456408 2.426016
C 222.770217 -6.534967 3.312422
C 222.405459 -6.344417 4.645811
C 222.030076 -5.076837 5.093053
C 222.019794 -3.998518 4.206067
C 223.484979 -2.374543 1.553351
C 224.806858 -2.737181 2.033220
C 225.692674 -1.914551 1.479267
C 224.971051 -0.991134 0.638211
N 223.649959 -1.302352 0.721098
N 220.659387 -1.327449 0.855143
C 221.835595 4.255904 -2.758343
C 222.087951 5.440801 -2.056921
C 222.063387 6.670047 -2.718375
C 221.787330 6.720869 -4.085501
C 221.535568 5.543872 -4.791873
C 221.560552 4.314819 -4.130170
H 226.713125 0.031160 0.045315
H 226.573770 1.933128 -2.018015
H 224.620805 3.489570 -3.087183
H 222.852942 0.706696 -0.463396
H 219.227514 3.903478 -2.217693
H 217.482690 2.376395 -1.134530
H 217.763099 -2.812479 0.565202
H 219.725294 -4.374400 1.587533
H 223.043507 -5.592002 1.384624
H 223.064502 -7.517229 2.957219
H 222.414251 -7.182094 5.335805
H 221.745043 -4.920469 6.128505
H 221.728768 -3.006484 4.544663
H 225.034706 -3.532233 2.720132
H 226.756177 -1.923897 1.634452
H 221.342684 -0.592469 0.691878
H 222.300272 5.389117 -0.991214
H 222.258633 7.581087 -2.161913
H 221.766671 7.676707 -4.599183
H 221.317768 5.575601 -5.854544
H 221.362606 3.390776 -4.669084
C 121.311926 0.017110 -0.007110
C 120.059655 -0.002071 -0.011458
C 122.625594 0.016344 -0.005177
C 124.128727 -0.002071 -0.011458
C 134.511861 0.017110 -0.007110
C 133.259591 -0.002071 -0.011458
C 135.825529 0.016344 -0.005177
C 137.328663 -0.002071 -0.011458
C 147.711797 0.017110 -0.007110
C 146.459527 -0.002071 -0.011458
C 149.025465 0.016344 -0.005177
C 150.528599 -0.002071 -0.011458
C 160.911733 0.017110 -0.007110
C 159.659462 -0.002071 -0.011458
C 162.225401 0.016344 -0.005177
C 163.728535 -0.002071 -0.011458
C 174.111669 0.017110 -0.007110
C 172.859398 -0.002071 -0.011458
C 175.425337 0.016344 -0.005177
C 176.928470 -0.002071 -0.011458
C 187.311605 0.017110 -0.007110
C 186.059334 -0.002071 -0.011458
C 188.625273 0.016344 -0.005177
C 190.128406 -0.002071 -0.011458
C 200.511540 0.017110 -0.007110
C 199.259270 -0.002071 -0.011458
C 201.825208 0.016344 -0.005177
C 203.328342 -0.002071 -0.011458
C 213.711476 0.017110 -0.007110
C 212.459206 -0.002071 -0.011458
C 215.025144 0.016344 -0.005177
C 216.528278 -0.002071 -0.011458
C 125.074170 -0.001104 0.003737
C 125.867822 1.108719 0.809697
C 125.361096 1.933461 1.793591
C 126.397995 2.822160 2.176830
C 127.507436 2.507358 1.420586
N 127.196485 1.416583 0.647786
C 128.897062 3.267470 1.429230
C 130.031870 2.613629 1.065578
C 131.318801 3.274944 0.999639
C 132.226763 2.386658 0.609960
N 130.239901 1.314975 0.690650
C 131.564410 1.113722 0.407473
C 132.228208 -0.001104 0.003737
C 131.434572 -1.357027 -0.203142
C 131.941338 -2.635238 -0.083181
C 130.904436 -3.536736 -0.435259
C 129.794954 -2.781259 -0.751747
C 128.405302 -3.327981 -1.279820
C 128.414428 -4.606200 -2.029648
C 128.892490 -4.646454 -3.344533
C 128.917494 -5.851446 -4.049553
C 128.466706 -7.024368 -3.442526
C 127.991764 -6.993864 -2.130842
C 127.967706 -5.788816 -1.426247
C 127.270504 -2.607281 -1.078907
C 125.983566 -3.031317 -1.590645
C 125.075608 -2.125584 -1.243443
C 125.737968 -1.077839 -0.492725
N 127.062480 -1.420021 -0.432781
N 130.105889 -1.462210 -0.534630
C 128.887816 4.703739 1.794234
C 128.409553 5.656455 0.887213
C 128.384233 7.009124 1.232652
C 128.834910 7.416898 2.488856
C 129.310083 6.473377 3.400441
C 129.334459 5.120962 3.054659
H 124.352664 1.915269 2.177972
H 126.337390 3.615800 2.906300
H 127.857589 0.893973 0.080453
H 131.513439 4.310023 1.216748
H 133.271205 2.597451 0.470247
H 132.949798 -2.892484 0.202911
H 130.965067 -4.613982 -0.474346
H 129.242804 -3.727230 -3.809048
H 129.289237 -5.867059 -5.069078
H 128.485488 -7.960542 -3.991274
H 127.638782 -7.901561 -1.652149
H 127.598205 -5.752802 -0.403587
H 125.788923 -3.920153 -2.163790
H 124.031166 -2.177309 -1.490982
H 129.444764 -0.691719 -0.570727
H 128.059286 5.328995 -0.089289
H 128.012305 7.736726 0.518420
H 128.815847 8.468509 2.756534
H 129.662961 6.782677 4.378945
H 129.704095 4.376640 3.756808
C 138.274106 -0.001104 0.003737
C 139.067758 1.108719 0.809697
C 138.561032 1.933461 1.793591
C 139.597931 2.822160 2.176830
C 140.707372 2.507358 1.420586
N 140.396421 1.416583 0.647786
C 142.096998 3.267470 1.429230
C 143.231806 2.613629 1.065578
C 144.518737 3.274944 0.999639
C 145.426699 2.386658 0.609960
N 143.439837 1.314975 0.690650
C 144.764345 1.113722 0.407473
C 145.428143 -0.001104 0.003737
C 144.634507 -1.357027 -0.203142
C 145.141274 -2.635238 -0.083181
C 144.104372 -3.536736 -0.435259
C 142.994890 -2.781259 -0.751747
C 141.605237 -3.327981 -1.279820
C 141.614364 -4.606200 -2.029648
C 142.092425 -4.646454 -3.344533
C 142.117430 -5.851446 -4.049553
C 141.666642 -7.024368 -3.442526
C 141.191699 -6.993864 -2.130842
C 141.167642 -5.788816 -1.426247
C 140.470439 -2.607281 -1.078907
C 139.183502 -3.031317 -1.590645
C 138.275544 -2.125584 -1.243443
C 138.937904 -1.077839 -0.492725
N 140.262416 -1.420021 -0.432781
N 143.305825 -1.462210 -0.534630
C 142.087752 4.703739 1.794234
C 141.609489 5.656455 0.887213
C 141.584169 7.009124 1.232652
C 142.034846 7.416898 2.488856
C 142.510019 6.473377 3.400441
C 142.534395 5.120962 3.054659
H 137.552600 1.915269 2.177972
H 139.537326 3.615800 2.906300
H 141.057525 0.893973 0.080453
H 144.713375 4.310023 1.216748
H 146.471141 2.597451 0.470247
H 146.149734 -2.892484 0.202911
H 144.165003 -4.613982 -0.474346
H 142.442740 -3.727230 -3.809048
H 142.489173 -5.867059 -5.069078
H 141.685423 -7.960542 -3.991274
H 140.838718 -7.901561 -1.652149
H 140.798141 -5.752802 -0.403587
H 138.988859 -3.920153 -2.163790
H 137.231101 -2.177309 -1.490982
H 142.644700 -0.691719 -0.570727
H 141.259221 5.328995 -0.089289
H 141.212241 7.736726 0.518420
H 142.015783 8.468509 2.756534
H 142.862897 6.782677 4.378945
H 142.904031 4.376640 3.756808
C 151.474042 -0.001104 0.003737
C 152.267694 1.108719 0.809697
C 151.760968 1.933461 1.793591
C 152.797866 2.822160 2.176830
C 153.907308 2.507358 1.420586
N 153.596356 1.416583 0.647786
C 155.296934 3.267470 1.429230
C 156.431742 2.613629 1.065578
C 157.718673 3.274944 0.999639
C 158.626635 2.386658 0.609960
N 156.639773 1.314975 0.690650
C 157.964281 1.113722 0.407473
C 158.628079 -0.001104 0.003737
C 157.834443 -1.357027 -0.203142
C 158.341210 -2.635238 -0.083181
C 157.304308 -3.536736 -0.435259
C 156.194825 -2.781259 -0.751747
C 154.805173 -3.327981 -1.279820
C 154.814299 -4.606200 -2.029648
C 155.292361 -4.646454 -3.344533
C 155.317366 -5.851446 -4.049553
C 154.866577 -7.024368 -3.442526
C 154.391635 -6.993864 -2.130842
C 154.367578 -5.788816 -1.426247
C 153.670375 -2.607281 -1.078907
C 152.383438 -3.031317 -1.590645
C 151.475480 -2.125584 -1.243443
C 152.137840 -1.077839 -0.492725
N 153.462352 -1.420021 -0.432781
N 156.505761 -1.462210 -0.534630
C 155.287688 4.703739 1.794234
C 154.809425 5.656455 0.887213
C 154.784105 7.009124 1.232652
C 155.234782 7.416898 2.488856
C 155.709954 6.473377 3.400441
C 155.734331 5.120962 3.054659
H 150.752536 1.915269 2.177972
H 152.737261 3.615800 2.906300
H 154.257460 0.893973 0.080453
H 157.913310 4.310023 1.216748
H 159.671077 2.597451 0.470247
H 159.349670 -2.892484 0.202911
H 157.364939 -4.613982 -0.474346
H 155.642676 -3.727230 -3.809048
H 155.689108 -5.867059 -5.069078
H 154.885359 -7.960542 -3.991274
H 154.038654 -7.901561 -1.652149
H 153.998076 -5.752802 -0.403587
H 152.188795 -3.920153 -2.163790
H 150.431037 -2.177309 -1.490982
H 155.844635 -0.691719 -0.570727
H 154.459157 5.328995 -0.089289
H 154.412177 7.736726 0.518420
H 155.215719 8.468509 2.756534
H 156.062833 6.782677 4.378945
H 156.103966 4.376640 3.756808
C 164.673978 -0.001104 0.003737
C 165.467629 1.108719 0.809697
C 164.960903 1.933461 1.793591
C 165.997802 2.822160 2.176830
C 167.107244 2.507358 1.420586
N 166.796292 1.416583 0.647786
C 168.496870 3.267470 1.429230
C 169.631678 2.613629 1.065578
C 170.918609 3.274944 0.999639
C 171.826571 2.386658 0.609960
N 169.839709 1.314975 0.690650
C 171.164217 1.113722 0.407473
C 171.828015 -0.001104 0.003737
C 171.034379 -1.357027 -0.203142
C 171.541146 -2.635238 -0.083181
C 170.504244 -3.536736 -0.435259
C 169.394761 -2.781259 -0.751747
C 168.005109 -3.327981 -1.279820
C 168.014235 -4.606200 -2.029648
C 168.492297 -4.646454 -3.344533
C 168.517302 -5.851446 -4.049553
C 168.066513 -7.024368 -3.442526
C 167.591571 -6.993864 -2.130842
C 167.567514 -5.788816 -1.426247
C 166.870311 -2.607281 -1.078907
C 165.583374 -3.031317 -1.590645
C 164.675415 -2.125584 -1.243443
C 165.337776 -1.077839 -0.492725
N 166.662288 -1.420021 -0.432781
N 169.705697 -1.462210 -0.534630
C 168.487624 4.703739 1.794234
C 168.009360 5.656455 0.887213
C 167.984041 7.009124 1.232652
C 168.434718 7.416898 2.488856
C 168.909890 6.473377 3.400441
C 168.934267 5.120962 3.054659
H 163.952472 1.915269 2.177972
H 165.937197 3.615800 2.906300
H 167.457396 0.893973 0.080453
H 171.113246 4.310023 1.216748
H 172.871012 2.597451 0.470247
H 172.549606 -2.892484 0.202911
H 170.564875 -4.613982 -0.474346
H 168.842612 -3.727230 -3.809048
H 168.889044 -5.867059 -5.069078
H 168.085295 -7.960542 -3.991274
H 167.238589 -7.901561 -1.652149
H 167.198012 -5.752802 -0.403587
H 165.388730 -3.920153 -2.163790
H 163.630973 -2.177309 -1.490982
H 169.044571 -0.691719 -0.570727
H 167.659093 5.328995 -0.089289
H 167.612113 7.736726 0.518420
H 168.415654 8.468509 2.756534
H 169.262769 6.782677 4.378945
H 169.303902 4.376640 3.756808
C 177.873913 -0.001104 0.003737
C 178.667565 1.108719 0.809697
C 178.160839 1.933461 1.793591
C 179.197738 2.822160 2.176830
C 180.307180 2.507358 1.420586
N 179.996228 1.416583 0.647786
C 181.696805 3.267470 1.429230
C 182.831614 2.613629 1.065578
C 184.118544 3.274944 0.999639
C 185.026506 2.386658 0.609960
N 183.039645 1.314975 0.690650
C 184.364153 1.113722 0.407473
C 185.027951 -0.001104 0.003737
C 184.234315 -1.357027 -0.203142
C 184.741081 -2.635238 -0.083181
C 183.704180 -3.536736 -0.435259
C 182.594697 -2.781259 -0.751747
C 181.205045 -3.327981 -1.279820
C 181.214171 -4.606200 -2.029648
C 181.692233 -4.646454 -3.344533
C 181.717238 -5.851446 -4.049553
C 181.266449 -7.024368 -3.442526
C 180.791507 -6.993864 -2.130842
C 180.767450 -5.788816 -1.426247
C 180.070247 -2.607281 -1.078907
C 178.783309 -3.031317 -1.590645
C 177.875351 -2.125584 -1.243443
C 178.537712 -1.077839 -0.492725
N 179.862223 -1.420021 -0.432781
N 182.905632 -1.462210 -0.534630
C 181.687559 4.703739 1.794234
C 181.209296 5.656455 0.887213
C 181.183977 7.009124 1.232652
C 181.634654 7.416898 2.488856
C 182.109826 6.473377 3.400441
C 182.134203 5.120962 3.054659
H 177.152408 1.915269 2.177972
H 179.137133 3.615800 2.906300
H 180.657332 0.893973 0.080453
H 184.313182 4.310023 1.216748
H 186.070948 2.597451 0.470247
H 185.749542 -2.892484 0.202911
H 183.764811 -4.613982 -0.474346
H 182.042547 -3.727230 -3.809048
H 182.088980 -5.867059 -5.069078
H 181.285231 -7.960542 -3.991274
H 180.438525 -7.901561 -1.652149
H 180.397948 -5.752802 -0.403587
H 178.588666 -3.920153 -2.163790
H 176.830909 -2.177309 -1.490982
H 182.244507 -0.691719 -0.570727
H 180.859029 5.328995 -0.089289
H 180.812048 7.736726 0.518420
H 181.615590 8.468509 2.756534
H 182.462705 6.782677 4.378945
H 182.503838 4.376640 3.756808
C 191.073849 -0.001104 0.003737
C 191.867501 1.108719 0.809697
C 191.360775 1.933461 1.793591
C 192.397674 2.822160 2.176830
C 193.507115 2.507358 1.420586
N 193.196164 1.416583 0.647786
C 194.896741 3.267470 1.429230
C 196.031549 2.613629 1.065578
C 197.318480 3.274944 0.999639
C 198.226442 2.386658 0.609960
N 196.239580 1.314975 0.690650
C 197.564089 1.113722 0.407473
C 198.227887 -0.001104 0.003737
C 197.434251 -1.357027 -0.203142
C 197.941017 -2.635238 -0.083181
C 196.904115 -3.536736 -0.435259
C 195.794633 -2.781259 -0.751747
C 194.404981 -3.327981 -1.279820
C 194.414107 -4.606200 -2.029648
C 194.892169 -4.646454 -3.344533
C 194.917173 -5.851446 -4.049553
C 194.466385 -7.024368 -3.442526
C 193.991443 -6.993864 -2.130842
C 193.967385 -5.788816 -1.426247
C 193.270183 -2.607281 -1.078907
C 191.983245 -3.031317 -1.590645
C 191.075287 -2.125584 -1.243443
C 191.737647 -1.077839 -0.492725
N 193.062159 -1.420021 -0.432781
N 196.105568 -1.462210 -0.534630
C 194.887495 4.703739 1.794234
C 194.409232 5.656455 0.887213
C 194.383912 7.009124 1.232652
C 194.834589 7.416898 2.488856
C 195.309762 6.473377 3.400441
C 195.334138 5.120962 3.054659
H 190.352343 1.915269 2.177972
H 192.337069 3.615800 2.906300
H 193.857268 0.893973 0.080453
H 197.513118 4.310023 1.216748
H 199.270884 2.597451 0.470247
H 198.949477 -2.892484 0.202911
H 196.964746 -4.613982 -0.474346
H 195.242483 -3.727230 -3.809048
H 195.288916 -5.867059 -5.069078
H 194.485167 -7.960542 -3.991274
H 193.638461 -7.901561 -1.652149
H 193.597884 -5.752802 -0.403587
H 191.788602 -3.920153 -2.163790
H 190.030845 -2.177309 -1.490982
H 195.444443 -0.691719 -0.570727
H 194.058965 5.328995 -0.089289
H 194.011984 7.736726 0.518420
H 194.815526 8.468509 2.756534
H 195.662640 6.782677 4.378945
H 195.703774 4.376640 3.756808
C 204.273785 -0.001104 0.003737
C 205.067437 1.108719 0.809697
C 204.560711 1.933461 1.793591
C 205.597610 2.822160 2.176830
C 206.707051 2.507358 1.420586
N 206.396099 1.416583 0.647786
C 208.096677 3.267470 1.429230
C 209.231485 2.613629 1.065578
C 210.518416 3.274944 0.999639
C 211.426378 2.386658 0.609960
N 209.439516 1.314975 0.690650
C 210.764024 1.113722 0.407473
C 211.427822 -0.001104 0.003737
C 210.634186 -1.357027 -0.203142
C 211.140953 -2.635238 -0.083181
C 210.104051 -3.536736 -0.435259
C 208.994569 -2.781259 -0.751747
C 207.604916 -3.327981 -1.279820
C 207.614043 -4.606200 -2.029648
C 208.092104 -4.646454 -3.344533
C 208.117109 -5.851446 -4.049553
C 207.666321 -7.024368 -3.442526
C 207.191378 -6.993864 -2.130842
C 207.167321 -5.788816 -1.426247
C 206.470118 -2.607281 -1.078907
C 205.183181 -3.031317 -1.590645
C 204.275223 -2.125584 -1.243443
C 204.937583 -1.077839 -0.492725
N 206.262095 -1.420021 -0.432781
N 209.305504 -1.462210 -0.534630
C 208.087431 4.703739 1.794234
C 207.609168 5.656455 0.887213
C 207.583848 7.009124 1.232652
C 208.034525 7.416898 2.488856
C 208.509698 6.473377 3.400441
C 208.534074 5.120962 3.054659
H 203.552279 1.915269 2.177972
H 205.537005 3.615800 2.906300
H 207.057204 0.893973 0.080453
H 210.713054 4.310023 1.216748
H 212.470820 2.597451 0.470247
H 212.149413 -2.892484 0.202911
H 210.164682 -4.613982 -0.474346
H 208.442419 -3.727230 -3.809048
H 208.488852 -5.867059 -5.069078
H 207.685102 -7.960542 -3.991274
H 206.838397 -7.901561 -1.652149
H 206.797820 -5.752802 -0.403587
H 204.988538 -3.920153 -2.163790
H 203.230780 -2.177309 -1.490982
H 208.644379 -0.691719 -0.570727
H 207.258900 5.328995 -0.089289
H 207.211920 7.736726 0.518420
H 208.015462 8.468509 2.756534
H 208.862576 6.782677 4.378945
H 208.903710 4.376640 3.756808
