600

C 154.727283 -0.040715 0.081320
C 155.455503 1.335249 0.160072
C 154.848195 2.556910 0.338440
C 155.870814 3.539744 0.291368
C 157.068284 2.883987 0.076292
N 156.807539 1.536720 0.044927
C 158.491125 3.552789 -0.126658
C 158.530523 5.018765 -0.330388
C 158.834872 5.870073 0.738874
C 158.863805 7.253777 0.551847
C 158.587304 7.793602 -0.708807
C 158.618098 9.213357 -0.904696
N 158.641823 10.362841 -1.068983
C 158.280608 6.946194 -1.779280
C 158.252384 5.562222 -1.588593
C 159.621398 2.796305 -0.150141
C 160.924491 3.377199 -0.402228
C 161.827918 2.404580 -0.386068
N 159.819516 1.450809 0.017639
C 161.151478 1.151859 -0.111576
C 161.822843 -0.027794 -0.026255
C 161.049697 -1.375790 0.300668
C 161.603397 -2.527216 0.827873
C 160.576083 -3.500373 0.900484
C 159.422389 -2.914283 0.424922
N 159.707832 -1.605698 0.118449
C 158.009309 -3.617130 0.270404
C 157.976929 -5.092908 0.183662
C 157.634569 -5.863519 1.301945
C 157.613169 -7.256694 1.216591
C 157.938444 -7.888062 0.010948
C 157.914780 -9.318364 -0.079269
N 157.896586 -10.477353 -0.152989
C 158.285098 -7.121482 -1.107684
C 158.303446 -5.728446 -1.019493
C 156.881964 -2.864629 0.186047
C 155.558566 -3.443266 0.030558
C 154.671238 -2.453084 -0.006854
C 155.393537 -1.210327 0.106353
N 156.715934 -1.508045 0.215820
H 153.648437 -0.039270 -0.019699
H 153.790234 2.722838 0.471491
H 155.742540 4.607861 0.380223
H 157.506940 0.804110 -0.045495
H 159.053389 5.436246 1.713450
H 159.103623 7.895795 1.394970
H 158.064879 7.346327 -2.765620
H 158.016993 4.893057 -2.413018
H 161.137422 4.414767 -0.587919
H 162.880443 2.547156 -0.549928
H 162.636509 -2.661296 1.110673
H 160.674349 -4.517925 1.242706
H 159.019928 -0.910096 -0.161101
H 157.380097 -5.359783 2.232258
H 157.341784 -7.835558 2.095121
H 158.543312 -7.592700 -2.052486
H 158.567065 -5.120073 -1.883832
H 155.327031 -4.490122 -0.042316
H 153.605950 -2.552982 -0.114075
C 257.621694 0.014491 0.073501
C 256.893475 -1.285489 0.531247
C 257.500783 -2.409571 1.041843
C 256.478163 -3.366822 1.269546
C 255.280693 -2.796580 0.880831
N 255.541438 -1.511010 0.476577
C 253.857852 -3.495437 0.871582
C 253.818455 -4.960330 1.082952
C 253.514105 -5.481234 2.346560
C 253.485173 -6.862453 2.551130
C 253.761673 -7.731118 1.489960
C 253.730879 -9.149432 1.696026
N 253.707154 -10.299328 1.857400
C 254.068369 -7.214297 0.226271
C 254.096593 -5.831805 0.025143
C 252.727579 -2.775225 0.638955
C 251.424486 -3.403275 0.558091
C 250.521059 -2.464421 0.303528
N 252.529461 -1.436055 0.426506
C 251.197499 -1.184745 0.219357
C 250.526134 -0.027794 -0.026255
C 251.299280 1.357970 -0.086514
C 250.745580 2.610511 0.100216
C 251.772894 3.565557 -0.100264
C 252.926588 2.870459 -0.394371
N 252.641145 1.528236 -0.325410
C 254.339668 3.502756 -0.737986
C 254.372048 4.896405 -1.231124
C 254.714408 5.947244 -0.370813
C 254.735808 7.261925 -0.839682
C 254.410533 7.533667 -2.173232
C 254.434197 8.882663 -2.657081
N 254.452391 9.975600 -3.049742
C 254.063879 6.486603 -3.034998
C 254.045531 5.172844 -2.563443
C 255.467014 2.756425 -0.610063
C 256.790411 3.269126 -0.920118
C 257.677739 2.307499 -0.681096
C 256.955440 1.145055 -0.227240
N 255.633043 1.461462 -0.204751
H 258.700540 -0.014949 -0.023144
H 258.558743 -2.532026 1.215738
H 256.606438 -4.368258 1.651511
H 254.842038 -0.832322 0.186273
H 253.295588 -4.793839 3.162338
H 253.245355 -7.245094 3.539374
H 254.284099 -7.872590 -0.610164
H 254.331984 -5.417891 -0.952678
H 251.211555 -4.451600 0.667825
H 249.468534 -2.646892 0.185705
H 249.712469 2.817848 0.334661
H 251.674629 4.638121 -0.054065
H 253.329049 0.782362 -0.400804
H 254.968880 5.721658 0.662793
H 255.007193 8.061982 -0.156448
H 253.805666 6.676926 -4.073494
H 253.781913 4.348380 -3.224849
H 257.021946 4.254574 -1.280827
H 258.743027 2.373694 -0.811841
C 163.638113 -0.027794 -0.026255
C 164.860030 -0.027794 -0.026255
C 174.119467 -0.027794 -0.026255
C 175.341385 -0.027794 -0.026255
C 184.600821 -0.027794 -0.026255
C 185.822739 -0.027794 -0.026255
C 195.082176 -0.027794 -0.026255
C 196.304093 -0.027794 -0.026255
C 205.563530 -0.027794 -0.026255
C 206.785447 -0.027794 -0.026255
C 216.044884 -0.027794 -0.026255
C 217.266802 -0.027794 -0.026255
C 226.526238 -0.027794 -0.026255
C 227.748156 -0.027794 -0.026255
C 237.007593 -0.027794 -0.026255
C 238.229510 -0.027794 -0.026255
C 247.488947 -0.027794 -0.026255
C 248.710864 -0.027794 -0.026255
C 165.910683 0.008147 0.007695
C 166.705917 1.159877 -0.734041
C 166.204751 2.380245 -1.138802
C 167.243313 3.055970 -1.829520
C 168.347091 2.229114 -1.819495
N 168.032687 1.113684 -1.084738
C 169.733921 2.502845 -2.530742
C 169.721788 3.348229 -3.745106
C 169.245126 2.829394 -4.954542
C 169.218506 3.626078 -6.101382
C 169.667730 4.950233 -6.042902
C 169.641653 5.769319 -7.218875
N 169.620364 6.435300 -8.170906
C 170.141836 5.474743 -4.835062
C 170.166201 4.675350 -3.690321
C 170.870297 1.930586 -2.054402
C 172.155717 2.101765 -2.700025
C 173.064799 1.421705 -2.009772
N 171.080136 1.119564 -0.974445
C 172.404312 0.782008 -0.890073
C 173.068637 0.008147 0.007695
C 172.273420 -0.665285 1.200664
C 172.774672 -0.998508 2.442432
C 171.736117 -1.648712 3.157230
C 170.632236 -1.686540 2.331320
N 170.946586 -1.017842 1.175063
C 169.245411 -2.380667 2.646011
C 169.257730 -3.544112 3.560221
C 169.736033 -4.781024 3.112545
C 169.762862 -5.879945 3.974101
C 169.312227 -5.745581 5.292233
C 169.338467 -6.872348 6.177782
N 169.359831 -7.784470 6.897431
C 168.836531 -4.509921 5.745703
C 168.811989 -3.413231 4.881554
C 168.109004 -1.938385 2.047087
C 166.823634 -2.573124 2.255343
C 165.914543 -1.923642 1.536261
C 166.574979 -0.842941 0.832638
N 167.899113 -0.907337 1.174741
H 165.199158 2.737357 -0.975626
H 167.185415 4.026654 -2.298220
H 168.690224 0.391243 -0.805887
H 168.897697 1.798261 -4.988607
H 168.845821 3.201586 -7.029879
H 170.495297 6.500386 -4.770608
H 170.534551 5.070714 -2.745220
H 172.351484 2.670876 -3.590866
H 174.108895 1.364228 -2.258207
H 173.780315 -0.815022 2.789354
H 171.794058 -2.060311 4.153481
H 170.288974 -0.781201 0.437816
H 170.084593 -4.874216 2.085451
H 170.136818 -6.831035 3.604259
H 168.481959 -4.386729 6.765576
H 168.442442 -2.447222 5.221374
H 166.627916 -3.429473 2.875155
H 164.870492 -2.175165 1.493157
C 176.392037 0.008147 0.007695
C 177.187271 1.159877 -0.734041
C 176.686105 2.380245 -1.138802
C 177.724667 3.055970 -1.829520
C 178.828445 2.229114 -1.819495
N 178.514041 1.113684 -1.084738
C 180.215275 2.502845 -2.530742
C 180.203142 3.348229 -3.745106
C 179.726481 2.829394 -4.954542
C 179.699860 3.626078 -6.101382
C 180.149084 4.950233 -6.042902
C 180.123007 5.769319 -7.218875
N 180.101718 6.435300 -8.170906
C 180.623190 5.474743 -4.835062
C 180.647555 4.675350 -3.690321
C 181.351652 1.930586 -2.054402
C 182.637072 2.101765 -2.700025
C 183.546153 1.421705 -2.009772
N 181.561490 1.119564 -0.974445
C 182.885666 0.782008 -0.890073
C 183.549991 0.008147 0.007695
C 182.754774 -0.665285 1.200664
C 183.256026 -0.998508 2.442432
C 182.217471 -1.648712 3.157230
C 181.113590 -1.686540 2.331320
N 181.427941 -1.017842 1.175063
C 179.726765 -2.380667 2.646011
C 179.739084 -3.544112 3.560221
C 180.217387 -4.781024 3.112545
C 180.244216 -5.879945 3.974101
C 179.793581 -5.745581 5.292233
C 179.819821 -6.872348 6.177782
N 179.841185 -7.784470 6.897431
C 179.317885 -4.509921 5.745703
C 179.293343 -3.413231 4.881554
C 178.590358 -1.938385 2.047087
C 177.304988 -2.573124 2.255343
C 176.395897 -1.923642 1.536261
C 177.056334 -0.842941 0.832638
N 178.380467 -0.907337 1.174741
H 175.680512 2.737357 -0.975626
H 177.666769 4.026654 -2.298220
H 179.171578 0.391243 -0.805887
H 179.379051 1.798261 -4.988607
H 179.327175 3.201586 -7.029879
H 180.976651 6.500386 -4.770608
H 181.015906 5.070714 -2.745220
H 182.832838 2.670876 -3.590866
H 184.590249 1.364228 -2.258207
H 184.261669 -0.815022 2.789354
H 182.275412 -2.060311 4.153481
H 180.770328 -0.781201 0.437816
H 180.565947 -4.874216 2.085451
H 180.618173 -6.831035 3.604259
H 178.963313 -4.386729 6.765576
H 178.923796 -2.447222 5.221374
H 177.109270 -3.429473 2.875155
H 175.351846 -2.175165 1.493157
C 186.873391 0.008147 0.007695
C 187.668625 1.159877 -0.734041
C 187.167460 2.380245 -1.138802
C 188.206021 3.055970 -1.829520
C 189.309800 2.229114 -1.819495
N 188.995396 1.113684 -1.084738
C 190.696629 2.502845 -2.530742
C 190.684496 3.348229 -3.745106
C 190.207835 2.829394 -4.954542
C 190.181214 3.626078 -6.101382
C 190.630438 4.950233 -6.042902
C 190.604361 5.769319 -7.218875
N 190.583072 6.435300 -8.170906
C 191.104544 5.474743 -4.835062
C 191.128909 4.675350 -3.690321
C 191.833006 1.930586 -2.054402
C 193.118426 2.101765 -2.700025
C 194.027507 1.421705 -2.009772
N 192.042844 1.119564 -0.974445
C 193.367020 0.782008 -0.890073
C 194.031346 0.008147 0.007695
C 193.236129 -0.665285 1.200664
C 193.737381 -0.998508 2.442432
C 192.698825 -1.648712 3.157230
C 191.594944 -1.686540 2.331320
N 191.909295 -1.017842 1.175063
C 190.208119 -2.380667 2.646011
C 190.220438 -3.544112 3.560221
C 190.698742 -4.781024 3.112545
C 190.725571 -5.879945 3.974101
C 190.274935 -5.745581 5.292233
C 190.301175 -6.872348 6.177782
N 190.322539 -7.784470 6.897431
C 189.799240 -4.509921 5.745703
C 189.774697 -3.413231 4.881554
C 189.071712 -1.938385 2.047087
C 187.786342 -2.573124 2.255343
C 186.877252 -1.923642 1.536261
C 187.537688 -0.842941 0.832638
N 188.861821 -0.907337 1.174741
H 186.161866 2.737357 -0.975626
H 188.148124 4.026654 -2.298220
H 189.652932 0.391243 -0.805887
H 189.860405 1.798261 -4.988607
H 189.808529 3.201586 -7.029879
H 191.458005 6.500386 -4.770608
H 191.497260 5.070714 -2.745220
H 193.314192 2.670876 -3.590866
H 195.071604 1.364228 -2.258207
H 194.743023 -0.815022 2.789354
H 192.756766 -2.060311 4.153481
H 191.251682 -0.781201 0.437816
H 191.047301 -4.874216 2.085451
H 191.099527 -6.831035 3.604259
H 189.444667 -4.386729 6.765576
H 189.405150 -2.447222 5.221374
H 187.590624 -3.429473 2.875155
H 185.833200 -2.175165 1.493157
C 197.354745 0.008147 0.007695
C 198.149979 1.159877 -0.734041
C 197.648814 2.380245 -1.138802
C 198.687375 3.055970 -1.829520
C 199.791154 2.229114 -1.819495
N 199.476750 1.113684 -1.084738
C 201.177983 2.502845 -2.530742
C 201.165851 3.348229 -3.745106
C 200.689189 2.829394 -4.954542
C 200.662569 3.626078 -6.101382
C 201.111793 4.950233 -6.042902
C 201.085715 5.769319 -7.218875
N 201.064427 6.435300 -8.170906
C 201.585899 5.474743 -4.835062
C 201.610264 4.675350 -3.690321
C 202.314360 1.930586 -2.054402
C 203.599780 2.101765 -2.700025
C 204.508862 1.421705 -2.009772
N 202.524199 1.119564 -0.974445
C 203.848375 0.782008 -0.890073
C 204.512700 0.008147 0.007695
C 203.717483 -0.665285 1.200664
C 204.218735 -0.998508 2.442432
C 203.180180 -1.648712 3.157230
C 202.076299 -1.686540 2.331320
N 202.390649 -1.017842 1.175063
C 200.689474 -2.380667 2.646011
C 200.701792 -3.544112 3.560221
C 201.180096 -4.781024 3.112545
C 201.206925 -5.879945 3.974101
C 200.756289 -5.745581 5.292233
C 200.782529 -6.872348 6.177782
N 200.803893 -7.784470 6.897431
C 200.280594 -4.509921 5.745703
C 200.256051 -3.413231 4.881554
C 199.553067 -1.938385 2.047087
C 198.267696 -2.573124 2.255343
C 197.358606 -1.923642 1.536261
C 198.019042 -0.842941 0.832638
N 199.343175 -0.907337 1.174741
H 196.643220 2.737357 -0.975626
H 198.629478 4.026654 -2.298220
H 200.134287 0.391243 -0.805887
H 200.341759 1.798261 -4.988607
H 200.289884 3.201586 -7.029879
H 201.939360 6.500386 -4.770608
H 201.978614 5.070714 -2.745220
H 203.795547 2.670876 -3.590866
H 205.552958 1.364228 -2.258207
H 205.224377 -0.815022 2.789354
H 203.238121 -2.060311 4.153481
H 201.733036 -0.781201 0.437816
H 201.528656 -4.874216 2.085451
H 201.580881 -6.831035 3.604259
H 199.926021 -4.386729 6.765576
H 199.886505 -2.447222 5.221374
H 198.071978 -3.429473 2.875155
H 196.314554 -2.175165 1.493157
C 207.836100 0.008147 0.007695
C 208.631334 1.159877 -0.734041
C 208.130168 2.380245 -1.138802
C 209.168730 3.055970 -1.829520
C 210.272508 2.229114 -1.819495
N 209.958104 1.113684 -1.084738
C 211.659338 2.502845 -2.530742
C 211.647205 3.348229 -3.745106
C 211.170543 2.829394 -4.954542
C 211.143923 3.626078 -6.101382
C 211.593147 4.950233 -6.042902
C 211.567070 5.769319 -7.218875
N 211.545781 6.435300 -8.170906
C 212.067253 5.474743 -4.835062
C 212.091618 4.675350 -3.690321
C 212.795714 1.930586 -2.054402
C 214.081134 2.101765 -2.700025
C 214.990216 1.421705 -2.009772
N 213.005553 1.119564 -0.974445
C 214.329729 0.782008 -0.890073
C 214.994054 0.008147 0.007695
C 214.198837 -0.665285 1.200664
C 214.700089 -0.998508 2.442432
C 213.661534 -1.648712 3.157230
C 212.557653 -1.686540 2.331320
N 212.872003 -1.017842 1.175063
C 211.170828 -2.380667 2.646011
C 211.183147 -3.544112 3.560221
C 211.661450 -4.781024 3.112545
C 211.688279 -5.879945 3.974101
C 211.237644 -5.745581 5.292233
C 211.263884 -6.872348 6.177782
N 211.285248 -7.784470 6.897431
C 210.761948 -4.509921 5.745703
C 210.737406 -3.413231 4.881554
C 210.034421 -1.938385 2.047087
C 208.749051 -2.573124 2.255343
C 207.839960 -1.923642 1.536261
C 208.500396 -0.842941 0.832638
N 209.824530 -0.907337 1.174741
H 207.124575 2.737357 -0.975626
H 209.110832 4.026654 -2.298220
H 210.615641 0.391243 -0.805887
H 210.823114 1.798261 -4.988607
H 210.771238 3.201586 -7.029879
H 212.420714 6.500386 -4.770608
H 212.459968 5.070714 -2.745220
H 214.276901 2.670876 -3.590866
H 216.034312 1.364228 -2.258207
H 215.705732 -0.815022 2.789354
H 213.719475 -2.060311 4.153481
H 212.214391 -0.781201 0.437816
H 212.010010 -4.874216 2.085451
H 212.062235 -6.831035 3.604259
H 210.407376 -4.386729 6.765576
H 210.367859 -2.447222 5.221374
H 208.553333 -3.429473 2.875155
H 206.795909 -2.175165 1.493157
C 218.317454 0.008147 0.007695
C 219.112688 1.159877 -0.734041
C 218.611522 2.380245 -1.138802
C 219.650084 3.055970 -1.829520
C 220.753862 2.229114 -1.819495
N 220.439458 1.113684 -1.084738
C 222.140692 2.502845 -2.530742
C 222.128559 3.348229 -3.745106
C 221.651898 2.829394 -4.954542
C 221.625277 3.626078 -6.101382
C 222.074501 4.950233 -6.042902
C 222.048424 5.769319 -7.218875
N 222.027135 6.435300 -8.170906
C 222.548607 5.474743 -4.835062
C 222.572972 4.675350 -3.690321
C 223.277069 1.930586 -2.054402
C 224.562489 2.101765 -2.700025
C 225.471570 1.421705 -2.009772
N 223.486907 1.119564 -0.974445
C 224.811083 0.782008 -0.890073
C 225.475408 0.008147 0.007695
C 224.680191 -0.665285 1.200664
C 225.181443 -0.998508 2.442432
C 224.142888 -1.648712 3.157230
C 223.039007 -1.686540 2.331320
N 223.353358 -1.017842 1.175063
C 221.652182 -2.380667 2.646011
C 221.664501 -3.544112 3.560221
C 222.142804 -4.781024 3.112545
C 222.169633 -5.879945 3.974101
C 221.718998 -5.745581 5.292233
C 221.745238 -6.872348 6.177782
N 221.766602 -7.784470 6.897431
C 221.243302 -4.509921 5.745703
C 221.218760 -3.413231 4.881554
C 220.515775 -1.938385 2.047087
C 219.230405 -2.573124 2.255343
C 218.321314 -1.923642 1.536261
C 218.981751 -0.842941 0.832638
N 220.305884 -0.907337 1.174741
H 217.605929 2.737357 -0.975626
H 219.592186 4.026654 -2.298220
H 221.096995 0.391243 -0.805887
H 221.304468 1.798261 -4.988607
H 221.252592 3.201586 -7.029879
H 222.902068 6.500386 -4.770608
H 222.941323 5.070714 -2.745220
H 224.758255 2.670876 -3.590866
H 226.515666 1.364228 -2.258207
H 226.187086 -0.815022 2.789354
H 224.200829 -2.060311 4.153481
H 222.695745 -0.781201 0.437816
H 222.491364 -4.874216 2.085451
H 222.543590 -6.831035 3.604259
H 220.888730 -4.386729 6.765576
H 220.849213 -2.447222 5.221374
H 219.034687 -3.429473 2.875155
H 217.277263 -2.175165 1.493157
C 228.798808 0.008147 0.007695
C 229.594042 1.159877 -0.734041
C 229.092877 2.380245 -1.138802
C 230.131438 3.055970 -1.829520
C 231.235217 2.229114 -1.819495
N 230.920813 1.113684 -1.084738
C 232.622046 2.502845 -2.530742
C 232.609913 3.348229 -3.745106
C 232.133252 2.829394 -4.954542
C 232.106631 3.626078 -6.101382
C 232.555855 4.950233 -6.042902
C 232.529778 5.769319 -7.218875
N 232.508489 6.435300 -8.170906
C 233.029961 5.474743 -4.835062
C 233.054326 4.675350 -3.690321
C 233.758423 1.930586 -2.054402
C 235.043843 2.101765 -2.700025
C 235.952924 1.421705 -2.009772
N 233.968261 1.119564 -0.974445
C 235.292437 0.782008 -0.890073
C 235.956763 0.008147 0.007695
C 235.161546 -0.665285 1.200664
C 235.662798 -0.998508 2.442432
C 234.624242 -1.648712 3.157230
C 233.520361 -1.686540 2.331320
N 233.834712 -1.017842 1.175063
C 232.133536 -2.380667 2.646011
C 232.145855 -3.544112 3.560221
C 232.624159 -4.781024 3.112545
C 232.650988 -5.879945 3.974101
C 232.200352 -5.745581 5.292233
C 232.226592 -6.872348 6.177782
N 232.247956 -7.784470 6.897431
C 231.724657 -4.509921 5.745703
C 231.700114 -3.413231 4.881554
C 230.997129 -1.938385 2.047087
C 229.711759 -2.573124 2.255343
C 228.802669 -1.923642 1.536261
C 229.463105 -0.842941 0.832638
N 230.787238 -0.907337 1.174741
H 228.087283 2.737357 -0.975626
H 230.073541 4.026654 -2.298220
H 231.578349 0.391243 -0.805887
H 231.785822 1.798261 -4.988607
H 231.733946 3.201586 -7.029879
H 233.383422 6.500386 -4.770608
H 233.422677 5.070714 -2.745220
H 235.239609 2.670876 -3.590866
H 236.997021 1.364228 -2.258207
H 236.668440 -0.815022 2.789354
H 234.682183 -2.060311 4.153481
H 233.177099 -0.781201 0.437816
H 232.972718 -4.874216 2.085451
H 233.024944 -6.831035 3.604259
H 231.370084 -4.386729 6.765576
H 231.330567 -2.447222 5.221374
H 229.516041 -3.429473 2.875155
H 227.758617 -2.175165 1.493157
C 239.280162 0.008147 0.007695
C 240.075396 1.159877 -0.734041
C 239.574231 2.380245 -1.138802
C 240.612792 3.055970 -1.829520
C 241.716571 2.229114 -1.819495
N 241.402167 1.113684 -1.084738
C 243.103400 2.502845 -2.530742
C 243.091268 3.348229 -3.745106
C 242.614606 2.829394 -4.954542
C 242.587986 3.626078 -6.101382
C 243.037210 4.950233 -6.042902
C 243.011132 5.769319 -7.218875
N 242.989844 6.435300 -8.170906
C 243.511316 5.474743 -4.835062
C 243.535681 4.675350 -3.690321
C 244.239777 1.930586 -2.054402
C 245.525197 2.101765 -2.700025
C 246.434279 1.421705 -2.009772
N 244.449616 1.119564 -0.974445
C 245.773792 0.782008 -0.890073
C 246.438117 0.008147 0.007695
C 245.642900 -0.665285 1.200664
C 246.144152 -0.998508 2.442432
C 245.105597 -1.648712 3.157230
C 244.001716 -1.686540 2.331320
N 244.316066 -1.017842 1.175063
C 242.614891 -2.380667 2.646011
C 242.627209 -3.544112 3.560221
C 243.105513 -4.781024 3.112545
C 243.132342 -5.879945 3.974101
C 242.681706 -5.745581 5.292233
C 242.707946 -6.872348 6.177782
N 242.729310 -7.784470 6.897431
C 242.206011 -4.509921 5.745703
C 242.181468 -3.413231 4.881554
C 241.478484 -1.938385 2.047087
C 240.193113 -2.573124 2.255343
C 239.284023 -1.923642 1.536261
C 239.944459 -0.842941 0.832638
N 241.268592 -0.907337 1.174741
H 238.568637 2.737357 -0.975626
H 240.554895 4.026654 -2.298220
H 242.059704 0.391243 -0.805887
H 242.267176 1.798261 -4.988607
H 242.215301 3.201586 -7.029879
H 243.864777 6.500386 -4.770608
H 243.904031 5.070714 -2.745220
H 245.720964 2.670876 -3.590866
H 247.478375 1.364228 -2.258207
H 247.149794 -0.815022 2.789354
H 245.163538 -2.060311 4.153481
H 243.658453 -0.781201 0.437816
H 243.454073 -4.874216 2.085451
H 243.506298 -6.831035 3.604259
H 241.851438 -4.386729 6.765576
H 241.811922 -2.447222 5.221374
H 239.997395 -3.429473 2.875155
H 238.239971 -2.175165 1.493157
