 xtb: 6.5.1 (b24c23e)
          07302206053D

185214  0     0  0            999 V2000
   25.2594    0.3366    0.2067 Cu  0  0  0  0  0  0  0  0  0  0  0  0
   21.8572    0.2116    0.1187 C   0  0  0  0  0  0  0  0  0  0  0  0
   22.5273   -1.0024    0.0907 C   0  0  0  0  0  0  0  0  0  0  0  0
   21.8883   -2.2867    0.0697 C   0  0  0  0  0  0  0  0  0  0  0  0
   22.8743   -3.2179    0.0476 C   0  0  0  0  0  0  0  0  0  0  0  0
   24.1256   -2.5102    0.0431 C   0  0  0  0  0  0  0  0  0  0  0  0
   23.8831   -1.1666    0.0772 N   0  0  0  0  0  0  0  0  0  0  0  0
   25.3877   -3.1087    0.0262 C   0  0  0  0  0  0  0  0  0  0  0  0
   25.4488   -4.5892   -0.0600 C   0  0  0  0  0  0  0  0  0  0  0  0
   24.9619   -5.2539   -1.1182 C   0  0  0  0  0  0  0  0  0  0  0  0
   25.0003   -6.7567   -1.2187 C   0  0  0  0  0  0  0  0  0  0  0  0
   25.9379   -7.3298   -0.2492 N   0  0  0  0  0  0  0  0  0  0  0  0
   26.2548   -6.6529    0.8999 C   0  0  0  0  0  0  0  0  0  0  0  0
   26.0723   -5.3270    1.0295 C   0  0  0  0  0  0  0  0  0  0  0  0
   26.6002   -2.4185    0.0864 C   0  0  0  0  0  0  0  0  0  0  0  0
   27.8962   -3.0317    0.0198 C   0  0  0  0  0  0  0  0  0  0  0  0
   28.8138   -2.0348    0.0980 C   0  0  0  0  0  0  0  0  0  0  0  0
   26.7492   -1.0609    0.1938 N   0  0  0  0  0  0  0  0  0  0  0  0
   28.0862   -0.8060    0.2049 C   0  0  0  0  0  0  0  0  0  0  0  0
   28.6843    0.4621    0.3052 C   0  0  0  0  0  0  0  0  0  0  0  0
   27.9899    1.6828    0.3651 C   0  0  0  0  0  0  0  0  0  0  0  0
   28.6187    2.9619    0.5039 C   0  0  0  0  0  0  0  0  0  0  0  0
   27.6281    3.8894    0.5187 C   0  0  0  0  0  0  0  0  0  0  0  0
   26.3861    3.1827    0.3834 C   0  0  0  0  0  0  0  0  0  0  0  0
   26.6395    1.8392    0.2970 N   0  0  0  0  0  0  0  0  0  0  0  0
   25.1253    3.7829    0.3695 C   0  0  0  0  0  0  0  0  0  0  0  0
   25.0746    5.2646    0.4374 C   0  0  0  0  0  0  0  0  0  0  0  0
   24.4818    5.9050    1.4559 C   0  0  0  0  0  0  0  0  0  0  0  0
   24.4051    7.4078    1.5323 C   0  0  0  0  0  0  0  0  0  0  0  0
   25.3576    8.0350    0.6119 N   0  0  0  0  0  0  0  0  0  0  0  0
   25.7865    7.3697   -0.5075 C   0  0  0  0  0  0  0  0  0  0  0  0
   25.7051    6.0328   -0.6269 C   0  0  0  0  0  0  0  0  0  0  0  0
   23.9128    3.0934    0.2932 C   0  0  0  0  0  0  0  0  0  0  0  0
   22.6146    3.7069    0.2199 C   0  0  0  0  0  0  0  0  0  0  0  0
   21.7021    2.7055    0.1562 C   0  0  0  0  0  0  0  0  0  0  0  0
   22.4339    1.4717    0.1765 C   0  0  0  0  0  0  0  0  0  0  0  0
   23.7715    1.7355    0.2573 N   0  0  0  0  0  0  0  0  0  0  0  0
   20.7730    0.1716    0.0910 H   0  0  0  0  0  0  0  0  0  0  0  0
   20.8208   -2.4420    0.0816 H   0  0  0  0  0  0  0  0  0  0  0  0
   22.7707   -4.2911    0.0470 H   0  0  0  0  0  0  0  0  0  0  0  0
   24.4997   -4.7391   -1.9525 H   0  0  0  0  0  0  0  0  0  0  0  0
   25.3238   -7.0605   -2.2236 H   0  0  0  0  0  0  0  0  0  0  0  0
   23.9887   -7.1758   -1.0613 H   0  0  0  0  0  0  0  0  0  0  0  0
   25.8833   -8.3352   -0.1741 H   0  0  0  0  0  0  0  0  0  0  0  0
   26.7404   -7.2541    1.6621 H   0  0  0  0  0  0  0  0  0  0  0  0
   26.3751   -4.8010    1.9238 H   0  0  0  0  0  0  0  0  0  0  0  0
   28.0761   -4.0896   -0.0832 H   0  0  0  0  0  0  0  0  0  0  0  0
   29.8891   -2.1137    0.0782 H   0  0  0  0  0  0  0  0  0  0  0  0
   29.6824    3.1191    0.5854 H   0  0  0  0  0  0  0  0  0  0  0  0
   27.7243    4.9582    0.6220 H   0  0  0  0  0  0  0  0  0  0  0  0
   24.0116    5.3683    2.2717 H   0  0  0  0  0  0  0  0  0  0  0  0
   24.6427    7.7477    2.5494 H   0  0  0  0  0  0  0  0  0  0  0  0
   23.3776    7.7496    1.3058 H   0  0  0  0  0  0  0  0  0  0  0  0
   25.2363    9.0331    0.5180 H   0  0  0  0  0  0  0  0  0  0  0  0
   26.2720    7.9951   -1.2499 H   0  0  0  0  0  0  0  0  0  0  0  0
   26.0950    5.5196   -1.4944 H   0  0  0  0  0  0  0  0  0  0  0  0
   22.4324    4.7694    0.2070 H   0  0  0  0  0  0  0  0  0  0  0  0
   20.6280    2.7819    0.0898 H   0  0  0  0  0  0  0  0  0  0  0  0
   57.3148    0.2504    0.1901 Cu  0  0  0  0  0  0  0  0  0  0  0  0
   60.7190    0.3098    0.1246 C   0  0  0  0  0  0  0  0  0  0  0  0
   60.0782    1.5213    0.3381 C   0  0  0  0  0  0  0  0  0  0  0  0
   60.7471    2.7680    0.5760 C   0  0  0  0  0  0  0  0  0  0  0  0
   59.7834    3.7090    0.7353 C   0  0  0  0  0  0  0  0  0  0  0  0
   58.5160    3.0477    0.5830 C   0  0  0  0  0  0  0  0  0  0  0  0
   58.7269    1.7182    0.3525 N   0  0  0  0  0  0  0  0  0  0  0  0
   57.2681    3.6692    0.6706 C   0  0  0  0  0  0  0  0  0  0  0  0
   57.2400    5.1382    0.8796 C   0  0  0  0  0  0  0  0  0  0  0  0
   57.7625    5.9891   -0.0158 C   0  0  0  0  0  0  0  0  0  0  0  0
   57.7578    7.4820    0.1879 C   0  0  0  0  0  0  0  0  0  0  0  0
   56.8067    7.8720    1.2323 N   0  0  0  0  0  0  0  0  0  0  0  0
   56.4529    6.9874    2.2182 C   0  0  0  0  0  0  0  0  0  0  0  0
   56.6082    5.6586    2.0840 C   0  0  0  0  0  0  0  0  0  0  0  0
   56.0399    3.0106    0.5813 C   0  0  0  0  0  0  0  0  0  0  0  0
   54.7593    3.6578    0.6152 C   0  0  0  0  0  0  0  0  0  0  0  0
   53.8183    2.6867    0.5005 C   0  0  0  0  0  0  0  0  0  0  0  0
   55.8587    1.6608    0.4332 N   0  0  0  0  0  0  0  0  0  0  0  0
   54.5162    1.4411    0.3883 C   0  0  0  0  0  0  0  0  0  0  0  0
   53.8876    0.1892    0.2679 C   0  0  0  0  0  0  0  0  0  0  0  0
   54.5523   -1.0387    0.1087 C   0  0  0  0  0  0  0  0  0  0  0  0
   53.8938   -2.3070    0.0142 C   0  0  0  0  0  0  0  0  0  0  0  0
   54.8624   -3.2436   -0.1496 C   0  0  0  0  0  0  0  0  0  0  0  0
   56.1204   -2.5524   -0.1609 C   0  0  0  0  0  0  0  0  0  0  0  0
   55.8985   -1.2108    0.0041 N   0  0  0  0  0  0  0  0  0  0  0  0
   57.3672   -3.1671   -0.2962 C   0  0  0  0  0  0  0  0  0  0  0  0
   57.3856   -4.6368   -0.5024 C   0  0  0  0  0  0  0  0  0  0  0  0
   57.9689   -5.4645    0.3771 C   0  0  0  0  0  0  0  0  0  0  0  0
   58.0155   -6.9571    0.1779 C   0  0  0  0  0  0  0  0  0  0  0  0
   57.0567   -7.3870   -0.8436 N   0  0  0  0  0  0  0  0  0  0  0  0
   56.6353   -6.5184   -1.8166 C   0  0  0  0  0  0  0  0  0  0  0  0
   56.7373   -5.1839   -1.6858 C   0  0  0  0  0  0  0  0  0  0  0  0
   58.5952   -2.5024   -0.2526 C   0  0  0  0  0  0  0  0  0  0  0  0
   59.8783   -3.1200   -0.4508 C   0  0  0  0  0  0  0  0  0  0  0  0
   60.8143   -2.1462   -0.3272 C   0  0  0  0  0  0  0  0  0  0  0  0
   60.1122   -0.9228   -0.0653 C   0  0  0  0  0  0  0  0  0  0  0  0
   58.7686   -1.1662   -0.0301 N   0  0  0  0  0  0  0  0  0  0  0  0
   61.8040    0.3282    0.1044 H   0  0  0  0  0  0  0  0  0  0  0  0
   61.8178    2.8916    0.6236 H   0  0  0  0  0  0  0  0  0  0  0  0
   59.9119    4.7579    0.9492 H   0  0  0  0  0  0  0  0  0  0  0  0
   58.2309    5.6408   -0.9290 H   0  0  0  0  0  0  0  0  0  0  0  0
   57.4672    7.9898   -0.7418 H   0  0  0  0  0  0  0  0  0  0  0  0
   58.7733    7.8349    0.4486 H   0  0  0  0  0  0  0  0  0  0  0  0
   56.8790    8.8407    1.5080 H   0  0  0  0  0  0  0  0  0  0  0  0
   55.9618    7.4355    3.0761 H   0  0  0  0  0  0  0  0  0  0  0  0
   56.2764    4.9720    2.8499 H   0  0  0  0  0  0  0  0  0  0  0  0
   54.6049    4.7209    0.7056 H   0  0  0  0  0  0  0  0  0  0  0  0
   52.7456    2.7953    0.4851 H   0  0  0  0  0  0  0  0  0  0  0  0
   52.8267   -2.4516    0.0715 H   0  0  0  0  0  0  0  0  0  0  0  0
   54.7414   -4.3105   -0.2459 H   0  0  0  0  0  0  0  0  0  0  0  0
   58.4532   -5.0953    1.2738 H   0  0  0  0  0  0  0  0  0  0  0  0
   57.7658   -7.4720    1.1156 H   0  0  0  0  0  0  0  0  0  0  0  0
   59.0375   -7.2725   -0.1049 H   0  0  0  0  0  0  0  0  0  0  0  0
   57.1618   -8.3520   -1.1216 H   0  0  0  0  0  0  0  0  0  0  0  0
   56.1388   -6.9874   -2.6601 H   0  0  0  0  0  0  0  0  0  0  0  0
   56.3536   -4.5126   -2.4409 H   0  0  0  0  0  0  0  0  0  0  0  0
   60.0352   -4.1642   -0.6685 H   0  0  0  0  0  0  0  0  0  0  0  0
   61.8861   -2.2329   -0.4140 H   0  0  0  0  0  0  0  0  0  0  0  0
   33.8831    0.6363    0.4601 C   0  0  0  0  0  0  0  0  0  0  0  0
   32.6562    0.6001    0.4244 C   0  0  0  0  0  0  0  0  0  0  0  0
   31.3119    0.5563    0.3831 C   0  0  0  0  0  0  0  0  0  0  0  0
   30.0898    0.5138    0.3471 C   0  0  0  0  0  0  0  0  0  0  0  0
   35.2277    0.6656    0.4996 C   0  0  0  0  0  0  0  0  0  0  0  0
   36.4505    0.6872    0.5362 C   0  0  0  0  0  0  0  0  0  0  0  0
   49.9146    0.2202    0.4167 C   0  0  0  0  0  0  0  0  0  0  0  0
   48.6890    0.2753    0.4667 C   0  0  0  0  0  0  0  0  0  0  0  0
   47.3457    0.3420    0.5135 C   0  0  0  0  0  0  0  0  0  0  0  0
   46.1250    0.4149    0.5522 C   0  0  0  0  0  0  0  0  0  0  0  0
   51.2590    0.1899    0.3630 C   0  0  0  0  0  0  0  0  0  0  0  0
   52.4812    0.1719    0.3124 C   0  0  0  0  0  0  0  0  0  0  0  0
   41.2899    0.6393    0.6099 Cu  0  0  0  0  0  0  0  0  0  0  0  0
   37.8564    0.6921    0.5705 C   0  0  0  0  0  0  0  0  0  0  0  0
   38.5267    1.4676   -0.3925 C   0  0  0  0  0  0  0  0  0  0  0  0
   37.8733    2.3116   -1.3467 C   0  0  0  0  0  0  0  0  0  0  0  0
   38.8473    2.8856   -2.0984 C   0  0  0  0  0  0  0  0  0  0  0  0
   40.1022    2.3824   -1.6173 C   0  0  0  0  0  0  0  0  0  0  0  0
   39.8740    1.5298   -0.5695 N   0  0  0  0  0  0  0  0  0  0  0  0
   41.3528    2.7123   -2.1428 C   0  0  0  0  0  0  0  0  0  0  0  0
   41.3893    3.6126   -3.3220 C   0  0  0  0  0  0  0  0  0  0  0  0
   40.8270    3.2673   -4.4900 C   0  0  0  0  0  0  0  0  0  0  0  0
   40.8983    4.1447   -5.7120 C   0  0  0  0  0  0  0  0  0  0  0  0
   41.2735    5.5161   -5.3581 N   0  0  0  0  0  0  0  0  0  0  0  0
   41.9860    5.7736   -4.2159 C   0  0  0  0  0  0  0  0  0  0  0  0
   42.0531    4.9017   -3.1943 C   0  0  0  0  0  0  0  0  0  0  0  0
   42.5781    2.2547   -1.6529 C   0  0  0  0  0  0  0  0  0  0  0  0
   43.8527    2.5238   -2.2546 C   0  0  0  0  0  0  0  0  0  0  0  0
   44.7902    1.8960   -1.4996 C   0  0  0  0  0  0  0  0  0  0  0  0
   42.7579    1.4644   -0.5493 N   0  0  0  0  0  0  0  0  0  0  0  0
   44.0949    1.2388   -0.4341 C   0  0  0  0  0  0  0  0  0  0  0  0
   44.7210    0.4944    0.5813 C   0  0  0  0  0  0  0  0  0  0  0  0
   44.0536   -0.1697    1.6259 C   0  0  0  0  0  0  0  0  0  0  0  0
   44.7118   -0.8443    2.7034 C   0  0  0  0  0  0  0  0  0  0  0  0
   43.7398   -1.3507    3.5047 C   0  0  0  0  0  0  0  0  0  0  0  0
   42.4803   -1.0026    2.9114 C   0  0  0  0  0  0  0  0  0  0  0  0
   42.7050   -0.2718    1.7747 N   0  0  0  0  0  0  0  0  0  0  0  0
   41.2287   -1.3597    3.4175 C   0  0  0  0  0  0  0  0  0  0  0  0
   41.1919   -2.2110    4.6326 C   0  0  0  0  0  0  0  0  0  0  0  0
   41.7186   -3.4444    4.6475 C   0  0  0  0  0  0  0  0  0  0  0  0
   41.6998   -4.3182    5.8746 C   0  0  0  0  0  0  0  0  0  0  0  0
   40.7373   -3.8244    6.8634 N   0  0  0  0  0  0  0  0  0  0  0  0
   40.3777   -2.5018    6.8872 C   0  0  0  0  0  0  0  0  0  0  0  0
   40.5425   -1.6906    5.8276 C   0  0  0  0  0  0  0  0  0  0  0  0
   40.0013   -0.9860    2.8654 C   0  0  0  0  0  0  0  0  0  0  0  0
   38.7212   -1.4310    3.3373 C   0  0  0  0  0  0  0  0  0  0  0  0
   37.7826   -0.8687    2.5341 C   0  0  0  0  0  0  0  0  0  0  0  0
   38.4822   -0.0773    1.5671 C   0  0  0  0  0  0  0  0  0  0  0  0
   39.8228   -0.1667    1.7827 N   0  0  0  0  0  0  0  0  0  0  0  0
   36.8062    2.4504   -1.4171 H   0  0  0  0  0  0  0  0  0  0  0  0
   38.7312    3.5950   -2.9016 H   0  0  0  0  0  0  0  0  0  0  0  0
   40.3536    2.3027   -4.6318 H   0  0  0  0  0  0  0  0  0  0  0  0
   41.6204    3.7289   -6.4399 H   0  0  0  0  0  0  0  0  0  0  0  0
   39.9198    4.1782   -6.2102 H   0  0  0  0  0  0  0  0  0  0  0  0
   41.4792    6.1019   -6.1545 H   0  0  0  0  0  0  0  0  0  0  0  0
   42.4194    6.7674   -4.1661 H   0  0  0  0  0  0  0  0  0  0  0  0
   42.5554    5.1540   -2.2712 H   0  0  0  0  0  0  0  0  0  0  0  0
   44.0051    3.1068   -3.1487 H   0  0  0  0  0  0  0  0  0  0  0  0
   45.8583    1.8709   -1.6458 H   0  0  0  0  0  0  0  0  0  0  0  0
   45.7810   -0.9055    2.8300 H   0  0  0  0  0  0  0  0  0  0  0  0
   43.8616   -1.9009    4.4237 H   0  0  0  0  0  0  0  0  0  0  0  0
   42.1992   -3.8706    3.7745 H   0  0  0  0  0  0  0  0  0  0  0  0
   42.7101   -4.3700    6.3219 H   0  0  0  0  0  0  0  0  0  0  0  0
   41.4123   -5.3433    5.6043 H   0  0  0  0  0  0  0  0  0  0  0  0
   40.8002   -4.2858    7.7593 H   0  0  0  0  0  0  0  0  0  0  0  0
   39.8743   -2.1841    7.7948 H   0  0  0  0  0  0  0  0  0  0  0  0
   40.2056   -0.6638    5.8458 H   0  0  0  0  0  0  0  0  0  0  0  0
   38.5656   -2.0981    4.1697 H   0  0  0  0  0  0  0  0  0  0  0  0
   36.7107   -0.9765    2.5823 H   0  0  0  0  0  0  0  0  0  0  0  0
  2  3  4  0  0  0  0
  3  4  1  0  0  0  0
  4  5  2  0  0  0  0
  5  6  4  0  0  0  0
  1  7  1  0  0  0  0
  3  7  4  0  0  0  0
  6  7  4  0  0  0  0
  6  8  4  0  0  0  0
  8  9  1  0  0  0  0
  9 10  2  0  0  0  0
 10 11  1  0  0  0  0
 11 12  1  0  0  0  0
 12 13  1  0  0  0  0
  9 14  1  0  0  0  0
 13 14  2  0  0  0  0
  8 15  4  0  0  0  0
 15 16  4  0  0  0  0
 16 17  2  0  0  0  0
  1 18  1  0  0  0  0
 15 18  4  0  0  0  0
 17 19  4  0  0  0  0
 18 19  4  0  0  0  0
 19 20  4  0  0  0  0
 20 21  4  0  0  0  0
 21 22  4  0  0  0  0
 22 23  2  0  0  0  0
 23 24  4  0  0  0  0
  1 25  1  0  0  0  0
 21 25  4  0  0  0  0
 24 25  4  0  0  0  0
 24 26  4  0  0  0  0
 26 27  1  0  0  0  0
 27 28  2  0  0  0  0
 28 29  1  0  0  0  0
 29 30  1  0  0  0  0
 30 31  1  0  0  0  0
 27 32  1  0  0  0  0
 31 32  2  0  0  0  0
 26 33  4  0  0  0  0
 33 34  4  0  0  0  0
 34 35  2  0  0  0  0
  2 36  4  0  0  0  0
 35 36  1  0  0  0  0
  1 37  1  0  0  0  0
 33 37  4  0  0  0  0
 36 37  4  0  0  0  0
  2 38  1  0  0  0  0
  4 39  1  0  0  0  0
  5 40  1  0  0  0  0
 10 41  1  0  0  0  0
 11 42  1  0  0  0  0
 11 43  1  0  0  0  0
 12 44  1  0  0  0  0
 13 45  1  0  0  0  0
 14 46  1  0  0  0  0
 16 47  1  0  0  0  0
 17 48  1  0  0  0  0
 22 49  1  0  0  0  0
 23 50  1  0  0  0  0
 28 51  1  0  0  0  0
 29 52  1  0  0  0  0
 29 53  1  0  0  0  0
 30 54  1  0  0  0  0
 31 55  1  0  0  0  0
 32 56  1  0  0  0  0
 34 57  1  0  0  0  0
 35 58  1  0  0  0  0
 60 61  4  0  0  0  0
 61 62  1  0  0  0  0
 62 63  2  0  0  0  0
 63 64  4  0  0  0  0
 59 65  1  0  0  0  0
 61 65  4  0  0  0  0
 64 65  4  0  0  0  0
 64 66  4  0  0  0  0
 66 67  1  0  0  0  0
 67 68  2  0  0  0  0
 68 69  1  0  0  0  0
 69 70  1  0  0  0  0
 70 71  1  0  0  0  0
 67 72  1  0  0  0  0
 71 72  2  0  0  0  0
 66 73  4  0  0  0  0
 73 74  4  0  0  0  0
 74 75  2  0  0  0  0
 59 76  1  0  0  0  0
 73 76  4  0  0  0  0
 75 77  4  0  0  0  0
 76 77  4  0  0  0  0
 77 78  4  0  0  0  0
 78 79  4  0  0  0  0
 79 80  4  0  0  0  0
 80 81  2  0  0  0  0
 81 82  4  0  0  0  0
 59 83  1  0  0  0  0
 79 83  4  0  0  0  0
 82 83  4  0  0  0  0
 82 84  4  0  0  0  0
 84 85  1  0  0  0  0
 85 86  2  0  0  0  0
 86 87  1  0  0  0  0
 87 88  1  0  0  0  0
 88 89  1  0  0  0  0
 85 90  1  0  0  0  0
 89 90  2  0  0  0  0
 84 91  4  0  0  0  0
 91 92  4  0  0  0  0
 92 93  2  0  0  0  0
 60 94  4  0  0  0  0
 93 94  1  0  0  0  0
 59 95  1  0  0  0  0
 91 95  4  0  0  0  0
 94 95  4  0  0  0  0
 60 96  1  0  0  0  0
 62 97  1  0  0  0  0
 63 98  1  0  0  0  0
 68 99  1  0  0  0  0
 69100  1  0  0  0  0
 69101  1  0  0  0  0
 70102  1  0  0  0  0
 71103  1  0  0  0  0
 72104  1  0  0  0  0
 74105  1  0  0  0  0
 75106  1  0  0  0  0
 80107  1  0  0  0  0
 81108  1  0  0  0  0
 86109  1  0  0  0  0
 87110  1  0  0  0  0
 87111  1  0  0  0  0
 88112  1  0  0  0  0
 89113  1  0  0  0  0
 90114  1  0  0  0  0
 92115  1  0  0  0  0
 93116  1  0  0  0  0
117118  3  0  0  0  0
118119  4  0  0  0  0
 20120  4  0  0  0  0
119120  3  0  0  0  0
117121  4  0  0  0  0
121122  3  0  0  0  0
123124  3  0  0  0  0
124125  4  0  0  0  0
125126  3  0  0  0  0
123127  4  0  0  0  0
 78128  4  0  0  0  0
127128  3  0  0  0  0
122130  4  0  0  0  0
130131  4  0  0  0  0
131132  4  0  0  0  0
132133  2  0  0  0  0
133134  4  0  0  0  0
129135  1  0  0  0  0
131135  4  0  0  0  0
134135  4  0  0  0  0
134136  4  0  0  0  0
136137  1  0  0  0  0
137138  2  0  0  0  0
138139  1  0  0  0  0
139140  1  0  0  0  0
140141  1  0  0  0  0
137142  1  0  0  0  0
141142  2  0  0  0  0
136143  4  0  0  0  0
143144  4  0  0  0  0
144145  2  0  0  0  0
129146  1  0  0  0  0
143146  4  0  0  0  0
145147  4  0  0  0  0
146147  4  0  0  0  0
126148  4  0  0  0  0
147148  4  0  0  0  0
148149  4  0  0  0  0
149150  4  0  0  0  0
150151  2  0  0  0  0
151152  4  0  0  0  0
129153  1  0  0  0  0
149153  4  0  0  0  0
152153  4  0  0  0  0
152154  4  0  0  0  0
154155  1  0  0  0  0
155156  2  0  0  0  0
156157  1  0  0  0  0
157158  1  0  0  0  0
158159  1  0  0  0  0
155160  1  0  0  0  0
159160  2  0  0  0  0
154161  4  0  0  0  0
161162  4  0  0  0  0
162163  2  0  0  0  0
130164  4  0  0  0  0
163164  4  0  0  0  0
129165  1  0  0  0  0
161165  4  0  0  0  0
164165  4  0  0  0  0
132166  1  0  0  0  0
133167  1  0  0  0  0
138168  1  0  0  0  0
139169  1  0  0  0  0
139170  1  0  0  0  0
140171  1  0  0  0  0
141172  1  0  0  0  0
142173  1  0  0  0  0
144174  1  0  0  0  0
145175  1  0  0  0  0
150176  1  0  0  0  0
151177  1  0  0  0  0
156178  1  0  0  0  0
157179  1  0  0  0  0
157180  1  0  0  0  0
158181  1  0  0  0  0
159182  1  0  0  0  0
160183  1  0  0  0  0
162184  1  0  0  0  0
163185  1  0  0  0  0
M  END
