602

C 81.984764 -0.054907 0.074763
C 82.713363 1.225162 0.587812
C 82.103238 2.331629 1.133291
C 83.124835 3.277683 1.406438
C 84.324766 2.717933 1.013447
N 84.066498 1.448179 0.560743
C 85.748301 3.416229 1.044468
C 86.876623 2.703650 0.778904
C 88.180420 3.332695 0.726983
C 89.081047 2.406660 0.420136
N 87.072119 1.375530 0.503661
C 88.402271 1.133535 0.276828
C 89.069600 -0.011416 -0.027780
C 88.295013 -1.392659 -0.137018
C 88.842583 -2.649271 0.036129
C 87.817996 -3.598903 -0.200301
C 86.670420 -2.896381 -0.498768
C 85.257685 -3.521612 -0.861314
C 85.226253 -4.908017 -1.381738
C 84.862939 -5.972613 -0.547249
C 84.843491 -7.286539 -1.031137
C 84.411963 -8.413167 -0.143340
C 85.178477 -7.524542 -2.371840
C 85.561111 -6.472108 -3.215678
C 85.891457 -6.723994 -4.654803
C 85.573116 -5.164869 -2.712815
C 84.132456 -2.775809 -0.707545
C 82.808118 -3.275445 -1.032685
C 81.923574 -2.319598 -0.764291
C 82.648143 -1.174394 -0.269873
N 83.969844 -1.493610 -0.261303
N 86.957725 -1.554558 -0.406939
C 85.787433 4.871992 1.323627
C 86.058067 5.336080 2.616660
C 86.086356 6.708807 2.892128
C 86.422952 7.189258 4.270269
C 85.856712 7.618395 1.849849
C 85.567987 7.169487 0.553019
C 85.349818 8.142251 -0.565200
C 85.545505 5.792687 0.297545
H 80.906012 -0.020887 -0.019028
H 81.043960 2.451119 1.300339
H 82.996910 4.266394 1.821693
H 84.768152 0.782679 0.244481
H 88.391608 4.374089 0.893009
H 90.133601 2.592126 0.309370
H 89.868752 -2.863497 0.292900
H 87.906528 -4.674418 -0.160319
H 84.590197 -5.750921 0.483211
H 83.358847 -8.651922 -0.325429
H 85.017686 -9.306701 -0.331018
H 84.534441 -8.153634 0.914039
H 85.140886 -8.538730 -2.761253
H 86.636275 -6.007386 -5.015302
H 86.313099 -7.725472 -4.789970
H 84.989396 -6.635030 -5.267433
H 85.846786 -4.324134 -3.348173
H 82.578126 -4.249231 -1.426095
H 80.858863 -2.379428 -0.898658
H 86.270412 -0.808196 -0.473848
H 86.253866 4.604564 3.398915
H 86.033355 6.502623 5.029428
H 85.978157 8.171035 4.461916
H 87.507857 7.266655 4.385049
H 85.903060 8.685768 2.049196
H 84.935572 9.083991 -0.190093
H 86.297707 8.350745 -1.069893
H 84.638600 7.743886 -1.296137
H 85.344628 5.412748 -0.702787
C 223.529712 -0.025686 0.082686
C 222.801113 -1.389585 -0.121210
C 223.411238 -2.620048 -0.209419
C 222.389641 -3.574493 -0.451616
C 221.189710 -2.892890 -0.507999
N 221.447978 -1.568378 -0.257235
C 219.766175 -3.511201 -0.833992
C 218.637853 -2.762077 -0.703198
C 217.334056 -3.278722 -1.065788
C 216.433429 -2.324528 -0.862786
N 218.442357 -1.476844 -0.269796
C 217.112205 -1.153407 -0.343306
C 216.444876 -0.011416 -0.027780
C 217.219463 1.235800 0.575722
C 216.671893 2.232804 1.359965
C 217.696481 3.171789 1.635658
C 218.844057 2.716282 1.023177
C 220.256792 3.439016 1.026149
C 220.288223 4.898411 1.277400
C 220.651537 5.395605 2.535388
C 220.670985 6.773992 2.781555
C 221.102514 7.297791 4.116886
C 220.336000 7.656689 1.744744
C 219.953365 7.174713 0.484832
C 219.623019 8.119112 -0.629906
C 219.941360 5.792512 0.258419
C 221.382020 2.717697 0.782089
C 222.706358 3.313143 0.753895
C 223.590903 2.352647 0.502647
C 222.866333 1.114550 0.350803
N 221.544633 1.385709 0.519461
N 218.556752 1.511880 0.424564
C 219.727043 -4.908570 -1.328497
C 219.456409 -5.962299 -0.447040
C 219.428120 -7.286142 -0.902781
C 219.091524 -8.396987 0.043859
C 219.657764 -7.544591 -2.261788
C 219.946489 -6.502045 -3.154191
C 220.164658 -6.776652 -4.610651
C 219.968971 -5.184786 -2.679137
H 224.608465 -0.007664 -0.015443
H 224.470516 -2.807558 -0.125618
H 222.517566 -4.637543 -0.592723
H 220.746324 -0.834273 -0.193976
H 217.122868 -4.261333 -1.448596
H 215.380876 -2.428631 -1.052073
H 215.645725 2.287968 1.689785
H 217.607948 4.079776 2.213492
H 220.924280 4.683714 3.312695
H 222.155629 7.595827 4.080355
H 220.496790 8.163734 4.406313
H 220.980035 6.539643 4.898309
H 220.373590 8.728670 1.921023
H 218.878202 7.682786 -1.303037
H 219.201377 9.051685 -0.240630
H 220.525080 8.351823 -1.203557
H 219.667690 5.387916 -0.714627
H 222.936351 4.352278 0.906314
H 224.655614 2.472161 0.416912
H 219.244064 0.901560 -0.010226
H 219.260610 -5.726170 0.597605
H 219.481122 -8.187924 1.045899
H 219.536319 -9.341091 -0.286720
H 218.006619 -8.521767 0.103818
H 219.611416 -8.566455 -2.628965
H 220.578904 -7.778883 -4.762677
H 219.216769 -6.701625 -5.151535
H 220.875876 -6.063603 -5.040214
H 220.169849 -4.351546 -3.350500
C 91.903733 0.002241 -0.018226
C 93.361959 -0.019595 -0.036099
C 94.495887 -0.040349 -0.037590
C 95.857269 -0.052939 -0.039781
C 97.131488 -0.042632 -0.044547
C 98.319950 -0.023834 -0.050703
C 99.672311 0.000950 -0.034835
C 100.772578 0.002241 -0.018226
C 110.690873 0.002241 -0.018226
C 112.149100 -0.019595 -0.036099
C 113.283028 -0.040349 -0.037590
C 114.644410 -0.052939 -0.039781
C 115.918628 -0.042632 -0.044547
C 117.107091 -0.023834 -0.050703
C 118.459452 0.000950 -0.034835
C 119.559719 0.002241 -0.018226
C 129.478014 0.002241 -0.018226
C 130.936241 -0.019595 -0.036099
C 132.070169 -0.040349 -0.037590
C 133.431550 -0.052939 -0.039781
C 134.705769 -0.042632 -0.044547
C 135.894232 -0.023834 -0.050703
C 137.246592 0.000950 -0.034835
C 138.346860 0.002241 -0.018226
C 148.265155 0.002241 -0.018226
C 149.723381 -0.019595 -0.036099
C 150.857309 -0.040349 -0.037590
C 152.218691 -0.052939 -0.039781
C 153.492910 -0.042632 -0.044547
C 154.681372 -0.023834 -0.050703
C 156.033733 0.000950 -0.034835
C 157.134001 0.002241 -0.018226
C 167.052296 0.002241 -0.018226
C 168.510522 -0.019595 -0.036099
C 169.644450 -0.040349 -0.037590
C 171.005832 -0.052939 -0.039781
C 172.280051 -0.042632 -0.044547
C 173.468513 -0.023834 -0.050703
C 174.820874 0.000950 -0.034835
C 175.921141 0.002241 -0.018226
C 185.839437 0.002241 -0.018226
C 187.297663 -0.019595 -0.036099
C 188.431591 -0.040349 -0.037590
C 189.792973 -0.052939 -0.039781
C 191.067192 -0.042632 -0.044547
C 192.255654 -0.023834 -0.050703
C 193.608015 0.000950 -0.034835
C 194.708282 0.002241 -0.018226
C 204.626578 0.002241 -0.018226
C 206.084804 -0.019595 -0.036099
C 207.218732 -0.040349 -0.037590
C 208.580114 -0.052939 -0.039781
C 209.854333 -0.042632 -0.044547
C 211.042795 -0.023834 -0.050703
C 212.395156 0.000950 -0.034835
C 213.495423 0.002241 -0.018226
C 102.213893 0.003554 0.011898
C 103.005278 -1.136217 0.777852
C 102.492269 -2.002395 1.722149
C 103.529002 -2.901436 2.080123
C 104.645006 -2.551586 1.349373
N 104.336753 -1.432656 0.616462
C 106.037824 -3.306638 1.343467
C 107.171818 -2.641103 0.999378
C 108.459896 -3.298696 0.919950
C 109.366884 -2.399915 0.552681
N 107.378580 -1.332825 0.658467
C 108.703309 -1.122650 0.383014
C 109.367071 0.003554 0.011898
C 108.574979 1.366563 -0.150614
C 109.085440 2.639284 0.008781
C 108.048967 3.554167 -0.307295
C 106.935596 2.812161 -0.641812
C 105.543628 3.380210 -1.140518
C 105.548891 4.690907 -1.832846
C 105.121178 5.846829 -1.167311
C 105.141877 7.091608 -1.808781
C 104.717891 8.325088 -1.071711
C 105.620529 7.172612 -3.124215
C 106.041231 6.023468 -3.808964
C 106.579393 6.116173 -5.203907
C 106.011806 4.787777 -3.149953
C 104.409632 2.651471 -0.966375
C 103.121754 3.097538 -1.456371
C 102.214650 2.177390 -1.147142
C 102.877997 1.099011 -0.441720
N 104.202707 1.438122 -0.369929
N 107.244984 1.485550 -0.472435
C 106.032188 -4.750931 1.677345
C 105.570621 -5.685977 0.743987
C 105.536749 -7.051201 1.055726
C 104.999669 -8.033546 0.060193
C 105.951614 -7.471667 2.327703
C 106.429215 -6.549782 3.269980
C 106.846058 -6.997474 4.637514
C 106.454775 -5.189154 2.938843
H 101.480011 -2.004205 2.096601
H 103.464341 -3.724401 2.776076
H 105.001112 -0.886197 0.076209
H 108.655081 -4.338580 1.112788
H 110.411949 -2.605524 0.409580
H 110.095861 2.884806 0.298461
H 108.111836 4.632070 -0.310340
H 104.773227 5.753198 -0.139879
H 105.581993 8.784074 -0.581127
H 104.270751 9.053135 -1.756779
H 103.964514 8.089765 -0.312146
H 105.665196 8.138706 -3.620220
H 106.365291 5.201761 -5.767102
H 107.662386 6.270926 -5.177862
H 106.116640 6.947010 -5.746990
H 106.351477 3.881498 -3.648523
H 102.926443 4.010675 -1.989921
H 101.169751 2.240299 -1.390131
H 106.581391 0.718707 -0.530085
H 105.234456 -5.327196 -0.227429
H 105.450094 -9.021411 0.203164
H 105.229556 -7.717944 -0.963030
H 103.914237 -8.121609 0.168960
H 105.902924 -8.526263 2.586000
H 107.633775 -6.350511 5.037899
H 107.246129 -8.016448 4.610314
H 105.988563 -6.973171 5.317052
H 106.801338 -4.446083 3.655269
C 121.001034 0.003554 0.011898
C 121.792419 -1.136217 0.777852
C 121.279409 -2.002395 1.722149
C 122.316143 -2.901436 2.080123
C 123.432147 -2.551586 1.349373
N 123.123894 -1.432656 0.616462
C 124.824965 -3.306638 1.343467
C 125.958958 -2.641103 0.999378
C 127.247037 -3.298696 0.919950
C 128.154025 -2.399915 0.552681
N 126.165721 -1.332825 0.658467
C 127.490450 -1.122650 0.383014
C 128.154212 0.003554 0.011898
C 127.362120 1.366563 -0.150614
C 127.872581 2.639284 0.008781
C 126.836108 3.554167 -0.307295
C 125.722736 2.812161 -0.641812
C 124.330769 3.380210 -1.140518
C 124.336032 4.690907 -1.832846
C 123.908319 5.846829 -1.167311
C 123.929018 7.091608 -1.808781
C 123.505032 8.325088 -1.071711
C 124.407669 7.172612 -3.124215
C 124.828372 6.023468 -3.808964
C 125.366534 6.116173 -5.203907
C 124.798947 4.787777 -3.149953
C 123.196773 2.651471 -0.966375
C 121.908895 3.097538 -1.456371
C 121.001791 2.177390 -1.147142
C 121.665137 1.099011 -0.441720
N 122.989847 1.438122 -0.369929
N 126.032125 1.485550 -0.472435
C 124.819329 -4.750931 1.677345
C 124.357762 -5.685977 0.743987
C 124.323890 -7.051201 1.055726
C 123.786809 -8.033546 0.060193
C 124.738755 -7.471667 2.327703
C 125.216355 -6.549782 3.269980
C 125.633199 -6.997474 4.637514
C 125.241916 -5.189154 2.938843
H 120.267152 -2.004205 2.096601
H 122.251482 -3.724401 2.776076
H 123.788253 -0.886197 0.076209
H 127.442222 -4.338580 1.112788
H 129.199089 -2.605524 0.409580
H 128.883002 2.884806 0.298461
H 126.898976 4.632070 -0.310340
H 123.560368 5.753198 -0.139879
H 124.369134 8.784074 -0.581127
H 123.057892 9.053135 -1.756779
H 122.751655 8.089765 -0.312146
H 124.452337 8.138706 -3.620220
H 125.152432 5.201761 -5.767102
H 126.449527 6.270926 -5.177862
H 124.903780 6.947010 -5.746990
H 125.138618 3.881498 -3.648523
H 121.713584 4.010675 -1.989921
H 119.956892 2.240299 -1.390131
H 125.368532 0.718707 -0.530085
H 124.021597 -5.327196 -0.227429
H 124.237235 -9.021411 0.203164
H 124.016697 -7.717944 -0.963030
H 122.701378 -8.121609 0.168960
H 124.690065 -8.526263 2.586000
H 126.420916 -6.350511 5.037899
H 126.033270 -8.016448 4.610314
H 124.775704 -6.973171 5.317052
H 125.588479 -4.446083 3.655269
C 139.788175 0.003554 0.011898
C 140.579560 -1.136217 0.777852
C 140.066550 -2.002395 1.722149
C 141.103284 -2.901436 2.080123
C 142.219288 -2.551586 1.349373
N 141.911034 -1.432656 0.616462
C 143.612106 -3.306638 1.343467
C 144.746099 -2.641103 0.999378
C 146.034178 -3.298696 0.919950
C 146.941165 -2.399915 0.552681
N 144.952862 -1.332825 0.658467
C 146.277591 -1.122650 0.383014
C 146.941352 0.003554 0.011898
C 146.149261 1.366563 -0.150614
C 146.659722 2.639284 0.008781
C 145.623249 3.554167 -0.307295
C 144.509877 2.812161 -0.641812
C 143.117910 3.380210 -1.140518
C 143.123173 4.690907 -1.832846
C 142.695460 5.846829 -1.167311
C 142.716159 7.091608 -1.808781
C 142.292173 8.325088 -1.071711
C 143.194810 7.172612 -3.124215
C 143.615513 6.023468 -3.808964
C 144.153674 6.116173 -5.203907
C 143.586088 4.787777 -3.149953
C 141.983913 2.651471 -0.966375
C 140.696036 3.097538 -1.456371
C 139.788932 2.177390 -1.147142
C 140.452278 1.099011 -0.441720
N 141.776988 1.438122 -0.369929
N 144.819266 1.485550 -0.472435
C 143.606469 -4.750931 1.677345
C 143.144903 -5.685977 0.743987
C 143.111031 -7.051201 1.055726
C 142.573950 -8.033546 0.060193
C 143.525895 -7.471667 2.327703
C 144.003496 -6.549782 3.269980
C 144.420339 -6.997474 4.637514
C 144.029057 -5.189154 2.938843
H 139.054292 -2.004205 2.096601
H 141.038623 -3.724401 2.776076
H 142.575394 -0.886197 0.076209
H 146.229363 -4.338580 1.112788
H 147.986230 -2.605524 0.409580
H 147.670143 2.884806 0.298461
H 145.686117 4.632070 -0.310340
H 142.347509 5.753198 -0.139879
H 143.156275 8.784074 -0.581127
H 141.845033 9.053135 -1.756779
H 141.538796 8.089765 -0.312146
H 143.239478 8.138706 -3.620220
H 143.939573 5.201761 -5.767102
H 145.236668 6.270926 -5.177862
H 143.690921 6.947010 -5.746990
H 143.925759 3.881498 -3.648523
H 140.500725 4.010675 -1.989921
H 138.744033 2.240299 -1.390131
H 144.155672 0.718707 -0.530085
H 142.808738 -5.327196 -0.227429
H 143.024375 -9.021411 0.203164
H 142.803838 -7.717944 -0.963030
H 141.488519 -8.121609 0.168960
H 143.477206 -8.526263 2.586000
H 145.208057 -6.350511 5.037899
H 144.820411 -8.016448 4.610314
H 143.562845 -6.973171 5.317052
H 144.375620 -4.446083 3.655269
C 158.575316 0.003554 0.011898
C 159.366701 -1.136217 0.777852
C 158.853691 -2.002395 1.722149
C 159.890425 -2.901436 2.080123
C 161.006429 -2.551586 1.349373
N 160.698175 -1.432656 0.616462
C 162.399246 -3.306638 1.343467
C 163.533240 -2.641103 0.999378
C 164.821319 -3.298696 0.919950
C 165.728306 -2.399915 0.552681
N 163.740003 -1.332825 0.658467
C 165.064731 -1.122650 0.383014
C 165.728493 0.003554 0.011898
C 164.936402 1.366563 -0.150614
C 165.446863 2.639284 0.008781
C 164.410390 3.554167 -0.307295
C 163.297018 2.812161 -0.641812
C 161.905051 3.380210 -1.140518
C 161.910313 4.690907 -1.832846
C 161.482601 5.846829 -1.167311
C 161.503300 7.091608 -1.808781
C 161.079313 8.325088 -1.071711
C 161.981951 7.172612 -3.124215
C 162.402654 6.023468 -3.808964
C 162.940815 6.116173 -5.203907
C 162.373229 4.787777 -3.149953
C 160.771054 2.651471 -0.966375
C 159.483177 3.097538 -1.456371
C 158.576073 2.177390 -1.147142
C 159.239419 1.099011 -0.441720
N 160.564129 1.438122 -0.369929
N 163.606407 1.485550 -0.472435
C 162.393610 -4.750931 1.677345
C 161.932043 -5.685977 0.743987
C 161.898171 -7.051201 1.055726
C 161.361091 -8.033546 0.060193
C 162.313036 -7.471667 2.327703
C 162.790637 -6.549782 3.269980
C 163.207480 -6.997474 4.637514
C 162.816197 -5.189154 2.938843
H 157.841433 -2.004205 2.096601
H 159.825763 -3.724401 2.776076
H 161.362534 -0.886197 0.076209
H 165.016503 -4.338580 1.112788
H 166.773371 -2.605524 0.409580
H 166.457284 2.884806 0.298461
H 164.473258 4.632070 -0.310340
H 161.134649 5.753198 -0.139879
H 161.943416 8.784074 -0.581127
H 160.632174 9.053135 -1.756779
H 160.325936 8.089765 -0.312146
H 162.026619 8.138706 -3.620220
H 162.726714 5.201761 -5.767102
H 164.023809 6.270926 -5.177862
H 162.478062 6.947010 -5.746990
H 162.712900 3.881498 -3.648523
H 159.287865 4.010675 -1.989921
H 157.531174 2.240299 -1.390131
H 162.942813 0.718707 -0.530085
H 161.595879 -5.327196 -0.227429
H 161.811516 -9.021411 0.203164
H 161.590978 -7.717944 -0.963030
H 160.275659 -8.121609 0.168960
H 162.264347 -8.526263 2.586000
H 163.995198 -6.350511 5.037899
H 163.607552 -8.016448 4.610314
H 162.349986 -6.973171 5.317052
H 163.162761 -4.446083 3.655269
C 177.362457 0.003554 0.011898
C 178.153842 -1.136217 0.777852
C 177.640832 -2.002395 1.722149
C 178.677565 -2.901436 2.080123
C 179.793570 -2.551586 1.349373
N 179.485316 -1.432656 0.616462
C 181.186387 -3.306638 1.343467
C 182.320381 -2.641103 0.999378
C 183.608460 -3.298696 0.919950
C 184.515447 -2.399915 0.552681
N 182.527144 -1.332825 0.658467
C 183.851872 -1.122650 0.383014
C 184.515634 0.003554 0.011898
C 183.723543 1.366563 -0.150614
C 184.234003 2.639284 0.008781
C 183.197531 3.554167 -0.307295
C 182.084159 2.812161 -0.641812
C 180.692191 3.380210 -1.140518
C 180.697454 4.690907 -1.832846
C 180.269741 5.846829 -1.167311
C 180.290441 7.091608 -1.808781
C 179.866454 8.325088 -1.071711
C 180.769092 7.172612 -3.124215
C 181.189795 6.023468 -3.808964
C 181.727956 6.116173 -5.203907
C 181.160370 4.787777 -3.149953
C 179.558195 2.651471 -0.966375
C 178.270318 3.097538 -1.456371
C 177.363214 2.177390 -1.147142
C 178.026560 1.099011 -0.441720
N 179.351270 1.438122 -0.369929
N 182.393547 1.485550 -0.472435
C 181.180751 -4.750931 1.677345
C 180.719184 -5.685977 0.743987
C 180.685312 -7.051201 1.055726
C 180.148232 -8.033546 0.060193
C 181.100177 -7.471667 2.327703
C 181.577778 -6.549782 3.269980
C 181.994621 -6.997474 4.637514
C 181.603338 -5.189154 2.938843
H 176.628574 -2.004205 2.096601
H 178.612904 -3.724401 2.776076
H 180.149675 -0.886197 0.076209
H 183.803644 -4.338580 1.112788
H 185.560512 -2.605524 0.409580
H 185.244425 2.884806 0.298461
H 183.260399 4.632070 -0.310340
H 179.921790 5.753198 -0.139879
H 180.730556 8.784074 -0.581127
H 179.419315 9.053135 -1.756779
H 179.113077 8.089765 -0.312146
H 180.813760 8.138706 -3.620220
H 181.513854 5.201761 -5.767102
H 182.810950 6.270926 -5.177862
H 181.265203 6.947010 -5.746990
H 181.500041 3.881498 -3.648523
H 178.075006 4.010675 -1.989921
H 176.318315 2.240299 -1.390131
H 181.729954 0.718707 -0.530085
H 180.383020 -5.327196 -0.227429
H 180.598657 -9.021411 0.203164
H 180.378119 -7.717944 -0.963030
H 179.062800 -8.121609 0.168960
H 181.051487 -8.526263 2.586000
H 182.782338 -6.350511 5.037899
H 182.394692 -8.016448 4.610314
H 181.137127 -6.973171 5.317052
H 181.949902 -4.446083 3.655269
C 196.149597 0.003554 0.011898
C 196.940982 -1.136217 0.777852
C 196.427973 -2.002395 1.722149
C 197.464706 -2.901436 2.080123
C 198.580711 -2.551586 1.349373
N 198.272457 -1.432656 0.616462
C 199.973528 -3.306638 1.343467
C 201.107522 -2.641103 0.999378
C 202.395600 -3.298696 0.919950
C 203.302588 -2.399915 0.552681
N 201.314285 -1.332825 0.658467
C 202.639013 -1.122650 0.383014
C 203.302775 0.003554 0.011898
C 202.510683 1.366563 -0.150614
C 203.021144 2.639284 0.008781
C 201.984671 3.554167 -0.307295
C 200.871300 2.812161 -0.641812
C 199.479332 3.380210 -1.140518
C 199.484595 4.690907 -1.832846
C 199.056882 5.846829 -1.167311
C 199.077582 7.091608 -1.808781
C 198.653595 8.325088 -1.071711
C 199.556233 7.172612 -3.124215
C 199.976936 6.023468 -3.808964
C 200.515097 6.116173 -5.203907
C 199.947511 4.787777 -3.149953
C 198.345336 2.651471 -0.966375
C 197.057459 3.097538 -1.456371
C 196.150354 2.177390 -1.147142
C 196.813701 1.099011 -0.441720
N 198.138411 1.438122 -0.369929
N 201.180688 1.485550 -0.472435
C 199.967892 -4.750931 1.677345
C 199.506325 -5.685977 0.743987
C 199.472453 -7.051201 1.055726
C 198.935373 -8.033546 0.060193
C 199.887318 -7.471667 2.327703
C 200.364919 -6.549782 3.269980
C 200.781762 -6.997474 4.637514
C 200.390479 -5.189154 2.938843
H 195.415715 -2.004205 2.096601
H 197.400045 -3.724401 2.776076
H 198.936816 -0.886197 0.076209
H 202.590785 -4.338580 1.112788
H 204.347653 -2.605524 0.409580
H 204.031565 2.884806 0.298461
H 202.047540 4.632070 -0.310340
H 198.708931 5.753198 -0.139879
H 199.517697 8.784074 -0.581127
H 198.206455 9.053135 -1.756779
H 197.900218 8.089765 -0.312146
H 199.600900 8.138706 -3.620220
H 200.300995 5.201761 -5.767102
H 201.598091 6.270926 -5.177862
H 200.052344 6.947010 -5.746990
H 200.287182 3.881498 -3.648523
H 196.862147 4.010675 -1.989921
H 195.105455 2.240299 -1.390131
H 200.517095 0.718707 -0.530085
H 199.170160 -5.327196 -0.227429
H 199.385798 -9.021411 0.203164
H 199.165260 -7.717944 -0.963030
H 197.849941 -8.121609 0.168960
H 199.838628 -8.526263 2.586000
H 201.569479 -6.350511 5.037899
H 201.181833 -8.016448 4.610314
H 199.924267 -6.973171 5.317052
H 200.737043 -4.446083 3.655269
