 xtb: 6.5.1 (b24c23e)
          07292222083D

268307  0     0  0            999 V2000
   58.0438    0.0677   -0.0227 Co  0  0  0  0  0  0  0  0  0  0  0  0
   54.6768    0.0984   -0.0307 C   0  0  0  0  0  0  0  0  0  0  0  0
   55.3387    0.7689    0.9768 C   0  0  0  0  0  0  0  0  0  0  0  0
   54.6925    1.4497    2.0567 C   0  0  0  0  0  0  0  0  0  0  0  0
   55.6517    2.1619    2.6962 C   0  0  0  0  0  0  0  0  0  0  0  0
   56.8796    1.9278    1.9945 C   0  0  0  0  0  0  0  0  0  0  0  0
   56.6895    1.0126    0.9926 N   0  0  0  0  0  0  0  0  0  0  0  0
   58.0580    2.6375    2.2046 C   0  0  0  0  0  0  0  0  0  0  0  0
   58.0659    3.7575    3.1674 C   0  0  0  0  0  0  0  0  0  0  0  0
   57.1574    4.8136    3.0452 C   0  0  0  0  0  0  0  0  0  0  0  0
   57.1682    5.8635    3.9430 C   0  0  0  0  0  0  0  0  0  0  0  0
   58.0824    5.8838    5.0040 C   0  0  0  0  0  0  0  0  0  0  0  0
   58.0857    6.9813    5.8510 N   0  0  0  0  0  0  0  0  0  0  0  0
   58.6451    6.8602    7.1903 C   0  0  0  0  0  0  0  0  0  0  0  0
   58.9966    4.8334    5.1285 C   0  0  0  0  0  0  0  0  0  0  0  0
   58.9844    3.7900    4.2192 C   0  0  0  0  0  0  0  0  0  0  0  0
   59.2258    2.3200    1.5238 C   0  0  0  0  0  0  0  0  0  0  0  0
   60.4508    3.0529    1.6307 C   0  0  0  0  0  0  0  0  0  0  0  0
   61.4017    2.3171    1.0044 C   0  0  0  0  0  0  0  0  0  0  0  0
   59.4142    1.1880    0.7641 N   0  0  0  0  0  0  0  0  0  0  0  0
   60.7558    1.1456    0.5061 C   0  0  0  0  0  0  0  0  0  0  0  0
   61.4335    0.0370   -0.0147 C   0  0  0  0  0  0  0  0  0  0  0  0
   60.7381   -1.0610   -0.5351 C   0  0  0  0  0  0  0  0  0  0  0  0
   61.3649   -2.2453   -1.0274 C   0  0  0  0  0  0  0  0  0  0  0  0
   60.4039   -2.9645   -1.6577 C   0  0  0  0  0  0  0  0  0  0  0  0
   59.1921   -2.2091   -1.5585 C   0  0  0  0  0  0  0  0  0  0  0  0
   59.3972   -1.0800   -0.7988 N   0  0  0  0  0  0  0  0  0  0  0  0
   58.0221   -2.5060   -2.2450 C   0  0  0  0  0  0  0  0  0  0  0  0
   58.0156   -3.6264   -3.2072 C   0  0  0  0  0  0  0  0  0  0  0  0
   58.9379   -3.6732   -4.2553 C   0  0  0  0  0  0  0  0  0  0  0  0
   58.9399   -4.7186   -5.1622 C   0  0  0  0  0  0  0  0  0  0  0  0
   58.0211   -5.7641   -5.0305 C   0  0  0  0  0  0  0  0  0  0  0  0
   57.9513   -6.8136   -5.9341 N   0  0  0  0  0  0  0  0  0  0  0  0
   59.1338   -7.1854   -6.6994 C   0  0  0  0  0  0  0  0  0  0  0  0
   57.0905   -5.7199   -3.9848 C   0  0  0  0  0  0  0  0  0  0  0  0
   57.0872   -4.6658   -3.0917 C   0  0  0  0  0  0  0  0  0  0  0  0
   56.8560   -1.7744   -2.0417 C   0  0  0  0  0  0  0  0  0  0  0  0
   55.6277   -1.9863   -2.7498 C   0  0  0  0  0  0  0  0  0  0  0  0
   54.6788   -1.2551   -2.1165 C   0  0  0  0  0  0  0  0  0  0  0  0
   55.3319   -0.5851   -1.0339 C   0  0  0  0  0  0  0  0  0  0  0  0
   56.6779   -0.8547   -1.0417 N   0  0  0  0  0  0  0  0  0  0  0  0
   53.5931    0.1088   -0.0342 H   0  0  0  0  0  0  0  0  0  0  0  0
   53.6389    1.3847    2.2780 H   0  0  0  0  0  0  0  0  0  0  0  0
   55.5485    2.7926    3.5645 H   0  0  0  0  0  0  0  0  0  0  0  0
   56.4522    4.8194    2.2213 H   0  0  0  0  0  0  0  0  0  0  0  0
   56.4661    6.6828    3.8287 H   0  0  0  0  0  0  0  0  0  0  0  0
   57.2080    7.4865    5.8426 H   0  0  0  0  0  0  0  0  0  0  0  0
   59.7268    6.7316    7.1335 H   0  0  0  0  0  0  0  0  0  0  0  0
   58.2095    6.0143    7.7343 H   0  0  0  0  0  0  0  0  0  0  0  0
   58.4317    7.7834    7.7291 H   0  0  0  0  0  0  0  0  0  0  0  0
   59.7205    4.8243    5.9341 H   0  0  0  0  0  0  0  0  0  0  0  0
   59.6857    2.9714    4.3393 H   0  0  0  0  0  0  0  0  0  0  0  0
   60.5603    4.0067    2.1205 H   0  0  0  0  0  0  0  0  0  0  0  0
   62.4504    2.5355    0.8899 H   0  0  0  0  0  0  0  0  0  0  0  0
   62.4084   -2.4836   -0.9046 H   0  0  0  0  0  0  0  0  0  0  0  0
   60.4983   -3.9209   -2.1459 H   0  0  0  0  0  0  0  0  0  0  0  0
   59.6489   -2.8630   -4.3754 H   0  0  0  0  0  0  0  0  0  0  0  0
   59.6572   -4.7137   -5.9738 H   0  0  0  0  0  0  0  0  0  0  0  0
   57.4638   -7.6194   -5.5614 H   0  0  0  0  0  0  0  0  0  0  0  0
   59.3684   -6.4076   -7.4271 H   0  0  0  0  0  0  0  0  0  0  0  0
   58.9119   -8.1085   -7.2350 H   0  0  0  0  0  0  0  0  0  0  0  0
   60.0014   -7.3437   -6.0486 H   0  0  0  0  0  0  0  0  0  0  0  0
   56.3710   -6.5248   -3.8770 H   0  0  0  0  0  0  0  0  0  0  0  0
   56.3746   -4.6575   -2.2742 H   0  0  0  0  0  0  0  0  0  0  0  0
   55.5172   -2.6163   -3.6177 H   0  0  0  0  0  0  0  0  0  0  0  0
   53.6278   -1.1704   -2.3436 H   0  0  0  0  0  0  0  0  0  0  0  0
   90.4722    0.0201   -0.0654 Co  0  0  0  0  0  0  0  0  0  0  0  0
   93.8389   -0.0063   -0.0575 C   0  0  0  0  0  0  0  0  0  0  0  0
   93.1723   -1.1289   -0.5028 C   0  0  0  0  0  0  0  0  0  0  0  0
   93.8130   -2.3348   -0.9302 C   0  0  0  0  0  0  0  0  0  0  0  0
   92.8546   -3.1008   -1.5057 C   0  0  0  0  0  0  0  0  0  0  0  0
   91.6326   -2.3542   -1.4419 C   0  0  0  0  0  0  0  0  0  0  0  0
   91.8243   -1.1834   -0.7565 N   0  0  0  0  0  0  0  0  0  0  0  0
   90.4589   -2.6989   -2.1054 C   0  0  0  0  0  0  0  0  0  0  0  0
   90.4510   -3.8767   -2.9963 C   0  0  0  0  0  0  0  0  0  0  0  0
   91.3708   -3.9896   -4.0436 C   0  0  0  0  0  0  0  0  0  0  0  0
   91.3611   -5.0908   -4.8779 C   0  0  0  0  0  0  0  0  0  0  0  0
   90.4371   -6.1248   -4.6816 C   0  0  0  0  0  0  0  0  0  0  0  0
   90.4365   -7.1875   -5.5723 N   0  0  0  0  0  0  0  0  0  0  0  0
   89.8698   -8.4675   -5.1696 C   0  0  0  0  0  0  0  0  0  0  0  0
   89.5113   -6.0151   -3.6399 C   0  0  0  0  0  0  0  0  0  0  0  0
   89.5222   -4.9040   -2.8146 C   0  0  0  0  0  0  0  0  0  0  0  0
   89.2949   -1.9583   -1.9486 C   0  0  0  0  0  0  0  0  0  0  0  0
   88.0741   -2.2072   -2.6535 C   0  0  0  0  0  0  0  0  0  0  0  0
   87.1223   -1.4394   -2.0682 C   0  0  0  0  0  0  0  0  0  0  0  0
   89.1038   -0.9804   -0.9990 N   0  0  0  0  0  0  0  0  0  0  0  0
   87.7631   -0.7155   -1.0181 C   0  0  0  0  0  0  0  0  0  0  0  0
   87.0825    0.0243   -0.0436 C   0  0  0  0  0  0  0  0  0  0  0  0
   87.7766    0.7705    0.9162 C   0  0  0  0  0  0  0  0  0  0  0  0
   87.1496    1.5109    1.9632 C   0  0  0  0  0  0  0  0  0  0  0  0
   88.1094    2.2874    2.5237 C   0  0  0  0  0  0  0  0  0  0  0  0
   89.3216    2.0244    1.8092 C   0  0  0  0  0  0  0  0  0  0  0  0
   89.1175    1.0334    0.8767 N   0  0  0  0  0  0  0  0  0  0  0  0
   90.4924    2.7585    1.9485 C   0  0  0  0  0  0  0  0  0  0  0  0
   90.4962    3.9482    2.8236 C   0  0  0  0  0  0  0  0  0  0  0  0
   89.5738    4.9793    2.6299 C   0  0  0  0  0  0  0  0  0  0  0  0
   89.5685    6.0984    3.4440 C   0  0  0  0  0  0  0  0  0  0  0  0
   90.4838    6.2061    4.4953 C   0  0  0  0  0  0  0  0  0  0  0  0
   90.5500    7.3231    5.3146 N   0  0  0  0  0  0  0  0  0  0  0  0
   89.3656    8.1506    5.5007 C   0  0  0  0  0  0  0  0  0  0  0  0
   91.4141    5.1778    4.6913 C   0  0  0  0  0  0  0  0  0  0  0  0
   91.4206    4.0701    3.8657 C   0  0  0  0  0  0  0  0  0  0  0  0
   91.6615    2.3916    1.2894 C   0  0  0  0  0  0  0  0  0  0  0  0
   92.8942    3.1210    1.3489 C   0  0  0  0  0  0  0  0  0  0  0  0
   93.8447    2.3310    0.7932 C   0  0  0  0  0  0  0  0  0  0  0  0
   93.1880    1.1295    0.3777 C   0  0  0  0  0  0  0  0  0  0  0  0
   91.8396    1.2081    0.6217 N   0  0  0  0  0  0  0  0  0  0  0  0
   94.9226   -0.0154   -0.0536 H   0  0  0  0  0  0  0  0  0  0  0  0
   94.8630   -2.5473   -0.8052 H   0  0  0  0  0  0  0  0  0  0  0  0
   92.9549   -4.0833   -1.9381 H   0  0  0  0  0  0  0  0  0  0  0  0
   92.0844   -3.1915   -4.2166 H   0  0  0  0  0  0  0  0  0  0  0  0
   92.0723   -5.1593   -5.6944 H   0  0  0  0  0  0  0  0  0  0  0  0
   91.3190   -7.2919   -6.0585 H   0  0  0  0  0  0  0  0  0  0  0  0
   88.7874   -8.3813   -5.0660 H   0  0  0  0  0  0  0  0  0  0  0  0
   90.2961   -8.8169   -4.2222 H   0  0  0  0  0  0  0  0  0  0  0  0
   90.0882   -9.1938   -5.9526 H   0  0  0  0  0  0  0  0  0  0  0  0
   88.7794   -6.7947   -3.4674 H   0  0  0  0  0  0  0  0  0  0  0  0
   88.8118   -4.8413   -1.9974 H   0  0  0  0  0  0  0  0  0  0  0  0
   87.9681   -2.8810   -3.4880 H   0  0  0  0  0  0  0  0  0  0  0  0
   86.0767   -1.3639   -2.3161 H   0  0  0  0  0  0  0  0  0  0  0  0
   86.1064    1.4423    2.2237 H   0  0  0  0  0  0  0  0  0  0  0  0
   88.0142    2.9755    3.3479 H   0  0  0  0  0  0  0  0  0  0  0  0
   88.8655    4.9131    1.8112 H   0  0  0  0  0  0  0  0  0  0  0  0
   88.8515    6.8877    3.2541 H   0  0  0  0  0  0  0  0  0  0  0  0
   91.0341    7.1413    6.1855 H   0  0  0  0  0  0  0  0  0  0  0  0
   89.1353    8.6871    4.5793 H   0  0  0  0  0  0  0  0  0  0  0  0
   89.5824    8.8781    6.2829 H   0  0  0  0  0  0  0  0  0  0  0  0
   88.4970    7.5502    5.7948 H   0  0  0  0  0  0  0  0  0  0  0  0
   92.1307    5.2545    5.5023 H   0  0  0  0  0  0  0  0  0  0  0  0
   92.1326    3.2718    4.0448 H   0  0  0  0  0  0  0  0  0  0  0  0
   93.0066    4.1089    1.7656 H   0  0  0  0  0  0  0  0  0  0  0  0
   94.8986    2.5255    0.6721 H   0  0  0  0  0  0  0  0  0  0  0  0
   62.8378    0.0276   -0.0169 C   0  0  0  0  0  0  0  0  0  0  0  0
   64.0569    0.0222   -0.0227 C   0  0  0  0  0  0  0  0  0  0  0  0
   73.6457   -0.0254    0.0669 C   0  0  0  0  0  0  0  0  0  0  0  0
   74.8643   -0.0280    0.0729 C   0  0  0  0  0  0  0  0  0  0  0  0
   84.4588    0.0174   -0.0237 C   0  0  0  0  0  0  0  0  0  0  0  0
   85.6780    0.0217   -0.0323 C   0  0  0  0  0  0  0  0  0  0  0  0
   68.8548    0.0346   -0.0306 Co  0  0  0  0  0  0  0  0  0  0  0  0
   65.4609    0.0195   -0.0212 C   0  0  0  0  0  0  0  0  0  0  0  0
   66.1475   -1.1298   -0.4312 C   0  0  0  0  0  0  0  0  0  0  0  0
   65.5002   -2.3254   -0.8643 C   0  0  0  0  0  0  0  0  0  0  0  0
   66.4536   -3.1013   -1.4362 C   0  0  0  0  0  0  0  0  0  0  0  0
   67.6863   -2.3829   -1.3331 C   0  0  0  0  0  0  0  0  0  0  0  0
   67.4932   -1.1978   -0.6619 N   0  0  0  0  0  0  0  0  0  0  0  0
   68.8561   -2.7356   -1.9967 C   0  0  0  0  0  0  0  0  0  0  0  0
   68.8491   -3.9132   -2.8935 C   0  0  0  0  0  0  0  0  0  0  0  0
   68.6175   -5.1976   -2.3951 C   0  0  0  0  0  0  0  0  0  0  0  0
   68.6107   -6.2911   -3.2405 C   0  0  0  0  0  0  0  0  0  0  0  0
   68.8233   -6.1299   -4.6153 C   0  0  0  0  0  0  0  0  0  0  0  0
   68.8522   -7.2614   -5.4166 N   0  0  0  0  0  0  0  0  0  0  0  0
   68.5920   -7.1413   -6.8448 C   0  0  0  0  0  0  0  0  0  0  0  0
   69.0638   -4.8473   -5.1166 C   0  0  0  0  0  0  0  0  0  0  0  0
   69.0772   -3.7586   -4.2618 C   0  0  0  0  0  0  0  0  0  0  0  0
   70.0324   -2.0130   -1.8479 C   0  0  0  0  0  0  0  0  0  0  0  0
   71.2763   -2.3635   -2.4641 C   0  0  0  0  0  0  0  0  0  0  0  0
   72.2330   -1.6069   -1.8724 C   0  0  0  0  0  0  0  0  0  0  0  0
   70.2246   -1.0156   -0.9193 N   0  0  0  0  0  0  0  0  0  0  0  0
   71.5718   -0.8013   -0.8964 C   0  0  0  0  0  0  0  0  0  0  0  0
   72.2442   -0.0117    0.0432 C   0  0  0  0  0  0  0  0  0  0  0  0
   71.5558    0.8018    0.9496 C   0  0  0  0  0  0  0  0  0  0  0  0
   72.1923    1.5787    1.9642 C   0  0  0  0  0  0  0  0  0  0  0  0
   71.2327    2.3698    2.5060 C   0  0  0  0  0  0  0  0  0  0  0  0
   70.0179    2.0811    1.8069 C   0  0  0  0  0  0  0  0  0  0  0  0
   70.2163    1.0603    0.9064 N   0  0  0  0  0  0  0  0  0  0  0  0
   68.8463    2.8197    1.9203 C   0  0  0  0  0  0  0  0  0  0  0  0
   68.8345    4.0277    2.7678 C   0  0  0  0  0  0  0  0  0  0  0  0
   67.8921    4.1724    3.7892 C   0  0  0  0  0  0  0  0  0  0  0  0
   67.8823    5.2920    4.6021 C   0  0  0  0  0  0  0  0  0  0  0  0
   68.8214    6.3097    4.4072 C   0  0  0  0  0  0  0  0  0  0  0  0
   68.8244    7.4747    5.1564 N   0  0  0  0  0  0  0  0  0  0  0  0
   68.2366    7.4825    6.4889 C   0  0  0  0  0  0  0  0  0  0  0  0
   69.7564    6.1788    3.3722 C   0  0  0  0  0  0  0  0  0  0  0  0
   69.7663    5.0525    2.5728 C   0  0  0  0  0  0  0  0  0  0  0  0
   67.6812    2.4429    1.2603 C   0  0  0  0  0  0  0  0  0  0  0  0
   66.4674    3.1991    1.2647 C   0  0  0  0  0  0  0  0  0  0  0  0
   65.5118    2.4040    0.7210 C   0  0  0  0  0  0  0  0  0  0  0  0
   66.1467    1.1736    0.3779 C   0  0  0  0  0  0  0  0  0  0  0  0
   67.4860    1.2305    0.6423 N   0  0  0  0  0  0  0  0  0  0  0  0
   64.4465   -2.5248   -0.7614 H   0  0  0  0  0  0  0  0  0  0  0  0
   66.3339   -4.0630   -1.9074 H   0  0  0  0  0  0  0  0  0  0  0  0
   68.4630   -5.3398   -1.3312 H   0  0  0  0  0  0  0  0  0  0  0  0
   68.4408   -7.2851   -2.8402 H   0  0  0  0  0  0  0  0  0  0  0  0
   68.3687   -8.0485   -5.0009 H   0  0  0  0  0  0  0  0  0  0  0  0
   67.6540   -6.6089   -7.0402 H   0  0  0  0  0  0  0  0  0  0  0  0
   69.4127   -6.6128   -7.3312 H   0  0  0  0  0  0  0  0  0  0  0  0
   68.5293   -8.1466   -7.2614 H   0  0  0  0  0  0  0  0  0  0  0  0
   69.2413   -4.6917   -6.1736 H   0  0  0  0  0  0  0  0  0  0  0  0
   69.2466   -2.7660   -4.6649 H   0  0  0  0  0  0  0  0  0  0  0  0
   71.3984   -3.1128   -3.2290 H   0  0  0  0  0  0  0  0  0  0  0  0
   73.2945   -1.5964   -2.0605 H   0  0  0  0  0  0  0  0  0  0  0  0
   73.2383    1.5183    2.2186 H   0  0  0  0  0  0  0  0  0  0  0  0
   71.3309    3.0841    3.3073 H   0  0  0  0  0  0  0  0  0  0  0  0
   67.1722    3.3805    3.9655 H   0  0  0  0  0  0  0  0  0  0  0  0
   67.1418    5.3680    5.3889 H   0  0  0  0  0  0  0  0  0  0  0  0
   69.7087    7.9667    5.1184 H   0  0  0  0  0  0  0  0  0  0  0  0
   68.6414    6.6769    7.1122 H   0  0  0  0  0  0  0  0  0  0  0  0
   68.4621    8.4435    6.9510 H   0  0  0  0  0  0  0  0  0  0  0  0
   67.1534    7.3736    6.4208 H   0  0  0  0  0  0  0  0  0  0  0  0
   70.4767    6.9720    3.2013 H   0  0  0  0  0  0  0  0  0  0  0  0
   70.4889    4.9718    1.7682 H   0  0  0  0  0  0  0  0  0  0  0  0
   66.3674    4.2075    1.6320 H   0  0  0  0  0  0  0  0  0  0  0  0
   64.4692    2.6225    0.5607 H   0  0  0  0  0  0  0  0  0  0  0  0
   79.6580    0.0014    0.0249 Co  0  0  0  0  0  0  0  0  0  0  0  0
   76.2661   -0.0241    0.0688 C   0  0  0  0  0  0  0  0  0  0  0  0
   76.9481   -1.1122   -0.4866 C   0  0  0  0  0  0  0  0  0  0  0  0
   76.2942   -2.2626   -1.0232 C   0  0  0  0  0  0  0  0  0  0  0  0
   77.2465   -2.9896   -1.6574 C   0  0  0  0  0  0  0  0  0  0  0  0
   78.4814   -2.2839   -1.4954 C   0  0  0  0  0  0  0  0  0  0  0  0
   78.2900   -1.1552   -0.7319 N   0  0  0  0  0  0  0  0  0  0  0  0
   79.6478   -2.5802   -2.1882 C   0  0  0  0  0  0  0  0  0  0  0  0
   79.6493   -3.7133   -3.1404 C   0  0  0  0  0  0  0  0  0  0  0  0
   79.4316   -5.0190   -2.6928 C   0  0  0  0  0  0  0  0  0  0  0  0
   79.4469   -6.0802   -3.5780 C   0  0  0  0  0  0  0  0  0  0  0  0
   79.6747   -5.8650   -4.9428 C   0  0  0  0  0  0  0  0  0  0  0  0
   79.6294   -6.9539   -5.8006 N   0  0  0  0  0  0  0  0  0  0  0  0
   80.3296   -6.8943   -7.0768 C   0  0  0  0  0  0  0  0  0  0  0  0
   79.8736   -4.5581   -5.3976 C   0  0  0  0  0  0  0  0  0  0  0  0
   79.8683   -3.5020   -4.5025 C   0  0  0  0  0  0  0  0  0  0  0  0
   80.8167   -1.8494   -2.0097 C   0  0  0  0  0  0  0  0  0  0  0  0
   82.0472   -2.1293   -2.6839 C   0  0  0  0  0  0  0  0  0  0  0  0
   83.0056   -1.3950   -2.0679 C   0  0  0  0  0  0  0  0  0  0  0  0
   81.0164   -0.9139   -1.0208 N   0  0  0  0  0  0  0  0  0  0  0  0
   82.3626   -0.6780   -1.0152 C   0  0  0  0  0  0  0  0  0  0  0  0
   83.0545    0.0198   -0.0176 C   0  0  0  0  0  0  0  0  0  0  0  0
   82.3746    0.7251    0.9826 C   0  0  0  0  0  0  0  0  0  0  0  0
   83.0206    1.4189    2.0485 C   0  0  0  0  0  0  0  0  0  0  0  0
   82.0692    2.1662    2.6623 C   0  0  0  0  0  0  0  0  0  0  0  0
   80.8454    1.9273    1.9621 C   0  0  0  0  0  0  0  0  0  0  0  0
   81.0327    0.9854    0.9791 N   0  0  0  0  0  0  0  0  0  0  0  0
   79.6714    2.6450    2.1669 C   0  0  0  0  0  0  0  0  0  0  0  0
   79.6925    3.8025    3.0830 C   0  0  0  0  0  0  0  0  0  0  0  0
   78.8109    3.8842    4.1633 C   0  0  0  0  0  0  0  0  0  0  0  0
   78.8341    4.9659    5.0263 C   0  0  0  0  0  0  0  0  0  0  0  0
   79.7455    6.0068    4.8238 C   0  0  0  0  0  0  0  0  0  0  0  0
   79.7747    7.1393    5.6219 N   0  0  0  0  0  0  0  0  0  0  0  0
   79.2706    7.0768    6.9870 C   0  0  0  0  0  0  0  0  0  0  0  0
   80.6222    5.9368    3.7335 C   0  0  0  0  0  0  0  0  0  0  0  0
   80.6004    4.8479    2.8842 C   0  0  0  0  0  0  0  0  0  0  0  0
   78.4854    2.2983    1.5333 C   0  0  0  0  0  0  0  0  0  0  0  0
   77.2537    3.0146    1.6683 C   0  0  0  0  0  0  0  0  0  0  0  0
   76.2920    2.2474    1.0972 C   0  0  0  0  0  0  0  0  0  0  0  0
   76.9440    1.0783    0.6003 C   0  0  0  0  0  0  0  0  0  0  0  0
   78.2908    1.1444    0.8090 N   0  0  0  0  0  0  0  0  0  0  0  0
   75.2394   -2.4667   -0.9345 H   0  0  0  0  0  0  0  0  0  0  0  0
   77.1257   -3.9078   -2.2084 H   0  0  0  0  0  0  0  0  0  0  0  0
   79.2748   -5.2030   -1.6356 H   0  0  0  0  0  0  0  0  0  0  0  0
   79.2855   -7.0904   -3.2168 H   0  0  0  0  0  0  0  0  0  0  0  0
   79.7762   -7.8345   -5.3218 H   0  0  0  0  0  0  0  0  0  0  0  0
   79.8345   -6.1863   -7.7426 H   0  0  0  0  0  0  0  0  0  0  0  0
   81.3765   -6.5964   -6.9479 H   0  0  0  0  0  0  0  0  0  0  0  0
   80.2897   -7.8850   -7.5294 H   0  0  0  0  0  0  0  0  0  0  0  0
   80.0298   -4.3582   -6.4505 H   0  0  0  0  0  0  0  0  0  0  0  0
   80.0136   -2.4916   -4.8690 H   0  0  0  0  0  0  0  0  0  0  0  0
   82.1623   -2.8199   -3.5031 H   0  0  0  0  0  0  0  0  0  0  0  0
   84.0595   -1.3513   -2.2859 H   0  0  0  0  0  0  0  0  0  0  0  0
   84.0686    1.3410    2.2858 H   0  0  0  0  0  0  0  0  0  0  0  0
   82.1777    2.8170    3.5146 H   0  0  0  0  0  0  0  0  0  0  0  0
   78.1134    3.0736    4.3445 H   0  0  0  0  0  0  0  0  0  0  0  0
   78.1401    4.9944    5.8574 H   0  0  0  0  0  0  0  0  0  0  0  0
   80.6495    7.6452    5.5548 H   0  0  0  0  0  0  0  0  0  0  0  0
   79.7253    6.2515    7.5467 H   0  0  0  0  0  0  0  0  0  0  0  0
   79.5100    8.0201    7.4779 H   0  0  0  0  0  0  0  0  0  0  0  0
   78.1870    6.9520    6.9804 H   0  0  0  0  0  0  0  0  0  0  0  0
   81.3218    6.7475    3.5590 H   0  0  0  0  0  0  0  0  0  0  0  0
   81.2785    4.8123    2.0387 H   0  0  0  0  0  0  0  0  0  0  0  0
   77.1467    3.9784    2.1386 H   0  0  0  0  0  0  0  0  0  0  0  0
   75.2354    2.4444    1.0122 H   0  0  0  0  0  0  0  0  0  0  0  0
  2  3  4  0  0  0  0
  3  4  4  0  0  0  0
  4  5  2  0  0  0  0
  5  6  4  0  0  0  0
  1  7  1  0  0  0  0
  3  7  4  0  0  0  0
  6  7  4  0  0  0  0
  6  8  4  0  0  0  0
  8  9  1  0  0  0  0
  9 10  4  0  0  0  0
 10 11  4  0  0  0  0
 11 12  4  0  0  0  0
 12 13  1  0  0  0  0
 13 14  1  0  0  0  0
 12 15  4  0  0  0  0
  9 16  4  0  0  0  0
 15 16  4  0  0  0  0
  8 17  4  0  0  0  0
 17 18  4  0  0  0  0
 18 19  2  0  0  0  0
  1 20  1  0  0  0  0
 17 20  4  0  0  0  0
 19 21  4  0  0  0  0
 20 21  4  0  0  0  0
 21 22  4  0  0  0  0
 22 23  4  0  0  0  0
 23 24  4  0  0  0  0
 24 25  2  0  0  0  0
 25 26  4  0  0  0  0
  1 27  1  0  0  0  0
 23 27  4  0  0  0  0
 26 27  4  0  0  0  0
 26 28  4  0  0  0  0
 28 29  1  0  0  0  0
 29 30  4  0  0  0  0
 30 31  4  0  0  0  0
 31 32  4  0  0  0  0
 32 33  1  0  0  0  0
 33 34  1  0  0  0  0
 32 35  4  0  0  0  0
 29 36  4  0  0  0  0
 35 36  4  0  0  0  0
 28 37  4  0  0  0  0
 37 38  4  0  0  0  0
 38 39  2  0  0  0  0
  2 40  4  0  0  0  0
 39 40  4  0  0  0  0
  1 41  1  0  0  0  0
 37 41  4  0  0  0  0
 40 41  4  0  0  0  0
  2 42  1  0  0  0  0
  4 43  1  0  0  0  0
  5 44  1  0  0  0  0
 10 45  1  0  0  0  0
 11 46  1  0  0  0  0
 13 47  1  0  0  0  0
 14 48  1  0  0  0  0
 14 49  1  0  0  0  0
 14 50  1  0  0  0  0
 15 51  1  0  0  0  0
 16 52  1  0  0  0  0
 18 53  1  0  0  0  0
 19 54  1  0  0  0  0
 24 55  1  0  0  0  0
 25 56  1  0  0  0  0
 30 57  1  0  0  0  0
 31 58  1  0  0  0  0
 33 59  1  0  0  0  0
 34 60  1  0  0  0  0
 34 61  1  0  0  0  0
 34 62  1  0  0  0  0
 35 63  1  0  0  0  0
 36 64  1  0  0  0  0
 38 65  1  0  0  0  0
 39 66  1  0  0  0  0
 68 69  4  0  0  0  0
 69 70  4  0  0  0  0
 70 71  2  0  0  0  0
 71 72  4  0  0  0  0
 67 73  1  0  0  0  0
 69 73  4  0  0  0  0
 72 73  4  0  0  0  0
 72 74  4  0  0  0  0
 74 75  1  0  0  0  0
 75 76  4  0  0  0  0
 76 77  4  0  0  0  0
 77 78  4  0  0  0  0
 78 79  1  0  0  0  0
 79 80  1  0  0  0  0
 78 81  4  0  0  0  0
 75 82  4  0  0  0  0
 81 82  4  0  0  0  0
 74 83  4  0  0  0  0
 83 84  4  0  0  0  0
 84 85  2  0  0  0  0
 67 86  1  0  0  0  0
 83 86  4  0  0  0  0
 85 87  4  0  0  0  0
 86 87  4  0  0  0  0
 87 88  4  0  0  0  0
 88 89  4  0  0  0  0
 89 90  4  0  0  0  0
 90 91  2  0  0  0  0
 91 92  4  0  0  0  0
 67 93  1  0  0  0  0
 89 93  4  0  0  0  0
 92 93  4  0  0  0  0
 92 94  4  0  0  0  0
 94 95  1  0  0  0  0
 95 96  4  0  0  0  0
 96 97  4  0  0  0  0
 97 98  4  0  0  0  0
 98 99  1  0  0  0  0
 99100  1  0  0  0  0
 98101  4  0  0  0  0
 95102  4  0  0  0  0
101102  4  0  0  0  0
 94103  4  0  0  0  0
103104  4  0  0  0  0
104105  2  0  0  0  0
 68106  4  0  0  0  0
105106  4  0  0  0  0
 67107  1  0  0  0  0
103107  4  0  0  0  0
106107  4  0  0  0  0
 68108  1  0  0  0  0
 70109  1  0  0  0  0
 71110  1  0  0  0  0
 76111  1  0  0  0  0
 77112  1  0  0  0  0
 79113  1  0  0  0  0
 80114  1  0  0  0  0
 80115  1  0  0  0  0
 80116  1  0  0  0  0
 81117  1  0  0  0  0
 82118  1  0  0  0  0
 84119  1  0  0  0  0
 85120  1  0  0  0  0
 90121  1  0  0  0  0
 91122  1  0  0  0  0
 96123  1  0  0  0  0
 97124  1  0  0  0  0
 99125  1  0  0  0  0
100126  1  0  0  0  0
100127  1  0  0  0  0
100128  1  0  0  0  0
101129  1  0  0  0  0
102130  1  0  0  0  0
104131  1  0  0  0  0
105132  1  0  0  0  0
 22133  4  0  0  0  0
133134  3  0  0  0  0
135136  3  0  0  0  0
 88138  4  0  0  0  0
137138  3  0  0  0  0
134140  4  0  0  0  0
140141  4  0  0  0  0
141142  4  0  0  0  0
142143  2  0  0  0  0
143144  4  0  0  0  0
139145  1  0  0  0  0
141145  4  0  0  0  0
144145  4  0  0  0  0
144146  4  0  0  0  0
146147  1  0  0  0  0
147148  4  0  0  0  0
148149  4  0  0  0  0
149150  4  0  0  0  0
150151  1  0  0  0  0
151152  1  0  0  0  0
150153  4  0  0  0  0
147154  4  0  0  0  0
153154  4  0  0  0  0
146155  4  0  0  0  0
155156  4  0  0  0  0
156157  2  0  0  0  0
139158  1  0  0  0  0
155158  4  0  0  0  0
157159  4  0  0  0  0
158159  4  0  0  0  0
135160  4  0  0  0  0
159160  4  0  0  0  0
160161  4  0  0  0  0
161162  4  0  0  0  0
162163  2  0  0  0  0
163164  4  0  0  0  0
139165  1  0  0  0  0
161165  4  0  0  0  0
164165  4  0  0  0  0
164166  4  0  0  0  0
166167  1  0  0  0  0
167168  4  0  0  0  0
168169  4  0  0  0  0
169170  4  0  0  0  0
170171  1  0  0  0  0
171172  1  0  0  0  0
170173  4  0  0  0  0
167174  4  0  0  0  0
173174  4  0  0  0  0
166175  4  0  0  0  0
175176  4  0  0  0  0
176177  2  0  0  0  0
140178  4  0  0  0  0
177178  4  0  0  0  0
139179  1  0  0  0  0
175179  4  0  0  0  0
178179  4  0  0  0  0
142180  1  0  0  0  0
143181  1  0  0  0  0
148182  1  0  0  0  0
149183  1  0  0  0  0
151184  1  0  0  0  0
152185  1  0  0  0  0
152186  1  0  0  0  0
152187  1  0  0  0  0
153188  1  0  0  0  0
154189  1  0  0  0  0
156190  1  0  0  0  0
157191  1  0  0  0  0
162192  1  0  0  0  0
163193  1  0  0  0  0
168194  1  0  0  0  0
169195  1  0  0  0  0
171196  1  0  0  0  0
172197  1  0  0  0  0
172198  1  0  0  0  0
172199  1  0  0  0  0
173200  1  0  0  0  0
174201  1  0  0  0  0
176202  1  0  0  0  0
177203  1  0  0  0  0
136205  4  0  0  0  0
205206  4  0  0  0  0
206207  4  0  0  0  0
207208  2  0  0  0  0
208209  4  0  0  0  0
204210  1  0  0  0  0
206210  4  0  0  0  0
209210  4  0  0  0  0
209211  4  0  0  0  0
211212  1  0  0  0  0
212213  4  0  0  0  0
213214  4  0  0  0  0
214215  4  0  0  0  0
215216  1  0  0  0  0
216217  1  0  0  0  0
215218  4  0  0  0  0
212219  4  0  0  0  0
218219  4  0  0  0  0
211220  4  0  0  0  0
220221  4  0  0  0  0
221222  2  0  0  0  0
204223  1  0  0  0  0
220223  4  0  0  0  0
222224  4  0  0  0  0
223224  4  0  0  0  0
137225  4  0  0  0  0
224225  4  0  0  0  0
225226  4  0  0  0  0
226227  4  0  0  0  0
227228  2  0  0  0  0
228229  4  0  0  0  0
204230  1  0  0  0  0
226230  4  0  0  0  0
229230  4  0  0  0  0
229231  4  0  0  0  0
231232  1  0  0  0  0
232233  4  0  0  0  0
233234  4  0  0  0  0
234235  4  0  0  0  0
235236  1  0  0  0  0
236237  1  0  0  0  0
235238  4  0  0  0  0
232239  4  0  0  0  0
238239  4  0  0  0  0
231240  4  0  0  0  0
240241  4  0  0  0  0
241242  2  0  0  0  0
205243  4  0  0  0  0
242243  4  0  0  0  0
204244  1  0  0  0  0
240244  4  0  0  0  0
243244  4  0  0  0  0
207245  1  0  0  0  0
208246  1  0  0  0  0
213247  1  0  0  0  0
214248  1  0  0  0  0
216249  1  0  0  0  0
217250  1  0  0  0  0
217251  1  0  0  0  0
217252  1  0  0  0  0
218253  1  0  0  0  0
219254  1  0  0  0  0
221255  1  0  0  0  0
222256  1  0  0  0  0
227257  1  0  0  0  0
228258  1  0  0  0  0
233259  1  0  0  0  0
234260  1  0  0  0  0
236261  1  0  0  0  0
237262  1  0  0  0  0
237263  1  0  0  0  0
237264  1  0  0  0  0
238265  1  0  0  0  0
239266  1  0  0  0  0
241267  1  0  0  0  0
242268  1  0  0  0  0
M  END
