 xtb: 6.5.1 (b24c23e)
          07302204423D

112131  0     0  0            999 V2000
   12.3603   -0.0450    0.0006 Cu  0  0  0  0  0  0  0  0  0  0  0  0
    8.9542   -0.0681   -0.0167 C   0  0  0  0  0  0  0  0  0  0  0  0
    9.5851   -1.2981    0.0941 C   0  0  0  0  0  0  0  0  0  0  0  0
    8.9064   -2.5552    0.2293 C   0  0  0  0  0  0  0  0  0  0  0  0
    9.8624   -3.5113    0.3326 C   0  0  0  0  0  0  0  0  0  0  0  0
   11.1350   -2.8467    0.2538 C   0  0  0  0  0  0  0  0  0  0  0  0
   10.9353   -1.5037    0.1135 N   0  0  0  0  0  0  0  0  0  0  0  0
   12.3781   -3.4768    0.3481 C   0  0  0  0  0  0  0  0  0  0  0  0
   12.3858   -4.9518    0.5048 C   0  0  0  0  0  0  0  0  0  0  0  0
   12.8974   -5.5540    1.6536 C   0  0  0  0  0  0  0  0  0  0  0  0
   12.8795   -6.9359    1.7576 C   0  0  0  0  0  0  0  0  0  0  0  0
   12.3978   -7.7278    0.8049 N   0  0  0  0  0  0  0  0  0  0  0  0
   11.9107   -7.1619   -0.2947 C   0  0  0  0  0  0  0  0  0  0  0  0
   11.8806   -5.7897   -0.4884 C   0  0  0  0  0  0  0  0  0  0  0  0
   13.6135   -2.8279    0.3110 C   0  0  0  0  0  0  0  0  0  0  0  0
   14.8891   -3.4843    0.3681 C   0  0  0  0  0  0  0  0  0  0  0  0
   15.8381   -2.5183    0.2791 C   0  0  0  0  0  0  0  0  0  0  0  0
   13.8062   -1.4782    0.1785 N   0  0  0  0  0  0  0  0  0  0  0  0
   15.1504   -1.2675    0.1596 C   0  0  0  0  0  0  0  0  0  0  0  0
   15.7895   -0.0228    0.0238 C   0  0  0  0  0  0  0  0  0  0  0  0
   15.1353    1.2133   -0.1184 C   0  0  0  0  0  0  0  0  0  0  0  0
   15.8080    2.4662   -0.2888 C   0  0  0  0  0  0  0  0  0  0  0  0
   14.8479    3.4195   -0.3936 C   0  0  0  0  0  0  0  0  0  0  0  0
   13.5803    2.7552   -0.2785 C   0  0  0  0  0  0  0  0  0  0  0  0
   13.7888    1.4104   -0.1223 N   0  0  0  0  0  0  0  0  0  0  0  0
   12.3368    3.3872   -0.3422 C   0  0  0  0  0  0  0  0  0  0  0  0
   12.3261    4.8625   -0.4907 C   0  0  0  0  0  0  0  0  0  0  0  0
   11.7540    5.4737   -1.6061 C   0  0  0  0  0  0  0  0  0  0  0  0
   11.7687    6.8561   -1.7019 C   0  0  0  0  0  0  0  0  0  0  0  0
   12.3036    7.6412   -0.7721 N   0  0  0  0  0  0  0  0  0  0  0  0
   12.8492    7.0671    0.2952 C   0  0  0  0  0  0  0  0  0  0  0  0
   12.8862    5.6938    0.4787 C   0  0  0  0  0  0  0  0  0  0  0  0
   11.1012    2.7383   -0.2774 C   0  0  0  0  0  0  0  0  0  0  0  0
    9.8207    3.3922   -0.2933 C   0  0  0  0  0  0  0  0  0  0  0  0
    8.8767    2.4227   -0.2051 C   0  0  0  0  0  0  0  0  0  0  0  0
    9.5709    1.1693   -0.1252 C   0  0  0  0  0  0  0  0  0  0  0  0
   10.9182    1.3903   -0.1640 N   0  0  0  0  0  0  0  0  0  0  0  0
    7.8691   -0.0733   -0.0082 H   0  0  0  0  0  0  0  0  0  0  0  0
    7.8347   -2.6764    0.2480 H   0  0  0  0  0  0  0  0  0  0  0  0
    9.7249   -4.5727    0.4625 H   0  0  0  0  0  0  0  0  0  0  0  0
   13.2899   -4.9474    2.4610 H   0  0  0  0  0  0  0  0  0  0  0  0
   13.2680   -7.4276    2.6447 H   0  0  0  0  0  0  0  0  0  0  0  0
   11.5274   -7.8350   -1.0560 H   0  0  0  0  0  0  0  0  0  0  0  0
   11.4839   -5.3732   -1.4067 H   0  0  0  0  0  0  0  0  0  0  0  0
   15.0360   -4.5489    0.4525 H   0  0  0  0  0  0  0  0  0  0  0  0
   16.9102   -2.6334    0.2867 H   0  0  0  0  0  0  0  0  0  0  0  0
   16.8785    2.5894   -0.3285 H   0  0  0  0  0  0  0  0  0  0  0  0
   14.9826    4.4777   -0.5482 H   0  0  0  0  0  0  0  0  0  0  0  0
   11.3179    4.8734   -2.3958 H   0  0  0  0  0  0  0  0  0  0  0  0
   11.3326    7.3541   -2.5632 H   0  0  0  0  0  0  0  0  0  0  0  0
   13.2762    7.7344    1.0383 H   0  0  0  0  0  0  0  0  0  0  0  0
   13.3307    5.2714    1.3720 H   0  0  0  0  0  0  0  0  0  0  0  0
    9.6698    4.4581   -0.3512 H   0  0  0  0  0  0  0  0  0  0  0  0
    7.8039    2.5331   -0.1876 H   0  0  0  0  0  0  0  0  0  0  0  0
   25.8257    0.0443   -0.0113 Cu  0  0  0  0  0  0  0  0  0  0  0  0
   29.2317    0.0606   -0.0342 C   0  0  0  0  0  0  0  0  0  0  0  0
   28.6010    1.2709   -0.2799 C   0  0  0  0  0  0  0  0  0  0  0  0
   29.2801    2.5142   -0.5093 C   0  0  0  0  0  0  0  0  0  0  0  0
   28.3243    3.4592   -0.6887 C   0  0  0  0  0  0  0  0  0  0  0  0
   27.0515    2.7995   -0.5780 C   0  0  0  0  0  0  0  0  0  0  0  0
   27.2509    1.4731   -0.3245 N   0  0  0  0  0  0  0  0  0  0  0  0
   25.8085    3.4289   -0.6769 C   0  0  0  0  0  0  0  0  0  0  0  0
   25.8009    4.8855   -0.9566 C   0  0  0  0  0  0  0  0  0  0  0  0
   25.2791    5.7955   -0.0380 C   0  0  0  0  0  0  0  0  0  0  0  0
   25.2978    7.1478   -0.3408 C   0  0  0  0  0  0  0  0  0  0  0  0
   25.7895    7.6287   -1.4782 N   0  0  0  0  0  0  0  0  0  0  0  0
   26.2863    6.7677   -2.3606 C   0  0  0  0  0  0  0  0  0  0  0  0
   26.3165    5.3988   -2.1460 C   0  0  0  0  0  0  0  0  0  0  0  0
   24.5728    2.7963   -0.5289 C   0  0  0  0  0  0  0  0  0  0  0  0
   23.2973    3.4395   -0.6726 C   0  0  0  0  0  0  0  0  0  0  0  0
   22.3482    2.4896   -0.4762 C   0  0  0  0  0  0  0  0  0  0  0  0
   24.3799    1.4672   -0.2596 N   0  0  0  0  0  0  0  0  0  0  0  0
   23.0357    1.2595   -0.2196 C   0  0  0  0  0  0  0  0  0  0  0  0
   22.3964    0.0302    0.0177 C   0  0  0  0  0  0  0  0  0  0  0  0
   23.0505   -1.1930    0.2462 C   0  0  0  0  0  0  0  0  0  0  0  0
   22.3774   -2.4400    0.4547 C   0  0  0  0  0  0  0  0  0  0  0  0
   23.3374   -3.3828    0.6309 C   0  0  0  0  0  0  0  0  0  0  0  0
   24.6052   -2.7152    0.5402 C   0  0  0  0  0  0  0  0  0  0  0  0
   24.3970   -1.3836    0.2958 N   0  0  0  0  0  0  0  0  0  0  0  0
   25.8485   -3.3399    0.6562 C   0  0  0  0  0  0  0  0  0  0  0  0
   25.8587   -4.7947    0.9433 C   0  0  0  0  0  0  0  0  0  0  0  0
   26.4194   -5.7057    0.0487 C   0  0  0  0  0  0  0  0  0  0  0  0
   26.4045   -7.0560    0.3601 C   0  0  0  0  0  0  0  0  0  0  0  0
   25.8801   -7.5347    1.4838 N   0  0  0  0  0  0  0  0  0  0  0  0
   25.3453   -6.6732    2.3430 C   0  0  0  0  0  0  0  0  0  0  0  0
   25.3093   -5.3059    2.1185 C   0  0  0  0  0  0  0  0  0  0  0  0
   27.0843   -2.7018    0.5233 C   0  0  0  0  0  0  0  0  0  0  0  0
   28.3648   -3.3345    0.6891 C   0  0  0  0  0  0  0  0  0  0  0  0
   29.3090   -2.3811    0.4931 C   0  0  0  0  0  0  0  0  0  0  0  0
   28.6150   -1.1563    0.2148 C   0  0  0  0  0  0  0  0  0  0  0  0
   27.2675   -1.3780    0.2450 N   0  0  0  0  0  0  0  0  0  0  0  0
   30.3168    0.0679   -0.0274 H   0  0  0  0  0  0  0  0  0  0  0  0
   30.3517    2.6361   -0.5222 H   0  0  0  0  0  0  0  0  0  0  0  0
   28.4622    4.5132   -0.8689 H   0  0  0  0  0  0  0  0  0  0  0  0
   24.8779    5.4497    0.9074 H   0  0  0  0  0  0  0  0  0  0  0  0
   24.9004    7.8758    0.3607 H   0  0  0  0  0  0  0  0  0  0  0  0
   26.6783    7.1907   -3.2810 H   0  0  0  0  0  0  0  0  0  0  0  0
   26.7215    4.7336   -2.8995 H   0  0  0  0  0  0  0  0  0  0  0  0
   23.1505    4.4814   -0.9066 H   0  0  0  0  0  0  0  0  0  0  0  0
   21.2761    2.6011   -0.5067 H   0  0  0  0  0  0  0  0  0  0  0  0
   21.3068   -2.5686    0.4573 H   0  0  0  0  0  0  0  0  0  0  0  0
   23.2025   -4.4396    0.7951 H   0  0  0  0  0  0  0  0  0  0  0  0
   26.8468   -5.3626   -0.8861 H   0  0  0  0  0  0  0  0  0  0  0  0
   26.8315   -7.7845   -0.3233 H   0  0  0  0  0  0  0  0  0  0  0  0
   24.9268   -7.0939    3.2527 H   0  0  0  0  0  0  0  0  0  0  0  0
   24.8738   -4.6403    2.8544 H   0  0  0  0  0  0  0  0  0  0  0  0
   28.5156   -4.3728    0.9366 H   0  0  0  0  0  0  0  0  0  0  0  0
   30.3819   -2.4831    0.5368 H   0  0  0  0  0  0  0  0  0  0  0  0
   18.4179   -0.0020    0.0202 C   0  0  0  0  0  0  0  0  0  0  0  0
   17.1963   -0.0143    0.0207 C   0  0  0  0  0  0  0  0  0  0  0  0
   19.7682    0.0100    0.0196 C   0  0  0  0  0  0  0  0  0  0  0  0
   20.9896    0.0214    0.0186 C   0  0  0  0  0  0  0  0  0  0  0  0
  2  3  4  0  0  0  0
  3  4  1  0  0  0  0
  4  5  2  0  0  0  0
  5  6  4  0  0  0  0
  1  7  1  0  0  0  0
  3  7  4  0  0  0  0
  6  7  4  0  0  0  0
  6  8  4  0  0  0  0
  8  9  1  0  0  0  0
  9 10  4  0  0  0  0
 10 11  4  0  0  0  0
 11 12  4  0  0  0  0
 12 13  4  0  0  0  0
  9 14  4  0  0  0  0
 13 14  4  0  0  0  0
  8 15  4  0  0  0  0
 15 16  4  0  0  0  0
 16 17  2  0  0  0  0
  1 18  1  0  0  0  0
 15 18  4  0  0  0  0
 17 19  4  0  0  0  0
 18 19  4  0  0  0  0
 19 20  4  0  0  0  0
 20 21  4  0  0  0  0
 21 22  4  0  0  0  0
 22 23  2  0  0  0  0
 23 24  4  0  0  0  0
  1 25  1  0  0  0  0
 21 25  4  0  0  0  0
 24 25  4  0  0  0  0
 24 26  4  0  0  0  0
 26 27  1  0  0  0  0
 27 28  4  0  0  0  0
 28 29  4  0  0  0  0
 29 30  4  0  0  0  0
 30 31  4  0  0  0  0
 27 32  4  0  0  0  0
 31 32  4  0  0  0  0
 26 33  4  0  0  0  0
 33 34  4  0  0  0  0
 34 35  2  0  0  0  0
  2 36  4  0  0  0  0
 35 36  1  0  0  0  0
  1 37  1  0  0  0  0
 33 37  4  0  0  0  0
 36 37  4  0  0  0  0
  2 38  1  0  0  0  0
  4 39  1  0  0  0  0
  5 40  1  0  0  0  0
 10 41  1  0  0  0  0
 11 42  1  0  0  0  0
 13 43  1  0  0  0  0
 14 44  1  0  0  0  0
 16 45  1  0  0  0  0
 17 46  1  0  0  0  0
 22 47  1  0  0  0  0
 23 48  1  0  0  0  0
 28 49  1  0  0  0  0
 29 50  1  0  0  0  0
 31 51  1  0  0  0  0
 32 52  1  0  0  0  0
 34 53  1  0  0  0  0
 35 54  1  0  0  0  0
 56 57  4  0  0  0  0
 57 58  1  0  0  0  0
 58 59  2  0  0  0  0
 59 60  4  0  0  0  0
 55 61  1  0  0  0  0
 57 61  4  0  0  0  0
 60 61  4  0  0  0  0
 60 62  4  0  0  0  0
 62 63  1  0  0  0  0
 63 64  4  0  0  0  0
 64 65  4  0  0  0  0
 65 66  4  0  0  0  0
 66 67  4  0  0  0  0
 63 68  4  0  0  0  0
 67 68  4  0  0  0  0
 62 69  4  0  0  0  0
 69 70  4  0  0  0  0
 70 71  2  0  0  0  0
 55 72  1  0  0  0  0
 69 72  4  0  0  0  0
 71 73  4  0  0  0  0
 72 73  4  0  0  0  0
 73 74  4  0  0  0  0
 74 75  4  0  0  0  0
 75 76  4  0  0  0  0
 76 77  2  0  0  0  0
 77 78  4  0  0  0  0
 55 79  1  0  0  0  0
 75 79  4  0  0  0  0
 78 79  4  0  0  0  0
 78 80  4  0  0  0  0
 80 81  1  0  0  0  0
 81 82  4  0  0  0  0
 82 83  4  0  0  0  0
 83 84  4  0  0  0  0
 84 85  4  0  0  0  0
 81 86  4  0  0  0  0
 85 86  4  0  0  0  0
 80 87  4  0  0  0  0
 87 88  4  0  0  0  0
 88 89  2  0  0  0  0
 56 90  4  0  0  0  0
 89 90  1  0  0  0  0
 55 91  1  0  0  0  0
 87 91  4  0  0  0  0
 90 91  4  0  0  0  0
 56 92  1  0  0  0  0
 58 93  1  0  0  0  0
 59 94  1  0  0  0  0
 64 95  1  0  0  0  0
 65 96  1  0  0  0  0
 67 97  1  0  0  0  0
 68 98  1  0  0  0  0
 70 99  1  0  0  0  0
 71100  1  0  0  0  0
 76101  1  0  0  0  0
 77102  1  0  0  0  0
 82103  1  0  0  0  0
 83104  1  0  0  0  0
 85105  1  0  0  0  0
 86106  1  0  0  0  0
 88107  1  0  0  0  0
 89108  1  0  0  0  0
 20110  4  0  0  0  0
109110  3  0  0  0  0
109111  4  0  0  0  0
 74112  4  0  0  0  0
111112  3  0  0  0  0
M  END
