 xtb: 6.5.1 (b24c23e)
          07302211103D

189218  0     0  0            999 V2000
   27.1413   -0.1445   -0.1151 Zn  0  0  0  0  0  0  0  0  0  0  0  0
   23.7212   -0.1000   -0.0928 C   0  0  0  0  0  0  0  0  0  0  0  0
   24.3572    0.7719    0.7823 C   0  0  0  0  0  0  0  0  0  0  0  0
   23.6946    1.6751    1.6810 C   0  0  0  0  0  0  0  0  0  0  0  0
   24.6634    2.3451    2.3557 C   0  0  0  0  0  0  0  0  0  0  0  0
   25.9254    1.8566    1.8747 C   0  0  0  0  0  0  0  0  0  0  0  0
   25.7107    0.9077    0.9261 N   0  0  0  0  0  0  0  0  0  0  0  0
   27.1864    2.2966    2.3194 C   0  0  0  0  0  0  0  0  0  0  0  0
   27.2018    3.2996    3.3139 C   0  0  0  0  0  0  0  0  0  0  0  0
   27.2071    4.1637    4.1662 C   0  0  0  0  0  0  0  0  0  0  0  0
   27.2098    5.1714    5.1572 C   0  0  0  0  0  0  0  0  0  0  0  0
   28.4067    5.6951    5.6601 C   0  0  0  0  0  0  0  0  0  0  0  0
   28.3525    6.6819    6.6281 C   0  0  0  0  0  0  0  0  0  0  0  0
   27.2108    7.1649    7.1121 N   0  0  0  0  0  0  0  0  0  0  0  0
   26.0685    6.6721    6.6396 C   0  0  0  0  0  0  0  0  0  0  0  0
   26.0133    5.6850    5.6720 C   0  0  0  0  0  0  0  0  0  0  0  0
   28.4293    1.8265    1.8589 C   0  0  0  0  0  0  0  0  0  0  0  0
   29.7044    2.2863    2.3263 C   0  0  0  0  0  0  0  0  0  0  0  0
   30.6516    1.5933    1.6419 C   0  0  0  0  0  0  0  0  0  0  0  0
   28.6165    0.8690    0.9052 N   0  0  0  0  0  0  0  0  0  0  0  0
   29.9605    0.7067    0.7524 C   0  0  0  0  0  0  0  0  0  0  0  0
   30.5857   -0.1889   -0.1380 C   0  0  0  0  0  0  0  0  0  0  0  0
   29.9258   -1.0674   -1.0205 C   0  0  0  0  0  0  0  0  0  0  0  0
   30.5819   -1.9721   -1.9182 C   0  0  0  0  0  0  0  0  0  0  0  0
   29.6082   -2.6421   -2.5880 C   0  0  0  0  0  0  0  0  0  0  0  0
   28.3517   -2.1499   -2.1037 C   0  0  0  0  0  0  0  0  0  0  0  0
   28.5762   -1.1956   -1.1548 N   0  0  0  0  0  0  0  0  0  0  0  0
   27.0912   -2.5908   -2.5443 C   0  0  0  0  0  0  0  0  0  0  0  0
   27.0671   -3.6010   -3.5315 C   0  0  0  0  0  0  0  0  0  0  0  0
   27.0381   -4.4736   -4.3745 C   0  0  0  0  0  0  0  0  0  0  0  0
   26.9996   -5.4937   -5.3520 C   0  0  0  0  0  0  0  0  0  0  0  0
   28.1749   -6.0436   -5.8777 C   0  0  0  0  0  0  0  0  0  0  0  0
   28.0801   -7.0427   -6.8298 C   0  0  0  0  0  0  0  0  0  0  0  0
   26.9189   -7.5141   -7.2775 N   0  0  0  0  0  0  0  0  0  0  0  0
   25.7971   -6.9962   -6.7831 C   0  0  0  0  0  0  0  0  0  0  0  0
   25.7824   -5.9948   -5.8289 C   0  0  0  0  0  0  0  0  0  0  0  0
   25.8479   -2.1170   -2.0843 C   0  0  0  0  0  0  0  0  0  0  0  0
   24.5675   -2.5738   -2.5474 C   0  0  0  0  0  0  0  0  0  0  0  0
   23.6254   -1.8766   -1.8627 C   0  0  0  0  0  0  0  0  0  0  0  0
   24.3230   -0.9888   -0.9752 C   0  0  0  0  0  0  0  0  0  0  0  0
   25.6705   -1.1602   -1.1361 N   0  0  0  0  0  0  0  0  0  0  0  0
   22.6356   -0.0859   -0.0858 H   0  0  0  0  0  0  0  0  0  0  0  0
   22.6247    1.7750    1.7750 H   0  0  0  0  0  0  0  0  0  0  0  0
   24.5451    3.1037    3.1132 H   0  0  0  0  0  0  0  0  0  0  0  0
   29.3591    5.3310    5.2940 H   0  0  0  0  0  0  0  0  0  0  0  0
   29.2658    7.1061    7.0353 H   0  0  0  0  0  0  0  0  0  0  0  0
   25.1556    7.0882    7.0560 H   0  0  0  0  0  0  0  0  0  0  0  0
   25.0605    5.3125    5.3154 H   0  0  0  0  0  0  0  0  0  0  0  0
   29.8482    3.0424    3.0817 H   0  0  0  0  0  0  0  0  0  0  0  0
   31.7239    1.6701    1.7258 H   0  0  0  0  0  0  0  0  0  0  0  0
   31.6506   -2.0759   -2.0175 H   0  0  0  0  0  0  0  0  0  0  0  0
   29.7224   -3.4025   -3.3442 H   0  0  0  0  0  0  0  0  0  0  0  0
   29.1420   -5.6899   -5.5412 H   0  0  0  0  0  0  0  0  0  0  0  0
   28.9759   -7.4873   -7.2540 H   0  0  0  0  0  0  0  0  0  0  0  0
   24.8673   -7.4035   -7.1700 H   0  0  0  0  0  0  0  0  0  0  0  0
   24.8451   -5.6022   -5.4534 H   0  0  0  0  0  0  0  0  0  0  0  0
   24.4197   -3.3312   -3.3010 H   0  0  0  0  0  0  0  0  0  0  0  0
   22.5521   -1.9486   -1.9428 H   0  0  0  0  0  0  0  0  0  0  0  0
   64.4088   -0.2067   -0.1299 Zn  0  0  0  0  0  0  0  0  0  0  0  0
   67.8286   -0.2459   -0.1598 C   0  0  0  0  0  0  0  0  0  0  0  0
   67.1937   -1.4447   -0.4603 C   0  0  0  0  0  0  0  0  0  0  0  0
   67.8572   -2.6781   -0.7781 C   0  0  0  0  0  0  0  0  0  0  0  0
   66.8891   -3.6015   -1.0079 C   0  0  0  0  0  0  0  0  0  0  0  0
   65.6268   -2.9398   -0.8320 C   0  0  0  0  0  0  0  0  0  0  0  0
   65.8404   -1.6391   -0.5017 N   0  0  0  0  0  0  0  0  0  0  0  0
   64.3662   -3.5483   -0.9804 C   0  0  0  0  0  0  0  0  0  0  0  0
   64.3497   -4.9155   -1.3352 C   0  0  0  0  0  0  0  0  0  0  0  0
   64.3389   -6.0889   -1.6447 C   0  0  0  0  0  0  0  0  0  0  0  0
   64.3283   -7.4547   -2.0082 C   0  0  0  0  0  0  0  0  0  0  0  0
   63.1268   -8.1495   -2.1913 C   0  0  0  0  0  0  0  0  0  0  0  0
   63.1724   -9.4849   -2.5495 C   0  0  0  0  0  0  0  0  0  0  0  0
   64.3098  -10.1515   -2.7311 N   0  0  0  0  0  0  0  0  0  0  0  0
   65.4563   -9.4983   -2.5587 C   0  0  0  0  0  0  0  0  0  0  0  0
   65.5202   -8.1635   -2.2010 C   0  0  0  0  0  0  0  0  0  0  0  0
   63.1231   -2.9131   -0.8095 C   0  0  0  0  0  0  0  0  0  0  0  0
   61.8485   -3.5511   -0.9634 C   0  0  0  0  0  0  0  0  0  0  0  0
   60.9009   -2.6089   -0.7188 C   0  0  0  0  0  0  0  0  0  0  0  0
   62.9353   -1.6036   -0.4758 N   0  0  0  0  0  0  0  0  0  0  0  0
   61.5914   -1.3901   -0.4143 C   0  0  0  0  0  0  0  0  0  0  0  0
   60.9648   -0.1662   -0.1044 C   0  0  0  0  0  0  0  0  0  0  0  0
   61.6230    1.0422    0.1986 C   0  0  0  0  0  0  0  0  0  0  0  0
   60.9659    2.2760    0.5154 C   0  0  0  0  0  0  0  0  0  0  0  0
   61.9389    3.1955    0.7467 C   0  0  0  0  0  0  0  0  0  0  0  0
   63.1959    2.5283    0.5720 C   0  0  0  0  0  0  0  0  0  0  0  0
   62.9725    1.2241    0.2400 N   0  0  0  0  0  0  0  0  0  0  0  0
   64.4563    3.1341    0.7216 C   0  0  0  0  0  0  0  0  0  0  0  0
   64.4792    4.5014    1.0759 C   0  0  0  0  0  0  0  0  0  0  0  0
   64.5059    5.6751    1.3837 C   0  0  0  0  0  0  0  0  0  0  0  0
   64.5404    7.0412    1.7446 C   0  0  0  0  0  0  0  0  0  0  0  0
   63.3629    7.7709    1.9467 C   0  0  0  0  0  0  0  0  0  0  0  0
   63.4534    9.1050    2.3012 C   0  0  0  0  0  0  0  0  0  0  0  0
   64.6126    9.7385    2.4620 N   0  0  0  0  0  0  0  0  0  0  0  0
   65.7366    9.0520    2.2714 C   0  0  0  0  0  0  0  0  0  0  0  0
   65.7556    7.7154    1.9155 C   0  0  0  0  0  0  0  0  0  0  0  0
   65.6999    2.4968    0.5510 C   0  0  0  0  0  0  0  0  0  0  0  0
   66.9799    3.1298    0.7040 C   0  0  0  0  0  0  0  0  0  0  0  0
   67.9226    2.1848    0.4571 C   0  0  0  0  0  0  0  0  0  0  0  0
   67.2259    0.9667    0.1517 C   0  0  0  0  0  0  0  0  0  0  0  0
   65.8782    1.1917    0.2173 N   0  0  0  0  0  0  0  0  0  0  0  0
   68.9142   -0.2579   -0.1695 H   0  0  0  0  0  0  0  0  0  0  0  0
   68.9273   -2.8088   -0.8175 H   0  0  0  0  0  0  0  0  0  0  0  0
   67.0079   -4.6403   -1.2730 H   0  0  0  0  0  0  0  0  0  0  0  0
   62.1776   -7.6456   -2.0540 H   0  0  0  0  0  0  0  0  0  0  0  0
   62.2553  -10.0479   -2.6983 H   0  0  0  0  0  0  0  0  0  0  0  0
   66.3655  -10.0718   -2.7148 H   0  0  0  0  0  0  0  0  0  0  0  0
   66.4762   -7.6706   -2.0714 H   0  0  0  0  0  0  0  0  0  0  0  0
   61.7050   -4.5875   -1.2249 H   0  0  0  0  0  0  0  0  0  0  0  0
   59.8287   -2.7216   -0.7408 H   0  0  0  0  0  0  0  0  0  0  0  0
   59.8969    2.4130    0.5541 H   0  0  0  0  0  0  0  0  0  0  0  0
   61.8239    4.2344    1.0122 H   0  0  0  0  0  0  0  0  0  0  0  0
   62.3973    7.2946    1.8266 H   0  0  0  0  0  0  0  0  0  0  0  0
   62.5558    9.6946    2.4644 H   0  0  0  0  0  0  0  0  0  0  0  0
   66.6647    9.5991    2.4108 H   0  0  0  0  0  0  0  0  0  0  0  0
   66.6945    7.1946    1.7705 H   0  0  0  0  0  0  0  0  0  0  0  0
   67.1271    4.1655    0.9665 H   0  0  0  0  0  0  0  0  0  0  0  0
   68.9959    2.2913    0.4771 H   0  0  0  0  0  0  0  0  0  0  0  0
   31.9916   -0.2104   -0.1459 C   0  0  0  0  0  0  0  0  0  0  0  0
   33.2158   -0.2350   -0.1562 C   0  0  0  0  0  0  0  0  0  0  0  0
   34.5588   -0.2626   -0.1696 C   0  0  0  0  0  0  0  0  0  0  0  0
   35.7888   -0.2975   -0.1805 C   0  0  0  0  0  0  0  0  0  0  0  0
   37.1267   -0.3325   -0.2023 C   0  0  0  0  0  0  0  0  0  0  0  0
   38.3565   -0.3679   -0.2286 C   0  0  0  0  0  0  0  0  0  0  0  0
   39.6988   -0.4107   -0.2529 C   0  0  0  0  0  0  0  0  0  0  0  0
   40.9226   -0.4467   -0.2761 C   0  0  0  0  0  0  0  0  0  0  0  0
   50.6291   -0.3759   -0.2418 C   0  0  0  0  0  0  0  0  0  0  0  0
   51.8523   -0.3277   -0.2074 C   0  0  0  0  0  0  0  0  0  0  0  0
   53.1941   -0.2785   -0.1774 C   0  0  0  0  0  0  0  0  0  0  0  0
   54.4236   -0.2360   -0.1504 C   0  0  0  0  0  0  0  0  0  0  0  0
   55.7613   -0.2001   -0.1300 C   0  0  0  0  0  0  0  0  0  0  0  0
   56.9915   -0.1732   -0.1167 C   0  0  0  0  0  0  0  0  0  0  0  0
   58.3345   -0.1594   -0.1058 C   0  0  0  0  0  0  0  0  0  0  0  0
   59.5589   -0.1551   -0.0980 C   0  0  0  0  0  0  0  0  0  0  0  0
   45.7769   -0.5011   -0.3231 Zn  0  0  0  0  0  0  0  0  0  0  0  0
   42.3278   -0.4766   -0.2997 C   0  0  0  0  0  0  0  0  0  0  0  0
   42.9696    0.2306   -1.3362 C   0  0  0  0  0  0  0  0  0  0  0  0
   42.2951    0.9453   -2.3792 C   0  0  0  0  0  0  0  0  0  0  0  0
   43.2551    1.4685   -3.1862 C   0  0  0  0  0  0  0  0  0  0  0  0
   44.5205    1.0826   -2.6351 C   0  0  0  0  0  0  0  0  0  0  0  0
   44.3163    0.3322   -1.5146 N   0  0  0  0  0  0  0  0  0  0  0  0
   45.7727    1.4377   -3.1681 C   0  0  0  0  0  0  0  0  0  0  0  0
   45.7744    2.1904   -4.3638 C   0  0  0  0  0  0  0  0  0  0  0  0
   45.7839    2.8131   -5.4054 C   0  0  0  0  0  0  0  0  0  0  0  0
   45.8004    3.5278   -6.6249 C   0  0  0  0  0  0  0  0  0  0  0  0
   47.0061    3.9244   -7.2156 C   0  0  0  0  0  0  0  0  0  0  0  0
   46.9706    4.6124   -8.4152 C   0  0  0  0  0  0  0  0  0  0  0  0
   45.8390    4.9201   -9.0442 N   0  0  0  0  0  0  0  0  0  0  0  0
   44.6886    4.5476   -8.4887 C   0  0  0  0  0  0  0  0  0  0  0  0
   44.6147    3.8571   -7.2922 C   0  0  0  0  0  0  0  0  0  0  0  0
   47.0260    1.1080   -2.6210 C   0  0  0  0  0  0  0  0  0  0  0  0
   48.2894    1.5194   -3.1582 C   0  0  0  0  0  0  0  0  0  0  0  0
   49.2511    1.0108   -2.3440 C   0  0  0  0  0  0  0  0  0  0  0  0
   47.2332    0.3580   -1.5008 N   0  0  0  0  0  0  0  0  0  0  0  0
   48.5799    0.2797   -1.3106 C   0  0  0  0  0  0  0  0  0  0  0  0
   49.2250   -0.4252   -0.2747 C   0  0  0  0  0  0  0  0  0  0  0  0
   48.5837   -1.1869    0.7225 C   0  0  0  0  0  0  0  0  0  0  0  0
   49.2585   -1.9350    1.7414 C   0  0  0  0  0  0  0  0  0  0  0  0
   48.2995   -2.5430    2.4876 C   0  0  0  0  0  0  0  0  0  0  0  0
   47.0340   -2.1623    1.9328 C   0  0  0  0  0  0  0  0  0  0  0  0
   47.2374   -1.3405    0.8635 N   0  0  0  0  0  0  0  0  0  0  0  0
   45.7823   -2.5698    2.4286 C   0  0  0  0  0  0  0  0  0  0  0  0
   45.7876   -3.4594    3.5262 C   0  0  0  0  0  0  0  0  0  0  0  0
   45.7999   -4.2445    4.4516 C   0  0  0  0  0  0  0  0  0  0  0  0
   45.8193   -5.1688    5.5208 C   0  0  0  0  0  0  0  0  0  0  0  0
   44.6338   -5.6590    6.0812 C   0  0  0  0  0  0  0  0  0  0  0  0
   44.7099   -6.5707    7.1189 C   0  0  0  0  0  0  0  0  0  0  0  0
   45.8622   -7.0108    7.6181 N   0  0  0  0  0  0  0  0  0  0  0  0
   46.9937   -6.5488    7.0916 C   0  0  0  0  0  0  0  0  0  0  0  0
   47.0271   -5.6360    6.0527 C   0  0  0  0  0  0  0  0  0  0  0  0
   44.5284   -2.1754    1.9282 C   0  0  0  0  0  0  0  0  0  0  0  0
   43.2648   -2.5678    2.4790 C   0  0  0  0  0  0  0  0  0  0  0  0
   42.3024   -1.9738    1.7260 C   0  0  0  0  0  0  0  0  0  0  0  0
   42.9733   -1.2223    0.7069 C   0  0  0  0  0  0  0  0  0  0  0  0
   44.3205   -1.3596    0.8551 N   0  0  0  0  0  0  0  0  0  0  0  0
   41.2245    1.0283   -2.4775 H   0  0  0  0  0  0  0  0  0  0  0  0
   43.1254    2.0667   -4.0741 H   0  0  0  0  0  0  0  0  0  0  0  0
   47.9507    3.6931   -6.7381 H   0  0  0  0  0  0  0  0  0  0  0  0
   47.8911    4.9309   -8.8961 H   0  0  0  0  0  0  0  0  0  0  0  0
   43.7846    4.8147   -9.0285 H   0  0  0  0  0  0  0  0  0  0  0  0
   43.6559    3.5722   -6.8760 H   0  0  0  0  0  0  0  0  0  0  0  0
   48.4169    2.1231   -4.0427 H   0  0  0  0  0  0  0  0  0  0  0  0
   50.3209    1.1135   -2.4317 H   0  0  0  0  0  0  0  0  0  0  0  0
   50.3289   -1.9870    1.8616 H   0  0  0  0  0  0  0  0  0  0  0  0
   48.4300   -3.1891    3.3410 H   0  0  0  0  0  0  0  0  0  0  0  0
   43.6734   -5.3285    5.7043 H   0  0  0  0  0  0  0  0  0  0  0  0
   43.8059   -6.9684    7.5714 H   0  0  0  0  0  0  0  0  0  0  0  0
   47.9157   -6.9286    7.5224 H   0  0  0  0  0  0  0  0  0  0  0  0
   47.9716   -5.2868    5.6531 H   0  0  0  0  0  0  0  0  0  0  0  0
   43.1382   -3.2119    3.3347 H   0  0  0  0  0  0  0  0  0  0  0  0
   41.2321   -2.0375    1.8416 H   0  0  0  0  0  0  0  0  0  0  0  0
  2  3  4  0  0  0  0
  3  4  4  0  0  0  0
  4  5  2  0  0  0  0
  5  6  4  0  0  0  0
  1  7  1  0  0  0  0
  3  7  4  0  0  0  0
  6  7  4  0  0  0  0
  6  8  4  0  0  0  0
  8  9  1  0  0  0  0
  9 10  3  0  0  0  0
 10 11  1  0  0  0  0
 11 12  4  0  0  0  0
 12 13  4  0  0  0  0
 13 14  4  0  0  0  0
 14 15  4  0  0  0  0
 11 16  4  0  0  0  0
 15 16  4  0  0  0  0
  8 17  4  0  0  0  0
 17 18  4  0  0  0  0
 18 19  2  0  0  0  0
  1 20  1  0  0  0  0
 17 20  4  0  0  0  0
 19 21  4  0  0  0  0
 20 21  4  0  0  0  0
 21 22  4  0  0  0  0
 22 23  4  0  0  0  0
 23 24  4  0  0  0  0
 24 25  2  0  0  0  0
 25 26  4  0  0  0  0
  1 27  1  0  0  0  0
 23 27  4  0  0  0  0
 26 27  4  0  0  0  0
 26 28  4  0  0  0  0
 28 29  1  0  0  0  0
 29 30  3  0  0  0  0
 30 31  1  0  0  0  0
 31 32  4  0  0  0  0
 32 33  4  0  0  0  0
 33 34  4  0  0  0  0
 34 35  4  0  0  0  0
 31 36  4  0  0  0  0
 35 36  4  0  0  0  0
 28 37  4  0  0  0  0
 37 38  4  0  0  0  0
 38 39  2  0  0  0  0
  2 40  4  0  0  0  0
 39 40  4  0  0  0  0
  1 41  1  0  0  0  0
 37 41  4  0  0  0  0
 40 41  4  0  0  0  0
  2 42  1  0  0  0  0
  4 43  1  0  0  0  0
  5 44  1  0  0  0  0
 12 45  1  0  0  0  0
 13 46  1  0  0  0  0
 15 47  1  0  0  0  0
 16 48  1  0  0  0  0
 18 49  1  0  0  0  0
 19 50  1  0  0  0  0
 24 51  1  0  0  0  0
 25 52  1  0  0  0  0
 32 53  1  0  0  0  0
 33 54  1  0  0  0  0
 35 55  1  0  0  0  0
 36 56  1  0  0  0  0
 38 57  1  0  0  0  0
 39 58  1  0  0  0  0
 60 61  4  0  0  0  0
 61 62  4  0  0  0  0
 62 63  2  0  0  0  0
 63 64  4  0  0  0  0
 59 65  1  0  0  0  0
 61 65  4  0  0  0  0
 64 65  4  0  0  0  0
 64 66  4  0  0  0  0
 66 67  1  0  0  0  0
 67 68  3  0  0  0  0
 68 69  1  0  0  0  0
 69 70  4  0  0  0  0
 70 71  4  0  0  0  0
 71 72  4  0  0  0  0
 72 73  4  0  0  0  0
 69 74  4  0  0  0  0
 73 74  4  0  0  0  0
 66 75  4  0  0  0  0
 75 76  4  0  0  0  0
 76 77  2  0  0  0  0
 59 78  1  0  0  0  0
 75 78  4  0  0  0  0
 77 79  4  0  0  0  0
 78 79  4  0  0  0  0
 79 80  4  0  0  0  0
 80 81  4  0  0  0  0
 81 82  4  0  0  0  0
 82 83  2  0  0  0  0
 83 84  4  0  0  0  0
 59 85  1  0  0  0  0
 81 85  4  0  0  0  0
 84 85  4  0  0  0  0
 84 86  4  0  0  0  0
 86 87  1  0  0  0  0
 87 88  3  0  0  0  0
 88 89  1  0  0  0  0
 89 90  4  0  0  0  0
 90 91  4  0  0  0  0
 91 92  4  0  0  0  0
 92 93  4  0  0  0  0
 89 94  4  0  0  0  0
 93 94  4  0  0  0  0
 86 95  4  0  0  0  0
 95 96  4  0  0  0  0
 96 97  2  0  0  0  0
 60 98  4  0  0  0  0
 97 98  4  0  0  0  0
 59 99  1  0  0  0  0
 95 99  4  0  0  0  0
 98 99  4  0  0  0  0
 60100  1  0  0  0  0
 62101  1  0  0  0  0
 63102  1  0  0  0  0
 70103  1  0  0  0  0
 71104  1  0  0  0  0
 73105  1  0  0  0  0
 74106  1  0  0  0  0
 76107  1  0  0  0  0
 77108  1  0  0  0  0
 82109  1  0  0  0  0
 83110  1  0  0  0  0
 90111  1  0  0  0  0
 91112  1  0  0  0  0
 93113  1  0  0  0  0
 94114  1  0  0  0  0
 96115  1  0  0  0  0
 97116  1  0  0  0  0
 22117  4  0  0  0  0
117118  3  0  0  0  0
118119  4  0  0  0  0
119120  3  0  0  0  0
120121  4  0  0  0  0
121122  3  0  0  0  0
122123  4  0  0  0  0
123124  3  0  0  0  0
125126  3  0  0  0  0
126127  4  0  0  0  0
127128  3  0  0  0  0
128129  4  0  0  0  0
129130  3  0  0  0  0
130131  4  0  0  0  0
 80132  4  0  0  0  0
131132  3  0  0  0  0
124134  4  0  0  0  0
134135  4  0  0  0  0
135136  4  0  0  0  0
136137  2  0  0  0  0
137138  4  0  0  0  0
133139  1  0  0  0  0
135139  4  0  0  0  0
138139  4  0  0  0  0
138140  4  0  0  0  0
140141  1  0  0  0  0
141142  3  0  0  0  0
142143  1  0  0  0  0
143144  4  0  0  0  0
144145  4  0  0  0  0
145146  4  0  0  0  0
146147  4  0  0  0  0
143148  4  0  0  0  0
147148  4  0  0  0  0
140149  4  0  0  0  0
149150  4  0  0  0  0
150151  2  0  0  0  0
133152  1  0  0  0  0
149152  4  0  0  0  0
151153  4  0  0  0  0
152153  4  0  0  0  0
125154  4  0  0  0  0
153154  4  0  0  0  0
154155  4  0  0  0  0
155156  4  0  0  0  0
156157  2  0  0  0  0
157158  4  0  0  0  0
133159  1  0  0  0  0
155159  4  0  0  0  0
158159  4  0  0  0  0
158160  4  0  0  0  0
160161  1  0  0  0  0
161162  3  0  0  0  0
162163  1  0  0  0  0
163164  4  0  0  0  0
164165  4  0  0  0  0
165166  4  0  0  0  0
166167  4  0  0  0  0
163168  4  0  0  0  0
167168  4  0  0  0  0
160169  4  0  0  0  0
169170  4  0  0  0  0
170171  2  0  0  0  0
134172  4  0  0  0  0
171172  4  0  0  0  0
133173  1  0  0  0  0
169173  4  0  0  0  0
172173  4  0  0  0  0
136174  1  0  0  0  0
137175  1  0  0  0  0
144176  1  0  0  0  0
145177  1  0  0  0  0
147178  1  0  0  0  0
148179  1  0  0  0  0
150180  1  0  0  0  0
151181  1  0  0  0  0
156182  1  0  0  0  0
157183  1  0  0  0  0
164184  1  0  0  0  0
165185  1  0  0  0  0
167186  1  0  0  0  0
168187  1  0  0  0  0
170188  1  0  0  0  0
171189  1  0  0  0  0
M  END
