189

Zn 26.728202 -0.217965 -0.150784
C 23.342496 -0.075642 -0.102908
C 24.007992 0.714161 0.744613
C 23.360386 1.599690 1.705347
C 24.304898 2.247664 2.362035
C 25.609421 1.809101 1.846648
N 25.427775 0.831584 0.821989
C 26.802792 2.282530 2.252916
C 26.844205 3.296407 3.283124
C 26.881234 4.141625 4.141865
C 26.926143 5.149938 5.166646
C 28.131736 5.795098 5.465924
C 28.153587 6.771676 6.465271
N 27.012542 7.086891 7.136124
C 25.830031 6.472369 6.861659
C 25.764604 5.490359 5.869598
C 28.097693 1.827602 1.687143
C 29.389008 2.447313 2.008065
C 30.325358 1.785250 1.360112
N 28.238108 0.823697 0.875670
C 29.639922 0.732171 0.619747
C 30.235954 -0.205919 -0.135742
C 29.478966 -1.253161 -0.861894
C 30.031848 -2.334037 -1.398628
C 28.985401 -3.056251 -2.093765
C 27.858825 -2.370378 -1.936459
N 28.080573 -1.197759 -1.149447
C 26.561359 -2.741461 -2.555613
C 26.554662 -3.751678 -3.591842
C 26.549525 -4.593414 -4.454868
C 26.543227 -5.597756 -5.484569
C 27.736304 -6.221991 -5.865205
C 27.708437 -7.194608 -6.868306
N 26.531517 -7.526523 -7.464114
C 25.360168 -6.932794 -7.109649
C 25.344032 -5.955188 -6.111057
C 25.398296 -2.178889 -2.184463
C 24.078603 -2.495385 -2.728596
C 23.216456 -1.767646 -2.045471
C 23.975914 -0.984393 -1.071869
N 25.248883 -1.216981 -1.142774
H 22.259052 -0.052060 -0.083837
H 22.296037 1.718544 1.862774
H 24.122502 2.979397 3.138660
H 29.042468 5.546251 4.933440
H 29.078136 7.279087 6.707640
H 24.940361 6.746129 7.413552
H 24.821073 5.002984 5.653273
H 29.563680 3.295438 2.657236
H 31.384566 2.002253 1.396147
H 31.073663 -2.621146 -1.352859
H 29.111086 -3.972508 -2.656086
H 28.675429 -5.960097 -5.392573
H 28.622981 -7.685744 -7.173119
H 24.440992 -7.219503 -7.602964
H 24.409176 -5.484318 -5.831229
H 23.831284 -3.189102 -3.521895
H 22.143755 -1.764226 -2.187674
Zn 64.835842 -0.186827 -0.133126
C 68.221548 -0.300976 -0.230687
C 67.556053 -1.433750 -0.473388
C 68.203658 -2.712822 -0.740120
C 67.259146 -3.609018 -0.959075
C 65.954624 -2.941586 -0.847292
N 66.136270 -1.560432 -0.534436
C 64.761252 -3.533275 -1.045013
C 64.719840 -4.937856 -1.386224
C 64.682811 -6.108707 -1.670722
C 64.637901 -7.505775 -2.009944
C 63.432308 -8.093807 -2.409964
C 63.410457 -9.452758 -2.735010
N 64.551503 -10.190284 -2.661127
C 65.734014 -9.639274 -2.274662
C 65.799441 -8.283788 -1.941215
C 63.466351 -2.814201 -0.945053
C 62.175036 -3.407743 -1.312123
C 61.238687 -2.511810 -1.076594
N 63.325936 -1.602450 -0.500109
C 61.924123 -1.335839 -0.552946
C 61.328090 -0.205919 -0.135742
C 62.085078 0.954858 0.390192
C 61.532196 1.970349 1.042231
C 62.578643 2.937654 1.305159
C 63.705220 2.450557 0.797316
N 63.483471 1.173187 0.195029
C 65.002686 3.172398 0.797919
C 65.009382 4.580268 1.132899
C 65.014519 5.753008 1.412208
C 65.020818 7.152259 1.745497
C 63.827741 7.799370 2.085794
C 63.855607 9.159507 2.405512
N 65.032528 9.841205 2.384487
C 66.203877 9.232216 2.056934
C 66.220012 7.873386 1.730619
C 66.165749 2.565084 0.505670
C 67.485442 3.194521 0.497941
C 68.347589 2.234688 0.224106
C 67.588131 0.997078 0.051751
N 66.315162 1.177329 0.214951
H 69.304993 -0.329448 -0.241134
H 69.268007 -2.908937 -0.761300
H 67.441542 -4.651140 -1.188338
H 62.521577 -7.509096 -2.469768
H 62.485908 -9.921237 -3.046033
H 66.623683 -10.253431 -2.226274
H 66.742972 -7.847944 -1.634017
H 62.000364 -4.400240 -1.706700
H 60.179479 -2.654135 -1.244320
H 60.490381 2.078462 1.312116
H 62.452958 3.890593 1.802790
H 62.888616 7.259323 2.103675
H 62.941063 9.673220 2.670511
H 67.123052 9.802750 2.049731
H 67.154868 7.391519 1.470185
H 67.732761 4.231436 0.686019
H 69.420290 2.354967 0.148169
C 32.416389 -0.191229 -0.125466
C 33.874615 -0.213066 -0.143340
C 35.008543 -0.233819 -0.144830
C 36.369925 -0.246409 -0.147022
C 37.644144 -0.236103 -0.151787
C 38.832606 -0.217304 -0.157943
C 40.184967 -0.192520 -0.142075
C 41.285234 -0.191229 -0.125466
C 50.154773 -0.191229 -0.125466
C 51.613000 -0.213066 -0.143340
C 52.746928 -0.233819 -0.144830
C 54.108310 -0.246409 -0.147022
C 55.382528 -0.236103 -0.151787
C 56.570991 -0.217304 -0.157943
C 57.923352 -0.192520 -0.142075
C 59.023619 -0.191229 -0.125466
Zn 45.843908 0.345667 0.310332
C 42.362295 0.472742 0.311466
C 43.017441 1.022926 -0.724501
C 42.364344 1.583271 -1.904745
C 43.292041 1.853611 -2.796962
C 44.599297 1.538408 -2.216100
N 44.434165 0.997782 -0.908208
C 45.779006 1.725020 -2.837064
C 45.785895 2.122397 -4.226264
C 45.780708 2.408429 -5.399402
C 45.762197 2.711313 -6.803314
C 46.706732 2.135205 -7.657789
C 46.658691 2.425503 -9.024101
N 45.696287 3.254363 -9.511150
C 44.760354 3.814711 -8.698136
C 44.777340 3.557330 -7.325461
C 47.090871 1.518847 -2.177963
C 48.362459 2.003637 -2.722412
C 49.313697 1.679441 -1.869911
N 47.257029 0.918856 -1.044828
C 48.656666 0.976438 -0.777977
C 49.262091 0.472742 0.311466
C 48.535509 -0.296078 1.348344
C 49.125758 -0.934387 2.355555
C 48.100072 -1.667936 3.072458
C 46.947397 -1.427991 2.459246
N 47.131158 -0.548080 1.347205
C 45.648654 -2.021823 2.865321
C 45.669462 -3.219716 3.673393
C 45.703132 -4.257503 4.286205
C 45.767048 -5.534189 4.940994
C 44.597439 -6.167869 5.367915
C 44.663703 -7.491503 5.805364
N 45.856138 -8.143339 5.831445
C 47.010106 -7.535869 5.458995
C 46.987519 -6.218103 5.009364
C 44.468379 -1.532403 2.450013
C 43.153917 -2.016935 2.860962
C 42.272952 -1.295182 2.197369
C 43.013301 -0.361798 1.342555
N 44.298065 -0.494610 1.485240
H 41.310709 1.747118 -2.049939
H 43.104892 2.287237 -3.761920
H 47.468733 1.468620 -7.276130
H 47.390866 1.997730 -9.692867
H 44.004925 4.462243 -9.118362
H 44.024367 3.998356 -6.686267
H 48.511643 2.542967 -3.646373
H 50.362591 1.900543 -1.992097
H 50.182676 -0.955106 2.586110
H 48.256662 -2.308252 3.937622
H 43.637937 -5.661399 5.301375
H 43.760899 -8.011705 6.092552
H 47.939075 -8.084294 5.477427
H 47.901614 -5.754067 4.663445
H 42.919311 -2.804224 3.566349
H 41.197515 -1.401637 2.275399
