 xtb: 6.5.1 (b24c23e)
          07292222083D

115138  0     0  0            999 V2000
   16.2479   -0.0053   -0.0015 Co  0  0  0  0  0  0  0  0  0  0  0  0
   13.0973   -0.8718    0.8379 C   0  0  0  0  0  0  0  0  0  0  0  0
   13.6797   -1.4948   -0.2468 C   0  0  0  0  0  0  0  0  0  0  0  0
   13.0064   -2.4464   -1.0807 C   0  0  0  0  0  0  0  0  0  0  0  0
   13.8276   -2.6961   -2.1282 C   0  0  0  0  0  0  0  0  0  0  0  0
   15.0246   -1.9412   -1.9026 C   0  0  0  0  0  0  0  0  0  0  0  0
   14.9191   -1.2025   -0.7542 N   0  0  0  0  0  0  0  0  0  0  0  0
   16.1621   -2.0502   -2.6776 C   0  0  0  0  0  0  0  0  0  0  0  0
   17.3791   -1.5260   -2.2991 C   0  0  0  0  0  0  0  0  0  0  0  0
   18.6214   -1.8538   -2.9303 C   0  0  0  0  0  0  0  0  0  0  0  0
   19.5996   -1.3021   -2.1720 C   0  0  0  0  0  0  0  0  0  0  0  0
   17.5950   -0.7353   -1.1948 N   0  0  0  0  0  0  0  0  0  0  0  0
   18.9488   -0.5903   -1.1151 C   0  0  0  0  0  0  0  0  0  0  0  0
   19.6246    0.2371   -0.2113 C   0  0  0  0  0  0  0  0  0  0  0  0
   18.9325    1.1393    0.6041 C   0  0  0  0  0  0  0  0  0  0  0  0
   19.5653    2.2056    1.3179 C   0  0  0  0  0  0  0  0  0  0  0  0
   18.5739    2.9556    1.8573 C   0  0  0  0  0  0  0  0  0  0  0  0
   17.3413    2.3105    1.5198 C   0  0  0  0  0  0  0  0  0  0  0  0
   17.5764    1.2054    0.7359 N   0  0  0  0  0  0  0  0  0  0  0  0
   16.1150    2.6799    2.0290 C   0  0  0  0  0  0  0  0  0  0  0  0
   14.9857    1.8943    1.9113 C   0  0  0  0  0  0  0  0  0  0  0  0
   13.7780    2.1129    2.6512 C   0  0  0  0  0  0  0  0  0  0  0  0
   12.9698    1.0561    2.3986 C   0  0  0  0  0  0  0  0  0  0  0  0
   13.6618    0.2230    1.4598 C   0  0  0  0  0  0  0  0  0  0  0  0
   14.8992    0.7408    1.1781 N   0  0  0  0  0  0  0  0  0  0  0  0
   12.1081   -1.1889    1.1467 H   0  0  0  0  0  0  0  0  0  0  0  0
   12.0202   -2.8374   -0.8864 H   0  0  0  0  0  0  0  0  0  0  0  0
   13.6686   -3.3492   -2.9717 H   0  0  0  0  0  0  0  0  0  0  0  0
   16.1206   -2.6639   -3.5698 H   0  0  0  0  0  0  0  0  0  0  0  0
   18.7147   -2.4555   -3.8204 H   0  0  0  0  0  0  0  0  0  0  0  0
   20.6675   -1.3388   -2.3163 H   0  0  0  0  0  0  0  0  0  0  0  0
   20.6314    2.3609    1.3643 H   0  0  0  0  0  0  0  0  0  0  0  0
   18.6519    3.8489    2.4564 H   0  0  0  0  0  0  0  0  0  0  0  0
   16.0587    3.5748    2.6377 H   0  0  0  0  0  0  0  0  0  0  0  0
   13.6032    2.9587    3.2973 H   0  0  0  0  0  0  0  0  0  0  0  0
   11.9811    0.8546    2.7796 H   0  0  0  0  0  0  0  0  0  0  0  0
   43.0158   -0.0225   -0.0212 Co  0  0  0  0  0  0  0  0  0  0  0  0
   46.1707   -0.2096    1.1546 C   0  0  0  0  0  0  0  0  0  0  0  0
   45.6197    1.0406    0.9598 C   0  0  0  0  0  0  0  0  0  0  0  0
   46.3266    2.2700    1.1672 C   0  0  0  0  0  0  0  0  0  0  0  0
   45.5168    3.2637    0.7307 C   0  0  0  0  0  0  0  0  0  0  0  0
   44.2939    2.6446    0.3119 C   0  0  0  0  0  0  0  0  0  0  0  0
   44.3752    1.2832    0.4398 N   0  0  0  0  0  0  0  0  0  0  0  0
   43.1546    3.3445   -0.0317 C   0  0  0  0  0  0  0  0  0  0  0  0
   41.9216    2.7446   -0.1721 C   0  0  0  0  0  0  0  0  0  0  0  0
   40.6857    3.4632   -0.2451 C   0  0  0  0  0  0  0  0  0  0  0  0
   39.6959    2.5382   -0.2116 C   0  0  0  0  0  0  0  0  0  0  0  0
   41.6888    1.3900   -0.1420 N   0  0  0  0  0  0  0  0  0  0  0  0
   40.3315    1.2568   -0.1785 C   0  0  0  0  0  0  0  0  0  0  0  0
   39.6399    0.0486   -0.3164 C   0  0  0  0  0  0  0  0  0  0  0  0
   40.3146   -1.1493   -0.5777 C   0  0  0  0  0  0  0  0  0  0  0  0
   39.6635   -2.3445   -1.0187 C   0  0  0  0  0  0  0  0  0  0  0  0
   40.6406   -3.2436   -1.2894 C   0  0  0  0  0  0  0  0  0  0  0  0
   41.8820   -2.6128   -0.9566 C   0  0  0  0  0  0  0  0  0  0  0  0
   41.6673   -1.3185   -0.5436 N   0  0  0  0  0  0  0  0  0  0  0  0
   43.0920   -3.2709   -0.9153 C   0  0  0  0  0  0  0  0  0  0  0  0
   44.2234   -2.7252   -0.3416 C   0  0  0  0  0  0  0  0  0  0  0  0
   45.4079   -3.4724   -0.0379 C   0  0  0  0  0  0  0  0  0  0  0  0
   46.2313   -2.6384    0.6407 C   0  0  0  0  0  0  0  0  0  0  0  0
   45.5727   -1.3667    0.6995 C   0  0  0  0  0  0  0  0  0  0  0  0
   44.3368   -1.4377    0.1104 N   0  0  0  0  0  0  0  0  0  0  0  0
   47.1612   -0.2759    1.5891 H   0  0  0  0  0  0  0  0  0  0  0  0
   47.3245    2.3389    1.5706 H   0  0  0  0  0  0  0  0  0  0  0  0
   45.6993    4.3265    0.7134 H   0  0  0  0  0  0  0  0  0  0  0  0
   43.2112    4.4253   -0.0883 H   0  0  0  0  0  0  0  0  0  0  0  0
   40.6051    4.5378   -0.2860 H   0  0  0  0  0  0  0  0  0  0  0  0
   38.6286    2.6899   -0.2378 H   0  0  0  0  0  0  0  0  0  0  0  0
   38.5962   -2.4540   -1.1268 H   0  0  0  0  0  0  0  0  0  0  0  0
   40.5467   -4.2555   -1.6501 H   0  0  0  0  0  0  0  0  0  0  0  0
   43.1306   -4.2999   -1.2531 H   0  0  0  0  0  0  0  0  0  0  0  0
   45.5582   -4.5087   -0.2962 H   0  0  0  0  0  0  0  0  0  0  0  0
   47.2108   -2.8372    1.0460 H   0  0  0  0  0  0  0  0  0  0  0  0
   22.2489    0.2116   -0.1917 C   0  0  0  0  0  0  0  0  0  0  0  0
   21.0263    0.2404   -0.2072 C   0  0  0  0  0  0  0  0  0  0  0  0
   23.5962    0.1785   -0.1679 C   0  0  0  0  0  0  0  0  0  0  0  0
   24.8181    0.1328   -0.1409 C   0  0  0  0  0  0  0  0  0  0  0  0
   35.6687    0.0430   -0.2234 C   0  0  0  0  0  0  0  0  0  0  0  0
   34.4467    0.0315   -0.1760 C   0  0  0  0  0  0  0  0  0  0  0  0
   37.0158    0.0536   -0.2674 C   0  0  0  0  0  0  0  0  0  0  0  0
   38.2383    0.0548   -0.3043 C   0  0  0  0  0  0  0  0  0  0  0  0
   29.6322   -0.0168    0.0037 Co  0  0  0  0  0  0  0  0  0  0  0  0
   26.2178    0.0801   -0.0881 C   0  0  0  0  0  0  0  0  0  0  0  0
   26.8990    0.9691    0.7498 C   0  0  0  0  0  0  0  0  0  0  0  0
   26.2399    1.9139    1.5977 C   0  0  0  0  0  0  0  0  0  0  0  0
   27.2119    2.6527    2.1849 C   0  0  0  0  0  0  0  0  0  0  0  0
   28.4577    2.1653    1.6769 C   0  0  0  0  0  0  0  0  0  0  0  0
   28.2546    1.1009    0.8296 N   0  0  0  0  0  0  0  0  0  0  0  0
   29.6674    2.7855    1.8991 C   0  0  0  0  0  0  0  0  0  0  0  0
   30.8552    2.3603    1.3440 C   0  0  0  0  0  0  0  0  0  0  0  0
   32.0971    3.0554    1.4889 C   0  0  0  0  0  0  0  0  0  0  0  0
   33.0409    2.2900    0.8897 C   0  0  0  0  0  0  0  0  0  0  0  0
   31.0306    1.1904    0.6445 N   0  0  0  0  0  0  0  0  0  0  0  0
   32.3723    1.1238    0.4004 C   0  0  0  0  0  0  0  0  0  0  0  0
   33.0469    0.0093   -0.1068 C   0  0  0  0  0  0  0  0  0  0  0  0
   32.3646   -1.1458   -0.5021 C   0  0  0  0  0  0  0  0  0  0  0  0
   33.0225   -2.3385   -0.9386 C   0  0  0  0  0  0  0  0  0  0  0  0
   32.0503   -3.1985   -1.3265 C   0  0  0  0  0  0  0  0  0  0  0  0
   30.8055   -2.5178   -1.1402 C   0  0  0  0  0  0  0  0  0  0  0  0
   31.0090   -1.2732   -0.5907 N   0  0  0  0  0  0  0  0  0  0  0  0
   29.5967   -2.9990   -1.5928 C   0  0  0  0  0  0  0  0  0  0  0  0
   28.4101   -2.3066   -1.4802 C   0  0  0  0  0  0  0  0  0  0  0  0
   27.1695   -2.7559   -2.0327 C   0  0  0  0  0  0  0  0  0  0  0  0
   26.2258   -1.8673   -1.6380 C   0  0  0  0  0  0  0  0  0  0  0  0
   26.8933   -0.8923   -0.8318 C   0  0  0  0  0  0  0  0  0  0  0  0
   28.2343   -1.1421   -0.7716 N   0  0  0  0  0  0  0  0  0  0  0  0
   25.1706    1.9892    1.7129 H   0  0  0  0  0  0  0  0  0  0  0  0
   27.1140    3.4695    2.8821 H   0  0  0  0  0  0  0  0  0  0  0  0
   29.6805    3.6763    2.5166 H   0  0  0  0  0  0  0  0  0  0  0  0
   32.2117    4.0042    1.9884 H   0  0  0  0  0  0  0  0  0  0  0  0
   34.0996    2.4714    0.7962 H   0  0  0  0  0  0  0  0  0  0  0  0
   34.0915   -2.4791   -0.9438 H   0  0  0  0  0  0  0  0  0  0  0  0
   32.1477   -4.1959   -1.7246 H   0  0  0  0  0  0  0  0  0  0  0  0
   29.5833   -3.9598   -2.0943 H   0  0  0  0  0  0  0  0  0  0  0  0
   27.0555   -3.6396   -2.6401 H   0  0  0  0  0  0  0  0  0  0  0  0
   25.1680   -1.8666   -1.8465 H   0  0  0  0  0  0  0  0  0  0  0  0
  2  3  4  0  0  0  0
  3  4  1  0  0  0  0
  4  5  2  0  0  0  0
  5  6  1  0  0  0  0
  1  7  1  0  0  0  0
  3  7  4  0  0  0  0
  6  7  4  0  0  0  0
  6  8  4  0  0  0  0
  8  9  4  0  0  0  0
  9 10  1  0  0  0  0
 10 11  2  0  0  0  0
  1 12  1  0  0  0  0
  9 12  4  0  0  0  0
 11 13  4  0  0  0  0
 12 13  4  0  0  0  0
 13 14  4  0  0  0  0
 14 15  4  0  0  0  0
 15 16  4  0  0  0  0
 16 17  2  0  0  0  0
 17 18  1  0  0  0  0
  1 19  1  0  0  0  0
 15 19  4  0  0  0  0
 18 19  4  0  0  0  0
 18 20  4  0  0  0  0
 20 21  4  0  0  0  0
 21 22  1  0  0  0  0
 22 23  2  0  0  0  0
  2 24  4  0  0  0  0
 23 24  1  0  0  0  0
  1 25  1  0  0  0  0
 21 25  4  0  0  0  0
 24 25  4  0  0  0  0
  2 26  1  0  0  0  0
  4 27  1  0  0  0  0
  5 28  1  0  0  0  0
  8 29  1  0  0  0  0
 10 30  1  0  0  0  0
 11 31  1  0  0  0  0
 16 32  1  0  0  0  0
 17 33  1  0  0  0  0
 20 34  1  0  0  0  0
 22 35  1  0  0  0  0
 23 36  1  0  0  0  0
 38 39  4  0  0  0  0
 39 40  1  0  0  0  0
 40 41  2  0  0  0  0
 41 42  1  0  0  0  0
 37 43  1  0  0  0  0
 39 43  4  0  0  0  0
 42 43  4  0  0  0  0
 42 44  4  0  0  0  0
 44 45  4  0  0  0  0
 45 46  1  0  0  0  0
 46 47  2  0  0  0  0
 37 48  1  0  0  0  0
 45 48  4  0  0  0  0
 47 49  4  0  0  0  0
 48 49  4  0  0  0  0
 49 50  4  0  0  0  0
 50 51  4  0  0  0  0
 51 52  4  0  0  0  0
 52 53  2  0  0  0  0
 53 54  1  0  0  0  0
 37 55  1  0  0  0  0
 51 55  4  0  0  0  0
 54 55  4  0  0  0  0
 54 56  4  0  0  0  0
 56 57  4  0  0  0  0
 57 58  1  0  0  0  0
 58 59  2  0  0  0  0
 38 60  4  0  0  0  0
 59 60  1  0  0  0  0
 37 61  1  0  0  0  0
 57 61  4  0  0  0  0
 60 61  4  0  0  0  0
 38 62  1  0  0  0  0
 40 63  1  0  0  0  0
 41 64  1  0  0  0  0
 44 65  1  0  0  0  0
 46 66  1  0  0  0  0
 47 67  1  0  0  0  0
 52 68  1  0  0  0  0
 53 69  1  0  0  0  0
 56 70  1  0  0  0  0
 58 71  1  0  0  0  0
 59 72  1  0  0  0  0
 14 74  4  0  0  0  0
 73 74  3  0  0  0  0
 73 75  4  0  0  0  0
 75 76  3  0  0  0  0
 77 78  3  0  0  0  0
 77 79  4  0  0  0  0
 50 80  4  0  0  0  0
 79 80  3  0  0  0  0
 76 82  4  0  0  0  0
 82 83  4  0  0  0  0
 83 84  4  0  0  0  0
 84 85  2  0  0  0  0
 85 86  4  0  0  0  0
 81 87  1  0  0  0  0
 83 87  4  0  0  0  0
 86 87  4  0  0  0  0
 86 88  4  0  0  0  0
 88 89  4  0  0  0  0
 89 90  4  0  0  0  0
 90 91  2  0  0  0  0
 81 92  1  0  0  0  0
 89 92  4  0  0  0  0
 91 93  4  0  0  0  0
 92 93  4  0  0  0  0
 78 94  4  0  0  0  0
 93 94  4  0  0  0  0
 94 95  4  0  0  0  0
 95 96  4  0  0  0  0
 96 97  2  0  0  0  0
 97 98  4  0  0  0  0
 81 99  1  0  0  0  0
 95 99  4  0  0  0  0
 98 99  4  0  0  0  0
 98100  4  0  0  0  0
100101  4  0  0  0  0
101102  4  0  0  0  0
102103  2  0  0  0  0
 82104  4  0  0  0  0
103104  4  0  0  0  0
 81105  1  0  0  0  0
101105  4  0  0  0  0
104105  4  0  0  0  0
 84106  1  0  0  0  0
 85107  1  0  0  0  0
 88108  1  0  0  0  0
 90109  1  0  0  0  0
 91110  1  0  0  0  0
 96111  1  0  0  0  0
 97112  1  0  0  0  0
100113  1  0  0  0  0
102114  1  0  0  0  0
103115  1  0  0  0  0
M  END
