120

C 11.688643 -0.026084 0.077221
C 12.422518 1.196975 0.708383
C 11.828448 2.217479 1.415404
C 12.853533 3.139101 1.754688
C 14.037951 2.654255 1.233773
N 13.770740 1.441704 0.648608
C 15.458093 3.359179 1.271468
C 15.449827 4.793808 1.592037
C 15.140249 5.685754 0.626427
C 15.071318 7.166702 0.832509
N 15.518115 7.555915 2.168121
C 15.756766 6.625967 3.153298
C 15.750618 5.307466 2.922914
C 16.584093 2.659783 0.967956
C 17.883511 3.297564 0.938513
C 18.786349 2.390908 0.582805
N 16.781955 1.347168 0.628503
C 18.110971 1.123714 0.376826
C 18.777287 0.000000 0.000000
C 17.999448 -1.369849 -0.197019
C 18.539299 -2.637311 -0.097653
C 17.513282 -3.564634 -0.407932
C 16.371946 -2.838856 -0.678039
N 16.664745 -1.507540 -0.492233
C 14.958725 -3.421618 -1.102059
C 14.968607 -4.755967 -1.715337
C 14.577063 -5.827086 -0.990721
C 14.506462 -7.226252 -1.518320
N 15.064163 -7.336104 -2.865502
C 15.368117 -6.217965 -3.610112
C 15.350013 -4.978982 -3.103999
C 13.837359 -2.679578 -0.905839
C 12.517005 -3.143647 -1.293042
C 11.630838 -2.210446 -0.956956
C 12.351630 -1.114773 -0.356014
N 13.672715 -1.437532 -0.358838
H 10.611458 0.024883 -0.024481
H 10.777998 2.296865 1.648569
H 12.737257 4.065198 2.297056
H 14.465643 0.819360 0.243685
H 14.913028 5.316605 -0.370144
H 14.039600 7.504794 0.684472
H 15.699871 7.670819 0.091048
H 15.215932 8.466582 2.489233
H 15.962708 7.031352 4.137693
H 15.958196 4.580869 3.701213
H 18.086738 4.331361 1.156034
H 19.837754 2.585935 0.474808
H 19.562074 -2.872573 0.155912
H 17.598178 -4.640705 -0.439170
H 15.981916 -0.754779 -0.516051
H 14.268357 -5.672358 0.040570
H 13.461484 -7.554932 -1.530947
H 15.061997 -7.896829 -0.854621
H 14.739299 -8.129067 -3.404094
H 15.630645 -6.405286 -4.645527
H 15.600990 -4.106181 -3.697812
H 12.293297 -4.078301 -1.774396
H 10.568137 -2.252834 -1.112886
C 29.642057 -0.018539 0.079371
C 28.908182 -1.390582 -0.028960
C 29.502252 -2.630481 0.033942
C 28.477167 -3.592512 -0.163535
C 27.292749 -2.905911 -0.350638
N 27.559960 -1.567043 -0.208757
C 25.872606 -3.524822 -0.690179
C 25.880873 -4.912939 -1.173973
C 26.190451 -5.161925 -2.464700
C 26.259382 -6.529056 -3.070199
N 25.812585 -7.563825 -2.140361
C 25.573934 -7.292860 -0.812975
C 25.580082 -6.050965 -0.313756
C 24.746607 -2.770493 -0.579442
C 23.447189 -3.296956 -0.940645
C 22.544351 -2.338986 -0.765013
N 24.548745 -1.476109 -0.176011
C 23.219729 -1.153557 -0.272099
C 22.553413 -0.000000 -0.000000
C 23.331252 1.267942 0.554639
C 22.791401 2.292649 1.307175
C 23.817418 3.244235 1.532306
C 24.958754 2.769849 0.920204
N 24.665955 1.540562 0.376347
C 26.371975 3.488584 0.867054
C 26.362093 4.945775 1.049246
C 26.753637 5.474051 2.229623
C 26.824238 6.941160 2.518790
N 26.266537 7.744629 1.431865
C 25.962583 7.186934 0.209714
C 25.980687 5.867273 -0.013278
C 27.493341 2.754572 0.642662
C 28.813695 3.353035 0.558236
C 29.699862 2.382851 0.351938
C 28.979070 1.134988 0.285072
N 27.657985 1.410756 0.452802
H 30.719242 -0.008241 -0.033921
H 30.552702 -2.820847 0.190239
H 28.593443 -4.665394 -0.190792
H 26.865057 -0.824738 -0.224813
H 26.417672 -4.322918 -3.116999
H 27.291100 -6.738332 -3.374213
H 25.630829 -6.566618 -3.966016
H 26.114768 -8.506968 -2.347507
H 25.367991 -8.156241 -0.190125
H 25.372504 -5.843758 0.730638
H 23.243962 -4.290130 -1.300724
H 21.492946 -2.447793 -0.959590
H 21.768626 2.358916 1.646664
H 23.732522 4.175141 2.072971
H 25.348784 0.913425 -0.040684
H 27.062343 4.798958 3.024450
H 27.869216 7.227127 2.681311
H 26.268703 7.161169 3.436268
H 26.591401 8.702385 1.392153
H 25.700055 7.891899 -0.571437
H 25.729710 5.438578 -0.977962
H 29.037403 4.401028 0.641852
H 30.762563 2.501064 0.241773
C 20.054391 0.000000 0.000000
C 21.276309 0.000000 0.000000
