 xtb: 6.5.1 (b24c23e)
          07302203273D

148167  0     0  0            999 V2000
   14.4901   -0.1323    0.2068 Co  0  0  0  0  0  0  0  0  0  0  0  0
   11.1478   -0.4230    0.5322 C   0  0  0  0  0  0  0  0  0  0  0  0
   11.8320    0.3373    1.4559 C   0  0  0  0  0  0  0  0  0  0  0  0
   11.1969    1.0225    2.5408 C   0  0  0  0  0  0  0  0  0  0  0  0
   12.1304    1.8396    3.0820 C   0  0  0  0  0  0  0  0  0  0  0  0
   13.3419    1.6315    2.3458 C   0  0  0  0  0  0  0  0  0  0  0  0
   13.1560    0.6878    1.3688 N   0  0  0  0  0  0  0  0  0  0  0  0
   14.5090    2.3554    2.5447 C   0  0  0  0  0  0  0  0  0  0  0  0
   15.6847    2.0468    1.8819 C   0  0  0  0  0  0  0  0  0  0  0  0
   16.9398    2.6764    2.1629 C   0  0  0  0  0  0  0  0  0  0  0  0
   17.8925    1.9457    1.5364 C   0  0  0  0  0  0  0  0  0  0  0  0
   15.8639    0.9783    1.0312 N   0  0  0  0  0  0  0  0  0  0  0  0
   17.2145    0.8904    0.8519 C   0  0  0  0  0  0  0  0  0  0  0  0
   17.8774   -0.1061    0.1305 C   0  0  0  0  0  0  0  0  0  0  0  0
   17.1886   -1.0305   -0.6578 C   0  0  0  0  0  0  0  0  0  0  0  0
   17.8444   -1.9891   -1.4908 C   0  0  0  0  0  0  0  0  0  0  0  0
   16.8829   -2.5584   -2.2564 C   0  0  0  0  0  0  0  0  0  0  0  0
   15.6406   -1.9604   -1.8724 C   0  0  0  0  0  0  0  0  0  0  0  0
   14.4243   -2.2580   -2.4661 C   0  0  0  0  0  0  0  0  0  0  0  0
   14.4074   -3.1761   -3.6368 C   0  0  0  0  0  0  0  0  0  0  0  0
   14.9510   -2.7685   -4.8626 C   0  0  0  0  0  0  0  0  0  0  0  0
   15.4554   -1.5076   -4.8985 O   0  0  0  0  0  0  0  0  0  0  0  0
   16.0402   -1.0036   -6.0822 C   0  0  0  0  0  0  0  0  0  0  0  0
   14.9445   -3.6311   -5.9584 C   0  0  0  0  0  0  0  0  0  0  0  0
   14.4022   -4.8999   -5.8224 C   0  0  0  0  0  0  0  0  0  0  0  0
   13.8654   -5.3278   -4.6176 C   0  0  0  0  0  0  0  0  0  0  0  0
   13.8674   -4.4645   -3.5226 C   0  0  0  0  0  0  0  0  0  0  0  0
   13.3778   -4.7978   -2.2994 O   0  0  0  0  0  0  0  0  0  0  0  0
   12.8339   -6.0817   -2.0699 C   0  0  0  0  0  0  0  0  0  0  0  0
   13.2260   -1.7759   -1.9624 C   0  0  0  0  0  0  0  0  0  0  0  0
   11.9392   -2.1257   -2.4879 C   0  0  0  0  0  0  0  0  0  0  0  0
   11.0187   -1.6541   -1.6152 C   0  0  0  0  0  0  0  0  0  0  0  0
   11.7431   -0.9865   -0.5762 C   0  0  0  0  0  0  0  0  0  0  0  0
   13.0919   -1.0250   -0.8212 N   0  0  0  0  0  0  0  0  0  0  0  0
   15.8377   -1.0459   -0.8647 N   0  0  0  0  0  0  0  0  0  0  0  0
   14.5205    3.4546    3.5486 C   0  0  0  0  0  0  0  0  0  0  0  0
   14.4582    3.1637    4.9177 C   0  0  0  0  0  0  0  0  0  0  0  0
   14.3832    1.8455    5.2411 O   0  0  0  0  0  0  0  0  0  0  0  0
   14.3395    1.4409    6.5944 C   0  0  0  0  0  0  0  0  0  0  0  0
   14.4847    4.1921    5.8589 C   0  0  0  0  0  0  0  0  0  0  0  0
   14.5700    5.5070    5.4267 C   0  0  0  0  0  0  0  0  0  0  0  0
   14.6318    5.8188    4.0770 C   0  0  0  0  0  0  0  0  0  0  0  0
   14.6110    4.7900    3.1355 C   0  0  0  0  0  0  0  0  0  0  0  0
   14.6667    4.9934    1.7930 O   0  0  0  0  0  0  0  0  0  0  0  0
   14.7535    6.3041    1.2715 C   0  0  0  0  0  0  0  0  0  0  0  0
   10.0778   -0.5429    0.6572 H   0  0  0  0  0  0  0  0  0  0  0  0
   10.1618    0.8996    2.8183 H   0  0  0  0  0  0  0  0  0  0  0  0
   12.0228    2.5266    3.9055 H   0  0  0  0  0  0  0  0  0  0  0  0
   17.0641    3.5480    2.7847 H   0  0  0  0  0  0  0  0  0  0  0  0
   18.9604    2.0943    1.5265 H   0  0  0  0  0  0  0  0  0  0  0  0
   18.9066   -2.1742   -1.4913 H   0  0  0  0  0  0  0  0  0  0  0  0
   16.9904   -3.3189   -3.0128 H   0  0  0  0  0  0  0  0  0  0  0  0
   15.3140   -0.9621   -6.9031 H   0  0  0  0  0  0  0  0  0  0  0  0
   16.3751    0.0086   -5.8483 H   0  0  0  0  0  0  0  0  0  0  0  0
   16.9030   -1.6058   -6.3918 H   0  0  0  0  0  0  0  0  0  0  0  0
   15.3572   -3.3243   -6.9101 H   0  0  0  0  0  0  0  0  0  0  0  0
   14.3992   -5.5712   -6.6741 H   0  0  0  0  0  0  0  0  0  0  0  0
   13.4528   -6.3247   -4.5388 H   0  0  0  0  0  0  0  0  0  0  0  0
   12.5279   -6.0987   -1.0222 H   0  0  0  0  0  0  0  0  0  0  0  0
   11.9579   -6.2665   -2.7036 H   0  0  0  0  0  0  0  0  0  0  0  0
   13.5775   -6.8695   -2.2407 H   0  0  0  0  0  0  0  0  0  0  0  0
   11.7791   -2.6825   -3.3970 H   0  0  0  0  0  0  0  0  0  0  0  0
    9.9438   -1.7347   -1.6550 H   0  0  0  0  0  0  0  0  0  0  0  0
   14.2864    0.3506    6.5835 H   0  0  0  0  0  0  0  0  0  0  0  0
   13.4543    1.8392    7.1050 H   0  0  0  0  0  0  0  0  0  0  0  0
   15.2411    1.7523    7.1357 H   0  0  0  0  0  0  0  0  0  0  0  0
   14.4411    3.9778    6.9183 H   0  0  0  0  0  0  0  0  0  0  0  0
   14.5898    6.3070    6.1587 H   0  0  0  0  0  0  0  0  0  0  0  0
   14.6977    6.8536    3.7689 H   0  0  0  0  0  0  0  0  0  0  0  0
   15.6640    6.8124    1.6116 H   0  0  0  0  0  0  0  0  0  0  0  0
   14.7869    6.1976    0.1857 H   0  0  0  0  0  0  0  0  0  0  0  0
   13.8786    6.9051    1.5477 H   0  0  0  0  0  0  0  0  0  0  0  0
   27.8655   -0.2271    0.1061 Co  0  0  0  0  0  0  0  0  0  0  0  0
   31.2139   -0.5575    0.3200 C   0  0  0  0  0  0  0  0  0  0  0  0
   30.5292   -1.3756   -0.5526 C   0  0  0  0  0  0  0  0  0  0  0  0
   31.1663   -2.3506   -1.3852 C   0  0  0  0  0  0  0  0  0  0  0  0
   30.2291   -2.7842   -2.2602 C   0  0  0  0  0  0  0  0  0  0  0  0
   29.0135   -2.0951   -1.9426 C   0  0  0  0  0  0  0  0  0  0  0  0
   29.2009   -1.2545   -0.8758 N   0  0  0  0  0  0  0  0  0  0  0  0
   27.8420   -2.2017   -2.6790 C   0  0  0  0  0  0  0  0  0  0  0  0
   26.6658   -1.5911   -2.2777 C   0  0  0  0  0  0  0  0  0  0  0  0
   25.4094   -1.7832   -2.9374 C   0  0  0  0  0  0  0  0  0  0  0  0
   24.4587   -1.2583   -2.1284 C   0  0  0  0  0  0  0  0  0  0  0  0
   26.4890   -0.8939   -1.1029 N   0  0  0  0  0  0  0  0  0  0  0  0
   25.1387   -0.7258   -0.9901 C   0  0  0  0  0  0  0  0  0  0  0  0
   24.4770   -0.1540    0.0998 C   0  0  0  0  0  0  0  0  0  0  0  0
   25.1672    0.4847    1.1322 C   0  0  0  0  0  0  0  0  0  0  0  0
   24.5137    1.1572    2.2108 C   0  0  0  0  0  0  0  0  0  0  0  0
   25.4759    1.8276    2.8884 C   0  0  0  0  0  0  0  0  0  0  0  0
   26.7160    1.5473    2.2312 C   0  0  0  0  0  0  0  0  0  0  0  0
   27.9296    2.1044    2.6011 C   0  0  0  0  0  0  0  0  0  0  0  0
   27.9456    3.1282    3.6806 C   0  0  0  0  0  0  0  0  0  0  0  0
   27.3791    4.3916    3.4637 C   0  0  0  0  0  0  0  0  0  0  0  0
   26.8544    4.6027    2.2286 O   0  0  0  0  0  0  0  0  0  0  0  0
   26.2409    5.8358    1.9117 C   0  0  0  0  0  0  0  0  0  0  0  0
   27.3848    5.3502    4.4767 C   0  0  0  0  0  0  0  0  0  0  0  0
   27.9495    5.0392    5.7043 C   0  0  0  0  0  0  0  0  0  0  0  0
   28.5097    3.7937    5.9443 C   0  0  0  0  0  0  0  0  0  0  0  0
   28.5086    2.8362    4.9305 C   0  0  0  0  0  0  0  0  0  0  0  0
   29.0207    1.5856    5.0747 O   0  0  0  0  0  0  0  0  0  0  0  0
   29.5937    1.1819    6.3017 C   0  0  0  0  0  0  0  0  0  0  0  0
   29.1267    1.6945    2.0347 C   0  0  0  0  0  0  0  0  0  0  0  0
   30.4120    2.1828    2.4398 C   0  0  0  0  0  0  0  0  0  0  0  0
   31.3360    1.3990    1.8370 C   0  0  0  0  0  0  0  0  0  0  0  0
   30.6146    0.4554    1.0377 C   0  0  0  0  0  0  0  0  0  0  0  0
   29.2638    0.6747    1.1262 N   0  0  0  0  0  0  0  0  0  0  0  0
   26.5177    0.6900    1.1745 N   0  0  0  0  0  0  0  0  0  0  0  0
   27.8286   -3.0446   -3.9058 C   0  0  0  0  0  0  0  0  0  0  0  0
   27.9159   -4.4397   -3.8086 C   0  0  0  0  0  0  0  0  0  0  0  0
   28.0147   -4.9419   -2.5494 O   0  0  0  0  0  0  0  0  0  0  0  0
   28.0909   -6.3371   -2.3380 C   0  0  0  0  0  0  0  0  0  0  0  0
   27.8883   -5.2295   -4.9574 C   0  0  0  0  0  0  0  0  0  0  0  0
   27.7767   -4.6210   -6.1984 C   0  0  0  0  0  0  0  0  0  0  0  0
   27.6893   -3.2424   -6.3190 C   0  0  0  0  0  0  0  0  0  0  0  0
   27.7114   -2.4524   -5.1699 C   0  0  0  0  0  0  0  0  0  0  0  0
   27.6323   -1.0958   -5.1846 O   0  0  0  0  0  0  0  0  0  0  0  0
   27.5113   -0.3995   -6.4085 C   0  0  0  0  0  0  0  0  0  0  0  0
   32.2862   -0.6866    0.4107 H   0  0  0  0  0  0  0  0  0  0  0  0
   32.2050   -2.6321   -1.3108 H   0  0  0  0  0  0  0  0  0  0  0  0
   30.3372   -3.5043   -3.0547 H   0  0  0  0  0  0  0  0  0  0  0  0
   25.2827   -2.2816   -3.8846 H   0  0  0  0  0  0  0  0  0  0  0  0
   23.3907   -1.2264   -2.2732 H   0  0  0  0  0  0  0  0  0  0  0  0
   23.4524    1.1251    2.3984 H   0  0  0  0  0  0  0  0  0  0  0  0
   25.3702    2.4559    3.7580 H   0  0  0  0  0  0  0  0  0  0  0  0
   26.9528    6.6676    1.9775 H   0  0  0  0  0  0  0  0  0  0  0  0
   25.8903    5.7445    0.8820 H   0  0  0  0  0  0  0  0  0  0  0  0
   25.3850    6.0386    2.5668 H   0  0  0  0  0  0  0  0  0  0  0  0
   26.9545    6.3298    4.3177 H   0  0  0  0  0  0  0  0  0  0  0  0
   27.9517    5.7839    6.4927 H   0  0  0  0  0  0  0  0  0  0  0  0
   28.9396    3.5771    6.9130 H   0  0  0  0  0  0  0  0  0  0  0  0
   29.9161    0.1486    6.1605 H   0  0  0  0  0  0  0  0  0  0  0  0
   30.4632    1.7978    6.5614 H   0  0  0  0  0  0  0  0  0  0  0  0
   28.8634    1.2227    7.1189 H   0  0  0  0  0  0  0  0  0  0  0  0
   30.5690    3.0056    3.1183 H   0  0  0  0  0  0  0  0  0  0  0  0
   32.4114    1.4416    1.9094 H   0  0  0  0  0  0  0  0  0  0  0  0
   28.1620   -6.4770   -1.2578 H   0  0  0  0  0  0  0  0  0  0  0  0
   28.9788   -6.7685   -2.8160 H   0  0  0  0  0  0  0  0  0  0  0  0
   27.1947   -6.8488   -2.7093 H   0  0  0  0  0  0  0  0  0  0  0  0
   27.9512   -6.3075   -4.8927 H   0  0  0  0  0  0  0  0  0  0  0  0
   27.7560   -5.2354   -7.0919 H   0  0  0  0  0  0  0  0  0  0  0  0
   27.6028   -2.7950   -7.3001 H   0  0  0  0  0  0  0  0  0  0  0  0
   26.5964   -0.6827   -6.9431 H   0  0  0  0  0  0  0  0  0  0  0  0
   27.4627    0.6602   -6.1516 H   0  0  0  0  0  0  0  0  0  0  0  0
   28.3784   -0.5735   -7.0572 H   0  0  0  0  0  0  0  0  0  0  0  0
   20.5026   -0.1582    0.1520 C   0  0  0  0  0  0  0  0  0  0  0  0
   19.2804   -0.1375    0.1473 C   0  0  0  0  0  0  0  0  0  0  0  0
   21.8515   -0.1719    0.1438 C   0  0  0  0  0  0  0  0  0  0  0  0
   23.0738   -0.1690    0.1268 C   0  0  0  0  0  0  0  0  0  0  0  0
  2  3  4  0  0  0  0
  3  4  1  0  0  0  0
  4  5  2  0  0  0  0
  5  6  4  0  0  0  0
  1  7  1  0  0  0  0
  3  7  4  0  0  0  0
  6  7  4  0  0  0  0
  6  8  4  0  0  0  0
  8  9  4  0  0  0  0
  9 10  4  0  0  0  0
 10 11  2  0  0  0  0
  1 12  1  0  0  0  0
  9 12  4  0  0  0  0
 11 13  4  0  0  0  0
 12 13  4  0  0  0  0
 13 14  4  0  0  0  0
 14 15  4  0  0  0  0
 15 16  4  0  0  0  0
 16 17  2  0  0  0  0
 17 18  4  0  0  0  0
 18 19  4  0  0  0  0
 19 20  1  0  0  0  0
 20 21  4  0  0  0  0
 21 22  1  0  0  0  0
 22 23  1  0  0  0  0
 21 24  4  0  0  0  0
 24 25  4  0  0  0  0
 25 26  4  0  0  0  0
 20 27  4  0  0  0  0
 26 27  4  0  0  0  0
 27 28  1  0  0  0  0
 28 29  1  0  0  0  0
 19 30  4  0  0  0  0
 30 31  4  0  0  0  0
 31 32  2  0  0  0  0
  2 33  4  0  0  0  0
 32 33  1  0  0  0  0
  1 34  1  0  0  0  0
 30 34  4  0  0  0  0
 33 34  4  0  0  0  0
  1 35  1  0  0  0  0
 15 35  4  0  0  0  0
 18 35  4  0  0  0  0
  8 36  1  0  0  0  0
 36 37  4  0  0  0  0
 37 38  1  0  0  0  0
 38 39  1  0  0  0  0
 37 40  4  0  0  0  0
 40 41  4  0  0  0  0
 41 42  4  0  0  0  0
 36 43  4  0  0  0  0
 42 43  4  0  0  0  0
 43 44  1  0  0  0  0
 44 45  1  0  0  0  0
  2 46  1  0  0  0  0
  4 47  1  0  0  0  0
  5 48  1  0  0  0  0
 10 49  1  0  0  0  0
 11 50  1  0  0  0  0
 16 51  1  0  0  0  0
 17 52  1  0  0  0  0
 23 53  1  0  0  0  0
 23 54  1  0  0  0  0
 23 55  1  0  0  0  0
 24 56  1  0  0  0  0
 25 57  1  0  0  0  0
 26 58  1  0  0  0  0
 29 59  1  0  0  0  0
 29 60  1  0  0  0  0
 29 61  1  0  0  0  0
 31 62  1  0  0  0  0
 32 63  1  0  0  0  0
 39 64  1  0  0  0  0
 39 65  1  0  0  0  0
 39 66  1  0  0  0  0
 40 67  1  0  0  0  0
 41 68  1  0  0  0  0
 42 69  1  0  0  0  0
 45 70  1  0  0  0  0
 45 71  1  0  0  0  0
 45 72  1  0  0  0  0
 74 75  4  0  0  0  0
 75 76  1  0  0  0  0
 76 77  2  0  0  0  0
 77 78  4  0  0  0  0
 73 79  1  0  0  0  0
 75 79  4  0  0  0  0
 78 79  4  0  0  0  0
 78 80  4  0  0  0  0
 80 81  4  0  0  0  0
 81 82  4  0  0  0  0
 82 83  2  0  0  0  0
 73 84  1  0  0  0  0
 81 84  4  0  0  0  0
 83 85  4  0  0  0  0
 84 85  4  0  0  0  0
 85 86  4  0  0  0  0
 86 87  4  0  0  0  0
 87 88  4  0  0  0  0
 88 89  2  0  0  0  0
 89 90  4  0  0  0  0
 90 91  4  0  0  0  0
 91 92  1  0  0  0  0
 92 93  4  0  0  0  0
 93 94  1  0  0  0  0
 94 95  1  0  0  0  0
 93 96  4  0  0  0  0
 96 97  4  0  0  0  0
 97 98  4  0  0  0  0
 92 99  4  0  0  0  0
 98 99  4  0  0  0  0
 99100  1  0  0  0  0
100101  1  0  0  0  0
 91102  4  0  0  0  0
102103  4  0  0  0  0
103104  2  0  0  0  0
 74105  4  0  0  0  0
104105  1  0  0  0  0
 73106  1  0  0  0  0
102106  4  0  0  0  0
105106  4  0  0  0  0
 73107  1  0  0  0  0
 87107  4  0  0  0  0
 90107  4  0  0  0  0
 80108  1  0  0  0  0
108109  4  0  0  0  0
109110  1  0  0  0  0
110111  1  0  0  0  0
109112  4  0  0  0  0
112113  4  0  0  0  0
113114  4  0  0  0  0
108115  4  0  0  0  0
114115  4  0  0  0  0
115116  1  0  0  0  0
116117  1  0  0  0  0
 74118  1  0  0  0  0
 76119  1  0  0  0  0
 77120  1  0  0  0  0
 82121  1  0  0  0  0
 83122  1  0  0  0  0
 88123  1  0  0  0  0
 89124  1  0  0  0  0
 95125  1  0  0  0  0
 95126  1  0  0  0  0
 95127  1  0  0  0  0
 96128  1  0  0  0  0
 97129  1  0  0  0  0
 98130  1  0  0  0  0
101131  1  0  0  0  0
101132  1  0  0  0  0
101133  1  0  0  0  0
103134  1  0  0  0  0
104135  1  0  0  0  0
111136  1  0  0  0  0
111137  1  0  0  0  0
111138  1  0  0  0  0
112139  1  0  0  0  0
113140  1  0  0  0  0
114141  1  0  0  0  0
117142  1  0  0  0  0
117143  1  0  0  0  0
117144  1  0  0  0  0
 14146  4  0  0  0  0
145146  3  0  0  0  0
145147  4  0  0  0  0
 86148  4  0  0  0  0
147148  3  0  0  0  0
M  END
