 xtb: 6.5.1 (b24c23e)
          07302202133D

256303  0     0  0            999 V2000
   44.7017    0.0064   -0.0869 Co  0  0  0  0  0  0  0  0  0  0  0  0
   41.3333    0.0035   -0.2526 C   0  0  0  0  0  0  0  0  0  0  0  0
   41.9849   -1.2052   -0.1326 C   0  0  0  0  0  0  0  0  0  0  0  0
   41.3202   -2.4688   -0.0333 C   0  0  0  0  0  0  0  0  0  0  0  0
   42.2794   -3.4201   -0.1180 C   0  0  0  0  0  0  0  0  0  0  0  0
   43.5277   -2.7352   -0.2902 C   0  0  0  0  0  0  0  0  0  0  0  0
   43.3434   -1.3781   -0.2239 N   0  0  0  0  0  0  0  0  0  0  0  0
   44.7265   -3.3587   -0.6111 C   0  0  0  0  0  0  0  0  0  0  0  0
   44.7409   -4.8204   -0.8359 C   0  0  0  0  0  0  0  0  0  0  0  0
   45.5644   -5.6444   -0.0624 C   0  0  0  0  0  0  0  0  0  0  0  0
   45.5823   -7.0119   -0.2672 C   0  0  0  0  0  0  0  0  0  0  0  0
   44.7736   -7.5604   -1.2585 C   0  0  0  0  0  0  0  0  0  0  0  0
   44.7913   -8.9957   -1.4805 N   0  0  0  0  0  0  0  0  0  0  0  0
   44.0704   -9.4359   -2.3389 O   0  0  0  0  0  0  0  0  0  0  0  0
   45.5254   -9.6572   -0.7923 O   0  0  0  0  0  0  0  0  0  0  0  0
   43.9492   -6.7576   -2.0418 C   0  0  0  0  0  0  0  0  0  0  0  0
   43.9348   -5.3919   -1.8253 C   0  0  0  0  0  0  0  0  0  0  0  0
   45.9107   -2.6471   -0.7433 C   0  0  0  0  0  0  0  0  0  0  0  0
   47.1549   -3.2210   -1.1597 C   0  0  0  0  0  0  0  0  0  0  0  0
   48.0989   -2.2618   -1.0042 C   0  0  0  0  0  0  0  0  0  0  0  0
   46.0824   -1.3260   -0.4023 N   0  0  0  0  0  0  0  0  0  0  0  0
   47.4286   -1.1056   -0.4993 C   0  0  0  0  0  0  0  0  0  0  0  0
   48.0937    0.0281   -0.0269 C   0  0  0  0  0  0  0  0  0  0  0  0
   47.3994    1.1430    0.4488 C   0  0  0  0  0  0  0  0  0  0  0  0
   48.0358    2.2881    1.0183 C   0  0  0  0  0  0  0  0  0  0  0  0
   47.0693    3.2203    1.1987 C   0  0  0  0  0  0  0  0  0  0  0  0
   45.8480    2.6464    0.7186 C   0  0  0  0  0  0  0  0  0  0  0  0
   46.0527    1.3436    0.3265 N   0  0  0  0  0  0  0  0  0  0  0  0
   44.6642    3.3511    0.5534 C   0  0  0  0  0  0  0  0  0  0  0  0
   44.6404    4.8002    0.8474 C   0  0  0  0  0  0  0  0  0  0  0  0
   43.7550    5.3106    1.8020 C   0  0  0  0  0  0  0  0  0  0  0  0
   43.7279    6.6643    2.0832 C   0  0  0  0  0  0  0  0  0  0  0  0
   44.5901    7.5169    1.3997 C   0  0  0  0  0  0  0  0  0  0  0  0
   44.5645    8.9399    1.6895 N   0  0  0  0  0  0  0  0  0  0  0  0
   43.7761    9.3268    2.5136 O   0  0  0  0  0  0  0  0  0  0  0  0
   45.3312    9.6457    1.0861 O   0  0  0  0  0  0  0  0  0  0  0  0
   45.4762    7.0300    0.4430 C   0  0  0  0  0  0  0  0  0  0  0  0
   45.4990    5.6739    0.1730 C   0  0  0  0  0  0  0  0  0  0  0  0
   43.5003    2.7364    0.1088 C   0  0  0  0  0  0  0  0  0  0  0  0
   42.2728    3.4269   -0.1620 C   0  0  0  0  0  0  0  0  0  0  0  0
   41.3357    2.4799   -0.4011 C   0  0  0  0  0  0  0  0  0  0  0  0
   41.9922    1.2134   -0.2814 C   0  0  0  0  0  0  0  0  0  0  0  0
   43.3321    1.3839   -0.0347 N   0  0  0  0  0  0  0  0  0  0  0  0
   40.2516    0.0031   -0.3140 H   0  0  0  0  0  0  0  0  0  0  0  0
   40.2552   -2.5913    0.0820 H   0  0  0  0  0  0  0  0  0  0  0  0
   42.1654   -4.4910   -0.0736 H   0  0  0  0  0  0  0  0  0  0  0  0
   46.1805   -5.2062    0.7140 H   0  0  0  0  0  0  0  0  0  0  0  0
   46.2122   -7.6591    0.3311 H   0  0  0  0  0  0  0  0  0  0  0  0
   43.3331   -7.2088   -2.8102 H   0  0  0  0  0  0  0  0  0  0  0  0
   43.3077   -4.7547   -2.4380 H   0  0  0  0  0  0  0  0  0  0  0  0
   47.2787   -4.2276   -1.5246 H   0  0  0  0  0  0  0  0  0  0  0  0
   49.1576   -2.3192   -1.1988 H   0  0  0  0  0  0  0  0  0  0  0  0
   49.0881    2.3551    1.2422 H   0  0  0  0  0  0  0  0  0  0  0  0
   47.1649    4.2097    1.6151 H   0  0  0  0  0  0  0  0  0  0  0  0
   43.0973    4.6347    2.3360 H   0  0  0  0  0  0  0  0  0  0  0  0
   43.0501    7.0681    2.8257 H   0  0  0  0  0  0  0  0  0  0  0  0
   46.1333    7.7154   -0.0787 H   0  0  0  0  0  0  0  0  0  0  0  0
   46.1746    5.2844   -0.5795 H   0  0  0  0  0  0  0  0  0  0  0  0
   42.1574    4.4986   -0.1666 H   0  0  0  0  0  0  0  0  0  0  0  0
   40.2891    2.6063   -0.6274 H   0  0  0  0  0  0  0  0  0  0  0  0
   92.5685    0.0638   -0.0494 Co  0  0  0  0  0  0  0  0  0  0  0  0
   95.9359    0.1158   -0.1987 C   0  0  0  0  0  0  0  0  0  0  0  0
   95.2873    1.1944    0.3636 C   0  0  0  0  0  0  0  0  0  0  0  0
   95.9547    2.3282    0.9275 C   0  0  0  0  0  0  0  0  0  0  0  0
   94.9985    3.2483    1.1951 C   0  0  0  0  0  0  0  0  0  0  0  0
   93.7496    2.6816    0.7756 C   0  0  0  0  0  0  0  0  0  0  0  0
   93.9299    1.3955    0.3364 N   0  0  0  0  0  0  0  0  0  0  0  0
   92.5536    3.3847    0.7023 C   0  0  0  0  0  0  0  0  0  0  0  0
   92.5443    4.8263    1.0314 C   0  0  0  0  0  0  0  0  0  0  0  0
   91.7177    5.3114    2.0497 C   0  0  0  0  0  0  0  0  0  0  0  0
   91.7055    6.6580    2.3639 C   0  0  0  0  0  0  0  0  0  0  0  0
   92.5232    7.5291    1.6497 C   0  0  0  0  0  0  0  0  0  0  0  0
   92.5120    8.9450    1.9736 N   0  0  0  0  0  0  0  0  0  0  0  0
   93.2401    9.6670    1.3422 O   0  0  0  0  0  0  0  0  0  0  0  0
   91.7764    9.3093    2.8547 O   0  0  0  0  0  0  0  0  0  0  0  0
   93.3507    7.0674    0.6301 C   0  0  0  0  0  0  0  0  0  0  0  0
   93.3593    5.7181    0.3272 C   0  0  0  0  0  0  0  0  0  0  0  0
   91.3679    2.7757    0.3157 C   0  0  0  0  0  0  0  0  0  0  0  0
   90.1252    3.4654    0.1381 C   0  0  0  0  0  0  0  0  0  0  0  0
   89.1785    2.5178   -0.0657 C   0  0  0  0  0  0  0  0  0  0  0  0
   91.1921    1.4217    0.1507 N   0  0  0  0  0  0  0  0  0  0  0  0
   89.8457    1.2555   -0.0178 C   0  0  0  0  0  0  0  0  0  0  0  0
   89.1781    0.0283    0.0154 C   0  0  0  0  0  0  0  0  0  0  0  0
   89.8712   -1.1851    0.0481 C   0  0  0  0  0  0  0  0  0  0  0  0
   89.2340   -2.4586    0.1603 C   0  0  0  0  0  0  0  0  0  0  0  0
   90.1967   -3.3927   -0.0307 C   0  0  0  0  0  0  0  0  0  0  0  0
   91.4163   -2.6835   -0.2779 C   0  0  0  0  0  0  0  0  0  0  0  0
   91.2149   -1.3279   -0.1545 N   0  0  0  0  0  0  0  0  0  0  0  0
   92.5941   -3.2762   -0.7096 C   0  0  0  0  0  0  0  0  0  0  0  0
   92.6108   -4.7289   -0.9854 C   0  0  0  0  0  0  0  0  0  0  0  0
   93.5023   -5.5655   -0.3065 C   0  0  0  0  0  0  0  0  0  0  0  0
   93.5226   -6.9248   -0.5599 C   0  0  0  0  0  0  0  0  0  0  0  0
   92.6472   -7.4522   -1.5049 C   0  0  0  0  0  0  0  0  0  0  0  0
   92.6667   -8.8787   -1.7778 N   0  0  0  0  0  0  0  0  0  0  0  0
   93.4627   -9.5509   -1.1738 O   0  0  0  0  0  0  0  0  0  0  0  0
   91.8872   -9.3010   -2.5928 O   0  0  0  0  0  0  0  0  0  0  0  0
   91.7539   -6.6367   -2.1937 C   0  0  0  0  0  0  0  0  0  0  0  0
   91.7381   -5.2795   -1.9291 C   0  0  0  0  0  0  0  0  0  0  0  0
   93.7586   -2.5418   -0.8991 C   0  0  0  0  0  0  0  0  0  0  0  0
   94.9825   -3.0821   -1.4156 C   0  0  0  0  0  0  0  0  0  0  0  0
   95.9241   -2.1195   -1.2772 C   0  0  0  0  0  0  0  0  0  0  0  0
   95.2732   -0.9909   -0.6842 C   0  0  0  0  0  0  0  0  0  0  0  0
   93.9326   -1.2368   -0.5192 N   0  0  0  0  0  0  0  0  0  0  0  0
   97.0178    0.1345   -0.2525 H   0  0  0  0  0  0  0  0  0  0  0  0
   97.0192    2.3942    1.0855 H   0  0  0  0  0  0  0  0  0  0  0  0
   95.1152    4.2265    1.6326 H   0  0  0  0  0  0  0  0  0  0  0  0
   91.0948    4.6210    2.6064 H   0  0  0  0  0  0  0  0  0  0  0  0
   91.0733    7.0422    3.1554 H   0  0  0  0  0  0  0  0  0  0  0  0
   93.9738    7.7669    0.0859 H   0  0  0  0  0  0  0  0  0  0  0  0
   93.9888    5.3486   -0.4738 H   0  0  0  0  0  0  0  0  0  0  0  0
   90.0042    4.5360    0.1656 H   0  0  0  0  0  0  0  0  0  0  0  0
   88.1199    2.6450   -0.2244 H   0  0  0  0  0  0  0  0  0  0  0  0
   88.1837   -2.6024    0.3558 H   0  0  0  0  0  0  0  0  0  0  0  0
   90.0998   -4.4659   -0.0107 H   0  0  0  0  0  0  0  0  0  0  0  0
   94.1703   -5.1443    0.4358 H   0  0  0  0  0  0  0  0  0  0  0  0
   94.2054   -7.5818   -0.0346 H   0  0  0  0  0  0  0  0  0  0  0  0
   91.0862   -7.0714   -2.9278 H   0  0  0  0  0  0  0  0  0  0  0  0
   91.0569   -4.6319   -2.4688 H   0  0  0  0  0  0  0  0  0  0  0  0
   95.0929   -4.0717   -1.8283 H   0  0  0  0  0  0  0  0  0  0  0  0
   96.9701   -2.1549   -1.5364 H   0  0  0  0  0  0  0  0  0  0  0  0
   53.2942    0.0532   -0.0024 C   0  0  0  0  0  0  0  0  0  0  0  0
   52.0654    0.0514   -0.0062 C   0  0  0  0  0  0  0  0  0  0  0  0
   50.7213    0.0476   -0.0107 C   0  0  0  0  0  0  0  0  0  0  0  0
   49.4973    0.0405   -0.0165 C   0  0  0  0  0  0  0  0  0  0  0  0
   54.6380    0.0514   -0.0035 C   0  0  0  0  0  0  0  0  0  0  0  0
   55.8624    0.0499   -0.0050 C   0  0  0  0  0  0  0  0  0  0  0  0
   69.2545    0.0277    0.0604 C   0  0  0  0  0  0  0  0  0  0  0  0
   68.0248    0.0327    0.0606 C   0  0  0  0  0  0  0  0  0  0  0  0
   66.6823    0.0379    0.0550 C   0  0  0  0  0  0  0  0  0  0  0  0
   65.4573    0.0408    0.0438 C   0  0  0  0  0  0  0  0  0  0  0  0
   70.5970    0.0219    0.0551 C   0  0  0  0  0  0  0  0  0  0  0  0
   71.8220    0.0160    0.0453 C   0  0  0  0  0  0  0  0  0  0  0  0
   85.2086   -0.0042    0.0385 C   0  0  0  0  0  0  0  0  0  0  0  0
   83.9792   -0.0078    0.0417 C   0  0  0  0  0  0  0  0  0  0  0  0
   82.6366   -0.0104    0.0403 C   0  0  0  0  0  0  0  0  0  0  0  0
   81.4117   -0.0125    0.0357 C   0  0  0  0  0  0  0  0  0  0  0  0
   86.5514    0.0054    0.0342 C   0  0  0  0  0  0  0  0  0  0  0  0
   87.7760    0.0141    0.0267 C   0  0  0  0  0  0  0  0  0  0  0  0
   60.6607    0.0436   -0.0146 Co  0  0  0  0  0  0  0  0  0  0  0  0
   57.2648    0.0469   -0.0125 C   0  0  0  0  0  0  0  0  0  0  0  0
   57.9466   -1.1275    0.3190 C   0  0  0  0  0  0  0  0  0  0  0  0
   57.2965   -2.3383    0.7080 C   0  0  0  0  0  0  0  0  0  0  0  0
   58.2505   -3.3010    0.7303 C   0  0  0  0  0  0  0  0  0  0  0  0
   59.4779   -2.6729    0.3451 C   0  0  0  0  0  0  0  0  0  0  0  0
   59.2901   -1.3239    0.1619 N   0  0  0  0  0  0  0  0  0  0  0  0
   60.6577   -3.3542    0.0741 C   0  0  0  0  0  0  0  0  0  0  0  0
   60.6547   -4.8326    0.1113 C   0  0  0  0  0  0  0  0  0  0  0  0
   61.5121   -5.5185    0.9772 C   0  0  0  0  0  0  0  0  0  0  0  0
   61.5120   -6.9009    1.0170 C   0  0  0  0  0  0  0  0  0  0  0  0
   60.6506   -7.6038    0.1798 C   0  0  0  0  0  0  0  0  0  0  0  0
   60.6498   -9.0565    0.2147 N   0  0  0  0  0  0  0  0  0  0  0  0
   59.8831   -9.6307   -0.5147 O   0  0  0  0  0  0  0  0  0  0  0  0
   61.4152   -9.5957    0.9716 O   0  0  0  0  0  0  0  0  0  0  0  0
   59.7903   -6.9404   -0.6903 C   0  0  0  0  0  0  0  0  0  0  0  0
   59.7941   -5.5577   -0.7185 C   0  0  0  0  0  0  0  0  0  0  0  0
   61.8403   -2.6909   -0.2229 C   0  0  0  0  0  0  0  0  0  0  0  0
   63.0729   -3.3412   -0.5524 C   0  0  0  0  0  0  0  0  0  0  0  0
   64.0307   -2.3824   -0.5537 C   0  0  0  0  0  0  0  0  0  0  0  0
   62.0304   -1.3336   -0.1068 N   0  0  0  0  0  0  0  0  0  0  0  0
   63.3772   -1.1511   -0.2423 C   0  0  0  0  0  0  0  0  0  0  0  0
   64.0562    0.0422    0.0243 C   0  0  0  0  0  0  0  0  0  0  0  0
   63.3710    1.2382    0.2600 C   0  0  0  0  0  0  0  0  0  0  0  0
   64.0174    2.4748    0.5656 C   0  0  0  0  0  0  0  0  0  0  0  0
   63.0636    3.4359    0.5065 C   0  0  0  0  0  0  0  0  0  0  0  0
   61.8400    2.7805    0.1554 C   0  0  0  0  0  0  0  0  0  0  0  0
   62.0298    1.4211    0.0749 N   0  0  0  0  0  0  0  0  0  0  0  0
   60.6642    3.4386   -0.1790 C   0  0  0  0  0  0  0  0  0  0  0  0
   60.6679    4.9155   -0.2534 C   0  0  0  0  0  0  0  0  0  0  0  0
   61.5377    5.5750   -1.1273 C   0  0  0  0  0  0  0  0  0  0  0  0
   61.5440    6.9558   -1.2034 C   0  0  0  0  0  0  0  0  0  0  0  0
   60.6772    7.6840   -0.3938 C   0  0  0  0  0  0  0  0  0  0  0  0
   60.6825    9.1352   -0.4670 N   0  0  0  0  0  0  0  0  0  0  0  0
   61.4550    9.6513   -1.2328 O   0  0  0  0  0  0  0  0  0  0  0  0
   59.9125    9.7314    0.2410 O   0  0  0  0  0  0  0  0  0  0  0  0
   59.8059    7.0472    0.4852 C   0  0  0  0  0  0  0  0  0  0  0  0
   59.8032    5.6658    0.5494 C   0  0  0  0  0  0  0  0  0  0  0  0
   59.4842    2.7541   -0.4390 C   0  0  0  0  0  0  0  0  0  0  0  0
   58.2558    3.3778   -0.8291 C   0  0  0  0  0  0  0  0  0  0  0  0
   57.2975    2.4211   -0.7696 C   0  0  0  0  0  0  0  0  0  0  0  0
   57.9469    1.2166   -0.3609 C   0  0  0  0  0  0  0  0  0  0  0  0
   59.2927    1.4096   -0.2245 N   0  0  0  0  0  0  0  0  0  0  0  0
   56.2439   -2.4264    0.9230 H   0  0  0  0  0  0  0  0  0  0  0  0
   58.1425   -4.3432    0.9829 H   0  0  0  0  0  0  0  0  0  0  0  0
   62.1686   -4.9592    1.6333 H   0  0  0  0  0  0  0  0  0  0  0  0
   62.1683   -7.4412    1.6886 H   0  0  0  0  0  0  0  0  0  0  0  0
   59.1321   -7.5114   -1.3340 H   0  0  0  0  0  0  0  0  0  0  0  0
   59.1381   -5.0295   -1.4005 H   0  0  0  0  0  0  0  0  0  0  0  0
   63.1815   -4.3946   -0.7522 H   0  0  0  0  0  0  0  0  0  0  0  0
   65.0874   -2.4847   -0.7404 H   0  0  0  0  0  0  0  0  0  0  0  0
   65.0676    2.5788    0.7852 H   0  0  0  0  0  0  0  0  0  0  0  0
   63.1689    4.4939    0.6828 H   0  0  0  0  0  0  0  0  0  0  0  0
   62.1992    4.9958   -1.7610 H   0  0  0  0  0  0  0  0  0  0  0  0
   62.2096    7.4757   -1.8819 H   0  0  0  0  0  0  0  0  0  0  0  0
   59.1443    7.6375    1.1077 H   0  0  0  0  0  0  0  0  0  0  0  0
   59.1389    5.1584    1.2392 H   0  0  0  0  0  0  0  0  0  0  0  0
   58.1498    4.4135   -1.1074 H   0  0  0  0  0  0  0  0  0  0  0  0
   56.2428    2.5091   -0.9745 H   0  0  0  0  0  0  0  0  0  0  0  0
   76.6168   -0.0008    0.0075 Co  0  0  0  0  0  0  0  0  0  0  0  0
   73.2229    0.0098    0.0271 C   0  0  0  0  0  0  0  0  0  0  0  0
   73.9051   -1.1671    0.3525 C   0  0  0  0  0  0  0  0  0  0  0  0
   73.2564   -2.3769    0.7471 C   0  0  0  0  0  0  0  0  0  0  0  0
   74.2082   -3.3420    0.7569 C   0  0  0  0  0  0  0  0  0  0  0  0
   75.4329   -2.7162    0.3592 C   0  0  0  0  0  0  0  0  0  0  0  0
   75.2456   -1.3661    0.1805 N   0  0  0  0  0  0  0  0  0  0  0  0
   76.6076   -3.3984    0.0704 C   0  0  0  0  0  0  0  0  0  0  0  0
   76.6015   -4.8768    0.0995 C   0  0  0  0  0  0  0  0  0  0  0  0
   77.4694   -5.5703    0.9486 C   0  0  0  0  0  0  0  0  0  0  0  0
   77.4644   -6.9529    0.9818 C   0  0  0  0  0  0  0  0  0  0  0  0
   76.5872   -7.6484    0.1548 C   0  0  0  0  0  0  0  0  0  0  0  0
   76.5794   -9.1012    0.1842 N   0  0  0  0  0  0  0  0  0  0  0  0
   75.7960   -9.6684   -0.5327 O   0  0  0  0  0  0  0  0  0  0  0  0
   77.3560   -9.6473    0.9247 O   0  0  0  0  0  0  0  0  0  0  0  0
   75.7169   -6.9774   -0.6993 C   0  0  0  0  0  0  0  0  0  0  0  0
   75.7259   -5.5946   -0.7211 C   0  0  0  0  0  0  0  0  0  0  0  0
   77.7886   -2.7354   -0.2364 C   0  0  0  0  0  0  0  0  0  0  0  0
   79.0166   -3.3847   -0.5830 C   0  0  0  0  0  0  0  0  0  0  0  0
   79.9763   -2.4274   -0.5845 C   0  0  0  0  0  0  0  0  0  0  0  0
   77.9819   -1.3796   -0.1116 N   0  0  0  0  0  0  0  0  0  0  0  0
   79.3279   -1.1980   -0.2562 C   0  0  0  0  0  0  0  0  0  0  0  0
   80.0108   -0.0096    0.0230 C   0  0  0  0  0  0  0  0  0  0  0  0
   79.3287    1.1846    0.2773 C   0  0  0  0  0  0  0  0  0  0  0  0
   79.9774    2.4174    0.5922 C   0  0  0  0  0  0  0  0  0  0  0  0
   79.0261    3.3816    0.5367 C   0  0  0  0  0  0  0  0  0  0  0  0
   77.8017    2.7313    0.1797 C   0  0  0  0  0  0  0  0  0  0  0  0
   77.9882    1.3725    0.0914 N   0  0  0  0  0  0  0  0  0  0  0  0
   76.6274    3.3935   -0.1553 C   0  0  0  0  0  0  0  0  0  0  0  0
   76.6362    4.8703   -0.2289 C   0  0  0  0  0  0  0  0  0  0  0  0
   77.5132    5.5272   -1.0977 C   0  0  0  0  0  0  0  0  0  0  0  0
   77.5242    6.9080   -1.1737 C   0  0  0  0  0  0  0  0  0  0  0  0
   76.6547    7.6388   -0.3693 C   0  0  0  0  0  0  0  0  0  0  0  0
   76.6635    9.0900   -0.4437 N   0  0  0  0  0  0  0  0  0  0  0  0
   77.4433    9.6039   -1.2035 O   0  0  0  0  0  0  0  0  0  0  0  0
   75.8897    9.6883    0.2584 O   0  0  0  0  0  0  0  0  0  0  0  0
   75.7771    7.0047    0.5052 C   0  0  0  0  0  0  0  0  0  0  0  0
   75.7699    5.6233    0.5696 C   0  0  0  0  0  0  0  0  0  0  0  0
   75.4460    2.7122   -0.4153 C   0  0  0  0  0  0  0  0  0  0  0  0
   74.2174    3.3377   -0.8019 C   0  0  0  0  0  0  0  0  0  0  0  0
   73.2569    2.3836   -0.7354 C   0  0  0  0  0  0  0  0  0  0  0  0
   73.9055    1.1782   -0.3272 C   0  0  0  0  0  0  0  0  0  0  0  0
   75.2520    1.3677   -0.1991 N   0  0  0  0  0  0  0  0  0  0  0  0
   72.2060   -2.4627    0.9738 H   0  0  0  0  0  0  0  0  0  0  0  0
   74.1008   -4.3842    1.0094 H   0  0  0  0  0  0  0  0  0  0  0  0
   78.1380   -5.0169    1.5976 H   0  0  0  0  0  0  0  0  0  0  0  0
   78.1286   -7.4990    1.6408 H   0  0  0  0  0  0  0  0  0  0  0  0
   75.0466   -7.5426   -1.3357 H   0  0  0  0  0  0  0  0  0  0  0  0
   75.0621   -5.0604   -1.3907 H   0  0  0  0  0  0  0  0  0  0  0  0
   79.1219   -4.4366   -0.7928 H   0  0  0  0  0  0  0  0  0  0  0  0
   81.0313   -2.5302   -0.7808 H   0  0  0  0  0  0  0  0  0  0  0  0
   81.0275    2.5179    0.8139 H   0  0  0  0  0  0  0  0  0  0  0  0
   79.1340    4.4382    0.7194 H   0  0  0  0  0  0  0  0  0  0  0  0
   78.1764    4.9461   -1.7277 H   0  0  0  0  0  0  0  0  0  0  0  0
   78.1952    7.4258   -1.8484 H   0  0  0  0  0  0  0  0  0  0  0  0
   75.1139    7.5970    1.1242 H   0  0  0  0  0  0  0  0  0  0  0  0
   75.1008    5.1180    1.2563 H   0  0  0  0  0  0  0  0  0  0  0  0
   74.1126    4.3730   -1.0823 H   0  0  0  0  0  0  0  0  0  0  0  0
   72.2016    2.4735   -0.9358 H   0  0  0  0  0  0  0  0  0  0  0  0
  2  3  4  0  0  0  0
  3  4  1  0  0  0  0
  4  5  2  0  0  0  0
  5  6  4  0  0  0  0
  1  7  1  0  0  0  0
  3  7  4  0  0  0  0
  6  7  4  0  0  0  0
  6  8  4  0  0  0  0
  8  9  1  0  0  0  0
  9 10  4  0  0  0  0
 10 11  4  0  0  0  0
 11 12  4  0  0  0  0
 12 13  1  0  0  0  0
 13 14  2  0  0  0  0
 13 15  2  0  0  0  0
 14 15  1  0  0  0  0
 12 16  4  0  0  0  0
  9 17  4  0  0  0  0
 16 17  4  0  0  0  0
  8 18  4  0  0  0  0
 18 19  4  0  0  0  0
 19 20  2  0  0  0  0
  1 21  1  0  0  0  0
 18 21  4  0  0  0  0
 20 22  4  0  0  0  0
 21 22  4  0  0  0  0
 22 23  4  0  0  0  0
 23 24  4  0  0  0  0
 24 25  4  0  0  0  0
 25 26  2  0  0  0  0
 26 27  4  0  0  0  0
  1 28  1  0  0  0  0
 24 28  4  0  0  0  0
 27 28  4  0  0  0  0
 27 29  4  0  0  0  0
 29 30  1  0  0  0  0
 30 31  4  0  0  0  0
 31 32  4  0  0  0  0
 32 33  4  0  0  0  0
 33 34  1  0  0  0  0
 34 35  2  0  0  0  0
 34 36  2  0  0  0  0
 35 36  1  0  0  0  0
 33 37  4  0  0  0  0
 30 38  4  0  0  0  0
 37 38  4  0  0  0  0
 29 39  4  0  0  0  0
 39 40  4  0  0  0  0
 40 41  2  0  0  0  0
  2 42  4  0  0  0  0
 41 42  1  0  0  0  0
  1 43  1  0  0  0  0
 39 43  4  0  0  0  0
 42 43  4  0  0  0  0
  2 44  1  0  0  0  0
  4 45  1  0  0  0  0
  5 46  1  0  0  0  0
 10 47  1  0  0  0  0
 11 48  1  0  0  0  0
 16 49  1  0  0  0  0
 17 50  1  0  0  0  0
 19 51  1  0  0  0  0
 20 52  1  0  0  0  0
 25 53  1  0  0  0  0
 26 54  1  0  0  0  0
 31 55  1  0  0  0  0
 32 56  1  0  0  0  0
 37 57  1  0  0  0  0
 38 58  1  0  0  0  0
 40 59  1  0  0  0  0
 41 60  1  0  0  0  0
 62 63  4  0  0  0  0
 63 64  1  0  0  0  0
 64 65  2  0  0  0  0
 65 66  4  0  0  0  0
 61 67  1  0  0  0  0
 63 67  4  0  0  0  0
 66 67  4  0  0  0  0
 66 68  4  0  0  0  0
 68 69  1  0  0  0  0
 69 70  4  0  0  0  0
 70 71  4  0  0  0  0
 71 72  4  0  0  0  0
 72 73  1  0  0  0  0
 73 74  2  0  0  0  0
 73 75  2  0  0  0  0
 74 75  1  0  0  0  0
 72 76  4  0  0  0  0
 69 77  4  0  0  0  0
 76 77  4  0  0  0  0
 68 78  4  0  0  0  0
 78 79  4  0  0  0  0
 79 80  2  0  0  0  0
 61 81  1  0  0  0  0
 78 81  4  0  0  0  0
 80 82  4  0  0  0  0
 81 82  4  0  0  0  0
 82 83  4  0  0  0  0
 83 84  4  0  0  0  0
 84 85  4  0  0  0  0
 85 86  2  0  0  0  0
 86 87  4  0  0  0  0
 61 88  1  0  0  0  0
 84 88  4  0  0  0  0
 87 88  4  0  0  0  0
 87 89  4  0  0  0  0
 89 90  1  0  0  0  0
 90 91  4  0  0  0  0
 91 92  4  0  0  0  0
 92 93  4  0  0  0  0
 93 94  1  0  0  0  0
 94 95  2  0  0  0  0
 94 96  2  0  0  0  0
 95 96  1  0  0  0  0
 93 97  4  0  0  0  0
 90 98  4  0  0  0  0
 97 98  4  0  0  0  0
 89 99  4  0  0  0  0
 99100  4  0  0  0  0
100101  2  0  0  0  0
 62102  4  0  0  0  0
101102  1  0  0  0  0
 61103  1  0  0  0  0
 99103  4  0  0  0  0
102103  4  0  0  0  0
 62104  1  0  0  0  0
 64105  1  0  0  0  0
 65106  1  0  0  0  0
 70107  1  0  0  0  0
 71108  1  0  0  0  0
 76109  1  0  0  0  0
 77110  1  0  0  0  0
 79111  1  0  0  0  0
 80112  1  0  0  0  0
 85113  1  0  0  0  0
 86114  1  0  0  0  0
 91115  1  0  0  0  0
 92116  1  0  0  0  0
 97117  1  0  0  0  0
 98118  1  0  0  0  0
100119  1  0  0  0  0
101120  1  0  0  0  0
121122  3  0  0  0  0
122123  4  0  0  0  0
 23124  4  0  0  0  0
123124  3  0  0  0  0
121125  4  0  0  0  0
125126  3  0  0  0  0
127128  3  0  0  0  0
128129  4  0  0  0  0
129130  3  0  0  0  0
127131  4  0  0  0  0
131132  3  0  0  0  0
133134  3  0  0  0  0
134135  4  0  0  0  0
135136  3  0  0  0  0
133137  4  0  0  0  0
 83138  4  0  0  0  0
137138  3  0  0  0  0
126140  4  0  0  0  0
140141  4  0  0  0  0
141142  4  0  0  0  0
142143  2  0  0  0  0
143144  4  0  0  0  0
139145  1  0  0  0  0
141145  4  0  0  0  0
144145  4  0  0  0  0
144146  4  0  0  0  0
146147  1  0  0  0  0
147148  4  0  0  0  0
148149  4  0  0  0  0
149150  4  0  0  0  0
150151  1  0  0  0  0
151152  2  0  0  0  0
151153  2  0  0  0  0
152153  1  0  0  0  0
150154  4  0  0  0  0
147155  4  0  0  0  0
154155  4  0  0  0  0
146156  4  0  0  0  0
156157  4  0  0  0  0
157158  2  0  0  0  0
139159  1  0  0  0  0
156159  4  0  0  0  0
158160  4  0  0  0  0
159160  4  0  0  0  0
130161  4  0  0  0  0
160161  4  0  0  0  0
161162  4  0  0  0  0
162163  4  0  0  0  0
163164  2  0  0  0  0
164165  4  0  0  0  0
139166  1  0  0  0  0
162166  4  0  0  0  0
165166  4  0  0  0  0
165167  4  0  0  0  0
167168  1  0  0  0  0
168169  4  0  0  0  0
169170  4  0  0  0  0
170171  4  0  0  0  0
171172  1  0  0  0  0
172173  2  0  0  0  0
172174  2  0  0  0  0
173174  1  0  0  0  0
171175  4  0  0  0  0
168176  4  0  0  0  0
175176  4  0  0  0  0
167177  4  0  0  0  0
177178  4  0  0  0  0
178179  2  0  0  0  0
140180  4  0  0  0  0
179180  4  0  0  0  0
139181  1  0  0  0  0
177181  4  0  0  0  0
180181  4  0  0  0  0
142182  1  0  0  0  0
143183  1  0  0  0  0
148184  1  0  0  0  0
149185  1  0  0  0  0
154186  1  0  0  0  0
155187  1  0  0  0  0
157188  1  0  0  0  0
158189  1  0  0  0  0
163190  1  0  0  0  0
164191  1  0  0  0  0
169192  1  0  0  0  0
170193  1  0  0  0  0
175194  1  0  0  0  0
176195  1  0  0  0  0
178196  1  0  0  0  0
179197  1  0  0  0  0
132199  4  0  0  0  0
199200  4  0  0  0  0
200201  4  0  0  0  0
201202  2  0  0  0  0
202203  4  0  0  0  0
198204  1  0  0  0  0
200204  4  0  0  0  0
203204  4  0  0  0  0
203205  4  0  0  0  0
205206  1  0  0  0  0
206207  4  0  0  0  0
207208  4  0  0  0  0
208209  4  0  0  0  0
209210  1  0  0  0  0
210211  2  0  0  0  0
210212  2  0  0  0  0
211212  1  0  0  0  0
209213  4  0  0  0  0
206214  4  0  0  0  0
213214  4  0  0  0  0
205215  4  0  0  0  0
215216  4  0  0  0  0
216217  2  0  0  0  0
198218  1  0  0  0  0
215218  4  0  0  0  0
217219  4  0  0  0  0
218219  4  0  0  0  0
136220  4  0  0  0  0
219220  4  0  0  0  0
220221  4  0  0  0  0
221222  4  0  0  0  0
222223  2  0  0  0  0
223224  4  0  0  0  0
198225  1  0  0  0  0
221225  4  0  0  0  0
224225  4  0  0  0  0
224226  4  0  0  0  0
226227  1  0  0  0  0
227228  4  0  0  0  0
228229  4  0  0  0  0
229230  4  0  0  0  0
230231  1  0  0  0  0
231232  2  0  0  0  0
231233  2  0  0  0  0
232233  1  0  0  0  0
230234  4  0  0  0  0
227235  4  0  0  0  0
234235  4  0  0  0  0
226236  4  0  0  0  0
236237  4  0  0  0  0
237238  2  0  0  0  0
199239  4  0  0  0  0
238239  4  0  0  0  0
198240  1  0  0  0  0
236240  4  0  0  0  0
239240  4  0  0  0  0
201241  1  0  0  0  0
202242  1  0  0  0  0
207243  1  0  0  0  0
208244  1  0  0  0  0
213245  1  0  0  0  0
214246  1  0  0  0  0
216247  1  0  0  0  0
217248  1  0  0  0  0
222249  1  0  0  0  0
223250  1  0  0  0  0
228251  1  0  0  0  0
229252  1  0  0  0  0
234253  1  0  0  0  0
235254  1  0  0  0  0
237255  1  0  0  0  0
238256  1  0  0  0  0
M  END
