 xtb: 6.5.1 (b24c23e)
          07302204173D

270309  0     0  0            999 V2000
   46.3793   -0.0536   -0.0043 Co  0  0  0  0  0  0  0  0  0  0  0  0
   43.0083   -0.1474    0.0274 C   0  0  0  0  0  0  0  0  0  0  0  0
   43.6838   -0.4342    1.1940 C   0  0  0  0  0  0  0  0  0  0  0  0
   43.0376   -0.7721    2.4257 C   0  0  0  0  0  0  0  0  0  0  0  0
   43.9969   -0.7733    3.3802 C   0  0  0  0  0  0  0  0  0  0  0  0
   45.2314   -0.4431    2.7293 C   0  0  0  0  0  0  0  0  0  0  0  0
   45.0350   -0.2827    1.3811 N   0  0  0  0  0  0  0  0  0  0  0  0
   46.4107   -0.1487    3.3997 C   0  0  0  0  0  0  0  0  0  0  0  0
   47.5777    0.1799    2.7268 C   0  0  0  0  0  0  0  0  0  0  0  0
   48.8236    0.4637    3.3737 C   0  0  0  0  0  0  0  0  0  0  0  0
   49.7685    0.5017    2.4042 C   0  0  0  0  0  0  0  0  0  0  0  0
   47.7544    0.0940    1.3642 N   0  0  0  0  0  0  0  0  0  0  0  0
   49.0998    0.2379    1.1696 C   0  0  0  0  0  0  0  0  0  0  0  0
   49.7700    0.0052   -0.0336 C   0  0  0  0  0  0  0  0  0  0  0  0
   49.0832   -0.2270   -1.2271 C   0  0  0  0  0  0  0  0  0  0  0  0
   49.7311   -0.4858   -2.4736 C   0  0  0  0  0  0  0  0  0  0  0  0
   48.7694   -0.4439   -3.4271 C   0  0  0  0  0  0  0  0  0  0  0  0
   47.5371   -0.1534   -2.7584 C   0  0  0  0  0  0  0  0  0  0  0  0
   46.3421    0.1207   -3.4081 C   0  0  0  0  0  0  0  0  0  0  0  0
   46.3306    0.1980   -4.8858 C   0  0  0  0  0  0  0  0  0  0  0  0
   45.5179   -0.6574   -5.6347 C   0  0  0  0  0  0  0  0  0  0  0  0
   45.5125   -0.5834   -7.0153 C   0  0  0  0  0  0  0  0  0  0  0  0
   46.3154    0.3505   -7.6732 C   0  0  0  0  0  0  0  0  0  0  0  0
   46.2728    0.3934   -9.1545 C   0  0  0  0  0  0  0  0  0  0  0  0
   47.0810    1.3218   -9.6882 O   0  0  0  0  0  0  0  0  0  0  0  0
   45.5870   -0.3251   -9.8364 O   0  0  0  0  0  0  0  0  0  0  0  0
   47.1273    1.2080   -6.9301 C   0  0  0  0  0  0  0  0  0  0  0  0
   47.1353    1.1284   -5.5486 C   0  0  0  0  0  0  0  0  0  0  0  0
   45.1576    0.3143   -2.7104 C   0  0  0  0  0  0  0  0  0  0  0  0
   43.9002    0.6273   -3.3247 C   0  0  0  0  0  0  0  0  0  0  0  0
   42.9586    0.5375   -2.3564 C   0  0  0  0  0  0  0  0  0  0  0  0
   43.6431    0.1878   -1.1490 C   0  0  0  0  0  0  0  0  0  0  0  0
   44.9970    0.1164   -1.3625 N   0  0  0  0  0  0  0  0  0  0  0  0
   47.7339   -0.0860   -1.3987 N   0  0  0  0  0  0  0  0  0  0  0  0
   46.4251   -0.1950    4.8810 C   0  0  0  0  0  0  0  0  0  0  0  0
   46.2474   -1.4090    5.5487 C   0  0  0  0  0  0  0  0  0  0  0  0
   46.2658   -1.4530    6.9307 C   0  0  0  0  0  0  0  0  0  0  0  0
   46.4581   -0.2838    7.6691 C   0  0  0  0  0  0  0  0  0  0  0  0
   46.4696   -0.3823    9.1484 C   0  0  0  0  0  0  0  0  0  0  0  0
   46.6682    0.7935    9.7633 O   0  0  0  0  0  0  0  0  0  0  0  0
   46.3180   -1.4073    9.7631 O   0  0  0  0  0  0  0  0  0  0  0  0
   46.6330    0.9311    7.0060 C   0  0  0  0  0  0  0  0  0  0  0  0
   46.6182    0.9725    5.6225 C   0  0  0  0  0  0  0  0  0  0  0  0
   41.9253   -0.1782    0.0382 H   0  0  0  0  0  0  0  0  0  0  0  0
   41.9807   -0.9594    2.5293 H   0  0  0  0  0  0  0  0  0  0  0  0
   43.8886   -0.9574    4.4366 H   0  0  0  0  0  0  0  0  0  0  0  0
   48.9518    0.5907    4.4362 H   0  0  0  0  0  0  0  0  0  0  0  0
   50.8286    0.6721    2.5014 H   0  0  0  0  0  0  0  0  0  0  0  0
   50.7881   -0.6641   -2.5883 H   0  0  0  0  0  0  0  0  0  0  0  0
   48.8734   -0.5958   -4.4891 H   0  0  0  0  0  0  0  0  0  0  0  0
   44.9040   -1.3924   -5.1267 H   0  0  0  0  0  0  0  0  0  0  0  0
   44.8887   -1.2479   -7.6030 H   0  0  0  0  0  0  0  0  0  0  0  0
   46.9948    1.2854  -10.6547 H   0  0  0  0  0  0  0  0  0  0  0  0
   47.7496    1.9363   -7.4364 H   0  0  0  0  0  0  0  0  0  0  0  0
   47.7572    1.8027   -4.9707 H   0  0  0  0  0  0  0  0  0  0  0  0
   43.7689    0.8773   -4.3650 H   0  0  0  0  0  0  0  0  0  0  0  0
   41.8933    0.6856   -2.4334 H   0  0  0  0  0  0  0  0  0  0  0  0
   46.1104   -2.3192    4.9761 H   0  0  0  0  0  0  0  0  0  0  0  0
   46.1337   -2.3921    7.4566 H   0  0  0  0  0  0  0  0  0  0  0  0
   46.6625    0.6434   10.7226 H   0  0  0  0  0  0  0  0  0  0  0  0
   46.7791    1.8412    7.5756 H   0  0  0  0  0  0  0  0  0  0  0  0
   46.7428    1.9179    5.1068 H   0  0  0  0  0  0  0  0  0  0  0  0
  101.9349   -0.0410   -0.0454 Co  0  0  0  0  0  0  0  0  0  0  0  0
  105.3062   -0.1377   -0.0903 C   0  0  0  0  0  0  0  0  0  0  0  0
  104.6298   -0.2859   -1.2820 C   0  0  0  0  0  0  0  0  0  0  0  0
  105.2753   -0.4785   -2.5450 C   0  0  0  0  0  0  0  0  0  0  0  0
  104.3152   -0.3687   -3.4924 C   0  0  0  0  0  0  0  0  0  0  0  0
  103.0813   -0.1163   -2.8066 C   0  0  0  0  0  0  0  0  0  0  0  0
  103.2785   -0.1137   -1.4492 N   0  0  0  0  0  0  0  0  0  0  0  0
  101.9014    0.2533   -3.4378 C   0  0  0  0  0  0  0  0  0  0  0  0
  100.7349    0.5032   -2.7311 C   0  0  0  0  0  0  0  0  0  0  0  0
   99.4892    0.8613   -3.3405 C   0  0  0  0  0  0  0  0  0  0  0  0
   98.5449    0.7903   -2.3721 C   0  0  0  0  0  0  0  0  0  0  0  0
  100.5586    0.2617   -1.3873 N   0  0  0  0  0  0  0  0  0  0  0  0
   99.2139    0.3857   -1.1764 C   0  0  0  0  0  0  0  0  0  0  0  0
   98.5434    0.0177   -0.0072 C   0  0  0  0  0  0  0  0  0  0  0  0
   99.2308   -0.3524    1.1511 C   0  0  0  0  0  0  0  0  0  0  0  0
   98.5829   -0.7523    2.3598 C   0  0  0  0  0  0  0  0  0  0  0  0
   99.5454   -0.8248    3.3107 C   0  0  0  0  0  0  0  0  0  0  0  0
  100.7781   -0.4622    2.6789 C   0  0  0  0  0  0  0  0  0  0  0  0
  101.9741   -0.2690    3.3549 C   0  0  0  0  0  0  0  0  0  0  0  0
  101.9874   -0.3657    4.8314 C   0  0  0  0  0  0  0  0  0  0  0  0
  102.7969   -1.3069    5.4731 C   0  0  0  0  0  0  0  0  0  0  0  0
  102.8041   -1.3958    6.8528 C   0  0  0  0  0  0  0  0  0  0  0  0
  102.0066   -0.5420    7.6172 C   0  0  0  0  0  0  0  0  0  0  0  0
  102.0510   -0.6739    9.0933 C   0  0  0  0  0  0  0  0  0  0  0  0
  101.2482    0.1892    9.7337 O   0  0  0  0  0  0  0  0  0  0  0  0
  102.7337   -1.4712    9.6846 O   0  0  0  0  0  0  0  0  0  0  0  0
  101.1982    0.4009    6.9815 C   0  0  0  0  0  0  0  0  0  0  0  0
  101.1880    0.4842    5.6002 C   0  0  0  0  0  0  0  0  0  0  0  0
  103.1588    0.0030    2.6838 C   0  0  0  0  0  0  0  0  0  0  0  0
  104.4168    0.2399    3.3300 C   0  0  0  0  0  0  0  0  0  0  0  0
  105.3579    0.2631    2.3573 C   0  0  0  0  0  0  0  0  0  0  0  0
  104.6724    0.0583    1.1176 C   0  0  0  0  0  0  0  0  0  0  0  0
  103.3186   -0.0367    1.3221 N   0  0  0  0  0  0  0  0  0  0  0  0
  100.5805   -0.2365    1.3363 N   0  0  0  0  0  0  0  0  0  0  0  0
  101.8865    0.3772   -4.9147 C   0  0  0  0  0  0  0  0  0  0  0  0
  102.0634   -0.7526   -5.7169 C   0  0  0  0  0  0  0  0  0  0  0  0
  102.0450   -0.6383   -7.0948 C   0  0  0  0  0  0  0  0  0  0  0  0
  101.8535    0.6078   -7.6946 C   0  0  0  0  0  0  0  0  0  0  0  0
  101.8418    0.6791   -9.1755 C   0  0  0  0  0  0  0  0  0  0  0  0
  101.6463    1.9179   -9.6519 O   0  0  0  0  0  0  0  0  0  0  0  0
  101.9907   -0.2694   -9.9033 O   0  0  0  0  0  0  0  0  0  0  0  0
  101.6796    1.7390   -6.8969 C   0  0  0  0  0  0  0  0  0  0  0  0
  101.6943    1.6219   -5.5177 C   0  0  0  0  0  0  0  0  0  0  0  0
  106.3892   -0.1679   -0.1053 H   0  0  0  0  0  0  0  0  0  0  0  0
  106.3321   -0.6524   -2.6703 H   0  0  0  0  0  0  0  0  0  0  0  0
  104.4229   -0.4288   -4.5632 H   0  0  0  0  0  0  0  0  0  0  0  0
   99.3607    1.1091   -4.3814 H   0  0  0  0  0  0  0  0  0  0  0  0
   97.4852    0.9729   -2.4483 H   0  0  0  0  0  0  0  0  0  0  0  0
   97.5254   -0.9393    2.4542 H   0  0  0  0  0  0  0  0  0  0  0  0
   99.4417   -1.0987    4.3479 H   0  0  0  0  0  0  0  0  0  0  0  0
  103.4068   -1.9798    4.8810 H   0  0  0  0  0  0  0  0  0  0  0  0
  103.4254   -2.1278    7.3572 H   0  0  0  0  0  0  0  0  0  0  0  0
  101.3349    0.0390   10.6891 H   0  0  0  0  0  0  0  0  0  0  0  0
  100.5802    1.0677    7.5710 H   0  0  0  0  0  0  0  0  0  0  0  0
  100.5688    1.2247    5.1066 H   0  0  0  0  0  0  0  0  0  0  0  0
  104.5489    0.3659    4.3923 H   0  0  0  0  0  0  0  0  0  0  0  0
  106.4235    0.3999    2.4504 H   0  0  0  0  0  0  0  0  0  0  0  0
  102.2000   -1.7224   -5.2521 H   0  0  0  0  0  0  0  0  0  0  0  0
  102.1765   -1.5112   -7.7247 H   0  0  0  0  0  0  0  0  0  0  0  0
  101.6519    1.8786  -10.6221 H   0  0  0  0  0  0  0  0  0  0  0  0
  101.5343    2.7084   -7.3586 H   0  0  0  0  0  0  0  0  0  0  0  0
  101.5705    2.5022   -4.8972 H   0  0  0  0  0  0  0  0  0  0  0  0
   51.1735    0.0073   -0.0436 C   0  0  0  0  0  0  0  0  0  0  0  0
   52.3980    0.0076   -0.0504 C   0  0  0  0  0  0  0  0  0  0  0  0
   53.7403    0.0084   -0.0556 C   0  0  0  0  0  0  0  0  0  0  0  0
   54.9714    0.0082   -0.0573 C   0  0  0  0  0  0  0  0  0  0  0  0
   56.3086    0.0087   -0.0574 C   0  0  0  0  0  0  0  0  0  0  0  0
   57.5398    0.0079   -0.0564 C   0  0  0  0  0  0  0  0  0  0  0  0
   58.8816    0.0095   -0.0531 C   0  0  0  0  0  0  0  0  0  0  0  0
   60.1066    0.0105   -0.0481 C   0  0  0  0  0  0  0  0  0  0  0  0
   69.6907    0.0265    0.0091 C   0  0  0  0  0  0  0  0  0  0  0  0
   70.9166    0.0270    0.0141 C   0  0  0  0  0  0  0  0  0  0  0  0
   72.2570    0.0273    0.0178 C   0  0  0  0  0  0  0  0  0  0  0  0
   73.4892    0.0275    0.0192 C   0  0  0  0  0  0  0  0  0  0  0  0
   74.8248    0.0286    0.0192 C   0  0  0  0  0  0  0  0  0  0  0  0
   76.0570    0.0276    0.0168 C   0  0  0  0  0  0  0  0  0  0  0  0
   77.3974    0.0280    0.0126 C   0  0  0  0  0  0  0  0  0  0  0  0
   78.6233    0.0288    0.0068 C   0  0  0  0  0  0  0  0  0  0  0  0
   88.2072    0.0218    0.0205 C   0  0  0  0  0  0  0  0  0  0  0  0
   89.4325    0.0212    0.0263 C   0  0  0  0  0  0  0  0  0  0  0  0
   90.7739    0.0206    0.0286 C   0  0  0  0  0  0  0  0  0  0  0  0
   92.0055    0.0236    0.0282 C   0  0  0  0  0  0  0  0  0  0  0  0
   93.3423    0.0252    0.0259 C   0  0  0  0  0  0  0  0  0  0  0  0
   94.5737    0.0245    0.0229 C   0  0  0  0  0  0  0  0  0  0  0  0
   95.9156    0.0227    0.0145 C   0  0  0  0  0  0  0  0  0  0  0  0
   97.1405    0.0209    0.0044 C   0  0  0  0  0  0  0  0  0  0  0  0
   64.8992    0.0193   -0.0055 Co  0  0  0  0  0  0  0  0  0  0  0  0
   61.5083    0.0129   -0.0427 C   0  0  0  0  0  0  0  0  0  0  0  0
   62.1946   -1.1712   -0.3288 C   0  0  0  0  0  0  0  0  0  0  0  0
   61.5526   -2.4008   -0.6689 C   0  0  0  0  0  0  0  0  0  0  0  0
   62.5093   -3.3608   -0.6338 C   0  0  0  0  0  0  0  0  0  0  0  0
   63.7299   -2.7124   -0.2611 C   0  0  0  0  0  0  0  0  0  0  0  0
   63.5373   -1.3556   -0.1522 N   0  0  0  0  0  0  0  0  0  0  0  0
   64.9014   -3.3766    0.0798 C   0  0  0  0  0  0  0  0  0  0  0  0
   66.0737   -2.6931    0.3719 C   0  0  0  0  0  0  0  0  0  0  0  0
   67.2965   -3.3151    0.7810 C   0  0  0  0  0  0  0  0  0  0  0  0
   68.2521   -2.3537    0.7521 C   0  0  0  0  0  0  0  0  0  0  0  0
   66.2665   -1.3461    0.1707 N   0  0  0  0  0  0  0  0  0  0  0  0
   67.6071   -1.1482    0.3392 C   0  0  0  0  0  0  0  0  0  0  0  0
   68.2904    0.0246   -0.0000 C   0  0  0  0  0  0  0  0  0  0  0  0
   67.6084    1.1947   -0.3504 C   0  0  0  0  0  0  0  0  0  0  0  0
   68.2564    2.4023   -0.7531 C   0  0  0  0  0  0  0  0  0  0  0  0
   67.2976    3.3593   -0.8034 C   0  0  0  0  0  0  0  0  0  0  0  0
   66.0698    2.7332   -0.4156 C   0  0  0  0  0  0  0  0  0  0  0  0
   64.8909    3.4137   -0.1448 C   0  0  0  0  0  0  0  0  0  0  0  0
   64.8789    4.8912   -0.2107 C   0  0  0  0  0  0  0  0  0  0  0  0
   65.7411    5.6458    0.5894 C   0  0  0  0  0  0  0  0  0  0  0  0
   65.7216    7.0269    0.5260 C   0  0  0  0  0  0  0  0  0  0  0  0
   64.8447    7.6793   -0.3426 C   0  0  0  0  0  0  0  0  0  0  0  0
   64.8625    9.1618   -0.3766 C   0  0  0  0  0  0  0  0  0  0  0  0
   63.9814    9.6891   -1.2395 O   0  0  0  0  0  0  0  0  0  0  0  0
   65.5885    9.8484    0.2962 O   0  0  0  0  0  0  0  0  0  0  0  0
   63.9841    6.9305   -1.1459 C   0  0  0  0  0  0  0  0  0  0  0  0
   64.0005    5.5487   -1.0763 C   0  0  0  0  0  0  0  0  0  0  0  0
   63.7175    2.7470    0.1854 C   0  0  0  0  0  0  0  0  0  0  0  0
   62.4918    3.3920    0.5468 C   0  0  0  0  0  0  0  0  0  0  0  0
   61.5387    2.4281    0.5801 C   0  0  0  0  0  0  0  0  0  0  0  0
   62.1875    1.2001    0.2480 C   0  0  0  0  0  0  0  0  0  0  0  0
   63.5297    1.3902    0.0741 N   0  0  0  0  0  0  0  0  0  0  0  0
   66.2631    1.3861   -0.2128 N   0  0  0  0  0  0  0  0  0  0  0  0
   64.8950   -4.8545    0.1391 C   0  0  0  0  0  0  0  0  0  0  0  0
   64.0081   -5.5212    0.9891 C   0  0  0  0  0  0  0  0  0  0  0  0
   64.0025   -6.9024    1.0472 C   0  0  0  0  0  0  0  0  0  0  0  0
   64.8789   -7.6435    0.2522 C   0  0  0  0  0  0  0  0  0  0  0  0
   64.8309   -9.1228    0.3462 C   0  0  0  0  0  0  0  0  0  0  0  0
   65.7111   -9.7402   -0.4555 O   0  0  0  0  0  0  0  0  0  0  0  0
   64.0821   -9.7338    1.0651 O   0  0  0  0  0  0  0  0  0  0  0  0
   65.7645   -6.9830   -0.5997 C   0  0  0  0  0  0  0  0  0  0  0  0
   65.7731   -5.6000   -0.6518 C   0  0  0  0  0  0  0  0  0  0  0  0
   60.5026   -2.5021   -0.8913 H   0  0  0  0  0  0  0  0  0  0  0  0
   62.4070   -4.4144   -0.8364 H   0  0  0  0  0  0  0  0  0  0  0  0
   67.4007   -4.3534    1.0508 H   0  0  0  0  0  0  0  0  0  0  0  0
   69.3025   -2.4395    0.9791 H   0  0  0  0  0  0  0  0  0  0  0  0
   69.3108    2.4921   -0.9587 H   0  0  0  0  0  0  0  0  0  0  0  0
   67.4029    4.3977   -1.0722 H   0  0  0  0  0  0  0  0  0  0  0  0
   66.4130    5.1418    1.2748 H   0  0  0  0  0  0  0  0  0  0  0  0
   66.3833    7.6191    1.1486 H   0  0  0  0  0  0  0  0  0  0  0  0
   64.0546   10.6567   -1.2018 H   0  0  0  0  0  0  0  0  0  0  0  0
   63.3044    7.4326   -1.8242 H   0  0  0  0  0  0  0  0  0  0  0  0
   63.3405    4.9664   -1.7093 H   0  0  0  0  0  0  0  0  0  0  0  0
   62.3845    4.4458    0.7460 H   0  0  0  0  0  0  0  0  0  0  0  0
   60.4872    2.5261    0.7968 H   0  0  0  0  0  0  0  0  0  0  0  0
   63.3357   -4.9471    1.6163 H   0  0  0  0  0  0  0  0  0  0  0  0
   63.3211   -7.4260    1.7087 H   0  0  0  0  0  0  0  0  0  0  0  0
   65.6164  -10.6992   -0.3361 H   0  0  0  0  0  0  0  0  0  0  0  0
   66.4438   -7.5545   -1.2210 H   0  0  0  0  0  0  0  0  0  0  0  0
   66.4519   -5.0875   -1.3240 H   0  0  0  0  0  0  0  0  0  0  0  0
   83.4148    0.0258    0.0134 Co  0  0  0  0  0  0  0  0  0  0  0  0
   80.0235    0.0283   -0.0003 C   0  0  0  0  0  0  0  0  0  0  0  0
   80.7044   -1.1690   -0.2457 C   0  0  0  0  0  0  0  0  0  0  0  0
   80.0557   -2.4049   -0.5487 C   0  0  0  0  0  0  0  0  0  0  0  0
   81.0127   -3.3644   -0.5137 C   0  0  0  0  0  0  0  0  0  0  0  0
   82.2397   -2.7101   -0.1722 C   0  0  0  0  0  0  0  0  0  0  0  0
   82.0484   -1.3504   -0.0856 N   0  0  0  0  0  0  0  0  0  0  0  0
   83.4141   -3.3675    0.1673 C   0  0  0  0  0  0  0  0  0  0  0  0
   84.5860   -2.6775    0.4517 C   0  0  0  0  0  0  0  0  0  0  0  0
   85.8053   -3.2909    0.8827 C   0  0  0  0  0  0  0  0  0  0  0  0
   86.7607   -2.3294    0.8443 C   0  0  0  0  0  0  0  0  0  0  0  0
   84.7793   -1.3359    0.2250 N   0  0  0  0  0  0  0  0  0  0  0  0
   86.1197   -1.1338    0.3984 C   0  0  0  0  0  0  0  0  0  0  0  0
   86.8060    0.0217    0.0110 C   0  0  0  0  0  0  0  0  0  0  0  0
   86.1260    1.1763   -0.3899 C   0  0  0  0  0  0  0  0  0  0  0  0
   86.7752    2.3677   -0.8356 C   0  0  0  0  0  0  0  0  0  0  0  0
   85.8207    3.3283   -0.9019 C   0  0  0  0  0  0  0  0  0  0  0  0
   84.5942    2.7197   -0.4839 C   0  0  0  0  0  0  0  0  0  0  0  0
   83.4214    3.4146   -0.2181 C   0  0  0  0  0  0  0  0  0  0  0  0
   83.4282    4.8913   -0.3003 C   0  0  0  0  0  0  0  0  0  0  0  0
   84.3070    5.6377    0.4897 C   0  0  0  0  0  0  0  0  0  0  0  0
   84.3099    7.0183    0.4162 C   0  0  0  0  0  0  0  0  0  0  0  0
   83.4392    7.6784   -0.4528 C   0  0  0  0  0  0  0  0  0  0  0  0
   83.4834    9.1601   -0.4992 C   0  0  0  0  0  0  0  0  0  0  0  0
   82.6078    9.6962   -1.3622 O   0  0  0  0  0  0  0  0  0  0  0  0
   84.2249    9.8388    0.1647 O   0  0  0  0  0  0  0  0  0  0  0  0
   82.5620    6.9379   -1.2456 C   0  0  0  0  0  0  0  0  0  0  0  0
   82.5559    5.5563   -1.1660 C   0  0  0  0  0  0  0  0  0  0  0  0
   82.2452    2.7636    0.1290 C   0  0  0  0  0  0  0  0  0  0  0  0
   81.0222    3.4236    0.4726 C   0  0  0  0  0  0  0  0  0  0  0  0
   80.0646    2.4656    0.5305 C   0  0  0  0  0  0  0  0  0  0  0  0
   80.7084    1.2256    0.2342 C   0  0  0  0  0  0  0  0  0  0  0  0
   82.0501    1.4043    0.0532 N   0  0  0  0  0  0  0  0  0  0  0  0
   84.7822    1.3785   -0.2465 N   0  0  0  0  0  0  0  0  0  0  0  0
   83.4203   -4.8452    0.2298 C   0  0  0  0  0  0  0  0  0  0  0  0
   82.5440   -5.5241    1.0809 C   0  0  0  0  0  0  0  0  0  0  0  0
   82.5546   -6.9056    1.1350 C   0  0  0  0  0  0  0  0  0  0  0  0
   83.4368   -7.6345    0.3353 C   0  0  0  0  0  0  0  0  0  0  0  0
   83.4066   -9.1146    0.4249 C   0  0  0  0  0  0  0  0  0  0  0  0
   84.2936   -9.7187   -0.3795 O   0  0  0  0  0  0  0  0  0  0  0  0
   82.6669   -9.7368    1.1437 O   0  0  0  0  0  0  0  0  0  0  0  0
   84.3127   -6.9617   -0.5170 C   0  0  0  0  0  0  0  0  0  0  0  0
   84.3050   -5.5788   -0.5652 C   0  0  0  0  0  0  0  0  0  0  0  0
   79.0022   -2.5098   -0.7520 H   0  0  0  0  0  0  0  0  0  0  0  0
   80.9065   -4.4213   -0.6955 H   0  0  0  0  0  0  0  0  0  0  0  0
   85.9070   -4.3237    1.1739 H   0  0  0  0  0  0  0  0  0  0  0  0
   87.8092   -2.4102    1.0818 H   0  0  0  0  0  0  0  0  0  0  0  0
   87.8279    2.4462   -1.0545 H   0  0  0  0  0  0  0  0  0  0  0  0
   85.9280    4.3582   -1.2009 H   0  0  0  0  0  0  0  0  0  0  0  0
   84.9747    5.1275    1.1745 H   0  0  0  0  0  0  0  0  0  0  0  0
   84.9848    7.6040    1.0307 H   0  0  0  0  0  0  0  0  0  0  0  0
   82.6990   10.6625   -1.3331 H   0  0  0  0  0  0  0  0  0  0  0  0
   81.8870    7.4462   -1.9240 H   0  0  0  0  0  0  0  0  0  0  0  0
   81.8834    4.9805   -1.7917 H   0  0  0  0  0  0  0  0  0  0  0  0
   80.9194    4.4828    0.6434 H   0  0  0  0  0  0  0  0  0  0  0  0
   79.0135    2.5742    0.7440 H   0  0  0  0  0  0  0  0  0  0  0  0
   81.8675   -4.9597    1.7125 H   0  0  0  0  0  0  0  0  0  0  0  0
   81.8811   -7.4388    1.7970 H   0  0  0  0  0  0  0  0  0  0  0  0
   84.2118  -10.6792   -0.2622 H   0  0  0  0  0  0  0  0  0  0  0  0
   84.9970   -7.5236   -1.1416 H   0  0  0  0  0  0  0  0  0  0  0  0
   84.9766   -5.0564   -1.2371 H   0  0  0  0  0  0  0  0  0  0  0  0
  2  3  4  0  0  0  0
  3  4  1  0  0  0  0
  4  5  2  0  0  0  0
  5  6  4  0  0  0  0
  1  7  1  0  0  0  0
  3  7  4  0  0  0  0
  6  7  4  0  0  0  0
  6  8  4  0  0  0  0
  8  9  4  0  0  0  0
  9 10  4  0  0  0  0
 10 11  2  0  0  0  0
  1 12  1  0  0  0  0
  9 12  4  0  0  0  0
 11 13  4  0  0  0  0
 12 13  4  0  0  0  0
 13 14  4  0  0  0  0
 14 15  4  0  0  0  0
 15 16  4  0  0  0  0
 16 17  2  0  0  0  0
 17 18  4  0  0  0  0
 18 19  4  0  0  0  0
 19 20  1  0  0  0  0
 20 21  4  0  0  0  0
 21 22  4  0  0  0  0
 22 23  4  0  0  0  0
 23 24  1  0  0  0  0
 24 25  4  0  0  0  0
 24 26  2  0  0  0  0
 23 27  4  0  0  0  0
 20 28  4  0  0  0  0
 27 28  4  0  0  0  0
 19 29  4  0  0  0  0
 29 30  4  0  0  0  0
 30 31  2  0  0  0  0
  2 32  4  0  0  0  0
 31 32  1  0  0  0  0
  1 33  1  0  0  0  0
 29 33  4  0  0  0  0
 32 33  4  0  0  0  0
  1 34  1  0  0  0  0
 15 34  4  0  0  0  0
 18 34  4  0  0  0  0
  8 35  1  0  0  0  0
 35 36  4  0  0  0  0
 36 37  4  0  0  0  0
 37 38  4  0  0  0  0
 38 39  1  0  0  0  0
 39 40  4  0  0  0  0
 39 41  2  0  0  0  0
 38 42  4  0  0  0  0
 35 43  4  0  0  0  0
 42 43  4  0  0  0  0
  2 44  1  0  0  0  0
  4 45  1  0  0  0  0
  5 46  1  0  0  0  0
 10 47  1  0  0  0  0
 11 48  1  0  0  0  0
 16 49  1  0  0  0  0
 17 50  1  0  0  0  0
 21 51  1  0  0  0  0
 22 52  1  0  0  0  0
 25 53  1  0  0  0  0
 27 54  1  0  0  0  0
 28 55  1  0  0  0  0
 30 56  1  0  0  0  0
 31 57  1  0  0  0  0
 36 58  1  0  0  0  0
 37 59  1  0  0  0  0
 40 60  1  0  0  0  0
 42 61  1  0  0  0  0
 43 62  1  0  0  0  0
 64 65  4  0  0  0  0
 65 66  1  0  0  0  0
 66 67  2  0  0  0  0
 67 68  4  0  0  0  0
 63 69  1  0  0  0  0
 65 69  4  0  0  0  0
 68 69  4  0  0  0  0
 68 70  4  0  0  0  0
 70 71  4  0  0  0  0
 71 72  4  0  0  0  0
 72 73  2  0  0  0  0
 63 74  1  0  0  0  0
 71 74  4  0  0  0  0
 73 75  4  0  0  0  0
 74 75  4  0  0  0  0
 75 76  4  0  0  0  0
 76 77  4  0  0  0  0
 77 78  4  0  0  0  0
 78 79  2  0  0  0  0
 79 80  4  0  0  0  0
 80 81  4  0  0  0  0
 81 82  1  0  0  0  0
 82 83  4  0  0  0  0
 83 84  4  0  0  0  0
 84 85  4  0  0  0  0
 85 86  1  0  0  0  0
 86 87  4  0  0  0  0
 86 88  2  0  0  0  0
 85 89  4  0  0  0  0
 82 90  4  0  0  0  0
 89 90  4  0  0  0  0
 81 91  4  0  0  0  0
 91 92  4  0  0  0  0
 92 93  2  0  0  0  0
 64 94  4  0  0  0  0
 93 94  1  0  0  0  0
 63 95  1  0  0  0  0
 91 95  4  0  0  0  0
 94 95  4  0  0  0  0
 63 96  1  0  0  0  0
 77 96  4  0  0  0  0
 80 96  4  0  0  0  0
 70 97  1  0  0  0  0
 97 98  4  0  0  0  0
 98 99  4  0  0  0  0
 99100  4  0  0  0  0
100101  1  0  0  0  0
101102  4  0  0  0  0
101103  2  0  0  0  0
100104  4  0  0  0  0
 97105  4  0  0  0  0
104105  4  0  0  0  0
 64106  1  0  0  0  0
 66107  1  0  0  0  0
 67108  1  0  0  0  0
 72109  1  0  0  0  0
 73110  1  0  0  0  0
 78111  1  0  0  0  0
 79112  1  0  0  0  0
 83113  1  0  0  0  0
 84114  1  0  0  0  0
 87115  1  0  0  0  0
 89116  1  0  0  0  0
 90117  1  0  0  0  0
 92118  1  0  0  0  0
 93119  1  0  0  0  0
 98120  1  0  0  0  0
 99121  1  0  0  0  0
102122  1  0  0  0  0
104123  1  0  0  0  0
105124  1  0  0  0  0
 14125  4  0  0  0  0
125126  3  0  0  0  0
126127  4  0  0  0  0
127128  3  0  0  0  0
128129  4  0  0  0  0
129130  3  0  0  0  0
130131  4  0  0  0  0
131132  3  0  0  0  0
133134  3  0  0  0  0
134135  4  0  0  0  0
135136  3  0  0  0  0
136137  4  0  0  0  0
137138  3  0  0  0  0
138139  4  0  0  0  0
139140  3  0  0  0  0
141142  3  0  0  0  0
142143  4  0  0  0  0
143144  3  0  0  0  0
144145  4  0  0  0  0
145146  3  0  0  0  0
146147  4  0  0  0  0
 76148  4  0  0  0  0
147148  3  0  0  0  0
132150  4  0  0  0  0
150151  4  0  0  0  0
151152  4  0  0  0  0
152153  2  0  0  0  0
153154  4  0  0  0  0
149155  1  0  0  0  0
151155  4  0  0  0  0
154155  4  0  0  0  0
154156  4  0  0  0  0
156157  4  0  0  0  0
157158  4  0  0  0  0
158159  2  0  0  0  0
149160  1  0  0  0  0
157160  4  0  0  0  0
159161  4  0  0  0  0
160161  4  0  0  0  0
133162  4  0  0  0  0
161162  4  0  0  0  0
162163  4  0  0  0  0
163164  4  0  0  0  0
164165  2  0  0  0  0
165166  4  0  0  0  0
166167  4  0  0  0  0
167168  1  0  0  0  0
168169  4  0  0  0  0
169170  4  0  0  0  0
170171  4  0  0  0  0
171172  1  0  0  0  0
172173  4  0  0  0  0
172174  2  0  0  0  0
171175  4  0  0  0  0
168176  4  0  0  0  0
175176  4  0  0  0  0
167177  4  0  0  0  0
177178  4  0  0  0  0
178179  2  0  0  0  0
150180  4  0  0  0  0
179180  4  0  0  0  0
149181  1  0  0  0  0
177181  4  0  0  0  0
180181  4  0  0  0  0
149182  1  0  0  0  0
163182  4  0  0  0  0
166182  4  0  0  0  0
156183  1  0  0  0  0
183184  4  0  0  0  0
184185  4  0  0  0  0
185186  4  0  0  0  0
186187  1  0  0  0  0
187188  4  0  0  0  0
187189  2  0  0  0  0
186190  4  0  0  0  0
183191  4  0  0  0  0
190191  4  0  0  0  0
152192  1  0  0  0  0
153193  1  0  0  0  0
158194  1  0  0  0  0
159195  1  0  0  0  0
164196  1  0  0  0  0
165197  1  0  0  0  0
169198  1  0  0  0  0
170199  1  0  0  0  0
173200  1  0  0  0  0
175201  1  0  0  0  0
176202  1  0  0  0  0
178203  1  0  0  0  0
179204  1  0  0  0  0
184205  1  0  0  0  0
185206  1  0  0  0  0
188207  1  0  0  0  0
190208  1  0  0  0  0
191209  1  0  0  0  0
140211  4  0  0  0  0
211212  4  0  0  0  0
212213  4  0  0  0  0
213214  2  0  0  0  0
214215  4  0  0  0  0
210216  1  0  0  0  0
212216  4  0  0  0  0
215216  4  0  0  0  0
215217  4  0  0  0  0
217218  4  0  0  0  0
218219  4  0  0  0  0
219220  2  0  0  0  0
210221  1  0  0  0  0
218221  4  0  0  0  0
220222  4  0  0  0  0
221222  4  0  0  0  0
141223  4  0  0  0  0
222223  4  0  0  0  0
223224  4  0  0  0  0
224225  4  0  0  0  0
225226  2  0  0  0  0
226227  4  0  0  0  0
227228  4  0  0  0  0
228229  1  0  0  0  0
229230  4  0  0  0  0
230231  4  0  0  0  0
231232  4  0  0  0  0
232233  1  0  0  0  0
233234  4  0  0  0  0
233235  2  0  0  0  0
232236  4  0  0  0  0
229237  4  0  0  0  0
236237  4  0  0  0  0
228238  4  0  0  0  0
238239  4  0  0  0  0
239240  2  0  0  0  0
211241  4  0  0  0  0
240241  4  0  0  0  0
210242  1  0  0  0  0
238242  4  0  0  0  0
241242  4  0  0  0  0
210243  1  0  0  0  0
224243  4  0  0  0  0
227243  4  0  0  0  0
217244  1  0  0  0  0
244245  4  0  0  0  0
245246  4  0  0  0  0
246247  4  0  0  0  0
247248  1  0  0  0  0
248249  4  0  0  0  0
248250  2  0  0  0  0
247251  4  0  0  0  0
244252  4  0  0  0  0
251252  4  0  0  0  0
213253  1  0  0  0  0
214254  1  0  0  0  0
219255  1  0  0  0  0
220256  1  0  0  0  0
225257  1  0  0  0  0
226258  1  0  0  0  0
230259  1  0  0  0  0
231260  1  0  0  0  0
234261  1  0  0  0  0
236262  1  0  0  0  0
237263  1  0  0  0  0
239264  1  0  0  0  0
240265  1  0  0  0  0
245266  1  0  0  0  0
246267  1  0  0  0  0
249268  1  0  0  0  0
251269  1  0  0  0  0
252270  1  0  0  0  0
M  END
