 xtb: 6.5.1 (b24c23e)
          07292220173D

300339  0     0  0            999 V2000
   53.3683    0.0529   -0.0382 Fe  0  0  0  0  0  0  0  0  0  0  0  0
   49.9723    0.1279   -0.1098 C   0  0  0  0  0  0  0  0  0  0  0  0
   50.6345    1.2465    0.3535 C   0  0  0  0  0  0  0  0  0  0  0  0
   49.9734    2.4379    0.7958 C   0  0  0  0  0  0  0  0  0  0  0  0
   50.9368    3.2639    1.2684 C   0  0  0  0  0  0  0  0  0  0  0  0
   52.1847    2.5740    1.1139 C   0  0  0  0  0  0  0  0  0  0  0  0
   51.9895    1.3531    0.5283 N   0  0  0  0  0  0  0  0  0  0  0  0
   53.4000    3.0687    1.5695 C   0  0  0  0  0  0  0  0  0  0  0  0
   53.4108    4.3867    2.2640 C   0  0  0  0  0  0  0  0  0  0  0  0
   53.6507    5.5550    1.5341 C   0  0  0  0  0  0  0  0  0  0  0  0
   53.9035    5.4764    0.0521 C   0  0  0  0  0  0  0  0  0  0  0  0
   53.6504    6.7804    2.1890 C   0  0  0  0  0  0  0  0  0  0  0  0
   53.4154    6.8594    3.5585 C   0  0  0  0  0  0  0  0  0  0  0  0
   53.4339    8.1945    4.2527 C   0  0  0  0  0  0  0  0  0  0  0  0
   53.1808    5.6906    4.2742 C   0  0  0  0  0  0  0  0  0  0  0  0
   53.1749    4.4535    3.6396 C   0  0  0  0  0  0  0  0  0  0  0  0
   52.9152    3.1921    4.4192 C   0  0  0  0  0  0  0  0  0  0  0  0
   54.6004    2.3978    1.4029 C   0  0  0  0  0  0  0  0  0  0  0  0
   55.8589    2.8922    1.8764 C   0  0  0  0  0  0  0  0  0  0  0  0
   56.8063    2.0298    1.4356 C   0  0  0  0  0  0  0  0  0  0  0  0
   54.7783    1.2263    0.7061 N   0  0  0  0  0  0  0  0  0  0  0  0
   56.1245    1.0113    0.6981 C   0  0  0  0  0  0  0  0  0  0  0  0
   56.7846    0.0029   -0.0147 C   0  0  0  0  0  0  0  0  0  0  0  0
   56.1047   -0.9935   -0.7255 C   0  0  0  0  0  0  0  0  0  0  0  0
   56.7662   -2.0439   -1.4363 C   0  0  0  0  0  0  0  0  0  0  0  0
   55.8008   -2.8923   -1.8653 C   0  0  0  0  0  0  0  0  0  0  0  0
   54.5511   -2.3537   -1.4176 C   0  0  0  0  0  0  0  0  0  0  0  0
   54.7532   -1.1735   -0.7429 N   0  0  0  0  0  0  0  0  0  0  0  0
   53.3328   -2.9881   -1.5975 C   0  0  0  0  0  0  0  0  0  0  0  0
   53.3155   -4.3219   -2.2608 C   0  0  0  0  0  0  0  0  0  0  0  0
   53.1158   -4.4140   -3.6418 C   0  0  0  0  0  0  0  0  0  0  0  0
   52.9232   -3.1635   -4.4575 C   0  0  0  0  0  0  0  0  0  0  0  0
   53.0967   -5.6647   -4.2459 C   0  0  0  0  0  0  0  0  0  0  0  0
   53.2719   -6.8245   -3.4958 C   0  0  0  0  0  0  0  0  0  0  0  0
   53.2445   -8.1682   -4.1730 C   0  0  0  0  0  0  0  0  0  0  0  0
   53.4704   -6.7204   -2.1241 C   0  0  0  0  0  0  0  0  0  0  0  0
   53.4946   -5.4788   -1.4981 C   0  0  0  0  0  0  0  0  0  0  0  0
   53.7102   -5.3732   -0.0119 C   0  0  0  0  0  0  0  0  0  0  0  0
   52.1236   -2.4363   -1.1948 C   0  0  0  0  0  0  0  0  0  0  0  0
   50.8537   -3.0734   -1.3918 C   0  0  0  0  0  0  0  0  0  0  0  0
   49.9084   -2.1931   -0.9855 C   0  0  0  0  0  0  0  0  0  0  0  0
   50.6026   -1.0240   -0.5346 C   0  0  0  0  0  0  0  0  0  0  0  0
   51.9577   -1.1952   -0.6431 N   0  0  0  0  0  0  0  0  0  0  0  0
   48.8887    0.1532   -0.1354 H   0  0  0  0  0  0  0  0  0  0  0  0
   48.9080    2.5992    0.7487 H   0  0  0  0  0  0  0  0  0  0  0  0
   50.8308    4.2502    1.6907 H   0  0  0  0  0  0  0  0  0  0  0  0
   53.0734    4.9749   -0.4487 H   0  0  0  0  0  0  0  0  0  0  0  0
   54.8095    4.9008   -0.1467 H   0  0  0  0  0  0  0  0  0  0  0  0
   54.0217    6.4714   -0.3760 H   0  0  0  0  0  0  0  0  0  0  0  0
   53.8336    7.6880    1.6231 H   0  0  0  0  0  0  0  0  0  0  0  0
   52.9297    8.1399    5.2175 H   0  0  0  0  0  0  0  0  0  0  0  0
   54.4652    8.5121    4.4226 H   0  0  0  0  0  0  0  0  0  0  0  0
   52.9443    8.9537    3.6415 H   0  0  0  0  0  0  0  0  0  0  0  0
   52.9970    5.7422    5.3424 H   0  0  0  0  0  0  0  0  0  0  0  0
   53.7409    2.4898    4.2913 H   0  0  0  0  0  0  0  0  0  0  0  0
   52.7992    3.4074    5.4810 H   0  0  0  0  0  0  0  0  0  0  0  0
   52.0058    2.7064    4.0599 H   0  0  0  0  0  0  0  0  0  0  0  0
   55.9847    3.7882    2.4625 H   0  0  0  0  0  0  0  0  0  0  0  0
   57.8737    2.0728    1.5801 H   0  0  0  0  0  0  0  0  0  0  0  0
   57.8334   -2.1178   -1.5697 H   0  0  0  0  0  0  0  0  0  0  0  0
   55.9086   -3.8043   -2.4299 H   0  0  0  0  0  0  0  0  0  0  0  0
   52.0204   -2.6393   -4.1379 H   0  0  0  0  0  0  0  0  0  0  0  0
   52.8323   -3.3998   -5.5172 H   0  0  0  0  0  0  0  0  0  0  0  0
   53.7681   -2.4863   -4.3197 H   0  0  0  0  0  0  0  0  0  0  0  0
   52.9422   -5.7382   -5.3175 H   0  0  0  0  0  0  0  0  0  0  0  0
   54.0336   -8.2296   -4.9248 H   0  0  0  0  0  0  0  0  0  0  0  0
   53.3879   -8.9728   -3.4520 H   0  0  0  0  0  0  0  0  0  0  0  0
   52.2882   -8.3187   -4.6773 H   0  0  0  0  0  0  0  0  0  0  0  0
   53.6077   -7.6184   -1.5306 H   0  0  0  0  0  0  0  0  0  0  0  0
   52.8851   -4.8315    0.4541 H   0  0  0  0  0  0  0  0  0  0  0  0
   54.6301   -4.8241    0.1984 H   0  0  0  0  0  0  0  0  0  0  0  0
   53.7822   -6.3608    0.4425 H   0  0  0  0  0  0  0  0  0  0  0  0
   50.7222   -4.0639   -1.7971 H   0  0  0  0  0  0  0  0  0  0  0  0
   48.8356   -2.3047   -0.9863 H   0  0  0  0  0  0  0  0  0  0  0  0
   85.9768   -0.0222   -0.0849 Fe  0  0  0  0  0  0  0  0  0  0  0  0
   89.3738    0.0026   -0.1617 C   0  0  0  0  0  0  0  0  0  0  0  0
   88.7260   -1.1428   -0.5777 C   0  0  0  0  0  0  0  0  0  0  0  0
   89.4028   -2.3244   -1.0224 C   0  0  0  0  0  0  0  0  0  0  0  0
   88.4442   -3.1945   -1.4198 C   0  0  0  0  0  0  0  0  0  0  0  0
   87.1839   -2.5385   -1.2235 C   0  0  0  0  0  0  0  0  0  0  0  0
   87.3684   -1.2958   -0.6815 N   0  0  0  0  0  0  0  0  0  0  0  0
   85.9658   -3.0783   -1.6154 C   0  0  0  0  0  0  0  0  0  0  0  0
   85.9620   -4.4174   -2.2682 C   0  0  0  0  0  0  0  0  0  0  0  0
   86.1625   -4.5237   -3.6473 C   0  0  0  0  0  0  0  0  0  0  0  0
   86.3796   -3.2836   -4.4728 C   0  0  0  0  0  0  0  0  0  0  0  0
   86.1612   -5.7800   -4.2424 C   0  0  0  0  0  0  0  0  0  0  0  0
   85.9657   -6.9296   -3.4845 C   0  0  0  0  0  0  0  0  0  0  0  0
   85.9490   -8.2841   -4.1402 C   0  0  0  0  0  0  0  0  0  0  0  0
   85.7659   -6.8113   -2.1126 C   0  0  0  0  0  0  0  0  0  0  0  0
   85.7619   -5.5658   -1.4964 C   0  0  0  0  0  0  0  0  0  0  0  0
   85.5464   -5.4448   -0.0114 C   0  0  0  0  0  0  0  0  0  0  0  0
   84.7564   -2.4276   -1.4341 C   0  0  0  0  0  0  0  0  0  0  0  0
   83.4977   -2.9559   -1.8687 C   0  0  0  0  0  0  0  0  0  0  0  0
   82.5452   -2.0912   -1.4436 C   0  0  0  0  0  0  0  0  0  0  0  0
   84.5725   -1.2377   -0.7712 N   0  0  0  0  0  0  0  0  0  0  0  0
   83.2236   -1.0406   -0.7493 C   0  0  0  0  0  0  0  0  0  0  0  0
   82.5594   -0.0248   -0.0509 C   0  0  0  0  0  0  0  0  0  0  0  0
   83.2354    0.9850    0.6447 C   0  0  0  0  0  0  0  0  0  0  0  0
   82.5697    2.0240    1.3681 C   0  0  0  0  0  0  0  0  0  0  0  0
   83.5304    2.8777    1.7966 C   0  0  0  0  0  0  0  0  0  0  0  0
   84.7809    2.3576    1.3295 C   0  0  0  0  0  0  0  0  0  0  0  0
   84.5847    1.1799    0.6484 N   0  0  0  0  0  0  0  0  0  0  0  0
   85.9915    3.0120    1.4885 C   0  0  0  0  0  0  0  0  0  0  0  0
   85.9994    4.3387    2.1660 C   0  0  0  0  0  0  0  0  0  0  0  0
   85.7739    5.5004    1.4209 C   0  0  0  0  0  0  0  0  0  0  0  0
   85.5201    5.4055   -0.0599 C   0  0  0  0  0  0  0  0  0  0  0  0
   85.7865    6.7337    2.0603 C   0  0  0  0  0  0  0  0  0  0  0  0
   86.0183    6.8271    3.4296 C   0  0  0  0  0  0  0  0  0  0  0  0
   86.0434    8.1742    4.1001 C   0  0  0  0  0  0  0  0  0  0  0  0
   86.2406    5.6652    4.1600 C   0  0  0  0  0  0  0  0  0  0  0  0
   86.2338    4.4201    3.5410 C   0  0  0  0  0  0  0  0  0  0  0  0
   86.4761    3.1656    4.3370 C   0  0  0  0  0  0  0  0  0  0  0  0
   87.1992    2.4932    1.0399 C   0  0  0  0  0  0  0  0  0  0  0  0
   88.4576    3.1652    1.1883 C   0  0  0  0  0  0  0  0  0  0  0  0
   89.4083    2.3197    0.7245 C   0  0  0  0  0  0  0  0  0  0  0  0
   88.7289    1.1345    0.2935 C   0  0  0  0  0  0  0  0  0  0  0  0
   87.3757    1.2634    0.4671 N   0  0  0  0  0  0  0  0  0  0  0  0
   90.4577    0.0116   -0.1891 H   0  0  0  0  0  0  0  0  0  0  0  0
   90.4739   -2.4509   -1.0255 H   0  0  0  0  0  0  0  0  0  0  0  0
   88.5609   -4.1896   -1.8181 H   0  0  0  0  0  0  0  0  0  0  0  0
   87.2996   -2.7821   -4.1661 H   0  0  0  0  0  0  0  0  0  0  0  0
   85.5549   -2.5830   -4.3307 H   0  0  0  0  0  0  0  0  0  0  0  0
   86.4533   -3.5289   -5.5319 H   0  0  0  0  0  0  0  0  0  0  0  0
   86.3173   -5.8626   -5.3131 H   0  0  0  0  0  0  0  0  0  0  0  0
   86.3659   -9.0414   -3.4756 H   0  0  0  0  0  0  0  0  0  0  0  0
   84.9215   -8.5700   -4.3768 H   0  0  0  0  0  0  0  0  0  0  0  0
   86.5215   -8.2747   -5.0679 H   0  0  0  0  0  0  0  0  0  0  0  0
   85.6133   -7.7033   -1.5137 H   0  0  0  0  0  0  0  0  0  0  0  0
   84.6281   -4.8908    0.1931 H   0  0  0  0  0  0  0  0  0  0  0  0
   85.4706   -6.4278    0.4525 H   0  0  0  0  0  0  0  0  0  0  0  0
   86.3731   -4.9013    0.4497 H   0  0  0  0  0  0  0  0  0  0  0  0
   83.3755   -3.8726   -2.4227 H   0  0  0  0  0  0  0  0  0  0  0  0
   81.4765   -2.1539   -1.5699 H   0  0  0  0  0  0  0  0  0  0  0  0
   81.5032    2.0855    1.5123 H   0  0  0  0  0  0  0  0  0  0  0  0
   83.4187    3.7833    2.3707 H   0  0  0  0  0  0  0  0  0  0  0  0
   86.3405    4.8811   -0.5531 H   0  0  0  0  0  0  0  0  0  0  0  0
   85.4207    6.3962   -0.5023 H   0  0  0  0  0  0  0  0  0  0  0  0
   84.6032    4.8443   -0.2509 H   0  0  0  0  0  0  0  0  0  0  0  0
   85.6124    7.6361    1.4834 H   0  0  0  0  0  0  0  0  0  0  0  0
   85.2202    8.7959    3.7455 H   0  0  0  0  0  0  0  0  0  0  0  0
   85.9671    8.0734    5.1827 H   0  0  0  0  0  0  0  0  0  0  0  0
   86.9784    8.6891    3.8682 H   0  0  0  0  0  0  0  0  0  0  0  0
   86.4214    5.7279    5.2281 H   0  0  0  0  0  0  0  0  0  0  0  0
   87.3831    2.6671    3.9896 H   0  0  0  0  0  0  0  0  0  0  0  0
   85.6446    2.4696    4.2117 H   0  0  0  0  0  0  0  0  0  0  0  0
   86.5872    3.3921    5.3970 H   0  0  0  0  0  0  0  0  0  0  0  0
   88.5785    4.1540    1.6007 H   0  0  0  0  0  0  0  0  0  0  0  0
   90.4761    2.4639    0.6763 H   0  0  0  0  0  0  0  0  0  0  0  0
   58.1888   -0.0129   -0.0109 C   0  0  0  0  0  0  0  0  0  0  0  0
   59.4074   -0.0294   -0.0079 C   0  0  0  0  0  0  0  0  0  0  0  0
   69.0498   -0.0503   -0.0230 C   0  0  0  0  0  0  0  0  0  0  0  0
   70.2714   -0.0410   -0.0272 C   0  0  0  0  0  0  0  0  0  0  0  0
   79.9363   -0.0204   -0.0367 C   0  0  0  0  0  0  0  0  0  0  0  0
   81.1551   -0.0223   -0.0437 C   0  0  0  0  0  0  0  0  0  0  0  0
   64.2269   -0.0748   -0.0101 Fe  0  0  0  0  0  0  0  0  0  0  0  0
   60.8105   -0.0448   -0.0069 C   0  0  0  0  0  0  0  0  0  0  0  0
   61.4905    0.3957    1.1368 C   0  0  0  0  0  0  0  0  0  0  0  0
   60.8385    0.8609    2.3207 C   0  0  0  0  0  0  0  0  0  0  0  0
   61.8001    0.9952    3.2679 C   0  0  0  0  0  0  0  0  0  0  0  0
   63.0352    0.6102    2.6555 C   0  0  0  0  0  0  0  0  0  0  0  0
   62.8350    0.2885    1.3369 N   0  0  0  0  0  0  0  0  0  0  0  0
   64.2320    0.4608    3.3443 C   0  0  0  0  0  0  0  0  0  0  0  0
   64.2348    0.6790    4.8170 C   0  0  0  0  0  0  0  0  0  0  0  0
   64.6327    1.9135    5.3385 C   0  0  0  0  0  0  0  0  0  0  0  0
   65.0536    3.0223    4.4113 C   0  0  0  0  0  0  0  0  0  0  0  0
   64.6337    2.1037    6.7152 C   0  0  0  0  0  0  0  0  0  0  0  0
   64.2467    1.0837    7.5785 C   0  0  0  0  0  0  0  0  0  0  0  0
   64.2748    1.2953    9.0680 C   0  0  0  0  0  0  0  0  0  0  0  0
   63.8539   -0.1406    7.0476 C   0  0  0  0  0  0  0  0  0  0  0  0
   63.8421   -0.3532    5.6742 C   0  0  0  0  0  0  0  0  0  0  0  0
   63.4129   -1.6803    5.1077 C   0  0  0  0  0  0  0  0  0  0  0  0
   65.4261    0.1183    2.7274 C   0  0  0  0  0  0  0  0  0  0  0  0
   66.6635   -0.0624    3.4236 C   0  0  0  0  0  0  0  0  0  0  0  0
   67.6238   -0.2042    2.4765 C   0  0  0  0  0  0  0  0  0  0  0  0
   65.6268    0.0367    1.3704 N   0  0  0  0  0  0  0  0  0  0  0  0
   66.9712   -0.1089    1.2092 C   0  0  0  0  0  0  0  0  0  0  0  0
   67.6496   -0.0615   -0.0204 C   0  0  0  0  0  0  0  0  0  0  0  0
   66.9639   -0.0315   -1.2461 C   0  0  0  0  0  0  0  0  0  0  0  0
   67.6092    0.0462   -2.5185 C   0  0  0  0  0  0  0  0  0  0  0  0
   66.6462   -0.1261   -3.4577 C   0  0  0  0  0  0  0  0  0  0  0  0
   65.4136   -0.3020   -2.7520 C   0  0  0  0  0  0  0  0  0  0  0  0
   65.6199   -0.1929   -1.3980 N   0  0  0  0  0  0  0  0  0  0  0  0
   64.2161   -0.6531   -3.3578 C   0  0  0  0  0  0  0  0  0  0  0  0
   64.2132   -0.9004   -4.8260 C   0  0  0  0  0  0  0  0  0  0  0  0
   63.8242    0.1162   -5.7034 C   0  0  0  0  0  0  0  0  0  0  0  0
   63.4029    1.4571   -5.1641 C   0  0  0  0  0  0  0  0  0  0  0  0
   63.8316   -0.1249   -7.0722 C   0  0  0  0  0  0  0  0  0  0  0  0
   64.2163   -1.3620   -7.5786 C   0  0  0  0  0  0  0  0  0  0  0  0
   64.2404   -1.6040   -9.0636 C   0  0  0  0  0  0  0  0  0  0  0  0
   64.5989   -2.3664   -6.6954 C   0  0  0  0  0  0  0  0  0  0  0  0
   64.6020   -2.1479   -5.3229 C   0  0  0  0  0  0  0  0  0  0  0  0
   65.0170   -3.2402   -4.3737 C   0  0  0  0  0  0  0  0  0  0  0  0
   63.0198   -0.7774   -2.6636 C   0  0  0  0  0  0  0  0  0  0  0  0
   61.7773   -1.1505   -3.2683 C   0  0  0  0  0  0  0  0  0  0  0  0
   60.8187   -0.9778   -2.3243 C   0  0  0  0  0  0  0  0  0  0  0  0
   61.4806   -0.5063   -1.1484 C   0  0  0  0  0  0  0  0  0  0  0  0
   62.8265   -0.4287   -1.3505 N   0  0  0  0  0  0  0  0  0  0  0  0
   59.7793    1.0410    2.4086 H   0  0  0  0  0  0  0  0  0  0  0  0
   61.6957    1.3155    4.2920 H   0  0  0  0  0  0  0  0  0  0  0  0
   65.9734    2.7493    3.8900 H   0  0  0  0  0  0  0  0  0  0  0  0
   65.2284    3.9454    4.9630 H   0  0  0  0  0  0  0  0  0  0  0  0
   64.2844    3.2022    3.6584 H   0  0  0  0  0  0  0  0  0  0  0  0
   64.9399    3.0626    7.1205 H   0  0  0  0  0  0  0  0  0  0  0  0
   65.2613    1.0378    9.4608 H   0  0  0  0  0  0  0  0  0  0  0  0
   63.5370    0.6646    9.5644 H   0  0  0  0  0  0  0  0  0  0  0  0
   64.0732    2.3376    9.3161 H   0  0  0  0  0  0  0  0  0  0  0  0
   63.5510   -0.9421    7.7134 H   0  0  0  0  0  0  0  0  0  0  0  0
   62.4897   -1.5655    4.5360 H   0  0  0  0  0  0  0  0  0  0  0  0
   64.1763   -2.0716    4.4331 H   0  0  0  0  0  0  0  0  0  0  0  0
   63.2409   -2.4052    5.9026 H   0  0  0  0  0  0  0  0  0  0  0  0
   66.7701   -0.0724    4.4963 H   0  0  0  0  0  0  0  0  0  0  0  0
   68.6807   -0.3603    2.6132 H   0  0  0  0  0  0  0  0  0  0  0  0
   68.6640    0.2088   -2.6635 H   0  0  0  0  0  0  0  0  0  0  0  0
   66.7479   -0.1384   -4.5308 H   0  0  0  0  0  0  0  0  0  0  0  0
   62.4788    1.3595   -4.5908 H   0  0  0  0  0  0  0  0  0  0  0  0
   63.2355    2.1666   -5.9738 H   0  0  0  0  0  0  0  0  0  0  0  0
   64.1684    1.8577   -4.4974 H   0  0  0  0  0  0  0  0  0  0  0  0
   63.5317    0.6644   -7.7536 H   0  0  0  0  0  0  0  0  0  0  0  0
   64.0361   -2.6507   -9.2900 H   0  0  0  0  0  0  0  0  0  0  0  0
   65.2264   -1.3565   -9.4639 H   0  0  0  0  0  0  0  0  0  0  0  0
   63.5026   -0.9820   -9.5710 H   0  0  0  0  0  0  0  0  0  0  0  0
   64.8982   -3.3354   -7.0814 H   0  0  0  0  0  0  0  0  0  0  0  0
   65.1855   -4.1754   -4.9067 H   0  0  0  0  0  0  0  0  0  0  0  0
   64.2472   -3.4000   -3.6168 H   0  0  0  0  0  0  0  0  0  0  0  0
   65.9388   -2.9624   -3.8586 H   0  0  0  0  0  0  0  0  0  0  0  0
   61.6661   -1.4885   -4.2859 H   0  0  0  0  0  0  0  0  0  0  0  0
   59.7561   -1.1383   -2.4088 H   0  0  0  0  0  0  0  0  0  0  0  0
   75.1053   -0.0251   -0.0322 Fe  0  0  0  0  0  0  0  0  0  0  0  0
   71.6720   -0.0335   -0.0288 C   0  0  0  0  0  0  0  0  0  0  0  0
   72.3516    0.1259    1.1898 C   0  0  0  0  0  0  0  0  0  0  0  0
   71.6891    0.2737    2.4471 C   0  0  0  0  0  0  0  0  0  0  0  0
   72.6513    0.5116    3.3714 C   0  0  0  0  0  0  0  0  0  0  0  0
   73.8992    0.5138    2.6704 C   0  0  0  0  0  0  0  0  0  0  0  0
   73.7003    0.2473    1.3368 N   0  0  0  0  0  0  0  0  0  0  0  0
   75.1103    0.8345    3.2637 C   0  0  0  0  0  0  0  0  0  0  0  0
   75.1159    1.1870    4.7107 C   0  0  0  0  0  0  0  0  0  0  0  0
   74.8789    2.5044    5.1112 C   0  0  0  0  0  0  0  0  0  0  0  0
   74.6188    3.5685    4.0786 C   0  0  0  0  0  0  0  0  0  0  0  0
   74.8857    2.8171    6.4661 C   0  0  0  0  0  0  0  0  0  0  0  0
   75.1226    1.8379    7.4242 C   0  0  0  0  0  0  0  0  0  0  0  0
   75.1421    2.1827    8.8888 C   0  0  0  0  0  0  0  0  0  0  0  0
   75.3585    0.5293    7.0126 C   0  0  0  0  0  0  0  0  0  0  0  0
   75.3582    0.1936    5.6647 C   0  0  0  0  0  0  0  0  0  0  0  0
   75.6148   -1.2232    5.2255 C   0  0  0  0  0  0  0  0  0  0  0  0
   76.3201    0.8379    2.5830 C   0  0  0  0  0  0  0  0  0  0  0  0
   77.5686    1.1940    3.1855 C   0  0  0  0  0  0  0  0  0  0  0  0
   78.5277    0.9624    2.2556 C   0  0  0  0  0  0  0  0  0  0  0  0
   76.5115    0.4233    1.2891 N   0  0  0  0  0  0  0  0  0  0  0  0
   77.8602    0.4667    1.0931 C   0  0  0  0  0  0  0  0  0  0  0  0
   78.5329   -0.0213   -0.0348 C   0  0  0  0  0  0  0  0  0  0  0  0
   77.8594   -0.5102   -1.1618 C   0  0  0  0  0  0  0  0  0  0  0  0
   78.5259   -1.0041   -2.3257 C   0  0  0  0  0  0  0  0  0  0  0  0
   77.5660   -1.2358   -3.2547 C   0  0  0  0  0  0  0  0  0  0  0  0
   76.3179   -0.8814   -2.6503 C   0  0  0  0  0  0  0  0  0  0  0  0
   76.5103   -0.4685   -1.3560 N   0  0  0  0  0  0  0  0  0  0  0  0
   75.1075   -0.8767   -3.3299 C   0  0  0  0  0  0  0  0  0  0  0  0
   75.1116   -1.2231   -4.7783 C   0  0  0  0  0  0  0  0  0  0  0  0
   75.3541   -0.2251   -5.7274 C   0  0  0  0  0  0  0  0  0  0  0  0
   75.6134    1.1890   -5.2812 C   0  0  0  0  0  0  0  0  0  0  0  0
   75.3514   -0.5537   -7.0771 C   0  0  0  0  0  0  0  0  0  0  0  0
   75.1125   -1.8598   -7.4950 C   0  0  0  0  0  0  0  0  0  0  0  0
   75.1283   -2.1966   -8.9615 C   0  0  0  0  0  0  0  0  0  0  0  0
   74.8756   -2.8436   -6.5417 C   0  0  0  0  0  0  0  0  0  0  0  0
   74.8714   -2.5379   -5.1852 C   0  0  0  0  0  0  0  0  0  0  0  0
   74.6100   -3.6065   -4.1576 C   0  0  0  0  0  0  0  0  0  0  0  0
   73.8967   -0.5601   -2.7340 C   0  0  0  0  0  0  0  0  0  0  0  0
   72.6478   -0.5596   -3.4330 C   0  0  0  0  0  0  0  0  0  0  0  0
   71.6861   -0.3304   -2.5059 C   0  0  0  0  0  0  0  0  0  0  0  0
   72.3501   -0.1854   -1.2491 C   0  0  0  0  0  0  0  0  0  0  0  0
   73.6991   -0.2997   -1.3990 N   0  0  0  0  0  0  0  0  0  0  0  0
   70.6236    0.2117    2.5912 H   0  0  0  0  0  0  0  0  0  0  0  0
   72.5401    0.6800    4.4302 H   0  0  0  0  0  0  0  0  0  0  0  0
   75.4401    3.6100    3.3609 H   0  0  0  0  0  0  0  0  0  0  0  0
   74.5118    4.5468    4.5461 H   0  0  0  0  0  0  0  0  0  0  0  0
   73.7043    3.3436    3.5263 H   0  0  0  0  0  0  0  0  0  0  0  0
   74.7019    3.8403    6.7770 H   0  0  0  0  0  0  0  0  0  0  0  0
   76.1716    2.2073    9.2527 H   0  0  0  0  0  0  0  0  0  0  0  0
   74.5989    1.4341    9.4671 H   0  0  0  0  0  0  0  0  0  0  0  0
   74.6921    3.1593    9.0665 H   0  0  0  0  0  0  0  0  0  0  0  0
   75.5441   -0.2407    7.7543 H   0  0  0  0  0  0  0  0  0  0  0  0
   74.7876   -1.5874    4.6136 H   0  0  0  0  0  0  0  0  0  0  0  0
   76.5231   -1.2727    4.6218 H   0  0  0  0  0  0  0  0  0  0  0  0
   75.7317   -1.8821    6.0853 H   0  0  0  0  0  0  0  0  0  0  0  0
   77.6821    1.5645    4.1915 H   0  0  0  0  0  0  0  0  0  0  0  0
   79.5936    1.0976    2.3415 H   0  0  0  0  0  0  0  0  0  0  0  0
   79.5919   -1.1377   -2.4134 H   0  0  0  0  0  0  0  0  0  0  0  0
   77.6785   -1.6054   -4.2610 H   0  0  0  0  0  0  0  0  0  0  0  0
   74.7888    1.5503   -4.6642 H   0  0  0  0  0  0  0  0  0  0  0  0
   75.7275    1.8527   -6.1377 H   0  0  0  0  0  0  0  0  0  0  0  0
   76.5240    1.2345   -4.6806 H   0  0  0  0  0  0  0  0  0  0  0  0
   75.5368    0.2198   -7.8152 H   0  0  0  0  0  0  0  0  0  0  0  0
   74.6704   -3.1687   -9.1444 H   0  0  0  0  0  0  0  0  0  0  0  0
   76.1574   -2.2276   -9.3262 H   0  0  0  0  0  0  0  0  0  0  0  0
   74.5909   -1.4405   -9.5354 H   0  0  0  0  0  0  0  0  0  0  0  0
   74.6892   -3.8648   -6.8577 H   0  0  0  0  0  0  0  0  0  0  0  0
   74.5041   -4.5829   -4.6293 H   0  0  0  0  0  0  0  0  0  0  0  0
   73.6942   -3.3842   -3.6062 H   0  0  0  0  0  0  0  0  0  0  0  0
   75.4297   -3.6507   -3.4383 H   0  0  0  0  0  0  0  0  0  0  0  0
   72.5356   -0.7232   -4.4925 H   0  0  0  0  0  0  0  0  0  0  0  0
   70.6202   -0.2711   -2.6481 H   0  0  0  0  0  0  0  0  0  0  0  0
  2  3  4  0  0  0  0
  3  4  4  0  0  0  0
  4  5  2  0  0  0  0
  5  6  4  0  0  0  0
  1  7  1  0  0  0  0
  3  7  4  0  0  0  0
  6  7  4  0  0  0  0
  6  8  4  0  0  0  0
  8  9  1  0  0  0  0
  9 10  4  0  0  0  0
 10 11  1  0  0  0  0
 10 12  4  0  0  0  0
 12 13  4  0  0  0  0
 13 14  1  0  0  0  0
 13 15  4  0  0  0  0
  9 16  4  0  0  0  0
 15 16  4  0  0  0  0
 16 17  1  0  0  0  0
  8 18  4  0  0  0  0
 18 19  4  0  0  0  0
 19 20  2  0  0  0  0
  1 21  1  0  0  0  0
 18 21  4  0  0  0  0
 20 22  4  0  0  0  0
 21 22  4  0  0  0  0
 22 23  4  0  0  0  0
 23 24  4  0  0  0  0
 24 25  4  0  0  0  0
 25 26  2  0  0  0  0
 26 27  4  0  0  0  0
  1 28  1  0  0  0  0
 24 28  4  0  0  0  0
 27 28  4  0  0  0  0
 27 29  4  0  0  0  0
 29 30  1  0  0  0  0
 30 31  4  0  0  0  0
 31 32  1  0  0  0  0
 31 33  4  0  0  0  0
 33 34  4  0  0  0  0
 34 35  1  0  0  0  0
 34 36  4  0  0  0  0
 30 37  4  0  0  0  0
 36 37  4  0  0  0  0
 37 38  1  0  0  0  0
 29 39  4  0  0  0  0
 39 40  4  0  0  0  0
 40 41  2  0  0  0  0
  2 42  4  0  0  0  0
 41 42  4  0  0  0  0
  1 43  1  0  0  0  0
 39 43  4  0  0  0  0
 42 43  4  0  0  0  0
  2 44  1  0  0  0  0
  4 45  1  0  0  0  0
  5 46  1  0  0  0  0
 11 47  1  0  0  0  0
 11 48  1  0  0  0  0
 11 49  1  0  0  0  0
 12 50  1  0  0  0  0
 14 51  1  0  0  0  0
 14 52  1  0  0  0  0
 14 53  1  0  0  0  0
 15 54  1  0  0  0  0
 17 55  1  0  0  0  0
 17 56  1  0  0  0  0
 17 57  1  0  0  0  0
 19 58  1  0  0  0  0
 20 59  1  0  0  0  0
 25 60  1  0  0  0  0
 26 61  1  0  0  0  0
 32 62  1  0  0  0  0
 32 63  1  0  0  0  0
 32 64  1  0  0  0  0
 33 65  1  0  0  0  0
 35 66  1  0  0  0  0
 35 67  1  0  0  0  0
 35 68  1  0  0  0  0
 36 69  1  0  0  0  0
 38 70  1  0  0  0  0
 38 71  1  0  0  0  0
 38 72  1  0  0  0  0
 40 73  1  0  0  0  0
 41 74  1  0  0  0  0
 76 77  4  0  0  0  0
 77 78  4  0  0  0  0
 78 79  2  0  0  0  0
 79 80  4  0  0  0  0
 75 81  1  0  0  0  0
 77 81  4  0  0  0  0
 80 81  4  0  0  0  0
 80 82  4  0  0  0  0
 82 83  1  0  0  0  0
 83 84  4  0  0  0  0
 84 85  1  0  0  0  0
 84 86  4  0  0  0  0
 86 87  4  0  0  0  0
 87 88  1  0  0  0  0
 87 89  4  0  0  0  0
 83 90  4  0  0  0  0
 89 90  4  0  0  0  0
 90 91  1  0  0  0  0
 82 92  4  0  0  0  0
 92 93  4  0  0  0  0
 93 94  2  0  0  0  0
 75 95  1  0  0  0  0
 92 95  4  0  0  0  0
 94 96  4  0  0  0  0
 95 96  4  0  0  0  0
 96 97  4  0  0  0  0
 97 98  4  0  0  0  0
 98 99  4  0  0  0  0
 99100  2  0  0  0  0
100101  4  0  0  0  0
 75102  1  0  0  0  0
 98102  4  0  0  0  0
101102  4  0  0  0  0
101103  4  0  0  0  0
103104  1  0  0  0  0
104105  4  0  0  0  0
105106  1  0  0  0  0
105107  4  0  0  0  0
107108  4  0  0  0  0
108109  1  0  0  0  0
108110  4  0  0  0  0
104111  4  0  0  0  0
110111  4  0  0  0  0
111112  1  0  0  0  0
103113  4  0  0  0  0
113114  4  0  0  0  0
114115  2  0  0  0  0
 76116  4  0  0  0  0
115116  4  0  0  0  0
 75117  1  0  0  0  0
113117  4  0  0  0  0
116117  4  0  0  0  0
 76118  1  0  0  0  0
 78119  1  0  0  0  0
 79120  1  0  0  0  0
 85121  1  0  0  0  0
 85122  1  0  0  0  0
 85123  1  0  0  0  0
 86124  1  0  0  0  0
 88125  1  0  0  0  0
 88126  1  0  0  0  0
 88127  1  0  0  0  0
 89128  1  0  0  0  0
 91129  1  0  0  0  0
 91130  1  0  0  0  0
 91131  1  0  0  0  0
 93132  1  0  0  0  0
 94133  1  0  0  0  0
 99134  1  0  0  0  0
100135  1  0  0  0  0
106136  1  0  0  0  0
106137  1  0  0  0  0
106138  1  0  0  0  0
107139  1  0  0  0  0
109140  1  0  0  0  0
109141  1  0  0  0  0
109142  1  0  0  0  0
110143  1  0  0  0  0
112144  1  0  0  0  0
112145  1  0  0  0  0
112146  1  0  0  0  0
114147  1  0  0  0  0
115148  1  0  0  0  0
 23149  1  0  0  0  0
149150  3  0  0  0  0
151152  3  0  0  0  0
 97154  1  0  0  0  0
153154  3  0  0  0  0
150156  1  0  0  0  0
156157  4  0  0  0  0
157158  4  0  0  0  0
158159  2  0  0  0  0
159160  4  0  0  0  0
155161  1  0  0  0  0
157161  4  0  0  0  0
160161  4  0  0  0  0
160162  4  0  0  0  0
162163  1  0  0  0  0
163164  4  0  0  0  0
164165  1  0  0  0  0
164166  4  0  0  0  0
166167  4  0  0  0  0
167168  1  0  0  0  0
167169  4  0  0  0  0
163170  4  0  0  0  0
169170  4  0  0  0  0
170171  1  0  0  0  0
162172  4  0  0  0  0
172173  4  0  0  0  0
173174  2  0  0  0  0
155175  1  0  0  0  0
172175  4  0  0  0  0
174176  4  0  0  0  0
175176  4  0  0  0  0
151177  4  0  0  0  0
176177  4  0  0  0  0
177178  4  0  0  0  0
178179  4  0  0  0  0
179180  2  0  0  0  0
180181  4  0  0  0  0
155182  1  0  0  0  0
178182  4  0  0  0  0
181182  4  0  0  0  0
181183  4  0  0  0  0
183184  1  0  0  0  0
184185  4  0  0  0  0
185186  1  0  0  0  0
185187  4  0  0  0  0
187188  4  0  0  0  0
188189  1  0  0  0  0
188190  4  0  0  0  0
184191  4  0  0  0  0
190191  4  0  0  0  0
191192  1  0  0  0  0
183193  4  0  0  0  0
193194  4  0  0  0  0
194195  2  0  0  0  0
156196  4  0  0  0  0
195196  4  0  0  0  0
155197  1  0  0  0  0
193197  4  0  0  0  0
196197  4  0  0  0  0
158198  1  0  0  0  0
159199  1  0  0  0  0
165200  1  0  0  0  0
165201  1  0  0  0  0
165202  1  0  0  0  0
166203  1  0  0  0  0
168204  1  0  0  0  0
168205  1  0  0  0  0
168206  1  0  0  0  0
169207  1  0  0  0  0
171208  1  0  0  0  0
171209  1  0  0  0  0
171210  1  0  0  0  0
173211  1  0  0  0  0
174212  1  0  0  0  0
179213  1  0  0  0  0
180214  1  0  0  0  0
186215  1  0  0  0  0
186216  1  0  0  0  0
186217  1  0  0  0  0
187218  1  0  0  0  0
189219  1  0  0  0  0
189220  1  0  0  0  0
189221  1  0  0  0  0
190222  1  0  0  0  0
192223  1  0  0  0  0
192224  1  0  0  0  0
192225  1  0  0  0  0
194226  1  0  0  0  0
195227  1  0  0  0  0
152229  4  0  0  0  0
229230  4  0  0  0  0
230231  4  0  0  0  0
231232  2  0  0  0  0
232233  4  0  0  0  0
228234  1  0  0  0  0
230234  4  0  0  0  0
233234  4  0  0  0  0
233235  4  0  0  0  0
235236  1  0  0  0  0
236237  4  0  0  0  0
237238  1  0  0  0  0
237239  4  0  0  0  0
239240  4  0  0  0  0
240241  1  0  0  0  0
240242  4  0  0  0  0
236243  4  0  0  0  0
242243  4  0  0  0  0
243244  1  0  0  0  0
235245  4  0  0  0  0
245246  4  0  0  0  0
246247  2  0  0  0  0
228248  1  0  0  0  0
245248  4  0  0  0  0
247249  4  0  0  0  0
248249  4  0  0  0  0
153250  1  0  0  0  0
249250  4  0  0  0  0
250251  4  0  0  0  0
251252  4  0  0  0  0
252253  2  0  0  0  0
253254  4  0  0  0  0
228255  1  0  0  0  0
251255  4  0  0  0  0
254255  4  0  0  0  0
254256  4  0  0  0  0
256257  1  0  0  0  0
257258  4  0  0  0  0
258259  1  0  0  0  0
258260  4  0  0  0  0
260261  4  0  0  0  0
261262  1  0  0  0  0
261263  4  0  0  0  0
257264  4  0  0  0  0
263264  4  0  0  0  0
264265  1  0  0  0  0
256266  4  0  0  0  0
266267  4  0  0  0  0
267268  2  0  0  0  0
229269  4  0  0  0  0
268269  4  0  0  0  0
228270  1  0  0  0  0
266270  4  0  0  0  0
269270  4  0  0  0  0
231271  1  0  0  0  0
232272  1  0  0  0  0
238273  1  0  0  0  0
238274  1  0  0  0  0
238275  1  0  0  0  0
239276  1  0  0  0  0
241277  1  0  0  0  0
241278  1  0  0  0  0
241279  1  0  0  0  0
242280  1  0  0  0  0
244281  1  0  0  0  0
244282  1  0  0  0  0
244283  1  0  0  0  0
246284  1  0  0  0  0
247285  1  0  0  0  0
252286  1  0  0  0  0
253287  1  0  0  0  0
259288  1  0  0  0  0
259289  1  0  0  0  0
259290  1  0  0  0  0
260291  1  0  0  0  0
262292  1  0  0  0  0
262293  1  0  0  0  0
262294  1  0  0  0  0
263295  1  0  0  0  0
265296  1  0  0  0  0
265297  1  0  0  0  0
265298  1  0  0  0  0
267299  1  0  0  0  0
268300  1  0  0  0  0
M  END
