190

C 31.189032 -0.001332 -0.000074
C 31.923466 -1.378490 -0.071960
C 31.336320 -2.622154 -0.136877
C 32.388238 -3.578052 -0.186778
C 33.576690 -2.880867 -0.150390
N 33.284998 -1.545187 -0.080663
C 35.008046 -3.499189 -0.182675
C 36.130607 -2.754382 -0.143792
C 37.415593 -3.406848 -0.177862
C 38.352877 -2.465619 -0.128725
N 36.352438 -1.412165 -0.073716
C 37.701816 -1.167752 -0.060963
C 38.398578 -0.000000 -0.000003
C 37.623913 1.392288 0.072684
C 38.187492 2.652827 0.138498
C 37.129468 3.596985 0.187786
C 35.951556 2.887055 0.150714
N 36.256905 1.549919 0.080905
C 34.518759 3.511617 0.183312
C 33.401238 2.762009 0.144177
C 32.097469 3.386730 0.176783
C 31.180986 2.422677 0.126457
C 31.875041 1.157041 0.060394
N 33.211123 1.418267 0.074033
H 30.106316 0.006886 0.000352
H 30.275644 -2.819821 -0.147194
H 32.288973 -4.651115 -0.242794
H 33.965023 -0.789149 -0.041200
H 35.086089 -4.578622 -0.239034
H 37.580554 -4.467762 -0.233253
H 39.410916 -2.653018 -0.138512
H 39.242866 2.877602 0.150238
H 37.217894 4.671081 0.243864
H 35.578202 0.792077 0.041340
H 34.437527 4.590497 0.239629
H 31.911495 4.443886 0.231965
H 30.114105 2.552077 0.133208
C 86.662177 0.001312 -0.000245
C 85.927743 1.357848 -0.248320
C 86.514889 2.582890 -0.472347
C 85.462971 3.524473 -0.644542
C 84.274518 2.837727 -0.518958
N 84.566211 1.522049 -0.278349
C 82.843163 3.446789 -0.630349
C 81.720602 2.713136 -0.496178
C 80.435616 3.355830 -0.613722
C 79.498332 2.428696 -0.444167
N 81.498771 1.391019 -0.254383
C 80.149392 1.150265 -0.210361
C 79.452631 -0.000000 -0.000003
C 80.227296 -1.371438 0.250809
C 79.663717 -2.613100 0.477891
C 80.721741 -3.543119 0.647972
C 81.899653 -2.843822 0.520074
N 81.594304 -1.526710 0.279197
C 83.332450 -3.459032 0.632576
C 84.449970 -2.720650 0.497539
C 85.753739 -3.336017 0.610069
C 86.670223 -2.386399 0.436406
C 85.976168 -1.139715 0.208422
N 84.640086 -1.397029 0.255482
H 87.744893 -0.006783 0.001233
H 87.575565 2.777596 -0.507952
H 85.562235 4.581467 -0.837842
H 83.886186 0.777331 -0.142161
H 82.765120 4.510057 -0.824807
H 80.270655 4.400857 -0.804843
H 78.440293 2.613288 -0.477930
H 78.608343 -2.834508 0.518388
H 80.633314 -4.601130 0.841466
H 82.273007 -0.780217 0.142675
H 83.413682 -4.521756 0.826922
H 85.939714 -4.377342 0.800500
H 87.737104 -2.513863 0.459712
C 41.192906 -0.000000 -0.000003
C 42.414823 -0.000000 -0.000003
C 52.607399 -0.000000 -0.000003
C 53.829317 -0.000000 -0.000003
C 64.021892 -0.000000 -0.000003
C 65.243810 -0.000000 -0.000003
C 75.436385 -0.000000 -0.000003
C 76.658303 -0.000000 -0.000003
C 43.856415 0.000000 0.000003
C 44.636455 1.387535 -0.017323
C 44.084350 2.653636 -0.033146
C 45.152967 3.586260 -0.044778
C 46.323875 2.862632 -0.035719
N 46.005182 1.529605 -0.019077
C 47.756247 3.477300 -0.043366
C 48.881872 2.739247 -0.034158
C 50.162170 3.402645 -0.042411
C 51.106620 2.467672 -0.030750
N 49.111862 1.398756 -0.017451
C 50.463594 1.165202 -0.014526
C 51.165807 0.000000 0.000003
C 50.385767 -1.387535 0.017284
C 50.937872 -2.653638 0.033020
C 49.869255 -3.586261 0.044657
C 48.698348 -2.862632 0.035684
N 49.017041 -1.529605 0.019081
C 47.265976 -3.477299 0.043376
C 46.140351 -2.739247 0.034174
C 44.860053 -3.402644 0.042472
C 43.915602 -2.467672 0.030809
C 44.558629 -1.165202 0.014541
N 45.910361 -1.398756 0.017441
H 43.031148 2.888859 -0.036101
H 45.076338 4.662761 -0.058225
H 46.669995 0.758996 -0.009450
H 47.833135 4.558639 -0.056839
H 50.319316 4.466189 -0.055664
H 52.163514 2.661875 -0.033159
H 51.991075 -2.888861 0.035914
H 49.945885 -4.662762 0.058049
H 48.352227 -0.758995 0.009497
H 47.189087 -4.558638 0.056879
H 44.702907 -4.466188 0.055753
H 42.858709 -2.661875 0.033246
C 55.270908 0.000000 0.000003
C 56.050948 1.387535 -0.017323
C 55.498844 2.653636 -0.033146
C 56.567460 3.586260 -0.044778
C 57.738368 2.862632 -0.035719
N 57.419675 1.529605 -0.019077
C 59.170740 3.477300 -0.043366
C 60.296365 2.739247 -0.034158
C 61.576663 3.402645 -0.042411
C 62.521113 2.467672 -0.030750
N 60.526355 1.398756 -0.017451
C 61.878087 1.165202 -0.014526
C 62.580300 0.000000 0.000003
C 61.800261 -1.387535 0.017284
C 62.352366 -2.653638 0.033020
C 61.283748 -3.586261 0.044657
C 60.112841 -2.862632 0.035684
N 60.431534 -1.529605 0.019081
C 58.680469 -3.477299 0.043376
C 57.554844 -2.739247 0.034174
C 56.274546 -3.402644 0.042472
C 55.330096 -2.467672 0.030809
C 55.973122 -1.165202 0.014541
N 57.324854 -1.398756 0.017441
H 54.445641 2.888859 -0.036101
H 56.490831 4.662761 -0.058225
H 58.084488 0.758996 -0.009450
H 59.247629 4.558639 -0.056839
H 61.733809 4.466189 -0.055664
H 63.578007 2.661875 -0.033159
H 63.405568 -2.888861 0.035914
H 61.360378 -4.662762 0.058049
H 59.766720 -0.758995 0.009497
H 58.603580 -4.558638 0.056879
H 56.117400 -4.466188 0.055753
H 54.273202 -2.661875 0.033246
C 66.685402 0.000000 0.000003
C 67.465442 1.387535 -0.017323
C 66.913337 2.653636 -0.033146
C 67.981954 3.586260 -0.044778
C 69.152861 2.862632 -0.035719
N 68.834168 1.529605 -0.019077
C 70.585233 3.477300 -0.043366
C 71.710858 2.739247 -0.034158
C 72.991156 3.402645 -0.042411
C 73.935607 2.467672 -0.030750
N 71.940848 1.398756 -0.017451
C 73.292580 1.165202 -0.014526
C 73.994794 0.000000 0.000003
C 73.214754 -1.387535 0.017284
C 73.766859 -2.653638 0.033020
C 72.698242 -3.586261 0.044657
C 71.527334 -2.862632 0.035684
N 71.846027 -1.529605 0.019081
C 70.094962 -3.477299 0.043376
C 68.969337 -2.739247 0.034174
C 67.689040 -3.402644 0.042472
C 66.744589 -2.467672 0.030809
C 67.387615 -1.165202 0.014541
N 68.739347 -1.398756 0.017441
H 65.860134 2.888859 -0.036101
H 67.905324 4.662761 -0.058225
H 69.498982 0.758996 -0.009450
H 70.662122 4.558639 -0.056839
H 73.148302 4.466189 -0.055664
H 74.992500 2.661875 -0.033159
H 74.820061 -2.888861 0.035914
H 72.774871 -4.662762 0.058049
H 71.181213 -0.758995 0.009497
H 70.018074 -4.558638 0.056879
H 67.531894 -4.466188 0.055753
H 65.687695 -2.661875 0.033246
