 xtb: 6.5.1 (b24c23e)
          07302211493D

246285  0     0  0            999 V2000
   35.5503   -0.0044    0.0031 Zn  0  0  0  0  0  0  0  0  0  0  0  0
   32.1404   -0.0367   -0.0262 C   0  0  0  0  0  0  0  0  0  0  0  0
   32.7712   -1.2734   -0.0885 C   0  0  0  0  0  0  0  0  0  0  0  0
   32.0987   -2.5417   -0.1279 C   0  0  0  0  0  0  0  0  0  0  0  0
   33.0588   -3.4994   -0.1653 C   0  0  0  0  0  0  0  0  0  0  0  0
   34.3308   -2.8267   -0.1581 C   0  0  0  0  0  0  0  0  0  0  0  0
   34.1209   -1.4798   -0.1049 N   0  0  0  0  0  0  0  0  0  0  0  0
   35.5823   -3.4546   -0.1722 C   0  0  0  0  0  0  0  0  0  0  0  0
   36.8203   -2.8057   -0.1236 C   0  0  0  0  0  0  0  0  0  0  0  0
   38.1006   -3.4553   -0.1851 C   0  0  0  0  0  0  0  0  0  0  0  0
   39.0461   -2.4830   -0.1267 C   0  0  0  0  0  0  0  0  0  0  0  0
   37.0131   -1.4520   -0.0407 N   0  0  0  0  0  0  0  0  0  0  0  0
   38.3545   -1.2306   -0.0368 C   0  0  0  0  0  0  0  0  0  0  0  0
   38.9844    0.0290    0.0299 C   0  0  0  0  0  0  0  0  0  0  0  0
   38.3294    1.2759    0.0918 C   0  0  0  0  0  0  0  0  0  0  0  0
   38.9960    2.5443    0.1305 C   0  0  0  0  0  0  0  0  0  0  0  0
   38.0315    3.4985    0.1730 C   0  0  0  0  0  0  0  0  0  0  0  0
   36.7644    2.8208    0.1686 C   0  0  0  0  0  0  0  0  0  0  0  0
   35.5135    3.4462    0.1893 C   0  0  0  0  0  0  0  0  0  0  0  0
   35.4975    4.9288    0.2727 C   0  0  0  0  0  0  0  0  0  0  0  0
   34.9472    5.6901   -0.7592 C   0  0  0  0  0  0  0  0  0  0  0  0
   34.9355    7.0747   -0.6803 C   0  0  0  0  0  0  0  0  0  0  0  0
   35.4679    7.7153    0.4303 C   0  0  0  0  0  0  0  0  0  0  0  0
   36.0151    6.9651    1.4623 C   0  0  0  0  0  0  0  0  0  0  0  0
   36.0328    5.5805    1.3846 C   0  0  0  0  0  0  0  0  0  0  0  0
   34.2746    2.7951    0.1390 C   0  0  0  0  0  0  0  0  0  0  0  0
   32.9893    3.4388    0.2045 C   0  0  0  0  0  0  0  0  0  0  0  0
   32.0486    2.4635    0.1404 C   0  0  0  0  0  0  0  0  0  0  0  0
   32.7466    1.2120    0.0442 C   0  0  0  0  0  0  0  0  0  0  0  0
   34.0918    1.4461    0.0493 N   0  0  0  0  0  0  0  0  0  0  0  0
   36.9841    1.4699    0.1113 N   0  0  0  0  0  0  0  0  0  0  0  0
   35.5965   -4.9381   -0.2436 C   0  0  0  0  0  0  0  0  0  0  0  0
   35.0697   -5.5986   -1.3542 C   0  0  0  0  0  0  0  0  0  0  0  0
   35.0877   -6.9838   -1.4203 C   0  0  0  0  0  0  0  0  0  0  0  0
   35.6264   -7.7257   -0.3778 C   0  0  0  0  0  0  0  0  0  0  0  0
   36.1496   -7.0761    0.7320 C   0  0  0  0  0  0  0  0  0  0  0  0
   36.1377   -5.6910    0.7993 C   0  0  0  0  0  0  0  0  0  0  0  0
   31.0547   -0.0476   -0.0209 H   0  0  0  0  0  0  0  0  0  0  0  0
   31.0277   -2.6712   -0.1198 H   0  0  0  0  0  0  0  0  0  0  0  0
   32.9229   -4.5689   -0.1843 H   0  0  0  0  0  0  0  0  0  0  0  0
   38.2544   -4.5186   -0.2747 H   0  0  0  0  0  0  0  0  0  0  0  0
   40.1185   -2.5958   -0.1485 H   0  0  0  0  0  0  0  0  0  0  0  0
   40.0658    2.6799    0.1196 H   0  0  0  0  0  0  0  0  0  0  0  0
   38.1644    4.5681    0.1925 H   0  0  0  0  0  0  0  0  0  0  0  0
   34.5424    5.1920   -1.6333 H   0  0  0  0  0  0  0  0  0  0  0  0
   34.5099    7.6562   -1.4907 H   0  0  0  0  0  0  0  0  0  0  0  0
   35.4564    8.7977    0.4915 H   0  0  0  0  0  0  0  0  0  0  0  0
   36.4298    7.4604    2.3333 H   0  0  0  0  0  0  0  0  0  0  0  0
   36.4497    4.9957    2.1970 H   0  0  0  0  0  0  0  0  0  0  0  0
   32.8318    4.5013    0.3001 H   0  0  0  0  0  0  0  0  0  0  0  0
   30.9753    2.5698    0.1629 H   0  0  0  0  0  0  0  0  0  0  0  0
   34.6602   -5.0205   -2.1752 H   0  0  0  0  0  0  0  0  0  0  0  0
   34.6808   -7.4863   -2.2909 H   0  0  0  0  0  0  0  0  0  0  0  0
   35.6386   -8.8085   -0.4302 H   0  0  0  0  0  0  0  0  0  0  0  0
   36.5684   -7.6509    1.5505 H   0  0  0  0  0  0  0  0  0  0  0  0
   36.5361   -5.1854    1.6720 H   0  0  0  0  0  0  0  0  0  0  0  0
   91.3989    0.0419    0.0084 Zn  0  0  0  0  0  0  0  0  0  0  0  0
   94.8086    0.0708   -0.0297 C   0  0  0  0  0  0  0  0  0  0  0  0
   94.1792    1.3099   -0.0359 C   0  0  0  0  0  0  0  0  0  0  0  0
   94.8535    2.5778   -0.0212 C   0  0  0  0  0  0  0  0  0  0  0  0
   93.8948    3.5375   -0.0150 C   0  0  0  0  0  0  0  0  0  0  0  0
   92.6218    2.8670   -0.0345 C   0  0  0  0  0  0  0  0  0  0  0  0
   92.8298    1.5187   -0.0403 N   0  0  0  0  0  0  0  0  0  0  0  0
   91.3713    3.4970   -0.0190 C   0  0  0  0  0  0  0  0  0  0  0  0
   90.1325    2.8484    0.0062 C   0  0  0  0  0  0  0  0  0  0  0  0
   88.8528    3.5014   -0.0225 C   0  0  0  0  0  0  0  0  0  0  0  0
   87.9063    2.5287    0.0003 C   0  0  0  0  0  0  0  0  0  0  0  0
   89.9383    1.4925    0.0333 N   0  0  0  0  0  0  0  0  0  0  0  0
   88.5968    1.2728    0.0344 C   0  0  0  0  0  0  0  0  0  0  0  0
   87.9654    0.0123    0.0515 C   0  0  0  0  0  0  0  0  0  0  0  0
   88.6186   -1.2371    0.0544 C   0  0  0  0  0  0  0  0  0  0  0  0
   87.9500   -2.5049    0.0401 C   0  0  0  0  0  0  0  0  0  0  0  0
   88.9132   -3.4614    0.0342 C   0  0  0  0  0  0  0  0  0  0  0  0
   90.1815   -2.7861    0.0538 C   0  0  0  0  0  0  0  0  0  0  0  0
   91.4313   -3.4138    0.0415 C   0  0  0  0  0  0  0  0  0  0  0  0
   91.4453   -4.8987    0.0589 C   0  0  0  0  0  0  0  0  0  0  0  0
   91.9917   -5.6142   -1.0074 C   0  0  0  0  0  0  0  0  0  0  0  0
   92.0017   -7.0009   -0.9901 C   0  0  0  0  0  0  0  0  0  0  0  0
   91.4714   -7.6896    0.0924 C   0  0  0  0  0  0  0  0  0  0  0  0
   90.9280   -6.9852    1.1582 C   0  0  0  0  0  0  0  0  0  0  0  0
   90.9122   -5.5985    1.1422 C   0  0  0  0  0  0  0  0  0  0  0  0
   92.6710   -2.7628    0.0160 C   0  0  0  0  0  0  0  0  0  0  0  0
   93.9557   -3.4105    0.0491 C   0  0  0  0  0  0  0  0  0  0  0  0
   94.8975   -2.4344    0.0256 C   0  0  0  0  0  0  0  0  0  0  0  0
   94.2011   -1.1790   -0.0130 C   0  0  0  0  0  0  0  0  0  0  0  0
   92.8556   -1.4115   -0.0143 N   0  0  0  0  0  0  0  0  0  0  0  0
   89.9637   -1.4337    0.0582 N   0  0  0  0  0  0  0  0  0  0  0  0
   91.3597    4.9821   -0.0278 C   0  0  0  0  0  0  0  0  0  0  0  0
   91.8865    5.6877   -1.1103 C   0  0  0  0  0  0  0  0  0  0  0  0
   91.8717    7.0745   -1.1179 C   0  0  0  0  0  0  0  0  0  0  0  0
   91.3361    7.7730   -0.0443 C   0  0  0  0  0  0  0  0  0  0  0  0
   90.8125    7.0783    1.0377 C   0  0  0  0  0  0  0  0  0  0  0  0
   90.8212    5.6916    1.0465 C   0  0  0  0  0  0  0  0  0  0  0  0
   95.8943    0.0804   -0.0268 H   0  0  0  0  0  0  0  0  0  0  0  0
   95.9247    2.7052   -0.0096 H   0  0  0  0  0  0  0  0  0  0  0  0
   94.0321    4.6067    0.0128 H   0  0  0  0  0  0  0  0  0  0  0  0
   88.7000    4.5678   -0.0674 H   0  0  0  0  0  0  0  0  0  0  0  0
   86.8341    2.6436   -0.0120 H   0  0  0  0  0  0  0  0  0  0  0  0
   86.8800   -2.6383    0.0286 H   0  0  0  0  0  0  0  0  0  0  0  0
   88.7787   -4.5307    0.0061 H   0  0  0  0  0  0  0  0  0  0  0  0
   92.3949   -5.0783   -1.8596 H   0  0  0  0  0  0  0  0  0  0  0  0
   92.4244   -7.5464   -1.8266 H   0  0  0  0  0  0  0  0  0  0  0  0
   91.4814   -8.7736    0.1054 H   0  0  0  0  0  0  0  0  0  0  0  0
   90.5149   -7.5181    2.0075 H   0  0  0  0  0  0  0  0  0  0  0  0
   90.4984   -5.0498    1.9810 H   0  0  0  0  0  0  0  0  0  0  0  0
   94.1121   -4.4763    0.0971 H   0  0  0  0  0  0  0  0  0  0  0  0
   95.9708   -2.5431    0.0402 H   0  0  0  0  0  0  0  0  0  0  0  0
   92.2938    5.1438   -1.9554 H   0  0  0  0  0  0  0  0  0  0  0  0
   92.2789    7.6123   -1.9670 H   0  0  0  0  0  0  0  0  0  0  0  0
   91.3266    8.8571   -0.0508 H   0  0  0  0  0  0  0  0  0  0  0  0
   90.3959    7.6191    1.8802 H   0  0  0  0  0  0  0  0  0  0  0  0
   90.4225    5.1506    1.8976 H   0  0  0  0  0  0  0  0  0  0  0  0
   40.3887    0.0427    0.0234 C   0  0  0  0  0  0  0  0  0  0  0  0
   41.6136    0.0518    0.0170 C   0  0  0  0  0  0  0  0  0  0  0  0
   42.9556    0.0585    0.0101 C   0  0  0  0  0  0  0  0  0  0  0  0
   44.1865    0.0599    0.0039 C   0  0  0  0  0  0  0  0  0  0  0  0
   45.5238    0.0593   -0.0017 C   0  0  0  0  0  0  0  0  0  0  0  0
   46.7549    0.0556   -0.0069 C   0  0  0  0  0  0  0  0  0  0  0  0
   48.0967    0.0513   -0.0094 C   0  0  0  0  0  0  0  0  0  0  0  0
   49.3218    0.0466   -0.0102 C   0  0  0  0  0  0  0  0  0  0  0  0
   59.0089    0.0522    0.0305 C   0  0  0  0  0  0  0  0  0  0  0  0
   60.2341    0.0499    0.0275 C   0  0  0  0  0  0  0  0  0  0  0  0
   61.5758    0.0470    0.0229 C   0  0  0  0  0  0  0  0  0  0  0  0
   62.8069    0.0434    0.0169 C   0  0  0  0  0  0  0  0  0  0  0  0
   64.1439    0.0397    0.0103 C   0  0  0  0  0  0  0  0  0  0  0  0
   65.3751    0.0342    0.0044 C   0  0  0  0  0  0  0  0  0  0  0  0
   66.7168    0.0306    0.0005 C   0  0  0  0  0  0  0  0  0  0  0  0
   67.9420    0.0279   -0.0011 C   0  0  0  0  0  0  0  0  0  0  0  0
   77.6283    0.0263    0.0442 C   0  0  0  0  0  0  0  0  0  0  0  0
   78.8534    0.0208    0.0510 C   0  0  0  0  0  0  0  0  0  0  0  0
   80.1950    0.0168    0.0580 C   0  0  0  0  0  0  0  0  0  0  0  0
   81.4261    0.0109    0.0623 C   0  0  0  0  0  0  0  0  0  0  0  0
   82.7633    0.0072    0.0641 C   0  0  0  0  0  0  0  0  0  0  0  0
   83.9942    0.0026    0.0635 C   0  0  0  0  0  0  0  0  0  0  0  0
   85.3362    0.0009    0.0604 C   0  0  0  0  0  0  0  0  0  0  0  0
   86.5611    0.0020    0.0553 C   0  0  0  0  0  0  0  0  0  0  0  0
   54.1657    0.0484    0.0131 Zn  0  0  0  0  0  0  0  0  0  0  0  0
   50.7255    0.0462   -0.0064 C   0  0  0  0  0  0  0  0  0  0  0  0
   51.3704   -1.2078   -0.0121 C   0  0  0  0  0  0  0  0  0  0  0  0
   50.6937   -2.4707    0.0064 C   0  0  0  0  0  0  0  0  0  0  0  0
   51.6508   -3.4338   -0.0067 C   0  0  0  0  0  0  0  0  0  0  0  0
   52.9218   -2.7664   -0.0423 C   0  0  0  0  0  0  0  0  0  0  0  0
   52.7142   -1.4127   -0.0367 N   0  0  0  0  0  0  0  0  0  0  0  0
   54.1682   -3.4014   -0.0560 C   0  0  0  0  0  0  0  0  0  0  0  0
   55.4134   -2.7640   -0.0461 C   0  0  0  0  0  0  0  0  0  0  0  0
   56.6855   -3.4274   -0.1091 C   0  0  0  0  0  0  0  0  0  0  0  0
   57.6411   -2.4630   -0.0854 C   0  0  0  0  0  0  0  0  0  0  0  0
   55.6190   -1.4107    0.0013 N   0  0  0  0  0  0  0  0  0  0  0  0
   56.9623   -1.2029   -0.0160 C   0  0  0  0  0  0  0  0  0  0  0  0
   57.6053    0.0514    0.0301 C   0  0  0  0  0  0  0  0  0  0  0  0
   56.9599    1.3046    0.0740 C   0  0  0  0  0  0  0  0  0  0  0  0
   57.6360    2.5651    0.1568 C   0  0  0  0  0  0  0  0  0  0  0  0
   56.6788    3.5281    0.1755 C   0  0  0  0  0  0  0  0  0  0  0  0
   55.4085    2.8633    0.0944 C   0  0  0  0  0  0  0  0  0  0  0  0
   54.1623    3.4987    0.0911 C   0  0  0  0  0  0  0  0  0  0  0  0
   54.1601    4.9836    0.1281 C   0  0  0  0  0  0  0  0  0  0  0  0
   53.5956    5.6623    1.2088 C   0  0  0  0  0  0  0  0  0  0  0  0
   53.5961    7.0487    1.2438 C   0  0  0  0  0  0  0  0  0  0  0  0
   54.1542    7.7732    0.1994 C   0  0  0  0  0  0  0  0  0  0  0  0
   54.7152    7.1053   -0.8806 C   0  0  0  0  0  0  0  0  0  0  0  0
   54.7215    5.7189   -0.9165 C   0  0  0  0  0  0  0  0  0  0  0  0
   52.9173    2.8617    0.0572 C   0  0  0  0  0  0  0  0  0  0  0  0
   51.6459    3.5274    0.0054 C   0  0  0  0  0  0  0  0  0  0  0  0
   50.6904    2.5629   -0.0211 C   0  0  0  0  0  0  0  0  0  0  0  0
   51.3687    1.3011    0.0052 C   0  0  0  0  0  0  0  0  0  0  0  0
   52.7117    1.5078    0.0463 N   0  0  0  0  0  0  0  0  0  0  0  0
   55.6166    1.5105    0.0432 N   0  0  0  0  0  0  0  0  0  0  0  0
   54.1703   -4.8867   -0.0810 C   0  0  0  0  0  0  0  0  0  0  0  0
   53.6264   -5.5779   -1.1642 C   0  0  0  0  0  0  0  0  0  0  0  0
   53.6332   -6.9646   -1.1859 C   0  0  0  0  0  0  0  0  0  0  0  0
   54.1770   -7.6768   -0.1256 C   0  0  0  0  0  0  0  0  0  0  0  0
   54.7170   -6.9963    0.9572 C   0  0  0  0  0  0  0  0  0  0  0  0
   54.7171   -5.6097    0.9798 C   0  0  0  0  0  0  0  0  0  0  0  0
   49.6231   -2.5966    0.0331 H   0  0  0  0  0  0  0  0  0  0  0  0
   51.5104   -4.5024    0.0170 H   0  0  0  0  0  0  0  0  0  0  0  0
   56.8278   -4.4940   -0.1750 H   0  0  0  0  0  0  0  0  0  0  0  0
   58.7119   -2.5864   -0.1179 H   0  0  0  0  0  0  0  0  0  0  0  0
   58.7062    2.6899    0.2023 H   0  0  0  0  0  0  0  0  0  0  0  0
   56.8190    4.5945    0.2490 H   0  0  0  0  0  0  0  0  0  0  0  0
   53.1694    5.0975    2.0306 H   0  0  0  0  0  0  0  0  0  0  0  0
   53.1592    7.5656    2.0911 H   0  0  0  0  0  0  0  0  0  0  0  0
   54.1520    8.8570    0.2271 H   0  0  0  0  0  0  0  0  0  0  0  0
   55.1496    7.6666   -1.7004 H   0  0  0  0  0  0  0  0  0  0  0  0
   55.1497    5.1988   -1.7662 H   0  0  0  0  0  0  0  0  0  0  0  0
   51.5041    4.5958   -0.0196 H   0  0  0  0  0  0  0  0  0  0  0  0
   49.6201    2.6877   -0.0618 H   0  0  0  0  0  0  0  0  0  0  0  0
   53.2118   -5.0229   -1.9985 H   0  0  0  0  0  0  0  0  0  0  0  0
   53.2128   -7.4914   -2.0354 H   0  0  0  0  0  0  0  0  0  0  0  0
   54.1799   -8.7607   -0.1430 H   0  0  0  0  0  0  0  0  0  0  0  0
   55.1401   -7.5479    1.7895 H   0  0  0  0  0  0  0  0  0  0  0  0
   55.1292   -5.0795    1.8313 H   0  0  0  0  0  0  0  0  0  0  0  0
   72.7856    0.0268    0.0154 Zn  0  0  0  0  0  0  0  0  0  0  0  0
   69.3455    0.0273    0.0006 C   0  0  0  0  0  0  0  0  0  0  0  0
   69.9897   -1.2272   -0.0053 C   0  0  0  0  0  0  0  0  0  0  0  0
   69.3120   -2.4896    0.0150 C   0  0  0  0  0  0  0  0  0  0  0  0
   70.2683   -3.4534    0.0005 C   0  0  0  0  0  0  0  0  0  0  0  0
   71.5398   -2.7870   -0.0379 C   0  0  0  0  0  0  0  0  0  0  0  0
   71.3331   -1.4330   -0.0322 N   0  0  0  0  0  0  0  0  0  0  0  0
   72.7855   -3.4231   -0.0541 C   0  0  0  0  0  0  0  0  0  0  0  0
   74.0312   -2.7865   -0.0459 C   0  0  0  0  0  0  0  0  0  0  0  0
   75.3028   -3.4506   -0.1105 C   0  0  0  0  0  0  0  0  0  0  0  0
   76.2589   -2.4869   -0.0848 C   0  0  0  0  0  0  0  0  0  0  0  0
   74.2376   -1.4336    0.0032 N   0  0  0  0  0  0  0  0  0  0  0  0
   75.5811   -1.2266   -0.0136 C   0  0  0  0  0  0  0  0  0  0  0  0
   76.2247    0.0272    0.0344 C   0  0  0  0  0  0  0  0  0  0  0  0
   75.5807    1.2810    0.0742 C   0  0  0  0  0  0  0  0  0  0  0  0
   76.2580    2.5412    0.1532 C   0  0  0  0  0  0  0  0  0  0  0  0
   75.3016    3.5051    0.1690 C   0  0  0  0  0  0  0  0  0  0  0  0
   74.0308    2.8412    0.0910 C   0  0  0  0  0  0  0  0  0  0  0  0
   72.7849    3.4776    0.0893 C   0  0  0  0  0  0  0  0  0  0  0  0
   72.7840    4.9625    0.1260 C   0  0  0  0  0  0  0  0  0  0  0  0
   72.2240    5.6416    1.2088 C   0  0  0  0  0  0  0  0  0  0  0  0
   72.2257    7.0279    1.2441 C   0  0  0  0  0  0  0  0  0  0  0  0
   72.7807    7.7521    0.1978 C   0  0  0  0  0  0  0  0  0  0  0  0
   73.3372    7.0838   -0.8843 C   0  0  0  0  0  0  0  0  0  0  0  0
   73.3424    5.6974   -0.9204 C   0  0  0  0  0  0  0  0  0  0  0  0
   71.5395    2.8415    0.0588 C   0  0  0  0  0  0  0  0  0  0  0  0
   70.2684    3.5080    0.0096 C   0  0  0  0  0  0  0  0  0  0  0  0
   69.3122    2.5442   -0.0148 C   0  0  0  0  0  0  0  0  0  0  0  0
   69.9897    1.2818    0.0105 C   0  0  0  0  0  0  0  0  0  0  0  0
   71.3327    1.4876    0.0489 N   0  0  0  0  0  0  0  0  0  0  0  0
   74.2375    1.4882    0.0430 N   0  0  0  0  0  0  0  0  0  0  0  0
   72.7863   -4.9083   -0.0804 C   0  0  0  0  0  0  0  0  0  0  0  0
   72.2387   -5.5975   -1.1631 C   0  0  0  0  0  0  0  0  0  0  0  0
   72.2422   -6.9841   -1.1858 C   0  0  0  0  0  0  0  0  0  0  0  0
   72.7866   -7.6984   -0.1272 C   0  0  0  0  0  0  0  0  0  0  0  0
   73.3315   -7.0200    0.9545 C   0  0  0  0  0  0  0  0  0  0  0  0
   73.3348   -5.6333    0.9782 C   0  0  0  0  0  0  0  0  0  0  0  0
   68.2413   -2.6149    0.0438 H   0  0  0  0  0  0  0  0  0  0  0  0
   70.1270   -4.5219    0.0250 H   0  0  0  0  0  0  0  0  0  0  0  0
   75.4443   -4.5172   -0.1788 H   0  0  0  0  0  0  0  0  0  0  0  0
   77.3297   -2.6108   -0.1181 H   0  0  0  0  0  0  0  0  0  0  0  0
   77.3283    2.6651    0.1972 H   0  0  0  0  0  0  0  0  0  0  0  0
   75.4428    4.5716    0.2387 H   0  0  0  0  0  0  0  0  0  0  0  0
   71.8003    5.0771    2.0320 H   0  0  0  0  0  0  0  0  0  0  0  0
   71.7924    7.5450    2.0931 H   0  0  0  0  0  0  0  0  0  0  0  0
   72.7793    8.8358    0.2256 H   0  0  0  0  0  0  0  0  0  0  0  0
   73.7691    7.6449   -1.7056 H   0  0  0  0  0  0  0  0  0  0  0  0
   73.7671    5.1771   -1.7718 H   0  0  0  0  0  0  0  0  0  0  0  0
   70.1272    4.5765   -0.0151 H   0  0  0  0  0  0  0  0  0  0  0  0
   68.2418    2.6697   -0.0533 H   0  0  0  0  0  0  0  0  0  0  0  0
   71.8234   -5.0408   -1.9959 H   0  0  0  0  0  0  0  0  0  0  0  0
   71.8185   -7.5092   -2.0347 H   0  0  0  0  0  0  0  0  0  0  0  0
   72.7863   -8.7823   -0.1452 H   0  0  0  0  0  0  0  0  0  0  0  0
   73.7554   -7.5732    1.7852 H   0  0  0  0  0  0  0  0  0  0  0  0
   73.7502   -5.1048    1.8289 H   0  0  0  0  0  0  0  0  0  0  0  0
  2  3  4  0  0  0  0
  3  4  1  0  0  0  0
  4  5  2  0  0  0  0
  5  6  4  0  0  0  0
  1  7  1  0  0  0  0
  3  7  4  0  0  0  0
  6  7  4  0  0  0  0
  6  8  4  0  0  0  0
  8  9  4  0  0  0  0
  9 10  4  0  0  0  0
 10 11  2  0  0  0  0
  1 12  1  0  0  0  0
  9 12  4  0  0  0  0
 11 13  4  0  0  0  0
 12 13  4  0  0  0  0
 13 14  4  0  0  0  0
 14 15  4  0  0  0  0
 15 16  4  0  0  0  0
 16 17  2  0  0  0  0
 17 18  4  0  0  0  0
 18 19  4  0  0  0  0
 19 20  1  0  0  0  0
 20 21  4  0  0  0  0
 21 22  4  0  0  0  0
 22 23  4  0  0  0  0
 23 24  4  0  0  0  0
 20 25  4  0  0  0  0
 24 25  4  0  0  0  0
 19 26  4  0  0  0  0
 26 27  4  0  0  0  0
 27 28  2  0  0  0  0
  2 29  4  0  0  0  0
 28 29  1  0  0  0  0
  1 30  1  0  0  0  0
 26 30  4  0  0  0  0
 29 30  4  0  0  0  0
  1 31  1  0  0  0  0
 15 31  4  0  0  0  0
 18 31  4  0  0  0  0
  8 32  1  0  0  0  0
 32 33  4  0  0  0  0
 33 34  4  0  0  0  0
 34 35  4  0  0  0  0
 35 36  4  0  0  0  0
 32 37  4  0  0  0  0
 36 37  4  0  0  0  0
  2 38  1  0  0  0  0
  4 39  1  0  0  0  0
  5 40  1  0  0  0  0
 10 41  1  0  0  0  0
 11 42  1  0  0  0  0
 16 43  1  0  0  0  0
 17 44  1  0  0  0  0
 21 45  1  0  0  0  0
 22 46  1  0  0  0  0
 23 47  1  0  0  0  0
 24 48  1  0  0  0  0
 25 49  1  0  0  0  0
 27 50  1  0  0  0  0
 28 51  1  0  0  0  0
 33 52  1  0  0  0  0
 34 53  1  0  0  0  0
 35 54  1  0  0  0  0
 36 55  1  0  0  0  0
 37 56  1  0  0  0  0
 58 59  4  0  0  0  0
 59 60  1  0  0  0  0
 60 61  2  0  0  0  0
 61 62  4  0  0  0  0
 57 63  1  0  0  0  0
 59 63  4  0  0  0  0
 62 63  4  0  0  0  0
 62 64  4  0  0  0  0
 64 65  4  0  0  0  0
 65 66  4  0  0  0  0
 66 67  2  0  0  0  0
 57 68  1  0  0  0  0
 65 68  4  0  0  0  0
 67 69  4  0  0  0  0
 68 69  4  0  0  0  0
 69 70  4  0  0  0  0
 70 71  4  0  0  0  0
 71 72  4  0  0  0  0
 72 73  2  0  0  0  0
 73 74  4  0  0  0  0
 74 75  4  0  0  0  0
 75 76  1  0  0  0  0
 76 77  4  0  0  0  0
 77 78  4  0  0  0  0
 78 79  4  0  0  0  0
 79 80  4  0  0  0  0
 76 81  4  0  0  0  0
 80 81  4  0  0  0  0
 75 82  4  0  0  0  0
 82 83  4  0  0  0  0
 83 84  2  0  0  0  0
 58 85  4  0  0  0  0
 84 85  1  0  0  0  0
 57 86  1  0  0  0  0
 82 86  4  0  0  0  0
 85 86  4  0  0  0  0
 57 87  1  0  0  0  0
 71 87  4  0  0  0  0
 74 87  4  0  0  0  0
 64 88  1  0  0  0  0
 88 89  4  0  0  0  0
 89 90  4  0  0  0  0
 90 91  4  0  0  0  0
 91 92  4  0  0  0  0
 88 93  4  0  0  0  0
 92 93  4  0  0  0  0
 58 94  1  0  0  0  0
 60 95  1  0  0  0  0
 61 96  1  0  0  0  0
 66 97  1  0  0  0  0
 67 98  1  0  0  0  0
 72 99  1  0  0  0  0
 73100  1  0  0  0  0
 77101  1  0  0  0  0
 78102  1  0  0  0  0
 79103  1  0  0  0  0
 80104  1  0  0  0  0
 81105  1  0  0  0  0
 83106  1  0  0  0  0
 84107  1  0  0  0  0
 89108  1  0  0  0  0
 90109  1  0  0  0  0
 91110  1  0  0  0  0
 92111  1  0  0  0  0
 93112  1  0  0  0  0
 14113  4  0  0  0  0
113114  3  0  0  0  0
114115  4  0  0  0  0
115116  3  0  0  0  0
116117  4  0  0  0  0
117118  3  0  0  0  0
118119  4  0  0  0  0
119120  3  0  0  0  0
121122  3  0  0  0  0
122123  4  0  0  0  0
123124  3  0  0  0  0
124125  4  0  0  0  0
125126  3  0  0  0  0
126127  4  0  0  0  0
127128  3  0  0  0  0
129130  3  0  0  0  0
130131  4  0  0  0  0
131132  3  0  0  0  0
132133  4  0  0  0  0
133134  3  0  0  0  0
134135  4  0  0  0  0
 70136  4  0  0  0  0
135136  3  0  0  0  0
120138  4  0  0  0  0
138139  4  0  0  0  0
139140  4  0  0  0  0
140141  2  0  0  0  0
141142  4  0  0  0  0
137143  1  0  0  0  0
139143  4  0  0  0  0
142143  4  0  0  0  0
142144  4  0  0  0  0
144145  4  0  0  0  0
145146  4  0  0  0  0
146147  2  0  0  0  0
137148  1  0  0  0  0
145148  4  0  0  0  0
147149  4  0  0  0  0
148149  4  0  0  0  0
121150  4  0  0  0  0
149150  4  0  0  0  0
150151  4  0  0  0  0
151152  4  0  0  0  0
152153  2  0  0  0  0
153154  4  0  0  0  0
154155  4  0  0  0  0
155156  1  0  0  0  0
156157  4  0  0  0  0
157158  4  0  0  0  0
158159  4  0  0  0  0
159160  4  0  0  0  0
156161  4  0  0  0  0
160161  4  0  0  0  0
155162  4  0  0  0  0
162163  4  0  0  0  0
163164  2  0  0  0  0
138165  4  0  0  0  0
164165  4  0  0  0  0
137166  1  0  0  0  0
162166  4  0  0  0  0
165166  4  0  0  0  0
137167  1  0  0  0  0
151167  4  0  0  0  0
154167  4  0  0  0  0
144168  1  0  0  0  0
168169  4  0  0  0  0
169170  4  0  0  0  0
170171  4  0  0  0  0
171172  4  0  0  0  0
168173  4  0  0  0  0
172173  4  0  0  0  0
140174  1  0  0  0  0
141175  1  0  0  0  0
146176  1  0  0  0  0
147177  1  0  0  0  0
152178  1  0  0  0  0
153179  1  0  0  0  0
157180  1  0  0  0  0
158181  1  0  0  0  0
159182  1  0  0  0  0
160183  1  0  0  0  0
161184  1  0  0  0  0
163185  1  0  0  0  0
164186  1  0  0  0  0
169187  1  0  0  0  0
170188  1  0  0  0  0
171189  1  0  0  0  0
172190  1  0  0  0  0
173191  1  0  0  0  0
128193  4  0  0  0  0
193194  4  0  0  0  0
194195  4  0  0  0  0
195196  2  0  0  0  0
196197  4  0  0  0  0
192198  1  0  0  0  0
194198  4  0  0  0  0
197198  4  0  0  0  0
197199  4  0  0  0  0
199200  4  0  0  0  0
200201  4  0  0  0  0
201202  2  0  0  0  0
192203  1  0  0  0  0
200203  4  0  0  0  0
202204  4  0  0  0  0
203204  4  0  0  0  0
129205  4  0  0  0  0
204205  4  0  0  0  0
205206  4  0  0  0  0
206207  4  0  0  0  0
207208  2  0  0  0  0
208209  4  0  0  0  0
209210  4  0  0  0  0
210211  1  0  0  0  0
211212  4  0  0  0  0
212213  4  0  0  0  0
213214  4  0  0  0  0
214215  4  0  0  0  0
211216  4  0  0  0  0
215216  4  0  0  0  0
210217  4  0  0  0  0
217218  4  0  0  0  0
218219  2  0  0  0  0
193220  4  0  0  0  0
219220  4  0  0  0  0
192221  1  0  0  0  0
217221  4  0  0  0  0
220221  4  0  0  0  0
192222  1  0  0  0  0
206222  4  0  0  0  0
209222  4  0  0  0  0
199223  1  0  0  0  0
223224  4  0  0  0  0
224225  4  0  0  0  0
225226  4  0  0  0  0
226227  4  0  0  0  0
223228  4  0  0  0  0
227228  4  0  0  0  0
195229  1  0  0  0  0
196230  1  0  0  0  0
201231  1  0  0  0  0
202232  1  0  0  0  0
207233  1  0  0  0  0
208234  1  0  0  0  0
212235  1  0  0  0  0
213236  1  0  0  0  0
214237  1  0  0  0  0
215238  1  0  0  0  0
216239  1  0  0  0  0
218240  1  0  0  0  0
219241  1  0  0  0  0
224242  1  0  0  0  0
225243  1  0  0  0  0
226244  1  0  0  0  0
227245  1  0  0  0  0
228246  1  0  0  0  0
M  END
