126

C 12.764763 0.031581 -0.111534
C 13.499518 -1.250656 -0.609022
C 12.904435 -2.343628 -1.195827
C 13.929894 -3.294019 -1.440136
C 15.116060 -2.749611 -0.987140
N 14.849572 -1.481635 -0.535430
C 16.533862 -3.456612 -0.962712
C 16.563051 -4.927430 -1.131099
C 16.856937 -5.498525 -2.376619
C 16.872541 -6.886569 -2.528155
C 16.592492 -7.702239 -1.428512
C 16.603721 -9.172493 -1.565044
O 16.841738 -9.746008 -2.621737
C 16.297809 -7.143165 -0.181073
C 16.283167 -5.755609 -0.036592
C 17.663792 -2.739506 -0.720439
C 18.964599 -3.370012 -0.625268
C 19.865861 -2.433096 -0.354811
N 17.861366 -1.401372 -0.504912
C 19.189237 -1.153874 -0.271225
C 19.854932 0.000223 0.000063
C 19.076829 1.381591 0.066164
C 19.618930 2.634166 -0.145041
C 18.592366 3.586505 0.072524
C 17.449133 2.888184 0.398485
N 17.740610 1.545534 0.339690
C 16.036760 3.514338 0.754536
C 15.996598 4.920275 1.211297
C 16.293453 5.243778 2.541066
C 16.264993 6.574406 2.964933
C 15.941044 7.581666 2.051904
C 15.906871 8.995361 2.476908
O 16.146193 9.357704 3.623134
C 15.643795 7.270673 0.721060
C 15.673156 5.939535 0.304495
C 14.911996 2.764067 0.626579
C 13.587344 3.271702 0.938362
C 12.702805 2.310493 0.689722
C 13.427525 1.155193 0.220814
N 14.750020 1.471246 0.214549
H 11.685282 -0.002376 -0.024682
H 11.851952 -2.451899 -1.408775
H 13.810759 -4.274925 -1.874832
H 15.543794 -0.817956 -0.200209
H 17.076591 -4.846686 -3.220037
H 17.104055 -7.319558 -3.497186
H 16.380920 -9.744332 -0.648868
H 16.079569 -7.762834 0.682406
H 16.057931 -5.299453 0.925693
H 19.177165 -4.417451 -0.742545
H 20.917132 -2.615474 -0.226618
H 20.643378 2.844287 -0.412457
H 18.680368 4.660094 0.003611
H 17.057400 0.797848 0.429750
H 16.543308 4.446309 3.238238
H 16.494987 6.814261 3.999021
H 15.649865 9.728983 1.694136
H 15.388727 8.041212 0.000282
H 15.442148 5.674131 -0.726118
H 13.355251 4.253425 1.309741
H 11.637930 2.373810 0.819330
C 33.171666 0.036036 -0.110186
C 32.436910 1.378873 0.187156
C 33.031994 2.613779 0.305194
C 32.006535 3.540067 0.629112
C 30.820368 2.835814 0.704034
N 31.086857 1.530235 0.376514
C 29.402567 3.410518 1.116541
C 29.373377 4.727707 1.792317
C 29.079492 5.893788 1.072785
C 29.063888 7.132758 1.716665
C 29.343937 7.201445 3.084077
C 29.332708 8.500494 3.786044
O 29.094691 9.563843 3.224967
C 29.638620 6.044302 3.811873
C 29.653262 4.809651 3.162394
C 28.272637 2.679464 0.920335
C 26.971830 3.151279 1.349271
C 26.070568 2.221700 1.054584
N 28.075063 1.446525 0.357384
C 26.747191 1.110966 0.414531
C 26.081497 0.000223 0.000063
C 26.859600 -1.185801 -0.711200
C 26.317499 -2.110839 -1.581750
C 27.344062 -3.023911 -1.929001
C 28.487295 -2.623693 -1.270421
N 28.195819 -1.473937 -0.574556
C 29.899669 -3.342185 -1.321506
C 29.939831 -4.765356 -1.721352
C 29.642976 -5.772163 -0.794378
C 29.671436 -7.114426 -1.179819
C 29.995384 -7.446041 -2.498237
C 30.029558 -8.858050 -2.928810
O 29.790236 -9.795359 -2.176097
C 30.292634 -6.449046 -3.433044
C 30.263272 -5.110409 -3.041245
C 31.024433 -2.646949 -1.011787
C 32.349084 -3.242273 -1.033961
C 33.233624 -2.304583 -0.707646
C 32.508904 -1.083215 -0.456939
N 31.186409 -1.342709 -0.637470
H 34.251147 0.016111 -0.019084
H 34.084477 2.821991 0.188071
H 32.125670 4.597353 0.811547
H 30.392635 0.792075 0.287282
H 28.859838 5.819284 0.009442
H 28.832374 8.030556 1.150574
H 29.555509 8.468075 4.865547
H 29.856860 6.080911 4.874063
H 29.878497 3.896319 3.710021
H 26.759264 4.087847 1.832719
H 25.019296 2.302336 1.262414
H 25.293051 -2.137330 -1.920808
H 27.256061 -3.878956 -2.581872
H 28.879029 -0.901788 -0.084872
H 29.393121 -5.495364 0.228064
H 29.441442 -7.887616 -0.452464
H 30.286564 -9.034241 -3.987058
H 30.547701 -6.690343 -4.460189
H 30.494280 -4.317889 -3.751536
H 32.581178 -4.265116 -1.269533
H 34.298499 -2.429160 -0.634929
C 22.232723 0.012394 0.002430
C 20.980452 -0.006787 -0.001919
C 23.546391 0.011628 0.004362
C 25.049525 -0.006787 -0.001919
