 xtb: 6.5.1 (b24c23e)
          07302207063D

126139  0     0  0            999 V2000
   12.8800   -0.1053   -0.1145 C   0  0  0  0  0  0  0  0  0  0  0  0
   13.4895   -1.3187   -0.4064 C   0  0  0  0  0  0  0  0  0  0  0  0
   12.8376   -2.5414   -0.7313 C   0  0  0  0  0  0  0  0  0  0  0  0
   13.7990   -3.4927   -0.9256 C   0  0  0  0  0  0  0  0  0  0  0  0
   15.0694   -2.8829   -0.7181 C   0  0  0  0  0  0  0  0  0  0  0  0
   14.8322   -1.5719   -0.4183 N   0  0  0  0  0  0  0  0  0  0  0  0
   16.3326   -3.4767   -0.8245 C   0  0  0  0  0  0  0  0  0  0  0  0
   16.3608   -4.9273   -1.1257 C   0  0  0  0  0  0  0  0  0  0  0  0
   16.9787   -5.4006   -2.2874 C   0  0  0  0  0  0  0  0  0  0  0  0
   17.0000   -6.7538   -2.5646 C   0  0  0  0  0  0  0  0  0  0  0  0
   16.4090   -7.6665   -1.6842 C   0  0  0  0  0  0  0  0  0  0  0  0
   16.4467   -9.1059   -2.0012 C   0  0  0  0  0  0  0  0  0  0  0  0
   16.9578   -9.5596   -2.9930 O   0  0  0  0  0  0  0  0  0  0  0  0
   15.7933   -7.1953   -0.5221 C   0  0  0  0  0  0  0  0  0  0  0  0
   15.7667   -5.8394   -0.2485 C   0  0  0  0  0  0  0  0  0  0  0  0
   17.5493   -2.8084   -0.6649 C   0  0  0  0  0  0  0  0  0  0  0  0
   18.8472   -3.4560   -0.7321 C   0  0  0  0  0  0  0  0  0  0  0  0
   19.7667   -2.4902   -0.5287 C   0  0  0  0  0  0  0  0  0  0  0  0
   17.7018   -1.4813   -0.4032 N   0  0  0  0  0  0  0  0  0  0  0  0
   19.0292   -1.2582   -0.3241 C   0  0  0  0  0  0  0  0  0  0  0  0
   19.6649   -0.0253   -0.0750 C   0  0  0  0  0  0  0  0  0  0  0  0
   19.0296    1.2027    0.1905 C   0  0  0  0  0  0  0  0  0  0  0  0
   19.6749    2.4448    0.4297 C   0  0  0  0  0  0  0  0  0  0  0  0
   18.7090    3.3842    0.6624 C   0  0  0  0  0  0  0  0  0  0  0  0
   17.4430    2.7409    0.5791 C   0  0  0  0  0  0  0  0  0  0  0  0
   17.6884    1.4267    0.2824 N   0  0  0  0  0  0  0  0  0  0  0  0
   16.1805    3.3249    0.7322 C   0  0  0  0  0  0  0  0  0  0  0  0
   16.1504    4.7609    1.0931 C   0  0  0  0  0  0  0  0  0  0  0  0
   16.7418    5.2018    2.2814 C   0  0  0  0  0  0  0  0  0  0  0  0
   16.7082    6.5395    2.6240 C   0  0  0  0  0  0  0  0  0  0  0  0
   16.0887    7.4700    1.7830 C   0  0  0  0  0  0  0  0  0  0  0  0
   16.0673    8.8920    2.1710 C   0  0  0  0  0  0  0  0  0  0  0  0
   16.5545    9.3153    3.1879 O   0  0  0  0  0  0  0  0  0  0  0  0
   15.5021    7.0320    0.5931 C   0  0  0  0  0  0  0  0  0  0  0  0
   15.5304    5.6911    0.2539 C   0  0  0  0  0  0  0  0  0  0  0  0
   14.9631    2.6528    0.5764 C   0  0  0  0  0  0  0  0  0  0  0  0
   13.6579    3.2608    0.7852 C   0  0  0  0  0  0  0  0  0  0  0  0
   12.7453    2.2991    0.5412 C   0  0  0  0  0  0  0  0  0  0  0  0
   13.4918    1.1012    0.1984 C   0  0  0  0  0  0  0  0  0  0  0  0
   14.8240    1.3497    0.2374 N   0  0  0  0  0  0  0  0  0  0  0  0
   11.7948   -0.1123   -0.1270 H   0  0  0  0  0  0  0  0  0  0  0  0
   11.7690   -2.6629   -0.8083 H   0  0  0  0  0  0  0  0  0  0  0  0
   13.6480   -4.5243   -1.1991 H   0  0  0  0  0  0  0  0  0  0  0  0
   15.5579   -0.8872   -0.2340 H   0  0  0  0  0  0  0  0  0  0  0  0
   17.4263   -4.6951   -2.9782 H   0  0  0  0  0  0  0  0  0  0  0  0
   17.4721   -7.1284   -3.4666 H   0  0  0  0  0  0  0  0  0  0  0  0
   15.9589   -9.7528   -1.2409 H   0  0  0  0  0  0  0  0  0  0  0  0
   15.3362   -7.8965    0.1686 H   0  0  0  0  0  0  0  0  0  0  0  0
   15.3000   -5.4785    0.6613 H   0  0  0  0  0  0  0  0  0  0  0  0
   19.0111   -4.5082   -0.8988 H   0  0  0  0  0  0  0  0  0  0  0  0
   20.8410   -2.5785   -0.5040 H   0  0  0  0  0  0  0  0  0  0  0  0
   20.7427    2.5923    0.4182 H   0  0  0  0  0  0  0  0  0  0  0  0
   18.8571    4.4327    0.8625 H   0  0  0  0  0  0  0  0  0  0  0  0
   16.9656    0.7276    0.1471 H   0  0  0  0  0  0  0  0  0  0  0  0
   17.2102    4.4816    2.9428 H   0  0  0  0  0  0  0  0  0  0  0  0
   17.1577    6.8875    3.5479 H   0  0  0  0  0  0  0  0  0  0  0  0
   15.5584    9.5566    1.4407 H   0  0  0  0  0  0  0  0  0  0  0  0
   15.0239    7.7479   -0.0676 H   0  0  0  0  0  0  0  0  0  0  0  0
   15.0860    5.3568   -0.6768 H   0  0  0  0  0  0  0  0  0  0  0  0
   13.4879    4.2808    1.0900 H   0  0  0  0  0  0  0  0  0  0  0  0
   11.6696    2.3603    0.5913 H   0  0  0  0  0  0  0  0  0  0  0  0
   33.0554    0.1538   -0.0410 C   0  0  0  0  0  0  0  0  0  0  0  0
   32.4458    1.3247    0.3903 C   0  0  0  0  0  0  0  0  0  0  0  0
   33.0973    2.5233    0.7960 C   0  0  0  0  0  0  0  0  0  0  0  0
   32.1358    3.4216    1.1638 C   0  0  0  0  0  0  0  0  0  0  0  0
   30.8657    2.7977    1.0016 C   0  0  0  0  0  0  0  0  0  0  0  0
   31.1032    1.5406    0.5239 N   0  0  0  0  0  0  0  0  0  0  0  0
   29.6025    3.3497    1.2449 C   0  0  0  0  0  0  0  0  0  0  0  0
   29.5743    4.7236    1.7989 C   0  0  0  0  0  0  0  0  0  0  0  0
   28.9537    5.7613    1.0964 C   0  0  0  0  0  0  0  0  0  0  0  0
   28.9326    7.0410    1.6164 C   0  0  0  0  0  0  0  0  0  0  0  0
   29.5264    7.3126    2.8537 C   0  0  0  0  0  0  0  0  0  0  0  0
   29.4882    8.6860    3.3886 C   0  0  0  0  0  0  0  0  0  0  0  0
   28.9760    9.6135    2.8158 O   0  0  0  0  0  0  0  0  0  0  0  0
   30.1449    6.2766    3.5577 C   0  0  0  0  0  0  0  0  0  0  0  0
   30.1713    4.9967    3.0332 C   0  0  0  0  0  0  0  0  0  0  0  0
   28.3859    2.7044    1.0086 C   0  0  0  0  0  0  0  0  0  0  0  0
   27.0881    3.2799    1.3132 C   0  0  0  0  0  0  0  0  0  0  0  0
   26.1686    2.3634    0.9469 C   0  0  0  0  0  0  0  0  0  0  0  0
   28.2333    1.4552    0.4900 N   0  0  0  0  0  0  0  0  0  0  0  0
   26.9059    1.2251    0.4331 C   0  0  0  0  0  0  0  0  0  0  0  0
   26.2702    0.0611   -0.0438 C   0  0  0  0  0  0  0  0  0  0  0  0
   26.9057   -1.1073   -0.5049 C   0  0  0  0  0  0  0  0  0  0  0  0
   26.2606   -2.2735   -0.9952 C   0  0  0  0  0  0  0  0  0  0  0  0
   27.2267   -3.1840   -1.3226 C   0  0  0  0  0  0  0  0  0  0  0  0
   28.4926   -2.6023   -1.0353 C   0  0  0  0  0  0  0  0  0  0  0  0
   28.2469   -1.3444   -0.5528 N   0  0  0  0  0  0  0  0  0  0  0  0
   29.7552   -3.1726   -1.2328 C   0  0  0  0  0  0  0  0  0  0  0  0
   29.7853   -4.5677   -1.7288 C   0  0  0  0  0  0  0  0  0  0  0  0
   29.1951   -5.5939   -0.9840 C   0  0  0  0  0  0  0  0  0  0  0  0
   29.2287   -6.8970   -1.4411 C   0  0  0  0  0  0  0  0  0  0  0  0
   29.8468   -7.2045   -2.6577 C   0  0  0  0  0  0  0  0  0  0  0  0
   29.8679   -8.6028   -3.1240 C   0  0  0  0  0  0  0  0  0  0  0  0
   29.3818   -9.5193   -2.5121 O   0  0  0  0  0  0  0  0  0  0  0  0
   30.4322   -6.1798   -3.4054 C   0  0  0  0  0  0  0  0  0  0  0  0
   30.4040   -4.8759   -2.9438 C   0  0  0  0  0  0  0  0  0  0  0  0
   30.9726   -2.5262   -0.9915 C   0  0  0  0  0  0  0  0  0  0  0  0
   32.2780   -3.1467   -1.1580 C   0  0  0  0  0  0  0  0  0  0  0  0
   33.1905   -2.2103   -0.8298 C   0  0  0  0  0  0  0  0  0  0  0  0
   32.4438   -1.0242   -0.4486 C   0  0  0  0  0  0  0  0  0  0  0  0
   31.1115   -1.2538   -0.5508 N   0  0  0  0  0  0  0  0  0  0  0  0
   34.1406    0.1675   -0.0500 H   0  0  0  0  0  0  0  0  0  0  0  0
   34.1658    2.6684    0.7965 H   0  0  0  0  0  0  0  0  0  0  0  0
   32.2865    4.4322    1.5074 H   0  0  0  0  0  0  0  0  0  0  0  0
   30.3779    0.8677    0.2995 H   0  0  0  0  0  0  0  0  0  0  0  0
   28.5039    5.5569    0.1314 H   0  0  0  0  0  0  0  0  0  0  0  0
   28.4582    7.8524    1.0748 H   0  0  0  0  0  0  0  0  0  0  0  0
   29.9794    8.8031    4.3783 H   0  0  0  0  0  0  0  0  0  0  0  0
   30.6043    6.4774    4.5202 H   0  0  0  0  0  0  0  0  0  0  0  0
   30.6402    4.1921    3.5888 H   0  0  0  0  0  0  0  0  0  0  0  0
   26.9242    4.2475    1.7589 H   0  0  0  0  0  0  0  0  0  0  0  0
   25.0943    2.4230    1.0173 H   0  0  0  0  0  0  0  0  0  0  0  0
   25.1928   -2.3900   -1.0868 H   0  0  0  0  0  0  0  0  0  0  0  0
   27.0788   -4.1674   -1.7379 H   0  0  0  0  0  0  0  0  0  0  0  0
   28.9695   -0.6873   -0.2775 H   0  0  0  0  0  0  0  0  0  0  0  0
   28.7277   -5.3618   -0.0336 H   0  0  0  0  0  0  0  0  0  0  0  0
   28.7801   -7.6992   -0.8649 H   0  0  0  0  0  0  0  0  0  0  0  0
   30.3763   -8.7504   -4.1006 H   0  0  0  0  0  0  0  0  0  0  0  0
   30.9094   -6.4087   -4.3528 H   0  0  0  0  0  0  0  0  0  0  0  0
   30.8475   -4.0814   -3.5332 H   0  0  0  0  0  0  0  0  0  0  0  0
   32.4483   -4.1642   -1.4708 H   0  0  0  0  0  0  0  0  0  0  0  0
   34.2663   -2.2879   -0.8249 H   0  0  0  0  0  0  0  0  0  0  0  0
   22.2929    0.0158   -0.0742 C   0  0  0  0  0  0  0  0  0  0  0  0
   21.0711   -0.0075   -0.0771 C   0  0  0  0  0  0  0  0  0  0  0  0
   23.6422    0.0323   -0.0677 C   0  0  0  0  0  0  0  0  0  0  0  0
   24.8641    0.0486   -0.0576 C   0  0  0  0  0  0  0  0  0  0  0  0
  1  2  4  0  0  0  0
  2  3  4  0  0  0  0
  3  4  2  0  0  0  0
  4  5  4  0  0  0  0
  2  6  4  0  0  0  0
  5  6  4  0  0  0  0
  5  7  4  0  0  0  0
  7  8  1  0  0  0  0
  8  9  4  0  0  0  0
  9 10  4  0  0  0  0
 10 11  4  0  0  0  0
 11 12  1  0  0  0  0
 12 13  2  0  0  0  0
 11 14  4  0  0  0  0
  8 15  4  0  0  0  0
 14 15  4  0  0  0  0
  7 16  4  0  0  0  0
 16 17  1  0  0  0  0
 17 18  2  0  0  0  0
 16 19  4  0  0  0  0
 18 20  1  0  0  0  0
 19 20  4  0  0  0  0
 20 21  4  0  0  0  0
 21 22  4  0  0  0  0
 22 23  4  0  0  0  0
 23 24  2  0  0  0  0
 24 25  4  0  0  0  0
 22 26  4  0  0  0  0
 25 26  4  0  0  0  0
 25 27  4  0  0  0  0
 27 28  1  0  0  0  0
 28 29  4  0  0  0  0
 29 30  4  0  0  0  0
 30 31  4  0  0  0  0
 31 32  1  0  0  0  0
 32 33  2  0  0  0  0
 31 34  4  0  0  0  0
 28 35  4  0  0  0  0
 34 35  4  0  0  0  0
 27 36  4  0  0  0  0
 36 37  1  0  0  0  0
 37 38  2  0  0  0  0
  1 39  4  0  0  0  0
 38 39  1  0  0  0  0
 36 40  4  0  0  0  0
 39 40  4  0  0  0  0
  1 41  1  0  0  0  0
  3 42  1  0  0  0  0
  4 43  1  0  0  0  0
  6 44  1  0  0  0  0
  9 45  1  0  0  0  0
 10 46  1  0  0  0  0
 12 47  1  0  0  0  0
 14 48  1  0  0  0  0
 15 49  1  0  0  0  0
 17 50  1  0  0  0  0
 18 51  1  0  0  0  0
 23 52  1  0  0  0  0
 24 53  1  0  0  0  0
 26 54  1  0  0  0  0
 29 55  1  0  0  0  0
 30 56  1  0  0  0  0
 32 57  1  0  0  0  0
 34 58  1  0  0  0  0
 35 59  1  0  0  0  0
 37 60  1  0  0  0  0
 38 61  1  0  0  0  0
 62 63  4  0  0  0  0
 63 64  4  0  0  0  0
 64 65  2  0  0  0  0
 65 66  4  0  0  0  0
 63 67  4  0  0  0  0
 66 67  4  0  0  0  0
 66 68  4  0  0  0  0
 68 69  1  0  0  0  0
 69 70  4  0  0  0  0
 70 71  4  0  0  0  0
 71 72  4  0  0  0  0
 72 73  1  0  0  0  0
 73 74  2  0  0  0  0
 72 75  4  0  0  0  0
 69 76  4  0  0  0  0
 75 76  4  0  0  0  0
 68 77  4  0  0  0  0
 77 78  1  0  0  0  0
 78 79  2  0  0  0  0
 77 80  4  0  0  0  0
 79 81  1  0  0  0  0
 80 81  4  0  0  0  0
 81 82  4  0  0  0  0
 82 83  4  0  0  0  0
 83 84  4  0  0  0  0
 84 85  2  0  0  0  0
 85 86  4  0  0  0  0
 83 87  4  0  0  0  0
 86 87  4  0  0  0  0
 86 88  4  0  0  0  0
 88 89  1  0  0  0  0
 89 90  4  0  0  0  0
 90 91  4  0  0  0  0
 91 92  4  0  0  0  0
 92 93  1  0  0  0  0
 93 94  2  0  0  0  0
 92 95  4  0  0  0  0
 89 96  4  0  0  0  0
 95 96  4  0  0  0  0
 88 97  4  0  0  0  0
 97 98  1  0  0  0  0
 98 99  2  0  0  0  0
 62100  4  0  0  0  0
 99100  1  0  0  0  0
 97101  4  0  0  0  0
100101  4  0  0  0  0
 62102  1  0  0  0  0
 64103  1  0  0  0  0
 65104  1  0  0  0  0
 67105  1  0  0  0  0
 70106  1  0  0  0  0
 71107  1  0  0  0  0
 73108  1  0  0  0  0
 75109  1  0  0  0  0
 76110  1  0  0  0  0
 78111  1  0  0  0  0
 79112  1  0  0  0  0
 84113  1  0  0  0  0
 85114  1  0  0  0  0
 87115  1  0  0  0  0
 90116  1  0  0  0  0
 91117  1  0  0  0  0
 93118  1  0  0  0  0
 95119  1  0  0  0  0
 96120  1  0  0  0  0
 98121  1  0  0  0  0
 99122  1  0  0  0  0
 21124  4  0  0  0  0
123124  3  0  0  0  0
123125  4  0  0  0  0
 82126  4  0  0  0  0
125126  3  0  0  0  0
M  END
