211

Cu 29.400274 -0.018521 -0.020013
C 26.041585 0.184740 -0.255323
C 26.705905 1.285576 0.106152
C 26.056255 2.529065 0.503598
C 26.998970 3.404905 0.793750
C 28.304691 2.764138 0.586438
N 28.125526 1.415581 0.153366
C 29.499864 3.359645 0.772712
C 30.795180 2.668184 0.544890
C 32.091951 3.354826 0.545787
C 33.025134 2.451858 0.328720
N 30.928051 1.393935 0.332945
C 32.331508 1.176855 0.185428
C 32.923097 -0.013256 -0.013560
C 32.164528 -1.279731 -0.154669
C 32.721717 -2.484255 -0.138354
C 31.674481 -3.449839 -0.398329
C 30.540312 -2.775507 -0.553132
C 29.238359 -3.400057 -0.911765
C 29.213293 -4.841851 -1.246330
C 29.146817 -5.254902 -2.584590
C 29.142175 -6.620812 -2.904095
C 29.036393 -7.060683 -4.334421
C 29.169981 -7.572849 -1.873140
C 29.227044 -7.167758 -0.531299
C 29.293789 -8.198344 0.557232
C 29.258582 -5.799361 -0.222828
C 28.085215 -2.705657 -0.925623
C 26.764545 -3.246098 -1.244145
C 25.909291 -2.261593 -1.054708
C 26.672974 -1.093655 -0.619102
N 27.943192 -1.340646 -0.539935
N 30.760532 -1.370293 -0.406149
C 29.549396 4.769910 1.217412
C 29.233913 5.805401 0.325632
C 29.276898 7.141677 0.748919
C 28.956754 8.250692 -0.209622
C 29.677535 7.439787 2.059947
C 30.018563 6.411230 2.950993
C 30.400894 6.732001 4.365654
C 29.937447 5.076344 2.528975
H 24.958634 0.221719 -0.273602
H 24.991641 2.715618 0.562974
H 26.813037 4.417590 1.126380
H 32.271875 4.411736 0.692250
H 34.087372 2.649372 0.273978
H 33.767356 -2.715719 0.011830
H 31.810043 -4.519524 -0.484773
H 29.102732 -4.513495 -3.374396
H 29.538892 -8.040445 -4.481978
H 27.966072 -7.157137 -4.611946
H 29.520917 -6.322028 -5.008552
H 29.148845 -8.629314 -2.114635
H 29.125226 -7.743125 1.557548
H 28.515019 -8.973280 0.393755
H 30.292968 -8.682384 0.548056
H 29.315349 -5.475646 0.810593
H 26.510694 -4.249453 -1.559243
H 24.837691 -2.323106 -1.191876
H 28.949887 5.569897 -0.693402
H 28.467851 9.094546 0.322410
H 28.265562 7.898804 -1.004566
H 29.894035 8.614359 -0.679558
H 29.723351 8.472603 2.386025
H 29.491433 6.739231 5.000666
H 30.891022 7.726888 4.424203
H 31.112217 5.974795 4.760466
H 30.179510 4.275400 3.217888
Cu 59.408681 -0.005593 -0.010300
C 62.767369 0.163837 -0.271029
C 62.103050 -0.489784 -1.227734
C 62.752699 -1.217662 -2.311441
C 61.809984 -1.740148 -3.071896
C 60.504263 -1.362664 -2.514162
N 60.683429 -0.571320 -1.339457
C 59.309091 -1.707343 -3.034281
C 58.013774 -1.296048 -2.433567
C 56.717004 -1.488046 -3.092820
C 55.783820 -1.028205 -2.285965
N 57.880904 -0.737776 -1.268679
C 56.477446 -0.535662 -1.101242
C 55.885858 -0.013256 -0.013560
C 56.644426 0.474815 1.163579
C 56.087237 0.794440 2.325037
C 57.134473 1.312923 3.180089
C 58.268642 1.273899 2.489319
C 59.570595 1.792208 2.989353
C 59.595661 2.514893 4.281031
C 59.662137 3.915238 4.305235
C 59.666779 4.602333 5.528220
C 59.772561 6.098570 5.552555
C 59.638973 3.877138 6.729609
C 59.581910 2.475569 6.714047
C 59.515165 1.716939 8.006907
C 59.550372 1.798380 5.485602
C 60.723739 1.612223 2.318541
C 62.044409 2.068595 2.748957
C 62.899663 1.612595 1.856097
C 62.135981 0.869096 0.855576
N 60.865762 0.861811 1.114843
N 58.048423 0.741565 1.180559
C 59.259558 -2.527032 -4.265019
C 59.575041 -1.958742 -5.507822
C 59.532056 -2.737269 -6.673454
C 59.852200 -2.125322 -8.005460
C 59.131420 -4.079462 -6.594841
C 58.790391 -4.648978 -5.358902
C 58.408060 -6.097016 -5.273205
C 58.871507 -3.872057 -4.194250
H 63.850320 0.171099 -0.311635
H 63.817313 -1.326622 -2.474092
H 61.995917 -2.341525 -3.951964
H 56.537079 -1.922925 -4.067186
H 54.721582 -1.030607 -2.490910
H 55.041598 0.714623 2.589158
H 56.998911 1.693712 4.183434
H 59.706222 4.467447 3.373278
H 59.270062 6.513025 6.452519
H 60.842882 6.391976 5.567944
H 59.288037 6.540443 4.655441
H 59.660109 4.403169 7.677094
H 59.683728 0.629443 7.848131
H 60.293935 2.089668 8.705709
H 58.515987 1.860491 8.469262
H 59.493605 0.715693 5.462347
H 62.298260 2.650536 3.624943
H 63.971263 1.761465 1.876995
H 59.859067 -0.914429 -5.565287
H 60.341103 -2.871224 -8.667863
H 60.543392 -1.263845 -7.888763
H 58.914920 -1.775191 -8.485565
H 59.085603 -4.680150 -7.496067
H 59.317521 -6.708943 -5.103386
H 57.917932 -6.430192 -6.212472
H 57.696738 -6.265446 -4.436025
H 58.629445 -4.310788 -3.233195
C 36.698604 -0.000525 -0.011035
C 35.446334 -0.019706 -0.015384
C 38.012273 -0.001291 -0.009103
C 39.515406 -0.019706 -0.015384
C 50.631888 -0.000525 -0.011035
C 49.379618 -0.019706 -0.015384
C 51.945556 -0.001291 -0.009103
C 53.448690 -0.019706 -0.015384
Cu 44.299633 -0.064645 -0.025827
C 40.930271 0.029261 0.029362
C 41.586540 1.200182 -0.069303
C 40.946575 2.517225 -0.084204
C 41.882737 3.430812 -0.245783
C 43.179178 2.752382 -0.345856
N 43.000997 1.339137 -0.224749
C 44.363227 3.372299 -0.536242
C 45.660550 2.649678 -0.571428
C 46.929525 3.266868 -0.978623
C 47.882262 2.370374 -0.823826
N 45.828515 1.422071 -0.189638
C 47.227150 1.168930 -0.322894
C 47.842081 0.029261 0.029362
C 47.090902 -1.154692 0.497184
C 47.625401 -2.167106 1.168011
C 46.592987 -3.174873 1.317963
C 45.499358 -2.710265 0.724364
C 44.246381 -3.482860 0.547914
C 44.309716 -4.962428 0.633915
C 43.612041 -5.647073 1.641050
C 43.687720 -7.044176 1.733451
C 42.977642 -7.763578 2.841480
C 44.493102 -7.754648 0.830697
C 45.188311 -7.080645 -0.184202
C 46.072859 -7.845100 -1.124039
C 45.105438 -5.683123 -0.268738
C 43.074476 -2.870475 0.291556
C 41.799665 -3.530338 0.029273
C 40.911403 -2.567825 -0.113627
C 41.607971 -1.287390 0.050116
N 42.872262 -1.457376 0.283969
N 45.723389 -1.411071 0.180241
C 44.397625 4.843219 -0.709239
C 44.984999 5.652001 0.274418
C 45.033451 7.044219 0.112626
C 45.705210 7.899332 1.146192
C 44.514708 7.623282 -1.055549
C 43.914174 6.823659 -2.039674
C 43.392323 7.446314 -3.300042
C 43.872108 5.432185 -1.869250
H 39.892576 2.736854 0.020532
H 41.697443 4.496544 -0.284942
H 47.078836 4.275486 -1.341188
H 48.931865 2.525559 -1.035485
H 48.649291 -2.250259 1.507572
H 46.709468 -4.142843 1.787570
H 43.018149 -5.090504 2.356769
H 42.738782 -8.807639 2.544712
H 43.625648 -7.782711 3.742463
H 42.024750 -7.250893 3.091846
H 44.580475 -8.831502 0.918235
H 46.221704 -7.285519 -2.072733
H 45.615902 -8.826886 -1.372950
H 47.060880 -8.014085 -0.645810
H 45.658622 -5.154256 -1.036059
H 41.597036 -4.590384 -0.047608
H 39.861981 -2.721301 -0.325677
H 45.405823 5.195667 1.163082
H 45.271814 8.922142 1.152467
H 46.789917 7.967315 0.920493
H 45.571873 7.464707 2.159608
H 44.578099 8.695520 -1.199238
H 42.966080 8.450182 -3.089646
H 42.591142 6.819829 -3.748015
H 44.221273 7.549896 -4.031307
H 43.436424 4.805171 -2.638789
