372

C 84.541180 -0.047303 -0.179695
C 85.273495 -1.412398 -0.001866
C 84.673413 -2.650516 0.021903
C 85.696802 -3.603365 0.264350
C 86.886464 -2.912277 0.389083
N 86.623457 -1.583412 0.169879
C 88.303598 -3.523699 0.746639
C 88.336400 -4.910506 1.262475
C 88.637789 -5.974955 0.401824
C 88.662749 -7.285100 0.882661
C 88.381400 -7.524544 2.234876
N 88.405092 -8.899343 2.746252
O 88.674542 -9.812900 1.950625
O 88.152370 -9.079458 3.947805
C 88.077014 -6.468394 3.104726
C 88.055531 -5.162539 2.611951
C 89.434461 -2.777696 0.629012
C 90.733900 -3.289966 1.014074
C 91.636788 -2.337389 0.812723
N 89.634314 -1.496205 0.190036
C 90.963018 -1.171089 0.277522
C 91.631409 -0.029278 -0.035642
C 90.855779 1.213778 -0.642866
C 91.395864 2.202376 -1.441643
C 90.369927 3.142882 -1.709535
C 89.230726 2.696941 -1.074030
N 89.521729 1.494128 -0.475510
C 87.822611 3.423497 -1.053100
C 87.796884 4.886543 -1.261691
C 87.435356 5.417504 -2.507670
C 87.420110 6.798675 -2.708830
C 87.773119 7.649011 -1.651962
N 87.758906 9.101587 -1.856560
O 87.444360 9.529337 -2.978381
O 88.062971 9.829028 -0.898203
C 88.139802 7.130095 -0.402681
C 88.150678 5.746872 -0.214165
C 86.694116 2.704399 -0.822579
C 85.371732 3.303493 -0.777368
C 84.484516 2.340033 -0.547494
C 85.205871 1.097304 -0.424753
N 86.527917 1.368358 -0.589762
H 83.462502 -0.032375 -0.079014
H 83.619244 -2.844150 -0.104191
H 85.572494 -4.671025 0.362001
H 87.319472 -0.842368 0.140974
H 88.856857 -5.762823 -0.643540
H 88.902449 -8.091674 0.195491
H 87.857547 -6.635985 4.155450
H 87.824028 -4.325428 3.268811
H 90.944823 -4.267483 1.408629
H 92.687363 -2.437789 1.015914
H 92.417944 2.250720 -1.785655
H 90.455666 4.045029 -2.295838
H 88.839033 0.884738 -0.032627
H 87.162103 4.736346 -3.312228
H 87.132325 7.183932 -3.682951
H 88.416626 7.774456 0.427061
H 88.431246 5.321228 0.748067
H 85.140807 4.345303 -0.905301
H 83.420012 2.459912 -0.457618
C 145.797821 -0.087751 -0.168522
C 145.065507 1.175062 -0.716619
C 145.665588 2.249823 -1.331753
C 144.642200 3.192013 -1.612786
C 143.452538 2.662944 -1.151000
N 143.715544 1.409985 -0.657008
C 142.035404 3.371205 -1.157989
C 142.002602 4.826152 -1.427151
C 141.701213 5.297892 -2.712155
C 141.676253 6.669083 -2.972002
C 141.957602 7.568674 -1.934431
N 141.933910 9.011027 -2.201256
O 141.664460 9.386648 -3.353002
O 142.186632 9.782366 -1.262531
C 142.261988 7.108778 -0.645793
C 142.283471 5.735142 -0.398392
C 140.904541 2.670602 -0.876010
C 139.605102 3.307890 -0.808499
C 138.702214 2.387027 -0.492336
N 140.704688 1.345490 -0.594946
C 139.375984 1.111381 -0.352981
C 138.707593 -0.029278 -0.035642
C 139.483223 -1.407767 0.081302
C 138.943138 -2.666204 -0.096761
C 139.969075 -3.610862 0.156100
C 141.108275 -2.901945 0.472590
N 140.817273 -1.562461 0.368833
C 142.516391 -3.514736 0.863497
C 142.542118 -4.877402 1.435472
C 142.903646 -5.972644 0.638711
C 142.918891 -7.261229 1.175037
C 142.565883 -7.448496 2.518530
N 142.580095 -8.800127 3.088558
O 142.894642 -9.743061 2.345371
O 142.276031 -8.932492 4.284424
C 142.199200 -6.361897 3.324308
C 142.188324 -5.078041 2.776077
C 143.644886 -2.779274 0.692216
C 144.967270 -3.270213 1.038534
C 145.854486 -2.325371 0.741263
C 145.133131 -1.195850 0.208701
N 143.811085 -1.513170 0.206223
H 146.876500 -0.048883 -0.074454
H 146.719758 2.351276 -1.539360
H 144.766508 4.158410 -2.077017
H 143.019529 0.759180 -0.301433
H 141.482145 4.579248 -3.500403
H 141.436553 7.008561 -3.975754
H 142.481455 7.791949 0.169919
H 142.514974 5.353898 0.595022
H 139.394179 4.349328 -0.971653
H 137.651639 2.577491 -0.369492
H 137.921058 -2.884277 -0.367179
H 139.883336 -4.686043 0.116008
H 141.499969 -0.812144 0.436114
H 143.176899 -5.801053 -0.401407
H 143.206676 -8.091881 0.536795
H 141.922376 -6.488981 4.367151
H 141.907756 -4.218832 3.383385
H 145.198194 -4.229969 1.463507
H 146.918990 -2.382118 0.879930
C 93.480873 -0.029278 -0.035642
C 94.702790 -0.029278 -0.035642
C 104.019707 -0.029278 -0.035642
C 105.241625 -0.029278 -0.035642
C 114.558542 -0.029278 -0.035642
C 115.780460 -0.029278 -0.035642
C 125.097377 -0.029278 -0.035642
C 126.319294 -0.029278 -0.035642
C 135.636211 -0.029278 -0.035642
C 136.858129 -0.029278 -0.035642
C 95.781588 0.016103 0.019603
C 96.577291 1.251791 -0.570833
C 96.077524 2.514390 -0.816245
C 97.116493 3.271165 -1.416452
C 98.218924 2.448116 -1.513324
N 97.903597 1.248751 -0.926039
C 99.605220 2.807580 -2.185425
C 99.592685 3.796300 -3.285748
C 100.030246 5.109389 -3.062421
C 100.007908 6.046667 -4.096593
C 99.539756 5.661729 -5.360436
N 99.513261 6.642027 -6.451503
O 99.108407 6.267331 -7.563116
O 99.896260 7.796944 -6.206887
C 99.095830 4.353278 -5.595241
C 99.123639 3.425070 -4.552751
C 100.742050 2.180967 -1.785199
C 102.027348 2.432176 -2.404421
C 102.936721 1.671363 -1.804774
N 100.952259 1.241436 -0.815337
C 102.276478 0.896282 -0.774091
C 102.940895 0.016103 0.019603
C 102.145140 -0.801559 1.118152
C 102.644642 -1.285250 2.310084
C 101.605692 -2.020302 2.936762
C 100.503535 -1.957268 2.110062
N 100.819005 -1.150026 1.046285
C 99.117324 -2.686219 2.332952
C 99.129905 -3.956697 3.090641
C 99.597896 -5.128424 2.481429
C 99.625693 -6.330502 3.190902
C 99.182861 -6.352476 4.520440
N 99.209394 -7.612258 5.271670
O 98.828033 -7.594867 6.452611
O 99.612646 -8.630955 4.688905
C 98.715768 -5.186492 5.142485
C 98.693365 -3.990840 4.422478
C 97.980483 -2.172591 1.795388
C 96.695182 -2.828615 1.922470
C 95.785792 -2.093410 1.291708
C 96.446033 -0.932547 0.730032
N 97.770264 -1.039663 1.060667
H 95.072663 2.849136 -0.607377
H 97.059274 4.293929 -1.756794
H 98.560267 0.495975 -0.741286
H 100.391948 5.384253 -2.072702
H 100.356425 7.056208 -3.897588
H 98.728867 4.038200 -6.568095
H 98.783117 2.403167 -4.712725
H 102.223662 3.108605 -3.216547
H 103.980951 1.645862 -2.058119
H 103.649307 -1.144312 2.679160
H 101.662737 -2.551097 3.874930
H 100.162445 -0.823955 0.342993
H 99.937575 -5.088285 1.447582
H 99.991816 -7.224413 2.693651
H 98.368124 -5.185954 6.171745
H 98.332434 -3.072632 4.883515
H 96.498869 -3.755955 2.429552
H 94.741547 -2.337033 1.217892
C 106.320423 0.016103 0.019603
C 107.116126 1.251791 -0.570833
C 106.616358 2.514390 -0.816245
C 107.655328 3.271165 -1.416452
C 108.757759 2.448116 -1.513324
N 108.442432 1.248751 -0.926039
C 110.144055 2.807580 -2.185425
C 110.131520 3.796300 -3.285748
C 110.569081 5.109389 -3.062421
C 110.546743 6.046667 -4.096593
C 110.078590 5.661729 -5.360436
N 110.052096 6.642027 -6.451503
O 109.647242 6.267331 -7.563116
O 110.435095 7.796944 -6.206887
C 109.634665 4.353278 -5.595241
C 109.662474 3.425070 -4.552751
C 111.280885 2.180967 -1.785199
C 112.566183 2.432176 -2.404421
C 113.475555 1.671363 -1.804774
N 111.491094 1.241436 -0.815337
C 112.815312 0.896282 -0.774091
C 113.479730 0.016103 0.019603
C 112.683975 -0.801559 1.118152
C 113.183476 -1.285250 2.310084
C 112.144527 -2.020302 2.936762
C 111.042370 -1.957268 2.110062
N 111.357840 -1.150026 1.046285
C 109.656159 -2.686219 2.332952
C 109.668740 -3.956697 3.090641
C 110.136731 -5.128424 2.481429
C 110.164527 -6.330502 3.190902
C 109.721695 -6.352476 4.520440
N 109.748228 -7.612258 5.271670
O 109.366867 -7.594867 6.452611
O 110.151481 -8.630955 4.688905
C 109.254603 -5.186492 5.142485
C 109.232200 -3.990840 4.422478
C 108.519317 -2.172591 1.795388
C 107.234017 -2.828615 1.922470
C 106.324627 -2.093410 1.291708
C 106.984868 -0.932547 0.730032
N 108.309099 -1.039663 1.060667
H 105.611497 2.849136 -0.607377
H 107.598109 4.293929 -1.756794
H 109.099101 0.495975 -0.741286
H 110.930782 5.384253 -2.072702
H 110.895260 7.056208 -3.897588
H 109.267701 4.038200 -6.568095
H 109.321952 2.403167 -4.712725
H 112.762497 3.108605 -3.216547
H 114.519786 1.645862 -2.058119
H 114.188142 -1.144312 2.679160
H 112.201572 -2.551097 3.874930
H 110.701280 -0.823955 0.342993
H 110.476410 -5.088285 1.447582
H 110.530651 -7.224413 2.693651
H 108.906958 -5.185954 6.171745
H 108.871269 -3.072632 4.883515
H 107.037703 -3.755955 2.429552
H 105.280381 -2.337033 1.217892
C 116.859258 0.016103 0.019603
C 117.654961 1.251791 -0.570833
C 117.155193 2.514390 -0.816245
C 118.194162 3.271165 -1.416452
C 119.296594 2.448116 -1.513324
N 118.981266 1.248751 -0.926039
C 120.682890 2.807580 -2.185425
C 120.670354 3.796300 -3.285748
C 121.107916 5.109389 -3.062421
C 121.085577 6.046667 -4.096593
C 120.617425 5.661729 -5.360436
N 120.590930 6.642027 -6.451503
O 120.186076 6.267331 -7.563116
O 120.973930 7.796944 -6.206887
C 120.173500 4.353278 -5.595241
C 120.201309 3.425070 -4.552751
C 121.819720 2.180967 -1.785199
C 123.105018 2.432176 -2.404421
C 124.014390 1.671363 -1.804774
N 122.029929 1.241436 -0.815337
C 123.354147 0.896282 -0.774091
C 124.018564 0.016103 0.019603
C 123.222809 -0.801559 1.118152
C 123.722311 -1.285250 2.310084
C 122.683362 -2.020302 2.936762
C 121.581205 -1.957268 2.110062
N 121.896675 -1.150026 1.046285
C 120.194994 -2.686219 2.332952
C 120.207574 -3.956697 3.090641
C 120.675566 -5.128424 2.481429
C 120.703362 -6.330502 3.190902
C 120.260530 -6.352476 4.520440
N 120.287063 -7.612258 5.271670
O 119.905702 -7.594867 6.452611
O 120.690315 -8.630955 4.688905
C 119.793437 -5.186492 5.142485
C 119.771035 -3.990840 4.422478
C 119.058152 -2.172591 1.795388
C 117.772852 -2.828615 1.922470
C 116.863462 -2.093410 1.291708
C 117.523702 -0.932547 0.730032
N 118.847933 -1.039663 1.060667
H 116.150332 2.849136 -0.607377
H 118.136943 4.293929 -1.756794
H 119.637936 0.495975 -0.741286
H 121.469617 5.384253 -2.072702
H 121.434094 7.056208 -3.897588
H 119.806536 4.038200 -6.568095
H 119.860786 2.403167 -4.712725
H 123.301331 3.108605 -3.216547
H 125.058621 1.645862 -2.058119
H 124.726976 -1.144312 2.679160
H 122.740406 -2.551097 3.874930
H 121.240114 -0.823955 0.342993
H 121.015244 -5.088285 1.447582
H 121.069485 -7.224413 2.693651
H 119.445793 -5.185954 6.171745
H 119.410104 -3.072632 4.883515
H 117.576538 -3.755955 2.429552
H 115.819216 -2.337033 1.217892
C 127.398092 0.016103 0.019603
C 128.193795 1.251791 -0.570833
C 127.694028 2.514390 -0.816245
C 128.732997 3.271165 -1.416452
C 129.835428 2.448116 -1.513324
N 129.520101 1.248751 -0.926039
C 131.221724 2.807580 -2.185425
C 131.209189 3.796300 -3.285748
C 131.646750 5.109389 -3.062421
C 131.624412 6.046667 -4.096593
C 131.156259 5.661729 -5.360436
N 131.129765 6.642027 -6.451503
O 130.724911 6.267331 -7.563116
O 131.512764 7.796944 -6.206887
C 130.712334 4.353278 -5.595241
C 130.740143 3.425070 -4.552751
C 132.358554 2.180967 -1.785199
C 133.643852 2.432176 -2.404421
C 134.553225 1.671363 -1.804774
N 132.568763 1.241436 -0.815337
C 133.892982 0.896282 -0.774091
C 134.557399 0.016103 0.019603
C 133.761644 -0.801559 1.118152
C 134.261146 -1.285250 2.310084
C 133.222196 -2.020302 2.936762
C 132.120039 -1.957268 2.110062
N 132.435509 -1.150026 1.046285
C 130.733828 -2.686219 2.332952
C 130.746409 -3.956697 3.090641
C 131.214400 -5.128424 2.481429
C 131.242197 -6.330502 3.190902
C 130.799364 -6.352476 4.520440
N 130.825898 -7.612258 5.271670
O 130.444537 -7.594867 6.452611
O 131.229150 -8.630955 4.688905
C 130.332272 -5.186492 5.142485
C 130.309869 -3.990840 4.422478
C 129.596987 -2.172591 1.795388
C 128.311686 -2.828615 1.922470
C 127.402296 -2.093410 1.291708
C 128.062537 -0.932547 0.730032
N 129.386768 -1.039663 1.060667
H 126.689167 2.849136 -0.607377
H 128.675778 4.293929 -1.756794
H 130.176771 0.495975 -0.741286
H 132.008452 5.384253 -2.072702
H 131.972929 7.056208 -3.897588
H 130.345371 4.038200 -6.568095
H 130.399621 2.403167 -4.712725
H 133.840166 3.108605 -3.216547
H 135.597455 1.645862 -2.058119
H 135.265811 -1.144312 2.679160
H 133.279241 -2.551097 3.874930
H 131.778949 -0.823955 0.342993
H 131.554079 -5.088285 1.447582
H 131.608320 -7.224413 2.693651
H 129.984628 -5.185954 6.171745
H 129.948938 -3.072632 4.883515
H 128.115373 -3.755955 2.429552
H 126.358051 -2.337033 1.217892
