522

C 93.378573 -0.033528 0.088495
C 94.106792 1.342436 0.167247
C 93.499484 2.564096 0.345615
C 94.522104 3.546930 0.298544
C 95.719574 2.891174 0.083467
N 95.458829 1.543907 0.052102
C 97.142415 3.559976 -0.119483
C 97.181812 5.025951 -0.323212
C 97.486162 5.877260 0.746049
C 97.515094 7.260964 0.559023
C 97.238594 7.800789 -0.701632
C 97.269388 9.220544 -0.897521
N 97.293113 10.370028 -1.061808
C 96.931898 6.953381 -1.772105
C 96.903674 5.569409 -1.581418
C 98.272688 2.803491 -0.142966
C 99.575781 3.384386 -0.395053
C 100.479208 2.411767 -0.378893
N 98.470806 1.457995 0.024814
C 99.802767 1.159045 -0.104401
C 100.474133 -0.020607 -0.019080
C 99.700987 -1.368604 0.307844
C 100.254687 -2.520030 0.835048
C 99.227373 -3.493186 0.907659
C 98.073679 -2.907096 0.432097
N 98.359122 -1.598512 0.125624
C 96.660599 -3.609944 0.277579
C 96.628219 -5.085721 0.190837
C 96.285859 -5.856332 1.309121
C 96.264459 -7.249508 1.223766
C 96.589734 -7.880876 0.018123
C 96.566070 -9.311177 -0.072094
N 96.547876 -10.470167 -0.145814
C 96.936388 -7.114295 -1.100509
C 96.954736 -5.721259 -1.012318
C 95.533253 -2.857443 0.193222
C 94.209856 -3.436079 0.037733
C 93.322528 -2.445898 0.000321
C 94.044827 -1.203140 0.113528
N 95.367224 -1.500858 0.222995
H 92.299727 -0.032083 -0.012524
H 92.441524 2.730024 0.478666
H 94.393829 4.615048 0.387398
H 96.158229 0.811296 -0.038320
H 97.704679 5.443432 1.720625
H 97.754912 7.902981 1.402145
H 96.716168 7.353514 -2.758444
H 96.668283 4.900243 -2.405843
H 99.788712 4.421953 -0.580744
H 101.531733 2.554343 -0.542753
H 101.287798 -2.654110 1.117848
H 99.325638 -4.510738 1.249881
H 97.671218 -0.902909 -0.153926
H 96.031387 -5.352596 2.239433
H 95.993074 -7.828371 2.102297
H 97.194601 -7.585513 -2.045311
H 97.218354 -5.112887 -1.876657
H 93.978321 -4.482935 -0.035141
H 92.257240 -2.545795 -0.106900
C 227.350592 0.021678 0.080676
C 226.622373 -1.278302 0.538422
C 227.229681 -2.402384 1.049018
C 226.207061 -3.359635 1.276721
C 225.009591 -2.789394 0.888006
N 225.270336 -1.503824 0.483753
C 223.586750 -3.488250 0.878757
C 223.547352 -4.953143 1.090127
C 223.243003 -5.474048 2.353735
C 223.214071 -6.855267 2.558305
C 223.490571 -7.723932 1.497135
C 223.459777 -9.142245 1.703202
N 223.436052 -10.292142 1.864575
C 223.797267 -7.207111 0.233446
C 223.825491 -5.824618 0.032318
C 222.456477 -2.768038 0.646130
C 221.153384 -3.396088 0.565266
C 220.249957 -2.457235 0.310704
N 222.258359 -1.428869 0.433681
C 220.926397 -1.177558 0.226532
C 220.255032 -0.020607 -0.019080
C 221.028178 1.365157 -0.079339
C 220.474478 2.617697 0.107391
C 221.501792 3.572743 -0.093089
C 222.655486 2.877645 -0.387196
N 222.370043 1.535422 -0.318235
C 224.068566 3.509943 -0.730811
C 224.100946 4.903592 -1.223949
C 224.443306 5.954431 -0.363638
C 224.464706 7.269111 -0.832507
C 224.139431 7.540854 -2.166057
C 224.163095 8.889850 -2.649906
N 224.181289 9.982786 -3.042567
C 223.792777 6.493790 -3.027823
C 223.774429 5.180030 -2.556268
C 225.195911 2.763612 -0.602888
C 226.519309 3.276313 -0.912943
C 227.406637 2.314686 -0.673921
C 226.684338 1.152241 -0.220065
N 225.361941 1.468648 -0.197576
H 228.429438 -0.007762 -0.015969
H 228.287641 -2.524840 1.222913
H 226.335336 -4.361071 1.658686
H 224.570936 -0.825135 0.193448
H 223.024486 -4.786652 3.169513
H 222.974253 -7.237908 3.546549
H 224.012997 -7.865404 -0.602989
H 224.060882 -5.410704 -0.945503
H 220.940453 -4.444414 0.675000
H 219.197432 -2.639705 0.192880
H 219.441366 2.825035 0.341836
H 221.403527 4.645308 -0.046890
H 223.057947 0.789549 -0.393629
H 224.697778 5.728845 0.669968
H 224.736091 8.069168 -0.149273
H 223.534564 6.684113 -4.066319
H 223.510811 4.355566 -3.217674
H 226.750844 4.261761 -1.273652
H 228.471925 2.380880 -0.804666
C 102.617345 -0.005917 -0.008804
C 104.075571 -0.027754 -0.026678
C 105.209499 -0.048507 -0.028168
C 106.570881 -0.061097 -0.030360
C 107.845100 -0.050791 -0.035125
C 109.033562 -0.031993 -0.041281
C 110.385923 -0.007208 -0.025413
C 111.486190 -0.005917 -0.008804
C 120.367610 -0.005917 -0.008804
C 121.825837 -0.027754 -0.026678
C 122.959765 -0.048507 -0.028168
C 124.321147 -0.061097 -0.030360
C 125.595365 -0.050791 -0.035125
C 126.783828 -0.031993 -0.041281
C 128.136189 -0.007208 -0.025413
C 129.236456 -0.005917 -0.008804
C 138.117876 -0.005917 -0.008804
C 139.576102 -0.027754 -0.026678
C 140.710030 -0.048507 -0.028168
C 142.071412 -0.061097 -0.030360
C 143.345631 -0.050791 -0.035125
C 144.534093 -0.031993 -0.041281
C 145.886454 -0.007208 -0.025413
C 146.986721 -0.005917 -0.008804
C 155.868141 -0.005917 -0.008804
C 157.326368 -0.027754 -0.026678
C 158.460296 -0.048507 -0.028168
C 159.821677 -0.061097 -0.030360
C 161.095896 -0.050791 -0.035125
C 162.284359 -0.031993 -0.041281
C 163.636719 -0.007208 -0.025413
C 164.736987 -0.005917 -0.008804
C 173.618407 -0.005917 -0.008804
C 175.076633 -0.027754 -0.026678
C 176.210561 -0.048507 -0.028168
C 177.571943 -0.061097 -0.030360
C 178.846162 -0.050791 -0.035125
C 180.034624 -0.031993 -0.041281
C 181.386985 -0.007208 -0.025413
C 182.487252 -0.005917 -0.008804
C 191.368672 -0.005917 -0.008804
C 192.826899 -0.027754 -0.026678
C 193.960827 -0.048507 -0.028168
C 195.322208 -0.061097 -0.030360
C 196.596427 -0.050791 -0.035125
C 197.784890 -0.031993 -0.041281
C 199.137250 -0.007208 -0.025413
C 200.237518 -0.005917 -0.008804
C 209.118938 -0.005917 -0.008804
C 210.577164 -0.027754 -0.026678
C 211.711092 -0.048507 -0.028168
C 213.072474 -0.061097 -0.030360
C 214.346693 -0.050791 -0.035125
C 215.535155 -0.031993 -0.041281
C 216.887516 -0.007208 -0.025413
C 217.987783 -0.005917 -0.008804
C 112.409871 0.007940 0.007886
C 113.205105 1.159671 -0.733850
C 112.703939 2.380038 -1.138611
C 113.742501 3.055764 -1.829329
C 114.846280 2.228908 -1.819304
N 114.531876 1.113477 -1.084547
C 116.233109 2.502638 -2.530551
C 116.220976 3.348022 -3.744915
C 115.744315 2.829187 -4.954351
C 115.717694 3.625871 -6.101191
C 116.166918 4.950026 -6.042711
C 116.140841 5.769112 -7.218684
N 116.119552 6.435093 -8.170715
C 116.641024 5.474536 -4.834871
C 116.665389 4.675143 -3.690130
C 117.369486 1.930379 -2.054211
C 118.654906 2.101558 -2.699834
C 119.563987 1.421498 -2.009581
N 117.579324 1.119357 -0.974254
C 118.903500 0.781801 -0.889882
C 119.567825 0.007940 0.007886
C 118.772609 -0.665492 1.200854
C 119.273860 -0.998715 2.442623
C 118.235305 -1.648919 3.157421
C 117.131424 -1.686747 2.331511
N 117.445775 -1.018049 1.175254
C 115.744599 -2.380874 2.646202
C 115.756918 -3.544319 3.560412
C 116.235221 -4.781231 3.112736
C 116.262051 -5.880152 3.974292
C 115.811415 -5.745788 5.292424
C 115.837655 -6.872555 6.177973
N 115.859019 -7.784677 6.897622
C 115.335720 -4.510128 5.745894
C 115.311177 -3.413437 4.881745
C 114.608192 -1.938592 2.047277
C 113.322822 -2.573331 2.255534
C 112.413732 -1.923848 1.536452
C 113.074168 -0.843148 0.832829
N 114.398301 -0.907544 1.174932
H 111.698346 2.737151 -0.975435
H 113.684604 4.026447 -2.298029
H 115.189412 0.391036 -0.805696
H 115.396885 1.798055 -4.988416
H 115.345009 3.201379 -7.029688
H 116.994485 6.500180 -4.770417
H 117.033740 5.070508 -2.745029
H 118.850672 2.670669 -3.590675
H 120.608084 1.364022 -2.258016
H 120.279503 -0.815229 2.789545
H 118.293246 -2.060518 4.153672
H 116.788162 -0.781408 0.438007
H 116.583781 -4.874423 2.085642
H 116.636007 -6.831242 3.604450
H 114.981147 -4.386936 6.765767
H 114.941630 -2.447429 5.221565
H 113.127104 -3.429679 2.875346
H 111.369680 -2.175371 1.493348
C 130.160136 0.007940 0.007886
C 130.955370 1.159671 -0.733850
C 130.454205 2.380038 -1.138611
C 131.492767 3.055764 -1.829329
C 132.596545 2.228908 -1.819304
N 132.282141 1.113477 -1.084547
C 133.983374 2.502638 -2.530551
C 133.971242 3.348022 -3.744915
C 133.494580 2.829187 -4.954351
C 133.467960 3.625871 -6.101191
C 133.917184 4.950026 -6.042711
C 133.891107 5.769112 -7.218684
N 133.869818 6.435093 -8.170715
C 134.391290 5.474536 -4.834871
C 134.415655 4.675143 -3.690130
C 135.119751 1.930379 -2.054211
C 136.405171 2.101558 -2.699834
C 137.314253 1.421498 -2.009581
N 135.329590 1.119357 -0.974254
C 136.653766 0.781801 -0.889882
C 137.318091 0.007940 0.007886
C 136.522874 -0.665492 1.200854
C 137.024126 -0.998715 2.442623
C 135.985571 -1.648919 3.157421
C 134.881690 -1.686747 2.331511
N 135.196040 -1.018049 1.175254
C 133.494865 -2.380874 2.646202
C 133.507184 -3.544319 3.560412
C 133.985487 -4.781231 3.112736
C 134.012316 -5.880152 3.974292
C 133.561681 -5.745788 5.292424
C 133.587920 -6.872555 6.177973
N 133.609284 -7.784677 6.897622
C 133.085985 -4.510128 5.745894
C 133.061442 -3.413437 4.881745
C 132.358458 -1.938592 2.047277
C 131.073088 -2.573331 2.255534
C 130.163997 -1.923848 1.536452
C 130.824433 -0.843148 0.832829
N 132.148566 -0.907544 1.174932
H 129.448612 2.737151 -0.975435
H 131.434869 4.026447 -2.298029
H 132.939678 0.391036 -0.805696
H 133.147151 1.798055 -4.988416
H 133.095275 3.201379 -7.029688
H 134.744751 6.500180 -4.770417
H 134.784005 5.070508 -2.745029
H 136.600938 2.670669 -3.590675
H 138.358349 1.364022 -2.258016
H 138.029768 -0.815229 2.789545
H 136.043512 -2.060518 4.153672
H 134.538427 -0.781408 0.438007
H 134.334047 -4.874423 2.085642
H 134.386272 -6.831242 3.604450
H 132.731412 -4.386936 6.765767
H 132.691896 -2.447429 5.221565
H 130.877369 -3.429679 2.875346
H 129.119945 -2.175371 1.493348
C 147.910402 0.007940 0.007886
C 148.705636 1.159671 -0.733850
C 148.204470 2.380038 -1.138611
C 149.243032 3.055764 -1.829329
C 150.346810 2.228908 -1.819304
N 150.032406 1.113477 -1.084547
C 151.733640 2.502638 -2.530551
C 151.721507 3.348022 -3.744915
C 151.244846 2.829187 -4.954351
C 151.218225 3.625871 -6.101191
C 151.667449 4.950026 -6.042711
C 151.641372 5.769112 -7.218684
N 151.620083 6.435093 -8.170715
C 152.141555 5.474536 -4.834871
C 152.165920 4.675143 -3.690130
C 152.870017 1.930379 -2.054211
C 154.155437 2.101558 -2.699834
C 155.064518 1.421498 -2.009581
N 153.079855 1.119357 -0.974254
C 154.404031 0.781801 -0.889882
C 155.068356 0.007940 0.007886
C 154.273140 -0.665492 1.200854
C 154.774391 -0.998715 2.442623
C 153.735836 -1.648919 3.157421
C 152.631955 -1.686747 2.331511
N 152.946306 -1.018049 1.175254
C 151.245130 -2.380874 2.646202
C 151.257449 -3.544319 3.560412
C 151.735752 -4.781231 3.112736
C 151.762582 -5.880152 3.974292
C 151.311946 -5.745788 5.292424
C 151.338186 -6.872555 6.177973
N 151.359550 -7.784677 6.897622
C 150.836250 -4.510128 5.745894
C 150.811708 -3.413437 4.881745
C 150.108723 -1.938592 2.047277
C 148.823353 -2.573331 2.255534
C 147.914263 -1.923848 1.536452
C 148.574699 -0.843148 0.832829
N 149.898832 -0.907544 1.174932
H 147.198877 2.737151 -0.975435
H 149.185134 4.026447 -2.298029
H 150.689943 0.391036 -0.805696
H 150.897416 1.798055 -4.988416
H 150.845540 3.201379 -7.029688
H 152.495016 6.500180 -4.770417
H 152.534271 5.070508 -2.745029
H 154.351203 2.670669 -3.590675
H 156.108615 1.364022 -2.258016
H 155.780034 -0.815229 2.789545
H 153.793777 -2.060518 4.153672
H 152.288693 -0.781408 0.438007
H 152.084312 -4.874423 2.085642
H 152.136538 -6.831242 3.604450
H 150.481678 -4.386936 6.765767
H 150.442161 -2.447429 5.221565
H 148.627635 -3.429679 2.875346
H 146.870211 -2.175371 1.493348
C 165.660667 0.007940 0.007886
C 166.455901 1.159671 -0.733850
C 165.954736 2.380038 -1.138611
C 166.993297 3.055764 -1.829329
C 168.097076 2.228908 -1.819304
N 167.782672 1.113477 -1.084547
C 169.483905 2.502638 -2.530551
C 169.471773 3.348022 -3.744915
C 168.995111 2.829187 -4.954351
C 168.968491 3.625871 -6.101191
C 169.417715 4.950026 -6.042711
C 169.391637 5.769112 -7.218684
N 169.370349 6.435093 -8.170715
C 169.891821 5.474536 -4.834871
C 169.916186 4.675143 -3.690130
C 170.620282 1.930379 -2.054211
C 171.905702 2.101558 -2.699834
C 172.814784 1.421498 -2.009581
N 170.830121 1.119357 -0.974254
C 172.154297 0.781801 -0.889882
C 172.818622 0.007940 0.007886
C 172.023405 -0.665492 1.200854
C 172.524657 -0.998715 2.442623
C 171.486102 -1.648919 3.157421
C 170.382221 -1.686747 2.331511
N 170.696571 -1.018049 1.175254
C 168.995396 -2.380874 2.646202
C 169.007714 -3.544319 3.560412
C 169.486018 -4.781231 3.112736
C 169.512847 -5.880152 3.974292
C 169.062212 -5.745788 5.292424
C 169.088451 -6.872555 6.177973
N 169.109815 -7.784677 6.897622
C 168.586516 -4.510128 5.745894
C 168.561973 -3.413437 4.881745
C 167.858989 -1.938592 2.047277
C 166.573618 -2.573331 2.255534
C 165.664528 -1.923848 1.536452
C 166.324964 -0.843148 0.832829
N 167.649097 -0.907544 1.174932
H 164.949142 2.737151 -0.975435
H 166.935400 4.026447 -2.298029
H 168.440209 0.391036 -0.805696
H 168.647681 1.798055 -4.988416
H 168.595806 3.201379 -7.029688
H 170.245282 6.500180 -4.770417
H 170.284536 5.070508 -2.745029
H 172.101469 2.670669 -3.590675
H 173.858880 1.364022 -2.258016
H 173.530299 -0.815229 2.789545
H 171.544043 -2.060518 4.153672
H 170.038958 -0.781408 0.438007
H 169.834578 -4.874423 2.085642
H 169.886803 -6.831242 3.604450
H 168.231943 -4.386936 6.765767
H 168.192427 -2.447429 5.221565
H 166.377900 -3.429679 2.875346
H 164.620476 -2.175371 1.493348
C 183.410933 0.007940 0.007886
C 184.206167 1.159671 -0.733850
C 183.705001 2.380038 -1.138611
C 184.743563 3.055764 -1.829329
C 185.847341 2.228908 -1.819304
N 185.532937 1.113477 -1.084547
C 187.234171 2.502638 -2.530551
C 187.222038 3.348022 -3.744915
C 186.745377 2.829187 -4.954351
C 186.718756 3.625871 -6.101191
C 187.167980 4.950026 -6.042711
C 187.141903 5.769112 -7.218684
N 187.120614 6.435093 -8.170715
C 187.642086 5.474536 -4.834871
C 187.666451 4.675143 -3.690130
C 188.370548 1.930379 -2.054211
C 189.655968 2.101558 -2.699834
C 190.565049 1.421498 -2.009581
N 188.580386 1.119357 -0.974254
C 189.904562 0.781801 -0.889882
C 190.568887 0.007940 0.007886
C 189.773670 -0.665492 1.200854
C 190.274922 -0.998715 2.442623
C 189.236367 -1.648919 3.157421
C 188.132486 -1.686747 2.331511
N 188.446837 -1.018049 1.175254
C 186.745661 -2.380874 2.646202
C 186.757980 -3.544319 3.560412
C 187.236283 -4.781231 3.112736
C 187.263112 -5.880152 3.974292
C 186.812477 -5.745788 5.292424
C 186.838717 -6.872555 6.177973
N 186.860081 -7.784677 6.897622
C 186.336781 -4.510128 5.745894
C 186.312239 -3.413437 4.881745
C 185.609254 -1.938592 2.047277
C 184.323884 -2.573331 2.255534
C 183.414793 -1.923848 1.536452
C 184.075230 -0.843148 0.832829
N 185.399363 -0.907544 1.174932
H 182.699408 2.737151 -0.975435
H 184.685665 4.026447 -2.298029
H 186.190474 0.391036 -0.805696
H 186.397947 1.798055 -4.988416
H 186.346071 3.201379 -7.029688
H 187.995547 6.500180 -4.770417
H 188.034802 5.070508 -2.745029
H 189.851734 2.670669 -3.590675
H 191.609145 1.364022 -2.258016
H 191.280565 -0.815229 2.789545
H 189.294308 -2.060518 4.153672
H 187.789224 -0.781408 0.438007
H 187.584843 -4.874423 2.085642
H 187.637069 -6.831242 3.604450
H 185.982209 -4.386936 6.765767
H 185.942692 -2.447429 5.221565
H 184.128166 -3.429679 2.875346
H 182.370742 -2.175371 1.493348
C 201.161198 0.007940 0.007886
C 201.956432 1.159671 -0.733850
C 201.455267 2.380038 -1.138611
C 202.493828 3.055764 -1.829329
C 203.597607 2.228908 -1.819304
N 203.283203 1.113477 -1.084547
C 204.984436 2.502638 -2.530551
C 204.972304 3.348022 -3.744915
C 204.495642 2.829187 -4.954351
C 204.469022 3.625871 -6.101191
C 204.918246 4.950026 -6.042711
C 204.892168 5.769112 -7.218684
N 204.870880 6.435093 -8.170715
C 205.392352 5.474536 -4.834871
C 205.416717 4.675143 -3.690130
C 206.120813 1.930379 -2.054211
C 207.406233 2.101558 -2.699834
C 208.315315 1.421498 -2.009581
N 206.330652 1.119357 -0.974254
C 207.654828 0.781801 -0.889882
C 208.319153 0.007940 0.007886
C 207.523936 -0.665492 1.200854
C 208.025188 -0.998715 2.442623
C 206.986632 -1.648919 3.157421
C 205.882751 -1.686747 2.331511
N 206.197102 -1.018049 1.175254
C 204.495927 -2.380874 2.646202
C 204.508245 -3.544319 3.560412
C 204.986549 -4.781231 3.112736
C 205.013378 -5.880152 3.974292
C 204.562742 -5.745788 5.292424
C 204.588982 -6.872555 6.177973
N 204.610346 -7.784677 6.897622
C 204.087047 -4.510128 5.745894
C 204.062504 -3.413437 4.881745
C 203.359520 -1.938592 2.047277
C 202.074149 -2.573331 2.255534
C 201.165059 -1.923848 1.536452
C 201.825495 -0.843148 0.832829
N 203.149628 -0.907544 1.174932
H 200.449673 2.737151 -0.975435
H 202.435931 4.026447 -2.298029
H 203.940739 0.391036 -0.805696
H 204.148212 1.798055 -4.988416
H 204.096336 3.201379 -7.029688
H 205.745813 6.500180 -4.770417
H 205.785067 5.070508 -2.745029
H 207.602000 2.670669 -3.590675
H 209.359411 1.364022 -2.258016
H 209.030830 -0.815229 2.789545
H 207.044574 -2.060518 4.153672
H 205.539489 -0.781408 0.438007
H 205.335108 -4.874423 2.085642
H 205.387334 -6.831242 3.604450
H 203.732474 -4.386936 6.765767
H 203.692958 -2.447429 5.221565
H 201.878431 -3.429679 2.875346
H 200.121007 -2.175371 1.493348
