244

Zn 51.841331 -0.029628 0.004600
C 48.479579 0.105479 -0.114423
C 49.145638 1.259172 -0.013991
C 48.495812 2.560770 0.079940
C 49.435917 3.474989 0.225164
C 50.741252 2.799923 0.226124
N 50.563881 1.391356 0.071291
C 51.930666 3.412260 0.399177
C 51.966998 4.879202 0.591716
C 52.221860 5.416917 1.861364
C 52.260603 6.802110 2.044510
C 52.040259 7.667598 0.958866
C 52.073584 9.131123 1.132728
O 52.307933 9.647425 2.257979
C 51.784172 7.125693 -0.310334
C 51.750157 5.740453 -0.493866
C 53.226409 2.681343 0.415864
C 54.521191 3.323182 0.674566
C 55.455346 2.399881 0.581730
N 53.365105 1.414934 0.164715
C 54.767042 1.157824 0.253006
C 55.363154 -0.020871 0.005683
C 54.608267 -1.244325 -0.352762
C 55.161888 -2.332768 -0.872758
C 54.117922 -3.327717 -1.006479
C 52.993217 -2.784047 -0.557501
N 53.211737 -1.439595 -0.123337
C 51.696516 -3.504232 -0.471227
C 51.706005 -4.984259 -0.546727
C 51.143673 -5.643459 -1.651193
C 51.173171 -7.038723 -1.728289
C 51.770038 -7.793322 -0.705981
C 51.797763 -9.263904 -0.807342
O 52.373807 -9.965267 0.065196
C 52.337738 -7.130801 0.396987
C 52.308355 -5.735430 0.473038
C 50.528274 -2.850880 -0.327549
C 49.206572 -3.464537 -0.210381
C 48.346126 -2.468943 -0.124922
C 49.109042 -1.222941 -0.174872
N 50.382504 -1.432710 -0.293027
H 47.396308 0.138294 -0.131262
H 47.431974 2.758537 0.052667
H 49.247401 4.534932 0.335444
H 52.391298 4.762244 2.707603
H 52.461220 7.194700 3.033487
H 51.896094 9.781016 0.285476
H 51.611250 7.775030 -1.159974
H 51.553133 5.337618 -1.480074
H 54.703743 4.366547 0.893584
H 56.516308 2.567276 0.711718
H 56.202002 -2.469669 -1.135945
H 54.241882 -4.332813 -1.387700
H 50.687300 -5.075564 -2.453536
H 50.735302 -7.529314 -2.589871
H 51.326222 -9.756772 -1.647558
H 52.803984 -7.689877 1.199329
H 52.751503 -5.239663 1.328454
H 48.955462 -4.517065 -0.191376
H 47.273118 -2.571015 -0.026786
Zn 84.599545 -0.012050 0.005858
C 87.961298 -0.128830 -0.131192
C 87.295238 -1.285067 -0.196077
C 87.945064 -2.586776 -0.288460
C 87.004960 -3.512359 -0.274908
C 85.699624 -2.844309 -0.177823
N 85.876996 -1.428049 -0.130489
C 84.510210 -3.475049 -0.093735
C 84.473879 -4.954459 -0.112062
C 84.219016 -5.667501 1.068072
C 84.180273 -7.064657 1.052090
C 84.400617 -7.766722 -0.145740
C 84.367292 -9.240090 -0.182067
O 84.132944 -9.911373 0.858190
C 84.656704 -7.049596 -1.324834
C 84.690720 -5.652338 -1.309228
C 83.214468 -2.753958 0.026869
C 81.919685 -3.426097 0.191532
C 80.985530 -2.498985 0.231127
N 83.075772 -1.464691 -0.041375
C 81.673834 -1.222774 0.082631
C 81.077722 -0.020871 0.005683
C 81.832609 1.241158 -0.174880
C 81.278988 2.392559 -0.534575
C 82.322954 3.396410 -0.525245
C 83.447659 2.794344 -0.158266
N 83.229139 1.401766 0.080014
C 84.744360 3.494903 0.029688
C 84.734872 4.970598 0.165724
C 85.297203 5.780363 -0.833610
C 85.267705 7.172386 -0.711225
C 84.670838 7.773710 0.408124
C 84.643113 9.243738 0.517217
O 84.067069 9.813697 1.480741
C 84.103138 6.960871 1.405503
C 84.132521 5.568891 1.282068
C 85.912602 2.827749 0.078861
C 87.234304 3.418466 0.282223
C 88.094750 2.420849 0.225032
C 87.331835 1.194659 -0.001848
N 86.058373 1.419117 -0.088927
H 89.044568 -0.158912 -0.152532
H 89.008903 -2.778644 -0.343619
H 87.193475 -4.577203 -0.316695
H 84.049578 -5.140010 1.998916
H 83.979656 -7.594083 1.975080
H 84.544782 -9.762704 -1.113234
H 84.829627 -7.571320 -2.258285
H 84.887744 -5.113166 -2.228018
H 81.737133 -4.490018 0.259735
H 79.924568 -2.683186 0.335952
H 80.238874 2.565544 -0.775583
H 82.198994 4.445551 -0.759448
H 85.753577 5.332514 -1.708649
H 85.705574 7.780672 -1.494163
H 85.114654 9.851236 -0.244248
H 83.636892 7.399989 2.279284
H 83.689374 4.956360 2.058165
H 87.485414 4.457561 0.450922
H 89.167758 2.507906 0.336703
C 57.205053 -0.020871 0.005683
C 58.426971 -0.020871 0.005683
C 67.609479 -0.020871 0.005683
C 68.831397 -0.020871 0.005683
C 78.013906 -0.020871 0.005683
C 79.235823 -0.020871 0.005683
Zn 63.002420 -0.021416 0.015440
C 59.560186 0.022286 -0.006068
C 60.216438 1.157315 0.303347
C 59.575488 2.448257 0.565934
C 60.515693 3.323423 0.868308
C 61.813668 2.643868 0.822884
N 61.633793 1.272481 0.457888
C 62.998687 3.225112 1.104780
C 63.033266 4.642657 1.527587
C 63.534580 5.622962 0.658519
C 63.578825 6.961114 1.057911
C 63.123710 7.335369 2.334599
C 63.147858 8.740805 2.776074
O 63.612927 9.642115 2.032408
C 62.631513 6.351427 3.202594
C 62.587902 5.013283 2.801850
C 64.294846 2.509615 1.014356
C 65.562882 3.052372 1.516717
C 66.514802 2.190960 1.221774
N 64.462476 1.360217 0.437302
C 65.860459 1.088227 0.529458
C 66.476108 0.022286 -0.006068
C 65.727515 -1.061610 -0.674770
C 66.260563 -1.933289 -1.520406
C 65.228892 -2.898485 -1.849503
C 64.136857 -2.548977 -1.181891
N 64.361950 -1.371510 -0.408961
C 62.881704 -3.335859 -1.156611
C 62.943299 -4.772935 -1.512133
C 63.710407 -5.653906 -0.735487
C 63.782701 -7.008837 -1.070534
C 63.094188 -7.500305 -2.190872
C 63.178245 -8.933442 -2.521693
O 62.558238 -9.411494 -3.510509
C 62.335399 -6.614840 -2.976834
C 62.263328 -5.259309 -2.640820
C 61.708514 -2.779605 -0.797514
C 60.431590 -3.475419 -0.674961
C 59.540570 -2.555735 -0.360967
C 60.238062 -1.267459 -0.274719
N 61.505587 -1.392576 -0.525654
H 58.518737 2.679735 0.523023
H 60.331483 4.364069 1.102715
H 63.888209 5.349318 -0.328075
H 63.966350 7.701867 0.369311
H 62.754496 9.013239 3.755507
H 62.280434 6.618202 4.190381
H 62.208228 4.265480 3.483496
H 65.712456 3.989833 2.036076
H 67.564651 2.308499 1.457877
H 67.280966 -1.947552 -1.877169
H 65.343211 -3.763925 -2.488376
H 64.246942 -5.291521 0.133352
H 64.375536 -7.674697 -0.453923
H 63.778091 -9.595656 -1.908654
H 61.802511 -6.968416 -3.851104
H 61.680646 -4.587665 -3.260633
H 60.229440 -4.531354 -0.801926
H 58.488108 -2.745317 -0.193709
Zn 73.406846 -0.021416 0.015440
C 69.964613 0.022286 -0.006068
C 70.620864 1.157315 0.303347
C 69.979914 2.448257 0.565934
C 70.920120 3.323423 0.868308
C 72.218094 2.643868 0.822884
N 72.038220 1.272481 0.457888
C 73.403114 3.225112 1.104780
C 73.437693 4.642657 1.527587
C 73.939006 5.622962 0.658519
C 73.983251 6.961114 1.057911
C 73.528136 7.335369 2.334599
C 73.552284 8.740805 2.776074
O 74.017354 9.642115 2.032408
C 73.035939 6.351427 3.202594
C 72.992328 5.013283 2.801850
C 74.699272 2.509615 1.014356
C 75.967309 3.052372 1.516717
C 76.919228 2.190960 1.221774
N 74.866903 1.360217 0.437302
C 76.264885 1.088227 0.529458
C 76.880535 0.022286 -0.006068
C 76.131941 -1.061610 -0.674770
C 76.664990 -1.933289 -1.520406
C 75.633318 -2.898485 -1.849503
C 74.541283 -2.548977 -1.181891
N 74.766377 -1.371510 -0.408961
C 73.286130 -3.335859 -1.156611
C 73.347726 -4.772935 -1.512133
C 74.114833 -5.653906 -0.735487
C 74.187127 -7.008837 -1.070534
C 73.498615 -7.500305 -2.190872
C 73.582672 -8.933442 -2.521693
O 72.962664 -9.411494 -3.510509
C 72.739826 -6.614840 -2.976834
C 72.667754 -5.259309 -2.640820
C 72.112940 -2.779605 -0.797514
C 70.836016 -3.475419 -0.674961
C 69.944996 -2.555735 -0.360967
C 70.642488 -1.267459 -0.274719
N 71.910013 -1.392576 -0.525654
H 68.923163 2.679735 0.523023
H 70.735909 4.364069 1.102715
H 74.292635 5.349318 -0.328075
H 74.370776 7.701867 0.369311
H 73.158922 9.013239 3.755507
H 72.684860 6.618202 4.190381
H 72.612655 4.265480 3.483496
H 76.116882 3.989833 2.036076
H 77.969077 2.308499 1.457877
H 77.685392 -1.947552 -1.877169
H 75.747637 -3.763925 -2.488376
H 74.651368 -5.291521 0.133352
H 74.779962 -7.674697 -0.453923
H 74.182517 -9.595656 -1.908654
H 72.206937 -6.968416 -3.851104
H 72.085072 -4.587665 -3.260633
H 70.633866 -4.531354 -0.801926
H 68.892534 -2.745317 -0.193709
