 xtb: 6.5.1 (b24c23e)
          07302206273D

189218  0     0  0            999 V2000
   22.7108    0.3238    0.1636 Cu  0  0  0  0  0  0  0  0  0  0  0  0
   19.3151    0.1302   -0.0020 C   0  0  0  0  0  0  0  0  0  0  0  0
   20.0098   -1.0700   -0.0185 C   0  0  0  0  0  0  0  0  0  0  0  0
   19.3973   -2.3668   -0.0550 C   0  0  0  0  0  0  0  0  0  0  0  0
   20.4019   -3.2781   -0.0537 C   0  0  0  0  0  0  0  0  0  0  0  0
   21.6386   -2.5456   -0.0293 C   0  0  0  0  0  0  0  0  0  0  0  0
   21.3687   -1.2072   -0.0006 N   0  0  0  0  0  0  0  0  0  0  0  0
   22.9127   -3.1187   -0.0173 C   0  0  0  0  0  0  0  0  0  0  0  0
   23.0062   -4.5975   -0.1010 C   0  0  0  0  0  0  0  0  0  0  0  0
   22.5525   -5.2727   -1.1674 C   0  0  0  0  0  0  0  0  0  0  0  0
   22.6251   -6.7744   -1.2657 C   0  0  0  0  0  0  0  0  0  0  0  0
   23.5627   -7.3252   -0.2834 N   0  0  0  0  0  0  0  0  0  0  0  0
   23.8442   -6.6425    0.8714 C   0  0  0  0  0  0  0  0  0  0  0  0
   23.6274   -5.3215    0.9990 C   0  0  0  0  0  0  0  0  0  0  0  0
   24.1090   -2.4038    0.0678 C   0  0  0  0  0  0  0  0  0  0  0  0
   25.4184   -2.9901    0.0259 C   0  0  0  0  0  0  0  0  0  0  0  0
   26.3137   -1.9744    0.1197 C   0  0  0  0  0  0  0  0  0  0  0  0
   24.2281   -1.0431    0.1777 N   0  0  0  0  0  0  0  0  0  0  0  0
   25.5589   -0.7610    0.2129 C   0  0  0  0  0  0  0  0  0  0  0  0
   26.1296    0.5191    0.3256 C   0  0  0  0  0  0  0  0  0  0  0  0
   25.4096    1.7255    0.3775 C   0  0  0  0  0  0  0  0  0  0  0  0
   26.0099    3.0164    0.5322 C   0  0  0  0  0  0  0  0  0  0  0  0
   25.0003    3.9233    0.5364 C   0  0  0  0  0  0  0  0  0  0  0  0
   23.7755    3.1921    0.3771 C   0  0  0  0  0  0  0  0  0  0  0  0
   24.0579    1.8544    0.2872 N   0  0  0  0  0  0  0  0  0  0  0  0
   22.5028    3.7656    0.3465 C   0  0  0  0  0  0  0  0  0  0  0  0
   22.4190    5.2449    0.4330 C   0  0  0  0  0  0  0  0  0  0  0  0
   21.7979    5.8566    1.4523 C   0  0  0  0  0  0  0  0  0  0  0  0
   21.6899    7.3561    1.5519 C   0  0  0  0  0  0  0  0  0  0  0  0
   22.6420    8.0169    0.6551 N   0  0  0  0  0  0  0  0  0  0  0  0
   23.1013    7.3787   -0.4676 C   0  0  0  0  0  0  0  0  0  0  0  0
   23.0491    6.0425   -0.6096 C   0  0  0  0  0  0  0  0  0  0  0  0
   21.3069    3.0516    0.2396 C   0  0  0  0  0  0  0  0  0  0  0  0
   19.9985    3.6392    0.1427 C   0  0  0  0  0  0  0  0  0  0  0  0
   19.1083    2.6201    0.0492 C   0  0  0  0  0  0  0  0  0  0  0  0
   19.8646    1.4013    0.0763 C   0  0  0  0  0  0  0  0  0  0  0  0
   21.1945    1.6915    0.1895 N   0  0  0  0  0  0  0  0  0  0  0  0
   18.2328    0.0687   -0.0549 H   0  0  0  0  0  0  0  0  0  0  0  0
   18.3332   -2.5435   -0.0680 H   0  0  0  0  0  0  0  0  0  0  0  0
   20.3199   -4.3531   -0.0564 H   0  0  0  0  0  0  0  0  0  0  0  0
   22.0947   -4.7681   -2.0103 H   0  0  0  0  0  0  0  0  0  0  0  0
   22.9682   -7.0720   -2.2658 H   0  0  0  0  0  0  0  0  0  0  0  0
   21.6210   -7.2156   -1.1206 H   0  0  0  0  0  0  0  0  0  0  0  0
   23.5331   -8.3319   -0.2109 H   0  0  0  0  0  0  0  0  0  0  0  0
   24.3319   -7.2325    1.6408 H   0  0  0  0  0  0  0  0  0  0  0  0
   23.9025   -4.7894    1.8986 H   0  0  0  0  0  0  0  0  0  0  0  0
   25.6222   -4.0440   -0.0731 H   0  0  0  0  0  0  0  0  0  0  0  0
   27.3905   -2.0311    0.1199 H   0  0  0  0  0  0  0  0  0  0  0  0
   27.0688    3.1946    0.6311 H   0  0  0  0  0  0  0  0  0  0  0  0
   25.0730    4.9933    0.6462 H   0  0  0  0  0  0  0  0  0  0  0  0
   21.3271    5.2972    2.2523 H   0  0  0  0  0  0  0  0  0  0  0  0
   21.9068    7.6837    2.5776 H   0  0  0  0  0  0  0  0  0  0  0  0
   20.6589    7.6811    1.3168 H   0  0  0  0  0  0  0  0  0  0  0  0
   22.5038    9.0141    0.5767 H   0  0  0  0  0  0  0  0  0  0  0  0
   23.5849    8.0258   -1.1925 H   0  0  0  0  0  0  0  0  0  0  0  0
   23.4621    5.5513   -1.4792 H   0  0  0  0  0  0  0  0  0  0  0  0
   19.7953    4.6980    0.1349 H   0  0  0  0  0  0  0  0  0  0  0  0
   18.0347    2.6751   -0.0413 H   0  0  0  0  0  0  0  0  0  0  0  0
   59.8860    0.2258    0.1706 Cu  0  0  0  0  0  0  0  0  0  0  0  0
   63.2890    0.3187    0.0799 C   0  0  0  0  0  0  0  0  0  0  0  0
   62.6376    1.5234    0.2990 C   0  0  0  0  0  0  0  0  0  0  0  0
   63.2963    2.7769    0.5294 C   0  0  0  0  0  0  0  0  0  0  0  0
   62.3248    3.7072    0.7039 C   0  0  0  0  0  0  0  0  0  0  0  0
   61.0627    3.0324    0.5688 C   0  0  0  0  0  0  0  0  0  0  0  0
   61.2844    1.7060    0.3312 N   0  0  0  0  0  0  0  0  0  0  0  0
   59.8097    3.6400    0.6808 C   0  0  0  0  0  0  0  0  0  0  0  0
   59.7695    5.1076    0.8977 C   0  0  0  0  0  0  0  0  0  0  0  0
   60.2643    5.9675   -0.0048 C   0  0  0  0  0  0  0  0  0  0  0  0
   60.2458    7.4595    0.2044 C   0  0  0  0  0  0  0  0  0  0  0  0
   59.3071    7.8339    1.2655 N   0  0  0  0  0  0  0  0  0  0  0  0
   58.9833    6.9428    2.2556 C   0  0  0  0  0  0  0  0  0  0  0  0
   59.1544    5.6164    2.1156 C   0  0  0  0  0  0  0  0  0  0  0  0
   58.5874    2.9695    0.6044 C   0  0  0  0  0  0  0  0  0  0  0  0
   57.3008    3.6030    0.6630 C   0  0  0  0  0  0  0  0  0  0  0  0
   56.3684    2.6247    0.5394 C   0  0  0  0  0  0  0  0  0  0  0  0
   58.4179    1.6201    0.4378 N   0  0  0  0  0  0  0  0  0  0  0  0
   57.0776    1.3884    0.3989 C   0  0  0  0  0  0  0  0  0  0  0  0
   56.4596    0.1334    0.2543 C   0  0  0  0  0  0  0  0  0  0  0  0
   57.1353   -1.0868    0.0789 C   0  0  0  0  0  0  0  0  0  0  0  0
   56.4875   -2.3593   -0.0286 C   0  0  0  0  0  0  0  0  0  0  0  0
   57.4643   -3.2866   -0.1962 C   0  0  0  0  0  0  0  0  0  0  0  0
   58.7166   -2.5850   -0.1989 C   0  0  0  0  0  0  0  0  0  0  0  0
   58.4830   -1.2463   -0.0239 N   0  0  0  0  0  0  0  0  0  0  0  0
   59.9683   -3.1884   -0.3361 C   0  0  0  0  0  0  0  0  0  0  0  0
   59.9987   -4.6569   -0.5496 C   0  0  0  0  0  0  0  0  0  0  0  0
   60.5862   -5.4844    0.3272 C   0  0  0  0  0  0  0  0  0  0  0  0
   60.6422   -6.9758    0.1207 C   0  0  0  0  0  0  0  0  0  0  0  0
   59.6799   -7.4068   -0.8971 N   0  0  0  0  0  0  0  0  0  0  0  0
   59.2564   -6.5379   -1.8690 C   0  0  0  0  0  0  0  0  0  0  0  0
   59.3547   -5.2034   -1.7357 C   0  0  0  0  0  0  0  0  0  0  0  0
   61.1907   -2.5134   -0.2898 C   0  0  0  0  0  0  0  0  0  0  0  0
   62.4787   -3.1188   -0.4930 C   0  0  0  0  0  0  0  0  0  0  0  0
   63.4060   -2.1366   -0.3714 C   0  0  0  0  0  0  0  0  0  0  0  0
   62.6934   -0.9202   -0.1051 C   0  0  0  0  0  0  0  0  0  0  0  0
   61.3524   -1.1763   -0.0641 N   0  0  0  0  0  0  0  0  0  0  0  0
   64.3734    0.3484    0.0504 H   0  0  0  0  0  0  0  0  0  0  0  0
   64.3661    2.9119    0.5618 H   0  0  0  0  0  0  0  0  0  0  0  0
   62.4449    4.7572    0.9172 H   0  0  0  0  0  0  0  0  0  0  0  0
   60.7185    5.6276   -0.9283 H   0  0  0  0  0  0  0  0  0  0  0  0
   59.9342    7.9672   -0.7184 H   0  0  0  0  0  0  0  0  0  0  0  0
   61.2612    7.8234    0.4501 H   0  0  0  0  0  0  0  0  0  0  0  0
   59.3679    8.8036    1.5403 H   0  0  0  0  0  0  0  0  0  0  0  0
   58.5015    7.3824    3.1232 H   0  0  0  0  0  0  0  0  0  0  0  0
   58.8462    4.9237    2.8858 H   0  0  0  0  0  0  0  0  0  0  0  0
   57.1366    4.6625    0.7747 H   0  0  0  0  0  0  0  0  0  0  0  0
   55.2945    2.7225    0.5364 H   0  0  0  0  0  0  0  0  0  0  0  0
   55.4216   -2.5134    0.0249 H   0  0  0  0  0  0  0  0  0  0  0  0
   57.3524   -4.3537   -0.3006 H   0  0  0  0  0  0  0  0  0  0  0  0
   61.0665   -5.1161    1.2263 H   0  0  0  0  0  0  0  0  0  0  0  0
   60.4013   -7.4968    1.0572 H   0  0  0  0  0  0  0  0  0  0  0  0
   61.6646   -7.2829   -0.1697 H   0  0  0  0  0  0  0  0  0  0  0  0
   59.7869   -8.3712   -1.1767 H   0  0  0  0  0  0  0  0  0  0  0  0
   58.7609   -7.0068   -2.7132 H   0  0  0  0  0  0  0  0  0  0  0  0
   58.9694   -4.5317   -2.4895 H   0  0  0  0  0  0  0  0  0  0  0  0
   62.6444   -4.1612   -0.7130 H   0  0  0  0  0  0  0  0  0  0  0  0
   64.4783   -2.2132   -0.4622 H   0  0  0  0  0  0  0  0  0  0  0  0
   27.5318    0.5969    0.3890 C   0  0  0  0  0  0  0  0  0  0  0  0
   28.7537    0.6555    0.4409 C   0  0  0  0  0  0  0  0  0  0  0  0
   30.0948    0.7100    0.4923 C   0  0  0  0  0  0  0  0  0  0  0  0
   31.3239    0.7492    0.5349 C   0  0  0  0  0  0  0  0  0  0  0  0
   32.6613    0.7795    0.5718 C   0  0  0  0  0  0  0  0  0  0  0  0
   33.8914    0.7945    0.6006 C   0  0  0  0  0  0  0  0  0  0  0  0
   35.2341    0.8012    0.6234 C   0  0  0  0  0  0  0  0  0  0  0  0
   36.4586    0.7942    0.6383 C   0  0  0  0  0  0  0  0  0  0  0  0
   46.1295    0.4003    0.5363 C   0  0  0  0  0  0  0  0  0  0  0  0
   47.3516    0.3273    0.5035 C   0  0  0  0  0  0  0  0  0  0  0  0
   48.6924    0.2569    0.4679 C   0  0  0  0  0  0  0  0  0  0  0  0
   49.9211    0.1974    0.4340 C   0  0  0  0  0  0  0  0  0  0  0  0
   51.2581    0.1475    0.3959 C   0  0  0  0  0  0  0  0  0  0  0  0
   52.4876    0.1131    0.3606 C   0  0  0  0  0  0  0  0  0  0  0  0
   53.8304    0.0997    0.3232 C   0  0  0  0  0  0  0  0  0  0  0  0
   55.0542    0.1032    0.2879 C   0  0  0  0  0  0  0  0  0  0  0  0
   41.2964    0.6534    0.6281 Cu  0  0  0  0  0  0  0  0  0  0  0  0
   37.8635    0.7691    0.6460 C   0  0  0  0  0  0  0  0  0  0  0  0
   38.5310    1.5087   -0.3474 C   0  0  0  0  0  0  0  0  0  0  0  0
   37.8757    2.3370   -1.3140 C   0  0  0  0  0  0  0  0  0  0  0  0
   38.8467    2.8771   -2.0941 C   0  0  0  0  0  0  0  0  0  0  0  0
   40.1013    2.3704   -1.6157 C   0  0  0  0  0  0  0  0  0  0  0  0
   39.8761    1.5465   -0.5445 N   0  0  0  0  0  0  0  0  0  0  0  0
   41.3491    2.6780   -2.1603 C   0  0  0  0  0  0  0  0  0  0  0  0
   41.3798    3.5539   -3.3583 C   0  0  0  0  0  0  0  0  0  0  0  0
   40.8181    3.1806   -4.5177 C   0  0  0  0  0  0  0  0  0  0  0  0
   40.8836    4.0333   -5.7575 C   0  0  0  0  0  0  0  0  0  0  0  0
   41.2434    5.4152   -5.4298 N   0  0  0  0  0  0  0  0  0  0  0  0
   41.9566    5.7015   -4.2950 C   0  0  0  0  0  0  0  0  0  0  0  0
   42.0346    4.8498   -3.2572 C   0  0  0  0  0  0  0  0  0  0  0  0
   42.5759    2.2234   -1.6723 C   0  0  0  0  0  0  0  0  0  0  0  0
   43.8474    2.4813   -2.2853 C   0  0  0  0  0  0  0  0  0  0  0  0
   44.7879    1.8615   -1.5273 C   0  0  0  0  0  0  0  0  0  0  0  0
   42.7604    1.4473   -0.5593 N   0  0  0  0  0  0  0  0  0  0  0  0
   44.0970    1.2193   -0.4499 C   0  0  0  0  0  0  0  0  0  0  0  0
   44.7270    0.4812    0.5685 C   0  0  0  0  0  0  0  0  0  0  0  0
   44.0629   -0.1769    1.6197 C   0  0  0  0  0  0  0  0  0  0  0  0
   44.7255   -0.8608    2.6886 C   0  0  0  0  0  0  0  0  0  0  0  0
   43.7567   -1.3599    3.4984 C   0  0  0  0  0  0  0  0  0  0  0  0
   42.4949   -0.9951    2.9205 C   0  0  0  0  0  0  0  0  0  0  0  0
   42.7152   -0.2653    1.7823 N   0  0  0  0  0  0  0  0  0  0  0  0
   41.2454   -1.3304    3.4467 C   0  0  0  0  0  0  0  0  0  0  0  0
   41.2154   -2.1837    4.6605 C   0  0  0  0  0  0  0  0  0  0  0  0
   41.7180   -3.4273    4.6607 C   0  0  0  0  0  0  0  0  0  0  0  0
   41.7071   -4.3033    5.8863 C   0  0  0  0  0  0  0  0  0  0  0  0
   40.7645   -3.7998    6.8888 N   0  0  0  0  0  0  0  0  0  0  0  0
   40.4341   -2.4697    6.9269 C   0  0  0  0  0  0  0  0  0  0  0  0
   40.5996   -1.6556    5.8696 C   0  0  0  0  0  0  0  0  0  0  0  0
   40.0158   -0.9312    2.9180 C   0  0  0  0  0  0  0  0  0  0  0  0
   38.7356   -1.3406    3.4209 C   0  0  0  0  0  0  0  0  0  0  0  0
   37.7941   -0.7607    2.6338 C   0  0  0  0  0  0  0  0  0  0  0  0
   38.4922    0.0035    1.6441 C   0  0  0  0  0  0  0  0  0  0  0  0
   39.8342   -0.1162    1.8324 N   0  0  0  0  0  0  0  0  0  0  0  0
   36.8097    2.4884   -1.3737 H   0  0  0  0  0  0  0  0  0  0  0  0
   38.7296    3.5659   -2.9149 H   0  0  0  0  0  0  0  0  0  0  0  0
   40.3494    2.2109   -4.6381 H   0  0  0  0  0  0  0  0  0  0  0  0
   41.6121    3.6105   -6.4748 H   0  0  0  0  0  0  0  0  0  0  0  0
   39.9062    4.0466   -6.2586 H   0  0  0  0  0  0  0  0  0  0  0  0
   41.4390    5.9890   -6.2372 H   0  0  0  0  0  0  0  0  0  0  0  0
   42.3803    6.7002   -4.2653 H   0  0  0  0  0  0  0  0  0  0  0  0
   42.5371    5.1233   -2.3403 H   0  0  0  0  0  0  0  0  0  0  0  0
   43.9953    3.0531   -3.1873 H   0  0  0  0  0  0  0  0  0  0  0  0
   45.8550    1.8316   -1.6793 H   0  0  0  0  0  0  0  0  0  0  0  0
   45.7952   -0.9342    2.8034 H   0  0  0  0  0  0  0  0  0  0  0  0
   43.8825   -1.9147    4.4140 H   0  0  0  0  0  0  0  0  0  0  0  0
   42.1727   -3.8596    3.7770 H   0  0  0  0  0  0  0  0  0  0  0  0
   42.7232   -4.3671    6.3190 H   0  0  0  0  0  0  0  0  0  0  0  0
   41.4040   -5.3245    5.6188 H   0  0  0  0  0  0  0  0  0  0  0  0
   40.8309   -4.2678    7.7811 H   0  0  0  0  0  0  0  0  0  0  0  0
   39.9509   -2.1473    7.8438 H   0  0  0  0  0  0  0  0  0  0  0  0
   40.2855   -0.6219    5.8991 H   0  0  0  0  0  0  0  0  0  0  0  0
   38.5811   -1.9967    4.2622 H   0  0  0  0  0  0  0  0  0  0  0  0
   36.7212   -0.8407    2.7062 H   0  0  0  0  0  0  0  0  0  0  0  0
  2  3  4  0  0  0  0
  3  4  1  0  0  0  0
  4  5  2  0  0  0  0
  5  6  4  0  0  0  0
  1  7  1  0  0  0  0
  3  7  4  0  0  0  0
  6  7  4  0  0  0  0
  6  8  4  0  0  0  0
  8  9  1  0  0  0  0
  9 10  2  0  0  0  0
 10 11  1  0  0  0  0
 11 12  1  0  0  0  0
 12 13  1  0  0  0  0
  9 14  1  0  0  0  0
 13 14  2  0  0  0  0
  8 15  4  0  0  0  0
 15 16  4  0  0  0  0
 16 17  2  0  0  0  0
  1 18  1  0  0  0  0
 15 18  4  0  0  0  0
 17 19  4  0  0  0  0
 18 19  4  0  0  0  0
 19 20  4  0  0  0  0
 20 21  4  0  0  0  0
 21 22  4  0  0  0  0
 22 23  2  0  0  0  0
 23 24  4  0  0  0  0
  1 25  1  0  0  0  0
 21 25  4  0  0  0  0
 24 25  4  0  0  0  0
 24 26  4  0  0  0  0
 26 27  1  0  0  0  0
 27 28  2  0  0  0  0
 28 29  1  0  0  0  0
 29 30  1  0  0  0  0
 30 31  1  0  0  0  0
 27 32  1  0  0  0  0
 31 32  2  0  0  0  0
 26 33  4  0  0  0  0
 33 34  4  0  0  0  0
 34 35  2  0  0  0  0
  2 36  4  0  0  0  0
 35 36  1  0  0  0  0
  1 37  1  0  0  0  0
 33 37  4  0  0  0  0
 36 37  4  0  0  0  0
  2 38  1  0  0  0  0
  4 39  1  0  0  0  0
  5 40  1  0  0  0  0
 10 41  1  0  0  0  0
 11 42  1  0  0  0  0
 11 43  1  0  0  0  0
 12 44  1  0  0  0  0
 13 45  1  0  0  0  0
 14 46  1  0  0  0  0
 16 47  1  0  0  0  0
 17 48  1  0  0  0  0
 22 49  1  0  0  0  0
 23 50  1  0  0  0  0
 28 51  1  0  0  0  0
 29 52  1  0  0  0  0
 29 53  1  0  0  0  0
 30 54  1  0  0  0  0
 31 55  1  0  0  0  0
 32 56  1  0  0  0  0
 34 57  1  0  0  0  0
 35 58  1  0  0  0  0
 60 61  4  0  0  0  0
 61 62  1  0  0  0  0
 62 63  2  0  0  0  0
 63 64  4  0  0  0  0
 59 65  1  0  0  0  0
 61 65  4  0  0  0  0
 64 65  4  0  0  0  0
 64 66  4  0  0  0  0
 66 67  1  0  0  0  0
 67 68  2  0  0  0  0
 68 69  1  0  0  0  0
 69 70  1  0  0  0  0
 70 71  1  0  0  0  0
 67 72  1  0  0  0  0
 71 72  2  0  0  0  0
 66 73  4  0  0  0  0
 73 74  4  0  0  0  0
 74 75  2  0  0  0  0
 59 76  1  0  0  0  0
 73 76  4  0  0  0  0
 75 77  4  0  0  0  0
 76 77  4  0  0  0  0
 77 78  4  0  0  0  0
 78 79  4  0  0  0  0
 79 80  4  0  0  0  0
 80 81  2  0  0  0  0
 81 82  4  0  0  0  0
 59 83  1  0  0  0  0
 79 83  4  0  0  0  0
 82 83  4  0  0  0  0
 82 84  4  0  0  0  0
 84 85  1  0  0  0  0
 85 86  2  0  0  0  0
 86 87  1  0  0  0  0
 87 88  1  0  0  0  0
 88 89  1  0  0  0  0
 85 90  1  0  0  0  0
 89 90  2  0  0  0  0
 84 91  4  0  0  0  0
 91 92  4  0  0  0  0
 92 93  2  0  0  0  0
 60 94  4  0  0  0  0
 93 94  1  0  0  0  0
 59 95  1  0  0  0  0
 91 95  4  0  0  0  0
 94 95  4  0  0  0  0
 60 96  1  0  0  0  0
 62 97  1  0  0  0  0
 63 98  1  0  0  0  0
 68 99  1  0  0  0  0
 69100  1  0  0  0  0
 69101  1  0  0  0  0
 70102  1  0  0  0  0
 71103  1  0  0  0  0
 72104  1  0  0  0  0
 74105  1  0  0  0  0
 75106  1  0  0  0  0
 80107  1  0  0  0  0
 81108  1  0  0  0  0
 86109  1  0  0  0  0
 87110  1  0  0  0  0
 87111  1  0  0  0  0
 88112  1  0  0  0  0
 89113  1  0  0  0  0
 90114  1  0  0  0  0
 92115  1  0  0  0  0
 93116  1  0  0  0  0
 20117  4  0  0  0  0
117118  3  0  0  0  0
118119  4  0  0  0  0
119120  3  0  0  0  0
120121  4  0  0  0  0
121122  3  0  0  0  0
122123  4  0  0  0  0
123124  3  0  0  0  0
125126  3  0  0  0  0
126127  4  0  0  0  0
127128  3  0  0  0  0
128129  4  0  0  0  0
129130  3  0  0  0  0
130131  4  0  0  0  0
 78132  4  0  0  0  0
131132  3  0  0  0  0
124134  4  0  0  0  0
134135  4  0  0  0  0
135136  4  0  0  0  0
136137  2  0  0  0  0
137138  4  0  0  0  0
133139  1  0  0  0  0
135139  4  0  0  0  0
138139  4  0  0  0  0
138140  4  0  0  0  0
140141  1  0  0  0  0
141142  2  0  0  0  0
142143  1  0  0  0  0
143144  1  0  0  0  0
144145  1  0  0  0  0
141146  1  0  0  0  0
145146  2  0  0  0  0
140147  4  0  0  0  0
147148  4  0  0  0  0
148149  2  0  0  0  0
133150  1  0  0  0  0
147150  4  0  0  0  0
149151  4  0  0  0  0
150151  4  0  0  0  0
125152  4  0  0  0  0
151152  4  0  0  0  0
152153  4  0  0  0  0
153154  4  0  0  0  0
154155  2  0  0  0  0
155156  4  0  0  0  0
133157  1  0  0  0  0
153157  4  0  0  0  0
156157  4  0  0  0  0
156158  4  0  0  0  0
158159  1  0  0  0  0
159160  2  0  0  0  0
160161  1  0  0  0  0
161162  1  0  0  0  0
162163  1  0  0  0  0
159164  1  0  0  0  0
163164  2  0  0  0  0
158165  4  0  0  0  0
165166  4  0  0  0  0
166167  2  0  0  0  0
134168  4  0  0  0  0
167168  4  0  0  0  0
133169  1  0  0  0  0
165169  4  0  0  0  0
168169  4  0  0  0  0
136170  1  0  0  0  0
137171  1  0  0  0  0
142172  1  0  0  0  0
143173  1  0  0  0  0
143174  1  0  0  0  0
144175  1  0  0  0  0
145176  1  0  0  0  0
146177  1  0  0  0  0
148178  1  0  0  0  0
149179  1  0  0  0  0
154180  1  0  0  0  0
155181  1  0  0  0  0
160182  1  0  0  0  0
161183  1  0  0  0  0
161184  1  0  0  0  0
162185  1  0  0  0  0
163186  1  0  0  0  0
164187  1  0  0  0  0
166188  1  0  0  0  0
167189  1  0  0  0  0
M  END
