120

C 14.353733 0.166341 0.261426
C 15.087177 1.339009 -0.459271
C 14.490211 2.466724 -0.974713
C 15.514453 3.236007 -1.585970
C 16.702151 2.546951 -1.429191
N 16.435796 1.416252 -0.698188
C 18.115644 2.958982 -2.003527
C 18.144836 4.017347 -2.970215
C 18.154992 4.904212 -3.781073
C 18.165149 5.955702 -4.747430
C 17.366673 5.867613 -5.882353
C 17.411085 6.912119 -6.789227
N 18.182923 8.012572 -6.638483
C 18.946571 8.062671 -5.523134
C 18.973174 7.071176 -4.557744
C 19.243737 2.305464 -1.620672
C 20.539484 2.641054 -2.175775
C 21.446522 1.831432 -1.641739
N 19.450363 1.278608 -0.736962
C 20.779839 0.944872 -0.708117
C 21.454052 0.000000 -0.000000
C 20.685091 -0.931372 1.028797
C 21.235361 -1.571516 2.121907
C 20.207942 -2.333455 2.732424
C 19.057206 -2.129806 2.000687
N 19.345983 -1.235481 0.997058
C 17.644766 -2.781709 2.277399
C 17.613771 -4.022203 2.991727
C 17.598403 -5.066355 3.585992
C 17.574936 -6.311221 4.285708
C 18.615157 -6.651244 5.143336
C 18.544959 -7.869377 5.796978
N 17.526983 -8.748138 5.652655
C 16.534067 -8.383841 4.809461
C 16.511312 -7.189619 4.110239
C 16.517236 -2.174690 1.830123
C 15.190634 -2.712417 2.076653
C 14.299423 -1.891737 1.527991
C 15.021737 -0.809771 0.904505
N 16.348637 -1.024569 1.110431
H 13.271457 0.139275 0.217038
H 13.437760 2.701658 -0.929518
H 15.394035 4.176592 -2.101958
H 17.127782 0.739527 -0.384818
H 16.729184 5.007019 -6.053402
H 16.806492 6.889622 -7.690391
H 19.559572 8.952661 -5.420737
H 19.605617 7.162498 -3.681295
H 20.741314 3.406323 -2.903698
H 22.495771 1.851630 -1.873504
H 22.264270 -1.507036 2.441903
H 20.297320 -2.960310 3.606522
H 18.660240 -0.819113 0.372544
H 19.456779 -5.984473 5.295933
H 19.332762 -8.180177 6.476254
H 15.726893 -9.102395 4.705038
H 15.689070 -6.947837 3.445281
H 14.964055 -3.613434 2.617096
H 13.230866 -2.008613 1.539999
C 32.358422 0.241769 0.193807
C 31.624978 -0.602278 1.281069
C 32.221944 -1.237397 2.345984
C 31.197701 -1.928751 3.044168
C 30.010004 -1.697907 2.376270
N 30.276359 -0.848183 1.331849
C 28.596511 -2.313676 2.723343
C 28.567319 -3.389812 3.670208
C 28.557163 -4.292378 4.463552
C 28.547006 -5.367437 5.403618
C 29.345482 -6.486030 5.192529
C 29.301070 -7.501200 6.132127
N 28.529232 -7.471123 7.242450
C 27.765584 -6.367853 7.413644
C 27.738981 -5.300285 6.533111
C 27.468418 -1.861967 2.115377
C 26.172671 -2.450298 2.388557
C 25.265633 -1.831316 1.641868
N 27.261792 -0.871746 1.190802
C 25.932316 -0.806749 0.862188
C 25.258102 -0.000000 0.000000
C 26.027064 1.124055 -0.813867
C 25.476794 2.280344 -1.331236
C 26.504213 2.970161 -2.022200
C 27.654949 2.220607 -1.899402
N 27.366172 1.125603 -1.119623
C 29.067389 2.566627 -2.517315
C 29.098384 3.411725 -3.672694
C 29.113751 4.116104 -4.645964
C 29.137219 4.947152 -5.807279
C 28.096998 5.836694 -6.051939
C 28.167196 6.619032 -7.191694
N 29.185172 6.571209 -8.080942
C 30.178088 5.693375 -7.810581
C 30.200843 4.868329 -6.699557
C 30.194919 2.055941 -1.962583
C 31.521521 2.359532 -2.470284
C 32.412732 1.724807 -1.714195
C 31.690418 0.987266 -0.706515
N 30.363517 1.215347 -0.897624
H 33.440698 0.200590 0.162069
H 33.274395 -1.218040 2.584441
H 31.318120 -2.544046 3.923007
H 29.584373 -0.463021 0.693251
H 29.982971 -6.562398 4.318431
H 29.905662 -8.394562 6.011683
H 27.152583 -6.362929 8.309492
H 27.106538 -4.438982 6.719282
H 25.970841 -3.257188 3.070054
H 24.216384 -2.063903 1.636721
H 24.447885 2.591421 -1.232310
H 26.414835 3.907293 -2.550196
H 28.051915 0.459481 -0.773700
H 27.255376 5.915814 -5.372520
H 27.379393 7.328100 -7.426717
H 30.985262 5.667779 -8.536233
H 31.023085 4.181006 -6.531584
H 31.748099 2.994830 -3.307127
H 33.481289 1.749465 -1.829070
C 22.745119 0.000000 -0.000000
C 23.967036 0.000000 -0.000000
