 xtb: 6.5.1 (b24c23e)
          07282214323D

120133  0     0  0            999 V2000
   14.4722    0.0208   -0.1905 C   0  0  0  0  0  0  0  0  0  0  0  0
   15.0876    1.0404   -0.9075 C   0  0  0  0  0  0  0  0  0  0  0  0
   14.4550    2.0451   -1.6900 C   0  0  0  0  0  0  0  0  0  0  0  0
   15.4320    2.8496   -2.2096 C   0  0  0  0  0  0  0  0  0  0  0  0
   16.6870    2.3596   -1.7579 C   0  0  0  0  0  0  0  0  0  0  0  0
   16.4341    1.2696   -0.9815 N   0  0  0  0  0  0  0  0  0  0  0  0
   17.9569    2.8972   -2.0321 C   0  0  0  0  0  0  0  0  0  0  0  0
   17.9913    4.0419   -2.8595 C   0  0  0  0  0  0  0  0  0  0  0  0
   18.0232    5.0152   -3.5834 C   0  0  0  0  0  0  0  0  0  0  0  0
   18.0681    6.1471   -4.4290 C   0  0  0  0  0  0  0  0  0  0  0  0
   16.9064    6.6677   -5.0105 C   0  0  0  0  0  0  0  0  0  0  0  0
   17.0076    7.7738   -5.8354 C   0  0  0  0  0  0  0  0  0  0  0  0
   18.1626    8.3760   -6.1069 N   0  0  0  0  0  0  0  0  0  0  0  0
   19.2716    7.8873   -5.5578 C   0  0  0  0  0  0  0  0  0  0  0  0
   19.2791    6.7861   -4.7205 C   0  0  0  0  0  0  0  0  0  0  0  0
   19.1793    2.3920   -1.5590 C   0  0  0  0  0  0  0  0  0  0  0  0
   20.4560    3.0154   -1.8449 C   0  0  0  0  0  0  0  0  0  0  0  0
   21.3937    2.2479   -1.2506 C   0  0  0  0  0  0  0  0  0  0  0  0
   19.3538    1.2795   -0.8045 N   0  0  0  0  0  0  0  0  0  0  0  0
   20.6872    1.1561   -0.6110 C   0  0  0  0  0  0  0  0  0  0  0  0
   21.3374    0.1217    0.0888 C   0  0  0  0  0  0  0  0  0  0  0  0
   20.6955   -0.9365    0.7622 C   0  0  0  0  0  0  0  0  0  0  0  0
   21.3198   -2.0003    1.4626 C   0  0  0  0  0  0  0  0  0  0  0  0
   20.3372   -2.7953    1.9878 C   0  0  0  0  0  0  0  0  0  0  0  0
   19.0855   -2.2415    1.6149 C   0  0  0  0  0  0  0  0  0  0  0  0
   19.3479   -1.1246    0.8740 N   0  0  0  0  0  0  0  0  0  0  0  0
   17.8146   -2.7436    1.9474 C   0  0  0  0  0  0  0  0  0  0  0  0
   17.7863   -3.8969    2.7611 C   0  0  0  0  0  0  0  0  0  0  0  0
   17.7673   -4.8856    3.4649 C   0  0  0  0  0  0  0  0  0  0  0  0
   17.7409   -6.0358    4.2855 C   0  0  0  0  0  0  0  0  0  0  0  0
   18.9233   -6.6689    4.6867 C   0  0  0  0  0  0  0  0  0  0  0  0
   18.8429   -7.7915    5.4910 C   0  0  0  0  0  0  0  0  0  0  0  0
   17.6890   -8.3061    5.9087 N   0  0  0  0  0  0  0  0  0  0  0  0
   16.5606   -7.7100    5.5319 C   0  0  0  0  0  0  0  0  0  0  0  0
   16.5314   -6.5841    4.7287 C   0  0  0  0  0  0  0  0  0  0  0  0
   16.5871   -2.1981    1.5322 C   0  0  0  0  0  0  0  0  0  0  0  0
   15.2968   -2.7594    1.8932 C   0  0  0  0  0  0  0  0  0  0  0  0
   14.3664   -1.9895    1.2929 C   0  0  0  0  0  0  0  0  0  0  0  0
   15.0916   -0.9601    0.5690 C   0  0  0  0  0  0  0  0  0  0  0  0
   16.4310   -1.1175    0.7421 N   0  0  0  0  0  0  0  0  0  0  0  0
   13.3882   -0.0020   -0.2366 H   0  0  0  0  0  0  0  0  0  0  0  0
   13.3893    2.1315   -1.8293 H   0  0  0  0  0  0  0  0  0  0  0  0
   15.3050    3.7095   -2.8477 H   0  0  0  0  0  0  0  0  0  0  0  0
   17.1428    0.7080   -0.5218 H   0  0  0  0  0  0  0  0  0  0  0  0
   15.9448    6.2080   -4.8168 H   0  0  0  0  0  0  0  0  0  0  0  0
   16.1227    8.1978   -6.3006 H   0  0  0  0  0  0  0  0  0  0  0  0
   20.1966    8.4023   -5.8008 H   0  0  0  0  0  0  0  0  0  0  0  0
   20.2058    6.4205   -4.2952 H   0  0  0  0  0  0  0  0  0  0  0  0
   20.5882    3.9184   -2.4191 H   0  0  0  0  0  0  0  0  0  0  0  0
   22.4612    2.3927   -1.2247 H   0  0  0  0  0  0  0  0  0  0  0  0
   22.3847   -2.1386    1.5468 H   0  0  0  0  0  0  0  0  0  0  0  0
   20.4613   -3.6888    2.5780 H   0  0  0  0  0  0  0  0  0  0  0  0
   18.6413   -0.5234    0.4631 H   0  0  0  0  0  0  0  0  0  0  0  0
   19.8847   -6.2830    4.3697 H   0  0  0  0  0  0  0  0  0  0  0  0
   19.7442   -8.3028    5.8167 H   0  0  0  0  0  0  0  0  0  0  0  0
   15.6374   -8.1557    5.8908 H   0  0  0  0  0  0  0  0  0  0  0  0
   15.5895   -6.1301    4.4456 H   0  0  0  0  0  0  0  0  0  0  0  0
   15.1556   -3.6256    2.5201 H   0  0  0  0  0  0  0  0  0  0  0  0
   13.2921   -2.0828    1.3173 H   0  0  0  0  0  0  0  0  0  0  0  0
   32.2395   -0.1952   -0.0031 C   0  0  0  0  0  0  0  0  0  0  0  0
   31.6240   -1.0183    0.9330 C   0  0  0  0  0  0  0  0  0  0  0  0
   32.2566   -1.9059    1.8463 C   0  0  0  0  0  0  0  0  0  0  0  0
   31.2796   -2.5089    2.5903 C   0  0  0  0  0  0  0  0  0  0  0  0
   30.0247   -2.0058    2.1530 C   0  0  0  0  0  0  0  0  0  0  0  0
   30.2777   -1.1158    1.1537 N   0  0  0  0  0  0  0  0  0  0  0  0
   28.7549   -2.3358    2.6585 C   0  0  0  0  0  0  0  0  0  0  0  0
   28.7205   -3.2821    3.7070 C   0  0  0  0  0  0  0  0  0  0  0  0
   28.6890   -4.1069    4.5965 C   0  0  0  0  0  0  0  0  0  0  0  0
   28.6441   -5.0694    5.6307 C   0  0  0  0  0  0  0  0  0  0  0  0
   29.8055   -5.7054    6.0839 C   0  0  0  0  0  0  0  0  0  0  0  0
   29.7043   -6.6445    7.0949 C   0  0  0  0  0  0  0  0  0  0  0  0
   28.5496   -6.9775    7.6660 N   0  0  0  0  0  0  0  0  0  0  0  0
   27.4410   -6.3773    7.2409 C   0  0  0  0  0  0  0  0  0  0  0  0
   27.4335   -5.4263    6.2363 C   0  0  0  0  0  0  0  0  0  0  0  0
   27.5325   -1.8102    2.2080 C   0  0  0  0  0  0  0  0  0  0  0  0
   26.2559   -2.1615    2.7971 C   0  0  0  0  0  0  0  0  0  0  0  0
   25.3182   -1.4873    2.0988 C   0  0  0  0  0  0  0  0  0  0  0  0
   27.3581   -0.9396    1.1839 N   0  0  0  0  0  0  0  0  0  0  0  0
   26.0246   -0.7334    1.0825 C   0  0  0  0  0  0  0  0  0  0  0  0
   25.3744    0.0748    0.1303 C   0  0  0  0  0  0  0  0  0  0  0  0
   26.0164    0.8592   -0.8483 C   0  0  0  0  0  0  0  0  0  0  0  0
   25.3921    1.6715   -1.8294 C   0  0  0  0  0  0  0  0  0  0  0  0
   26.3747    2.2800   -2.5626 C   0  0  0  0  0  0  0  0  0  0  0  0
   27.6265    1.8487   -2.0529 C   0  0  0  0  0  0  0  0  0  0  0  0
   27.3640    0.9905   -1.0234 N   0  0  0  0  0  0  0  0  0  0  0  0
   28.8973    2.2336   -2.5160 C   0  0  0  0  0  0  0  0  0  0  0  0
   28.9258    3.1686   -3.5733 C   0  0  0  0  0  0  0  0  0  0  0  0
   28.9451    3.9765   -4.4790 C   0  0  0  0  0  0  0  0  0  0  0  0
   28.9719    4.9190   -5.5316 C   0  0  0  0  0  0  0  0  0  0  0  0
   27.7898    5.3869   -6.1178 C   0  0  0  0  0  0  0  0  0  0  0  0
   27.8708    6.3104   -7.1446 C   0  0  0  0  0  0  0  0  0  0  0  0
   29.0248    6.7831   -7.6087 N   0  0  0  0  0  0  0  0  0  0  0  0
   30.1529    6.3435   -7.0566 C   0  0  0  0  0  0  0  0  0  0  0  0
   30.1816    5.4208   -6.0263 C   0  0  0  0  0  0  0  0  0  0  0  0
   30.1248    1.7606   -2.0196 C   0  0  0  0  0  0  0  0  0  0  0  0
   31.4151    2.1797   -2.5391 C   0  0  0  0  0  0  0  0  0  0  0  0
   32.3454    1.4982   -1.8399 C   0  0  0  0  0  0  0  0  0  0  0  0
   31.6202    0.6670   -0.8951 C   0  0  0  0  0  0  0  0  0  0  0  0
   30.2808    0.8572   -1.0319 N   0  0  0  0  0  0  0  0  0  0  0  0
   33.3234   -0.2395   -0.0314 H   0  0  0  0  0  0  0  0  0  0  0  0
   33.3223   -2.0546    1.9163 H   0  0  0  0  0  0  0  0  0  0  0  0
   31.4065   -3.2367    3.3757 H   0  0  0  0  0  0  0  0  0  0  0  0
   29.5689   -0.5973    0.6458 H   0  0  0  0  0  0  0  0  0  0  0  0
   30.7668   -5.4648    5.6464 H   0  0  0  0  0  0  0  0  0  0  0  0
   30.5890   -7.1539    7.4650 H   0  0  0  0  0  0  0  0  0  0  0  0
   26.5161   -6.6729    7.7281 H   0  0  0  0  0  0  0  0  0  0  0  0
   26.5069   -4.9627    5.9199 H   0  0  0  0  0  0  0  0  0  0  0  0
   26.1238   -2.8302    3.6326 H   0  0  0  0  0  0  0  0  0  0  0  0
   24.2508   -1.4770    2.2458 H   0  0  0  0  0  0  0  0  0  0  0  0
   24.3272    1.7704   -1.9576 H   0  0  0  0  0  0  0  0  0  0  0  0
   26.2507    2.9641   -3.3864 H   0  0  0  0  0  0  0  0  0  0  0  0
   28.0705    0.5164   -0.4707 H   0  0  0  0  0  0  0  0  0  0  0  0
   26.8283    5.0286   -5.7703 H   0  0  0  0  0  0  0  0  0  0  0  0
   26.9697    6.6899   -7.6178 H   0  0  0  0  0  0  0  0  0  0  0  0
   31.0763    6.7501   -7.4589 H   0  0  0  0  0  0  0  0  0  0  0  0
   31.1233    5.0900   -5.6053 H   0  0  0  0  0  0  0  0  0  0  0  0
   31.5563    2.8972   -3.3318 H   0  0  0  0  0  0  0  0  0  0  0  0
   33.4197    1.5318   -1.9306 H   0  0  0  0  0  0  0  0  0  0  0  0
   22.7473    0.1239    0.1181 C   0  0  0  0  0  0  0  0  0  0  0  0
   23.9646    0.1039    0.1359 C   0  0  0  0  0  0  0  0  0  0  0  0
  1  2  4  0  0  0  0
  2  3  4  0  0  0  0
  3  4  2  0  0  0  0
  4  5  4  0  0  0  0
  2  6  4  0  0  0  0
  5  6  4  0  0  0  0
  5  7  4  0  0  0  0
  7  8  1  0  0  0  0
  8  9  3  0  0  0  0
  9 10  1  0  0  0  0
 10 11  4  0  0  0  0
 11 12  4  0  0  0  0
 12 13  4  0  0  0  0
 13 14  4  0  0  0  0
 10 15  4  0  0  0  0
 14 15  4  0  0  0  0
  7 16  4  0  0  0  0
 16 17  1  0  0  0  0
 17 18  2  0  0  0  0
 16 19  4  0  0  0  0
 18 20  1  0  0  0  0
 19 20  4  0  0  0  0
 20 21  4  0  0  0  0
 21 22  4  0  0  0  0
 22 23  4  0  0  0  0
 23 24  2  0  0  0  0
 24 25  4  0  0  0  0
 22 26  4  0  0  0  0
 25 26  4  0  0  0  0
 25 27  4  0  0  0  0
 27 28  1  0  0  0  0
 28 29  3  0  0  0  0
 29 30  1  0  0  0  0
 30 31  4  0  0  0  0
 31 32  4  0  0  0  0
 32 33  4  0  0  0  0
 33 34  4  0  0  0  0
 30 35  4  0  0  0  0
 34 35  4  0  0  0  0
 27 36  4  0  0  0  0
 36 37  1  0  0  0  0
 37 38  2  0  0  0  0
  1 39  4  0  0  0  0
 38 39  1  0  0  0  0
 36 40  4  0  0  0  0
 39 40  4  0  0  0  0
  1 41  1  0  0  0  0
  3 42  1  0  0  0  0
  4 43  1  0  0  0  0
  6 44  1  0  0  0  0
 11 45  1  0  0  0  0
 12 46  1  0  0  0  0
 14 47  1  0  0  0  0
 15 48  1  0  0  0  0
 17 49  1  0  0  0  0
 18 50  1  0  0  0  0
 23 51  1  0  0  0  0
 24 52  1  0  0  0  0
 26 53  1  0  0  0  0
 31 54  1  0  0  0  0
 32 55  1  0  0  0  0
 34 56  1  0  0  0  0
 35 57  1  0  0  0  0
 37 58  1  0  0  0  0
 38 59  1  0  0  0  0
 60 61  4  0  0  0  0
 61 62  4  0  0  0  0
 62 63  2  0  0  0  0
 63 64  4  0  0  0  0
 61 65  4  0  0  0  0
 64 65  4  0  0  0  0
 64 66  4  0  0  0  0
 66 67  1  0  0  0  0
 67 68  3  0  0  0  0
 68 69  1  0  0  0  0
 69 70  4  0  0  0  0
 70 71  4  0  0  0  0
 71 72  4  0  0  0  0
 72 73  4  0  0  0  0
 69 74  4  0  0  0  0
 73 74  4  0  0  0  0
 66 75  4  0  0  0  0
 75 76  1  0  0  0  0
 76 77  2  0  0  0  0
 75 78  4  0  0  0  0
 77 79  1  0  0  0  0
 78 79  4  0  0  0  0
 79 80  4  0  0  0  0
 80 81  4  0  0  0  0
 81 82  4  0  0  0  0
 82 83  2  0  0  0  0
 83 84  4  0  0  0  0
 81 85  4  0  0  0  0
 84 85  4  0  0  0  0
 84 86  4  0  0  0  0
 86 87  1  0  0  0  0
 87 88  3  0  0  0  0
 88 89  1  0  0  0  0
 89 90  4  0  0  0  0
 90 91  4  0  0  0  0
 91 92  4  0  0  0  0
 92 93  4  0  0  0  0
 89 94  4  0  0  0  0
 93 94  4  0  0  0  0
 86 95  4  0  0  0  0
 95 96  1  0  0  0  0
 96 97  2  0  0  0  0
 60 98  4  0  0  0  0
 97 98  1  0  0  0  0
 95 99  4  0  0  0  0
 98 99  4  0  0  0  0
 60100  1  0  0  0  0
 62101  1  0  0  0  0
 63102  1  0  0  0  0
 65103  1  0  0  0  0
 70104  1  0  0  0  0
 71105  1  0  0  0  0
 73106  1  0  0  0  0
 74107  1  0  0  0  0
 76108  1  0  0  0  0
 77109  1  0  0  0  0
 82110  1  0  0  0  0
 83111  1  0  0  0  0
 85112  1  0  0  0  0
 90113  1  0  0  0  0
 91114  1  0  0  0  0
 93115  1  0  0  0  0
 94116  1  0  0  0  0
 96117  1  0  0  0  0
 97118  1  0  0  0  0
 21119  4  0  0  0  0
 80120  4  0  0  0  0
119120  3  0  0  0  0
M  END
