 xtb: 6.5.1 (b24c23e)
          07302216203D

177206  0     0  0            999 V2000
   36.2937    0.0418    0.0147 Zn  0  0  0  0  0  0  0  0  0  0  0  0
   32.8795    0.0344    0.1049 C   0  0  0  0  0  0  0  0  0  0  0  0
   33.5027    1.2576    0.3192 C   0  0  0  0  0  0  0  0  0  0  0  0
   32.8220    2.5013    0.5488 C   0  0  0  0  0  0  0  0  0  0  0  0
   33.7756    3.4536    0.7003 C   0  0  0  0  0  0  0  0  0  0  0  0
   35.0519    2.8002    0.5741 C   0  0  0  0  0  0  0  0  0  0  0  0
   34.8511    1.4723    0.3380 N   0  0  0  0  0  0  0  0  0  0  0  0
   36.2992    3.4322    0.6407 C   0  0  0  0  0  0  0  0  0  0  0  0
   36.3005    4.8896    0.9204 C   0  0  0  0  0  0  0  0  0  0  0  0
   35.7965    5.3747    2.1295 C   0  0  0  0  0  0  0  0  0  0  0  0
   35.7956    6.7312    2.4002 C   0  0  0  0  0  0  0  0  0  0  0  0
   36.2966    7.6339    1.4574 C   0  0  0  0  0  0  0  0  0  0  0  0
   36.2940    9.0307    1.7312 C   0  0  0  0  0  0  0  0  0  0  0  0
   36.2905   10.1599    1.9529 N   0  0  0  0  0  0  0  0  0  0  0  0
   36.7991    7.1542    0.2442 C   0  0  0  0  0  0  0  0  0  0  0  0
   36.8019    5.7955   -0.0169 C   0  0  0  0  0  0  0  0  0  0  0  0
   37.5423    2.8119    0.4721 C   0  0  0  0  0  0  0  0  0  0  0  0
   38.8142    3.4717    0.5685 C   0  0  0  0  0  0  0  0  0  0  0  0
   39.7682    2.5276    0.3697 C   0  0  0  0  0  0  0  0  0  0  0  0
   37.7500    1.4803    0.2279 N   0  0  0  0  0  0  0  0  0  0  0  0
   39.0952    1.2794    0.1657 C   0  0  0  0  0  0  0  0  0  0  0  0
   39.7410    0.0447   -0.0536 C   0  0  0  0  0  0  0  0  0  0  0  0
   39.0888   -1.1889   -0.2594 C   0  0  0  0  0  0  0  0  0  0  0  0
   39.7550   -2.4327   -0.5072 C   0  0  0  0  0  0  0  0  0  0  0  0
   38.7955   -3.3768   -0.6778 C   0  0  0  0  0  0  0  0  0  0  0  0
   37.5275   -2.7220   -0.5170 C   0  0  0  0  0  0  0  0  0  0  0  0
   37.7425   -1.3924   -0.2681 N   0  0  0  0  0  0  0  0  0  0  0  0
   36.2798   -3.3459   -0.6292 C   0  0  0  0  0  0  0  0  0  0  0  0
   36.2713   -4.8011   -0.9196 C   0  0  0  0  0  0  0  0  0  0  0  0
   35.6995   -5.2796   -2.1010 C   0  0  0  0  0  0  0  0  0  0  0  0
   35.6870   -6.6341   -2.3809 C   0  0  0  0  0  0  0  0  0  0  0  0
   36.2448   -7.5417   -1.4754 C   0  0  0  0  0  0  0  0  0  0  0  0
   36.2305   -8.9367   -1.7578 C   0  0  0  0  0  0  0  0  0  0  0  0
   36.2202  -10.0647   -1.9856 N   0  0  0  0  0  0  0  0  0  0  0  0
   36.8157   -7.0686   -0.2901 C   0  0  0  0  0  0  0  0  0  0  0  0
   36.8292   -5.7119   -0.0197 C   0  0  0  0  0  0  0  0  0  0  0  0
   35.0352   -2.7198   -0.4923 C   0  0  0  0  0  0  0  0  0  0  0  0
   33.7567   -3.3787   -0.5505 C   0  0  0  0  0  0  0  0  0  0  0  0
   32.8087   -2.4318   -0.3415 C   0  0  0  0  0  0  0  0  0  0  0  0
   33.4955   -1.1856   -0.1453 C   0  0  0  0  0  0  0  0  0  0  0  0
   34.8417   -1.3940   -0.2393 N   0  0  0  0  0  0  0  0  0  0  0  0
   31.7944    0.0318    0.1352 H   0  0  0  0  0  0  0  0  0  0  0  0
   31.7503    2.6200    0.5796 H   0  0  0  0  0  0  0  0  0  0  0  0
   33.6324    4.5087    0.8704 H   0  0  0  0  0  0  0  0  0  0  0  0
   35.4172    4.6766    2.8674 H   0  0  0  0  0  0  0  0  0  0  0  0
   35.4084    7.0990    3.3432 H   0  0  0  0  0  0  0  0  0  0  0  0
   37.1845    7.8514   -0.4905 H   0  0  0  0  0  0  0  0  0  0  0  0
   37.1813    5.4287   -0.9640 H   0  0  0  0  0  0  0  0  0  0  0  0
   38.9594    4.5205    0.7711 H   0  0  0  0  0  0  0  0  0  0  0  0
   40.8367    2.6625    0.3600 H   0  0  0  0  0  0  0  0  0  0  0  0
   40.8230   -2.5642   -0.5480 H   0  0  0  0  0  0  0  0  0  0  0  0
   38.9344   -4.4221   -0.9015 H   0  0  0  0  0  0  0  0  0  0  0  0
   35.2759   -4.5778   -2.8106 H   0  0  0  0  0  0  0  0  0  0  0  0
   35.2464   -6.9967   -3.3023 H   0  0  0  0  0  0  0  0  0  0  0  0
   37.2454   -7.7697    0.4159 H   0  0  0  0  0  0  0  0  0  0  0  0
   37.2613   -5.3506    0.9067 H   0  0  0  0  0  0  0  0  0  0  0  0
   33.6090   -4.4338   -0.7167 H   0  0  0  0  0  0  0  0  0  0  0  0
   31.7375   -2.5555   -0.3128 H   0  0  0  0  0  0  0  0  0  0  0  0
   58.1518   -0.0172    0.0381 Zn  0  0  0  0  0  0  0  0  0  0  0  0
   61.5616   -0.0317    0.0960 C   0  0  0  0  0  0  0  0  0  0  0  0
   60.9329   -1.2421    0.3618 C   0  0  0  0  0  0  0  0  0  0  0  0
   61.6084   -2.4816    0.6272 C   0  0  0  0  0  0  0  0  0  0  0  0
   60.6507   -3.4200    0.8311 C   0  0  0  0  0  0  0  0  0  0  0  0
   59.3768   -2.7622    0.7021 C   0  0  0  0  0  0  0  0  0  0  0  0
   59.5836   -1.4460    0.4101 N   0  0  0  0  0  0  0  0  0  0  0  0
   58.1262   -3.3799    0.8245 C   0  0  0  0  0  0  0  0  0  0  0  0
   58.1152   -4.8219    1.1719 C   0  0  0  0  0  0  0  0  0  0  0  0
   58.6585   -5.2629    2.3810 C   0  0  0  0  0  0  0  0  0  0  0  0
   58.6465   -6.6060    2.7117 C   0  0  0  0  0  0  0  0  0  0  0  0
   58.0927   -7.5397    1.8308 C   0  0  0  0  0  0  0  0  0  0  0  0
   58.0799   -8.9228    2.1669 C   0  0  0  0  0  0  0  0  0  0  0  0
   58.0696  -10.0407    2.4399 N   0  0  0  0  0  0  0  0  0  0  0  0
   57.5510   -7.1045    0.6176 C   0  0  0  0  0  0  0  0  0  0  0  0
   57.5614   -5.7590    0.2964 C   0  0  0  0  0  0  0  0  0  0  0  0
   56.8856   -2.7550    0.6517 C   0  0  0  0  0  0  0  0  0  0  0  0
   55.6067   -3.3850    0.8321 C   0  0  0  0  0  0  0  0  0  0  0  0
   54.6595   -2.4423    0.5941 C   0  0  0  0  0  0  0  0  0  0  0  0
   56.6908   -1.4414    0.3205 N   0  0  0  0  0  0  0  0  0  0  0  0
   55.3479   -1.2260    0.2747 C   0  0  0  0  0  0  0  0  0  0  0  0
   54.7173   -0.0010   -0.0149 C   0  0  0  0  0  0  0  0  0  0  0  0
   55.3681    1.2176   -0.2871 C   0  0  0  0  0  0  0  0  0  0  0  0
   54.7012    2.4398   -0.6288 C   0  0  0  0  0  0  0  0  0  0  0  0
   55.6639    3.3733   -0.8386 C   0  0  0  0  0  0  0  0  0  0  0  0
   56.9308    2.7319   -0.6177 C   0  0  0  0  0  0  0  0  0  0  0  0
   56.7137    1.4204   -0.2919 N   0  0  0  0  0  0  0  0  0  0  0  0
   58.1819    3.3453   -0.7506 C   0  0  0  0  0  0  0  0  0  0  0  0
   58.1963    4.7866   -1.1010 C   0  0  0  0  0  0  0  0  0  0  0  0
   58.7850    5.2187   -2.2919 C   0  0  0  0  0  0  0  0  0  0  0  0
   58.7989    6.5609   -2.6258 C   0  0  0  0  0  0  0  0  0  0  0  0
   58.2256    7.5028   -1.7662 C   0  0  0  0  0  0  0  0  0  0  0  0
   58.2406    8.8852   -2.1050 C   0  0  0  0  0  0  0  0  0  0  0  0
   58.2533   10.0022   -2.3816 N   0  0  0  0  0  0  0  0  0  0  0  0
   57.6378    7.0764   -0.5714 C   0  0  0  0  0  0  0  0  0  0  0  0
   57.6227    5.7317   -0.2471 C   0  0  0  0  0  0  0  0  0  0  0  0
   59.4223    2.7169   -0.5854 C   0  0  0  0  0  0  0  0  0  0  0  0
   60.7054    3.3637   -0.6709 C   0  0  0  0  0  0  0  0  0  0  0  0
   61.6475    2.4174   -0.4337 C   0  0  0  0  0  0  0  0  0  0  0  0
   60.9527    1.1839   -0.1912 C   0  0  0  0  0  0  0  0  0  0  0  0
   59.6077    1.3993   -0.2858 N   0  0  0  0  0  0  0  0  0  0  0  0
   62.6470   -0.0364    0.1147 H   0  0  0  0  0  0  0  0  0  0  0  0
   62.6796   -2.6074    0.6448 H   0  0  0  0  0  0  0  0  0  0  0  0
   60.7898   -4.4690    1.0382 H   0  0  0  0  0  0  0  0  0  0  0  0
   59.0777   -4.5406    3.0725 H   0  0  0  0  0  0  0  0  0  0  0  0
   59.0641   -6.9393    3.6547 H   0  0  0  0  0  0  0  0  0  0  0  0
   57.1246   -7.8259   -0.0697 H   0  0  0  0  0  0  0  0  0  0  0  0
   57.1510   -5.4269   -0.6505 H   0  0  0  0  0  0  0  0  0  0  0  0
   55.4538   -4.4128    1.1195 H   0  0  0  0  0  0  0  0  0  0  0  0
   53.5878   -2.5521    0.6416 H   0  0  0  0  0  0  0  0  0  0  0  0
   53.6325    2.5591   -0.7098 H   0  0  0  0  0  0  0  0  0  0  0  0
   55.5296    4.4021   -1.1315 H   0  0  0  0  0  0  0  0  0  0  0  0
   59.2198    4.4900   -2.9669 H   0  0  0  0  0  0  0  0  0  0  0  0
   59.2522    6.8873   -3.5546 H   0  0  0  0  0  0  0  0  0  0  0  0
   57.1961    7.8041    0.0993 H   0  0  0  0  0  0  0  0  0  0  0  0
   57.1768    5.4066    0.6861 H   0  0  0  0  0  0  0  0  0  0  0  0
   60.8604    4.4114   -0.8734 H   0  0  0  0  0  0  0  0  0  0  0  0
   62.7197    2.5343   -0.4144 H   0  0  0  0  0  0  0  0  0  0  0  0
   41.1525    0.0436   -0.0663 C   0  0  0  0  0  0  0  0  0  0  0  0
   42.3711    0.0441   -0.0652 C   0  0  0  0  0  0  0  0  0  0  0  0
   52.0904    0.0138   -0.0430 C   0  0  0  0  0  0  0  0  0  0  0  0
   53.3068    0.0064   -0.0324 C   0  0  0  0  0  0  0  0  0  0  0  0
   47.2353    0.0311   -0.0596 Zn  0  0  0  0  0  0  0  0  0  0  0  0
   43.7823    0.0407   -0.0643 C   0  0  0  0  0  0  0  0  0  0  0  0
   44.4304   -1.1134   -0.5517 C   0  0  0  0  0  0  0  0  0  0  0  0
   43.7591   -2.2805   -1.0399 C   0  0  0  0  0  0  0  0  0  0  0  0
   44.7148   -3.1797   -1.3859 C   0  0  0  0  0  0  0  0  0  0  0  0
   45.9851   -2.5631   -1.1275 C   0  0  0  0  0  0  0  0  0  0  0  0
   45.7762   -1.3081   -0.6205 N   0  0  0  0  0  0  0  0  0  0  0  0
   47.2299   -3.1698   -1.3281 C   0  0  0  0  0  0  0  0  0  0  0  0
   47.2283   -4.5512   -1.8711 C   0  0  0  0  0  0  0  0  0  0  0  0
   46.7170   -4.8160   -3.1434 C   0  0  0  0  0  0  0  0  0  0  0  0
   46.7201   -6.1032   -3.6505 C   0  0  0  0  0  0  0  0  0  0  0  0
   47.2331   -7.1561   -2.8872 C   0  0  0  0  0  0  0  0  0  0  0  0
   47.2381   -8.4819   -3.4053 C   0  0  0  0  0  0  0  0  0  0  0  0
   47.2439   -9.5540   -3.8236 N   0  0  0  0  0  0  0  0  0  0  0  0
   47.7433   -6.8970   -1.6115 C   0  0  0  0  0  0  0  0  0  0  0  0
   47.7419   -5.6065   -1.1135 C   0  0  0  0  0  0  0  0  0  0  0  0
   48.4783   -2.5963   -1.0640 C   0  0  0  0  0  0  0  0  0  0  0  0
   49.7480   -3.2136   -1.3286 C   0  0  0  0  0  0  0  0  0  0  0  0
   50.7073   -2.3222   -0.9706 C   0  0  0  0  0  0  0  0  0  0  0  0
   48.6887   -1.3418   -0.5599 N   0  0  0  0  0  0  0  0  0  0  0  0
   50.0343   -1.1511   -0.4915 C   0  0  0  0  0  0  0  0  0  0  0  0
   50.6802    0.0200   -0.0514 C   0  0  0  0  0  0  0  0  0  0  0  0
   50.0397    1.1961    0.3826 C   0  0  0  0  0  0  0  0  0  0  0  0
   50.7178    2.3645    0.8613 C   0  0  0  0  0  0  0  0  0  0  0  0
   49.7626    3.2623    1.2137 C   0  0  0  0  0  0  0  0  0  0  0  0
   48.4902    2.6515    0.9467 C   0  0  0  0  0  0  0  0  0  0  0  0
   48.6950    1.3950    0.4453 N   0  0  0  0  0  0  0  0  0  0  0  0
   47.2443    3.2319    1.2081 C   0  0  0  0  0  0  0  0  0  0  0  0
   47.2497    4.6135    1.7509 C   0  0  0  0  0  0  0  0  0  0  0  0
   46.7404    4.8811    3.0235 C   0  0  0  0  0  0  0  0  0  0  0  0
   46.7494    6.1686    3.5298 C   0  0  0  0  0  0  0  0  0  0  0  0
   47.2661    7.2189    2.7654 C   0  0  0  0  0  0  0  0  0  0  0  0
   47.2745    8.5456    3.2812 C   0  0  0  0  0  0  0  0  0  0  0  0
   47.2843    9.6182    3.6984 N   0  0  0  0  0  0  0  0  0  0  0  0
   47.7752    6.9567    1.4899 C   0  0  0  0  0  0  0  0  0  0  0  0
   47.7681    5.6659    0.9928 C   0  0  0  0  0  0  0  0  0  0  0  0
   45.9966    2.6321    1.0053 C   0  0  0  0  0  0  0  0  0  0  0  0
   44.7291    3.2553    1.2617 C   0  0  0  0  0  0  0  0  0  0  0  0
   43.7691    2.3616    0.9129 C   0  0  0  0  0  0  0  0  0  0  0  0
   44.4353    1.1913    0.4252 C   0  0  0  0  0  0  0  0  0  0  0  0
   45.7819    1.3786    0.4970 N   0  0  0  0  0  0  0  0  0  0  0  0
   42.6906   -2.3956   -1.1082 H   0  0  0  0  0  0  0  0  0  0  0  0
   44.5712   -4.1754   -1.7732 H   0  0  0  0  0  0  0  0  0  0  0  0
   46.3295   -4.0003   -3.7435 H   0  0  0  0  0  0  0  0  0  0  0  0
   46.3270   -6.2999   -4.6411 H   0  0  0  0  0  0  0  0  0  0  0  0
   48.1383   -7.7112   -1.0154 H   0  0  0  0  0  0  0  0  0  0  0  0
   48.1287   -5.4105   -0.1198 H   0  0  0  0  0  0  0  0  0  0  0  0
   49.8870   -4.1966   -1.7490 H   0  0  0  0  0  0  0  0  0  0  0  0
   51.7775   -2.4372   -1.0355 H   0  0  0  0  0  0  0  0  0  0  0  0
   51.7885    2.4736    0.9289 H   0  0  0  0  0  0  0  0  0  0  0  0
   49.9058    4.2456    1.6318 H   0  0  0  0  0  0  0  0  0  0  0  0
   46.3498    4.0674    3.6243 H   0  0  0  0  0  0  0  0  0  0  0  0
   46.3579    6.3676    4.5206 H   0  0  0  0  0  0  0  0  0  0  0  0
   48.1737    7.7689    0.8932 H   0  0  0  0  0  0  0  0  0  0  0  0
   48.1541    5.4675   -0.0008 H   0  0  0  0  0  0  0  0  0  0  0  0
   44.5903    4.2513    1.6498 H   0  0  0  0  0  0  0  0  0  0  0  0
   42.7011    2.4824    0.9793 H   0  0  0  0  0  0  0  0  0  0  0  0
  2  3  4  0  0  0  0
  3  4  1  0  0  0  0
  4  5  2  0  0  0  0
  5  6  4  0  0  0  0
  1  7  1  0  0  0  0
  3  7  4  0  0  0  0
  6  7  4  0  0  0  0
  6  8  4  0  0  0  0
  8  9  1  0  0  0  0
  9 10  4  0  0  0  0
 10 11  4  0  0  0  0
 11 12  4  0  0  0  0
 12 13  1  0  0  0  0
 13 14  3  0  0  0  0
 12 15  4  0  0  0  0
  9 16  4  0  0  0  0
 15 16  4  0  0  0  0
  8 17  4  0  0  0  0
 17 18  4  0  0  0  0
 18 19  2  0  0  0  0
  1 20  1  0  0  0  0
 17 20  4  0  0  0  0
 19 21  4  0  0  0  0
 20 21  4  0  0  0  0
 21 22  4  0  0  0  0
 22 23  4  0  0  0  0
 23 24  4  0  0  0  0
 24 25  2  0  0  0  0
 25 26  4  0  0  0  0
  1 27  1  0  0  0  0
 23 27  4  0  0  0  0
 26 27  4  0  0  0  0
 26 28  4  0  0  0  0
 28 29  1  0  0  0  0
 29 30  4  0  0  0  0
 30 31  4  0  0  0  0
 31 32  4  0  0  0  0
 32 33  1  0  0  0  0
 33 34  3  0  0  0  0
 32 35  4  0  0  0  0
 29 36  4  0  0  0  0
 35 36  4  0  0  0  0
 28 37  4  0  0  0  0
 37 38  4  0  0  0  0
 38 39  2  0  0  0  0
  2 40  4  0  0  0  0
 39 40  1  0  0  0  0
  1 41  1  0  0  0  0
 37 41  4  0  0  0  0
 40 41  4  0  0  0  0
  2 42  1  0  0  0  0
  4 43  1  0  0  0  0
  5 44  1  0  0  0  0
 10 45  1  0  0  0  0
 11 46  1  0  0  0  0
 15 47  1  0  0  0  0
 16 48  1  0  0  0  0
 18 49  1  0  0  0  0
 19 50  1  0  0  0  0
 24 51  1  0  0  0  0
 25 52  1  0  0  0  0
 30 53  1  0  0  0  0
 31 54  1  0  0  0  0
 35 55  1  0  0  0  0
 36 56  1  0  0  0  0
 38 57  1  0  0  0  0
 39 58  1  0  0  0  0
 60 61  4  0  0  0  0
 61 62  1  0  0  0  0
 62 63  2  0  0  0  0
 63 64  4  0  0  0  0
 59 65  1  0  0  0  0
 61 65  4  0  0  0  0
 64 65  4  0  0  0  0
 64 66  4  0  0  0  0
 66 67  1  0  0  0  0
 67 68  4  0  0  0  0
 68 69  4  0  0  0  0
 69 70  4  0  0  0  0
 70 71  1  0  0  0  0
 71 72  3  0  0  0  0
 70 73  4  0  0  0  0
 67 74  4  0  0  0  0
 73 74  4  0  0  0  0
 66 75  4  0  0  0  0
 75 76  4  0  0  0  0
 76 77  2  0  0  0  0
 59 78  1  0  0  0  0
 75 78  4  0  0  0  0
 77 79  4  0  0  0  0
 78 79  4  0  0  0  0
 79 80  4  0  0  0  0
 80 81  4  0  0  0  0
 81 82  4  0  0  0  0
 82 83  2  0  0  0  0
 83 84  4  0  0  0  0
 59 85  1  0  0  0  0
 81 85  4  0  0  0  0
 84 85  4  0  0  0  0
 84 86  4  0  0  0  0
 86 87  1  0  0  0  0
 87 88  4  0  0  0  0
 88 89  4  0  0  0  0
 89 90  4  0  0  0  0
 90 91  1  0  0  0  0
 91 92  3  0  0  0  0
 90 93  4  0  0  0  0
 87 94  4  0  0  0  0
 93 94  4  0  0  0  0
 86 95  4  0  0  0  0
 95 96  4  0  0  0  0
 96 97  2  0  0  0  0
 60 98  4  0  0  0  0
 97 98  1  0  0  0  0
 59 99  1  0  0  0  0
 95 99  4  0  0  0  0
 98 99  4  0  0  0  0
 60100  1  0  0  0  0
 62101  1  0  0  0  0
 63102  1  0  0  0  0
 68103  1  0  0  0  0
 69104  1  0  0  0  0
 73105  1  0  0  0  0
 74106  1  0  0  0  0
 76107  1  0  0  0  0
 77108  1  0  0  0  0
 82109  1  0  0  0  0
 83110  1  0  0  0  0
 88111  1  0  0  0  0
 89112  1  0  0  0  0
 93113  1  0  0  0  0
 94114  1  0  0  0  0
 96115  1  0  0  0  0
 97116  1  0  0  0  0
 22117  4  0  0  0  0
117118  3  0  0  0  0
 80120  4  0  0  0  0
119120  3  0  0  0  0
118122  4  0  0  0  0
122123  4  0  0  0  0
123124  4  0  0  0  0
124125  2  0  0  0  0
125126  4  0  0  0  0
121127  1  0  0  0  0
123127  4  0  0  0  0
126127  4  0  0  0  0
126128  4  0  0  0  0
128129  1  0  0  0  0
129130  4  0  0  0  0
130131  4  0  0  0  0
131132  4  0  0  0  0
132133  1  0  0  0  0
133134  3  0  0  0  0
132135  4  0  0  0  0
129136  4  0  0  0  0
135136  4  0  0  0  0
128137  4  0  0  0  0
137138  4  0  0  0  0
138139  2  0  0  0  0
121140  1  0  0  0  0
137140  4  0  0  0  0
139141  4  0  0  0  0
140141  4  0  0  0  0
119142  4  0  0  0  0
141142  4  0  0  0  0
142143  4  0  0  0  0
143144  4  0  0  0  0
144145  2  0  0  0  0
145146  4  0  0  0  0
121147  1  0  0  0  0
143147  4  0  0  0  0
146147  4  0  0  0  0
146148  4  0  0  0  0
148149  1  0  0  0  0
149150  4  0  0  0  0
150151  4  0  0  0  0
151152  4  0  0  0  0
152153  1  0  0  0  0
153154  3  0  0  0  0
152155  4  0  0  0  0
149156  4  0  0  0  0
155156  4  0  0  0  0
148157  4  0  0  0  0
157158  4  0  0  0  0
158159  2  0  0  0  0
122160  4  0  0  0  0
159160  4  0  0  0  0
121161  1  0  0  0  0
157161  4  0  0  0  0
160161  4  0  0  0  0
124162  1  0  0  0  0
125163  1  0  0  0  0
130164  1  0  0  0  0
131165  1  0  0  0  0
135166  1  0  0  0  0
136167  1  0  0  0  0
138168  1  0  0  0  0
139169  1  0  0  0  0
144170  1  0  0  0  0
145171  1  0  0  0  0
150172  1  0  0  0  0
151173  1  0  0  0  0
155174  1  0  0  0  0
156175  1  0  0  0  0
158176  1  0  0  0  0
159177  1  0  0  0  0
M  END
