 xtb: 6.5.1 (b24c23e)
          07262216553D

126140  0     0  0            999 V2000
    7.3221   -0.0622   -0.0043 C   0  0  0  0  0  0  0  0  0  0  0  0
    7.9461   -1.3015   -0.0694 C   0  0  0  0  0  0  0  0  0  0  0  0
    7.3315   -2.5847   -0.1398 C   0  0  0  0  0  0  0  0  0  0  0  0
    8.3231   -3.5237   -0.1902 C   0  0  0  0  0  0  0  0  0  0  0  0
    9.5745   -2.8440   -0.1516 C   0  0  0  0  0  0  0  0  0  0  0  0
    9.2960   -1.5098   -0.0793 N   0  0  0  0  0  0  0  0  0  0  0  0
   10.8432   -3.4115   -0.1805 C   0  0  0  0  0  0  0  0  0  0  0  0
   12.0626   -2.7511   -0.1429 C   0  0  0  0  0  0  0  0  0  0  0  0
   13.3414   -3.4385   -0.1775 C   0  0  0  0  0  0  0  0  0  0  0  0
   14.2904   -2.4810   -0.1251 C   0  0  0  0  0  0  0  0  0  0  0  0
   12.2550   -1.4056   -0.0709 N   0  0  0  0  0  0  0  0  0  0  0  0
   13.5873   -1.2122   -0.0589 C   0  0  0  0  0  0  0  0  0  0  0  0
   14.2421    0.0358    0.0061 C   0  0  0  0  0  0  0  0  0  0  0  0
   13.5923    1.2832    0.0690 C   0  0  0  0  0  0  0  0  0  0  0  0
   14.2017    2.5654    0.1338 C   0  0  0  0  0  0  0  0  0  0  0  0
   13.2063    3.5022    0.1797 C   0  0  0  0  0  0  0  0  0  0  0  0
   11.9590    2.8181    0.1444 C   0  0  0  0  0  0  0  0  0  0  0  0
   12.2449    1.4810    0.0779 N   0  0  0  0  0  0  0  0  0  0  0  0
   10.6917    3.3864    0.1713 C   0  0  0  0  0  0  0  0  0  0  0  0
    9.4712    2.7233    0.1372 C   0  0  0  0  0  0  0  0  0  0  0  0
    8.1861    3.4045    0.1699 C   0  0  0  0  0  0  0  0  0  0  0  0
    7.2432    2.4422    0.1219 C   0  0  0  0  0  0  0  0  0  0  0  0
    7.9531    1.1745    0.0594 C   0  0  0  0  0  0  0  0  0  0  0  0
    9.2912    1.3834    0.0707 N   0  0  0  0  0  0  0  0  0  0  0  0
    6.2372   -0.0695   -0.0052 H   0  0  0  0  0  0  0  0  0  0  0  0
    6.2661   -2.7520   -0.1502 H   0  0  0  0  0  0  0  0  0  0  0  0
    8.2118   -4.5948   -0.2491 H   0  0  0  0  0  0  0  0  0  0  0  0
    9.9911   -0.7721   -0.0386 H   0  0  0  0  0  0  0  0  0  0  0  0
   10.8741   -4.4948   -0.2392 H   0  0  0  0  0  0  0  0  0  0  0  0
   13.4627   -4.5088   -0.2343 H   0  0  0  0  0  0  0  0  0  0  0  0
   15.3631   -2.5915   -0.1292 H   0  0  0  0  0  0  0  0  0  0  0  0
   15.2663    2.7361    0.1432 H   0  0  0  0  0  0  0  0  0  0  0  0
   13.3146    4.5737    0.2334 H   0  0  0  0  0  0  0  0  0  0  0  0
   11.5523    0.7404    0.0400 H   0  0  0  0  0  0  0  0  0  0  0  0
   10.6620    4.4700    0.2249 H   0  0  0  0  0  0  0  0  0  0  0  0
    8.0594    4.4747    0.2223 H   0  0  0  0  0  0  0  0  0  0  0  0
    6.1692    2.5454    0.1261 H   0  0  0  0  0  0  0  0  0  0  0  0
   51.6291    0.0571   -0.0129 C   0  0  0  0  0  0  0  0  0  0  0  0
   51.0042    1.2778   -0.2343 C   0  0  0  0  0  0  0  0  0  0  0  0
   51.6181    2.5427   -0.4638 C   0  0  0  0  0  0  0  0  0  0  0  0
   50.6259    3.4673   -0.6315 C   0  0  0  0  0  0  0  0  0  0  0  0
   49.3749    2.7968   -0.5096 C   0  0  0  0  0  0  0  0  0  0  0  0
   49.6542    1.4822   -0.2712 N   0  0  0  0  0  0  0  0  0  0  0  0
   48.1059    3.3552   -0.6101 C   0  0  0  0  0  0  0  0  0  0  0  0
   46.8869    2.7036   -0.4910 C   0  0  0  0  0  0  0  0  0  0  0  0
   45.6076    3.3802   -0.6121 C   0  0  0  0  0  0  0  0  0  0  0  0
   44.6594    2.4360   -0.4403 C   0  0  0  0  0  0  0  0  0  0  0  0
   46.6955    1.3776   -0.2509 N   0  0  0  0  0  0  0  0  0  0  0  0
   45.3633    1.1862   -0.2152 C   0  0  0  0  0  0  0  0  0  0  0  0
   44.7094   -0.0442    0.0062 C   0  0  0  0  0  0  0  0  0  0  0  0
   45.3599   -1.2732    0.2265 C   0  0  0  0  0  0  0  0  0  0  0  0
   44.7513   -2.5372    0.4538 C   0  0  0  0  0  0  0  0  0  0  0  0
   45.7473   -3.4596    0.6198 C   0  0  0  0  0  0  0  0  0  0  0  0
   46.9941   -2.7846    0.4986 C   0  0  0  0  0  0  0  0  0  0  0  0
   46.7074   -1.4672    0.2615 N   0  0  0  0  0  0  0  0  0  0  0  0
   48.2618   -3.3436    0.5999 C   0  0  0  0  0  0  0  0  0  0  0  0
   49.4819   -2.6891    0.4826 C   0  0  0  0  0  0  0  0  0  0  0  0
   50.7674   -3.3592    0.6045 C   0  0  0  0  0  0  0  0  0  0  0  0
   51.7097   -2.4103    0.4337 C   0  0  0  0  0  0  0  0  0  0  0  0
   50.9989   -1.1618    0.2076 C   0  0  0  0  0  0  0  0  0  0  0  0
   49.6609   -1.3688    0.2443 N   0  0  0  0  0  0  0  0  0  0  0  0
   52.7139    0.0651   -0.0141 H   0  0  0  0  0  0  0  0  0  0  0  0
   52.6833    2.7083   -0.4940 H   0  0  0  0  0  0  0  0  0  0  0  0
   50.7365    4.5229   -0.8231 H   0  0  0  0  0  0  0  0  0  0  0  0
   48.9595    0.7548   -0.1391 H   0  0  0  0  0  0  0  0  0  0  0  0
   48.0741    4.4227   -0.8036 H   0  0  0  0  0  0  0  0  0  0  0  0
   45.4855    4.4349   -0.8028 H   0  0  0  0  0  0  0  0  0  0  0  0
   43.5865    2.5443   -0.4588 H   0  0  0  0  0  0  0  0  0  0  0  0
   43.6868   -2.7061    0.4841 H   0  0  0  0  0  0  0  0  0  0  0  0
   45.6397   -4.5156    0.8098 H   0  0  0  0  0  0  0  0  0  0  0  0
   47.3996   -0.7370    0.1303 H   0  0  0  0  0  0  0  0  0  0  0  0
   48.2923   -4.4112    0.7923 H   0  0  0  0  0  0  0  0  0  0  0  0
   50.8950   -4.4135    0.7950 H   0  0  0  0  0  0  0  0  0  0  0  0
   52.7837   -2.5111    0.4526 H   0  0  0  0  0  0  0  0  0  0  0  0
   15.6456    0.0490    0.0059 C   0  0  0  0  0  0  0  0  0  0  0  0
   16.8706    0.0609    0.0055 C   0  0  0  0  0  0  0  0  0  0  0  0
   18.2125    0.0690    0.0058 C   0  0  0  0  0  0  0  0  0  0  0  0
   19.4436    0.0744    0.0034 C   0  0  0  0  0  0  0  0  0  0  0  0
   20.7809    0.0758    0.0029 C   0  0  0  0  0  0  0  0  0  0  0  0
   22.0120    0.0723    0.0001 C   0  0  0  0  0  0  0  0  0  0  0  0
   23.3538    0.0645   -0.0017 C   0  0  0  0  0  0  0  0  0  0  0  0
   24.5789    0.0530   -0.0011 C   0  0  0  0  0  0  0  0  0  0  0  0
   34.3724   -0.0586    0.0016 C   0  0  0  0  0  0  0  0  0  0  0  0
   35.5976   -0.0672    0.0043 C   0  0  0  0  0  0  0  0  0  0  0  0
   36.9393   -0.0727    0.0058 C   0  0  0  0  0  0  0  0  0  0  0  0
   38.1705   -0.0759    0.0082 C   0  0  0  0  0  0  0  0  0  0  0  0
   39.5078   -0.0757    0.0100 C   0  0  0  0  0  0  0  0  0  0  0  0
   40.7389   -0.0736    0.0117 C   0  0  0  0  0  0  0  0  0  0  0  0
   42.0809   -0.0676    0.0107 C   0  0  0  0  0  0  0  0  0  0  0  0
   43.3058   -0.0577    0.0089 C   0  0  0  0  0  0  0  0  0  0  0  0
   25.9814    0.0416   -0.0020 C   0  0  0  0  0  0  0  0  0  0  0  0
   26.6343    1.2898   -0.0164 C   0  0  0  0  0  0  0  0  0  0  0  0
   26.0330    2.5761   -0.0298 C   0  0  0  0  0  0  0  0  0  0  0  0
   27.0356    3.5075   -0.0437 C   0  0  0  0  0  0  0  0  0  0  0  0
   28.2771    2.8143   -0.0391 C   0  0  0  0  0  0  0  0  0  0  0  0
   27.9830    1.4783   -0.0219 N   0  0  0  0  0  0  0  0  0  0  0  0
   29.5481    3.3788   -0.0510 C   0  0  0  0  0  0  0  0  0  0  0  0
   30.7714    2.7264   -0.0455 C   0  0  0  0  0  0  0  0  0  0  0  0
   32.0446    3.4249   -0.0598 C   0  0  0  0  0  0  0  0  0  0  0  0
   33.0016    2.4739   -0.0460 C   0  0  0  0  0  0  0  0  0  0  0  0
   30.9748    1.3808   -0.0245 N   0  0  0  0  0  0  0  0  0  0  0  0
   32.3089    1.1986   -0.0234 C   0  0  0  0  0  0  0  0  0  0  0  0
   32.9699   -0.0475   -0.0008 C   0  0  0  0  0  0  0  0  0  0  0  0
   32.3172   -1.2956    0.0209 C   0  0  0  0  0  0  0  0  0  0  0  0
   32.9184   -2.5818    0.0444 C   0  0  0  0  0  0  0  0  0  0  0  0
   31.9158   -3.5132    0.0570 C   0  0  0  0  0  0  0  0  0  0  0  0
   30.6743   -2.8201    0.0417 C   0  0  0  0  0  0  0  0  0  0  0  0
   30.9684   -1.4842    0.0206 N   0  0  0  0  0  0  0  0  0  0  0  0
   29.4033   -3.3847    0.0460 C   0  0  0  0  0  0  0  0  0  0  0  0
   28.1799   -2.7324    0.0332 C   0  0  0  0  0  0  0  0  0  0  0  0
   26.9068   -3.4310    0.0392 C   0  0  0  0  0  0  0  0  0  0  0  0
   25.9498   -2.4801    0.0258 C   0  0  0  0  0  0  0  0  0  0  0  0
   26.6424   -1.2047    0.0117 C   0  0  0  0  0  0  0  0  0  0  0  0
   27.9765   -1.3868    0.0158 N   0  0  0  0  0  0  0  0  0  0  0  0
   24.9696    2.7543   -0.0289 H   0  0  0  0  0  0  0  0  0  0  0  0
   26.9345    4.5810   -0.0561 H   0  0  0  0  0  0  0  0  0  0  0  0
   28.6673    0.7291   -0.0147 H   0  0  0  0  0  0  0  0  0  0  0  0
   29.5753    4.4639   -0.0663 H   0  0  0  0  0  0  0  0  0  0  0  0
   32.1570    4.4976   -0.0777 H   0  0  0  0  0  0  0  0  0  0  0  0
   34.0734    2.5928   -0.0502 H   0  0  0  0  0  0  0  0  0  0  0  0
   33.9818   -2.7599    0.0505 H   0  0  0  0  0  0  0  0  0  0  0  0
   32.0169   -4.5866    0.0754 H   0  0  0  0  0  0  0  0  0  0  0  0
   30.2841   -0.7351    0.0062 H   0  0  0  0  0  0  0  0  0  0  0  0
   29.3761   -4.4698    0.0618 H   0  0  0  0  0  0  0  0  0  0  0  0
   26.7943   -4.5038    0.0520 H   0  0  0  0  0  0  0  0  0  0  0  0
   24.8779   -2.5991    0.0251 H   0  0  0  0  0  0  0  0  0  0  0  0
  1  2  4  0  0  0  0
  2  3  4  0  0  0  0
  3  4  2  0  0  0  0
  4  5  4  0  0  0  0
  2  6  4  0  0  0  0
  5  6  4  0  0  0  0
  5  7  4  0  0  0  0
  7  8  4  0  0  0  0
  8  9  1  0  0  0  0
  9 10  2  0  0  0  0
  8 11  4  0  0  0  0
 10 12  1  0  0  0  0
 11 12  4  0  0  0  0
 12 13  4  0  0  0  0
 13 14  4  0  0  0  0
 14 15  4  0  0  0  0
 15 16  2  0  0  0  0
 16 17  4  0  0  0  0
 14 18  4  0  0  0  0
 17 18  4  0  0  0  0
 17 19  4  0  0  0  0
 19 20  4  0  0  0  0
 20 21  1  0  0  0  0
 21 22  2  0  0  0  0
  1 23  4  0  0  0  0
 22 23  1  0  0  0  0
 20 24  4  0  0  0  0
 23 24  4  0  0  0  0
  1 25  1  0  0  0  0
  3 26  1  0  0  0  0
  4 27  1  0  0  0  0
  6 28  1  0  0  0  0
  7 29  1  0  0  0  0
  9 30  1  0  0  0  0
 10 31  1  0  0  0  0
 15 32  1  0  0  0  0
 16 33  1  0  0  0  0
 18 34  1  0  0  0  0
 19 35  1  0  0  0  0
 21 36  1  0  0  0  0
 22 37  1  0  0  0  0
 38 39  4  0  0  0  0
 39 40  4  0  0  0  0
 40 41  2  0  0  0  0
 41 42  4  0  0  0  0
 39 43  4  0  0  0  0
 42 43  4  0  0  0  0
 42 44  4  0  0  0  0
 44 45  4  0  0  0  0
 45 46  1  0  0  0  0
 46 47  2  0  0  0  0
 45 48  4  0  0  0  0
 47 49  1  0  0  0  0
 48 49  4  0  0  0  0
 49 50  4  0  0  0  0
 50 51  4  0  0  0  0
 51 52  4  0  0  0  0
 52 53  2  0  0  0  0
 53 54  4  0  0  0  0
 51 55  4  0  0  0  0
 54 55  4  0  0  0  0
 54 56  4  0  0  0  0
 56 57  4  0  0  0  0
 57 58  1  0  0  0  0
 58 59  2  0  0  0  0
 38 60  4  0  0  0  0
 59 60  1  0  0  0  0
 57 61  4  0  0  0  0
 60 61  4  0  0  0  0
 38 62  1  0  0  0  0
 40 63  1  0  0  0  0
 41 64  1  0  0  0  0
 43 65  1  0  0  0  0
 44 66  1  0  0  0  0
 46 67  1  0  0  0  0
 47 68  1  0  0  0  0
 52 69  1  0  0  0  0
 53 70  1  0  0  0  0
 55 71  1  0  0  0  0
 56 72  1  0  0  0  0
 58 73  1  0  0  0  0
 59 74  1  0  0  0  0
 13 75  4  0  0  0  0
 75 76  3  0  0  0  0
 76 77  4  0  0  0  0
 77 78  3  0  0  0  0
 78 79  4  0  0  0  0
 79 80  3  0  0  0  0
 80 81  4  0  0  0  0
 81 82  3  0  0  0  0
 83 84  3  0  0  0  0
 84 85  4  0  0  0  0
 85 86  3  0  0  0  0
 86 87  4  0  0  0  0
 87 88  3  0  0  0  0
 88 89  4  0  0  0  0
 50 90  4  0  0  0  0
 89 90  3  0  0  0  0
 82 91  4  0  0  0  0
 91 92  4  0  0  0  0
 92 93  4  0  0  0  0
 93 94  2  0  0  0  0
 94 95  4  0  0  0  0
 92 96  4  0  0  0  0
 95 96  4  0  0  0  0
 95 97  4  0  0  0  0
 97 98  4  0  0  0  0
 98 99  1  0  0  0  0
 99100  2  0  0  0  0
 98101  4  0  0  0  0
100102  1  0  0  0  0
101102  4  0  0  0  0
 83103  4  0  0  0  0
102103  4  0  0  0  0
103104  4  0  0  0  0
104105  4  0  0  0  0
105106  2  0  0  0  0
106107  4  0  0  0  0
104108  4  0  0  0  0
107108  4  0  0  0  0
107109  4  0  0  0  0
109110  4  0  0  0  0
110111  1  0  0  0  0
111112  2  0  0  0  0
 91113  4  0  0  0  0
112113  1  0  0  0  0
110114  4  0  0  0  0
113114  4  0  0  0  0
 93115  1  0  0  0  0
 94116  1  0  0  0  0
 96117  1  0  0  0  0
 97118  1  0  0  0  0
 99119  1  0  0  0  0
100120  1  0  0  0  0
105121  1  0  0  0  0
106122  1  0  0  0  0
108123  1  0  0  0  0
109124  1  0  0  0  0
111125  1  0  0  0  0
112126  1  0  0  0  0
M  END
