308

C 53.456940 -0.027303 0.078112
C 54.190816 1.195756 0.709274
C 53.596746 2.216260 1.416295
C 54.621831 3.137882 1.755579
C 55.806249 2.653036 1.234664
N 55.539038 1.440485 0.649499
C 57.226391 3.357960 1.272359
C 57.218125 4.792589 1.592928
C 56.908547 5.684535 0.627318
C 56.839616 7.165483 0.833400
N 57.286413 7.554695 2.169012
C 57.525063 6.624748 3.154189
C 57.518916 5.306247 2.923805
C 58.352390 2.658564 0.968847
C 59.651809 3.296345 0.939403
C 60.554646 2.389688 0.583696
N 58.550252 1.345949 0.629394
C 59.879268 1.122495 0.377717
C 60.545584 -0.001219 0.000891
C 59.767745 -1.371068 -0.196128
C 60.307596 -2.638530 -0.096762
C 59.281580 -3.565853 -0.407041
C 58.140244 -2.840075 -0.677148
N 58.433042 -1.508759 -0.491342
C 56.727022 -3.422837 -1.101168
C 56.736904 -4.757186 -1.714446
C 56.345361 -5.828305 -0.989830
C 56.274759 -7.227471 -1.517429
N 56.832460 -7.337323 -2.864611
C 57.136414 -6.219184 -3.609221
C 57.118310 -4.980201 -3.103108
C 55.605657 -2.680797 -0.904948
C 54.285303 -3.144866 -1.292151
C 53.399135 -2.211665 -0.956065
C 54.119927 -1.115992 -0.355123
N 55.441013 -1.438751 -0.357947
H 52.379756 0.023664 -0.023590
H 52.546295 2.295645 1.649460
H 54.505555 4.063979 2.297947
H 56.233941 0.818141 0.244576
H 56.681326 5.315386 -0.369254
H 55.807898 7.503575 0.685363
H 57.468168 7.669600 0.091939
H 56.984230 8.465363 2.490124
H 57.731006 7.030133 4.138584
H 57.726493 4.579650 3.702104
H 59.855035 4.330142 1.156925
H 61.606051 2.584716 0.475699
H 61.330371 -2.873793 0.156803
H 59.366476 -4.641924 -0.438280
H 57.750214 -0.755998 -0.515160
H 56.036654 -5.673577 0.041461
H 55.229781 -7.556151 -1.530056
H 56.830295 -7.898048 -0.853730
H 56.507596 -8.130286 -3.403203
H 57.398942 -6.406505 -4.644636
H 57.369287 -4.107400 -3.696921
H 54.061594 -4.079521 -1.773506
H 52.336435 -2.254053 -1.111995
C 115.649437 -0.019758 0.080262
C 114.915561 -1.391801 -0.028069
C 115.509631 -2.631700 0.034833
C 114.484546 -3.593731 -0.162644
C 113.300128 -2.907131 -0.349747
N 113.567340 -1.568262 -0.207866
C 111.879986 -3.526041 -0.689288
C 111.888252 -4.914158 -1.173082
C 112.197830 -5.163144 -2.463809
C 112.266762 -6.530275 -3.069308
N 111.819964 -7.565044 -2.139470
C 111.581314 -7.294079 -0.812084
C 111.587461 -6.052184 -0.312865
C 110.753987 -2.771712 -0.578551
C 109.454568 -3.298175 -0.939754
C 108.551731 -2.340205 -0.764123
N 110.556125 -1.477328 -0.175120
C 109.227109 -1.154776 -0.271208
C 108.560793 -0.001219 0.000891
C 109.338632 1.266723 0.555530
C 108.798781 2.291430 1.308066
C 109.824797 3.243016 1.533197
C 110.966133 2.768630 0.921095
N 110.673335 1.539343 0.377238
C 112.379355 3.487365 0.867945
C 112.369473 4.944556 1.050137
C 112.761016 5.472832 2.230514
C 112.831618 6.939941 2.519681
N 112.273917 7.743410 1.432756
C 111.969963 7.185715 0.210604
C 111.988067 5.866054 -0.012387
C 113.500721 2.753353 0.643553
C 114.821074 3.351816 0.559127
C 115.707242 2.381631 0.352829
C 114.986450 1.133769 0.285963
N 113.665365 1.409537 0.453693
H 116.726622 -0.009460 -0.033030
H 116.560082 -2.822066 0.191130
H 114.600822 -4.666613 -0.189901
H 112.872437 -0.825957 -0.223922
H 112.425051 -4.324137 -3.116108
H 113.298479 -6.739551 -3.373322
H 111.638209 -6.567837 -3.965125
H 112.122147 -8.508187 -2.346616
H 111.375371 -8.157460 -0.189234
H 111.379884 -5.844977 0.731529
H 109.251342 -4.291349 -1.299833
H 107.500326 -2.449012 -0.958699
H 107.776006 2.357697 1.647555
H 109.739902 4.173922 2.073862
H 111.356163 0.912206 -0.039793
H 113.069723 4.797738 3.025341
H 113.876596 7.225908 2.682202
H 112.276082 7.159950 3.437159
H 112.598781 8.701166 1.393044
H 111.707435 7.890680 -0.570546
H 111.737090 5.437358 -0.977071
H 115.044783 4.399809 0.642743
H 116.769943 2.499845 0.242664
C 63.913456 0.011512 0.003416
C 62.661186 -0.007669 -0.000932
C 65.227124 0.010746 0.005348
C 66.730258 -0.007669 -0.000932
C 77.180457 0.011512 0.003416
C 75.928187 -0.007669 -0.000932
C 78.494125 0.010746 0.005348
C 79.997259 -0.007669 -0.000932
C 90.447458 0.011512 0.003416
C 89.195188 -0.007669 -0.000932
C 91.761126 0.010746 0.005348
C 93.264260 -0.007669 -0.000932
C 103.714459 0.011512 0.003416
C 102.462189 -0.007669 -0.000932
C 105.028128 0.010746 0.005348
C 106.531261 -0.007669 -0.000932
C 67.674494 0.001532 -0.000518
C 68.450186 -0.146034 1.378578
C 67.877009 -0.126819 2.634439
C 68.917508 -0.266615 3.580582
C 70.103525 -0.365495 2.882138
N 69.810359 -0.285847 1.540574
C 71.543127 -0.512918 3.527637
C 71.566736 -0.762930 4.978161
C 71.505820 -2.034243 5.429653
C 71.565081 -2.421886 6.874370
N 71.528118 -1.257103 7.758149
C 71.699462 0.019382 7.271278
C 71.711954 0.302577 5.963154
C 72.669040 -0.404156 2.774567
C 73.981145 -0.483199 3.382531
C 74.893065 -0.322531 2.432574
N 72.865830 -0.212792 1.432765
C 74.210665 -0.158685 1.164135
C 74.893527 0.001532 -0.000518
C 74.116475 0.106826 -1.381350
C 74.682947 0.018257 -2.637386
C 73.642516 0.153187 -3.584562
C 72.464056 0.317922 -2.885532
N 72.759943 0.273517 -1.543398
C 71.028079 0.497332 -3.528588
C 71.008853 0.765719 -4.975647
C 71.113083 2.039275 -5.412699
C 71.061806 2.445344 -6.852557
N 71.056969 1.290332 -7.750150
C 70.841045 0.015269 -7.277150
C 70.822264 -0.282337 -5.972375
C 69.901569 0.400845 -2.774743
C 68.590437 0.516532 -3.378445
C 67.677481 0.362160 -2.428670
C 68.358710 0.164780 -1.164100
N 69.703624 0.194908 -1.435095
H 66.826983 -0.015182 2.856349
H 68.813198 -0.282869 4.655431
H 70.495088 -0.286317 0.788094
H 71.424577 -2.840689 4.705681
H 72.484381 -2.987978 7.059382
H 70.716752 -3.070390 7.115890
H 71.893379 -1.410648 8.689768
H 71.821281 0.792051 8.022570
H 71.841818 1.312366 5.588529
H 74.191195 -0.633705 4.426469
H 75.954309 -0.331733 2.600435
H 75.728468 -0.133152 -2.857356
H 73.741482 0.126817 -4.659976
H 72.077935 0.310994 -0.789589
H 71.225297 2.834078 -4.680014
H 70.160715 3.043176 -7.027522
H 71.929962 3.068764 -7.089964
H 70.691949 1.467580 -8.677583
H 70.687735 -0.743481 -8.036592
H 70.655558 -1.290693 -5.608866
H 68.381651 0.686996 -4.419589
H 66.616410 0.396695 -2.594284
C 80.941495 0.001532 -0.000518
C 81.717187 -0.146034 1.378578
C 81.144010 -0.126819 2.634439
C 82.184509 -0.266615 3.580582
C 83.370526 -0.365495 2.882138
N 83.077360 -0.285847 1.540574
C 84.810128 -0.512918 3.527637
C 84.833737 -0.762930 4.978161
C 84.772821 -2.034243 5.429653
C 84.832082 -2.421886 6.874370
N 84.795119 -1.257103 7.758149
C 84.966463 0.019382 7.271278
C 84.978955 0.302577 5.963154
C 85.936041 -0.404156 2.774567
C 87.248146 -0.483199 3.382531
C 88.160066 -0.322531 2.432574
N 86.132831 -0.212792 1.432765
C 87.477666 -0.158685 1.164135
C 88.160528 0.001532 -0.000518
C 87.383476 0.106826 -1.381350
C 87.949948 0.018257 -2.637386
C 86.909517 0.153187 -3.584562
C 85.731057 0.317922 -2.885532
N 86.026944 0.273517 -1.543398
C 84.295080 0.497332 -3.528588
C 84.275854 0.765719 -4.975647
C 84.380084 2.039275 -5.412699
C 84.328807 2.445344 -6.852557
N 84.323970 1.290332 -7.750150
C 84.108046 0.015269 -7.277150
C 84.089265 -0.282337 -5.972375
C 83.168570 0.400845 -2.774743
C 81.857438 0.516532 -3.378445
C 80.944482 0.362160 -2.428670
C 81.625711 0.164780 -1.164100
N 82.970625 0.194908 -1.435095
H 80.093984 -0.015182 2.856349
H 82.080199 -0.282869 4.655431
H 83.762089 -0.286317 0.788094
H 84.691578 -2.840689 4.705681
H 85.751382 -2.987978 7.059382
H 83.983753 -3.070390 7.115890
H 85.160380 -1.410648 8.689768
H 85.088282 0.792051 8.022570
H 85.108819 1.312366 5.588529
H 87.458196 -0.633705 4.426469
H 89.221310 -0.331733 2.600435
H 88.995469 -0.133152 -2.857356
H 87.008483 0.126817 -4.659976
H 85.344936 0.310994 -0.789589
H 84.492298 2.834078 -4.680014
H 83.427716 3.043176 -7.027522
H 85.196963 3.068764 -7.089964
H 83.958950 1.467580 -8.677583
H 83.954736 -0.743481 -8.036592
H 83.922559 -1.290693 -5.608866
H 81.648652 0.686996 -4.419589
H 79.883411 0.396695 -2.594284
C 94.208496 0.001532 -0.000518
C 94.984188 -0.146034 1.378578
C 94.411011 -0.126819 2.634439
C 95.451510 -0.266615 3.580582
C 96.637527 -0.365495 2.882138
N 96.344361 -0.285847 1.540574
C 98.077129 -0.512918 3.527637
C 98.100738 -0.762930 4.978161
C 98.039822 -2.034243 5.429653
C 98.099083 -2.421886 6.874370
N 98.062120 -1.257103 7.758149
C 98.233464 0.019382 7.271278
C 98.245956 0.302577 5.963154
C 99.203042 -0.404156 2.774567
C 100.515147 -0.483199 3.382531
C 101.427067 -0.322531 2.432574
N 99.399832 -0.212792 1.432765
C 100.744667 -0.158685 1.164135
C 101.427529 0.001532 -0.000518
C 100.650477 0.106826 -1.381350
C 101.216949 0.018257 -2.637386
C 100.176518 0.153187 -3.584562
C 98.998058 0.317922 -2.885532
N 99.293945 0.273517 -1.543398
C 97.562081 0.497332 -3.528588
C 97.542855 0.765719 -4.975647
C 97.647085 2.039275 -5.412699
C 97.595808 2.445344 -6.852557
N 97.590971 1.290332 -7.750150
C 97.375047 0.015269 -7.277150
C 97.356266 -0.282337 -5.972375
C 96.435571 0.400845 -2.774743
C 95.124439 0.516532 -3.378445
C 94.211483 0.362160 -2.428670
C 94.892712 0.164780 -1.164100
N 96.237626 0.194908 -1.435095
H 93.360985 -0.015182 2.856349
H 95.347200 -0.282869 4.655431
H 97.029090 -0.286317 0.788094
H 97.958579 -2.840689 4.705681
H 99.018383 -2.987978 7.059382
H 97.250754 -3.070390 7.115890
H 98.427381 -1.410648 8.689768
H 98.355283 0.792051 8.022570
H 98.375820 1.312366 5.588529
H 100.725197 -0.633705 4.426469
H 102.488311 -0.331733 2.600435
H 102.262470 -0.133152 -2.857356
H 100.275484 0.126817 -4.659976
H 98.611937 0.310994 -0.789589
H 97.759299 2.834078 -4.680014
H 96.694717 3.043176 -7.027522
H 98.463964 3.068764 -7.089964
H 97.225951 1.467580 -8.677583
H 97.221737 -0.743481 -8.036592
H 97.189560 -1.290693 -5.608866
H 94.915653 0.686996 -4.419589
H 93.150412 0.396695 -2.594284
