 xtb: 6.5.1 (b24c23e)
          07292200503D

380421  0     0  0            999 V2000
   75.0203   -0.0061   -0.0831 C   0  0  0  0  0  0  0  0  0  0  0  0
   75.6222    0.9944   -0.8377 C   0  0  0  0  0  0  0  0  0  0  0  0
   74.9721    1.9992   -1.6057 C   0  0  0  0  0  0  0  0  0  0  0  0
   75.9380    2.7733   -2.1881 C   0  0  0  0  0  0  0  0  0  0  0  0
   77.2036    2.2632   -1.7920 C   0  0  0  0  0  0  0  0  0  0  0  0
   76.9676    1.1948   -0.9811 N   0  0  0  0  0  0  0  0  0  0  0  0
   78.4699    2.7542   -2.1573 C   0  0  0  0  0  0  0  0  0  0  0  0
   78.4862    3.8785   -3.0124 C   0  0  0  0  0  0  0  0  0  0  0  0
   78.4914    4.8454   -3.7457 C   0  0  0  0  0  0  0  0  0  0  0  0
   78.5037    5.9720   -4.5993 C   0  0  0  0  0  0  0  0  0  0  0  0
   77.3132    6.5555   -5.0486 C   0  0  0  0  0  0  0  0  0  0  0  0
   77.3799    7.6576   -5.8822 C   0  0  0  0  0  0  0  0  0  0  0  0
   78.5277    8.1978   -6.2836 N   0  0  0  0  0  0  0  0  0  0  0  0
   79.6638    7.6489   -5.8610 C   0  0  0  0  0  0  0  0  0  0  0  0
   79.7067    6.5464   -5.0264 C   0  0  0  0  0  0  0  0  0  0  0  0
   79.7012    2.2214   -1.7420 C   0  0  0  0  0  0  0  0  0  0  0  0
   80.9815    2.7668   -2.1489 C   0  0  0  0  0  0  0  0  0  0  0  0
   81.9247    2.0046   -1.5565 C   0  0  0  0  0  0  0  0  0  0  0  0
   79.8783    1.1552   -0.9245 N   0  0  0  0  0  0  0  0  0  0  0  0
   81.2149    0.9978   -0.7913 C   0  0  0  0  0  0  0  0  0  0  0  0
   81.8681    0.0140   -0.0258 C   0  0  0  0  0  0  0  0  0  0  0  0
   81.2406   -0.9913    0.7353 C   0  0  0  0  0  0  0  0  0  0  0  0
   81.8841   -1.9951    1.5048 C   0  0  0  0  0  0  0  0  0  0  0  0
   80.9140   -2.7738    2.0761 C   0  0  0  0  0  0  0  0  0  0  0  0
   79.6529   -2.2645    1.6709 C   0  0  0  0  0  0  0  0  0  0  0  0
   79.8968   -1.1897    0.8643 N   0  0  0  0  0  0  0  0  0  0  0  0
   78.3879   -2.7640    2.0270 C   0  0  0  0  0  0  0  0  0  0  0  0
   78.3671   -3.8962    2.8700 C   0  0  0  0  0  0  0  0  0  0  0  0
   78.3475   -4.8727    3.5906 C   0  0  0  0  0  0  0  0  0  0  0  0
   78.3174   -6.0106    4.4282 C   0  0  0  0  0  0  0  0  0  0  0  0
   79.4979   -6.6138    4.8782 C   0  0  0  0  0  0  0  0  0  0  0  0
   79.4124   -7.7270    5.6951 C   0  0  0  0  0  0  0  0  0  0  0  0
   78.2555   -8.2602    6.0797 N   0  0  0  0  0  0  0  0  0  0  0  0
   77.1288   -7.6926    5.6564 C   0  0  0  0  0  0  0  0  0  0  0  0
   77.1047   -6.5778    4.8376 C   0  0  0  0  0  0  0  0  0  0  0  0
   77.1556   -2.2284    1.6111 C   0  0  0  0  0  0  0  0  0  0  0  0
   75.8688   -2.7724    2.0090 C   0  0  0  0  0  0  0  0  0  0  0  0
   74.9321   -2.0006    1.4210 C   0  0  0  0  0  0  0  0  0  0  0  0
   75.6501   -0.9891    0.6651 C   0  0  0  0  0  0  0  0  0  0  0  0
   76.9917   -1.1603    0.8058 N   0  0  0  0  0  0  0  0  0  0  0  0
   73.9351   -0.0109   -0.0875 H   0  0  0  0  0  0  0  0  0  0  0  0
   73.9027    2.1057   -1.6939 H   0  0  0  0  0  0  0  0  0  0  0  0
   75.7968    3.6237   -2.8358 H   0  0  0  0  0  0  0  0  0  0  0  0
   77.6881    0.6288   -0.5456 H   0  0  0  0  0  0  0  0  0  0  0  0
   76.3562    6.1477   -4.7461 H   0  0  0  0  0  0  0  0  0  0  0  0
   76.4719    8.1303   -6.2456 H   0  0  0  0  0  0  0  0  0  0  0  0
   80.5818    8.1149   -6.2073 H   0  0  0  0  0  0  0  0  0  0  0  0
   80.6545    6.1313   -4.7060 H   0  0  0  0  0  0  0  0  0  0  0  0
   81.1110    3.6171   -2.7993 H   0  0  0  0  0  0  0  0  0  0  0  0
   82.9977    2.0926   -1.6145 H   0  0  0  0  0  0  0  0  0  0  0  0
   82.9525   -2.1012    1.6021 H   0  0  0  0  0  0  0  0  0  0  0  0
   81.0515   -3.6263    2.7216 H   0  0  0  0  0  0  0  0  0  0  0  0
   79.1791   -0.6235    0.4240 H   0  0  0  0  0  0  0  0  0  0  0  0
   80.4616   -6.2124    4.5890 H   0  0  0  0  0  0  0  0  0  0  0  0
   80.3122   -8.2150    6.0586 H   0  0  0  0  0  0  0  0  0  0  0  0
   76.2029   -8.1530    5.9890 H   0  0  0  0  0  0  0  0  0  0  0  0
   76.1639   -6.1476    4.5159 H   0  0  0  0  0  0  0  0  0  0  0  0
   75.7336   -3.6278    2.6517 H   0  0  0  0  0  0  0  0  0  0  0  0
   73.8578   -2.0816    1.4732 H   0  0  0  0  0  0  0  0  0  0  0  0
  162.2857   -0.1084    0.0387 C   0  0  0  0  0  0  0  0  0  0  0  0
  161.6787   -0.9463    0.9672 C   0  0  0  0  0  0  0  0  0  0  0  0
  162.3233   -1.8085    1.8963 C   0  0  0  0  0  0  0  0  0  0  0  0
  161.3532   -2.4511    2.6157 C   0  0  0  0  0  0  0  0  0  0  0  0
  160.0906   -1.9984    2.1471 C   0  0  0  0  0  0  0  0  0  0  0  0
  160.3324   -1.0955    1.1567 N   0  0  0  0  0  0  0  0  0  0  0  0
  158.8217   -2.3930    2.6074 C   0  0  0  0  0  0  0  0  0  0  0  0
  158.7960   -3.3536    3.6428 C   0  0  0  0  0  0  0  0  0  0  0  0
  158.7770   -4.1857    4.5260 C   0  0  0  0  0  0  0  0  0  0  0  0
  158.7436   -5.1581    5.5513 C   0  0  0  0  0  0  0  0  0  0  0  0
  159.9218   -5.6881    6.0902 C   0  0  0  0  0  0  0  0  0  0  0  0
  159.8324   -6.6403    7.0899 C   0  0  0  0  0  0  0  0  0  0  0  0
  158.6737   -7.0834    7.5712 N   0  0  0  0  0  0  0  0  0  0  0  0
  157.5492   -6.5842    7.0644 C   0  0  0  0  0  0  0  0  0  0  0  0
  157.5290   -5.6293    6.0636 C   0  0  0  0  0  0  0  0  0  0  0  0
  157.5939   -1.9155    2.1207 C   0  0  0  0  0  0  0  0  0  0  0  0
  156.3109   -2.3483    2.6387 C   0  0  0  0  0  0  0  0  0  0  0  0
  155.3722   -1.6860    1.9304 C   0  0  0  0  0  0  0  0  0  0  0  0
  157.4229   -1.0124    1.1246 N   0  0  0  0  0  0  0  0  0  0  0  0
  156.0876   -0.8537    0.9824 C   0  0  0  0  0  0  0  0  0  0  0  0
  155.4390   -0.0207    0.0512 C   0  0  0  0  0  0  0  0  0  0  0  0
  156.0714    0.8079   -0.8960 C   0  0  0  0  0  0  0  0  0  0  0  0
  155.4331    1.6532   -1.8403 C   0  0  0  0  0  0  0  0  0  0  0  0
  156.4075    2.2888   -2.5619 C   0  0  0  0  0  0  0  0  0  0  0  0
  157.6659    1.8475   -2.0765 C   0  0  0  0  0  0  0  0  0  0  0  0
  157.4162    0.9550   -1.0733 N   0  0  0  0  0  0  0  0  0  0  0  0
  158.9338    2.2485   -2.5327 C   0  0  0  0  0  0  0  0  0  0  0  0
  158.9624    3.1916   -3.5828 C   0  0  0  0  0  0  0  0  0  0  0  0
  158.9913    4.0028   -4.4852 C   0  0  0  0  0  0  0  0  0  0  0  0
  159.0342    4.9475   -5.5355 C   0  0  0  0  0  0  0  0  0  0  0  0
  157.8611    5.4525   -6.1086 C   0  0  0  0  0  0  0  0  0  0  0  0
  157.9599    6.3757   -7.1342 C   0  0  0  0  0  0  0  0  0  0  0  0
  159.1231    6.8136   -7.6095 N   0  0  0  0  0  0  0  0  0  0  0  0
  160.2428    6.3384   -7.0700 C   0  0  0  0  0  0  0  0  0  0  0  0
  160.2536    5.4134   -6.0415 C   0  0  0  0  0  0  0  0  0  0  0  0
  160.1630    1.7865   -2.0283 C   0  0  0  0  0  0  0  0  0  0  0  0
  161.4530    2.2280   -2.5296 C   0  0  0  0  0  0  0  0  0  0  0  0
  162.3851    1.5697   -1.8109 C   0  0  0  0  0  0  0  0  0  0  0  0
  161.6614    0.7286   -0.8736 C   0  0  0  0  0  0  0  0  0  0  0  0
  160.3208    0.8888   -1.0356 N   0  0  0  0  0  0  0  0  0  0  0  0
  163.3709   -0.1191    0.0335 H   0  0  0  0  0  0  0  0  0  0  0  0
  163.3920   -1.9153    1.9920 H   0  0  0  0  0  0  0  0  0  0  0  0
  161.4896   -3.1750    3.4031 H   0  0  0  0  0  0  0  0  0  0  0  0
  159.6149   -0.6048    0.6336 H   0  0  0  0  0  0  0  0  0  0  0  0
  160.8869   -5.3558    5.7273 H   0  0  0  0  0  0  0  0  0  0  0  0
  160.7303   -7.0688    7.5256 H   0  0  0  0  0  0  0  0  0  0  0  0
  156.6217   -6.9679    7.4797 H   0  0  0  0  0  0  0  0  0  0  0  0
  156.5900   -5.2500    5.6793 H   0  0  0  0  0  0  0  0  0  0  0  0
  156.1764   -3.0615    3.4362 H   0  0  0  0  0  0  0  0  0  0  0  0
  154.2990   -1.7375    2.0192 H   0  0  0  0  0  0  0  0  0  0  0  0
  154.3653    1.7560   -1.9465 H   0  0  0  0  0  0  0  0  0  0  0  0
  156.2746    3.0011   -3.3603 H   0  0  0  0  0  0  0  0  0  0  0  0
  158.1309    0.4726   -0.5385 H   0  0  0  0  0  0  0  0  0  0  0  0
  156.8926    5.1231   -5.7520 H   0  0  0  0  0  0  0  0  0  0  0  0
  157.0661    6.7839   -7.5972 H   0  0  0  0  0  0  0  0  0  0  0  0
  161.1742    6.7170   -7.4814 H   0  0  0  0  0  0  0  0  0  0  0  0
  161.1891    5.0528   -5.6312 H   0  0  0  0  0  0  0  0  0  0  0  0
  161.5931    2.9443   -3.3236 H   0  0  0  0  0  0  0  0  0  0  0  0
  163.4599    1.6253   -1.8837 H   0  0  0  0  0  0  0  0  0  0  0  0
   87.0719    0.0127    0.0331 C   0  0  0  0  0  0  0  0  0  0  0  0
   85.8440    0.0218    0.0191 C   0  0  0  0  0  0  0  0  0  0  0  0
   84.4985    0.0211    0.0052 C   0  0  0  0  0  0  0  0  0  0  0  0
   83.2751    0.0204   -0.0110 C   0  0  0  0  0  0  0  0  0  0  0  0
   88.4171   -0.0008    0.0445 C   0  0  0  0  0  0  0  0  0  0  0  0
   89.6407   -0.0104    0.0513 C   0  0  0  0  0  0  0  0  0  0  0  0
  103.1700   -0.0804    0.0310 C   0  0  0  0  0  0  0  0  0  0  0  0
  101.9411   -0.0803    0.0345 C   0  0  0  0  0  0  0  0  0  0  0  0
  100.5972   -0.0815    0.0385 C   0  0  0  0  0  0  0  0  0  0  0  0
   99.3727   -0.0845    0.0403 C   0  0  0  0  0  0  0  0  0  0  0  0
  104.5138   -0.0809    0.0271 C   0  0  0  0  0  0  0  0  0  0  0  0
  105.7384   -0.0796    0.0282 C   0  0  0  0  0  0  0  0  0  0  0  0
  119.2703   -0.0280    0.0119 C   0  0  0  0  0  0  0  0  0  0  0  0
  118.0413   -0.0241    0.0113 C   0  0  0  0  0  0  0  0  0  0  0  0
  116.6975   -0.0244    0.0119 C   0  0  0  0  0  0  0  0  0  0  0  0
  115.4729   -0.0295    0.0112 C   0  0  0  0  0  0  0  0  0  0  0  0
  120.6140   -0.0354    0.0137 C   0  0  0  0  0  0  0  0  0  0  0  0
  121.8386   -0.0463    0.0180 C   0  0  0  0  0  0  0  0  0  0  0  0
  135.3688   -0.0372    0.0290 C   0  0  0  0  0  0  0  0  0  0  0  0
  134.1399   -0.0484    0.0280 C   0  0  0  0  0  0  0  0  0  0  0  0
  132.7963   -0.0624    0.0297 C   0  0  0  0  0  0  0  0  0  0  0  0
  131.5718   -0.0752    0.0261 C   0  0  0  0  0  0  0  0  0  0  0  0
  136.7126   -0.0303    0.0326 C   0  0  0  0  0  0  0  0  0  0  0  0
  137.9370   -0.0281    0.0386 C   0  0  0  0  0  0  0  0  0  0  0  0
  151.4637   -0.0105    0.0569 C   0  0  0  0  0  0  0  0  0  0  0  0
  150.2356   -0.0184    0.0604 C   0  0  0  0  0  0  0  0  0  0  0  0
  148.8907   -0.0291    0.0635 C   0  0  0  0  0  0  0  0  0  0  0  0
  147.6669   -0.0414    0.0628 C   0  0  0  0  0  0  0  0  0  0  0  0
  152.8088   -0.0073    0.0546 C   0  0  0  0  0  0  0  0  0  0  0  0
  154.0325   -0.0096    0.0529 C   0  0  0  0  0  0  0  0  0  0  0  0
   91.0468   -0.0331    0.0533 C   0  0  0  0  0  0  0  0  0  0  0  0
   91.6732   -0.2744   -1.1854 C   0  0  0  0  0  0  0  0  0  0  0  0
   91.0331   -0.5083   -2.4287 C   0  0  0  0  0  0  0  0  0  0  0  0
   92.0071   -0.7141   -3.3695 C   0  0  0  0  0  0  0  0  0  0  0  0
   93.2652   -0.6081   -2.7232 C   0  0  0  0  0  0  0  0  0  0  0  0
   93.0179   -0.3411   -1.4077 N   0  0  0  0  0  0  0  0  0  0  0  0
   94.5315   -0.7492   -3.3212 C   0  0  0  0  0  0  0  0  0  0  0  0
   94.5395   -1.0453   -4.7027 C   0  0  0  0  0  0  0  0  0  0  0  0
   94.5405   -1.3096   -5.8871 C   0  0  0  0  0  0  0  0  0  0  0  0
   94.5499   -1.6223   -7.2656 C   0  0  0  0  0  0  0  0  0  0  0  0
   95.7519   -1.7973   -7.9614 C   0  0  0  0  0  0  0  0  0  0  0  0
   95.7069   -2.1062   -9.3092 C   0  0  0  0  0  0  0  0  0  0  0  0
   94.5698   -2.2470   -9.9857 N   0  0  0  0  0  0  0  0  0  0  0  0
   93.4230   -2.0819   -9.3316 C   0  0  0  0  0  0  0  0  0  0  0  0
   93.3583   -1.7718   -7.9849 C   0  0  0  0  0  0  0  0  0  0  0  0
   95.7693   -0.6239   -2.6717 C   0  0  0  0  0  0  0  0  0  0  0  0
   97.0410   -0.7640   -3.3539 C   0  0  0  0  0  0  0  0  0  0  0  0
   97.9964   -0.5739   -2.4197 C   0  0  0  0  0  0  0  0  0  0  0  0
   95.9635   -0.3585   -1.3567 N   0  0  0  0  0  0  0  0  0  0  0  0
   97.3023   -0.3230   -1.1722 C   0  0  0  0  0  0  0  0  0  0  0  0
   97.9684   -0.0865    0.0455 C   0  0  0  0  0  0  0  0  0  0  0  0
   97.3411    0.1441    1.2866 C   0  0  0  0  0  0  0  0  0  0  0  0
   97.9809    0.3693    2.5316 C   0  0  0  0  0  0  0  0  0  0  0  0
   97.0064    0.5366    3.4795 C   0  0  0  0  0  0  0  0  0  0  0  0
   95.7482    0.4196    2.8353 C   0  0  0  0  0  0  0  0  0  0  0  0
   95.9965    0.1836    1.5136 N   0  0  0  0  0  0  0  0  0  0  0  0
   94.4818    0.5276    3.4392 C   0  0  0  0  0  0  0  0  0  0  0  0
   94.4722    0.7635    4.8322 C   0  0  0  0  0  0  0  0  0  0  0  0
   94.4681    0.9600    6.0297 C   0  0  0  0  0  0  0  0  0  0  0  0
   94.4565    1.1862    7.4250 C   0  0  0  0  0  0  0  0  0  0  0  0
   93.2535    1.2924    8.1328 C   0  0  0  0  0  0  0  0  0  0  0  0
   93.2966    1.5112    9.4982 C   0  0  0  0  0  0  0  0  0  0  0  0
   94.4329    1.6274   10.1808 N   0  0  0  0  0  0  0  0  0  0  0  0
   95.5807    1.5280    9.5151 C   0  0  0  0  0  0  0  0  0  0  0  0
   95.6473    1.3098    8.1506 C   0  0  0  0  0  0  0  0  0  0  0  0
   93.2438    0.4231    2.7853 C   0  0  0  0  0  0  0  0  0  0  0  0
   91.9718    0.5587    3.4683 C   0  0  0  0  0  0  0  0  0  0  0  0
   91.0167    0.4067    2.5269 C   0  0  0  0  0  0  0  0  0  0  0  0
   91.7110    0.1763    1.2755 C   0  0  0  0  0  0  0  0  0  0  0  0
   93.0505    0.1925    1.4645 N   0  0  0  0  0  0  0  0  0  0  0  0
   89.9653   -0.5185   -2.5761 H   0  0  0  0  0  0  0  0  0  0  0  0
   91.8723   -0.9205   -4.4190 H   0  0  0  0  0  0  0  0  0  0  0  0
   93.7298   -0.2144   -0.6960 H   0  0  0  0  0  0  0  0  0  0  0  0
   96.7004   -1.6923   -7.4488 H   0  0  0  0  0  0  0  0  0  0  0  0
   96.6240   -2.2480   -9.8736 H   0  0  0  0  0  0  0  0  0  0  0  0
   92.5144   -2.2041   -9.9140 H   0  0  0  0  0  0  0  0  0  0  0  0
   92.4023   -1.6465   -7.4911 H   0  0  0  0  0  0  0  0  0  0  0  0
   97.1575   -0.9764   -4.4046 H   0  0  0  0  0  0  0  0  0  0  0  0
   99.0682   -0.5975   -2.5354 H   0  0  0  0  0  0  0  0  0  0  0  0
   99.0488    0.3969    2.6759 H   0  0  0  0  0  0  0  0  0  0  0  0
   97.1409    0.7254    4.5324 H   0  0  0  0  0  0  0  0  0  0  0  0
   95.2848    0.0541    0.8023 H   0  0  0  0  0  0  0  0  0  0  0  0
   92.3055    1.2035    7.6161 H   0  0  0  0  0  0  0  0  0  0  0  0
   92.3786    1.5972   10.0724 H   0  0  0  0  0  0  0  0  0  0  0  0
   96.4887    1.6277   10.1030 H   0  0  0  0  0  0  0  0  0  0  0  0
   96.6041    1.2350    7.6481 H   0  0  0  0  0  0  0  0  0  0  0  0
   91.8550    0.7461    4.5237 H   0  0  0  0  0  0  0  0  0  0  0  0
   89.9450    0.4411    2.6402 H   0  0  0  0  0  0  0  0  0  0  0  0
  107.1426   -0.0806    0.0264 C   0  0  0  0  0  0  0  0  0  0  0  0
  107.7728   -0.3314   -1.2095 C   0  0  0  0  0  0  0  0  0  0  0  0
  107.1363   -0.5908   -2.4493 C   0  0  0  0  0  0  0  0  0  0  0  0
  108.1135   -0.7860   -3.3893 C   0  0  0  0  0  0  0  0  0  0  0  0
  109.3697   -0.6485   -2.7458 C   0  0  0  0  0  0  0  0  0  0  0  0
  109.1180   -0.3744   -1.4323 N   0  0  0  0  0  0  0  0  0  0  0  0
  110.6380   -0.7682   -3.3444 C   0  0  0  0  0  0  0  0  0  0  0  0
  110.6503   -1.0674   -4.7253 C   0  0  0  0  0  0  0  0  0  0  0  0
  110.6575   -1.3307   -5.9099 C   0  0  0  0  0  0  0  0  0  0  0  0
  110.6739   -1.6400   -7.2891 C   0  0  0  0  0  0  0  0  0  0  0  0
  111.8796   -1.7987   -7.9823 C   0  0  0  0  0  0  0  0  0  0  0  0
  111.8417   -2.1036   -9.3312 C   0  0  0  0  0  0  0  0  0  0  0  0
  110.7080   -2.2553  -10.0112 N   0  0  0  0  0  0  0  0  0  0  0  0
  109.5577   -2.1058   -9.3595 C   0  0  0  0  0  0  0  0  0  0  0  0
  109.4860   -1.8012   -8.0118 C   0  0  0  0  0  0  0  0  0  0  0  0
  111.8744   -0.6192   -2.6974 C   0  0  0  0  0  0  0  0  0  0  0  0
  113.1473   -0.7445   -3.3803 C   0  0  0  0  0  0  0  0  0  0  0  0
  114.1011   -0.5384   -2.4478 C   0  0  0  0  0  0  0  0  0  0  0  0
  112.0664   -0.3447   -1.3838 N   0  0  0  0  0  0  0  0  0  0  0  0
  113.4048   -0.2910   -1.2008 C   0  0  0  0  0  0  0  0  0  0  0  0
  114.0688   -0.0405    0.0153 C   0  0  0  0  0  0  0  0  0  0  0  0
  113.4387    0.1953    1.2542 C   0  0  0  0  0  0  0  0  0  0  0  0
  114.0752    0.4391    2.4971 C   0  0  0  0  0  0  0  0  0  0  0  0
  113.0982    0.6078    3.4424 C   0  0  0  0  0  0  0  0  0  0  0  0
  111.8420    0.4724    2.7984 C   0  0  0  0  0  0  0  0  0  0  0  0
  112.0935    0.2250    1.4795 N   0  0  0  0  0  0  0  0  0  0  0  0
  110.5738    0.5749    3.4004 C   0  0  0  0  0  0  0  0  0  0  0  0
  110.5622    0.8273    4.7906 C   0  0  0  0  0  0  0  0  0  0  0  0
  110.5568    1.0373    5.9858 C   0  0  0  0  0  0  0  0  0  0  0  0
  110.5443    1.2788    7.3785 C   0  0  0  0  0  0  0  0  0  0  0  0
  109.3408    1.3914    8.0846 C   0  0  0  0  0  0  0  0  0  0  0  0
  109.3831    1.6255    9.4475 C   0  0  0  0  0  0  0  0  0  0  0  0
  110.5190    1.7506   10.1292 N   0  0  0  0  0  0  0  0  0  0  0  0
  111.6672    1.6452    9.4652 C   0  0  0  0  0  0  0  0  0  0  0  0
  111.7346    1.4120    8.1031 C   0  0  0  0  0  0  0  0  0  0  0  0
  109.3372    0.4489    2.7488 C   0  0  0  0  0  0  0  0  0  0  0  0
  108.0643    0.5785    3.4309 C   0  0  0  0  0  0  0  0  0  0  0  0
  107.1104    0.4005    2.4928 C   0  0  0  0  0  0  0  0  0  0  0  0
  107.8066    0.1604    1.2443 C   0  0  0  0  0  0  0  0  0  0  0  0
  109.1452    0.1971    1.4308 N   0  0  0  0  0  0  0  0  0  0  0  0
  106.0688   -0.6235   -2.5954 H   0  0  0  0  0  0  0  0  0  0  0  0
  107.9817   -1.0053   -4.4366 H   0  0  0  0  0  0  0  0  0  0  0  0
  109.8277   -0.2260   -0.7225 H   0  0  0  0  0  0  0  0  0  0  0  0
  112.8255   -1.6841   -7.4670 H   0  0  0  0  0  0  0  0  0  0  0  0
  112.7617   -2.2327   -9.8938 H   0  0  0  0  0  0  0  0  0  0  0  0
  108.6520   -2.2366   -9.9446 H   0  0  0  0  0  0  0  0  0  0  0  0
  108.5273   -1.6886   -7.5201 H   0  0  0  0  0  0  0  0  0  0  0  0
  113.2657   -0.9598   -4.4302 H   0  0  0  0  0  0  0  0  0  0  0  0
  115.1729   -0.5482   -2.5644 H   0  0  0  0  0  0  0  0  0  0  0  0
  115.1427    0.4781    2.6420 H   0  0  0  0  0  0  0  0  0  0  0  0
  113.2300    0.8089    4.4933 H   0  0  0  0  0  0  0  0  0  0  0  0
  111.3838    0.0809    0.7689 H   0  0  0  0  0  0  0  0  0  0  0  0
  108.3932    1.2957    7.5685 H   0  0  0  0  0  0  0  0  0  0  0  0
  108.4649    1.7169   10.0204 H   0  0  0  0  0  0  0  0  0  0  0  0
  112.5749    1.7523   10.0522 H   0  0  0  0  0  0  0  0  0  0  0  0
  112.6917    1.3327    7.6018 H   0  0  0  0  0  0  0  0  0  0  0  0
  107.9460    0.7797    4.4836 H   0  0  0  0  0  0  0  0  0  0  0  0
  106.0385    0.4226    2.6070 H   0  0  0  0  0  0  0  0  0  0  0  0
  123.2427   -0.0618    0.0204 C   0  0  0  0  0  0  0  0  0  0  0  0
  123.8738   -0.3197   -1.2136 C   0  0  0  0  0  0  0  0  0  0  0  0
  123.2382   -0.5711   -2.4554 C   0  0  0  0  0  0  0  0  0  0  0  0
  124.2159   -0.7770   -3.3926 C   0  0  0  0  0  0  0  0  0  0  0  0
  125.4716   -0.6545   -2.7452 C   0  0  0  0  0  0  0  0  0  0  0  0
  125.2191   -0.3784   -1.4322 N   0  0  0  0  0  0  0  0  0  0  0  0
  126.7403   -0.7874   -3.3400 C   0  0  0  0  0  0  0  0  0  0  0  0
  126.7547   -1.0827   -4.7217 C   0  0  0  0  0  0  0  0  0  0  0  0
  126.7659   -1.3400   -5.9076 C   0  0  0  0  0  0  0  0  0  0  0  0
  126.7884   -1.6404   -7.2887 C   0  0  0  0  0  0  0  0  0  0  0  0
  127.9974   -1.7938   -7.9773 C   0  0  0  0  0  0  0  0  0  0  0  0
  127.9659   -2.0885   -9.3286 C   0  0  0  0  0  0  0  0  0  0  0  0
  126.8355   -2.2353  -10.0151 N   0  0  0  0  0  0  0  0  0  0  0  0
  125.6821   -2.0910   -9.3677 C   0  0  0  0  0  0  0  0  0  0  0  0
  125.6040   -1.7964   -8.0182 C   0  0  0  0  0  0  0  0  0  0  0  0
  127.9763   -0.6517   -2.6891 C   0  0  0  0  0  0  0  0  0  0  0  0
  129.2499   -0.7885   -3.3683 C   0  0  0  0  0  0  0  0  0  0  0  0
  130.2028   -0.5890   -2.4333 C   0  0  0  0  0  0  0  0  0  0  0  0
  128.1667   -0.3784   -1.3751 N   0  0  0  0  0  0  0  0  0  0  0  0
  129.5051   -0.3346   -1.1886 C   0  0  0  0  0  0  0  0  0  0  0  0
  130.1677   -0.0861    0.0285 C   0  0  0  0  0  0  0  0  0  0  0  0
  129.5366    0.1512    1.2665 C   0  0  0  0  0  0  0  0  0  0  0  0
  130.1722    0.3885    2.5111 C   0  0  0  0  0  0  0  0  0  0  0  0
  129.1944    0.5643    3.4543 C   0  0  0  0  0  0  0  0  0  0  0  0
  127.9387    0.4404    2.8072 C   0  0  0  0  0  0  0  0  0  0  0  0
  128.1912    0.1909    1.4890 N   0  0  0  0  0  0  0  0  0  0  0  0
  126.6699    0.5570    3.4055 C   0  0  0  0  0  0  0  0  0  0  0  0
  126.6577    0.8144    4.7947 C   0  0  0  0  0  0  0  0  0  0  0  0
  126.6544    1.0317    5.9887 C   0  0  0  0  0  0  0  0  0  0  0  0
  126.6450    1.2838    7.3795 C   0  0  0  0  0  0  0  0  0  0  0  0
  125.4434    1.4067    8.0871 C   0  0  0  0  0  0  0  0  0  0  0  0
  125.4894    1.6523    9.4478 C   0  0  0  0  0  0  0  0  0  0  0  0
  126.6271    1.7792   10.1261 N   0  0  0  0  0  0  0  0  0  0  0  0
  127.7736    1.6638    9.4607 C   0  0  0  0  0  0  0  0  0  0  0  0
  127.8372    1.4186    8.1006 C   0  0  0  0  0  0  0  0  0  0  0  0
  125.4341    0.4436    2.7502 C   0  0  0  0  0  0  0  0  0  0  0  0
  124.1606    0.5885    3.4278 C   0  0  0  0  0  0  0  0  0  0  0  0
  123.2078    0.4208    2.4866 C   0  0  0  0  0  0  0  0  0  0  0  0
  123.9054    0.1719    1.2406 C   0  0  0  0  0  0  0  0  0  0  0  0
  125.2436    0.1931    1.4316 N   0  0  0  0  0  0  0  0  0  0  0  0
  122.1708   -0.5912   -2.6049 H   0  0  0  0  0  0  0  0  0  0  0  0
  124.0849   -0.9940   -4.4405 H   0  0  0  0  0  0  0  0  0  0  0  0
  125.9284   -0.2383   -0.7203 H   0  0  0  0  0  0  0  0  0  0  0  0
  128.9408   -1.6829   -7.4567 H   0  0  0  0  0  0  0  0  0  0  0  0
  128.8886   -2.2131   -9.8878 H   0  0  0  0  0  0  0  0  0  0  0  0
  124.7792   -2.2176   -9.9581 H   0  0  0  0  0  0  0  0  0  0  0  0
  124.6429   -1.6877   -7.5302 H   0  0  0  0  0  0  0  0  0  0  0  0
  129.3696   -1.0062   -4.4175 H   0  0  0  0  0  0  0  0  0  0  0  0
  131.2748   -0.6080   -2.5469 H   0  0  0  0  0  0  0  0  0  0  0  0
  131.2397    0.4181    2.6586 H   0  0  0  0  0  0  0  0  0  0  0  0
  129.3255    0.7632    4.5057 H   0  0  0  0  0  0  0  0  0  0  0  0
  127.4820    0.0542    0.7764 H   0  0  0  0  0  0  0  0  0  0  0  0
  124.4944    1.3102    7.5737 H   0  0  0  0  0  0  0  0  0  0  0  0
  124.5727    1.7520   10.0218 H   0  0  0  0  0  0  0  0  0  0  0  0
  128.6828    1.7729   10.0449 H   0  0  0  0  0  0  0  0  0  0  0  0
  128.7930    1.3317    7.5980 H   0  0  0  0  0  0  0  0  0  0  0  0
  124.0411    0.7920    4.4800 H   0  0  0  0  0  0  0  0  0  0  0  0
  122.1359    0.4555    2.5971 H   0  0  0  0  0  0  0  0  0  0  0  0
  139.3413   -0.0338    0.0417 C   0  0  0  0  0  0  0  0  0  0  0  0
  139.9743   -0.2797   -1.1936 C   0  0  0  0  0  0  0  0  0  0  0  0
  139.3403   -0.5246   -2.4378 C   0  0  0  0  0  0  0  0  0  0  0  0
  140.3192   -0.7187   -3.3761 C   0  0  0  0  0  0  0  0  0  0  0  0
  141.5742   -0.5950   -2.7272 C   0  0  0  0  0  0  0  0  0  0  0  0
  141.3199   -0.3299   -1.4122 N   0  0  0  0  0  0  0  0  0  0  0  0
  142.8436   -0.7168   -3.3221 C   0  0  0  0  0  0  0  0  0  0  0  0
  142.8610   -1.0048   -4.7052 C   0  0  0  0  0  0  0  0  0  0  0  0
  142.8745   -1.2598   -5.8916 C   0  0  0  0  0  0  0  0  0  0  0  0
  142.8983   -1.5608   -7.2725 C   0  0  0  0  0  0  0  0  0  0  0  0
  144.1079   -1.7102   -7.9612 C   0  0  0  0  0  0  0  0  0  0  0  0
  144.0774   -2.0075   -9.3119 C   0  0  0  0  0  0  0  0  0  0  0  0
  142.9475   -2.1603   -9.9979 N   0  0  0  0  0  0  0  0  0  0  0  0
  141.7936   -2.0196   -9.3506 C   0  0  0  0  0  0  0  0  0  0  0  0
  141.7145   -1.7230   -8.0016 C   0  0  0  0  0  0  0  0  0  0  0  0
  144.0781   -0.5795   -2.6678 C   0  0  0  0  0  0  0  0  0  0  0  0
  145.3536   -0.7008   -3.3465 C   0  0  0  0  0  0  0  0  0  0  0  0
  146.3037   -0.5090   -2.4073 C   0  0  0  0  0  0  0  0  0  0  0  0
  144.2642   -0.3222   -1.3507 N   0  0  0  0  0  0  0  0  0  0  0  0
  145.6026   -0.2758   -1.1602 C   0  0  0  0  0  0  0  0  0  0  0  0
  146.2612   -0.0515    0.0627 C   0  0  0  0  0  0  0  0  0  0  0  0
  145.6289    0.1610    1.3038 C   0  0  0  0  0  0  0  0  0  0  0  0
  146.2630    0.3741    2.5538 C   0  0  0  0  0  0  0  0  0  0  0  0
  145.2841    0.5392    3.4977 C   0  0  0  0  0  0  0  0  0  0  0  0
  144.0291    0.4327    2.8458 C   0  0  0  0  0  0  0  0  0  0  0  0
  144.2830    0.2031    1.5244 N   0  0  0  0  0  0  0  0  0  0  0  0
  142.7595    0.5486    3.4421 C   0  0  0  0  0  0  0  0  0  0  0  0
  142.7432    0.7857    4.8349 C   0  0  0  0  0  0  0  0  0  0  0  0
  142.7345    0.9824    6.0324 C   0  0  0  0  0  0  0  0  0  0  0  0
  142.7157    1.2086    7.4276 C   0  0  0  0  0  0  0  0  0  0  0  0
  141.5088    1.3185    8.1283 C   0  0  0  0  0  0  0  0  0  0  0  0
  141.5445    1.5371    9.4939 C   0  0  0  0  0  0  0  0  0  0  0  0
  142.6770    1.6500   10.1832 N   0  0  0  0  0  0  0  0  0  0  0  0
  143.8285    1.5474    9.5243 C   0  0  0  0  0  0  0  0  0  0  0  0
  143.9025    1.3289    8.1602 C   0  0  0  0  0  0  0  0  0  0  0  0
  141.5255    0.4503    2.7809 C   0  0  0  0  0  0  0  0  0  0  0  0
  140.2501    0.5942    3.4555 C   0  0  0  0  0  0  0  0  0  0  0  0
  139.3000    0.4360    2.5099 C   0  0  0  0  0  0  0  0  0  0  0  0
  140.0011    0.1944    1.2644 C   0  0  0  0  0  0  0  0  0  0  0  0
  141.3387    0.2121    1.4596 N   0  0  0  0  0  0  0  0  0  0  0  0
  138.2731   -0.5485   -2.5878 H   0  0  0  0  0  0  0  0  0  0  0  0
  140.1897   -0.9282   -4.4257 H   0  0  0  0  0  0  0  0  0  0  0  0
  142.0285   -0.1928   -0.6992 H   0  0  0  0  0  0  0  0  0  0  0  0
  145.0510   -1.5945   -7.4409 H   0  0  0  0  0  0  0  0  0  0  0  0
  145.0006   -2.1293   -9.8711 H   0  0  0  0  0  0  0  0  0  0  0  0
  140.8912   -2.1512   -9.9405 H   0  0  0  0  0  0  0  0  0  0  0  0
  140.7531   -1.6174   -7.5136 H   0  0  0  0  0  0  0  0  0  0  0  0
  145.4762   -0.9038   -4.3984 H   0  0  0  0  0  0  0  0  0  0  0  0
  147.3760   -0.5215   -2.5191 H   0  0  0  0  0  0  0  0  0  0  0  0
  147.3303    0.3961    2.7039 H   0  0  0  0  0  0  0  0  0  0  0  0
  145.4137    0.7202    4.5525 H   0  0  0  0  0  0  0  0  0  0  0  0
  143.5743    0.0818    0.8086 H   0  0  0  0  0  0  0  0  0  0  0  0
  140.5637    1.2324    7.6059 H   0  0  0  0  0  0  0  0  0  0  0  0
  140.6234    1.6257   10.0627 H   0  0  0  0  0  0  0  0  0  0  0  0
  144.7332    1.6444   10.1175 H   0  0  0  0  0  0  0  0  0  0  0  0
  144.8620    1.2515    7.6634 H   0  0  0  0  0  0  0  0  0  0  0  0
  140.1277    0.7902    4.5087 H   0  0  0  0  0  0  0  0  0  0  0  0
  138.2278    0.4733    2.6171 H   0  0  0  0  0  0  0  0  0  0  0  0
  1  2  4  0  0  0  0
  2  3  4  0  0  0  0
  3  4  2  0  0  0  0
  4  5  4  0  0  0  0
  2  6  4  0  0  0  0
  5  6  4  0  0  0  0
  5  7  4  0  0  0  0
  7  8  1  0  0  0  0
  8  9  3  0  0  0  0
  9 10  1  0  0  0  0
 10 11  4  0  0  0  0
 11 12  4  0  0  0  0
 12 13  4  0  0  0  0
 13 14  4  0  0  0  0
 10 15  4  0  0  0  0
 14 15  4  0  0  0  0
  7 16  4  0  0  0  0
 16 17  1  0  0  0  0
 17 18  2  0  0  0  0
 16 19  4  0  0  0  0
 18 20  1  0  0  0  0
 19 20  4  0  0  0  0
 20 21  4  0  0  0  0
 21 22  4  0  0  0  0
 22 23  4  0  0  0  0
 23 24  2  0  0  0  0
 24 25  4  0  0  0  0
 22 26  4  0  0  0  0
 25 26  4  0  0  0  0
 25 27  4  0  0  0  0
 27 28  1  0  0  0  0
 28 29  3  0  0  0  0
 29 30  1  0  0  0  0
 30 31  4  0  0  0  0
 31 32  4  0  0  0  0
 32 33  4  0  0  0  0
 33 34  4  0  0  0  0
 30 35  4  0  0  0  0
 34 35  4  0  0  0  0
 27 36  4  0  0  0  0
 36 37  1  0  0  0  0
 37 38  2  0  0  0  0
  1 39  4  0  0  0  0
 38 39  1  0  0  0  0
 36 40  4  0  0  0  0
 39 40  4  0  0  0  0
  1 41  1  0  0  0  0
  3 42  1  0  0  0  0
  4 43  1  0  0  0  0
  6 44  1  0  0  0  0
 11 45  1  0  0  0  0
 12 46  1  0  0  0  0
 14 47  1  0  0  0  0
 15 48  1  0  0  0  0
 17 49  1  0  0  0  0
 18 50  1  0  0  0  0
 23 51  1  0  0  0  0
 24 52  1  0  0  0  0
 26 53  1  0  0  0  0
 31 54  1  0  0  0  0
 32 55  1  0  0  0  0
 34 56  1  0  0  0  0
 35 57  1  0  0  0  0
 37 58  1  0  0  0  0
 38 59  1  0  0  0  0
 60 61  4  0  0  0  0
 61 62  4  0  0  0  0
 62 63  2  0  0  0  0
 63 64  4  0  0  0  0
 61 65  4  0  0  0  0
 64 65  4  0  0  0  0
 64 66  4  0  0  0  0
 66 67  1  0  0  0  0
 67 68  3  0  0  0  0
 68 69  1  0  0  0  0
 69 70  4  0  0  0  0
 70 71  4  0  0  0  0
 71 72  4  0  0  0  0
 72 73  4  0  0  0  0
 69 74  4  0  0  0  0
 73 74  4  0  0  0  0
 66 75  4  0  0  0  0
 75 76  1  0  0  0  0
 76 77  2  0  0  0  0
 75 78  4  0  0  0  0
 77 79  1  0  0  0  0
 78 79  4  0  0  0  0
 79 80  4  0  0  0  0
 80 81  4  0  0  0  0
 81 82  4  0  0  0  0
 82 83  2  0  0  0  0
 83 84  4  0  0  0  0
 81 85  4  0  0  0  0
 84 85  4  0  0  0  0
 84 86  4  0  0  0  0
 86 87  1  0  0  0  0
 87 88  3  0  0  0  0
 88 89  1  0  0  0  0
 89 90  4  0  0  0  0
 90 91  4  0  0  0  0
 91 92  4  0  0  0  0
 92 93  4  0  0  0  0
 89 94  4  0  0  0  0
 93 94  4  0  0  0  0
 86 95  4  0  0  0  0
 95 96  1  0  0  0  0
 96 97  2  0  0  0  0
 60 98  4  0  0  0  0
 97 98  1  0  0  0  0
 95 99  4  0  0  0  0
 98 99  4  0  0  0  0
 60100  1  0  0  0  0
 62101  1  0  0  0  0
 63102  1  0  0  0  0
 65103  1  0  0  0  0
 70104  1  0  0  0  0
 71105  1  0  0  0  0
 73106  1  0  0  0  0
 74107  1  0  0  0  0
 76108  1  0  0  0  0
 77109  1  0  0  0  0
 82110  1  0  0  0  0
 83111  1  0  0  0  0
 85112  1  0  0  0  0
 90113  1  0  0  0  0
 91114  1  0  0  0  0
 93115  1  0  0  0  0
 94116  1  0  0  0  0
 96117  1  0  0  0  0
 97118  1  0  0  0  0
119120  3  0  0  0  0
120121  4  0  0  0  0
 21122  4  0  0  0  0
121122  3  0  0  0  0
119123  4  0  0  0  0
123124  3  0  0  0  0
125126  3  0  0  0  0
126127  4  0  0  0  0
127128  3  0  0  0  0
125129  4  0  0  0  0
129130  3  0  0  0  0
131132  3  0  0  0  0
132133  4  0  0  0  0
133134  3  0  0  0  0
131135  4  0  0  0  0
135136  3  0  0  0  0
137138  3  0  0  0  0
138139  4  0  0  0  0
139140  3  0  0  0  0
137141  4  0  0  0  0
141142  3  0  0  0  0
143144  3  0  0  0  0
144145  4  0  0  0  0
145146  3  0  0  0  0
143147  4  0  0  0  0
 80148  4  0  0  0  0
147148  3  0  0  0  0
124149  4  0  0  0  0
149150  4  0  0  0  0
150151  4  0  0  0  0
151152  2  0  0  0  0
152153  4  0  0  0  0
150154  4  0  0  0  0
153154  4  0  0  0  0
153155  4  0  0  0  0
155156  1  0  0  0  0
156157  3  0  0  0  0
157158  1  0  0  0  0
158159  4  0  0  0  0
159160  4  0  0  0  0
160161  4  0  0  0  0
161162  4  0  0  0  0
158163  4  0  0  0  0
162163  4  0  0  0  0
155164  4  0  0  0  0
164165  1  0  0  0  0
165166  2  0  0  0  0
164167  4  0  0  0  0
166168  1  0  0  0  0
167168  4  0  0  0  0
128169  4  0  0  0  0
168169  4  0  0  0  0
169170  4  0  0  0  0
170171  4  0  0  0  0
171172  2  0  0  0  0
172173  4  0  0  0  0
170174  4  0  0  0  0
173174  4  0  0  0  0
173175  4  0  0  0  0
175176  1  0  0  0  0
176177  3  0  0  0  0
177178  1  0  0  0  0
178179  4  0  0  0  0
179180  4  0  0  0  0
180181  4  0  0  0  0
181182  4  0  0  0  0
178183  4  0  0  0  0
182183  4  0  0  0  0
175184  4  0  0  0  0
184185  1  0  0  0  0
185186  2  0  0  0  0
149187  4  0  0  0  0
186187  1  0  0  0  0
184188  4  0  0  0  0
187188  4  0  0  0  0
151189  1  0  0  0  0
152190  1  0  0  0  0
154191  1  0  0  0  0
159192  1  0  0  0  0
160193  1  0  0  0  0
162194  1  0  0  0  0
163195  1  0  0  0  0
165196  1  0  0  0  0
166197  1  0  0  0  0
171198  1  0  0  0  0
172199  1  0  0  0  0
174200  1  0  0  0  0
179201  1  0  0  0  0
180202  1  0  0  0  0
182203  1  0  0  0  0
183204  1  0  0  0  0
185205  1  0  0  0  0
186206  1  0  0  0  0
130207  4  0  0  0  0
207208  4  0  0  0  0
208209  4  0  0  0  0
209210  2  0  0  0  0
210211  4  0  0  0  0
208212  4  0  0  0  0
211212  4  0  0  0  0
211213  4  0  0  0  0
213214  1  0  0  0  0
214215  3  0  0  0  0
215216  1  0  0  0  0
216217  4  0  0  0  0
217218  4  0  0  0  0
218219  4  0  0  0  0
219220  4  0  0  0  0
216221  4  0  0  0  0
220221  4  0  0  0  0
213222  4  0  0  0  0
222223  1  0  0  0  0
223224  2  0  0  0  0
222225  4  0  0  0  0
224226  1  0  0  0  0
225226  4  0  0  0  0
134227  4  0  0  0  0
226227  4  0  0  0  0
227228  4  0  0  0  0
228229  4  0  0  0  0
229230  2  0  0  0  0
230231  4  0  0  0  0
228232  4  0  0  0  0
231232  4  0  0  0  0
231233  4  0  0  0  0
233234  1  0  0  0  0
234235  3  0  0  0  0
235236  1  0  0  0  0
236237  4  0  0  0  0
237238  4  0  0  0  0
238239  4  0  0  0  0
239240  4  0  0  0  0
236241  4  0  0  0  0
240241  4  0  0  0  0
233242  4  0  0  0  0
242243  1  0  0  0  0
243244  2  0  0  0  0
207245  4  0  0  0  0
244245  1  0  0  0  0
242246  4  0  0  0  0
245246  4  0  0  0  0
209247  1  0  0  0  0
210248  1  0  0  0  0
212249  1  0  0  0  0
217250  1  0  0  0  0
218251  1  0  0  0  0
220252  1  0  0  0  0
221253  1  0  0  0  0
223254  1  0  0  0  0
224255  1  0  0  0  0
229256  1  0  0  0  0
230257  1  0  0  0  0
232258  1  0  0  0  0
237259  1  0  0  0  0
238260  1  0  0  0  0
240261  1  0  0  0  0
241262  1  0  0  0  0
243263  1  0  0  0  0
244264  1  0  0  0  0
136265  4  0  0  0  0
265266  4  0  0  0  0
266267  4  0  0  0  0
267268  2  0  0  0  0
268269  4  0  0  0  0
266270  4  0  0  0  0
269270  4  0  0  0  0
269271  4  0  0  0  0
271272  1  0  0  0  0
272273  3  0  0  0  0
273274  1  0  0  0  0
274275  4  0  0  0  0
275276  4  0  0  0  0
276277  4  0  0  0  0
277278  4  0  0  0  0
274279  4  0  0  0  0
278279  4  0  0  0  0
271280  4  0  0  0  0
280281  1  0  0  0  0
281282  2  0  0  0  0
280283  4  0  0  0  0
282284  1  0  0  0  0
283284  4  0  0  0  0
140285  4  0  0  0  0
284285  4  0  0  0  0
285286  4  0  0  0  0
286287  4  0  0  0  0
287288  2  0  0  0  0
288289  4  0  0  0  0
286290  4  0  0  0  0
289290  4  0  0  0  0
289291  4  0  0  0  0
291292  1  0  0  0  0
292293  3  0  0  0  0
293294  1  0  0  0  0
294295  4  0  0  0  0
295296  4  0  0  0  0
296297  4  0  0  0  0
297298  4  0  0  0  0
294299  4  0  0  0  0
298299  4  0  0  0  0
291300  4  0  0  0  0
300301  1  0  0  0  0
301302  2  0  0  0  0
265303  4  0  0  0  0
302303  1  0  0  0  0
300304  4  0  0  0  0
303304  4  0  0  0  0
267305  1  0  0  0  0
268306  1  0  0  0  0
270307  1  0  0  0  0
275308  1  0  0  0  0
276309  1  0  0  0  0
278310  1  0  0  0  0
279311  1  0  0  0  0
281312  1  0  0  0  0
282313  1  0  0  0  0
287314  1  0  0  0  0
288315  1  0  0  0  0
290316  1  0  0  0  0
295317  1  0  0  0  0
296318  1  0  0  0  0
298319  1  0  0  0  0
299320  1  0  0  0  0
301321  1  0  0  0  0
302322  1  0  0  0  0
142323  4  0  0  0  0
323324  4  0  0  0  0
324325  4  0  0  0  0
325326  2  0  0  0  0
326327  4  0  0  0  0
324328  4  0  0  0  0
327328  4  0  0  0  0
327329  4  0  0  0  0
329330  1  0  0  0  0
330331  3  0  0  0  0
331332  1  0  0  0  0
332333  4  0  0  0  0
333334  4  0  0  0  0
334335  4  0  0  0  0
335336  4  0  0  0  0
332337  4  0  0  0  0
336337  4  0  0  0  0
329338  4  0  0  0  0
338339  1  0  0  0  0
339340  2  0  0  0  0
338341  4  0  0  0  0
340342  1  0  0  0  0
341342  4  0  0  0  0
146343  4  0  0  0  0
342343  4  0  0  0  0
343344  4  0  0  0  0
344345  4  0  0  0  0
345346  2  0  0  0  0
346347  4  0  0  0  0
344348  4  0  0  0  0
347348  4  0  0  0  0
347349  4  0  0  0  0
349350  1  0  0  0  0
350351  3  0  0  0  0
351352  1  0  0  0  0
352353  4  0  0  0  0
353354  4  0  0  0  0
354355  4  0  0  0  0
355356  4  0  0  0  0
352357  4  0  0  0  0
356357  4  0  0  0  0
349358  4  0  0  0  0
358359  1  0  0  0  0
359360  2  0  0  0  0
323361  4  0  0  0  0
360361  1  0  0  0  0
358362  4  0  0  0  0
361362  4  0  0  0  0
325363  1  0  0  0  0
326364  1  0  0  0  0
328365  1  0  0  0  0
333366  1  0  0  0  0
334367  1  0  0  0  0
336368  1  0  0  0  0
337369  1  0  0  0  0
339370  1  0  0  0  0
340371  1  0  0  0  0
345372  1  0  0  0  0
346373  1  0  0  0  0
348374  1  0  0  0  0
353375  1  0  0  0  0
354376  1  0  0  0  0
356377  1  0  0  0  0
357378  1  0  0  0  0
359379  1  0  0  0  0
360380  1  0  0  0  0
M  END
