 xtb: 6.5.1 (b24c23e)
          07302205553D

268307  0     0  0            999 V2000
   57.8660    0.0548   -0.0236 Cu  0  0  0  0  0  0  0  0  0  0  0  0
   54.4568    0.1410   -0.0741 C   0  0  0  0  0  0  0  0  0  0  0  0
   55.0924    1.0444    0.7646 C   0  0  0  0  0  0  0  0  0  0  0  0
   54.4175    1.9632    1.6353 C   0  0  0  0  0  0  0  0  0  0  0  0
   55.3771    2.6534    2.3007 C   0  0  0  0  0  0  0  0  0  0  0  0
   56.6475    2.1712    1.8317 C   0  0  0  0  0  0  0  0  0  0  0  0
   56.4433    1.1932    0.9018 N   0  0  0  0  0  0  0  0  0  0  0  0
   57.8923    2.6155    2.2862 C   0  0  0  0  0  0  0  0  0  0  0  0
   57.9025    3.7200    3.2758 C   0  0  0  0  0  0  0  0  0  0  0  0
   57.3601    4.9671    2.9541 C   0  0  0  0  0  0  0  0  0  0  0  0
   57.3733    6.0019    3.8702 C   0  0  0  0  0  0  0  0  0  0  0  0
   57.9248    5.8170    5.1438 C   0  0  0  0  0  0  0  0  0  0  0  0
   57.8628    6.8668    6.0497 N   0  0  0  0  0  0  0  0  0  0  0  0
   58.8198    6.9260    7.1466 C   0  0  0  0  0  0  0  0  0  0  0  0
   58.4536    4.5667    5.4765 C   0  0  0  0  0  0  0  0  0  0  0  0
   58.4474    3.5395    4.5479 C   0  0  0  0  0  0  0  0  0  0  0  0
   59.1249    2.1021    1.8752 C   0  0  0  0  0  0  0  0  0  0  0  0
   60.3996    2.6008    2.3046 C   0  0  0  0  0  0  0  0  0  0  0  0
   61.3478    1.8686    1.6672 C   0  0  0  0  0  0  0  0  0  0  0  0
   59.3194    1.0809    0.9822 N   0  0  0  0  0  0  0  0  0  0  0  0
   60.6647    0.9263    0.8346 C   0  0  0  0  0  0  0  0  0  0  0  0
   61.3070   -0.0041   -0.0040 C   0  0  0  0  0  0  0  0  0  0  0  0
   60.6415   -0.9295   -0.8302 C   0  0  0  0  0  0  0  0  0  0  0  0
   61.2997   -1.9207   -1.6245 C   0  0  0  0  0  0  0  0  0  0  0  0
   60.3340   -2.6329   -2.2582 C   0  0  0  0  0  0  0  0  0  0  0  0
   59.0736   -2.0704   -1.8681 C   0  0  0  0  0  0  0  0  0  0  0  0
   59.2935   -1.0375   -0.9942 N   0  0  0  0  0  0  0  0  0  0  0  0
   57.8292   -2.5331   -2.3028 C   0  0  0  0  0  0  0  0  0  0  0  0
   57.8136   -3.6539   -3.2736 C   0  0  0  0  0  0  0  0  0  0  0  0
   58.4091   -3.5247   -4.5293 C   0  0  0  0  0  0  0  0  0  0  0  0
   58.3967   -4.5691   -5.4385 C   0  0  0  0  0  0  0  0  0  0  0  0
   57.7965   -5.7855   -5.1019 C   0  0  0  0  0  0  0  0  0  0  0  0
   57.7176   -6.8501   -5.9899 N   0  0  0  0  0  0  0  0  0  0  0  0
   58.7177   -6.9806   -7.0416 C   0  0  0  0  0  0  0  0  0  0  0  0
   57.1912   -5.9177   -3.8466 C   0  0  0  0  0  0  0  0  0  0  0  0
   57.1977   -4.8659   -2.9499 C   0  0  0  0  0  0  0  0  0  0  0  0
   56.5959   -2.0190   -1.8932 C   0  0  0  0  0  0  0  0  0  0  0  0
   55.3175   -2.4380   -2.3998 C   0  0  0  0  0  0  0  0  0  0  0  0
   54.3753   -1.6885   -1.7747 C   0  0  0  0  0  0  0  0  0  0  0  0
   55.0698   -0.7988   -0.8893 C   0  0  0  0  0  0  0  0  0  0  0  0
   56.4144   -1.0209   -0.9803 N   0  0  0  0  0  0  0  0  0  0  0  0
   53.3721    0.1706   -0.0922 H   0  0  0  0  0  0  0  0  0  0  0  0
   53.3460    2.0490    1.7266 H   0  0  0  0  0  0  0  0  0  0  0  0
   55.2428    3.4127    3.0543 H   0  0  0  0  0  0  0  0  0  0  0  0
   56.9444    5.1299    1.9656 H   0  0  0  0  0  0  0  0  0  0  0  0
   56.9561    6.9676    3.6045 H   0  0  0  0  0  0  0  0  0  0  0  0
   57.7433    7.7648    5.5962 H   0  0  0  0  0  0  0  0  0  0  0  0
   59.8512    6.8328    6.7874 H   0  0  0  0  0  0  0  0  0  0  0  0
   58.6163    6.1299    7.8639 H   0  0  0  0  0  0  0  0  0  0  0  0
   58.6981    7.8862    7.6481 H   0  0  0  0  0  0  0  0  0  0  0  0
   58.8684    4.3876    6.4610 H   0  0  0  0  0  0  0  0  0  0  0  0
   58.8530    2.5714    4.8215 H   0  0  0  0  0  0  0  0  0  0  0  0
   60.5486    3.4166    2.9933 H   0  0  0  0  0  0  0  0  0  0  0  0
   62.4180    1.9556    1.7507 H   0  0  0  0  0  0  0  0  0  0  0  0
   62.3662   -2.0583   -1.6793 H   0  0  0  0  0  0  0  0  0  0  0  0
   60.4621   -3.4746   -2.9194 H   0  0  0  0  0  0  0  0  0  0  0  0
   58.8708   -2.5830   -4.8058 H   0  0  0  0  0  0  0  0  0  0  0  0
   58.8533   -4.4296   -6.4107 H   0  0  0  0  0  0  0  0  0  0  0  0
   57.5376   -7.7311   -5.5229 H   0  0  0  0  0  0  0  0  0  0  0  0
   58.5877   -6.1902   -7.7817 H   0  0  0  0  0  0  0  0  0  0  0  0
   58.5687   -7.9435   -7.5302 H   0  0  0  0  0  0  0  0  0  0  0  0
   59.7356   -6.9326   -6.6379 H   0  0  0  0  0  0  0  0  0  0  0  0
   56.7172   -6.8563   -3.5788 H   0  0  0  0  0  0  0  0  0  0  0  0
   56.7403   -4.9885   -1.9741 H   0  0  0  0  0  0  0  0  0  0  0  0
   55.1674   -3.1976   -3.1501 H   0  0  0  0  0  0  0  0  0  0  0  0
   53.3044   -1.7173   -1.9016 H   0  0  0  0  0  0  0  0  0  0  0  0
   90.6299    0.0376   -0.0307 Cu  0  0  0  0  0  0  0  0  0  0  0  0
   94.0401    0.0471   -0.0492 C   0  0  0  0  0  0  0  0  0  0  0  0
   93.4148   -0.9587   -0.7713 C   0  0  0  0  0  0  0  0  0  0  0  0
   94.0986   -2.0097   -1.4682 C   0  0  0  0  0  0  0  0  0  0  0  0
   93.1462   -2.7908   -2.0368 C   0  0  0  0  0  0  0  0  0  0  0  0
   91.8719   -2.2156   -1.7022 C   0  0  0  0  0  0  0  0  0  0  0  0
   92.0663   -1.1076   -0.9300 N   0  0  0  0  0  0  0  0  0  0  0  0
   90.6311   -2.7328   -2.0870 C   0  0  0  0  0  0  0  0  0  0  0  0
   90.6329   -3.9147   -2.9821 C   0  0  0  0  0  0  0  0  0  0  0  0
   91.2254   -3.8461   -4.2462 C   0  0  0  0  0  0  0  0  0  0  0  0
   91.2242   -4.9416   -5.0887 C   0  0  0  0  0  0  0  0  0  0  0  0
   90.6391   -6.1481   -4.6855 C   0  0  0  0  0  0  0  0  0  0  0  0
   90.6178   -7.2045   -5.5858 N   0  0  0  0  0  0  0  0  0  0  0  0
   90.4835   -8.5681   -5.0913 C   0  0  0  0  0  0  0  0  0  0  0  0
   90.0425   -6.2217   -3.4238 C   0  0  0  0  0  0  0  0  0  0  0  0
   90.0420   -5.1166   -2.5891 C   0  0  0  0  0  0  0  0  0  0  0  0
   89.3927   -2.2174   -1.6967 C   0  0  0  0  0  0  0  0  0  0  0  0
   88.1233   -2.7187   -2.1396 C   0  0  0  0  0  0  0  0  0  0  0  0
   87.1679   -1.9519   -1.5559 C   0  0  0  0  0  0  0  0  0  0  0  0
   89.1874   -1.1497   -0.8619 N   0  0  0  0  0  0  0  0  0  0  0  0
   87.8415   -0.9680   -0.7646 C   0  0  0  0  0  0  0  0  0  0  0  0
   87.1897    0.0288   -0.0137 C   0  0  0  0  0  0  0  0  0  0  0  0
   87.8438    1.0273    0.7332 C   0  0  0  0  0  0  0  0  0  0  0  0
   87.1735    2.0046    1.5351 C   0  0  0  0  0  0  0  0  0  0  0  0
   88.1311    2.7760    2.1093 C   0  0  0  0  0  0  0  0  0  0  0  0
   89.3981    2.2844    1.6498 C   0  0  0  0  0  0  0  0  0  0  0  0
   89.1898    1.2166    0.8161 N   0  0  0  0  0  0  0  0  0  0  0  0
   90.6379    2.8090    2.0239 C   0  0  0  0  0  0  0  0  0  0  0  0
   90.6414    3.9956    2.9125 C   0  0  0  0  0  0  0  0  0  0  0  0
   90.0319    5.1883    2.5196 C   0  0  0  0  0  0  0  0  0  0  0  0
   90.0319    6.2990    3.3465 C   0  0  0  0  0  0  0  0  0  0  0  0
   90.6341    6.2362    4.6061 C   0  0  0  0  0  0  0  0  0  0  0  0
   90.7011    7.3311    5.4572 N   0  0  0  0  0  0  0  0  0  0  0  0
   89.6932    8.3785    5.3572 C   0  0  0  0  0  0  0  0  0  0  0  0
   91.2536    5.0447    5.0021 C   0  0  0  0  0  0  0  0  0  0  0  0
   91.2586    3.9445    4.1655 C   0  0  0  0  0  0  0  0  0  0  0  0
   91.8773    2.2994    1.6251 C   0  0  0  0  0  0  0  0  0  0  0  0
   93.1519    2.8839    1.9424 C   0  0  0  0  0  0  0  0  0  0  0  0
   94.1024    2.1069    1.3652 C   0  0  0  0  0  0  0  0  0  0  0  0
   93.4169    1.0497    0.6793 C   0  0  0  0  0  0  0  0  0  0  0  0
   92.0696    1.1904    0.8537 N   0  0  0  0  0  0  0  0  0  0  0  0
   95.1253    0.0506   -0.0555 H   0  0  0  0  0  0  0  0  0  0  0  0
   95.1701   -2.1312   -1.4990 H   0  0  0  0  0  0  0  0  0  0  0  0
   93.2875   -3.6872   -2.6191 H   0  0  0  0  0  0  0  0  0  0  0  0
   91.6735   -2.9150   -4.5759 H   0  0  0  0  0  0  0  0  0  0  0  0
   91.6774   -4.8707   -6.0720 H   0  0  0  0  0  0  0  0  0  0  0  0
   91.3338   -7.1226   -6.2980 H   0  0  0  0  0  0  0  0  0  0  0  0
   89.4813   -8.7231   -4.6899 H   0  0  0  0  0  0  0  0  0  0  0  0
   91.2222   -8.7895   -4.3124 H   0  0  0  0  0  0  0  0  0  0  0  0
   90.6313   -9.2468   -5.9313 H   0  0  0  0  0  0  0  0  0  0  0  0
   89.5758   -7.1392   -3.0866 H   0  0  0  0  0  0  0  0  0  0  0  0
   89.5914   -5.1925   -1.6054 H   0  0  0  0  0  0  0  0  0  0  0  0
   87.9824   -3.5404   -2.8228 H   0  0  0  0  0  0  0  0  0  0  0  0
   86.0989   -2.0383   -1.6540 H   0  0  0  0  0  0  0  0  0  0  0  0
   86.1052    2.0832    1.6469 H   0  0  0  0  0  0  0  0  0  0  0  0
   87.9931    3.5946    2.7970 H   0  0  0  0  0  0  0  0  0  0  0  0
   89.5692    5.2530    1.5407 H   0  0  0  0  0  0  0  0  0  0  0  0
   89.5641    7.2138    3.0035 H   0  0  0  0  0  0  0  0  0  0  0  0
   90.8815    7.0648    6.4179 H   0  0  0  0  0  0  0  0  0  0  0  0
   89.8214    8.9336    4.4271 H   0  0  0  0  0  0  0  0  0  0  0  0
   89.8347    9.0629    6.1938 H   0  0  0  0  0  0  0  0  0  0  0  0
   88.6782    7.9661    5.3940 H   0  0  0  0  0  0  0  0  0  0  0  0
   91.7293    4.9884    5.9756 H   0  0  0  0  0  0  0  0  0  0  0  0
   91.7260    3.0224    4.4935 H   0  0  0  0  0  0  0  0  0  0  0  0
   93.2949    3.7835    2.5193 H   0  0  0  0  0  0  0  0  0  0  0  0
   95.1734    2.2352    1.3828 H   0  0  0  0  0  0  0  0  0  0  0  0
   62.7181   -0.0071   -0.0183 C   0  0  0  0  0  0  0  0  0  0  0  0
   63.9364    0.0037   -0.0417 C   0  0  0  0  0  0  0  0  0  0  0  0
   73.6448    0.0415   -0.0450 C   0  0  0  0  0  0  0  0  0  0  0  0
   74.8630    0.0350   -0.0298 C   0  0  0  0  0  0  0  0  0  0  0  0
   84.5607    0.0282   -0.0073 C   0  0  0  0  0  0  0  0  0  0  0  0
   85.7794    0.0281   -0.0103 C   0  0  0  0  0  0  0  0  0  0  0  0
   68.7948    0.0406   -0.0649 Cu  0  0  0  0  0  0  0  0  0  0  0  0
   65.3468    0.0129   -0.0525 C   0  0  0  0  0  0  0  0  0  0  0  0
   66.0075   -1.0244   -0.7375 C   0  0  0  0  0  0  0  0  0  0  0  0
   65.3468   -2.0955   -1.4173 C   0  0  0  0  0  0  0  0  0  0  0  0
   66.3079   -2.8405   -2.0204 C   0  0  0  0  0  0  0  0  0  0  0  0
   67.5685   -2.2378   -1.6984 C   0  0  0  0  0  0  0  0  0  0  0  0
   67.3534   -1.1350   -0.9149 N   0  0  0  0  0  0  0  0  0  0  0  0
   68.8069   -2.6782   -2.1723 C   0  0  0  0  0  0  0  0  0  0  0  0
   68.8102   -3.8489   -3.0859 C   0  0  0  0  0  0  0  0  0  0  0  0
   68.3962   -5.1055   -2.6382 C   0  0  0  0  0  0  0  0  0  0  0  0
   68.3984   -6.1945   -3.4900 C   0  0  0  0  0  0  0  0  0  0  0  0
   68.8050   -6.0545   -4.8221 C   0  0  0  0  0  0  0  0  0  0  0  0
   68.8342   -7.1858   -5.6274 N   0  0  0  0  0  0  0  0  0  0  0  0
   68.7433   -7.0357   -7.0740 C   0  0  0  0  0  0  0  0  0  0  0  0
   69.2280   -4.8011   -5.2721 C   0  0  0  0  0  0  0  0  0  0  0  0
   69.2289   -3.7171   -4.4100 C   0  0  0  0  0  0  0  0  0  0  0  0
   70.0413   -2.1082   -1.8561 C   0  0  0  0  0  0  0  0  0  0  0  0
   71.3087   -2.5679   -2.3463 C   0  0  0  0  0  0  0  0  0  0  0  0
   72.2630   -1.7986   -1.7628 C   0  0  0  0  0  0  0  0  0  0  0  0
   70.2452   -1.0742   -0.9805 N   0  0  0  0  0  0  0  0  0  0  0  0
   71.5888   -0.8759   -0.9012 C   0  0  0  0  0  0  0  0  0  0  0  0
   72.2376    0.0495   -0.0623 C   0  0  0  0  0  0  0  0  0  0  0  0
   71.5786    0.9752    0.7694 C   0  0  0  0  0  0  0  0  0  0  0  0
   72.2379    1.8465    1.6928 C   0  0  0  0  0  0  0  0  0  0  0  0
   71.2766    2.6091    2.2753 C   0  0  0  0  0  0  0  0  0  0  0  0
   70.0222    2.2088    1.7076 C   0  0  0  0  0  0  0  0  0  0  0  0
   70.2367    1.1975    0.8086 N   0  0  0  0  0  0  0  0  0  0  0  0
   68.7832    2.7748    2.0196 C   0  0  0  0  0  0  0  0  0  0  0  0
   68.7759    3.9512    2.9187 C   0  0  0  0  0  0  0  0  0  0  0  0
   68.0479    3.9352    4.1102 C   0  0  0  0  0  0  0  0  0  0  0  0
   68.0432    5.0264    4.9622 C   0  0  0  0  0  0  0  0  0  0  0  0
   68.7716    6.1740    4.6364 C   0  0  0  0  0  0  0  0  0  0  0  0
   68.7588    7.3157    5.4252 N   0  0  0  0  0  0  0  0  0  0  0  0
   68.4685    7.2026    6.8484 C   0  0  0  0  0  0  0  0  0  0  0  0
   69.4906    6.2016    3.4352 C   0  0  0  0  0  0  0  0  0  0  0  0
   69.4972    5.1043    2.5952 C   0  0  0  0  0  0  0  0  0  0  0  0
   67.5496    2.3147    1.5490 C   0  0  0  0  0  0  0  0  0  0  0  0
   66.2926    2.9668    1.7723 C   0  0  0  0  0  0  0  0  0  0  0  0
   65.3369    2.1938    1.1949 C   0  0  0  0  0  0  0  0  0  0  0  0
   66.0003    1.0690    0.6120 C   0  0  0  0  0  0  0  0  0  0  0  0
   67.3424    1.1740    0.8194 N   0  0  0  0  0  0  0  0  0  0  0  0
   64.2817   -2.2528   -1.4317 H   0  0  0  0  0  0  0  0  0  0  0  0
   66.1752   -3.7156   -2.6357 H   0  0  0  0  0  0  0  0  0  0  0  0
   68.0852   -5.2301   -1.6067 H   0  0  0  0  0  0  0  0  0  0  0  0
   68.0833   -7.1675   -3.1276 H   0  0  0  0  0  0  0  0  0  0  0  0
   68.2305   -7.9223   -5.2814 H   0  0  0  0  0  0  0  0  0  0  0  0
   67.8858   -6.4167   -7.3620 H   0  0  0  0  0  0  0  0  0  0  0  0
   69.6577   -6.5845   -7.4614 H   0  0  0  0  0  0  0  0  0  0  0  0
   68.6333   -8.0289   -7.5095 H   0  0  0  0  0  0  0  0  0  0  0  0
   69.5587   -4.6640   -6.2944 H   0  0  0  0  0  0  0  0  0  0  0  0
   69.5441   -2.7455   -4.7751 H   0  0  0  0  0  0  0  0  0  0  0  0
   71.4494   -3.3797   -3.0413 H   0  0  0  0  0  0  0  0  0  0  0  0
   73.3307   -1.8475   -1.8999 H   0  0  0  0  0  0  0  0  0  0  0  0
   73.2993    1.8586    1.8800 H   0  0  0  0  0  0  0  0  0  0  0  0
   71.4025    3.3593    3.0393 H   0  0  0  0  0  0  0  0  0  0  0  0
   67.4940    3.0436    4.3837 H   0  0  0  0  0  0  0  0  0  0  0  0
   67.4703    4.9779    5.8801 H   0  0  0  0  0  0  0  0  0  0  0  0
   69.5475    7.9245    5.2417 H   0  0  0  0  0  0  0  0  0  0  0  0
   69.1055    6.4528    7.3316 H   0  0  0  0  0  0  0  0  0  0  0  0
   68.6460    8.1755    7.3067 H   0  0  0  0  0  0  0  0  0  0  0  0
   67.4219    6.9332    6.9963 H   0  0  0  0  0  0  0  0  0  0  0  0
   70.0453    7.0944    3.1661 H   0  0  0  0  0  0  0  0  0  0  0  0
   70.0510    5.1444    1.6636 H   0  0  0  0  0  0  0  0  0  0  0  0
   66.1613    3.9071    2.2828 H   0  0  0  0  0  0  0  0  0  0  0  0
   64.2768    2.3784    1.1458 H   0  0  0  0  0  0  0  0  0  0  0  0
   79.7083    0.0247   -0.0072 Cu  0  0  0  0  0  0  0  0  0  0  0  0
   76.2697    0.0300   -0.0188 C   0  0  0  0  0  0  0  0  0  0  0  0
   76.9280   -1.0513   -0.6354 C   0  0  0  0  0  0  0  0  0  0  0  0
   76.2753   -2.2142   -1.1515 C   0  0  0  0  0  0  0  0  0  0  0  0
   77.2343   -2.9866   -1.7256 C   0  0  0  0  0  0  0  0  0  0  0  0
   78.4799   -2.2948   -1.5671 C   0  0  0  0  0  0  0  0  0  0  0  0
   78.2652   -1.1301   -0.8782 N   0  0  0  0  0  0  0  0  0  0  0  0
   79.7113   -2.7281   -2.0673 C   0  0  0  0  0  0  0  0  0  0  0  0
   79.7167   -3.9155   -2.9485 C   0  0  0  0  0  0  0  0  0  0  0  0
   80.5211   -5.0210   -2.6526 C   0  0  0  0  0  0  0  0  0  0  0  0
   80.5254   -6.1329   -3.4722 C   0  0  0  0  0  0  0  0  0  0  0  0
   79.7334   -6.1694   -4.6269 C   0  0  0  0  0  0  0  0  0  0  0  0
   79.7364   -7.3252   -5.3926 N   0  0  0  0  0  0  0  0  0  0  0  0
   79.3362   -7.2671   -6.7918 C   0  0  0  0  0  0  0  0  0  0  0  0
   78.9241   -5.0694   -4.9262 C   0  0  0  0  0  0  0  0  0  0  0  0
   78.9189   -3.9633   -4.0942 C   0  0  0  0  0  0  0  0  0  0  0  0
   80.9402   -2.1181   -1.7948 C   0  0  0  0  0  0  0  0  0  0  0  0
   82.1828   -2.4559   -2.4241 C   0  0  0  0  0  0  0  0  0  0  0  0
   83.1404   -1.6805   -1.8521 C   0  0  0  0  0  0  0  0  0  0  0  0
   81.1552   -1.1291   -0.8721 N   0  0  0  0  0  0  0  0  0  0  0  0
   82.4917   -0.8643   -0.8741 C   0  0  0  0  0  0  0  0  0  0  0  0
   83.1518    0.0279   -0.0072 C   0  0  0  0  0  0  0  0  0  0  0  0
   82.4904    0.9185    0.8605 C   0  0  0  0  0  0  0  0  0  0  0  0
   83.1378    1.7353    1.8387 C   0  0  0  0  0  0  0  0  0  0  0  0
   82.1783    2.5064    2.4134 C   0  0  0  0  0  0  0  0  0  0  0  0
   80.9360    2.1662    1.7850 C   0  0  0  0  0  0  0  0  0  0  0  0
   81.1532    1.1796    0.8601 N   0  0  0  0  0  0  0  0  0  0  0  0
   79.7056    2.7719    2.0603 C   0  0  0  0  0  0  0  0  0  0  0  0
   79.7093    3.9539    2.9493 C   0  0  0  0  0  0  0  0  0  0  0  0
   78.9182    3.9892    4.0999 C   0  0  0  0  0  0  0  0  0  0  0  0
   78.9258    5.0878    4.9419 C   0  0  0  0  0  0  0  0  0  0  0  0
   79.7306    6.1923    4.6476 C   0  0  0  0  0  0  0  0  0  0  0  0
   79.7370    7.3408    5.4256 N   0  0  0  0  0  0  0  0  0  0  0  0
   79.3603    7.2615    6.8306 C   0  0  0  0  0  0  0  0  0  0  0  0
   80.5134    6.1697    3.4866 C   0  0  0  0  0  0  0  0  0  0  0  0
   80.5071    5.0649    2.6571 C   0  0  0  0  0  0  0  0  0  0  0  0
   78.4751    2.3405    1.5565 C   0  0  0  0  0  0  0  0  0  0  0  0
   77.2291    3.0313    1.7170 C   0  0  0  0  0  0  0  0  0  0  0  0
   76.2720    2.2652    1.1314 C   0  0  0  0  0  0  0  0  0  0  0  0
   76.9262    1.1061    0.6082 C   0  0  0  0  0  0  0  0  0  0  0  0
   78.2622    1.1813    0.8583 N   0  0  0  0  0  0  0  0  0  0  0  0
   75.2210   -2.4199   -1.0642 H   0  0  0  0  0  0  0  0  0  0  0  0
   77.1137   -3.9512   -2.1915 H   0  0  0  0  0  0  0  0  0  0  0  0
   81.1314   -5.0126   -1.7557 H   0  0  0  0  0  0  0  0  0  0  0  0
   81.1452   -6.9882   -3.2234 H   0  0  0  0  0  0  0  0  0  0  0  0
   80.5664   -7.8880   -5.2502 H   0  0  0  0  0  0  0  0  0  0  0  0
   78.2673   -7.0630   -6.8666 H   0  0  0  0  0  0  0  0  0  0  0  0
   79.8900   -6.4948   -7.3379 H   0  0  0  0  0  0  0  0  0  0  0  0
   79.5376   -8.2400   -7.2403 H   0  0  0  0  0  0  0  0  0  0  0  0
   78.2961   -5.0703   -5.8087 H   0  0  0  0  0  0  0  0  0  0  0  0
   78.3025   -3.1082   -4.3498 H   0  0  0  0  0  0  0  0  0  0  0  0
   82.3026   -3.1736   -3.2196 H   0  0  0  0  0  0  0  0  0  0  0  0
   84.1914   -1.6463   -2.0851 H   0  0  0  0  0  0  0  0  0  0  0  0
   84.1894    1.7044    2.0701 H   0  0  0  0  0  0  0  0  0  0  0  0
   82.2970    3.2232    3.2099 H   0  0  0  0  0  0  0  0  0  0  0  0
   78.3051    3.1303    4.3511 H   0  0  0  0  0  0  0  0  0  0  0  0
   78.3033    5.0792    5.8283 H   0  0  0  0  0  0  0  0  0  0  0  0
   80.5650    7.9061    5.2803 H   0  0  0  0  0  0  0  0  0  0  0  0
   79.9269    6.4848    7.3569 H   0  0  0  0  0  0  0  0  0  0  0  0
   79.5641    8.2292    7.2890 H   0  0  0  0  0  0  0  0  0  0  0  0
   78.2938    7.0507    6.9204 H   0  0  0  0  0  0  0  0  0  0  0  0
   81.1279    7.0295    3.2410 H   0  0  0  0  0  0  0  0  0  0  0  0
   81.1110    5.0663    1.7563 H   0  0  0  0  0  0  0  0  0  0  0  0
   77.1071    3.9912    2.1923 H   0  0  0  0  0  0  0  0  0  0  0  0
   75.2177    2.4715    1.0431 H   0  0  0  0  0  0  0  0  0  0  0  0
  2  3  4  0  0  0  0
  3  4  1  0  0  0  0
  4  5  2  0  0  0  0
  5  6  4  0  0  0  0
  1  7  1  0  0  0  0
  3  7  4  0  0  0  0
  6  7  4  0  0  0  0
  6  8  4  0  0  0  0
  8  9  1  0  0  0  0
  9 10  4  0  0  0  0
 10 11  4  0  0  0  0
 11 12  4  0  0  0  0
 12 13  1  0  0  0  0
 13 14  1  0  0  0  0
 12 15  4  0  0  0  0
  9 16  4  0  0  0  0
 15 16  4  0  0  0  0
  8 17  4  0  0  0  0
 17 18  4  0  0  0  0
 18 19  2  0  0  0  0
  1 20  1  0  0  0  0
 17 20  4  0  0  0  0
 19 21  4  0  0  0  0
 20 21  4  0  0  0  0
 21 22  4  0  0  0  0
 22 23  4  0  0  0  0
 23 24  4  0  0  0  0
 24 25  2  0  0  0  0
 25 26  4  0  0  0  0
  1 27  1  0  0  0  0
 23 27  4  0  0  0  0
 26 27  4  0  0  0  0
 26 28  4  0  0  0  0
 28 29  1  0  0  0  0
 29 30  4  0  0  0  0
 30 31  4  0  0  0  0
 31 32  4  0  0  0  0
 32 33  1  0  0  0  0
 33 34  1  0  0  0  0
 32 35  4  0  0  0  0
 29 36  4  0  0  0  0
 35 36  4  0  0  0  0
 28 37  4  0  0  0  0
 37 38  4  0  0  0  0
 38 39  2  0  0  0  0
  2 40  4  0  0  0  0
 39 40  1  0  0  0  0
  1 41  1  0  0  0  0
 37 41  4  0  0  0  0
 40 41  4  0  0  0  0
  2 42  1  0  0  0  0
  4 43  1  0  0  0  0
  5 44  1  0  0  0  0
 10 45  1  0  0  0  0
 11 46  1  0  0  0  0
 13 47  1  0  0  0  0
 14 48  1  0  0  0  0
 14 49  1  0  0  0  0
 14 50  1  0  0  0  0
 15 51  1  0  0  0  0
 16 52  1  0  0  0  0
 18 53  1  0  0  0  0
 19 54  1  0  0  0  0
 24 55  1  0  0  0  0
 25 56  1  0  0  0  0
 30 57  1  0  0  0  0
 31 58  1  0  0  0  0
 33 59  1  0  0  0  0
 34 60  1  0  0  0  0
 34 61  1  0  0  0  0
 34 62  1  0  0  0  0
 35 63  1  0  0  0  0
 36 64  1  0  0  0  0
 38 65  1  0  0  0  0
 39 66  1  0  0  0  0
 68 69  4  0  0  0  0
 69 70  4  0  0  0  0
 70 71  2  0  0  0  0
 71 72  4  0  0  0  0
 67 73  1  0  0  0  0
 69 73  4  0  0  0  0
 72 73  4  0  0  0  0
 72 74  4  0  0  0  0
 74 75  1  0  0  0  0
 75 76  4  0  0  0  0
 76 77  4  0  0  0  0
 77 78  4  0  0  0  0
 78 79  1  0  0  0  0
 79 80  1  0  0  0  0
 78 81  4  0  0  0  0
 75 82  4  0  0  0  0
 81 82  4  0  0  0  0
 74 83  4  0  0  0  0
 83 84  4  0  0  0  0
 84 85  2  0  0  0  0
 67 86  1  0  0  0  0
 83 86  4  0  0  0  0
 85 87  4  0  0  0  0
 86 87  4  0  0  0  0
 87 88  4  0  0  0  0
 88 89  4  0  0  0  0
 89 90  4  0  0  0  0
 90 91  2  0  0  0  0
 91 92  4  0  0  0  0
 67 93  1  0  0  0  0
 89 93  4  0  0  0  0
 92 93  4  0  0  0  0
 92 94  4  0  0  0  0
 94 95  1  0  0  0  0
 95 96  4  0  0  0  0
 96 97  4  0  0  0  0
 97 98  4  0  0  0  0
 98 99  1  0  0  0  0
 99100  1  0  0  0  0
 98101  4  0  0  0  0
 95102  4  0  0  0  0
101102  4  0  0  0  0
 94103  4  0  0  0  0
103104  4  0  0  0  0
104105  2  0  0  0  0
 68106  4  0  0  0  0
105106  1  0  0  0  0
 67107  1  0  0  0  0
103107  4  0  0  0  0
106107  4  0  0  0  0
 68108  1  0  0  0  0
 70109  1  0  0  0  0
 71110  1  0  0  0  0
 76111  1  0  0  0  0
 77112  1  0  0  0  0
 79113  1  0  0  0  0
 80114  1  0  0  0  0
 80115  1  0  0  0  0
 80116  1  0  0  0  0
 81117  1  0  0  0  0
 82118  1  0  0  0  0
 84119  1  0  0  0  0
 85120  1  0  0  0  0
 90121  1  0  0  0  0
 91122  1  0  0  0  0
 96123  1  0  0  0  0
 97124  1  0  0  0  0
 99125  1  0  0  0  0
100126  1  0  0  0  0
100127  1  0  0  0  0
100128  1  0  0  0  0
101129  1  0  0  0  0
102130  1  0  0  0  0
104131  1  0  0  0  0
105132  1  0  0  0  0
 22133  4  0  0  0  0
133134  3  0  0  0  0
135136  3  0  0  0  0
 88138  4  0  0  0  0
137138  3  0  0  0  0
134140  4  0  0  0  0
140141  4  0  0  0  0
141142  4  0  0  0  0
142143  2  0  0  0  0
143144  4  0  0  0  0
139145  1  0  0  0  0
141145  4  0  0  0  0
144145  4  0  0  0  0
144146  4  0  0  0  0
146147  1  0  0  0  0
147148  4  0  0  0  0
148149  4  0  0  0  0
149150  4  0  0  0  0
150151  1  0  0  0  0
151152  1  0  0  0  0
150153  4  0  0  0  0
147154  4  0  0  0  0
153154  4  0  0  0  0
146155  4  0  0  0  0
155156  4  0  0  0  0
156157  2  0  0  0  0
139158  1  0  0  0  0
155158  4  0  0  0  0
157159  4  0  0  0  0
158159  4  0  0  0  0
135160  4  0  0  0  0
159160  4  0  0  0  0
160161  4  0  0  0  0
161162  4  0  0  0  0
162163  2  0  0  0  0
163164  4  0  0  0  0
139165  1  0  0  0  0
161165  4  0  0  0  0
164165  4  0  0  0  0
164166  4  0  0  0  0
166167  1  0  0  0  0
167168  4  0  0  0  0
168169  4  0  0  0  0
169170  4  0  0  0  0
170171  1  0  0  0  0
171172  1  0  0  0  0
170173  4  0  0  0  0
167174  4  0  0  0  0
173174  4  0  0  0  0
166175  4  0  0  0  0
175176  4  0  0  0  0
176177  2  0  0  0  0
140178  4  0  0  0  0
177178  4  0  0  0  0
139179  1  0  0  0  0
175179  4  0  0  0  0
178179  4  0  0  0  0
142180  1  0  0  0  0
143181  1  0  0  0  0
148182  1  0  0  0  0
149183  1  0  0  0  0
151184  1  0  0  0  0
152185  1  0  0  0  0
152186  1  0  0  0  0
152187  1  0  0  0  0
153188  1  0  0  0  0
154189  1  0  0  0  0
156190  1  0  0  0  0
157191  1  0  0  0  0
162192  1  0  0  0  0
163193  1  0  0  0  0
168194  1  0  0  0  0
169195  1  0  0  0  0
171196  1  0  0  0  0
172197  1  0  0  0  0
172198  1  0  0  0  0
172199  1  0  0  0  0
173200  1  0  0  0  0
174201  1  0  0  0  0
176202  1  0  0  0  0
177203  1  0  0  0  0
136205  4  0  0  0  0
205206  4  0  0  0  0
206207  4  0  0  0  0
207208  2  0  0  0  0
208209  4  0  0  0  0
204210  1  0  0  0  0
206210  4  0  0  0  0
209210  4  0  0  0  0
209211  4  0  0  0  0
211212  1  0  0  0  0
212213  4  0  0  0  0
213214  4  0  0  0  0
214215  4  0  0  0  0
215216  1  0  0  0  0
216217  1  0  0  0  0
215218  4  0  0  0  0
212219  4  0  0  0  0
218219  4  0  0  0  0
211220  4  0  0  0  0
220221  4  0  0  0  0
221222  2  0  0  0  0
204223  1  0  0  0  0
220223  4  0  0  0  0
222224  4  0  0  0  0
223224  4  0  0  0  0
137225  4  0  0  0  0
224225  4  0  0  0  0
225226  4  0  0  0  0
226227  4  0  0  0  0
227228  2  0  0  0  0
228229  4  0  0  0  0
204230  1  0  0  0  0
226230  4  0  0  0  0
229230  4  0  0  0  0
229231  4  0  0  0  0
231232  1  0  0  0  0
232233  4  0  0  0  0
233234  4  0  0  0  0
234235  4  0  0  0  0
235236  1  0  0  0  0
236237  1  0  0  0  0
235238  4  0  0  0  0
232239  4  0  0  0  0
238239  4  0  0  0  0
231240  4  0  0  0  0
240241  4  0  0  0  0
241242  2  0  0  0  0
205243  4  0  0  0  0
242243  4  0  0  0  0
204244  1  0  0  0  0
240244  4  0  0  0  0
243244  4  0  0  0  0
207245  1  0  0  0  0
208246  1  0  0  0  0
213247  1  0  0  0  0
214248  1  0  0  0  0
216249  1  0  0  0  0
217250  1  0  0  0  0
217251  1  0  0  0  0
217252  1  0  0  0  0
218253  1  0  0  0  0
219254  1  0  0  0  0
221255  1  0  0  0  0
222256  1  0  0  0  0
227257  1  0  0  0  0
228258  1  0  0  0  0
233259  1  0  0  0  0
234260  1  0  0  0  0
236261  1  0  0  0  0
237262  1  0  0  0  0
237263  1  0  0  0  0
237264  1  0  0  0  0
238265  1  0  0  0  0
239266  1  0  0  0  0
241267  1  0  0  0  0
242268  1  0  0  0  0
M  END
