 xtb: 6.5.1 (b24c23e)
          07302201543D

191226  0     0  0            999 V2000
   29.8046   -0.0003   -0.0843 Co  0  0  0  0  0  0  0  0  0  0  0  0
   26.4361   -0.0018   -0.2479 C   0  0  0  0  0  0  0  0  0  0  0  0
   27.0873   -1.2114   -0.1344 C   0  0  0  0  0  0  0  0  0  0  0  0
   26.4216   -2.4750   -0.0410 C   0  0  0  0  0  0  0  0  0  0  0  0
   27.3804   -3.4266   -0.1276 C   0  0  0  0  0  0  0  0  0  0  0  0
   28.6294   -2.7417   -0.2951 C   0  0  0  0  0  0  0  0  0  0  0  0
   28.4458   -1.3846   -0.2252 N   0  0  0  0  0  0  0  0  0  0  0  0
   29.8286   -3.3653   -0.6140 C   0  0  0  0  0  0  0  0  0  0  0  0
   29.8451   -4.8270   -0.8387 C   0  0  0  0  0  0  0  0  0  0  0  0
   30.6667   -5.6492   -0.0613 C   0  0  0  0  0  0  0  0  0  0  0  0
   30.6896   -7.0165   -0.2668 C   0  0  0  0  0  0  0  0  0  0  0  0
   29.8880   -7.5664   -1.2630 C   0  0  0  0  0  0  0  0  0  0  0  0
   29.9118   -9.0016   -1.4866 N   0  0  0  0  0  0  0  0  0  0  0  0
   29.2034   -9.4422   -2.3550 O   0  0  0  0  0  0  0  0  0  0  0  0
   30.6390   -9.6621   -0.7903 O   0  0  0  0  0  0  0  0  0  0  0  0
   29.0652   -6.7655   -2.0498 C   0  0  0  0  0  0  0  0  0  0  0  0
   29.0454   -5.3999   -1.8323 C   0  0  0  0  0  0  0  0  0  0  0  0
   31.0132   -2.6540   -0.7441 C   0  0  0  0  0  0  0  0  0  0  0  0
   32.2576   -3.2284   -1.1593 C   0  0  0  0  0  0  0  0  0  0  0  0
   33.2016   -2.2694   -1.0033 C   0  0  0  0  0  0  0  0  0  0  0  0
   31.1848   -1.3330   -0.4027 N   0  0  0  0  0  0  0  0  0  0  0  0
   32.5309   -1.1132   -0.4990 C   0  0  0  0  0  0  0  0  0  0  0  0
   33.1963    0.0205   -0.0270 C   0  0  0  0  0  0  0  0  0  0  0  0
   32.5032    1.1360    0.4490 C   0  0  0  0  0  0  0  0  0  0  0  0
   33.1416    2.2809    1.0166 C   0  0  0  0  0  0  0  0  0  0  0  0
   32.1760    3.2135    1.1988 C   0  0  0  0  0  0  0  0  0  0  0  0
   30.9533    2.6395    0.7222 C   0  0  0  0  0  0  0  0  0  0  0  0
   31.1566    1.3366    0.3294 N   0  0  0  0  0  0  0  0  0  0  0  0
   29.7692    3.3441    0.5613 C   0  0  0  0  0  0  0  0  0  0  0  0
   29.7487    4.7935    0.8552 C   0  0  0  0  0  0  0  0  0  0  0  0
   28.8748    5.3050    1.8195 C   0  0  0  0  0  0  0  0  0  0  0  0
   28.8541    6.6587    2.1017 C   0  0  0  0  0  0  0  0  0  0  0  0
   29.7102    7.5097    1.4087 C   0  0  0  0  0  0  0  0  0  0  0  0
   29.6911    8.9328    1.6994 N   0  0  0  0  0  0  0  0  0  0  0  0
   28.9202    9.3197    2.5399 O   0  0  0  0  0  0  0  0  0  0  0  0
   30.4473    9.6380    1.0822 O   0  0  0  0  0  0  0  0  0  0  0  0
   30.5843    7.0215    0.4416 C   0  0  0  0  0  0  0  0  0  0  0  0
   30.6015    5.6654    0.1713 C   0  0  0  0  0  0  0  0  0  0  0  0
   28.6036    2.7301    0.1206 C   0  0  0  0  0  0  0  0  0  0  0  0
   27.3752    3.4214   -0.1433 C   0  0  0  0  0  0  0  0  0  0  0  0
   26.4376    2.4751   -0.3833 C   0  0  0  0  0  0  0  0  0  0  0  0
   27.0948    1.2083   -0.2710 C   0  0  0  0  0  0  0  0  0  0  0  0
   28.4352    1.3780   -0.0267 N   0  0  0  0  0  0  0  0  0  0  0  0
   25.3543   -0.0018   -0.3086 H   0  0  0  0  0  0  0  0  0  0  0  0
   25.3564   -2.5973    0.0721 H   0  0  0  0  0  0  0  0  0  0  0  0
   27.2658   -4.4976   -0.0876 H   0  0  0  0  0  0  0  0  0  0  0  0
   31.2776   -5.2096    0.7186 H   0  0  0  0  0  0  0  0  0  0  0  0
   31.3180   -7.6623    0.3347 H   0  0  0  0  0  0  0  0  0  0  0  0
   28.4551   -7.2178   -2.8224 H   0  0  0  0  0  0  0  0  0  0  0  0
   28.4200   -4.7640   -2.4480 H   0  0  0  0  0  0  0  0  0  0  0  0
   32.3815   -4.2350   -1.5241 H   0  0  0  0  0  0  0  0  0  0  0  0
   34.2605   -2.3269   -1.1971 H   0  0  0  0  0  0  0  0  0  0  0  0
   34.1946    2.3475    1.2378 H   0  0  0  0  0  0  0  0  0  0  0  0
   32.2727    4.2033    1.6141 H   0  0  0  0  0  0  0  0  0  0  0  0
   28.2216    4.6301    2.3602 H   0  0  0  0  0  0  0  0  0  0  0  0
   28.1858    7.0636    2.8521 H   0  0  0  0  0  0  0  0  0  0  0  0
   31.2368    7.7057   -0.0872 H   0  0  0  0  0  0  0  0  0  0  0  0
   31.2684    5.2744   -0.5882 H   0  0  0  0  0  0  0  0  0  0  0  0
   27.2598    4.4931   -0.1425 H   0  0  0  0  0  0  0  0  0  0  0  0
   25.3903    2.6023   -0.6058 H   0  0  0  0  0  0  0  0  0  0  0  0
   61.7097    0.0588   -0.0463 Co  0  0  0  0  0  0  0  0  0  0  0  0
   65.0762    0.1142   -0.2071 C   0  0  0  0  0  0  0  0  0  0  0  0
   64.4285    1.1930    0.3563 C   0  0  0  0  0  0  0  0  0  0  0  0
   65.0965    2.3278    0.9174 C   0  0  0  0  0  0  0  0  0  0  0  0
   64.1400    3.2465    1.1889 C   0  0  0  0  0  0  0  0  0  0  0  0
   62.8903    2.6781    0.7739 C   0  0  0  0  0  0  0  0  0  0  0  0
   63.0708    1.3921    0.3344 N   0  0  0  0  0  0  0  0  0  0  0  0
   61.6937    3.3801    0.7021 C   0  0  0  0  0  0  0  0  0  0  0  0
   61.6821    4.8220    1.0304 C   0  0  0  0  0  0  0  0  0  0  0  0
   60.8545    5.3054    2.0487 C   0  0  0  0  0  0  0  0  0  0  0  0
   60.8374    6.6524    2.3608 C   0  0  0  0  0  0  0  0  0  0  0  0
   61.6508    7.5255    1.6441 C   0  0  0  0  0  0  0  0  0  0  0  0
   61.6334    8.9422    1.9649 N   0  0  0  0  0  0  0  0  0  0  0  0
   62.3528    9.6670    1.3268 O   0  0  0  0  0  0  0  0  0  0  0  0
   60.9007    9.3043    2.8493 O   0  0  0  0  0  0  0  0  0  0  0  0
   62.4795    7.0654    0.6248 C   0  0  0  0  0  0  0  0  0  0  0  0
   62.4934    5.7155    0.3244 C   0  0  0  0  0  0  0  0  0  0  0  0
   60.5081    2.7704    0.3164 C   0  0  0  0  0  0  0  0  0  0  0  0
   59.2652    3.4591    0.1374 C   0  0  0  0  0  0  0  0  0  0  0  0
   58.3189    2.5107   -0.0647 C   0  0  0  0  0  0  0  0  0  0  0  0
   60.3330    1.4160    0.1540 N   0  0  0  0  0  0  0  0  0  0  0  0
   58.9868    1.2489   -0.0139 C   0  0  0  0  0  0  0  0  0  0  0  0
   58.3200    0.0213    0.0238 C   0  0  0  0  0  0  0  0  0  0  0  0
   59.0138   -1.1915    0.0605 C   0  0  0  0  0  0  0  0  0  0  0  0
   58.3774   -2.4650    0.1775 C   0  0  0  0  0  0  0  0  0  0  0  0
   59.3402   -3.3992   -0.0125 C   0  0  0  0  0  0  0  0  0  0  0  0
   60.5590   -2.6898   -0.2637 C   0  0  0  0  0  0  0  0  0  0  0  0
   60.3572   -1.3340   -0.1436 N   0  0  0  0  0  0  0  0  0  0  0  0
   61.7361   -3.2828   -0.6969 C   0  0  0  0  0  0  0  0  0  0  0  0
   61.7509   -4.7357   -0.9723 C   0  0  0  0  0  0  0  0  0  0  0  0
   62.6411   -5.5739   -0.2939 C   0  0  0  0  0  0  0  0  0  0  0  0
   62.6578   -6.9334   -0.5470 C   0  0  0  0  0  0  0  0  0  0  0  0
   61.7808   -7.4589   -1.4916 C   0  0  0  0  0  0  0  0  0  0  0  0
   61.7969   -8.8856   -1.7644 N   0  0  0  0  0  0  0  0  0  0  0  0
   62.5837   -9.5613   -1.1526 O   0  0  0  0  0  0  0  0  0  0  0  0
   61.0224   -9.3045   -2.5859 O   0  0  0  0  0  0  0  0  0  0  0  0
   60.8892   -6.6415   -2.1803 C   0  0  0  0  0  0  0  0  0  0  0  0
   60.8764   -5.2842   -1.9156 C   0  0  0  0  0  0  0  0  0  0  0  0
   62.8997   -2.5484   -0.8910 C   0  0  0  0  0  0  0  0  0  0  0  0
   64.1224   -3.0890   -1.4098 C   0  0  0  0  0  0  0  0  0  0  0  0
   65.0633   -2.1246   -1.2784 C   0  0  0  0  0  0  0  0  0  0  0  0
   64.4132   -0.9948   -0.6868 C   0  0  0  0  0  0  0  0  0  0  0  0
   63.0736   -1.2420   -0.5157 N   0  0  0  0  0  0  0  0  0  0  0  0
   66.1579    0.1346   -0.2657 H   0  0  0  0  0  0  0  0  0  0  0  0
   66.1615    2.3954    1.0711 H   0  0  0  0  0  0  0  0  0  0  0  0
   64.2568    4.2248    1.6261 H   0  0  0  0  0  0  0  0  0  0  0  0
   60.2346    4.6134    2.6068 H   0  0  0  0  0  0  0  0  0  0  0  0
   60.2043    7.0354    3.1522 H   0  0  0  0  0  0  0  0  0  0  0  0
   63.0991    7.7664    0.0786 H   0  0  0  0  0  0  0  0  0  0  0  0
   63.1236    5.3471   -0.4766 H   0  0  0  0  0  0  0  0  0  0  0  0
   59.1436    4.5297    0.1626 H   0  0  0  0  0  0  0  0  0  0  0  0
   57.2603    2.6371   -0.2238 H   0  0  0  0  0  0  0  0  0  0  0  0
   57.3274   -2.6087    0.3752 H   0  0  0  0  0  0  0  0  0  0  0  0
   59.2440   -4.4724    0.0106 H   0  0  0  0  0  0  0  0  0  0  0  0
   63.3105   -5.1541    0.4478 H   0  0  0  0  0  0  0  0  0  0  0  0
   63.3392   -7.5919   -0.0218 H   0  0  0  0  0  0  0  0  0  0  0  0
   60.2202   -7.0746   -2.9141 H   0  0  0  0  0  0  0  0  0  0  0  0
   60.1964   -4.6352   -2.4548 H   0  0  0  0  0  0  0  0  0  0  0  0
   64.2327   -4.0801   -1.8189 H   0  0  0  0  0  0  0  0  0  0  0  0
   66.1084   -2.1596   -1.5413 H   0  0  0  0  0  0  0  0  0  0  0  0
   38.3957    0.0415    0.0069 C   0  0  0  0  0  0  0  0  0  0  0  0
   37.1669    0.0451   -0.0030 C   0  0  0  0  0  0  0  0  0  0  0  0
   35.8233    0.0397   -0.0059 C   0  0  0  0  0  0  0  0  0  0  0  0
   34.5994    0.0321   -0.0146 C   0  0  0  0  0  0  0  0  0  0  0  0
   39.7389    0.0401    0.0111 C   0  0  0  0  0  0  0  0  0  0  0  0
   40.9633    0.0359    0.0118 C   0  0  0  0  0  0  0  0  0  0  0  0
   54.3511   -0.0116    0.0427 C   0  0  0  0  0  0  0  0  0  0  0  0
   53.1218   -0.0155    0.0465 C   0  0  0  0  0  0  0  0  0  0  0  0
   51.7795   -0.0184    0.0437 C   0  0  0  0  0  0  0  0  0  0  0  0
   50.5546   -0.0164    0.0385 C   0  0  0  0  0  0  0  0  0  0  0  0
   55.6937   -0.0018    0.0427 C   0  0  0  0  0  0  0  0  0  0  0  0
   56.9182    0.0063    0.0362 C   0  0  0  0  0  0  0  0  0  0  0  0
   45.7595    0.0075   -0.0249 Co  0  0  0  0  0  0  0  0  0  0  0  0
   42.3650    0.0282    0.0080 C   0  0  0  0  0  0  0  0  0  0  0  0
   43.0410   -1.1518    0.3321 C   0  0  0  0  0  0  0  0  0  0  0  0
   42.3839   -2.3616    0.7128 C   0  0  0  0  0  0  0  0  0  0  0  0
   43.3332   -3.3287    0.7327 C   0  0  0  0  0  0  0  0  0  0  0  0
   44.5645   -2.7043    0.3536 C   0  0  0  0  0  0  0  0  0  0  0  0
   44.3841   -1.3525    0.1803 N   0  0  0  0  0  0  0  0  0  0  0  0
   45.7402   -3.3905    0.0796 C   0  0  0  0  0  0  0  0  0  0  0  0
   45.7288   -4.8692    0.1097 C   0  0  0  0  0  0  0  0  0  0  0  0
   46.5755   -5.5643    0.9786 C   0  0  0  0  0  0  0  0  0  0  0  0
   46.5647   -6.9468    1.0133 C   0  0  0  0  0  0  0  0  0  0  0  0
   45.7049   -7.6404    0.1666 C   0  0  0  0  0  0  0  0  0  0  0  0
   45.6918   -9.0931    0.1971 N   0  0  0  0  0  0  0  0  0  0  0  0
   44.9357   -9.6589   -0.5497 O   0  0  0  0  0  0  0  0  0  0  0  0
   46.4381   -9.6407    0.9671 O   0  0  0  0  0  0  0  0  0  0  0  0
   44.8569   -6.9675   -0.7082 C   0  0  0  0  0  0  0  0  0  0  0  0
   44.8700   -5.5848   -0.7302 C   0  0  0  0  0  0  0  0  0  0  0  0
   46.9257   -2.7325   -0.2183 C   0  0  0  0  0  0  0  0  0  0  0  0
   48.1533   -3.3873   -0.5559 C   0  0  0  0  0  0  0  0  0  0  0  0
   49.1149   -2.4320   -0.5632 C   0  0  0  0  0  0  0  0  0  0  0  0
   47.1226   -1.3770   -0.0962 N   0  0  0  0  0  0  0  0  0  0  0  0
   48.4685   -1.1990   -0.2445 C   0  0  0  0  0  0  0  0  0  0  0  0
   49.1539   -0.0104    0.0272 C   0  0  0  0  0  0  0  0  0  0  0  0
   48.4756    1.1869    0.2764 C   0  0  0  0  0  0  0  0  0  0  0  0
   49.1308    2.4184    0.5836 C   0  0  0  0  0  0  0  0  0  0  0  0
   48.1823    3.3852    0.5338 C   0  0  0  0  0  0  0  0  0  0  0  0
   46.9533    2.7381    0.1868 C   0  0  0  0  0  0  0  0  0  0  0  0
   47.1341    1.3776    0.1027 N   0  0  0  0  0  0  0  0  0  0  0  0
   45.7802    3.4051   -0.1394 C   0  0  0  0  0  0  0  0  0  0  0  0
   45.7935    4.8822   -0.2128 C   0  0  0  0  0  0  0  0  0  0  0  0
   46.6589    5.5345   -1.0964 C   0  0  0  0  0  0  0  0  0  0  0  0
   46.6714    6.9150   -1.1769 C   0  0  0  0  0  0  0  0  0  0  0  0
   45.8160    7.6500   -0.3613 C   0  0  0  0  0  0  0  0  0  0  0  0
   45.8261    9.1009   -0.4410 N   0  0  0  0  0  0  0  0  0  0  0  0
   46.5887    9.6104   -1.2211 O   0  0  0  0  0  0  0  0  0  0  0  0
   45.0707    9.7034    0.2772 O   0  0  0  0  0  0  0  0  0  0  0  0
   44.9508    7.0203    0.5288 C   0  0  0  0  0  0  0  0  0  0  0  0
   44.9411    5.6390    0.5968 C   0  0  0  0  0  0  0  0  0  0  0  0
   44.5953    2.7292   -0.3989 C   0  0  0  0  0  0  0  0  0  0  0  0
   43.3695    3.3613   -0.7829 C   0  0  0  0  0  0  0  0  0  0  0  0
   42.4072    2.4081   -0.7310 C   0  0  0  0  0  0  0  0  0  0  0  0
   43.0517    1.1979   -0.3314 C   0  0  0  0  0  0  0  0  0  0  0  0
   44.3973    1.3848   -0.1898 N   0  0  0  0  0  0  0  0  0  0  0  0
   41.3302   -2.4457    0.9241 H   0  0  0  0  0  0  0  0  0  0  0  0
   43.2199   -4.3719    0.9785 H   0  0  0  0  0  0  0  0  0  0  0  0
   47.2315   -5.0122    1.6413 H   0  0  0  0  0  0  0  0  0  0  0  0
   47.2115   -7.4945    1.6881 H   0  0  0  0  0  0  0  0  0  0  0  0
   44.2003   -7.5312   -1.3600 H   0  0  0  0  0  0  0  0  0  0  0  0
   44.2229   -5.0489   -1.4147 H   0  0  0  0  0  0  0  0  0  0  0  0
   48.2562   -4.4410   -0.7575 H   0  0  0  0  0  0  0  0  0  0  0  0
   50.1699   -2.5380   -0.7574 H   0  0  0  0  0  0  0  0  0  0  0  0
   50.1830    2.5156    0.7968 H   0  0  0  0  0  0  0  0  0  0  0  0
   48.2946    4.4422    0.7124 H   0  0  0  0  0  0  0  0  0  0  0  0
   47.3113    4.9499   -1.7345 H   0  0  0  0  0  0  0  0  0  0  0  0
   47.3328    7.4294   -1.8637 H   0  0  0  0  0  0  0  0  0  0  0  0
   44.2985    7.6159    1.1560 H   0  0  0  0  0  0  0  0  0  0  0  0
   44.2805    5.1370    1.2940 H   0  0  0  0  0  0  0  0  0  0  0  0
   43.2678    4.3996   -1.0532 H   0  0  0  0  0  0  0  0  0  0  0  0
   41.3529    2.5018   -0.9352 H   0  0  0  0  0  0  0  0  0  0  0  0
  2  3  4  0  0  0  0
  3  4  1  0  0  0  0
  4  5  2  0  0  0  0
  5  6  4  0  0  0  0
  1  7  1  0  0  0  0
  3  7  4  0  0  0  0
  6  7  4  0  0  0  0
  6  8  4  0  0  0  0
  8  9  1  0  0  0  0
  9 10  4  0  0  0  0
 10 11  4  0  0  0  0
 11 12  4  0  0  0  0
 12 13  1  0  0  0  0
 13 14  2  0  0  0  0
 13 15  2  0  0  0  0
 14 15  1  0  0  0  0
 12 16  4  0  0  0  0
  9 17  4  0  0  0  0
 16 17  4  0  0  0  0
  8 18  4  0  0  0  0
 18 19  4  0  0  0  0
 19 20  2  0  0  0  0
  1 21  1  0  0  0  0
 18 21  4  0  0  0  0
 20 22  4  0  0  0  0
 21 22  4  0  0  0  0
 22 23  4  0  0  0  0
 23 24  4  0  0  0  0
 24 25  4  0  0  0  0
 25 26  2  0  0  0  0
 26 27  4  0  0  0  0
  1 28  1  0  0  0  0
 24 28  4  0  0  0  0
 27 28  4  0  0  0  0
 27 29  4  0  0  0  0
 29 30  1  0  0  0  0
 30 31  4  0  0  0  0
 31 32  4  0  0  0  0
 32 33  4  0  0  0  0
 33 34  1  0  0  0  0
 34 35  2  0  0  0  0
 34 36  2  0  0  0  0
 35 36  1  0  0  0  0
 33 37  4  0  0  0  0
 30 38  4  0  0  0  0
 37 38  4  0  0  0  0
 29 39  4  0  0  0  0
 39 40  4  0  0  0  0
 40 41  2  0  0  0  0
  2 42  4  0  0  0  0
 41 42  1  0  0  0  0
  1 43  1  0  0  0  0
 39 43  4  0  0  0  0
 42 43  4  0  0  0  0
  2 44  1  0  0  0  0
  4 45  1  0  0  0  0
  5 46  1  0  0  0  0
 10 47  1  0  0  0  0
 11 48  1  0  0  0  0
 16 49  1  0  0  0  0
 17 50  1  0  0  0  0
 19 51  1  0  0  0  0
 20 52  1  0  0  0  0
 25 53  1  0  0  0  0
 26 54  1  0  0  0  0
 31 55  1  0  0  0  0
 32 56  1  0  0  0  0
 37 57  1  0  0  0  0
 38 58  1  0  0  0  0
 40 59  1  0  0  0  0
 41 60  1  0  0  0  0
 62 63  4  0  0  0  0
 63 64  1  0  0  0  0
 64 65  2  0  0  0  0
 65 66  4  0  0  0  0
 61 67  1  0  0  0  0
 63 67  4  0  0  0  0
 66 67  4  0  0  0  0
 66 68  4  0  0  0  0
 68 69  1  0  0  0  0
 69 70  4  0  0  0  0
 70 71  4  0  0  0  0
 71 72  4  0  0  0  0
 72 73  1  0  0  0  0
 73 74  2  0  0  0  0
 73 75  2  0  0  0  0
 74 75  1  0  0  0  0
 72 76  4  0  0  0  0
 69 77  4  0  0  0  0
 76 77  4  0  0  0  0
 68 78  4  0  0  0  0
 78 79  4  0  0  0  0
 79 80  2  0  0  0  0
 61 81  1  0  0  0  0
 78 81  4  0  0  0  0
 80 82  4  0  0  0  0
 81 82  4  0  0  0  0
 82 83  4  0  0  0  0
 83 84  4  0  0  0  0
 84 85  4  0  0  0  0
 85 86  2  0  0  0  0
 86 87  4  0  0  0  0
 61 88  1  0  0  0  0
 84 88  4  0  0  0  0
 87 88  4  0  0  0  0
 87 89  4  0  0  0  0
 89 90  1  0  0  0  0
 90 91  4  0  0  0  0
 91 92  4  0  0  0  0
 92 93  4  0  0  0  0
 93 94  1  0  0  0  0
 94 95  2  0  0  0  0
 94 96  2  0  0  0  0
 95 96  1  0  0  0  0
 93 97  4  0  0  0  0
 90 98  4  0  0  0  0
 97 98  4  0  0  0  0
 89 99  4  0  0  0  0
 99100  4  0  0  0  0
100101  2  0  0  0  0
 62102  4  0  0  0  0
101102  1  0  0  0  0
 61103  1  0  0  0  0
 99103  4  0  0  0  0
102103  4  0  0  0  0
 62104  1  0  0  0  0
 64105  1  0  0  0  0
 65106  1  0  0  0  0
 70107  1  0  0  0  0
 71108  1  0  0  0  0
 76109  1  0  0  0  0
 77110  1  0  0  0  0
 79111  1  0  0  0  0
 80112  1  0  0  0  0
 85113  1  0  0  0  0
 86114  1  0  0  0  0
 91115  1  0  0  0  0
 92116  1  0  0  0  0
 97117  1  0  0  0  0
 98118  1  0  0  0  0
100119  1  0  0  0  0
101120  1  0  0  0  0
121122  3  0  0  0  0
122123  4  0  0  0  0
 23124  4  0  0  0  0
123124  3  0  0  0  0
121125  4  0  0  0  0
125126  3  0  0  0  0
127128  3  0  0  0  0
128129  4  0  0  0  0
129130  3  0  0  0  0
127131  4  0  0  0  0
 83132  4  0  0  0  0
131132  3  0  0  0  0
126134  4  0  0  0  0
134135  4  0  0  0  0
135136  4  0  0  0  0
136137  2  0  0  0  0
137138  4  0  0  0  0
133139  1  0  0  0  0
135139  4  0  0  0  0
138139  4  0  0  0  0
138140  4  0  0  0  0
140141  1  0  0  0  0
141142  4  0  0  0  0
142143  4  0  0  0  0
143144  4  0  0  0  0
144145  1  0  0  0  0
145146  2  0  0  0  0
145147  2  0  0  0  0
146147  1  0  0  0  0
144148  4  0  0  0  0
141149  4  0  0  0  0
148149  4  0  0  0  0
140150  4  0  0  0  0
150151  4  0  0  0  0
151152  2  0  0  0  0
133153  1  0  0  0  0
150153  4  0  0  0  0
152154  4  0  0  0  0
153154  4  0  0  0  0
130155  4  0  0  0  0
154155  4  0  0  0  0
155156  4  0  0  0  0
156157  4  0  0  0  0
157158  2  0  0  0  0
158159  4  0  0  0  0
133160  1  0  0  0  0
156160  4  0  0  0  0
159160  4  0  0  0  0
159161  4  0  0  0  0
161162  1  0  0  0  0
162163  4  0  0  0  0
163164  4  0  0  0  0
164165  4  0  0  0  0
165166  1  0  0  0  0
166167  2  0  0  0  0
166168  2  0  0  0  0
167168  1  0  0  0  0
165169  4  0  0  0  0
162170  4  0  0  0  0
169170  4  0  0  0  0
161171  4  0  0  0  0
171172  4  0  0  0  0
172173  2  0  0  0  0
134174  4  0  0  0  0
173174  4  0  0  0  0
133175  1  0  0  0  0
171175  4  0  0  0  0
174175  4  0  0  0  0
136176  1  0  0  0  0
137177  1  0  0  0  0
142178  1  0  0  0  0
143179  1  0  0  0  0
148180  1  0  0  0  0
149181  1  0  0  0  0
151182  1  0  0  0  0
152183  1  0  0  0  0
157184  1  0  0  0  0
158185  1  0  0  0  0
163186  1  0  0  0  0
164187  1  0  0  0  0
169188  1  0  0  0  0
170189  1  0  0  0  0
172190  1  0  0  0  0
173191  1  0  0  0  0
M  END
