 xtb: 6.5.1 (b24c23e)
          07292218593D

215244  0     0  0            999 V2000
   28.4388    0.0965   -0.2583 Fe  0  0  0  0  0  0  0  0  0  0  0  0
   25.1001    0.2811   -0.7692 C   0  0  0  0  0  0  0  0  0  0  0  0
   25.7305    1.3918   -0.2461 C   0  0  0  0  0  0  0  0  0  0  0  0
   25.0413    2.5896    0.1279 C   0  0  0  0  0  0  0  0  0  0  0  0
   25.9759    3.4380    0.6177 C   0  0  0  0  0  0  0  0  0  0  0  0
   27.2407    2.7700    0.5075 C   0  0  0  0  0  0  0  0  0  0  0  0
   27.0707    1.5042    0.0142 N   0  0  0  0  0  0  0  0  0  0  0  0
   28.4634    3.3647    0.8006 C   0  0  0  0  0  0  0  0  0  0  0  0
   29.6763    2.7133    0.6219 C   0  0  0  0  0  0  0  0  0  0  0  0
   30.9515    3.3513    0.7611 C   0  0  0  0  0  0  0  0  0  0  0  0
   31.8899    2.4152    0.4806 C   0  0  0  0  0  0  0  0  0  0  0  0
   29.8387    1.3996    0.2539 N   0  0  0  0  0  0  0  0  0  0  0  0
   31.1863    1.2066    0.1859 C   0  0  0  0  0  0  0  0  0  0  0  0
   31.8303   -0.0160   -0.0437 C   0  0  0  0  0  0  0  0  0  0  0  0
   31.1376   -1.2171   -0.2457 C   0  0  0  0  0  0  0  0  0  0  0  0
   31.7898   -2.4829   -0.3694 C   0  0  0  0  0  0  0  0  0  0  0  0
   30.8153   -3.4037   -0.5632 C   0  0  0  0  0  0  0  0  0  0  0  0
   29.5710   -2.6930   -0.5737 C   0  0  0  0  0  0  0  0  0  0  0  0
   28.3546   -3.2777   -0.8938 C   0  0  0  0  0  0  0  0  0  0  0  0
   28.3231   -4.7378   -1.1553 C   0  0  0  0  0  0  0  0  0  0  0  0
   28.0348   -5.2191   -2.4303 C   0  0  0  0  0  0  0  0  0  0  0  0
   28.0168   -6.5882   -2.6805 C   0  0  0  0  0  0  0  0  0  0  0  0
   27.6918   -7.0988   -4.0583 C   0  0  0  0  0  0  0  0  0  0  0  0
   28.2839   -7.4738   -1.6423 C   0  0  0  0  0  0  0  0  0  0  0  0
   28.5731   -7.0071   -0.3621 C   0  0  0  0  0  0  0  0  0  0  0  0
   28.8746   -7.9819    0.7439 C   0  0  0  0  0  0  0  0  0  0  0  0
   28.5950   -5.6379   -0.1253 C   0  0  0  0  0  0  0  0  0  0  0  0
   27.1785   -2.5469   -1.0280 C   0  0  0  0  0  0  0  0  0  0  0  0
   25.9235   -3.1124   -1.4309 C   0  0  0  0  0  0  0  0  0  0  0  0
   25.0226   -2.1018   -1.4380 C   0  0  0  0  0  0  0  0  0  0  0  0
   25.7208   -0.9274   -1.0095 C   0  0  0  0  0  0  0  0  0  0  0  0
   27.0404   -1.2101   -0.7710 N   0  0  0  0  0  0  0  0  0  0  0  0
   29.7865   -1.3526   -0.3549 N   0  0  0  0  0  0  0  0  0  0  0  0
   28.4849    4.7706    1.2697 C   0  0  0  0  0  0  0  0  0  0  0  0
   27.9856    5.7932    0.4637 C   0  0  0  0  0  0  0  0  0  0  0  0
   28.0155    7.1134    0.8989 C   0  0  0  0  0  0  0  0  0  0  0  0
   27.4978    8.2172    0.0168 C   0  0  0  0  0  0  0  0  0  0  0  0
   28.5501    7.4074    2.1501 C   0  0  0  0  0  0  0  0  0  0  0  0
   29.0548    6.3984    2.9648 C   0  0  0  0  0  0  0  0  0  0  0  0
   29.6150    6.7255    4.3226 C   0  0  0  0  0  0  0  0  0  0  0  0
   29.0205    5.0815    2.5188 C   0  0  0  0  0  0  0  0  0  0  0  0
   24.0347    0.3483   -0.9598 H   0  0  0  0  0  0  0  0  0  0  0  0
   23.9771    2.7377    0.0344 H   0  0  0  0  0  0  0  0  0  0  0  0
   25.8336    4.4287    1.0176 H   0  0  0  0  0  0  0  0  0  0  0  0
   31.0990    4.3868    1.0211 H   0  0  0  0  0  0  0  0  0  0  0  0
   32.9632    2.5171    0.4780 H   0  0  0  0  0  0  0  0  0  0  0  0
   32.8560   -2.6320   -0.3121 H   0  0  0  0  0  0  0  0  0  0  0  0
   30.9203   -4.4660   -0.7114 H   0  0  0  0  0  0  0  0  0  0  0  0
   27.8431   -4.5184   -3.2354 H   0  0  0  0  0  0  0  0  0  0  0  0
   28.1009   -8.0975   -4.2105 H   0  0  0  0  0  0  0  0  0  0  0  0
   26.6084   -7.1501   -4.1890 H   0  0  0  0  0  0  0  0  0  0  0  0
   28.0927   -6.4322   -4.8224 H   0  0  0  0  0  0  0  0  0  0  0  0
   28.2699   -8.5424   -1.8309 H   0  0  0  0  0  0  0  0  0  0  0  0
   28.8886   -7.4822    1.7123 H   0  0  0  0  0  0  0  0  0  0  0  0
   28.1276   -8.7765    0.7687 H   0  0  0  0  0  0  0  0  0  0  0  0
   29.8509   -8.4429    0.5796 H   0  0  0  0  0  0  0  0  0  0  0  0
   28.8109   -5.2601    0.8681 H   0  0  0  0  0  0  0  0  0  0  0  0
   25.7634   -4.1510   -1.6707 H   0  0  0  0  0  0  0  0  0  0  0  0
   23.9736   -2.1333   -1.6866 H   0  0  0  0  0  0  0  0  0  0  0  0
   27.5902    5.5544   -0.5175 H   0  0  0  0  0  0  0  0  0  0  0  0
   27.0207    8.9964    0.6119 H   0  0  0  0  0  0  0  0  0  0  0  0
   26.7774    7.8330   -0.7053 H   0  0  0  0  0  0  0  0  0  0  0  0
   28.3247    8.6709   -0.5344 H   0  0  0  0  0  0  0  0  0  0  0  0
   28.5759    8.4367    2.4929 H   0  0  0  0  0  0  0  0  0  0  0  0
   28.8158    6.7132    5.0671 H   0  0  0  0  0  0  0  0  0  0  0  0
   30.0669    7.7177    4.3269 H   0  0  0  0  0  0  0  0  0  0  0  0
   30.3665    5.9935    4.6191 H   0  0  0  0  0  0  0  0  0  0  0  0
   29.3999    4.2846    3.1490 H   0  0  0  0  0  0  0  0  0  0  0  0
   60.3916    0.1123   -0.0937 Fe  0  0  0  0  0  0  0  0  0  0  0  0
   63.7390    0.5601   -0.4526 C   0  0  0  0  0  0  0  0  0  0  0  0
   63.0874   -0.2148   -1.3898 C   0  0  0  0  0  0  0  0  0  0  0  0
   63.7584   -0.9011   -2.4519 C   0  0  0  0  0  0  0  0  0  0  0  0
   62.8078   -1.5791   -3.1368 C   0  0  0  0  0  0  0  0  0  0  0  0
   61.5521   -1.2800   -2.5112 C   0  0  0  0  0  0  0  0  0  0  0  0
   61.7401   -0.4587   -1.4310 N   0  0  0  0  0  0  0  0  0  0  0  0
   60.3249   -1.7316   -2.9819 C   0  0  0  0  0  0  0  0  0  0  0  0
   59.1182   -1.3984   -2.3821 C   0  0  0  0  0  0  0  0  0  0  0  0
   57.8393   -1.7545   -2.9211 C   0  0  0  0  0  0  0  0  0  0  0  0
   56.9056   -1.2397   -2.0861 C   0  0  0  0  0  0  0  0  0  0  0  0
   58.9632   -0.6565   -1.2355 N   0  0  0  0  0  0  0  0  0  0  0  0
   57.6154   -0.5787   -1.0362 C   0  0  0  0  0  0  0  0  0  0  0  0
   56.9798    0.0177    0.0565 C   0  0  0  0  0  0  0  0  0  0  0  0
   57.6781    0.5967    1.1198 C   0  0  0  0  0  0  0  0  0  0  0  0
   57.0349    1.1166    2.2856 C   0  0  0  0  0  0  0  0  0  0  0  0
   58.0162    1.5793    3.0962 C   0  0  0  0  0  0  0  0  0  0  0  0
   59.2567    1.3506    2.4164 C   0  0  0  0  0  0  0  0  0  0  0  0
   60.4846    1.7870    2.8934 C   0  0  0  0  0  0  0  0  0  0  0  0
   60.5255    2.4598    4.2157 C   0  0  0  0  0  0  0  0  0  0  0  0
   60.8561    3.8097    4.3086 C   0  0  0  0  0  0  0  0  0  0  0  0
   60.8823    4.4464    5.5459 C   0  0  0  0  0  0  0  0  0  0  0  0
   61.2512    5.9026    5.6369 C   0  0  0  0  0  0  0  0  0  0  0  0
   60.5817    3.7194    6.6925 C   0  0  0  0  0  0  0  0  0  0  0  0
   60.2515    2.3684    6.6153 C   0  0  0  0  0  0  0  0  0  0  0  0
   59.9139    1.6034    7.8665 C   0  0  0  0  0  0  0  0  0  0  0  0
   60.2214    1.7447    5.3738 C   0  0  0  0  0  0  0  0  0  0  0  0
   61.6661    1.6530    2.1747 C   0  0  0  0  0  0  0  0  0  0  0  0
   62.9364    2.1416    2.6274 C   0  0  0  0  0  0  0  0  0  0  0  0
   63.8404    1.8311    1.6690 C   0  0  0  0  0  0  0  0  0  0  0  0
   63.1276    1.1277    0.6457 C   0  0  0  0  0  0  0  0  0  0  0  0
   61.7961    1.0385    0.9573 N   0  0  0  0  0  0  0  0  0  0  0  0
   59.0317    0.7450    1.2031 N   0  0  0  0  0  0  0  0  0  0  0  0
   60.2933   -2.5760   -4.2008 C   0  0  0  0  0  0  0  0  0  0  0  0
   60.7442   -2.0714   -5.4198 C   0  0  0  0  0  0  0  0  0  0  0  0
   60.7065   -2.8572   -6.5663 C   0  0  0  0  0  0  0  0  0  0  0  0
   61.1702   -2.3009   -7.8855 C   0  0  0  0  0  0  0  0  0  0  0  0
   60.2141   -4.1567   -6.4867 C   0  0  0  0  0  0  0  0  0  0  0  0
   59.7595   -4.6741   -5.2776 C   0  0  0  0  0  0  0  0  0  0  0  0
   59.2464   -6.0866   -5.1989 C   0  0  0  0  0  0  0  0  0  0  0  0
   59.8006   -3.8785   -4.1375 C   0  0  0  0  0  0  0  0  0  0  0  0
   64.8093    0.6944   -0.5622 H   0  0  0  0  0  0  0  0  0  0  0  0
   64.8227   -0.8704   -2.6237 H   0  0  0  0  0  0  0  0  0  0  0  0
   62.9332   -2.2273   -3.9889 H   0  0  0  0  0  0  0  0  0  0  0  0
   57.6860   -2.3143   -3.8292 H   0  0  0  0  0  0  0  0  0  0  0  0
   55.8315   -1.2990   -2.1576 H   0  0  0  0  0  0  0  0  0  0  0  0
   55.9692    1.1163    2.4490 H   0  0  0  0  0  0  0  0  0  0  0  0
   57.9191    2.0493    4.0612 H   0  0  0  0  0  0  0  0  0  0  0  0
   61.0753    4.3693    3.4059 H   0  0  0  0  0  0  0  0  0  0  0  0
   60.8566    6.3485    6.5499 H   0  0  0  0  0  0  0  0  0  0  0  0
   62.3383    6.0104    5.6463 H   0  0  0  0  0  0  0  0  0  0  0  0
   60.8649    6.4535    4.7789 H   0  0  0  0  0  0  0  0  0  0  0  0
   60.6018    4.2101    7.6603 H   0  0  0  0  0  0  0  0  0  0  0  0
   59.8888    0.5310    7.6741 H   0  0  0  0  0  0  0  0  0  0  0  0
   60.6474    1.8038    8.6486 H   0  0  0  0  0  0  0  0  0  0  0  0
   58.9336    1.9098    8.2379 H   0  0  0  0  0  0  0  0  0  0  0  0
   59.9731    0.6917    5.2991 H   0  0  0  0  0  0  0  0  0  0  0  0
   63.1027    2.6505    3.5630 H   0  0  0  0  0  0  0  0  0  0  0  0
   64.8999    2.0314    1.6487 H   0  0  0  0  0  0  0  0  0  0  0  0
   61.1092   -1.0515   -5.4725 H   0  0  0  0  0  0  0  0  0  0  0  0
   61.6463   -3.0760   -8.4867 H   0  0  0  0  0  0  0  0  0  0  0  0
   61.8773   -1.4847   -7.7368 H   0  0  0  0  0  0  0  0  0  0  0  0
   60.3161   -1.9143   -8.4462 H   0  0  0  0  0  0  0  0  0  0  0  0
   60.1826   -4.7730   -7.3793 H   0  0  0  0  0  0  0  0  0  0  0  0
   60.0721   -6.7708   -4.9905 H   0  0  0  0  0  0  0  0  0  0  0  0
   58.7880   -6.3860   -6.1417 H   0  0  0  0  0  0  0  0  0  0  0  0
   58.5114   -6.1887   -4.4003 H   0  0  0  0  0  0  0  0  0  0  0  0
   59.4595   -4.2736   -3.1868 H   0  0  0  0  0  0  0  0  0  0  0  0
   37.0262   -0.0919   -0.0077 C   0  0  0  0  0  0  0  0  0  0  0  0
   35.7955   -0.0821   -0.0157 C   0  0  0  0  0  0  0  0  0  0  0  0
   34.4554   -0.0645   -0.0234 C   0  0  0  0  0  0  0  0  0  0  0  0
   33.2295   -0.0454   -0.0294 C   0  0  0  0  0  0  0  0  0  0  0  0
   38.3663   -0.0970   -0.0038 C   0  0  0  0  0  0  0  0  0  0  0  0
   39.5925   -0.0966   -0.0013 C   0  0  0  0  0  0  0  0  0  0  0  0
   53.0083   -0.0186    0.1503 C   0  0  0  0  0  0  0  0  0  0  0  0
   51.7800   -0.0276    0.1573 C   0  0  0  0  0  0  0  0  0  0  0  0
   50.4360   -0.0408    0.1521 C   0  0  0  0  0  0  0  0  0  0  0  0
   49.2120   -0.0494    0.1380 C   0  0  0  0  0  0  0  0  0  0  0  0
   54.3525   -0.0072    0.1303 C   0  0  0  0  0  0  0  0  0  0  0  0
   55.5760    0.0015    0.1032 C   0  0  0  0  0  0  0  0  0  0  0  0
   44.4005   -0.0743    0.0531 Fe  0  0  0  0  0  0  0  0  0  0  0  0
   40.9912   -0.0916    0.0002 C   0  0  0  0  0  0  0  0  0  0  0  0
   41.6578    1.1402    0.0530 C   0  0  0  0  0  0  0  0  0  0  0  0
   40.9838    2.3976    0.1331 C   0  0  0  0  0  0  0  0  0  0  0  0
   41.9347    3.3555    0.0064 C   0  0  0  0  0  0  0  0  0  0  0  0
   43.1852    2.6767   -0.1553 C   0  0  0  0  0  0  0  0  0  0  0  0
   43.0021    1.3172   -0.0826 N   0  0  0  0  0  0  0  0  0  0  0  0
   44.3903    3.3149   -0.4188 C   0  0  0  0  0  0  0  0  0  0  0  0
   45.6023    2.6382   -0.4945 C   0  0  0  0  0  0  0  0  0  0  0  0
   46.8542    3.2657   -0.7943 C   0  0  0  0  0  0  0  0  0  0  0  0
   47.8126    2.3207   -0.6340 C   0  0  0  0  0  0  0  0  0  0  0  0
   45.7907    1.3073   -0.2150 N   0  0  0  0  0  0  0  0  0  0  0  0
   47.1413    1.1184   -0.2526 C   0  0  0  0  0  0  0  0  0  0  0  0
   47.8091   -0.0576    0.1069 C   0  0  0  0  0  0  0  0  0  0  0  0
   47.1383   -1.2444    0.4218 C   0  0  0  0  0  0  0  0  0  0  0  0
   47.8036   -2.4452    0.8182 C   0  0  0  0  0  0  0  0  0  0  0  0
   46.8523   -3.4081    0.8943 C   0  0  0  0  0  0  0  0  0  0  0  0
   45.6110   -2.7907    0.5362 C   0  0  0  0  0  0  0  0  0  0  0  0
   44.4119   -3.4792    0.3887 C   0  0  0  0  0  0  0  0  0  0  0  0
   44.4210   -4.9527    0.5462 C   0  0  0  0  0  0  0  0  0  0  0  0
   43.6692   -5.5570    1.5524 C   0  0  0  0  0  0  0  0  0  0  0  0
   43.6794   -6.9393    1.7076 C   0  0  0  0  0  0  0  0  0  0  0  0
   42.8884   -7.5826    2.8143 C   0  0  0  0  0  0  0  0  0  0  0  0
   44.4435   -7.7166    0.8429 C   0  0  0  0  0  0  0  0  0  0  0  0
   45.1956   -7.1280   -0.1701 C   0  0  0  0  0  0  0  0  0  0  0  0
   46.0279   -7.9804   -1.0894 C   0  0  0  0  0  0  0  0  0  0  0  0
   45.1848   -5.7449   -0.3104 C   0  0  0  0  0  0  0  0  0  0  0  0
   43.2080   -2.8458    0.1107 C   0  0  0  0  0  0  0  0  0  0  0  0
   41.9644   -3.5305   -0.0785 C   0  0  0  0  0  0  0  0  0  0  0  0
   41.0052   -2.5776   -0.1761 C   0  0  0  0  0  0  0  0  0  0  0  0
   41.6684   -1.3171   -0.0618 C   0  0  0  0  0  0  0  0  0  0  0  0
   43.0145   -1.4858    0.0644 N   0  0  0  0  0  0  0  0  0  0  0  0
   45.7964   -1.4534    0.2907 N   0  0  0  0  0  0  0  0  0  0  0  0
   44.3841    4.7825   -0.6239 C   0  0  0  0  0  0  0  0  0  0  0  0
   45.1045    5.6175    0.2283 C   0  0  0  0  0  0  0  0  0  0  0  0
   45.0989    6.9957    0.0371 C   0  0  0  0  0  0  0  0  0  0  0  0
   45.8895    7.8880    0.9553 C   0  0  0  0  0  0  0  0  0  0  0  0
   44.3732    7.5340   -1.0206 C   0  0  0  0  0  0  0  0  0  0  0  0
   43.6494    6.7126   -1.8810 C   0  0  0  0  0  0  0  0  0  0  0  0
   42.8858    7.3067   -3.0334 C   0  0  0  0  0  0  0  0  0  0  0  0
   43.6557    5.3378   -1.6757 C   0  0  0  0  0  0  0  0  0  0  0  0
   39.9204    2.5168    0.2640 H   0  0  0  0  0  0  0  0  0  0  0  0
   41.8111    4.4261    0.0248 H   0  0  0  0  0  0  0  0  0  0  0  0
   46.9748    4.2955   -1.0882 H   0  0  0  0  0  0  0  0  0  0  0  0
   48.8794    2.4149   -0.7582 H   0  0  0  0  0  0  0  0  0  0  0  0
   48.8618   -2.5264    1.0075 H   0  0  0  0  0  0  0  0  0  0  0  0
   46.9704   -4.4431    1.1708 H   0  0  0  0  0  0  0  0  0  0  0  0
   43.0866   -4.9393    2.2271 H   0  0  0  0  0  0  0  0  0  0  0  0
   42.5900   -8.5949    2.5414 H   0  0  0  0  0  0  0  0  0  0  0  0
   43.4972   -7.6399    3.7197 H   0  0  0  0  0  0  0  0  0  0  0  0
   41.9958   -6.9999    3.0428 H   0  0  0  0  0  0  0  0  0  0  0  0
   44.4515   -8.7957    0.9573 H   0  0  0  0  0  0  0  0  0  0  0  0
   46.2237   -7.4636   -2.0289 H   0  0  0  0  0  0  0  0  0  0  0  0
   45.5253   -8.9241   -1.3031 H   0  0  0  0  0  0  0  0  0  0  0  0
   46.9870   -8.2068   -0.6182 H   0  0  0  0  0  0  0  0  0  0  0  0
   45.7565   -5.2745   -1.1029 H   0  0  0  0  0  0  0  0  0  0  0  0
   41.8499   -4.6010   -0.1280 H   0  0  0  0  0  0  0  0  0  0  0  0
   39.9429   -2.7018   -0.3117 H   0  0  0  0  0  0  0  0  0  0  0  0
   45.6555    5.1872    1.0574 H   0  0  0  0  0  0  0  0  0  0  0  0
   45.4922    8.9030    0.9501 H   0  0  0  0  0  0  0  0  0  0  0  0
   46.9309    7.9273    0.6278 H   0  0  0  0  0  0  0  0  0  0  0  0
   45.8710    7.5061    1.9764 H   0  0  0  0  0  0  0  0  0  0  0  0
   44.3677    8.6080   -1.1757 H   0  0  0  0  0  0  0  0  0  0  0  0
   42.4564    8.2703   -2.7576 H   0  0  0  0  0  0  0  0  0  0  0  0
   42.0843    6.6412   -3.3538 H   0  0  0  0  0  0  0  0  0  0  0  0
   43.5569    7.4653   -3.8805 H   0  0  0  0  0  0  0  0  0  0  0  0
   43.1052    4.6857   -2.3448 H   0  0  0  0  0  0  0  0  0  0  0  0
  2  3  4  0  0  0  0
  3  4  4  0  0  0  0
  4  5  2  0  0  0  0
  5  6  4  0  0  0  0
  1  7  1  0  0  0  0
  3  7  4  0  0  0  0
  6  7  4  0  0  0  0
  6  8  4  0  0  0  0
  8  9  4  0  0  0  0
  9 10  4  0  0  0  0
 10 11  2  0  0  0  0
  1 12  1  0  0  0  0
  9 12  4  0  0  0  0
 11 13  4  0  0  0  0
 12 13  4  0  0  0  0
 13 14  4  0  0  0  0
 14 15  4  0  0  0  0
 15 16  4  0  0  0  0
 16 17  2  0  0  0  0
 17 18  4  0  0  0  0
 18 19  4  0  0  0  0
 19 20  1  0  0  0  0
 20 21  4  0  0  0  0
 21 22  4  0  0  0  0
 22 23  1  0  0  0  0
 22 24  4  0  0  0  0
 24 25  4  0  0  0  0
 25 26  1  0  0  0  0
 20 27  4  0  0  0  0
 25 27  4  0  0  0  0
 19 28  4  0  0  0  0
 28 29  4  0  0  0  0
 29 30  2  0  0  0  0
  2 31  4  0  0  0  0
 30 31  4  0  0  0  0
  1 32  1  0  0  0  0
 28 32  4  0  0  0  0
 31 32  4  0  0  0  0
  1 33  1  0  0  0  0
 15 33  4  0  0  0  0
 18 33  4  0  0  0  0
  8 34  1  0  0  0  0
 34 35  4  0  0  0  0
 35 36  4  0  0  0  0
 36 37  1  0  0  0  0
 36 38  4  0  0  0  0
 38 39  4  0  0  0  0
 39 40  1  0  0  0  0
 34 41  4  0  0  0  0
 39 41  4  0  0  0  0
  2 42  1  0  0  0  0
  4 43  1  0  0  0  0
  5 44  1  0  0  0  0
 10 45  1  0  0  0  0
 11 46  1  0  0  0  0
 16 47  1  0  0  0  0
 17 48  1  0  0  0  0
 21 49  1  0  0  0  0
 23 50  1  0  0  0  0
 23 51  1  0  0  0  0
 23 52  1  0  0  0  0
 24 53  1  0  0  0  0
 26 54  1  0  0  0  0
 26 55  1  0  0  0  0
 26 56  1  0  0  0  0
 27 57  1  0  0  0  0
 29 58  1  0  0  0  0
 30 59  1  0  0  0  0
 35 60  1  0  0  0  0
 37 61  1  0  0  0  0
 37 62  1  0  0  0  0
 37 63  1  0  0  0  0
 38 64  1  0  0  0  0
 40 65  1  0  0  0  0
 40 66  1  0  0  0  0
 40 67  1  0  0  0  0
 41 68  1  0  0  0  0
 70 71  4  0  0  0  0
 71 72  4  0  0  0  0
 72 73  2  0  0  0  0
 73 74  4  0  0  0  0
 69 75  1  0  0  0  0
 71 75  4  0  0  0  0
 74 75  4  0  0  0  0
 74 76  4  0  0  0  0
 76 77  4  0  0  0  0
 77 78  4  0  0  0  0
 78 79  2  0  0  0  0
 69 80  1  0  0  0  0
 77 80  4  0  0  0  0
 79 81  4  0  0  0  0
 80 81  4  0  0  0  0
 81 82  4  0  0  0  0
 82 83  4  0  0  0  0
 83 84  4  0  0  0  0
 84 85  2  0  0  0  0
 85 86  4  0  0  0  0
 86 87  4  0  0  0  0
 87 88  1  0  0  0  0
 88 89  4  0  0  0  0
 89 90  4  0  0  0  0
 90 91  1  0  0  0  0
 90 92  4  0  0  0  0
 92 93  4  0  0  0  0
 93 94  1  0  0  0  0
 88 95  4  0  0  0  0
 93 95  4  0  0  0  0
 87 96  4  0  0  0  0
 96 97  4  0  0  0  0
 97 98  2  0  0  0  0
 70 99  4  0  0  0  0
 98 99  4  0  0  0  0
 69100  1  0  0  0  0
 96100  4  0  0  0  0
 99100  4  0  0  0  0
 69101  1  0  0  0  0
 83101  4  0  0  0  0
 86101  4  0  0  0  0
 76102  1  0  0  0  0
102103  4  0  0  0  0
103104  4  0  0  0  0
104105  1  0  0  0  0
104106  4  0  0  0  0
106107  4  0  0  0  0
107108  1  0  0  0  0
102109  4  0  0  0  0
107109  4  0  0  0  0
 70110  1  0  0  0  0
 72111  1  0  0  0  0
 73112  1  0  0  0  0
 78113  1  0  0  0  0
 79114  1  0  0  0  0
 84115  1  0  0  0  0
 85116  1  0  0  0  0
 89117  1  0  0  0  0
 91118  1  0  0  0  0
 91119  1  0  0  0  0
 91120  1  0  0  0  0
 92121  1  0  0  0  0
 94122  1  0  0  0  0
 94123  1  0  0  0  0
 94124  1  0  0  0  0
 95125  1  0  0  0  0
 97126  1  0  0  0  0
 98127  1  0  0  0  0
103128  1  0  0  0  0
105129  1  0  0  0  0
105130  1  0  0  0  0
105131  1  0  0  0  0
106132  1  0  0  0  0
108133  1  0  0  0  0
108134  1  0  0  0  0
108135  1  0  0  0  0
109136  1  0  0  0  0
137138  3  0  0  0  0
138139  4  0  0  0  0
 14140  4  0  0  0  0
139140  3  0  0  0  0
137141  4  0  0  0  0
141142  3  0  0  0  0
143144  3  0  0  0  0
144145  4  0  0  0  0
145146  3  0  0  0  0
143147  4  0  0  0  0
 82148  4  0  0  0  0
147148  3  0  0  0  0
142150  4  0  0  0  0
150151  4  0  0  0  0
151152  4  0  0  0  0
152153  2  0  0  0  0
153154  4  0  0  0  0
149155  1  0  0  0  0
151155  4  0  0  0  0
154155  4  0  0  0  0
154156  4  0  0  0  0
156157  4  0  0  0  0
157158  4  0  0  0  0
158159  2  0  0  0  0
149160  1  0  0  0  0
157160  4  0  0  0  0
159161  4  0  0  0  0
160161  4  0  0  0  0
146162  4  0  0  0  0
161162  4  0  0  0  0
162163  4  0  0  0  0
163164  4  0  0  0  0
164165  2  0  0  0  0
165166  4  0  0  0  0
166167  4  0  0  0  0
167168  1  0  0  0  0
168169  4  0  0  0  0
169170  4  0  0  0  0
170171  1  0  0  0  0
170172  4  0  0  0  0
172173  4  0  0  0  0
173174  1  0  0  0  0
168175  4  0  0  0  0
173175  4  0  0  0  0
167176  4  0  0  0  0
176177  4  0  0  0  0
177178  2  0  0  0  0
150179  4  0  0  0  0
178179  4  0  0  0  0
149180  1  0  0  0  0
176180  4  0  0  0  0
179180  4  0  0  0  0
149181  1  0  0  0  0
163181  4  0  0  0  0
166181  4  0  0  0  0
156182  1  0  0  0  0
182183  4  0  0  0  0
183184  4  0  0  0  0
184185  1  0  0  0  0
184186  4  0  0  0  0
186187  4  0  0  0  0
187188  1  0  0  0  0
182189  4  0  0  0  0
187189  4  0  0  0  0
152190  1  0  0  0  0
153191  1  0  0  0  0
158192  1  0  0  0  0
159193  1  0  0  0  0
164194  1  0  0  0  0
165195  1  0  0  0  0
169196  1  0  0  0  0
171197  1  0  0  0  0
171198  1  0  0  0  0
171199  1  0  0  0  0
172200  1  0  0  0  0
174201  1  0  0  0  0
174202  1  0  0  0  0
174203  1  0  0  0  0
175204  1  0  0  0  0
177205  1  0  0  0  0
178206  1  0  0  0  0
183207  1  0  0  0  0
185208  1  0  0  0  0
185209  1  0  0  0  0
185210  1  0  0  0  0
186211  1  0  0  0  0
188212  1  0  0  0  0
188213  1  0  0  0  0
188214  1  0  0  0  0
189215  1  0  0  0  0
M  END
