 xtb: 6.5.1 (b24c23e)
          07302203463D

193222  0     0  0            999 V2000
   33.3546    0.0164   -0.0031 Co  0  0  0  0  0  0  0  0  0  0  0  0
   29.9850    0.0448   -0.0143 C   0  0  0  0  0  0  0  0  0  0  0  0
   30.6499    1.2259   -0.2661 C   0  0  0  0  0  0  0  0  0  0  0  0
   29.9943    2.4694   -0.5352 C   0  0  0  0  0  0  0  0  0  0  0  0
   30.9543    3.4237   -0.5282 C   0  0  0  0  0  0  0  0  0  0  0  0
   32.1967    2.7616   -0.2545 C   0  0  0  0  0  0  0  0  0  0  0  0
   32.0048    1.4077   -0.1473 N   0  0  0  0  0  0  0  0  0  0  0  0
   33.3778    3.4224    0.0583 C   0  0  0  0  0  0  0  0  0  0  0  0
   33.3851    4.9062    0.0838 C   0  0  0  0  0  0  0  0  0  0  0  0
   33.1942    5.6253   -1.0954 C   0  0  0  0  0  0  0  0  0  0  0  0
   33.2044    7.0153   -1.0720 C   0  0  0  0  0  0  0  0  0  0  0  0
   33.0277    7.7257   -2.2125 O   0  0  0  0  0  0  0  0  0  0  0  0
   33.3979    7.6890    0.1351 C   0  0  0  0  0  0  0  0  0  0  0  0
   33.3996    9.0593    0.1278 O   0  0  0  0  0  0  0  0  0  0  0  0
   33.5835    6.9693    1.3126 C   0  0  0  0  0  0  0  0  0  0  0  0
   33.7623    7.6998    2.4579 O   0  0  0  0  0  0  0  0  0  0  0  0
   33.5816    5.5798    1.2916 C   0  0  0  0  0  0  0  0  0  0  0  0
   34.5446    2.7372    0.3608 C   0  0  0  0  0  0  0  0  0  0  0  0
   35.7860    3.3692    0.6942 C   0  0  0  0  0  0  0  0  0  0  0  0
   36.7296    2.3972    0.7090 C   0  0  0  0  0  0  0  0  0  0  0  0
   34.7244    1.3799    0.2131 N   0  0  0  0  0  0  0  0  0  0  0  0
   36.0654    1.1774    0.3740 C   0  0  0  0  0  0  0  0  0  0  0  0
   36.7422   -0.0104    0.0807 C   0  0  0  0  0  0  0  0  0  0  0  0
   36.0619   -1.1837   -0.2582 C   0  0  0  0  0  0  0  0  0  0  0  0
   36.7161   -2.3979   -0.6310 C   0  0  0  0  0  0  0  0  0  0  0  0
   35.7545   -3.3495   -0.7059 C   0  0  0  0  0  0  0  0  0  0  0  0
   34.5175   -2.7150   -0.3612 C   0  0  0  0  0  0  0  0  0  0  0  0
   34.7126   -1.3672   -0.1568 N   0  0  0  0  0  0  0  0  0  0  0  0
   33.3264   -3.3898   -0.1407 C   0  0  0  0  0  0  0  0  0  0  0  0
   33.3063   -4.8688   -0.2161 C   0  0  0  0  0  0  0  0  0  0  0  0
   34.1344   -5.6269    0.6124 C   0  0  0  0  0  0  0  0  0  0  0  0
   34.1070   -7.0148    0.5444 C   0  0  0  0  0  0  0  0  0  0  0  0
   34.9002   -7.7606    1.3516 O   0  0  0  0  0  0  0  0  0  0  0  0
   33.2559   -7.6502   -0.3614 C   0  0  0  0  0  0  0  0  0  0  0  0
   33.2526   -9.0193   -0.4089 O   0  0  0  0  0  0  0  0  0  0  0  0
   32.4330   -6.8933   -1.1918 C   0  0  0  0  0  0  0  0  0  0  0  0
   31.6288   -7.5872   -2.0575 O   0  0  0  0  0  0  0  0  0  0  0  0
   32.4509   -5.5064   -1.1195 C   0  0  0  0  0  0  0  0  0  0  0  0
   32.1475   -2.7136    0.1525 C   0  0  0  0  0  0  0  0  0  0  0  0
   30.9032   -3.3546    0.4624 C   0  0  0  0  0  0  0  0  0  0  0  0
   29.9601   -2.3832    0.4983 C   0  0  0  0  0  0  0  0  0  0  0  0
   30.6310   -1.1503    0.2201 C   0  0  0  0  0  0  0  0  0  0  0  0
   31.9803   -1.3555    0.0741 N   0  0  0  0  0  0  0  0  0  0  0  0
   28.9014    0.0554   -0.0045 H   0  0  0  0  0  0  0  0  0  0  0  0
   28.9326    2.5797   -0.6889 H   0  0  0  0  0  0  0  0  0  0  0  0
   30.8417    4.4862   -0.6697 H   0  0  0  0  0  0  0  0  0  0  0  0
   33.0558    5.1123   -2.0383 H   0  0  0  0  0  0  0  0  0  0  0  0
   33.0679    8.6710   -1.9925 H   0  0  0  0  0  0  0  0  0  0  0  0
   33.5446    9.3629    1.0381 H   0  0  0  0  0  0  0  0  0  0  0  0
   33.8798    7.1194    3.2214 H   0  0  0  0  0  0  0  0  0  0  0  0
   33.7131    5.0256    2.2135 H   0  0  0  0  0  0  0  0  0  0  0  0
   35.9132    4.4249    0.8703 H   0  0  0  0  0  0  0  0  0  0  0  0
   37.7863    2.4857    0.9036 H   0  0  0  0  0  0  0  0  0  0  0  0
   37.7759   -2.4941   -0.8041 H   0  0  0  0  0  0  0  0  0  0  0  0
   35.8627   -4.3899   -0.9655 H   0  0  0  0  0  0  0  0  0  0  0  0
   34.7868   -5.1456    1.3295 H   0  0  0  0  0  0  0  0  0  0  0  0
   34.7361   -8.6985    1.1588 H   0  0  0  0  0  0  0  0  0  0  0  0
   32.6104   -9.2931   -1.0831 H   0  0  0  0  0  0  0  0  0  0  0  0
   31.0991   -6.9828   -2.5938 H   0  0  0  0  0  0  0  0  0  0  0  0
   31.8176   -4.9239   -1.7782 H   0  0  0  0  0  0  0  0  0  0  0  0
   30.7803   -4.4125    0.6296 H   0  0  0  0  0  0  0  0  0  0  0  0
   28.9021   -2.4746    0.6863 H   0  0  0  0  0  0  0  0  0  0  0  0
   60.1002   -0.0576    0.0522 Co  0  0  0  0  0  0  0  0  0  0  0  0
   63.4731   -0.0933    0.1281 C   0  0  0  0  0  0  0  0  0  0  0  0
   62.8166   -1.2434   -0.2544 C   0  0  0  0  0  0  0  0  0  0  0  0
   63.4841   -2.4536   -0.6257 C   0  0  0  0  0  0  0  0  0  0  0  0
   62.5242   -3.3962   -0.7729 C   0  0  0  0  0  0  0  0  0  0  0  0
   61.2706   -2.7610   -0.4867 C   0  0  0  0  0  0  0  0  0  0  0  0
   61.4577   -1.4296   -0.2150 N   0  0  0  0  0  0  0  0  0  0  0  0
   60.0758   -3.4487   -0.3175 C   0  0  0  0  0  0  0  0  0  0  0  0
   60.0692   -4.9231   -0.4860 C   0  0  0  0  0  0  0  0  0  0  0  0
   60.3221   -5.4833   -1.7376 C   0  0  0  0  0  0  0  0  0  0  0  0
   60.3148   -6.8644   -1.8962 C   0  0  0  0  0  0  0  0  0  0  0  0
   60.5528   -7.4205   -3.1088 O   0  0  0  0  0  0  0  0  0  0  0  0
   60.0612   -7.6889   -0.7988 C   0  0  0  0  0  0  0  0  0  0  0  0
   60.0639   -9.0466   -0.9846 O   0  0  0  0  0  0  0  0  0  0  0  0
   59.8140   -7.1281    0.4515 C   0  0  0  0  0  0  0  0  0  0  0  0
   59.5790   -8.0009    1.4813 O   0  0  0  0  0  0  0  0  0  0  0  0
   59.8137   -5.7479    0.6122 C   0  0  0  0  0  0  0  0  0  0  0  0
   58.8980   -2.8035    0.0267 C   0  0  0  0  0  0  0  0  0  0  0  0
   57.6484   -3.4718    0.2348 C   0  0  0  0  0  0  0  0  0  0  0  0
   56.7072   -2.5082    0.3767 C   0  0  0  0  0  0  0  0  0  0  0  0
   58.7238   -1.4382    0.0707 N   0  0  0  0  0  0  0  0  0  0  0  0
   57.3805   -1.2557    0.2380 C   0  0  0  0  0  0  0  0  0  0  0  0
   56.7074   -0.0364    0.1179 C   0  0  0  0  0  0  0  0  0  0  0  0
   57.3893    1.1709   -0.0602 C   0  0  0  0  0  0  0  0  0  0  0  0
   56.7327    2.4214   -0.2752 C   0  0  0  0  0  0  0  0  0  0  0  0
   57.6958    3.3738   -0.2535 C   0  0  0  0  0  0  0  0  0  0  0  0
   58.9357    2.7015   -0.0036 C   0  0  0  0  0  0  0  0  0  0  0  0
   58.7399    1.3390    0.0479 N   0  0  0  0  0  0  0  0  0  0  0  0
   60.1304    3.3486    0.2699 C   0  0  0  0  0  0  0  0  0  0  0  0
   60.1531    4.8280    0.3479 C   0  0  0  0  0  0  0  0  0  0  0  0
   59.3511    5.4953    1.2741 C   0  0  0  0  0  0  0  0  0  0  0  0
   59.3835    6.8826    1.3529 C   0  0  0  0  0  0  0  0  0  0  0  0
   58.6163    7.5398    2.2561 O   0  0  0  0  0  0  0  0  0  0  0  0
   60.2132    7.6085    0.4966 C   0  0  0  0  0  0  0  0  0  0  0  0
   60.2224    8.9747    0.5950 O   0  0  0  0  0  0  0  0  0  0  0  0
   61.0100    6.9423   -0.4314 C   0  0  0  0  0  0  0  0  0  0  0  0
   61.7944    7.7223   -1.2398 O   0  0  0  0  0  0  0  0  0  0  0  0
   60.9875    5.5554   -0.5057 C   0  0  0  0  0  0  0  0  0  0  0  0
   61.3102    2.6468    0.4886 C   0  0  0  0  0  0  0  0  0  0  0  0
   62.5521    3.2571    0.8628 C   0  0  0  0  0  0  0  0  0  0  0  0
   63.4923    2.2831    0.8318 C   0  0  0  0  0  0  0  0  0  0  0  0
   62.8224    1.0799    0.4433 C   0  0  0  0  0  0  0  0  0  0  0  0
   61.4759    1.3006    0.2927 N   0  0  0  0  0  0  0  0  0  0  0  0
   64.5558   -0.1088    0.1707 H   0  0  0  0  0  0  0  0  0  0  0  0
   64.5520   -2.5520   -0.7395 H   0  0  0  0  0  0  0  0  0  0  0  0
   62.6428   -4.4370   -1.0268 H   0  0  0  0  0  0  0  0  0  0  0  0
   60.5075   -4.8522   -2.5972 H   0  0  0  0  0  0  0  0  0  0  0  0
   60.5022   -8.3863   -3.0169 H   0  0  0  0  0  0  0  0  0  0  0  0
   59.8713   -9.4653   -0.1306 H   0  0  0  0  0  0  0  0  0  0  0  0
   59.4188   -7.5240    2.3062 H   0  0  0  0  0  0  0  0  0  0  0  0
   59.6352   -5.3183    1.5909 H   0  0  0  0  0  0  0  0  0  0  0  0
   57.5149   -4.5412    0.2485 H   0  0  0  0  0  0  0  0  0  0  0  0
   55.6466   -2.6191    0.5352 H   0  0  0  0  0  0  0  0  0  0  0  0
   55.6709    2.5383   -0.4204 H   0  0  0  0  0  0  0  0  0  0  0  0
   57.5871    4.4375   -0.3878 H   0  0  0  0  0  0  0  0  0  0  0  0
   58.7159    4.9418    1.9536 H   0  0  0  0  0  0  0  0  0  0  0  0
   58.7775    8.4928    2.1582 H   0  0  0  0  0  0  0  0  0  0  0  0
   60.8459    9.3181   -0.0647 H   0  0  0  0  0  0  0  0  0  0  0  0
   62.3070    7.1773   -1.8512 H   0  0  0  0  0  0  0  0  0  0  0  0
   61.6012    5.0442   -1.2380 H   0  0  0  0  0  0  0  0  0  0  0  0
   62.6749    4.2975    1.1169 H   0  0  0  0  0  0  0  0  0  0  0  0
   64.5481    2.3552    1.0397 H   0  0  0  0  0  0  0  0  0  0  0  0
   39.3665   -0.0274    0.1260 C   0  0  0  0  0  0  0  0  0  0  0  0
   38.1435   -0.0201    0.1078 C   0  0  0  0  0  0  0  0  0  0  0  0
   40.7138   -0.0309    0.1331 C   0  0  0  0  0  0  0  0  0  0  0  0
   41.9373   -0.0310    0.1290 C   0  0  0  0  0  0  0  0  0  0  0  0
   52.7355   -0.0125    0.1637 C   0  0  0  0  0  0  0  0  0  0  0  0
   51.5120   -0.0083    0.1541 C   0  0  0  0  0  0  0  0  0  0  0  0
   54.0827   -0.0169    0.1610 C   0  0  0  0  0  0  0  0  0  0  0  0
   55.3059   -0.0268    0.1453 C   0  0  0  0  0  0  0  0  0  0  0  0
   46.7247   -0.0164    0.0962 Co  0  0  0  0  0  0  0  0  0  0  0  0
   43.3373   -0.0264    0.1076 C   0  0  0  0  0  0  0  0  0  0  0  0
   44.0222    1.1361    0.4795 C   0  0  0  0  0  0  0  0  0  0  0  0
   43.3803    2.3306    0.9255 C   0  0  0  0  0  0  0  0  0  0  0  0
   44.3303    3.2994    0.9389 C   0  0  0  0  0  0  0  0  0  0  0  0
   45.5468    2.6903    0.4958 C   0  0  0  0  0  0  0  0  0  0  0  0
   45.3572    1.3462    0.2811 N   0  0  0  0  0  0  0  0  0  0  0  0
   46.7148    3.3823    0.1959 C   0  0  0  0  0  0  0  0  0  0  0  0
   46.7025    4.8603    0.2384 C   0  0  0  0  0  0  0  0  0  0  0  0
   47.5981    5.5527    1.0554 C   0  0  0  0  0  0  0  0  0  0  0  0
   47.5937    6.9436    1.1061 C   0  0  0  0  0  0  0  0  0  0  0  0
   48.4511    7.6281    1.9063 O   0  0  0  0  0  0  0  0  0  0  0  0
   46.6891    7.6636    0.3180 C   0  0  0  0  0  0  0  0  0  0  0  0
   46.6663    9.0205    0.3381 O   0  0  0  0  0  0  0  0  0  0  0  0
   45.7976    6.9635   -0.5001 C   0  0  0  0  0  0  0  0  0  0  0  0
   44.9422    7.7292   -1.2489 O   0  0  0  0  0  0  0  0  0  0  0  0
   45.7909    5.5768   -0.5408 C   0  0  0  0  0  0  0  0  0  0  0  0
   47.8923    2.7216   -0.1297 C   0  0  0  0  0  0  0  0  0  0  0  0
   49.1215    3.3709   -0.4710 C   0  0  0  0  0  0  0  0  0  0  0  0
   50.0828    2.4142   -0.4672 C   0  0  0  0  0  0  0  0  0  0  0  0
   48.0866    1.3639   -0.0141 N   0  0  0  0  0  0  0  0  0  0  0  0
   49.4332    1.1836   -0.1477 C   0  0  0  0  0  0  0  0  0  0  0  0
   50.1121   -0.0097    0.1254 C   0  0  0  0  0  0  0  0  0  0  0  0
   49.4257   -1.2099    0.3414 C   0  0  0  0  0  0  0  0  0  0  0  0
   50.0665   -2.4533    0.6282 C   0  0  0  0  0  0  0  0  0  0  0  0
   49.1175   -3.4150    0.5097 C   0  0  0  0  0  0  0  0  0  0  0  0
   47.9018   -2.7523    0.1479 C   0  0  0  0  0  0  0  0  0  0  0  0
   48.0913   -1.3915    0.1131 N   0  0  0  0  0  0  0  0  0  0  0  0
   46.7355   -3.3984   -0.2432 C   0  0  0  0  0  0  0  0  0  0  0  0
   46.7468   -4.8716   -0.3909 C   0  0  0  0  0  0  0  0  0  0  0  0
   47.6471   -5.4746   -1.2707 C   0  0  0  0  0  0  0  0  0  0  0  0
   47.6468   -6.8558   -1.4244 C   0  0  0  0  0  0  0  0  0  0  0  0
   48.5008   -7.4521   -2.2885 O   0  0  0  0  0  0  0  0  0  0  0  0
   46.7522   -7.6364   -0.6887 C   0  0  0  0  0  0  0  0  0  0  0  0
   46.7886   -9.0112   -0.8682 O   0  0  0  0  0  0  0  0  0  0  0  0
   45.8819   -7.0387    0.2211 C   0  0  0  0  0  0  0  0  0  0  0  0
   45.0329   -7.7992    0.9695 O   0  0  0  0  0  0  0  0  0  0  0  0
   45.8655   -5.6551    0.3554 C   0  0  0  0  0  0  0  0  0  0  0  0
   45.5588   -2.7024   -0.4850 C   0  0  0  0  0  0  0  0  0  0  0  0
   44.3299   -3.3052   -0.9048 C   0  0  0  0  0  0  0  0  0  0  0  0
   43.3685   -2.3567   -0.7835 C   0  0  0  0  0  0  0  0  0  0  0  0
   44.0174   -1.1751   -0.3124 C   0  0  0  0  0  0  0  0  0  0  0  0
   45.3640   -1.3701   -0.2004 N   0  0  0  0  0  0  0  0  0  0  0  0
   42.3355    2.4068    1.1804 H   0  0  0  0  0  0  0  0  0  0  0  0
   44.2255    4.3335    1.2244 H   0  0  0  0  0  0  0  0  0  0  0  0
   48.2928    5.0048    1.6820 H   0  0  0  0  0  0  0  0  0  0  0  0
   49.0262    7.0271    2.3980 H   0  0  0  0  0  0  0  0  0  0  0  0
   45.9757    9.3222   -0.2740 H   0  0  0  0  0  0  0  0  0  0  0  0
   44.3664    7.1740   -1.7907 H   0  0  0  0  0  0  0  0  0  0  0  0
   45.0997    5.0578   -1.1942 H   0  0  0  0  0  0  0  0  0  0  0  0
   49.2278    4.4230   -0.6794 H   0  0  0  0  0  0  0  0  0  0  0  0
   51.1388    2.5183   -0.6577 H   0  0  0  0  0  0  0  0  0  0  0  0
   51.1109   -2.5625    0.8728 H   0  0  0  0  0  0  0  0  0  0  0  0
   49.2218   -4.4783    0.6522 H   0  0  0  0  0  0  0  0  0  0  0  0
   48.3290   -4.8761   -1.8608 H   0  0  0  0  0  0  0  0  0  0  0  0
   48.3515   -8.4119   -2.2533 H   0  0  0  0  0  0  0  0  0  0  0  0
   45.8950   -9.3760   -0.9110 H   0  0  0  0  0  0  0  0  0  0  0  0
   45.3236   -8.7221    0.9746 H   0  0  0  0  0  0  0  0  0  0  0  0
   45.1867   -5.2018    1.0661 H   0  0  0  0  0  0  0  0  0  0  0  0
   44.2243   -4.3246   -1.2381 H   0  0  0  0  0  0  0  0  0  0  0  0
   42.3124   -2.4370   -0.9849 H   0  0  0  0  0  0  0  0  0  0  0  0
  2  3  4  0  0  0  0
  3  4  1  0  0  0  0
  4  5  2  0  0  0  0
  5  6  4  0  0  0  0
  1  7  1  0  0  0  0
  3  7  4  0  0  0  0
  6  7  4  0  0  0  0
  6  8  4  0  0  0  0
  8  9  1  0  0  0  0
  9 10  4  0  0  0  0
 10 11  4  0  0  0  0
 11 12  1  0  0  0  0
 11 13  4  0  0  0  0
 13 14  1  0  0  0  0
 13 15  4  0  0  0  0
 15 16  1  0  0  0  0
  9 17  4  0  0  0  0
 15 17  4  0  0  0  0
  8 18  4  0  0  0  0
 18 19  4  0  0  0  0
 19 20  2  0  0  0  0
  1 21  1  0  0  0  0
 18 21  4  0  0  0  0
 20 22  4  0  0  0  0
 21 22  4  0  0  0  0
 22 23  4  0  0  0  0
 23 24  4  0  0  0  0
 24 25  4  0  0  0  0
 25 26  2  0  0  0  0
 26 27  4  0  0  0  0
  1 28  1  0  0  0  0
 24 28  4  0  0  0  0
 27 28  4  0  0  0  0
 27 29  4  0  0  0  0
 29 30  1  0  0  0  0
 30 31  4  0  0  0  0
 31 32  4  0  0  0  0
 32 33  1  0  0  0  0
 32 34  4  0  0  0  0
 34 35  1  0  0  0  0
 34 36  4  0  0  0  0
 36 37  1  0  0  0  0
 30 38  4  0  0  0  0
 36 38  4  0  0  0  0
 29 39  4  0  0  0  0
 39 40  4  0  0  0  0
 40 41  2  0  0  0  0
  2 42  4  0  0  0  0
 41 42  1  0  0  0  0
  1 43  1  0  0  0  0
 39 43  4  0  0  0  0
 42 43  4  0  0  0  0
  2 44  1  0  0  0  0
  4 45  1  0  0  0  0
  5 46  1  0  0  0  0
 10 47  1  0  0  0  0
 12 48  1  0  0  0  0
 14 49  1  0  0  0  0
 16 50  1  0  0  0  0
 17 51  1  0  0  0  0
 19 52  1  0  0  0  0
 20 53  1  0  0  0  0
 25 54  1  0  0  0  0
 26 55  1  0  0  0  0
 31 56  1  0  0  0  0
 33 57  1  0  0  0  0
 35 58  1  0  0  0  0
 37 59  1  0  0  0  0
 38 60  1  0  0  0  0
 40 61  1  0  0  0  0
 41 62  1  0  0  0  0
 64 65  4  0  0  0  0
 65 66  1  0  0  0  0
 66 67  2  0  0  0  0
 67 68  4  0  0  0  0
 63 69  1  0  0  0  0
 65 69  4  0  0  0  0
 68 69  4  0  0  0  0
 68 70  4  0  0  0  0
 70 71  1  0  0  0  0
 71 72  4  0  0  0  0
 72 73  4  0  0  0  0
 73 74  1  0  0  0  0
 73 75  4  0  0  0  0
 75 76  1  0  0  0  0
 75 77  4  0  0  0  0
 77 78  1  0  0  0  0
 71 79  4  0  0  0  0
 77 79  4  0  0  0  0
 70 80  4  0  0  0  0
 80 81  4  0  0  0  0
 81 82  2  0  0  0  0
 63 83  1  0  0  0  0
 80 83  4  0  0  0  0
 82 84  4  0  0  0  0
 83 84  4  0  0  0  0
 84 85  4  0  0  0  0
 85 86  4  0  0  0  0
 86 87  4  0  0  0  0
 87 88  2  0  0  0  0
 88 89  4  0  0  0  0
 63 90  1  0  0  0  0
 86 90  4  0  0  0  0
 89 90  4  0  0  0  0
 89 91  4  0  0  0  0
 91 92  1  0  0  0  0
 92 93  4  0  0  0  0
 93 94  4  0  0  0  0
 94 95  1  0  0  0  0
 94 96  4  0  0  0  0
 96 97  1  0  0  0  0
 96 98  4  0  0  0  0
 98 99  1  0  0  0  0
 92100  4  0  0  0  0
 98100  4  0  0  0  0
 91101  4  0  0  0  0
101102  4  0  0  0  0
102103  2  0  0  0  0
 64104  4  0  0  0  0
103104  1  0  0  0  0
 63105  1  0  0  0  0
101105  4  0  0  0  0
104105  4  0  0  0  0
 64106  1  0  0  0  0
 66107  1  0  0  0  0
 67108  1  0  0  0  0
 72109  1  0  0  0  0
 74110  1  0  0  0  0
 76111  1  0  0  0  0
 78112  1  0  0  0  0
 79113  1  0  0  0  0
 81114  1  0  0  0  0
 82115  1  0  0  0  0
 87116  1  0  0  0  0
 88117  1  0  0  0  0
 93118  1  0  0  0  0
 95119  1  0  0  0  0
 97120  1  0  0  0  0
 99121  1  0  0  0  0
100122  1  0  0  0  0
102123  1  0  0  0  0
103124  1  0  0  0  0
 23126  4  0  0  0  0
125126  3  0  0  0  0
125127  4  0  0  0  0
127128  3  0  0  0  0
129130  3  0  0  0  0
129131  4  0  0  0  0
 85132  4  0  0  0  0
131132  3  0  0  0  0
128134  4  0  0  0  0
134135  4  0  0  0  0
135136  4  0  0  0  0
136137  2  0  0  0  0
137138  4  0  0  0  0
133139  1  0  0  0  0
135139  4  0  0  0  0
138139  4  0  0  0  0
138140  4  0  0  0  0
140141  1  0  0  0  0
141142  4  0  0  0  0
142143  4  0  0  0  0
143144  1  0  0  0  0
143145  4  0  0  0  0
145146  1  0  0  0  0
145147  4  0  0  0  0
147148  1  0  0  0  0
141149  4  0  0  0  0
147149  4  0  0  0  0
140150  4  0  0  0  0
150151  4  0  0  0  0
151152  2  0  0  0  0
133153  1  0  0  0  0
150153  4  0  0  0  0
152154  4  0  0  0  0
153154  4  0  0  0  0
130155  4  0  0  0  0
154155  4  0  0  0  0
155156  4  0  0  0  0
156157  4  0  0  0  0
157158  2  0  0  0  0
158159  4  0  0  0  0
133160  1  0  0  0  0
156160  4  0  0  0  0
159160  4  0  0  0  0
159161  4  0  0  0  0
161162  1  0  0  0  0
162163  4  0  0  0  0
163164  4  0  0  0  0
164165  1  0  0  0  0
164166  4  0  0  0  0
166167  1  0  0  0  0
166168  4  0  0  0  0
168169  1  0  0  0  0
162170  4  0  0  0  0
168170  4  0  0  0  0
161171  4  0  0  0  0
171172  4  0  0  0  0
172173  2  0  0  0  0
134174  4  0  0  0  0
173174  4  0  0  0  0
133175  1  0  0  0  0
171175  4  0  0  0  0
174175  4  0  0  0  0
136176  1  0  0  0  0
137177  1  0  0  0  0
142178  1  0  0  0  0
144179  1  0  0  0  0
146180  1  0  0  0  0
148181  1  0  0  0  0
149182  1  0  0  0  0
151183  1  0  0  0  0
152184  1  0  0  0  0
157185  1  0  0  0  0
158186  1  0  0  0  0
163187  1  0  0  0  0
165188  1  0  0  0  0
167189  1  0  0  0  0
169190  1  0  0  0  0
170191  1  0  0  0  0
172192  1  0  0  0  0
173193  1  0  0  0  0
M  END
