 xtb: 6.5.1 (b24c23e)
          07292220583D

191226  0     0  0            999 V2000
   29.7707   -0.0038   -0.0835 Fe  0  0  0  0  0  0  0  0  0  0  0  0
   26.3843   -0.0081   -0.2267 C   0  0  0  0  0  0  0  0  0  0  0  0
   27.0315   -1.2262   -0.2402 C   0  0  0  0  0  0  0  0  0  0  0  0
   26.3522   -2.4860   -0.2794 C   0  0  0  0  0  0  0  0  0  0  0  0
   27.3083   -3.4394   -0.3739 C   0  0  0  0  0  0  0  0  0  0  0  0
   28.5707   -2.7580   -0.4100 C   0  0  0  0  0  0  0  0  0  0  0  0
   28.3892   -1.4079   -0.2823 N   0  0  0  0  0  0  0  0  0  0  0  0
   29.7934   -3.3917   -0.6058 C   0  0  0  0  0  0  0  0  0  0  0  0
   29.8001   -4.8543   -0.8358 C   0  0  0  0  0  0  0  0  0  0  0  0
   30.4676   -5.7057    0.0495 C   0  0  0  0  0  0  0  0  0  0  0  0
   30.4680   -7.0733   -0.1569 C   0  0  0  0  0  0  0  0  0  0  0  0
   29.8002   -7.5932   -1.2620 C   0  0  0  0  0  0  0  0  0  0  0  0
   29.7965   -9.0289   -1.4831 N   0  0  0  0  0  0  0  0  0  0  0  0
   29.2000   -9.4434   -2.4436 O   0  0  0  0  0  0  0  0  0  0  0  0
   30.3901   -9.7162   -0.6923 O   0  0  0  0  0  0  0  0  0  0  0  0
   29.1347   -6.7621   -2.1586 C   0  0  0  0  0  0  0  0  0  0  0  0
   29.1356   -5.3966   -1.9400 C   0  0  0  0  0  0  0  0  0  0  0  0
   31.0043   -2.7130   -0.6101 C   0  0  0  0  0  0  0  0  0  0  0  0
   32.2682   -3.3300   -0.8842 C   0  0  0  0  0  0  0  0  0  0  0  0
   33.2126   -2.3716   -0.7277 C   0  0  0  0  0  0  0  0  0  0  0  0
   31.1758   -1.3792   -0.3279 N   0  0  0  0  0  0  0  0  0  0  0  0
   32.5233   -1.1730   -0.3643 C   0  0  0  0  0  0  0  0  0  0  0  0
   33.1802    0.0151   -0.0225 C   0  0  0  0  0  0  0  0  0  0  0  0
   32.4994    1.1893    0.3214 C   0  0  0  0  0  0  0  0  0  0  0  0
   33.1625    2.3841    0.7415 C   0  0  0  0  0  0  0  0  0  0  0  0
   32.2000    3.3206    0.9184 C   0  0  0  0  0  0  0  0  0  0  0  0
   30.9525    2.6977    0.5871 C   0  0  0  0  0  0  0  0  0  0  0  0
   31.1503    1.3766    0.2634 N   0  0  0  0  0  0  0  0  0  0  0  0
   29.7363    3.3650    0.5494 C   0  0  0  0  0  0  0  0  0  0  0  0
   29.7109    4.8170    0.8383 C   0  0  0  0  0  0  0  0  0  0  0  0
   28.9758    5.3035    1.9236 C   0  0  0  0  0  0  0  0  0  0  0  0
   28.9418    6.6584    2.1984 C   0  0  0  0  0  0  0  0  0  0  0  0
   29.6443    7.5351    1.3767 C   0  0  0  0  0  0  0  0  0  0  0  0
   29.6064    8.9601    1.6566 N   0  0  0  0  0  0  0  0  0  0  0  0
   28.9527    9.3254    2.5997 O   0  0  0  0  0  0  0  0  0  0  0  0
   30.2303    9.6880    0.9281 O   0  0  0  0  0  0  0  0  0  0  0  0
   30.3807    7.0712    0.2904 C   0  0  0  0  0  0  0  0  0  0  0  0
   30.4131    5.7136    0.0278 C   0  0  0  0  0  0  0  0  0  0  0  0
   28.5352    2.7336    0.2422 C   0  0  0  0  0  0  0  0  0  0  0  0
   27.2790    3.4155    0.1158 C   0  0  0  0  0  0  0  0  0  0  0  0
   26.3411    2.4674   -0.1153 C   0  0  0  0  0  0  0  0  0  0  0  0
   27.0252    1.2096   -0.1333 C   0  0  0  0  0  0  0  0  0  0  0  0
   28.3719    1.3896    0.0492 N   0  0  0  0  0  0  0  0  0  0  0  0
   25.3017   -0.0085   -0.2812 H   0  0  0  0  0  0  0  0  0  0  0  0
   25.2814   -2.6052   -0.2363 H   0  0  0  0  0  0  0  0  0  0  0  0
   27.1825   -4.5092   -0.4127 H   0  0  0  0  0  0  0  0  0  0  0  0
   30.9737   -5.2889    0.9125 H   0  0  0  0  0  0  0  0  0  0  0  0
   30.9758   -7.7423    0.5274 H   0  0  0  0  0  0  0  0  0  0  0  0
   28.6267   -7.1916   -3.0137 H   0  0  0  0  0  0  0  0  0  0  0  0
   28.6305   -4.7374   -2.6363 H   0  0  0  0  0  0  0  0  0  0  0  0
   32.4048   -4.3608   -1.1675 H   0  0  0  0  0  0  0  0  0  0  0  0
   34.2812   -2.4540   -0.8425 H   0  0  0  0  0  0  0  0  0  0  0  0
   34.2271    2.4775    0.8826 H   0  0  0  0  0  0  0  0  0  0  0  0
   32.3144    4.3410    1.2456 H   0  0  0  0  0  0  0  0  0  0  0  0
   28.4406    4.6088    2.5604 H   0  0  0  0  0  0  0  0  0  0  0  0
   28.3793    7.0447    3.0399 H   0  0  0  0  0  0  0  0  0  0  0  0
   30.9151    7.7751   -0.3360 H   0  0  0  0  0  0  0  0  0  0  0  0
   30.9721    5.3406   -0.8225 H   0  0  0  0  0  0  0  0  0  0  0  0
   27.1461    4.4827    0.1881 H   0  0  0  0  0  0  0  0  0  0  0  0
   25.2793    2.5883   -0.2587 H   0  0  0  0  0  0  0  0  0  0  0  0
   61.7458    0.0607   -0.0404 Fe  0  0  0  0  0  0  0  0  0  0  0  0
   65.1291    0.1100   -0.1804 C   0  0  0  0  0  0  0  0  0  0  0  0
   64.4856    1.2391    0.2829 C   0  0  0  0  0  0  0  0  0  0  0  0
   65.1656    2.4140    0.7383 C   0  0  0  0  0  0  0  0  0  0  0  0
   64.2113    3.3384    0.9982 C   0  0  0  0  0  0  0  0  0  0  0  0
   62.9497    2.7310    0.6843 C   0  0  0  0  0  0  0  0  0  0  0  0
   63.1288    1.4313    0.2970 N   0  0  0  0  0  0  0  0  0  0  0  0
   61.7313    3.4028    0.7054 C   0  0  0  0  0  0  0  0  0  0  0  0
   61.7292    4.8483    1.0243 C   0  0  0  0  0  0  0  0  0  0  0  0
   61.0289    5.3254    2.1362 C   0  0  0  0  0  0  0  0  0  0  0  0
   61.0340    6.6738    2.4440 C   0  0  0  0  0  0  0  0  0  0  0  0
   61.7404    7.5535    1.6288 C   0  0  0  0  0  0  0  0  0  0  0  0
   61.7505    8.9706    1.9486 N   0  0  0  0  0  0  0  0  0  0  0  0
   62.3808    9.7000    1.2269 O   0  0  0  0  0  0  0  0  0  0  0  0
   61.1289    9.3282    2.9158 O   0  0  0  0  0  0  0  0  0  0  0  0
   62.4384    7.0997    0.5134 C   0  0  0  0  0  0  0  0  0  0  0  0
   62.4317    5.7488    0.2177 C   0  0  0  0  0  0  0  0  0  0  0  0
   60.5216    2.7805    0.4283 C   0  0  0  0  0  0  0  0  0  0  0  0
   59.2619    3.4608    0.3659 C   0  0  0  0  0  0  0  0  0  0  0  0
   58.3153    2.5121    0.1670 C   0  0  0  0  0  0  0  0  0  0  0  0
   60.3458    1.4335    0.2222 N   0  0  0  0  0  0  0  0  0  0  0  0
   58.9989    1.2583    0.1034 C   0  0  0  0  0  0  0  0  0  0  0  0
   58.3393    0.0247    0.0316 C   0  0  0  0  0  0  0  0  0  0  0  0
   59.0206   -1.1972   -0.0434 C   0  0  0  0  0  0  0  0  0  0  0  0
   58.3615   -2.4656   -0.0479 C   0  0  0  0  0  0  0  0  0  0  0  0
   59.3217   -3.4014   -0.2427 C   0  0  0  0  0  0  0  0  0  0  0  0
   60.5633   -2.6977   -0.3732 C   0  0  0  0  0  0  0  0  0  0  0  0
   60.3662   -1.3487   -0.1989 N   0  0  0  0  0  0  0  0  0  0  0  0
   61.7708   -3.2995   -0.6996 C   0  0  0  0  0  0  0  0  0  0  0  0
   61.7910   -4.7535   -0.9761 C   0  0  0  0  0  0  0  0  0  0  0  0
   62.5708   -5.6077   -0.1903 C   0  0  0  0  0  0  0  0  0  0  0  0
   62.6018   -6.9662   -0.4473 C   0  0  0  0  0  0  0  0  0  0  0  0
   61.8509   -7.4741   -1.5036 C   0  0  0  0  0  0  0  0  0  0  0  0
   61.8868   -8.8989   -1.7836 N   0  0  0  0  0  0  0  0  0  0  0  0
   62.5795   -9.5882   -1.0802 O   0  0  0  0  0  0  0  0  0  0  0  0
   61.2216   -9.3032   -2.7025 O   0  0  0  0  0  0  0  0  0  0  0  0
   61.0685   -6.6408   -2.2979 C   0  0  0  0  0  0  0  0  0  0  0  0
   61.0396   -5.2845   -2.0285 C   0  0  0  0  0  0  0  0  0  0  0  0
   62.9675   -2.5945   -0.7879 C   0  0  0  0  0  0  0  0  0  0  0  0
   64.2155   -3.1728   -1.1966 C   0  0  0  0  0  0  0  0  0  0  0  0
   65.1568   -2.2099   -1.0578 C   0  0  0  0  0  0  0  0  0  0  0  0
   64.4824   -1.0440   -0.5716 C   0  0  0  0  0  0  0  0  0  0  0  0
   63.1373   -1.2796   -0.4527 N   0  0  0  0  0  0  0  0  0  0  0  0
   66.2118    0.1278   -0.2320 H   0  0  0  0  0  0  0  0  0  0  0  0
   66.2355    2.5010    0.8402 H   0  0  0  0  0  0  0  0  0  0  0  0
   64.3381    4.3416    1.3712 H   0  0  0  0  0  0  0  0  0  0  0  0
   60.4932    4.6281    2.7698 H   0  0  0  0  0  0  0  0  0  0  0  0
   60.5012    7.0524    3.3080 H   0  0  0  0  0  0  0  0  0  0  0  0
   62.9761    7.8058   -0.1079 H   0  0  0  0  0  0  0  0  0  0  0  0
   62.9623    5.3838   -0.6540 H   0  0  0  0  0  0  0  0  0  0  0  0
   59.1295    4.5266    0.4560 H   0  0  0  0  0  0  0  0  0  0  0  0
   57.2483    2.6347    0.0742 H   0  0  0  0  0  0  0  0  0  0  0  0
   57.3009   -2.6063    0.0841 H   0  0  0  0  0  0  0  0  0  0  0  0
   59.2094   -4.4722   -0.2922 H   0  0  0  0  0  0  0  0  0  0  0  0
   63.1435   -5.2003    0.6346 H   0  0  0  0  0  0  0  0  0  0  0  0
   63.1992   -7.6368    0.1585 H   0  0  0  0  0  0  0  0  0  0  0  0
   60.4964   -7.0609   -3.1163 H   0  0  0  0  0  0  0  0  0  0  0  0
   60.4451   -4.6230   -2.6478 H   0  0  0  0  0  0  0  0  0  0  0  0
   64.3416   -4.1838   -1.5484 H   0  0  0  0  0  0  0  0  0  0  0  0
   66.2150   -2.2662   -1.2572 H   0  0  0  0  0  0  0  0  0  0  0  0
   38.3786    0.0417    0.0179 C   0  0  0  0  0  0  0  0  0  0  0  0
   37.1481    0.0389    0.0090 C   0  0  0  0  0  0  0  0  0  0  0  0
   35.8069    0.0349    0.0012 C   0  0  0  0  0  0  0  0  0  0  0  0
   34.5813    0.0265   -0.0125 C   0  0  0  0  0  0  0  0  0  0  0  0
   39.7195    0.0415    0.0207 C   0  0  0  0  0  0  0  0  0  0  0  0
   40.9455    0.0390    0.0212 C   0  0  0  0  0  0  0  0  0  0  0  0
   54.3726   -0.0119    0.0473 C   0  0  0  0  0  0  0  0  0  0  0  0
   53.1417   -0.0201    0.0435 C   0  0  0  0  0  0  0  0  0  0  0  0
   51.8014   -0.0225    0.0366 C   0  0  0  0  0  0  0  0  0  0  0  0
   50.5750   -0.0232    0.0259 C   0  0  0  0  0  0  0  0  0  0  0  0
   55.7131   -0.0011    0.0463 C   0  0  0  0  0  0  0  0  0  0  0  0
   56.9392    0.0112    0.0426 C   0  0  0  0  0  0  0  0  0  0  0  0
   45.7606    0.0076   -0.0070 Fe  0  0  0  0  0  0  0  0  0  0  0  0
   42.3452    0.0311    0.0147 C   0  0  0  0  0  0  0  0  0  0  0  0
   43.0108   -1.1849    0.2189 C   0  0  0  0  0  0  0  0  0  0  0  0
   42.3336   -2.4161    0.4782 C   0  0  0  0  0  0  0  0  0  0  0  0
   43.2820   -3.3842    0.4920 C   0  0  0  0  0  0  0  0  0  0  0  0
   44.5334   -2.7379    0.2314 C   0  0  0  0  0  0  0  0  0  0  0  0
   44.3552   -1.3819    0.1114 N   0  0  0  0  0  0  0  0  0  0  0  0
   45.7381   -3.4106    0.0641 C   0  0  0  0  0  0  0  0  0  0  0  0
   45.7244   -4.8908    0.0917 C   0  0  0  0  0  0  0  0  0  0  0  0
   46.4477   -5.5858    1.0653 C   0  0  0  0  0  0  0  0  0  0  0  0
   46.4302   -6.9684    1.0993 C   0  0  0  0  0  0  0  0  0  0  0  0
   45.6880   -7.6612    0.1475 C   0  0  0  0  0  0  0  0  0  0  0  0
   45.6669   -9.1141    0.1783 N   0  0  0  0  0  0  0  0  0  0  0  0
   45.0092   -9.6792   -0.6567 O   0  0  0  0  0  0  0  0  0  0  0  0
   46.3082   -9.6620    1.0374 O   0  0  0  0  0  0  0  0  0  0  0  0
   44.9645   -6.9882   -0.8327 C   0  0  0  0  0  0  0  0  0  0  0  0
   44.9834   -5.6054   -0.8542 C   0  0  0  0  0  0  0  0  0  0  0  0
   46.9528   -2.7623   -0.1225 C   0  0  0  0  0  0  0  0  0  0  0  0
   48.1986   -3.4351   -0.3393 C   0  0  0  0  0  0  0  0  0  0  0  0
   49.1605   -2.4804   -0.3456 C   0  0  0  0  0  0  0  0  0  0  0  0
   47.1487   -1.4046   -0.0538 N   0  0  0  0  0  0  0  0  0  0  0  0
   48.4968   -1.2306   -0.1472 C   0  0  0  0  0  0  0  0  0  0  0  0
   49.1761   -0.0150    0.0128 C   0  0  0  0  0  0  0  0  0  0  0  0
   48.5106    1.2108    0.1509 C   0  0  0  0  0  0  0  0  0  0  0  0
   49.1886    2.4555    0.3336 C   0  0  0  0  0  0  0  0  0  0  0  0
   48.2410    3.4233    0.2856 C   0  0  0  0  0  0  0  0  0  0  0  0
   46.9891    2.7626    0.0673 C   0  0  0  0  0  0  0  0  0  0  0  0
   47.1666    1.4016    0.0306 N   0  0  0  0  0  0  0  0  0  0  0  0
   45.7840    3.4241   -0.1348 C   0  0  0  0  0  0  0  0  0  0  0  0
   45.7957    4.9035   -0.1981 C   0  0  0  0  0  0  0  0  0  0  0  0
   46.5166    5.5590   -1.2004 C   0  0  0  0  0  0  0  0  0  0  0  0
   46.5256    6.9403   -1.2693 C   0  0  0  0  0  0  0  0  0  0  0  0
   45.8139    7.6714   -0.3227 C   0  0  0  0  0  0  0  0  0  0  0  0
   45.8219    9.1232   -0.3894 N   0  0  0  0  0  0  0  0  0  0  0  0
   46.4562    9.6364   -1.2746 O   0  0  0  0  0  0  0  0  0  0  0  0
   45.1933    9.7223    0.4445 O   0  0  0  0  0  0  0  0  0  0  0  0
   45.0945    7.0378    0.6862 C   0  0  0  0  0  0  0  0  0  0  0  0
   45.0857    5.6559    0.7420 C   0  0  0  0  0  0  0  0  0  0  0  0
   44.5680    2.7666   -0.2755 C   0  0  0  0  0  0  0  0  0  0  0  0
   43.3212    3.4272   -0.5224 C   0  0  0  0  0  0  0  0  0  0  0  0
   42.3590    2.4743   -0.4706 C   0  0  0  0  0  0  0  0  0  0  0  0
   43.0235    1.2371   -0.2065 C   0  0  0  0  0  0  0  0  0  0  0  0
   44.3723    1.4154   -0.1289 N   0  0  0  0  0  0  0  0  0  0  0  0
   41.2703   -2.5126    0.6266 H   0  0  0  0  0  0  0  0  0  0  0  0
   43.1547   -4.4398    0.6675 H   0  0  0  0  0  0  0  0  0  0  0  0
   47.0118   -5.0336    1.8079 H   0  0  0  0  0  0  0  0  0  0  0  0
   46.9816   -7.5165    1.8538 H   0  0  0  0  0  0  0  0  0  0  0  0
   44.3979   -7.5515   -1.5642 H   0  0  0  0  0  0  0  0  0  0  0  0
   44.4326   -5.0688   -1.6178 H   0  0  0  0  0  0  0  0  0  0  0  0
   48.3134   -4.4985   -0.4717 H   0  0  0  0  0  0  0  0  0  0  0  0
   50.2247   -2.5970   -0.4717 H   0  0  0  0  0  0  0  0  0  0  0  0
   50.2520    2.5605    0.4750 H   0  0  0  0  0  0  0  0  0  0  0  0
   48.3685    4.4881    0.3927 H   0  0  0  0  0  0  0  0  0  0  0  0
   47.0581    4.9768   -1.9368 H   0  0  0  0  0  0  0  0  0  0  0  0
   47.0747    7.4583   -2.0464 H   0  0  0  0  0  0  0  0  0  0  0  0
   44.5527    7.6306    1.4133 H   0  0  0  0  0  0  0  0  0  0  0  0
   44.5377    5.1496    1.5280 H   0  0  0  0  0  0  0  0  0  0  0  0
   43.2061    4.4817   -0.7129 H   0  0  0  0  0  0  0  0  0  0  0  0
   41.2943    2.5844   -0.5975 H   0  0  0  0  0  0  0  0  0  0  0  0
  2  3  4  0  0  0  0
  3  4  4  0  0  0  0
  4  5  2  0  0  0  0
  5  6  4  0  0  0  0
  1  7  1  0  0  0  0
  3  7  4  0  0  0  0
  6  7  4  0  0  0  0
  6  8  4  0  0  0  0
  8  9  1  0  0  0  0
  9 10  4  0  0  0  0
 10 11  4  0  0  0  0
 11 12  4  0  0  0  0
 12 13  1  0  0  0  0
 13 14  2  0  0  0  0
 13 15  2  0  0  0  0
 14 15  1  0  0  0  0
 12 16  4  0  0  0  0
  9 17  4  0  0  0  0
 16 17  4  0  0  0  0
  8 18  4  0  0  0  0
 18 19  4  0  0  0  0
 19 20  2  0  0  0  0
  1 21  1  0  0  0  0
 18 21  4  0  0  0  0
 20 22  4  0  0  0  0
 21 22  4  0  0  0  0
 22 23  4  0  0  0  0
 23 24  4  0  0  0  0
 24 25  4  0  0  0  0
 25 26  2  0  0  0  0
 26 27  4  0  0  0  0
  1 28  1  0  0  0  0
 24 28  4  0  0  0  0
 27 28  4  0  0  0  0
 27 29  4  0  0  0  0
 29 30  1  0  0  0  0
 30 31  4  0  0  0  0
 31 32  4  0  0  0  0
 32 33  4  0  0  0  0
 33 34  1  0  0  0  0
 34 35  2  0  0  0  0
 34 36  2  0  0  0  0
 35 36  1  0  0  0  0
 33 37  4  0  0  0  0
 30 38  4  0  0  0  0
 37 38  4  0  0  0  0
 29 39  4  0  0  0  0
 39 40  4  0  0  0  0
 40 41  2  0  0  0  0
  2 42  4  0  0  0  0
 41 42  4  0  0  0  0
  1 43  1  0  0  0  0
 39 43  4  0  0  0  0
 42 43  4  0  0  0  0
  2 44  1  0  0  0  0
  4 45  1  0  0  0  0
  5 46  1  0  0  0  0
 10 47  1  0  0  0  0
 11 48  1  0  0  0  0
 16 49  1  0  0  0  0
 17 50  1  0  0  0  0
 19 51  1  0  0  0  0
 20 52  1  0  0  0  0
 25 53  1  0  0  0  0
 26 54  1  0  0  0  0
 31 55  1  0  0  0  0
 32 56  1  0  0  0  0
 37 57  1  0  0  0  0
 38 58  1  0  0  0  0
 40 59  1  0  0  0  0
 41 60  1  0  0  0  0
 62 63  4  0  0  0  0
 63 64  4  0  0  0  0
 64 65  2  0  0  0  0
 65 66  4  0  0  0  0
 61 67  1  0  0  0  0
 63 67  4  0  0  0  0
 66 67  4  0  0  0  0
 66 68  4  0  0  0  0
 68 69  1  0  0  0  0
 69 70  4  0  0  0  0
 70 71  4  0  0  0  0
 71 72  4  0  0  0  0
 72 73  1  0  0  0  0
 73 74  2  0  0  0  0
 73 75  2  0  0  0  0
 74 75  1  0  0  0  0
 72 76  4  0  0  0  0
 69 77  4  0  0  0  0
 76 77  4  0  0  0  0
 68 78  4  0  0  0  0
 78 79  4  0  0  0  0
 79 80  2  0  0  0  0
 61 81  1  0  0  0  0
 78 81  4  0  0  0  0
 80 82  4  0  0  0  0
 81 82  4  0  0  0  0
 82 83  4  0  0  0  0
 83 84  4  0  0  0  0
 84 85  4  0  0  0  0
 85 86  2  0  0  0  0
 86 87  4  0  0  0  0
 61 88  1  0  0  0  0
 84 88  4  0  0  0  0
 87 88  4  0  0  0  0
 87 89  4  0  0  0  0
 89 90  1  0  0  0  0
 90 91  4  0  0  0  0
 91 92  4  0  0  0  0
 92 93  4  0  0  0  0
 93 94  1  0  0  0  0
 94 95  2  0  0  0  0
 94 96  2  0  0  0  0
 95 96  1  0  0  0  0
 93 97  4  0  0  0  0
 90 98  4  0  0  0  0
 97 98  4  0  0  0  0
 89 99  4  0  0  0  0
 99100  4  0  0  0  0
100101  2  0  0  0  0
 62102  4  0  0  0  0
101102  4  0  0  0  0
 61103  1  0  0  0  0
 99103  4  0  0  0  0
102103  4  0  0  0  0
 62104  1  0  0  0  0
 64105  1  0  0  0  0
 65106  1  0  0  0  0
 70107  1  0  0  0  0
 71108  1  0  0  0  0
 76109  1  0  0  0  0
 77110  1  0  0  0  0
 79111  1  0  0  0  0
 80112  1  0  0  0  0
 85113  1  0  0  0  0
 86114  1  0  0  0  0
 91115  1  0  0  0  0
 92116  1  0  0  0  0
 97117  1  0  0  0  0
 98118  1  0  0  0  0
100119  1  0  0  0  0
101120  1  0  0  0  0
121122  3  0  0  0  0
122123  4  0  0  0  0
 23124  4  0  0  0  0
123124  3  0  0  0  0
121125  4  0  0  0  0
125126  3  0  0  0  0
127128  3  0  0  0  0
128129  4  0  0  0  0
129130  3  0  0  0  0
127131  4  0  0  0  0
 83132  4  0  0  0  0
131132  3  0  0  0  0
126134  4  0  0  0  0
134135  4  0  0  0  0
135136  4  0  0  0  0
136137  2  0  0  0  0
137138  4  0  0  0  0
133139  1  0  0  0  0
135139  4  0  0  0  0
138139  4  0  0  0  0
138140  4  0  0  0  0
140141  1  0  0  0  0
141142  4  0  0  0  0
142143  4  0  0  0  0
143144  4  0  0  0  0
144145  1  0  0  0  0
145146  2  0  0  0  0
145147  2  0  0  0  0
146147  1  0  0  0  0
144148  4  0  0  0  0
141149  4  0  0  0  0
148149  4  0  0  0  0
140150  4  0  0  0  0
150151  4  0  0  0  0
151152  2  0  0  0  0
133153  1  0  0  0  0
150153  4  0  0  0  0
152154  4  0  0  0  0
153154  4  0  0  0  0
130155  4  0  0  0  0
154155  4  0  0  0  0
155156  4  0  0  0  0
156157  4  0  0  0  0
157158  2  0  0  0  0
158159  4  0  0  0  0
133160  1  0  0  0  0
156160  4  0  0  0  0
159160  4  0  0  0  0
159161  4  0  0  0  0
161162  1  0  0  0  0
162163  4  0  0  0  0
163164  4  0  0  0  0
164165  4  0  0  0  0
165166  1  0  0  0  0
166167  2  0  0  0  0
166168  2  0  0  0  0
167168  1  0  0  0  0
165169  4  0  0  0  0
162170  4  0  0  0  0
169170  4  0  0  0  0
161171  4  0  0  0  0
171172  4  0  0  0  0
172173  2  0  0  0  0
134174  4  0  0  0  0
173174  4  0  0  0  0
133175  1  0  0  0  0
171175  4  0  0  0  0
174175  4  0  0  0  0
136176  1  0  0  0  0
137177  1  0  0  0  0
142178  1  0  0  0  0
143179  1  0  0  0  0
148180  1  0  0  0  0
149181  1  0  0  0  0
151182  1  0  0  0  0
152183  1  0  0  0  0
157184  1  0  0  0  0
158185  1  0  0  0  0
163186  1  0  0  0  0
164187  1  0  0  0  0
169188  1  0  0  0  0
170189  1  0  0  0  0
172190  1  0  0  0  0
173191  1  0  0  0  0
M  END
