 xtb: 6.5.1 (b24c23e)
          07272223003D

390431  0     0  0            999 V2000
   64.7425    0.0782   -0.0358 C   0  0  0  0  0  0  0  0  0  0  0  0
   65.3547    1.3243   -0.0763 C   0  0  0  0  0  0  0  0  0  0  0  0
   64.7058    2.5910   -0.0833 C   0  0  0  0  0  0  0  0  0  0  0  0
   65.6697    3.5579   -0.1365 C   0  0  0  0  0  0  0  0  0  0  0  0
   66.9387    2.9122   -0.1756 C   0  0  0  0  0  0  0  0  0  0  0  0
   66.6981    1.5688   -0.1263 N   0  0  0  0  0  0  0  0  0  0  0  0
   68.2038    3.5084   -0.2333 C   0  0  0  0  0  0  0  0  0  0  0  0
   68.2415    4.9886   -0.3021 C   0  0  0  0  0  0  0  0  0  0  0  0
   68.8781    5.7263    0.6991 C   0  0  0  0  0  0  0  0  0  0  0  0
   68.9137    7.1078    0.6425 C   0  0  0  0  0  0  0  0  0  0  0  0
   68.3139    7.7812   -0.4259 C   0  0  0  0  0  0  0  0  0  0  0  0
   68.3507    9.2028   -0.4891 C   0  0  0  0  0  0  0  0  0  0  0  0
   68.3792   10.3521   -0.5395 N   0  0  0  0  0  0  0  0  0  0  0  0
   67.6779    7.0479   -1.4319 C   0  0  0  0  0  0  0  0  0  0  0  0
   67.6413    5.6665   -1.3658 C   0  0  0  0  0  0  0  0  0  0  0  0
   69.4173    2.8159   -0.2317 C   0  0  0  0  0  0  0  0  0  0  0  0
   70.7152    3.4532   -0.3651 C   0  0  0  0  0  0  0  0  0  0  0  0
   71.6323    2.4650   -0.3198 C   0  0  0  0  0  0  0  0  0  0  0  0
   69.5672    1.4668   -0.1294 N   0  0  0  0  0  0  0  0  0  0  0  0
   70.8933    1.2266   -0.1671 C   0  0  0  0  0  0  0  0  0  0  0  0
   71.5269   -0.0281   -0.0608 C   0  0  0  0  0  0  0  0  0  0  0  0
   70.8887   -1.2779    0.0527 C   0  0  0  0  0  0  0  0  0  0  0  0
   71.5311   -2.5366    0.1919 C   0  0  0  0  0  0  0  0  0  0  0  0
   70.5628   -3.5000    0.2520 C   0  0  0  0  0  0  0  0  0  0  0  0
   69.2981   -2.8580    0.1412 C   0  0  0  0  0  0  0  0  0  0  0  0
   69.5470   -1.5155    0.0337 N   0  0  0  0  0  0  0  0  0  0  0  0
   68.0342   -3.4578    0.1610 C   0  0  0  0  0  0  0  0  0  0  0  0
   67.9989   -4.9362    0.2530 C   0  0  0  0  0  0  0  0  0  0  0  0
   67.3685   -5.5639    1.3302 C   0  0  0  0  0  0  0  0  0  0  0  0
   67.3378   -6.9437    1.4227 C   0  0  0  0  0  0  0  0  0  0  0  0
   67.9360   -7.7264    0.4305 C   0  0  0  0  0  0  0  0  0  0  0  0
   67.9053   -9.1466    0.5213 C   0  0  0  0  0  0  0  0  0  0  0  0
   67.8814  -10.2948    0.5943 N   0  0  0  0  0  0  0  0  0  0  0  0
   68.5651   -7.1035   -0.6515 C   0  0  0  0  0  0  0  0  0  0  0  0
   68.5969   -5.7232   -0.7345 C   0  0  0  0  0  0  0  0  0  0  0  0
   66.8193   -2.7664    0.1001 C   0  0  0  0  0  0  0  0  0  0  0  0
   65.5132   -3.4064    0.0615 C   0  0  0  0  0  0  0  0  0  0  0  0
   64.6030   -2.4136    0.0078 C   0  0  0  0  0  0  0  0  0  0  0  0
   65.3517   -1.1689    0.0023 C   0  0  0  0  0  0  0  0  0  0  0  0
   66.6832   -1.4206    0.0481 N   0  0  0  0  0  0  0  0  0  0  0  0
   63.6573    0.0904   -0.0331 H   0  0  0  0  0  0  0  0  0  0  0  0
   63.6373    2.7308   -0.0450 H   0  0  0  0  0  0  0  0  0  0  0  0
   65.5208    4.6254   -0.1397 H   0  0  0  0  0  0  0  0  0  0  0  0
   67.4221    0.8581   -0.1230 H   0  0  0  0  0  0  0  0  0  0  0  0
   69.3338    5.2082    1.5353 H   0  0  0  0  0  0  0  0  0  0  0  0
   69.4049    7.6730    1.4259 H   0  0  0  0  0  0  0  0  0  0  0  0
   67.2160    7.5661   -2.2641 H   0  0  0  0  0  0  0  0  0  0  0  0
   67.1598    5.1016   -2.1561 H   0  0  0  0  0  0  0  0  0  0  0  0
   70.8801    4.5108   -0.4923 H   0  0  0  0  0  0  0  0  0  0  0  0
   72.7058    2.5395   -0.3884 H   0  0  0  0  0  0  0  0  0  0  0  0
   72.5987   -2.6766    0.2447 H   0  0  0  0  0  0  0  0  0  0  0  0
   70.7087   -4.5609    0.3733 H   0  0  0  0  0  0  0  0  0  0  0  0
   68.8258   -0.8057   -0.0420 H   0  0  0  0  0  0  0  0  0  0  0  0
   66.9156   -4.9606    2.1088 H   0  0  0  0  0  0  0  0  0  0  0  0
   66.8526   -7.4229    2.2648 H   0  0  0  0  0  0  0  0  0  0  0  0
   69.0258   -7.7068   -1.4250 H   0  0  0  0  0  0  0  0  0  0  0  0
   69.0736   -5.2449   -1.5828 H   0  0  0  0  0  0  0  0  0  0  0  0
   65.3417   -4.4708    0.0611 H   0  0  0  0  0  0  0  0  0  0  0  0
   63.5275   -2.4847   -0.0337 H   0  0  0  0  0  0  0  0  0  0  0  0
  164.3608   -0.1243   -0.0383 C   0  0  0  0  0  0  0  0  0  0  0  0
  163.7446   -1.3263    0.2847 C   0  0  0  0  0  0  0  0  0  0  0  0
  164.3898   -2.5498    0.6204 C   0  0  0  0  0  0  0  0  0  0  0  0
  163.4223   -3.4847    0.8585 C   0  0  0  0  0  0  0  0  0  0  0  0
  162.1546   -2.8648    0.6658 C   0  0  0  0  0  0  0  0  0  0  0  0
  162.3998   -1.5636    0.3316 N   0  0  0  0  0  0  0  0  0  0  0  0
  160.8871   -3.4417    0.8064 C   0  0  0  0  0  0  0  0  0  0  0  0
  160.8446   -4.8826    1.1523 C   0  0  0  0  0  0  0  0  0  0  0  0
  160.2341   -5.3091    2.3342 C   0  0  0  0  0  0  0  0  0  0  0  0
  160.1920   -6.6525    2.6609 C   0  0  0  0  0  0  0  0  0  0  0  0
  160.7589   -7.6004    1.8038 C   0  0  0  0  0  0  0  0  0  0  0  0
  160.7142   -8.9843    2.1345 C   0  0  0  0  0  0  0  0  0  0  0  0
  160.6786  -10.1031    2.4013 N   0  0  0  0  0  0  0  0  0  0  0  0
  161.3698   -7.1792    0.6189 C   0  0  0  0  0  0  0  0  0  0  0  0
  161.4131   -5.8334    0.3014 C   0  0  0  0  0  0  0  0  0  0  0  0
  159.6757   -2.7655    0.6422 C   0  0  0  0  0  0  0  0  0  0  0  0
  158.3732   -3.4016    0.7295 C   0  0  0  0  0  0  0  0  0  0  0  0
  157.4599   -2.4331    0.5120 C   0  0  0  0  0  0  0  0  0  0  0  0
  159.5315   -1.4422    0.3573 N   0  0  0  0  0  0  0  0  0  0  0  0
  158.2055   -1.2105    0.2828 C   0  0  0  0  0  0  0  0  0  0  0  0
  157.5773    0.0251    0.0255 C   0  0  0  0  0  0  0  0  0  0  0  0
  158.2204    1.2472   -0.2477 C   0  0  0  0  0  0  0  0  0  0  0  0
  157.5837    2.4959   -0.4753 C   0  0  0  0  0  0  0  0  0  0  0  0
  158.5556    3.4278   -0.7129 C   0  0  0  0  0  0  0  0  0  0  0  0
  159.8167    2.7727   -0.6471 C   0  0  0  0  0  0  0  0  0  0  0  0
  159.5623    1.4592   -0.3539 N   0  0  0  0  0  0  0  0  0  0  0  0
  161.0826    3.3436   -0.8177 C   0  0  0  0  0  0  0  0  0  0  0  0
  161.1242    4.7849   -1.1588 C   0  0  0  0  0  0  0  0  0  0  0  0
  161.7702    5.6935   -0.3168 C   0  0  0  0  0  0  0  0  0  0  0  0
  161.8078    7.0404   -0.6291 C   0  0  0  0  0  0  0  0  0  0  0  0
  161.2010    7.5060   -1.7995 C   0  0  0  0  0  0  0  0  0  0  0  0
  161.2393    8.8911   -2.1253 C   0  0  0  0  0  0  0  0  0  0  0  0
  161.2694   10.0110   -2.3887 N   0  0  0  0  0  0  0  0  0  0  0  0
  160.5560    6.6007   -2.6474 C   0  0  0  0  0  0  0  0  0  0  0  0
  160.5174    5.2559   -2.3258 C   0  0  0  0  0  0  0  0  0  0  0  0
  162.2946    2.6559   -0.6908 C   0  0  0  0  0  0  0  0  0  0  0  0
  163.6019    3.2488   -0.9283 C   0  0  0  0  0  0  0  0  0  0  0  0
  164.5083    2.2758   -0.7071 C   0  0  0  0  0  0  0  0  0  0  0  0
  163.7559    1.0870   -0.3462 C   0  0  0  0  0  0  0  0  0  0  0  0
  162.4260    1.3508   -0.3560 N   0  0  0  0  0  0  0  0  0  0  0  0
  165.4459   -0.1436   -0.0503 H   0  0  0  0  0  0  0  0  0  0  0  0
  165.4585   -2.6824    0.6752 H   0  0  0  0  0  0  0  0  0  0  0  0
  163.5680   -4.5119    1.1511 H   0  0  0  0  0  0  0  0  0  0  0  0
  161.6780   -0.8744    0.1492 H   0  0  0  0  0  0  0  0  0  0  0  0
  159.8038   -4.5760    3.0071 H   0  0  0  0  0  0  0  0  0  0  0  0
  159.7209   -6.9750    3.5820 H   0  0  0  0  0  0  0  0  0  0  0  0
  161.8064   -7.9114   -0.0501 H   0  0  0  0  0  0  0  0  0  0  0  0
  161.8746   -5.5128   -0.6258 H   0  0  0  0  0  0  0  0  0  0  0  0
  158.2024   -4.4495    0.9157 H   0  0  0  0  0  0  0  0  0  0  0  0
  156.3849   -2.5140    0.4942 H   0  0  0  0  0  0  0  0  0  0  0  0
  156.5174    2.6526   -0.4515 H   0  0  0  0  0  0  0  0  0  0  0  0
  158.4146    4.4787   -0.9059 H   0  0  0  0  0  0  0  0  0  0  0  0
  160.2804    0.7532   -0.2283 H   0  0  0  0  0  0  0  0  0  0  0  0
  162.2301    5.3387    0.5986 H   0  0  0  0  0  0  0  0  0  0  0  0
  162.3055    7.7397    0.0325 H   0  0  0  0  0  0  0  0  0  0  0  0
  160.0884    6.9570   -3.5579 H   0  0  0  0  0  0  0  0  0  0  0  0
  160.0284    4.5557   -2.9937 H   0  0  0  0  0  0  0  0  0  0  0  0
  163.7766    4.2671   -1.2361 H   0  0  0  0  0  0  0  0  0  0  0  0
  165.5833    2.3245   -0.7815 H   0  0  0  0  0  0  0  0  0  0  0  0
   72.9320   -0.0480   -0.0651 C   0  0  0  0  0  0  0  0  0  0  0  0
   74.1565   -0.0682   -0.0681 C   0  0  0  0  0  0  0  0  0  0  0  0
   75.4985   -0.0850   -0.0707 C   0  0  0  0  0  0  0  0  0  0  0  0
   76.7292   -0.0991   -0.0713 C   0  0  0  0  0  0  0  0  0  0  0  0
   78.0665   -0.1095   -0.0723 C   0  0  0  0  0  0  0  0  0  0  0  0
   79.2973   -0.1159   -0.0725 C   0  0  0  0  0  0  0  0  0  0  0  0
   80.6392   -0.1169   -0.0705 C   0  0  0  0  0  0  0  0  0  0  0  0
   81.8640   -0.1168   -0.0660 C   0  0  0  0  0  0  0  0  0  0  0  0
   91.5178    0.0251    0.0346 C   0  0  0  0  0  0  0  0  0  0  0  0
   92.7426    0.0463    0.0508 C   0  0  0  0  0  0  0  0  0  0  0  0
   94.0835    0.0668    0.0623 C   0  0  0  0  0  0  0  0  0  0  0  0
   95.3145    0.0819    0.0685 C   0  0  0  0  0  0  0  0  0  0  0  0
   96.6509    0.0902    0.0717 C   0  0  0  0  0  0  0  0  0  0  0  0
   97.8820    0.0927    0.0693 C   0  0  0  0  0  0  0  0  0  0  0  0
   99.2230    0.0856    0.0610 C   0  0  0  0  0  0  0  0  0  0  0  0
  100.4479    0.0699    0.0500 C   0  0  0  0  0  0  0  0  0  0  0  0
  110.0874   -0.2621   -0.2270 C   0  0  0  0  0  0  0  0  0  0  0  0
  111.3116   -0.2949   -0.2577 C   0  0  0  0  0  0  0  0  0  0  0  0
  112.6522   -0.3167   -0.2838 C   0  0  0  0  0  0  0  0  0  0  0  0
  113.8832   -0.3240   -0.2985 C   0  0  0  0  0  0  0  0  0  0  0  0
  115.2194   -0.3193   -0.3027 C   0  0  0  0  0  0  0  0  0  0  0  0
  116.4504   -0.3035   -0.2954 C   0  0  0  0  0  0  0  0  0  0  0  0
  117.7909   -0.2749   -0.2754 C   0  0  0  0  0  0  0  0  0  0  0  0
  119.0151   -0.2418   -0.2445 C   0  0  0  0  0  0  0  0  0  0  0  0
  128.6550    0.0486    0.0541 C   0  0  0  0  0  0  0  0  0  0  0  0
  129.8800    0.0575    0.0643 C   0  0  0  0  0  0  0  0  0  0  0  0
  131.2211    0.0618    0.0675 C   0  0  0  0  0  0  0  0  0  0  0  0
  132.4522    0.0604    0.0630 C   0  0  0  0  0  0  0  0  0  0  0  0
  133.7886    0.0554    0.0534 C   0  0  0  0  0  0  0  0  0  0  0  0
  135.0195    0.0474    0.0383 C   0  0  0  0  0  0  0  0  0  0  0  0
  136.3605    0.0348    0.0218 C   0  0  0  0  0  0  0  0  0  0  0  0
  137.5853    0.0186    0.0070 C   0  0  0  0  0  0  0  0  0  0  0  0
  147.2405    0.0268    0.0237 C   0  0  0  0  0  0  0  0  0  0  0  0
  148.4652    0.0418    0.0371 C   0  0  0  0  0  0  0  0  0  0  0  0
  149.8069    0.0557    0.0467 C   0  0  0  0  0  0  0  0  0  0  0  0
  151.0377    0.0676    0.0511 C   0  0  0  0  0  0  0  0  0  0  0  0
  152.3749    0.0740    0.0525 C   0  0  0  0  0  0  0  0  0  0  0  0
  153.6057    0.0755    0.0493 C   0  0  0  0  0  0  0  0  0  0  0  0
  154.9478    0.0676    0.0441 C   0  0  0  0  0  0  0  0  0  0  0  0
  156.1723    0.0512    0.0377 C   0  0  0  0  0  0  0  0  0  0  0  0
   83.2682   -0.1057   -0.0615 C   0  0  0  0  0  0  0  0  0  0  0  0
   83.8880    0.8073   -0.9366 C   0  0  0  0  0  0  0  0  0  0  0  0
   83.2309    1.7237   -1.7977 C   0  0  0  0  0  0  0  0  0  0  0  0
   84.1892    2.4076   -2.4946 C   0  0  0  0  0  0  0  0  0  0  0  0
   85.4600    1.9209   -2.0842 C   0  0  0  0  0  0  0  0  0  0  0  0
   85.2274    0.9634   -1.1337 N   0  0  0  0  0  0  0  0  0  0  0  0
   86.7171    2.3393   -2.5382 C   0  0  0  0  0  0  0  0  0  0  0  0
   86.7255    3.3661   -3.6079 C   0  0  0  0  0  0  0  0  0  0  0  0
   86.1341    3.1057   -4.8463 C   0  0  0  0  0  0  0  0  0  0  0  0
   86.1445    4.0607   -5.8470 C   0  0  0  0  0  0  0  0  0  0  0  0
   86.7443    5.3035   -5.6237 C   0  0  0  0  0  0  0  0  0  0  0  0
   86.7548    6.2892   -6.6508 C   0  0  0  0  0  0  0  0  0  0  0  0
   86.7621    7.0883   -7.4787 N   0  0  0  0  0  0  0  0  0  0  0  0
   87.3346    5.5705   -4.3847 C   0  0  0  0  0  0  0  0  0  0  0  0
   87.3258    4.6087   -3.3907 C   0  0  0  0  0  0  0  0  0  0  0  0
   87.9447    1.8710   -2.0673 C   0  0  0  0  0  0  0  0  0  0  0  0
   89.2295    2.2815   -2.6053 C   0  0  0  0  0  0  0  0  0  0  0  0
   90.1689    1.6287   -1.8905 C   0  0  0  0  0  0  0  0  0  0  0  0
   88.1244    0.9691   -1.0632 N   0  0  0  0  0  0  0  0  0  0  0  0
   89.4562    0.8141   -0.9260 C   0  0  0  0  0  0  0  0  0  0  0  0
   90.1148   -0.0020    0.0161 C   0  0  0  0  0  0  0  0  0  0  0  0
   89.4935   -0.8538    0.9500 C   0  0  0  0  0  0  0  0  0  0  0  0
   90.1480   -1.6549    1.9211 C   0  0  0  0  0  0  0  0  0  0  0  0
   89.1898   -2.3454    2.6117 C   0  0  0  0  0  0  0  0  0  0  0  0
   87.9223   -1.9918    2.0742 C   0  0  0  0  0  0  0  0  0  0  0  0
   88.1562   -1.0793    1.0806 N   0  0  0  0  0  0  0  0  0  0  0  0
   86.6666   -2.4607    2.4794 C   0  0  0  0  0  0  0  0  0  0  0  0
   86.6587   -3.4796    3.5566 C   0  0  0  0  0  0  0  0  0  0  0  0
   87.2925   -4.7110    3.3741 C   0  0  0  0  0  0  0  0  0  0  0  0
   87.2867   -5.6623    4.3785 C   0  0  0  0  0  0  0  0  0  0  0  0
   86.6487   -5.3951    5.5933 C   0  0  0  0  0  0  0  0  0  0  0  0
   86.6449   -6.3698    6.6308 C   0  0  0  0  0  0  0  0  0  0  0  0
   86.6412   -7.1576    7.4696 N   0  0  0  0  0  0  0  0  0  0  0  0
   86.0148   -4.1633    5.7819 C   0  0  0  0  0  0  0  0  0  0  0  0
   86.0193   -3.2191    4.7710 C   0  0  0  0  0  0  0  0  0  0  0  0
   85.4403   -2.0464    1.9564 C   0  0  0  0  0  0  0  0  0  0  0  0
   84.1595   -2.6013    2.3564 C   0  0  0  0  0  0  0  0  0  0  0  0
   83.2197   -1.9429    1.6470 C   0  0  0  0  0  0  0  0  0  0  0  0
   83.9285   -0.9958    0.8092 C   0  0  0  0  0  0  0  0  0  0  0  0
   85.2592   -1.0893    1.0054 N   0  0  0  0  0  0  0  0  0  0  0  0
   82.1615    1.8418   -1.8656 H   0  0  0  0  0  0  0  0  0  0  0  0
   84.0313    3.1874   -3.2215 H   0  0  0  0  0  0  0  0  0  0  0  0
   85.9540    0.4512   -0.6449 H   0  0  0  0  0  0  0  0  0  0  0  0
   85.6799    2.1383   -5.0286 H   0  0  0  0  0  0  0  0  0  0  0  0
   85.6898    3.8485   -6.8076 H   0  0  0  0  0  0  0  0  0  0  0  0
   87.7975    6.5341   -4.2068 H   0  0  0  0  0  0  0  0  0  0  0  0
   87.7741    4.8235   -2.4273 H   0  0  0  0  0  0  0  0  0  0  0  0
   89.3716    2.9640   -3.4273 H   0  0  0  0  0  0  0  0  0  0  0  0
   91.2415    1.6700   -1.9917 H   0  0  0  0  0  0  0  0  0  0  0  0
   91.2151   -1.6885    2.0695 H   0  0  0  0  0  0  0  0  0  0  0  0
   89.3456   -3.0315    3.4281 H   0  0  0  0  0  0  0  0  0  0  0  0
   87.4313   -0.6337    0.5281 H   0  0  0  0  0  0  0  0  0  0  0  0
   87.7772   -4.9276    2.4288 H   0  0  0  0  0  0  0  0  0  0  0  0
   87.7752   -6.6177    4.2269 H   0  0  0  0  0  0  0  0  0  0  0  0
   85.5220   -3.9514    6.7235 H   0  0  0  0  0  0  0  0  0  0  0  0
   85.5375   -2.2603    4.9254 H   0  0  0  0  0  0  0  0  0  0  0  0
   84.0208   -3.3959    3.0714 H   0  0  0  0  0  0  0  0  0  0  0  0
   82.1495   -2.0721    1.6642 H   0  0  0  0  0  0  0  0  0  0  0  0
  101.8508    0.0407    0.0262 C   0  0  0  0  0  0  0  0  0  0  0  0
  102.4791    0.9264   -0.8711 C   0  0  0  0  0  0  0  0  0  0  0  0
  101.8329    1.8758   -1.7042 C   0  0  0  0  0  0  0  0  0  0  0  0
  102.7959    2.5261   -2.4266 C   0  0  0  0  0  0  0  0  0  0  0  0
  104.0576    1.9816   -2.0637 C   0  0  0  0  0  0  0  0  0  0  0  0
  103.8163    1.0276   -1.1118 N   0  0  0  0  0  0  0  0  0  0  0  0
  105.3156    2.3426   -2.5621 C   0  0  0  0  0  0  0  0  0  0  0  0
  105.3373    3.3859   -3.6154 C   0  0  0  0  0  0  0  0  0  0  0  0
  104.6831    3.1828   -4.8327 C   0  0  0  0  0  0  0  0  0  0  0  0
  104.7059    4.1558   -5.8158 C   0  0  0  0  0  0  0  0  0  0  0  0
  105.3823    5.3593   -5.5955 C   0  0  0  0  0  0  0  0  0  0  0  0
  105.4050    6.3643   -6.6035 C   0  0  0  0  0  0  0  0  0  0  0  0
  105.4223    7.1772   -7.4177 N   0  0  0  0  0  0  0  0  0  0  0  0
  106.0366    5.5685   -4.3778 C   0  0  0  0  0  0  0  0  0  0  0  0
  106.0146    4.5889   -3.4016 C   0  0  0  0  0  0  0  0  0  0  0  0
  106.5342    1.8009   -2.1499 C   0  0  0  0  0  0  0  0  0  0  0  0
  107.8144    2.1413   -2.7445 C   0  0  0  0  0  0  0  0  0  0  0  0
  108.7456    1.4239   -2.0826 C   0  0  0  0  0  0  0  0  0  0  0  0
  106.7067    0.8785   -1.1633 N   0  0  0  0  0  0  0  0  0  0  0  0
  108.0319    0.6434   -1.0911 C   0  0  0  0  0  0  0  0  0  0  0  0
  108.6857   -0.2133   -0.1822 C   0  0  0  0  0  0  0  0  0  0  0  0
  108.0627   -1.0232    0.7873 C   0  0  0  0  0  0  0  0  0  0  0  0
  108.7171   -1.8524    1.7346 C   0  0  0  0  0  0  0  0  0  0  0  0
  107.7562   -2.4733    2.4849 C   0  0  0  0  0  0  0  0  0  0  0  0
  106.4863   -2.0487    2.0081 C   0  0  0  0  0  0  0  0  0  0  0  0
  106.7229   -1.1653    0.9891 N   0  0  0  0  0  0  0  0  0  0  0  0
  105.2267   -2.4339    2.4832 C   0  0  0  0  0  0  0  0  0  0  0  0
  105.2096   -3.4288    3.5826 C   0  0  0  0  0  0  0  0  0  0  0  0
  105.7580   -4.7004    3.4003 C   0  0  0  0  0  0  0  0  0  0  0  0
  105.7418   -5.6284    4.4262 C   0  0  0  0  0  0  0  0  0  0  0  0
  105.1793   -5.2969    5.6624 C   0  0  0  0  0  0  0  0  0  0  0  0
  105.1652   -6.2476    6.7220 C   0  0  0  0  0  0  0  0  0  0  0  0
  105.1539   -7.0162    7.5783 N   0  0  0  0  0  0  0  0  0  0  0  0
  104.6309   -4.0248    5.8505 C   0  0  0  0  0  0  0  0  0  0  0  0
  104.6449   -3.1041    4.8184 C   0  0  0  0  0  0  0  0  0  0  0  0
  104.0031   -1.9606    2.0064 C   0  0  0  0  0  0  0  0  0  0  0  0
  102.7133   -2.4421    2.4677 C   0  0  0  0  0  0  0  0  0  0  0  0
  101.7801   -1.7560    1.7763 C   0  0  0  0  0  0  0  0  0  0  0  0
  102.5013   -0.8613    0.8925 C   0  0  0  0  0  0  0  0  0  0  0  0
  103.8322   -1.0140    1.0427 N   0  0  0  0  0  0  0  0  0  0  0  0
  100.7679    2.0396   -1.7350 H   0  0  0  0  0  0  0  0  0  0  0  0
  102.6469    3.3189   -3.1412 H   0  0  0  0  0  0  0  0  0  0  0  0
  104.5368    0.4808   -0.6521 H   0  0  0  0  0  0  0  0  0  0  0  0
  104.1695    2.2453   -5.0137 H   0  0  0  0  0  0  0  0  0  0  0  0
  104.2017    3.9881   -6.7603 H   0  0  0  0  0  0  0  0  0  0  0  0
  106.5594    6.5014   -4.2023 H   0  0  0  0  0  0  0  0  0  0  0  0
  106.5132    4.7592   -2.4542 H   0  0  0  0  0  0  0  0  0  0  0  0
  107.9580    2.8240   -3.5661 H   0  0  0  0  0  0  0  0  0  0  0  0
  109.8126    1.4020   -2.2353 H   0  0  0  0  0  0  0  0  0  0  0  0
  109.7865   -1.9502    1.8280 H   0  0  0  0  0  0  0  0  0  0  0  0
  107.9125   -3.1576    3.3026 H   0  0  0  0  0  0  0  0  0  0  0  0
  105.9981   -0.6820    0.4690 H   0  0  0  0  0  0  0  0  0  0  0  0
  106.1829   -4.9666    2.4390 H   0  0  0  0  0  0  0  0  0  0  0  0
  106.1633   -6.6152    4.2751 H   0  0  0  0  0  0  0  0  0  0  0  0
  104.1967   -3.7633    6.8084 H   0  0  0  0  0  0  0  0  0  0  0  0
  104.2294   -2.1146    4.9714 H   0  0  0  0  0  0  0  0  0  0  0  0
  102.5640   -3.2126    3.2065 H   0  0  0  0  0  0  0  0  0  0  0  0
  100.7063   -1.8326    1.8360 H   0  0  0  0  0  0  0  0  0  0  0  0
  120.4168   -0.1938   -0.1994 C   0  0  0  0  0  0  0  0  0  0  0  0
  121.0387    0.7271   -1.0650 C   0  0  0  0  0  0  0  0  0  0  0  0
  120.3833    1.6243   -1.9473 C   0  0  0  0  0  0  0  0  0  0  0  0
  121.3434    2.3373   -2.6120 C   0  0  0  0  0  0  0  0  0  0  0  0
  122.6138    1.8862   -2.1617 C   0  0  0  0  0  0  0  0  0  0  0  0
  122.3784    0.9205   -1.2202 N   0  0  0  0  0  0  0  0  0  0  0  0
  123.8729    2.3382   -2.5755 C   0  0  0  0  0  0  0  0  0  0  0  0
  123.8887    3.3773   -3.6332 C   0  0  0  0  0  0  0  0  0  0  0  0
  123.3393    3.1203   -4.8914 C   0  0  0  0  0  0  0  0  0  0  0  0
  123.3548    4.0895   -5.8784 C   0  0  0  0  0  0  0  0  0  0  0  0
  123.9176    5.3430   -5.6210 C   0  0  0  0  0  0  0  0  0  0  0  0
  123.9312    6.3443   -6.6330 C   0  0  0  0  0  0  0  0  0  0  0  0
  123.9405    7.1538   -7.4508 N   0  0  0  0  0  0  0  0  0  0  0  0
  124.4668    5.6061   -4.3626 C   0  0  0  0  0  0  0  0  0  0  0  0
  124.4535    4.6301   -3.3825 C   0  0  0  0  0  0  0  0  0  0  0  0
  125.0971    1.8896   -2.0770 C   0  0  0  0  0  0  0  0  0  0  0  0
  126.3862    2.3219   -2.5863 C   0  0  0  0  0  0  0  0  0  0  0  0
  127.3204    1.6704   -1.8634 C   0  0  0  0  0  0  0  0  0  0  0  0
  125.2693    0.9819   -1.0768 N   0  0  0  0  0  0  0  0  0  0  0  0
  126.6003    0.8397   -0.9182 C   0  0  0  0  0  0  0  0  0  0  0  0
  127.2520    0.0258    0.0305 C   0  0  0  0  0  0  0  0  0  0  0  0
  126.6249   -0.8178    0.9682 C   0  0  0  0  0  0  0  0  0  0  0  0
  127.2725   -1.5949    1.9630 C   0  0  0  0  0  0  0  0  0  0  0  0
  126.3104   -2.2774    2.6562 C   0  0  0  0  0  0  0  0  0  0  0  0
  125.0478   -1.9458    2.0942 C   0  0  0  0  0  0  0  0  0  0  0  0
  125.2877   -1.0509    1.0861 N   0  0  0  0  0  0  0  0  0  0  0  0
  123.7903   -2.4218    2.4856 C   0  0  0  0  0  0  0  0  0  0  0  0
  123.7701   -3.4135    3.5877 C   0  0  0  0  0  0  0  0  0  0  0  0
  124.4238   -4.6406    3.4534 C   0  0  0  0  0  0  0  0  0  0  0  0
  124.4023   -5.5666    4.4811 C   0  0  0  0  0  0  0  0  0  0  0  0
  123.7280   -5.2776    5.6711 C   0  0  0  0  0  0  0  0  0  0  0  0
  123.7069   -6.2263    6.7323 C   0  0  0  0  0  0  0  0  0  0  0  0
  123.6896   -6.9941    7.5892 N   0  0  0  0  0  0  0  0  0  0  0  0
  123.0743   -4.0498    5.8115 C   0  0  0  0  0  0  0  0  0  0  0  0
  123.0949   -3.1312    4.7776 C   0  0  0  0  0  0  0  0  0  0  0  0
  122.5708   -2.0412    1.9231 C   0  0  0  0  0  0  0  0  0  0  0  0
  121.2910   -2.6146    2.2993 C   0  0  0  0  0  0  0  0  0  0  0  0
  120.3590   -1.9953    1.5460 C   0  0  0  0  0  0  0  0  0  0  0  0
  121.0716   -1.0510    0.7081 C   0  0  0  0  0  0  0  0  0  0  0  0
  122.3972   -1.1097    0.9452 N   0  0  0  0  0  0  0  0  0  0  0  0
  119.3137    1.7118   -2.0492 H   0  0  0  0  0  0  0  0  0  0  0  0
  121.1862    3.1137   -3.3427 H   0  0  0  0  0  0  0  0  0  0  0  0
  123.1038    0.4294   -0.7083 H   0  0  0  0  0  0  0  0  0  0  0  0
  122.9141    2.1450   -5.0999 H   0  0  0  0  0  0  0  0  0  0  0  0
  122.9325    3.8803   -6.8543 H   0  0  0  0  0  0  0  0  0  0  0  0
  124.9012    6.5777   -4.1585 H   0  0  0  0  0  0  0  0  0  0  0  0
  124.8698    4.8414   -2.4041 H   0  0  0  0  0  0  0  0  0  0  0  0
  126.5345    3.0154   -3.3980 H   0  0  0  0  0  0  0  0  0  0  0  0
  128.3940    1.7251   -1.9451 H   0  0  0  0  0  0  0  0  0  0  0  0
  128.3378   -1.6171    2.1261 H   0  0  0  0  0  0  0  0  0  0  0  0
  126.4606   -2.9449    3.4889 H   0  0  0  0  0  0  0  0  0  0  0  0
  124.5665   -0.6232    0.5150 H   0  0  0  0  0  0  0  0  0  0  0  0
  124.9358   -4.8751    2.5269 H   0  0  0  0  0  0  0  0  0  0  0  0
  124.9062   -6.5192    4.3668 H   0  0  0  0  0  0  0  0  0  0  0  0
  122.5530   -3.8211    6.7336 H   0  0  0  0  0  0  0  0  0  0  0  0
  122.5967   -2.1754    4.8943 H   0  0  0  0  0  0  0  0  0  0  0  0
  121.1483   -3.3951    3.0288 H   0  0  0  0  0  0  0  0  0  0  0  0
  119.2918   -2.1488    1.5345 H   0  0  0  0  0  0  0  0  0  0  0  0
  138.9886    0.0054   -0.0071 C   0  0  0  0  0  0  0  0  0  0  0  0
  139.6136    0.8957   -0.9018 C   0  0  0  0  0  0  0  0  0  0  0  0
  138.9618    1.8092   -1.7700 C   0  0  0  0  0  0  0  0  0  0  0  0
  139.9235    2.4686   -2.4855 C   0  0  0  0  0  0  0  0  0  0  0  0
  141.1910    1.9702   -2.0784 C   0  0  0  0  0  0  0  0  0  0  0  0
  140.9530    1.0291   -1.1130 N   0  0  0  0  0  0  0  0  0  0  0  0
  142.4497    2.3690   -2.5445 C   0  0  0  0  0  0  0  0  0  0  0  0
  142.4614    3.3810   -3.6282 C   0  0  0  0  0  0  0  0  0  0  0  0
  141.8627    3.1063   -4.8600 C   0  0  0  0  0  0  0  0  0  0  0  0
  141.8737    4.0468   -5.8744 C   0  0  0  0  0  0  0  0  0  0  0  0
  142.4815    5.2893   -5.6714 C   0  0  0  0  0  0  0  0  0  0  0  0
  142.4918    6.2606   -6.7122 C   0  0  0  0  0  0  0  0  0  0  0  0
  142.4986    7.0466   -7.5527 N   0  0  0  0  0  0  0  0  0  0  0  0
  143.0789    5.5706   -4.4391 C   0  0  0  0  0  0  0  0  0  0  0  0
  143.0695    4.6231   -3.4314 C   0  0  0  0  0  0  0  0  0  0  0  0
  143.6752    1.8953   -2.0727 C   0  0  0  0  0  0  0  0  0  0  0  0
  144.9617    2.2934   -2.6157 C   0  0  0  0  0  0  0  0  0  0  0  0
  145.8981    1.6392   -1.8981 C   0  0  0  0  0  0  0  0  0  0  0  0
  143.8505    0.9988   -1.0632 N   0  0  0  0  0  0  0  0  0  0  0  0
  145.1818    0.8340   -0.9284 C   0  0  0  0  0  0  0  0  0  0  0  0
  145.8365    0.0107    0.0098 C   0  0  0  0  0  0  0  0  0  0  0  0
  145.2113   -0.8403    0.9418 C   0  0  0  0  0  0  0  0  0  0  0  0
  145.8626   -1.6577    1.9013 C   0  0  0  0  0  0  0  0  0  0  0  0
  144.9008   -2.3402    2.5948 C   0  0  0  0  0  0  0  0  0  0  0  0
  143.6339   -1.9639    2.0719 C   0  0  0  0  0  0  0  0  0  0  0  0
  143.8719   -1.0484    1.0823 N   0  0  0  0  0  0  0  0  0  0  0  0
  142.3750   -2.4132    2.4900 C   0  0  0  0  0  0  0  0  0  0  0  0
  142.3613   -3.4403    3.5595 C   0  0  0  0  0  0  0  0  0  0  0  0
  142.9657   -4.6833    3.3570 C   0  0  0  0  0  0  0  0  0  0  0  0
  142.9497   -5.6451    4.3511 C   0  0  0  0  0  0  0  0  0  0  0  0
  142.3310   -5.3770    5.5758 C   0  0  0  0  0  0  0  0  0  0  0  0
  142.3149   -6.3637    6.6018 C   0  0  0  0  0  0  0  0  0  0  0  0
  142.3035   -7.1599    7.4325 N   0  0  0  0  0  0  0  0  0  0  0  0
  141.7282   -4.1330    5.7850 C   0  0  0  0  0  0  0  0  0  0  0  0
  141.7428   -3.1782    4.7843 C   0  0  0  0  0  0  0  0  0  0  0  0
  141.1500   -1.9728    1.9866 C   0  0  0  0  0  0  0  0  0  0  0  0
  139.8639   -2.5011    2.4056 C   0  0  0  0  0  0  0  0  0  0  0  0
  138.9276   -1.8216    1.7118 C   0  0  0  0  0  0  0  0  0  0  0  0
  139.6437   -0.8902    0.8624 C   0  0  0  0  0  0  0  0  0  0  0  0
  140.9744   -1.0108    1.0389 N   0  0  0  0  0  0  0  0  0  0  0  0
  137.8937    1.9417   -1.8302 H   0  0  0  0  0  0  0  0  0  0  0  0
  139.7704    3.2400   -3.2224 H   0  0  0  0  0  0  0  0  0  0  0  0
  141.6764    0.5130   -0.6234 H   0  0  0  0  0  0  0  0  0  0  0  0
  141.4018    2.1391   -5.0262 H   0  0  0  0  0  0  0  0  0  0  0  0
  141.4132    3.8236   -6.8297 H   0  0  0  0  0  0  0  0  0  0  0  0
  143.5476    6.5341   -4.2770 H   0  0  0  0  0  0  0  0  0  0  0  0
  143.5230    4.8493   -2.4731 H   0  0  0  0  0  0  0  0  0  0  0  0
  145.1069    2.9701   -3.4420 H   0  0  0  0  0  0  0  0  0  0  0  0
  146.9707    1.6727   -2.0015 H   0  0  0  0  0  0  0  0  0  0  0  0
  146.9305   -1.7074    2.0401 H   0  0  0  0  0  0  0  0  0  0  0  0
  145.0537   -3.0350    3.4044 H   0  0  0  0  0  0  0  0  0  0  0  0
  143.1486   -0.5886    0.5394 H   0  0  0  0  0  0  0  0  0  0  0  0
  143.4346   -4.9005    2.4038 H   0  0  0  0  0  0  0  0  0  0  0  0
  143.4144   -6.6097    4.1838 H   0  0  0  0  0  0  0  0  0  0  0  0
  141.2509   -3.9203    6.7344 H   0  0  0  0  0  0  0  0  0  0  0  0
  141.2847   -2.2105    4.9543 H   0  0  0  0  0  0  0  0  0  0  0  0
  139.7189   -3.2932    3.1219 H   0  0  0  0  0  0  0  0  0  0  0  0
  137.8552   -1.9282    1.7454 H   0  0  0  0  0  0  0  0  0  0  0  0
  1  2  4  0  0  0  0
  2  3  4  0  0  0  0
  3  4  2  0  0  0  0
  4  5  4  0  0  0  0
  2  6  4  0  0  0  0
  5  6  4  0  0  0  0
  5  7  4  0  0  0  0
  7  8  1  0  0  0  0
  8  9  4  0  0  0  0
  9 10  4  0  0  0  0
 10 11  4  0  0  0  0
 11 12  1  0  0  0  0
 12 13  3  0  0  0  0
 11 14  4  0  0  0  0
  8 15  4  0  0  0  0
 14 15  4  0  0  0  0
  7 16  4  0  0  0  0
 16 17  1  0  0  0  0
 17 18  2  0  0  0  0
 16 19  4  0  0  0  0
 18 20  1  0  0  0  0
 19 20  4  0  0  0  0
 20 21  4  0  0  0  0
 21 22  4  0  0  0  0
 22 23  4  0  0  0  0
 23 24  2  0  0  0  0
 24 25  4  0  0  0  0
 22 26  4  0  0  0  0
 25 26  4  0  0  0  0
 25 27  4  0  0  0  0
 27 28  1  0  0  0  0
 28 29  4  0  0  0  0
 29 30  4  0  0  0  0
 30 31  4  0  0  0  0
 31 32  1  0  0  0  0
 32 33  3  0  0  0  0
 31 34  4  0  0  0  0
 28 35  4  0  0  0  0
 34 35  4  0  0  0  0
 27 36  4  0  0  0  0
 36 37  1  0  0  0  0
 37 38  2  0  0  0  0
  1 39  4  0  0  0  0
 38 39  1  0  0  0  0
 36 40  4  0  0  0  0
 39 40  4  0  0  0  0
  1 41  1  0  0  0  0
  3 42  1  0  0  0  0
  4 43  1  0  0  0  0
  6 44  1  0  0  0  0
  9 45  1  0  0  0  0
 10 46  1  0  0  0  0
 14 47  1  0  0  0  0
 15 48  1  0  0  0  0
 17 49  1  0  0  0  0
 18 50  1  0  0  0  0
 23 51  1  0  0  0  0
 24 52  1  0  0  0  0
 26 53  1  0  0  0  0
 29 54  1  0  0  0  0
 30 55  1  0  0  0  0
 34 56  1  0  0  0  0
 35 57  1  0  0  0  0
 37 58  1  0  0  0  0
 38 59  1  0  0  0  0
 60 61  4  0  0  0  0
 61 62  4  0  0  0  0
 62 63  2  0  0  0  0
 63 64  4  0  0  0  0
 61 65  4  0  0  0  0
 64 65  4  0  0  0  0
 64 66  4  0  0  0  0
 66 67  1  0  0  0  0
 67 68  4  0  0  0  0
 68 69  4  0  0  0  0
 69 70  4  0  0  0  0
 70 71  1  0  0  0  0
 71 72  3  0  0  0  0
 70 73  4  0  0  0  0
 67 74  4  0  0  0  0
 73 74  4  0  0  0  0
 66 75  4  0  0  0  0
 75 76  1  0  0  0  0
 76 77  2  0  0  0  0
 75 78  4  0  0  0  0
 77 79  1  0  0  0  0
 78 79  4  0  0  0  0
 79 80  4  0  0  0  0
 80 81  4  0  0  0  0
 81 82  4  0  0  0  0
 82 83  2  0  0  0  0
 83 84  4  0  0  0  0
 81 85  4  0  0  0  0
 84 85  4  0  0  0  0
 84 86  4  0  0  0  0
 86 87  1  0  0  0  0
 87 88  4  0  0  0  0
 88 89  4  0  0  0  0
 89 90  4  0  0  0  0
 90 91  1  0  0  0  0
 91 92  3  0  0  0  0
 90 93  4  0  0  0  0
 87 94  4  0  0  0  0
 93 94  4  0  0  0  0
 86 95  4  0  0  0  0
 95 96  1  0  0  0  0
 96 97  2  0  0  0  0
 60 98  4  0  0  0  0
 97 98  1  0  0  0  0
 95 99  4  0  0  0  0
 98 99  4  0  0  0  0
 60100  1  0  0  0  0
 62101  1  0  0  0  0
 63102  1  0  0  0  0
 65103  1  0  0  0  0
 68104  1  0  0  0  0
 69105  1  0  0  0  0
 73106  1  0  0  0  0
 74107  1  0  0  0  0
 76108  1  0  0  0  0
 77109  1  0  0  0  0
 82110  1  0  0  0  0
 83111  1  0  0  0  0
 85112  1  0  0  0  0
 88113  1  0  0  0  0
 89114  1  0  0  0  0
 93115  1  0  0  0  0
 94116  1  0  0  0  0
 96117  1  0  0  0  0
 97118  1  0  0  0  0
 21119  4  0  0  0  0
119120  3  0  0  0  0
120121  4  0  0  0  0
121122  3  0  0  0  0
122123  4  0  0  0  0
123124  3  0  0  0  0
124125  4  0  0  0  0
125126  3  0  0  0  0
127128  3  0  0  0  0
128129  4  0  0  0  0
129130  3  0  0  0  0
130131  4  0  0  0  0
131132  3  0  0  0  0
132133  4  0  0  0  0
133134  3  0  0  0  0
135136  3  0  0  0  0
136137  4  0  0  0  0
137138  3  0  0  0  0
138139  4  0  0  0  0
139140  3  0  0  0  0
140141  4  0  0  0  0
141142  3  0  0  0  0
143144  3  0  0  0  0
144145  4  0  0  0  0
145146  3  0  0  0  0
146147  4  0  0  0  0
147148  3  0  0  0  0
148149  4  0  0  0  0
149150  3  0  0  0  0
151152  3  0  0  0  0
152153  4  0  0  0  0
153154  3  0  0  0  0
154155  4  0  0  0  0
155156  3  0  0  0  0
156157  4  0  0  0  0
 80158  4  0  0  0  0
157158  3  0  0  0  0
126159  4  0  0  0  0
159160  4  0  0  0  0
160161  4  0  0  0  0
161162  2  0  0  0  0
162163  4  0  0  0  0
160164  4  0  0  0  0
163164  4  0  0  0  0
163165  4  0  0  0  0
165166  1  0  0  0  0
166167  4  0  0  0  0
167168  4  0  0  0  0
168169  4  0  0  0  0
169170  1  0  0  0  0
170171  3  0  0  0  0
169172  4  0  0  0  0
166173  4  0  0  0  0
172173  4  0  0  0  0
165174  4  0  0  0  0
174175  1  0  0  0  0
175176  2  0  0  0  0
174177  4  0  0  0  0
176178  1  0  0  0  0
177178  4  0  0  0  0
127179  4  0  0  0  0
178179  4  0  0  0  0
179180  4  0  0  0  0
180181  4  0  0  0  0
181182  2  0  0  0  0
182183  4  0  0  0  0
180184  4  0  0  0  0
183184  4  0  0  0  0
183185  4  0  0  0  0
185186  1  0  0  0  0
186187  4  0  0  0  0
187188  4  0  0  0  0
188189  4  0  0  0  0
189190  1  0  0  0  0
190191  3  0  0  0  0
189192  4  0  0  0  0
186193  4  0  0  0  0
192193  4  0  0  0  0
185194  4  0  0  0  0
194195  1  0  0  0  0
195196  2  0  0  0  0
159197  4  0  0  0  0
196197  1  0  0  0  0
194198  4  0  0  0  0
197198  4  0  0  0  0
161199  1  0  0  0  0
162200  1  0  0  0  0
164201  1  0  0  0  0
167202  1  0  0  0  0
168203  1  0  0  0  0
172204  1  0  0  0  0
173205  1  0  0  0  0
175206  1  0  0  0  0
176207  1  0  0  0  0
181208  1  0  0  0  0
182209  1  0  0  0  0
184210  1  0  0  0  0
187211  1  0  0  0  0
188212  1  0  0  0  0
192213  1  0  0  0  0
193214  1  0  0  0  0
195215  1  0  0  0  0
196216  1  0  0  0  0
134217  4  0  0  0  0
217218  4  0  0  0  0
218219  4  0  0  0  0
219220  2  0  0  0  0
220221  4  0  0  0  0
218222  4  0  0  0  0
221222  4  0  0  0  0
221223  4  0  0  0  0
223224  1  0  0  0  0
224225  4  0  0  0  0
225226  4  0  0  0  0
226227  4  0  0  0  0
227228  1  0  0  0  0
228229  3  0  0  0  0
227230  4  0  0  0  0
224231  4  0  0  0  0
230231  4  0  0  0  0
223232  4  0  0  0  0
232233  1  0  0  0  0
233234  2  0  0  0  0
232235  4  0  0  0  0
234236  1  0  0  0  0
235236  4  0  0  0  0
135237  4  0  0  0  0
236237  4  0  0  0  0
237238  4  0  0  0  0
238239  4  0  0  0  0
239240  2  0  0  0  0
240241  4  0  0  0  0
238242  4  0  0  0  0
241242  4  0  0  0  0
241243  4  0  0  0  0
243244  1  0  0  0  0
244245  4  0  0  0  0
245246  4  0  0  0  0
246247  4  0  0  0  0
247248  1  0  0  0  0
248249  3  0  0  0  0
247250  4  0  0  0  0
244251  4  0  0  0  0
250251  4  0  0  0  0
243252  4  0  0  0  0
252253  1  0  0  0  0
253254  2  0  0  0  0
217255  4  0  0  0  0
254255  1  0  0  0  0
252256  4  0  0  0  0
255256  4  0  0  0  0
219257  1  0  0  0  0
220258  1  0  0  0  0
222259  1  0  0  0  0
225260  1  0  0  0  0
226261  1  0  0  0  0
230262  1  0  0  0  0
231263  1  0  0  0  0
233264  1  0  0  0  0
234265  1  0  0  0  0
239266  1  0  0  0  0
240267  1  0  0  0  0
242268  1  0  0  0  0
245269  1  0  0  0  0
246270  1  0  0  0  0
250271  1  0  0  0  0
251272  1  0  0  0  0
253273  1  0  0  0  0
254274  1  0  0  0  0
142275  4  0  0  0  0
275276  4  0  0  0  0
276277  4  0  0  0  0
277278  2  0  0  0  0
278279  4  0  0  0  0
276280  4  0  0  0  0
279280  4  0  0  0  0
279281  4  0  0  0  0
281282  1  0  0  0  0
282283  4  0  0  0  0
283284  4  0  0  0  0
284285  4  0  0  0  0
285286  1  0  0  0  0
286287  3  0  0  0  0
285288  4  0  0  0  0
282289  4  0  0  0  0
288289  4  0  0  0  0
281290  4  0  0  0  0
290291  1  0  0  0  0
291292  2  0  0  0  0
290293  4  0  0  0  0
292294  1  0  0  0  0
293294  4  0  0  0  0
143295  4  0  0  0  0
294295  4  0  0  0  0
295296  4  0  0  0  0
296297  4  0  0  0  0
297298  2  0  0  0  0
298299  4  0  0  0  0
296300  4  0  0  0  0
299300  4  0  0  0  0
299301  4  0  0  0  0
301302  1  0  0  0  0
302303  4  0  0  0  0
303304  4  0  0  0  0
304305  4  0  0  0  0
305306  1  0  0  0  0
306307  3  0  0  0  0
305308  4  0  0  0  0
302309  4  0  0  0  0
308309  4  0  0  0  0
301310  4  0  0  0  0
310311  1  0  0  0  0
311312  2  0  0  0  0
275313  4  0  0  0  0
312313  1  0  0  0  0
310314  4  0  0  0  0
313314  4  0  0  0  0
277315  1  0  0  0  0
278316  1  0  0  0  0
280317  1  0  0  0  0
283318  1  0  0  0  0
284319  1  0  0  0  0
288320  1  0  0  0  0
289321  1  0  0  0  0
291322  1  0  0  0  0
292323  1  0  0  0  0
297324  1  0  0  0  0
298325  1  0  0  0  0
300326  1  0  0  0  0
303327  1  0  0  0  0
304328  1  0  0  0  0
308329  1  0  0  0  0
309330  1  0  0  0  0
311331  1  0  0  0  0
312332  1  0  0  0  0
150333  4  0  0  0  0
333334  4  0  0  0  0
334335  4  0  0  0  0
335336  2  0  0  0  0
336337  4  0  0  0  0
334338  4  0  0  0  0
337338  4  0  0  0  0
337339  4  0  0  0  0
339340  1  0  0  0  0
340341  4  0  0  0  0
341342  4  0  0  0  0
342343  4  0  0  0  0
343344  1  0  0  0  0
344345  3  0  0  0  0
343346  4  0  0  0  0
340347  4  0  0  0  0
346347  4  0  0  0  0
339348  4  0  0  0  0
348349  1  0  0  0  0
349350  2  0  0  0  0
348351  4  0  0  0  0
350352  1  0  0  0  0
351352  4  0  0  0  0
151353  4  0  0  0  0
352353  4  0  0  0  0
353354  4  0  0  0  0
354355  4  0  0  0  0
355356  2  0  0  0  0
356357  4  0  0  0  0
354358  4  0  0  0  0
357358  4  0  0  0  0
357359  4  0  0  0  0
359360  1  0  0  0  0
360361  4  0  0  0  0
361362  4  0  0  0  0
362363  4  0  0  0  0
363364  1  0  0  0  0
364365  3  0  0  0  0
363366  4  0  0  0  0
360367  4  0  0  0  0
366367  4  0  0  0  0
359368  4  0  0  0  0
368369  1  0  0  0  0
369370  2  0  0  0  0
333371  4  0  0  0  0
370371  1  0  0  0  0
368372  4  0  0  0  0
371372  4  0  0  0  0
335373  1  0  0  0  0
336374  1  0  0  0  0
338375  1  0  0  0  0
341376  1  0  0  0  0
342377  1  0  0  0  0
346378  1  0  0  0  0
347379  1  0  0  0  0
349380  1  0  0  0  0
350381  1  0  0  0  0
355382  1  0  0  0  0
356383  1  0  0  0  0
358384  1  0  0  0  0
361385  1  0  0  0  0
362386  1  0  0  0  0
366387  1  0  0  0  0
367388  1  0  0  0  0
369389  1  0  0  0  0
370390  1  0  0  0  0
M  END
