 xtb: 6.5.1 (b24c23e)
          07302202173D

166197  0     0  0            999 V2000
   16.5512   -0.0167   -0.0159 Ni  0  0  0  0  0  0  0  0  0  0  0  0
   13.1401   -0.0571   -0.0548 C   0  0  0  0  0  0  0  0  0  0  0  0
   13.8099   -0.9078   -0.9099 C   0  0  0  0  0  0  0  0  0  0  0  0
   13.1519   -1.8058   -1.8126 C   0  0  0  0  0  0  0  0  0  0  0  0
   14.1251   -2.4689   -2.4796 C   0  0  0  0  0  0  0  0  0  0  0  0
   15.3748   -1.9744   -1.9825 C   0  0  0  0  0  0  0  0  0  0  0  0
   15.1727   -1.0178   -1.0208 N   0  0  0  0  0  0  0  0  0  0  0  0
   16.6034   -2.4171   -2.4272 C   0  0  0  0  0  0  0  0  0  0  0  0
   17.8108   -1.9482   -1.9547 C   0  0  0  0  0  0  0  0  0  0  0  0
   19.0782   -2.4174   -2.4249 C   0  0  0  0  0  0  0  0  0  0  0  0
   20.0238   -1.7341   -1.7370 C   0  0  0  0  0  0  0  0  0  0  0  0
   17.9768   -0.9849   -0.9865 N   0  0  0  0  0  0  0  0  0  0  0  0
   19.3301   -0.8513   -0.8506 C   0  0  0  0  0  0  0  0  0  0  0  0
   19.9827    0.0213    0.0258 C   0  0  0  0  0  0  0  0  0  0  0  0
   19.2905    0.8789    0.8857 C   0  0  0  0  0  0  0  0  0  0  0  0
   19.9428    1.7775    1.7876 C   0  0  0  0  0  0  0  0  0  0  0  0
   18.9658    2.4400    2.4517 C   0  0  0  0  0  0  0  0  0  0  0  0
   17.7208    1.9424    1.9517 C   0  0  0  0  0  0  0  0  0  0  0  0
   17.9316    0.9826    0.9887 N   0  0  0  0  0  0  0  0  0  0  0  0
   16.4920    2.3841    2.3945 C   0  0  0  0  0  0  0  0  0  0  0  0
   15.2846    1.9127    1.9218 C   0  0  0  0  0  0  0  0  0  0  0  0
   14.0125    2.3782    2.3893 C   0  0  0  0  0  0  0  0  0  0  0  0
   13.0708    1.6919    1.7011 C   0  0  0  0  0  0  0  0  0  0  0  0
   13.7702    0.8090    0.8148 C   0  0  0  0  0  0  0  0  0  0  0  0
   15.1271    0.9511    0.9569 N   0  0  0  0  0  0  0  0  0  0  0  0
   12.0565   -0.0697   -0.0672 H   0  0  0  0  0  0  0  0  0  0  0  0
   12.0816   -1.8994   -1.9065 H   0  0  0  0  0  0  0  0  0  0  0  0
   14.0291   -3.2264   -3.2413 H   0  0  0  0  0  0  0  0  0  0  0  0
   16.6214   -3.1813   -3.1956 H   0  0  0  0  0  0  0  0  0  0  0  0
   19.2066   -3.1727   -3.1838 H   0  0  0  0  0  0  0  0  0  0  0  0
   21.0970   -1.8075   -1.8094 H   0  0  0  0  0  0  0  0  0  0  0  0
   21.0122    1.8743    1.8855 H   0  0  0  0  0  0  0  0  0  0  0  0
   19.0590    3.1984    3.2126 H   0  0  0  0  0  0  0  0  0  0  0  0
   16.4741    3.1492    3.1620 H   0  0  0  0  0  0  0  0  0  0  0  0
   13.8812    3.1339    3.1476 H   0  0  0  0  0  0  0  0  0  0  0  0
   11.9966    1.7604    1.7702 H   0  0  0  0  0  0  0  0  0  0  0  0
   72.3907    0.0000   -0.0094 Ni  0  0  0  0  0  0  0  0  0  0  0  0
   75.8017    0.0593   -0.0123 C   0  0  0  0  0  0  0  0  0  0  0  0
   75.1307    1.2633   -0.0718 C   0  0  0  0  0  0  0  0  0  0  0  0
   75.7875    2.5357   -0.1348 C   0  0  0  0  0  0  0  0  0  0  0  0
   74.8134    3.4742   -0.1794 C   0  0  0  0  0  0  0  0  0  0  0  0
   73.5644    2.7728   -0.1437 C   0  0  0  0  0  0  0  0  0  0  0  0
   73.7678    1.4181   -0.0781 N   0  0  0  0  0  0  0  0  0  0  0  0
   72.3352    3.3984   -0.1722 C   0  0  0  0  0  0  0  0  0  0  0  0
   71.1284    2.7324   -0.1393 C   0  0  0  0  0  0  0  0  0  0  0  0
   69.8603    3.3946   -0.1707 C   0  0  0  0  0  0  0  0  0  0  0  0
   68.9156    2.4252   -0.1256 C   0  0  0  0  0  0  0  0  0  0  0  0
   70.9638    1.3680   -0.0750 N   0  0  0  0  0  0  0  0  0  0  0  0
   69.6105    1.1762   -0.0668 C   0  0  0  0  0  0  0  0  0  0  0  0
   68.9596   -0.0598   -0.0120 C   0  0  0  0  0  0  0  0  0  0  0  0
   69.6527   -1.2722    0.0463 C   0  0  0  0  0  0  0  0  0  0  0  0
   69.0016   -2.5445    0.1069 C   0  0  0  0  0  0  0  0  0  0  0  0
   69.9794   -3.4803    0.1571 C   0  0  0  0  0  0  0  0  0  0  0  0
   71.2238   -2.7743    0.1262 C   0  0  0  0  0  0  0  0  0  0  0  0
   71.0119   -1.4167    0.0580 N   0  0  0  0  0  0  0  0  0  0  0  0
   72.4532   -3.3978    0.1608 C   0  0  0  0  0  0  0  0  0  0  0  0
   73.6598   -2.7298    0.1290 C   0  0  0  0  0  0  0  0  0  0  0  0
   74.9326   -3.3874    0.1628 C   0  0  0  0  0  0  0  0  0  0  0  0
   75.8734   -2.4158    0.1134 C   0  0  0  0  0  0  0  0  0  0  0  0
   75.1728   -1.1671    0.0499 C   0  0  0  0  0  0  0  0  0  0  0  0
   73.8161   -1.3690    0.0601 N   0  0  0  0  0  0  0  0  0  0  0  0
   76.8853    0.0780   -0.0137 H   0  0  0  0  0  0  0  0  0  0  0  0
   76.8577    2.6691   -0.1425 H   0  0  0  0  0  0  0  0  0  0  0  0
   74.9084    4.5473   -0.2318 H   0  0  0  0  0  0  0  0  0  0  0  0
   72.3162    4.4809   -0.2241 H   0  0  0  0  0  0  0  0  0  0  0  0
   69.7309    4.4640   -0.2211 H   0  0  0  0  0  0  0  0  0  0  0  0
   67.8422    2.5270   -0.1309 H   0  0  0  0  0  0  0  0  0  0  0  0
   67.9324   -2.6833    0.1102 H   0  0  0  0  0  0  0  0  0  0  0  0
   69.8873   -4.5534    0.2102 H   0  0  0  0  0  0  0  0  0  0  0  0
   72.4721   -4.4801    0.2154 H   0  0  0  0  0  0  0  0  0  0  0  0
   75.0650   -4.4564    0.2171 H   0  0  0  0  0  0  0  0  0  0  0  0
   76.9476   -2.5120    0.1183 H   0  0  0  0  0  0  0  0  0  0  0  0
   21.3873    0.0342    0.0400 C   0  0  0  0  0  0  0  0  0  0  0  0
   22.6114    0.0399    0.0425 C   0  0  0  0  0  0  0  0  0  0  0  0
   23.9546    0.0411    0.0440 C   0  0  0  0  0  0  0  0  0  0  0  0
   25.1850    0.0341    0.0393 C   0  0  0  0  0  0  0  0  0  0  0  0
   26.5232    0.0246    0.0321 C   0  0  0  0  0  0  0  0  0  0  0  0
   27.7536    0.0145    0.0222 C   0  0  0  0  0  0  0  0  0  0  0  0
   29.0964    0.0031    0.0110 C   0  0  0  0  0  0  0  0  0  0  0  0
   30.3207   -0.0065    0.0010 C   0  0  0  0  0  0  0  0  0  0  0  0
   40.0040   -0.0605   -0.0377 C   0  0  0  0  0  0  0  0  0  0  0  0
   41.2284   -0.0576   -0.0367 C   0  0  0  0  0  0  0  0  0  0  0  0
   42.5712   -0.0505   -0.0327 C   0  0  0  0  0  0  0  0  0  0  0  0
   43.8015   -0.0397   -0.0262 C   0  0  0  0  0  0  0  0  0  0  0  0
   45.1395   -0.0283   -0.0204 C   0  0  0  0  0  0  0  0  0  0  0  0
   46.3702   -0.0178   -0.0126 C   0  0  0  0  0  0  0  0  0  0  0  0
   47.7130   -0.0116   -0.0119 C   0  0  0  0  0  0  0  0  0  0  0  0
   48.9374   -0.0055   -0.0143 C   0  0  0  0  0  0  0  0  0  0  0  0
   58.6209   -0.0603   -0.0385 C   0  0  0  0  0  0  0  0  0  0  0  0
   59.8450   -0.0709   -0.0389 C   0  0  0  0  0  0  0  0  0  0  0  0
   61.1882   -0.0812   -0.0375 C   0  0  0  0  0  0  0  0  0  0  0  0
   62.4184   -0.0915   -0.0341 C   0  0  0  0  0  0  0  0  0  0  0  0
   63.7570   -0.0971   -0.0298 C   0  0  0  0  0  0  0  0  0  0  0  0
   64.9872   -0.0989   -0.0245 C   0  0  0  0  0  0  0  0  0  0  0  0
   66.3307   -0.0920   -0.0194 C   0  0  0  0  0  0  0  0  0  0  0  0
   67.5546   -0.0819   -0.0155 C   0  0  0  0  0  0  0  0  0  0  0  0
   35.1624   -0.0302   -0.0260 Ni  0  0  0  0  0  0  0  0  0  0  0  0
   31.7248   -0.0149   -0.0071 C   0  0  0  0  0  0  0  0  0  0  0  0
   32.4071    0.8982    0.8029 C   0  0  0  0  0  0  0  0  0  0  0  0
   31.7433    1.8457    1.6438 C   0  0  0  0  0  0  0  0  0  0  0  0
   32.7121    2.5562    2.2697 C   0  0  0  0  0  0  0  0  0  0  0  0
   33.9623    2.0375    1.8077 C   0  0  0  0  0  0  0  0  0  0  0  0
   33.7644    1.0180    0.9056 N   0  0  0  0  0  0  0  0  0  0  0  0
   35.1859    2.5134    2.2287 C   0  0  0  0  0  0  0  0  0  0  0  0
   36.4005    2.0236    1.7979 C   0  0  0  0  0  0  0  0  0  0  0  0
   37.6603    2.5281    2.2496 C   0  0  0  0  0  0  0  0  0  0  0  0
   38.6157    1.8070    1.6156 C   0  0  0  0  0  0  0  0  0  0  0  0
   36.5795    1.0020    0.8940 N   0  0  0  0  0  0  0  0  0  0  0  0
   37.9345    0.8671    0.7800 C   0  0  0  0  0  0  0  0  0  0  0  0
   38.6000   -0.0536   -0.0355 C   0  0  0  0  0  0  0  0  0  0  0  0
   37.9182   -0.9635   -0.8495 C   0  0  0  0  0  0  0  0  0  0  0  0
   38.5820   -1.9092   -1.6923 C   0  0  0  0  0  0  0  0  0  0  0  0
   37.6132   -2.6126   -2.3263 C   0  0  0  0  0  0  0  0  0  0  0  0
   36.3628   -2.0924   -1.8659 C   0  0  0  0  0  0  0  0  0  0  0  0
   36.5609   -1.0783   -0.9577 N   0  0  0  0  0  0  0  0  0  0  0  0
   35.1391   -2.5643   -2.2911 C   0  0  0  0  0  0  0  0  0  0  0  0
   33.9243   -2.0782   -1.8559 C   0  0  0  0  0  0  0  0  0  0  0  0
   32.6645   -2.5843   -2.3061 C   0  0  0  0  0  0  0  0  0  0  0  0
   31.7089   -1.8702   -1.6642 C   0  0  0  0  0  0  0  0  0  0  0  0
   32.3900   -0.9321   -0.8267 C   0  0  0  0  0  0  0  0  0  0  0  0
   33.7451   -1.0621   -0.9461 N   0  0  0  0  0  0  0  0  0  0  0  0
   30.6729    1.9402    1.7306 H   0  0  0  0  0  0  0  0  0  0  0  0
   32.6095    3.3598    2.9814 H   0  0  0  0  0  0  0  0  0  0  0  0
   35.1935    3.3253    2.9470 H   0  0  0  0  0  0  0  0  0  0  0  0
   37.7776    3.3303    2.9605 H   0  0  0  0  0  0  0  0  0  0  0  0
   39.6879    1.8897    1.6935 H   0  0  0  0  0  0  0  0  0  0  0  0
   39.6525   -2.0070   -1.7752 H   0  0  0  0  0  0  0  0  0  0  0  0
   37.7157   -3.4128   -3.0418 H   0  0  0  0  0  0  0  0  0  0  0  0
   35.1314   -3.3718   -3.0142 H   0  0  0  0  0  0  0  0  0  0  0  0
   32.5472   -3.3832   -3.0208 H   0  0  0  0  0  0  0  0  0  0  0  0
   30.6367   -1.9562   -1.7381 H   0  0  0  0  0  0  0  0  0  0  0  0
   53.7789   -0.0306   -0.0264 Ni  0  0  0  0  0  0  0  0  0  0  0  0
   50.3414   -0.0101   -0.0175 C   0  0  0  0  0  0  0  0  0  0  0  0
   51.0223    0.9012    0.7955 C   0  0  0  0  0  0  0  0  0  0  0  0
   50.3576    1.8478    1.6366 C   0  0  0  0  0  0  0  0  0  0  0  0
   51.3256    2.5542    2.2683 C   0  0  0  0  0  0  0  0  0  0  0  0
   52.5766    2.0346    1.8087 C   0  0  0  0  0  0  0  0  0  0  0  0
   52.3795    1.0181    0.9030 N   0  0  0  0  0  0  0  0  0  0  0  0
   53.7997    2.5087    2.2330 C   0  0  0  0  0  0  0  0  0  0  0  0
   55.0149    2.0217    1.8001 C   0  0  0  0  0  0  0  0  0  0  0  0
   56.2742    2.5285    2.2509 C   0  0  0  0  0  0  0  0  0  0  0  0
   57.2306    1.8119    1.6130 C   0  0  0  0  0  0  0  0  0  0  0  0
   55.1951    1.0030    0.8936 N   0  0  0  0  0  0  0  0  0  0  0  0
   56.5504    0.8716    0.7771 C   0  0  0  0  0  0  0  0  0  0  0  0
   57.2164   -0.0502   -0.0363 C   0  0  0  0  0  0  0  0  0  0  0  0
   56.5353   -0.9643   -0.8459 C   0  0  0  0  0  0  0  0  0  0  0  0
   57.2001   -1.9134   -1.6842 C   0  0  0  0  0  0  0  0  0  0  0  0
   56.2321   -2.6211   -2.3144 C   0  0  0  0  0  0  0  0  0  0  0  0
   54.9812   -2.0996   -1.8572 C   0  0  0  0  0  0  0  0  0  0  0  0
   55.1780   -1.0809   -0.9539 N   0  0  0  0  0  0  0  0  0  0  0  0
   53.7581   -2.5727   -2.2829 C   0  0  0  0  0  0  0  0  0  0  0  0
   52.5431   -2.0824   -1.8539 C   0  0  0  0  0  0  0  0  0  0  0  0
   51.2838   -2.5864   -2.3077 C   0  0  0  0  0  0  0  0  0  0  0  0
   50.3276   -1.8675   -1.6722 C   0  0  0  0  0  0  0  0  0  0  0  0
   51.0080   -0.9290   -0.8343 C   0  0  0  0  0  0  0  0  0  0  0  0
   52.3630   -1.0627   -0.9482 N   0  0  0  0  0  0  0  0  0  0  0  0
   49.2870    1.9444    1.7196 H   0  0  0  0  0  0  0  0  0  0  0  0
   51.2224    3.3560    2.9819 H   0  0  0  0  0  0  0  0  0  0  0  0
   53.8066    3.3179    2.9542 H   0  0  0  0  0  0  0  0  0  0  0  0
   56.3908    3.3293    2.9636 H   0  0  0  0  0  0  0  0  0  0  0  0
   58.3026    1.8974    1.6888 H   0  0  0  0  0  0  0  0  0  0  0  0
   58.2706   -2.0104   -1.7669 H   0  0  0  0  0  0  0  0  0  0  0  0
   56.3354   -3.4247   -3.0260 H   0  0  0  0  0  0  0  0  0  0  0  0
   53.7514   -3.3836   -3.0022 H   0  0  0  0  0  0  0  0  0  0  0  0
   51.1672   -3.3871   -3.0205 H   0  0  0  0  0  0  0  0  0  0  0  0
   49.2556   -1.9507   -1.7507 H   0  0  0  0  0  0  0  0  0  0  0  0
  2  3  4  0  0  0  0
  3  4  1  0  0  0  0
  4  5  2  0  0  0  0
  5  6  1  0  0  0  0
  1  7  1  0  0  0  0
  3  7  4  0  0  0  0
  6  7  4  0  0  0  0
  6  8  4  0  0  0  0
  8  9  4  0  0  0  0
  9 10  4  0  0  0  0
 10 11  2  0  0  0  0
  1 12  1  0  0  0  0
  9 12  4  0  0  0  0
 11 13  4  0  0  0  0
 12 13  4  0  0  0  0
 13 14  4  0  0  0  0
 14 15  4  0  0  0  0
 15 16  4  0  0  0  0
 16 17  2  0  0  0  0
 17 18  4  0  0  0  0
  1 19  1  0  0  0  0
 15 19  4  0  0  0  0
 18 19  4  0  0  0  0
 18 20  4  0  0  0  0
 20 21  4  0  0  0  0
 21 22  1  0  0  0  0
 22 23  2  0  0  0  0
  2 24  4  0  0  0  0
 23 24  1  0  0  0  0
  1 25  1  0  0  0  0
 21 25  4  0  0  0  0
 24 25  4  0  0  0  0
  2 26  1  0  0  0  0
  4 27  1  0  0  0  0
  5 28  1  0  0  0  0
  8 29  1  0  0  0  0
 10 30  1  0  0  0  0
 11 31  1  0  0  0  0
 16 32  1  0  0  0  0
 17 33  1  0  0  0  0
 20 34  1  0  0  0  0
 22 35  1  0  0  0  0
 23 36  1  0  0  0  0
 38 39  4  0  0  0  0
 39 40  1  0  0  0  0
 40 41  2  0  0  0  0
 41 42  1  0  0  0  0
 37 43  1  0  0  0  0
 39 43  4  0  0  0  0
 42 43  4  0  0  0  0
 42 44  4  0  0  0  0
 44 45  4  0  0  0  0
 45 46  4  0  0  0  0
 46 47  2  0  0  0  0
 37 48  1  0  0  0  0
 45 48  4  0  0  0  0
 47 49  4  0  0  0  0
 48 49  4  0  0  0  0
 49 50  4  0  0  0  0
 50 51  4  0  0  0  0
 51 52  4  0  0  0  0
 52 53  2  0  0  0  0
 53 54  4  0  0  0  0
 37 55  1  0  0  0  0
 51 55  4  0  0  0  0
 54 55  4  0  0  0  0
 54 56  4  0  0  0  0
 56 57  4  0  0  0  0
 57 58  1  0  0  0  0
 58 59  2  0  0  0  0
 38 60  4  0  0  0  0
 59 60  1  0  0  0  0
 37 61  1  0  0  0  0
 57 61  4  0  0  0  0
 60 61  4  0  0  0  0
 38 62  1  0  0  0  0
 40 63  1  0  0  0  0
 41 64  1  0  0  0  0
 44 65  1  0  0  0  0
 46 66  1  0  0  0  0
 47 67  1  0  0  0  0
 52 68  1  0  0  0  0
 53 69  1  0  0  0  0
 56 70  1  0  0  0  0
 58 71  1  0  0  0  0
 59 72  1  0  0  0  0
 14 73  4  0  0  0  0
 73 74  3  0  0  0  0
 74 75  4  0  0  0  0
 75 76  3  0  0  0  0
 76 77  4  0  0  0  0
 77 78  3  0  0  0  0
 78 79  4  0  0  0  0
 79 80  3  0  0  0  0
 81 82  3  0  0  0  0
 82 83  4  0  0  0  0
 83 84  3  0  0  0  0
 84 85  4  0  0  0  0
 85 86  3  0  0  0  0
 86 87  4  0  0  0  0
 87 88  3  0  0  0  0
 89 90  3  0  0  0  0
 90 91  4  0  0  0  0
 91 92  3  0  0  0  0
 92 93  4  0  0  0  0
 93 94  3  0  0  0  0
 94 95  4  0  0  0  0
 50 96  4  0  0  0  0
 95 96  3  0  0  0  0
 80 98  4  0  0  0  0
 98 99  4  0  0  0  0
 99100  4  0  0  0  0
100101  2  0  0  0  0
101102  4  0  0  0  0
 97103  1  0  0  0  0
 99103  4  0  0  0  0
102103  4  0  0  0  0
102104  4  0  0  0  0
104105  4  0  0  0  0
105106  4  0  0  0  0
106107  2  0  0  0  0
 97108  1  0  0  0  0
105108  4  0  0  0  0
107109  4  0  0  0  0
108109  4  0  0  0  0
 81110  4  0  0  0  0
109110  4  0  0  0  0
110111  4  0  0  0  0
111112  4  0  0  0  0
112113  2  0  0  0  0
113114  4  0  0  0  0
 97115  1  0  0  0  0
111115  4  0  0  0  0
114115  4  0  0  0  0
114116  4  0  0  0  0
116117  4  0  0  0  0
117118  4  0  0  0  0
118119  2  0  0  0  0
 98120  4  0  0  0  0
119120  4  0  0  0  0
 97121  1  0  0  0  0
117121  4  0  0  0  0
120121  4  0  0  0  0
100122  1  0  0  0  0
101123  1  0  0  0  0
104124  1  0  0  0  0
106125  1  0  0  0  0
107126  1  0  0  0  0
112127  1  0  0  0  0
113128  1  0  0  0  0
116129  1  0  0  0  0
118130  1  0  0  0  0
119131  1  0  0  0  0
 88133  4  0  0  0  0
133134  4  0  0  0  0
134135  4  0  0  0  0
135136  2  0  0  0  0
136137  4  0  0  0  0
132138  1  0  0  0  0
134138  4  0  0  0  0
137138  4  0  0  0  0
137139  4  0  0  0  0
139140  4  0  0  0  0
140141  4  0  0  0  0
141142  2  0  0  0  0
132143  1  0  0  0  0
140143  4  0  0  0  0
142144  4  0  0  0  0
143144  4  0  0  0  0
 89145  4  0  0  0  0
144145  4  0  0  0  0
145146  4  0  0  0  0
146147  4  0  0  0  0
147148  2  0  0  0  0
148149  4  0  0  0  0
132150  1  0  0  0  0
146150  4  0  0  0  0
149150  4  0  0  0  0
149151  4  0  0  0  0
151152  4  0  0  0  0
152153  4  0  0  0  0
153154  2  0  0  0  0
133155  4  0  0  0  0
154155  4  0  0  0  0
132156  1  0  0  0  0
152156  4  0  0  0  0
155156  4  0  0  0  0
135157  1  0  0  0  0
136158  1  0  0  0  0
139159  1  0  0  0  0
141160  1  0  0  0  0
142161  1  0  0  0  0
147162  1  0  0  0  0
148163  1  0  0  0  0
151164  1  0  0  0  0
153165  1  0  0  0  0
154166  1  0  0  0  0
M  END
