462

C 86.385455 -0.016987 -0.014848
C 87.113410 1.358620 0.081128
C 86.505655 2.593146 0.062678
C 87.528014 3.562178 0.234917
C 88.725225 2.884501 0.360863
N 88.465952 1.545182 0.211501
C 90.146782 3.521114 0.652838
C 90.183556 4.935630 1.085380
C 90.470931 5.947405 0.170726
C 90.482474 7.254889 0.624443
N 90.228422 7.619390 1.903329
C 89.954218 6.610880 2.764344
C 89.918802 5.273107 2.411069
C 91.277992 2.772635 0.553825
C 92.582332 3.309766 0.884532
C 93.485198 2.350369 0.718690
N 91.474848 1.469099 0.182629
C 92.806522 1.153800 0.261790
C 93.474445 -0.001020 -0.000922
C 92.694981 -1.279538 -0.525048
C 93.229532 -2.312567 -1.269714
C 92.204066 -3.270054 -1.470259
C 91.069861 -2.789824 -0.850945
N 91.363633 -1.553265 -0.326714
C 89.663957 -3.518646 -0.773592
C 89.639446 -4.989290 -0.917892
C 90.036064 -5.804370 0.139896
C 90.010776 -7.175880 -0.046019
N 89.626456 -7.782603 -1.193978
C 89.248520 -6.960628 -2.200904
C 89.239507 -5.579197 -2.116074
C 88.537547 -2.791171 -0.558279
C 87.218334 -3.390904 -0.459314
C 86.331906 -2.419613 -0.261759
C 87.050673 -1.170176 -0.213955
N 88.370747 -1.445462 -0.388157
H 85.308746 -0.031056 0.105113
H 85.447405 2.775019 -0.045144
H 87.399156 4.632820 0.286990
H 89.166206 0.807587 0.202730
H 90.683159 5.704376 -0.864854
H 90.704940 8.070963 -0.055155
H 89.755308 6.914813 3.786821
H 89.694304 4.500417 3.138427
H 92.795933 4.308394 1.221579
H 94.538815 2.465821 0.896376
H 94.248075 -2.379538 -1.620895
H 92.286607 -4.206221 -2.001644
H 90.683923 -0.922014 0.089487
H 90.353333 -5.366497 1.080158
H 90.310997 -7.844459 0.754174
H 88.940631 -7.457637 -3.114938
H 88.926879 -4.961905 -2.951531
H 86.989556 -4.439032 -0.528814
H 85.269846 -2.538457 -0.145811
C 193.343221 0.019553 -0.005988
C 192.615266 -1.247250 -0.550707
C 193.223020 -2.336230 -1.132528
C 192.200661 -3.276537 -1.423239
C 191.003450 -2.731801 -1.000899
N 191.262724 -1.472805 -0.520258
C 189.581893 -3.431444 -1.032920
C 189.545120 -4.886984 -1.296270
C 189.257745 -5.367483 -2.572750
C 189.246201 -6.737575 -2.768253
N 189.500254 -7.647335 -1.798333
C 189.774458 -7.145171 -0.571030
C 189.809873 -5.794157 -0.272366
C 188.450684 -2.720735 -0.778130
C 187.146344 -3.349683 -0.730158
C 186.243478 -2.420871 -0.438173
N 188.253828 -1.391948 -0.511078
C 186.922154 -1.147920 -0.296299
C 186.254231 -0.001020 -0.000922
C 187.033695 1.375570 0.118726
C 186.499144 2.634942 -0.070111
C 187.524610 3.577950 0.190149
C 188.658815 2.867401 0.520740
N 188.365043 1.528062 0.420403
C 190.064719 3.479858 0.923307
C 190.089230 4.853277 1.468596
C 189.692611 5.093367 2.782227
C 189.717900 6.397721 3.245117
N 190.102220 7.462839 2.502524
C 190.480155 7.193323 1.230948
C 190.489169 5.926449 0.673653
C 191.191128 2.734555 0.781521
C 192.510342 3.222361 1.144178
C 193.396769 2.268451 0.874937
C 192.678003 1.135870 0.345183
N 191.357929 1.460371 0.316409
H 194.419930 -0.022884 0.107094
H 194.281271 -2.448524 -1.311675
H 192.329520 -4.252133 -1.867309
H 190.562470 -0.813104 -0.190232
H 189.045516 -4.677141 -3.382019
H 189.023736 -7.151764 -3.746148
H 189.973368 -7.883653 0.198696
H 190.034372 -5.440409 0.728115
H 186.932743 -4.391782 -0.887918
H 185.189860 -2.604884 -0.333098
H 185.480600 2.855319 -0.351621
H 187.442068 4.653532 0.146545
H 189.044753 0.776289 0.501267
H 189.375343 4.273476 3.417524
H 189.417679 6.625560 4.262661
H 190.788045 8.053771 0.646051
H 190.801797 5.760351 -0.351749
H 192.739120 4.185925 1.562445
H 194.458830 2.320993 1.032440
C 97.321491 0.012039 0.001695
C 96.069220 -0.007142 -0.002653
C 98.635159 0.011273 0.003628
C 100.138293 -0.007142 -0.002653
C 111.255301 0.012039 0.001695
C 110.003030 -0.007142 -0.002653
C 112.568969 0.011273 0.003628
C 114.072102 -0.007142 -0.002653
C 125.189110 0.012039 0.001695
C 123.936840 -0.007142 -0.002653
C 126.502779 0.011273 0.003628
C 128.005912 -0.007142 -0.002653
C 139.122920 0.012039 0.001695
C 137.870650 -0.007142 -0.002653
C 140.436589 0.011273 0.003628
C 141.939722 -0.007142 -0.002653
C 153.056730 0.012039 0.001695
C 151.804460 -0.007142 -0.002653
C 154.370398 0.011273 0.003628
C 155.873532 -0.007142 -0.002653
C 166.990540 0.012039 0.001695
C 165.738270 -0.007142 -0.002653
C 168.304208 0.011273 0.003628
C 169.807342 -0.007142 -0.002653
C 180.924350 0.012039 0.001695
C 179.672080 -0.007142 -0.002653
C 182.238018 0.011273 0.003628
C 183.741152 -0.007142 -0.002653
C 101.449810 0.000963 0.000542
C 102.245591 -1.244535 0.571654
C 101.745196 -2.239894 1.384173
C 102.783397 -3.185737 1.584918
C 103.886881 -2.735034 0.891340
N 103.571655 -1.517469 0.344028
C 105.275452 -3.480536 0.745354
C 105.268097 -4.957211 0.823455
C 105.685748 -5.608099 1.983601
C 105.644454 -6.991498 2.009531
N 105.219941 -7.759781 0.978931
C 104.820559 -7.094867 -0.130990
C 104.823885 -5.716052 -0.256888
C 106.411038 -2.771241 0.516126
C 107.698054 -3.407327 0.322228
C 108.606638 -2.459491 0.118243
N 106.619254 -1.425137 0.404447
C 107.944405 -1.172129 0.171108
C 108.608117 0.000963 0.000542
C 107.810997 1.367442 0.069554
C 108.303998 2.590813 0.473147
C 107.266161 3.542838 0.303575
C 106.170088 2.868530 -0.191239
N 106.488494 1.535491 -0.257885
C 104.784905 3.505511 -0.611334
C 104.796666 4.899065 -1.104624
C 104.400733 5.948308 -0.277416
C 104.443681 7.234790 -0.785877
N 104.849652 7.544839 -2.038982
C 105.228535 6.501700 -2.814340
C 105.222470 5.180835 -2.400684
C 103.648227 2.763943 -0.555893
C 102.362061 3.282498 -0.973998
C 101.452796 2.328201 -0.807806
C 102.113922 1.153251 -0.277079
N 103.438522 1.474935 -0.152969
H 100.741790 -2.292154 1.773991
H 102.726097 -4.099275 2.154372
H 104.230548 -0.892573 -0.113405
H 106.035516 -5.035540 2.836272
H 105.962001 -7.534467 2.892952
H 104.483287 -7.721153 -0.950795
H 104.492860 -5.230941 -1.168320
H 107.895241 -4.464576 0.329589
H 109.651644 -2.637759 -0.058122
H 109.303685 2.782849 0.830789
H 107.318916 4.602426 0.503088
H 105.834479 0.786402 -0.465073
H 104.065928 5.749824 0.734847
H 104.141595 8.078531 -0.174412
H 105.550603 6.762055 -3.816803
H 105.536672 4.379786 -3.060840
H 102.165820 4.266324 -1.361695
H 100.407710 2.428959 -1.037065
C 115.383620 0.000963 0.000542
C 116.179400 -1.244535 0.571654
C 115.679006 -2.239894 1.384173
C 116.717207 -3.185737 1.584918
C 117.820691 -2.735034 0.891340
N 117.505465 -1.517469 0.344028
C 119.209262 -3.480536 0.745354
C 119.201906 -4.957211 0.823455
C 119.619558 -5.608099 1.983601
C 119.578264 -6.991498 2.009531
N 119.153751 -7.759781 0.978931
C 118.754369 -7.094867 -0.130990
C 118.757695 -5.716052 -0.256888
C 120.344848 -2.771241 0.516126
C 121.631863 -3.407327 0.322228
C 122.540447 -2.459491 0.118243
N 120.553064 -1.425137 0.404447
C 121.878214 -1.172129 0.171108
C 122.541927 0.000963 0.000542
C 121.744807 1.367442 0.069554
C 122.237808 2.590813 0.473147
C 121.199971 3.542838 0.303575
C 120.103898 2.868530 -0.191239
N 120.422304 1.535491 -0.257885
C 118.718715 3.505511 -0.611334
C 118.730476 4.899065 -1.104624
C 118.334543 5.948308 -0.277416
C 118.377491 7.234790 -0.785877
N 118.783462 7.544839 -2.038982
C 119.162345 6.501700 -2.814340
C 119.156280 5.180835 -2.400684
C 117.582037 2.763943 -0.555893
C 116.295871 3.282498 -0.973998
C 115.386605 2.328201 -0.807806
C 116.047732 1.153251 -0.277079
N 117.372332 1.474935 -0.152969
H 114.675600 -2.292154 1.773991
H 116.659907 -4.099275 2.154372
H 118.164358 -0.892573 -0.113405
H 119.969326 -5.035540 2.836272
H 119.895810 -7.534467 2.892952
H 118.417097 -7.721153 -0.950795
H 118.426670 -5.230941 -1.168320
H 121.829051 -4.464576 0.329589
H 123.585453 -2.637759 -0.058122
H 123.237495 2.782849 0.830789
H 121.252726 4.602426 0.503088
H 119.768289 0.786402 -0.465073
H 117.999738 5.749824 0.734847
H 118.075405 8.078531 -0.174412
H 119.484412 6.762055 -3.816803
H 119.470482 4.379786 -3.060840
H 116.099630 4.266324 -1.361695
H 114.341520 2.428959 -1.037065
C 129.317430 0.000963 0.000542
C 130.113210 -1.244535 0.571654
C 129.612816 -2.239894 1.384173
C 130.651017 -3.185737 1.584918
C 131.754501 -2.735034 0.891340
N 131.439275 -1.517469 0.344028
C 133.143072 -3.480536 0.745354
C 133.135716 -4.957211 0.823455
C 133.553368 -5.608099 1.983601
C 133.512074 -6.991498 2.009531
N 133.087561 -7.759781 0.978931
C 132.688179 -7.094867 -0.130990
C 132.691505 -5.716052 -0.256888
C 134.278657 -2.771241 0.516126
C 135.565673 -3.407327 0.322228
C 136.474257 -2.459491 0.118243
N 134.486874 -1.425137 0.404447
C 135.812024 -1.172129 0.171108
C 136.475737 0.000963 0.000542
C 135.678617 1.367442 0.069554
C 136.171618 2.590813 0.473147
C 135.133780 3.542838 0.303575
C 134.037708 2.868530 -0.191239
N 134.356114 1.535491 -0.257885
C 132.652525 3.505511 -0.611334
C 132.664286 4.899065 -1.104624
C 132.268352 5.948308 -0.277416
C 132.311301 7.234790 -0.785877
N 132.717272 7.544839 -2.038982
C 133.096155 6.501700 -2.814340
C 133.090090 5.180835 -2.400684
C 131.515847 2.763943 -0.555893
C 130.229681 3.282498 -0.973998
C 129.320415 2.328201 -0.807806
C 129.981542 1.153251 -0.277079
N 131.306142 1.474935 -0.152969
H 128.609410 -2.292154 1.773991
H 130.593717 -4.099275 2.154372
H 132.098168 -0.892573 -0.113405
H 133.903136 -5.035540 2.836272
H 133.829620 -7.534467 2.892952
H 132.350907 -7.721153 -0.950795
H 132.360479 -5.230941 -1.168320
H 135.762861 -4.464576 0.329589
H 137.519263 -2.637759 -0.058122
H 137.171305 2.782849 0.830789
H 135.186536 4.602426 0.503088
H 133.702099 0.786402 -0.465073
H 131.933548 5.749824 0.734847
H 132.009215 8.078531 -0.174412
H 133.418222 6.762055 -3.816803
H 133.404292 4.379786 -3.060840
H 130.033440 4.266324 -1.361695
H 128.275329 2.428959 -1.037065
C 143.251240 0.000963 0.000542
C 144.047020 -1.244535 0.571654
C 143.546626 -2.239894 1.384173
C 144.584827 -3.185737 1.584918
C 145.688311 -2.735034 0.891340
N 145.373085 -1.517469 0.344028
C 147.076882 -3.480536 0.745354
C 147.069526 -4.957211 0.823455
C 147.487178 -5.608099 1.983601
C 147.445884 -6.991498 2.009531
N 147.021371 -7.759781 0.978931
C 146.621989 -7.094867 -0.130990
C 146.625315 -5.716052 -0.256888
C 148.212467 -2.771241 0.516126
C 149.499483 -3.407327 0.322228
C 150.408067 -2.459491 0.118243
N 148.420684 -1.425137 0.404447
C 149.745834 -1.172129 0.171108
C 150.409547 0.000963 0.000542
C 149.612427 1.367442 0.069554
C 150.105428 2.590813 0.473147
C 149.067590 3.542838 0.303575
C 147.971518 2.868530 -0.191239
N 148.289924 1.535491 -0.257885
C 146.586335 3.505511 -0.611334
C 146.598096 4.899065 -1.104624
C 146.202162 5.948308 -0.277416
C 146.245111 7.234790 -0.785877
N 146.651081 7.544839 -2.038982
C 147.029965 6.501700 -2.814340
C 147.023900 5.180835 -2.400684
C 145.449656 2.763943 -0.555893
C 144.163491 3.282498 -0.973998
C 143.254225 2.328201 -0.807806
C 143.915352 1.153251 -0.277079
N 145.239952 1.474935 -0.152969
H 142.543220 -2.292154 1.773991
H 144.527527 -4.099275 2.154372
H 146.031978 -0.892573 -0.113405
H 147.836946 -5.035540 2.836272
H 147.763430 -7.534467 2.892952
H 146.284716 -7.721153 -0.950795
H 146.294289 -5.230941 -1.168320
H 149.696671 -4.464576 0.329589
H 151.453073 -2.637759 -0.058122
H 151.105115 2.782849 0.830789
H 149.120346 4.602426 0.503088
H 147.635909 0.786402 -0.465073
H 145.867358 5.749824 0.734847
H 145.943025 8.078531 -0.174412
H 147.352032 6.762055 -3.816803
H 147.338102 4.379786 -3.060840
H 143.967250 4.266324 -1.361695
H 142.209139 2.428959 -1.037065
C 157.185049 0.000963 0.000542
C 157.980830 -1.244535 0.571654
C 157.480436 -2.239894 1.384173
C 158.518637 -3.185737 1.584918
C 159.622121 -2.735034 0.891340
N 159.306895 -1.517469 0.344028
C 161.010692 -3.480536 0.745354
C 161.003336 -4.957211 0.823455
C 161.420988 -5.608099 1.983601
C 161.379694 -6.991498 2.009531
N 160.955181 -7.759781 0.978931
C 160.555799 -7.094867 -0.130990
C 160.559125 -5.716052 -0.256888
C 162.146277 -2.771241 0.516126
C 163.433293 -3.407327 0.322228
C 164.341877 -2.459491 0.118243
N 162.354494 -1.425137 0.404447
C 163.679644 -1.172129 0.171108
C 164.343357 0.000963 0.000542
C 163.546237 1.367442 0.069554
C 164.039238 2.590813 0.473147
C 163.001400 3.542838 0.303575
C 161.905328 2.868530 -0.191239
N 162.223733 1.535491 -0.257885
C 160.520145 3.505511 -0.611334
C 160.531906 4.899065 -1.104624
C 160.135972 5.948308 -0.277416
C 160.178921 7.234790 -0.785877
N 160.584891 7.544839 -2.038982
C 160.963775 6.501700 -2.814340
C 160.957709 5.180835 -2.400684
C 159.383466 2.763943 -0.555893
C 158.097301 3.282498 -0.973998
C 157.188035 2.328201 -0.807806
C 157.849161 1.153251 -0.277079
N 159.173762 1.474935 -0.152969
H 156.477030 -2.292154 1.773991
H 158.461337 -4.099275 2.154372
H 159.965787 -0.892573 -0.113405
H 161.770756 -5.035540 2.836272
H 161.697240 -7.534467 2.892952
H 160.218526 -7.721153 -0.950795
H 160.228099 -5.230941 -1.168320
H 163.630481 -4.464576 0.329589
H 165.386883 -2.637759 -0.058122
H 165.038925 2.782849 0.830789
H 163.054155 4.602426 0.503088
H 161.569719 0.786402 -0.465073
H 159.801168 5.749824 0.734847
H 159.876835 8.078531 -0.174412
H 161.285842 6.762055 -3.816803
H 161.271912 4.379786 -3.060840
H 157.901059 4.266324 -1.361695
H 156.142949 2.428959 -1.037065
C 171.118859 0.000963 0.000542
C 171.914640 -1.244535 0.571654
C 171.414245 -2.239894 1.384173
C 172.452447 -3.185737 1.584918
C 173.555931 -2.735034 0.891340
N 173.240705 -1.517469 0.344028
C 174.944502 -3.480536 0.745354
C 174.937146 -4.957211 0.823455
C 175.354798 -5.608099 1.983601
C 175.313504 -6.991498 2.009531
N 174.888991 -7.759781 0.978931
C 174.489609 -7.094867 -0.130990
C 174.492934 -5.716052 -0.256888
C 176.080087 -2.771241 0.516126
C 177.367103 -3.407327 0.322228
C 178.275687 -2.459491 0.118243
N 176.288304 -1.425137 0.404447
C 177.613454 -1.172129 0.171108
C 178.277167 0.000963 0.000542
C 177.480047 1.367442 0.069554
C 177.973048 2.590813 0.473147
C 176.935210 3.542838 0.303575
C 175.839138 2.868530 -0.191239
N 176.157543 1.535491 -0.257885
C 174.453955 3.505511 -0.611334
C 174.465716 4.899065 -1.104624
C 174.069782 5.948308 -0.277416
C 174.112731 7.234790 -0.785877
N 174.518701 7.544839 -2.038982
C 174.897585 6.501700 -2.814340
C 174.891519 5.180835 -2.400684
C 173.317276 2.763943 -0.555893
C 172.031111 3.282498 -0.973998
C 171.121845 2.328201 -0.807806
C 171.782971 1.153251 -0.277079
N 173.107572 1.474935 -0.152969
H 170.410840 -2.292154 1.773991
H 172.395147 -4.099275 2.154372
H 173.899597 -0.892573 -0.113405
H 175.704566 -5.035540 2.836272
H 175.631050 -7.534467 2.892952
H 174.152336 -7.721153 -0.950795
H 174.161909 -5.230941 -1.168320
H 177.564291 -4.464576 0.329589
H 179.320693 -2.637759 -0.058122
H 178.972734 2.782849 0.830789
H 176.987965 4.602426 0.503088
H 175.503529 0.786402 -0.465073
H 173.734978 5.749824 0.734847
H 173.810645 8.078531 -0.174412
H 175.219652 6.762055 -3.816803
H 175.205722 4.379786 -3.060840
H 171.834869 4.266324 -1.361695
H 170.076759 2.428959 -1.037065
