 xtb: 6.5.1 (b24c23e)
          07302205553D

120139  0     0  0            999 V2000
   11.4896   -0.0365   -0.0154 Ni  0  0  0  0  0  0  0  0  0  0  0  0
    8.0949   -0.0569   -0.0422 C   0  0  0  0  0  0  0  0  0  0  0  0
    8.7504   -1.2591   -0.2064 C   0  0  0  0  0  0  0  0  0  0  0  0
    8.0729   -2.5087   -0.3720 C   0  0  0  0  0  0  0  0  0  0  0  0
    9.0286   -3.4663   -0.4062 C   0  0  0  0  0  0  0  0  0  0  0  0
   10.2904   -2.7993   -0.2717 C   0  0  0  0  0  0  0  0  0  0  0  0
   10.1098   -1.4428   -0.1624 N   0  0  0  0  0  0  0  0  0  0  0  0
   11.5073   -3.4620   -0.1835 C   0  0  0  0  0  0  0  0  0  0  0  0
   12.7169   -2.7974   -0.0401 C   0  0  0  0  0  0  0  0  0  0  0  0
   13.9831   -3.4627    0.0186 C   0  0  0  0  0  0  0  0  0  0  0  0
   14.9313   -2.4967    0.0608 C   0  0  0  0  0  0  0  0  0  0  0  0
   12.8895   -1.4311   -0.0248 N   0  0  0  0  0  0  0  0  0  0  0  0
   14.2435   -1.2456    0.0220 C   0  0  0  0  0  0  0  0  0  0  0  0
   14.9046   -0.0150   -0.0252 C   0  0  0  0  0  0  0  0  0  0  0  0
   14.2258    1.2063   -0.0615 C   0  0  0  0  0  0  0  0  0  0  0  0
   14.8944    2.4657   -0.1387 C   0  0  0  0  0  0  0  0  0  0  0  0
   13.9343    3.4194   -0.0800 C   0  0  0  0  0  0  0  0  0  0  0  0
   12.6814    2.7381    0.0428 C   0  0  0  0  0  0  0  0  0  0  0  0
   11.4636    3.3884    0.1900 C   0  0  0  0  0  0  0  0  0  0  0  0
   11.4543    4.8686    0.2802 C   0  0  0  0  0  0  0  0  0  0  0  0
   10.7929    5.6312   -0.6834 C   0  0  0  0  0  0  0  0  0  0  0  0
   10.7870    7.0154   -0.5989 C   0  0  0  0  0  0  0  0  0  0  0  0
   11.4370    7.6537    0.4485 C   0  0  0  0  0  0  0  0  0  0  0  0
   12.0958    6.9019    1.4118 C   0  0  0  0  0  0  0  0  0  0  0  0
   12.1073    5.5176    1.3288 C   0  0  0  0  0  0  0  0  0  0  0  0
   10.2534    2.7092    0.2491 C   0  0  0  0  0  0  0  0  0  0  0  0
    8.9850    3.3522    0.4312 C   0  0  0  0  0  0  0  0  0  0  0  0
    8.0405    2.3858    0.3531 C   0  0  0  0  0  0  0  0  0  0  0  0
    8.7330    1.1522    0.1395 C   0  0  0  0  0  0  0  0  0  0  0  0
   10.0902    1.3540    0.1051 N   0  0  0  0  0  0  0  0  0  0  0  0
   12.8709    1.3742    0.0201 N   0  0  0  0  0  0  0  0  0  0  0  0
   11.5159   -4.9453   -0.2482 C   0  0  0  0  0  0  0  0  0  0  0  0
   11.1496   -5.6030   -1.4224 C   0  0  0  0  0  0  0  0  0  0  0  0
   11.1622   -6.9887   -1.4812 C   0  0  0  0  0  0  0  0  0  0  0  0
   11.5352   -7.7313   -0.3692 C   0  0  0  0  0  0  0  0  0  0  0  0
   11.8984   -7.0829    0.8033 C   0  0  0  0  0  0  0  0  0  0  0  0
   11.8918   -5.6974    0.8648 C   0  0  0  0  0  0  0  0  0  0  0  0
    7.0111   -0.0642   -0.0462 H   0  0  0  0  0  0  0  0  0  0  0  0
    7.0022   -2.6193   -0.4380 H   0  0  0  0  0  0  0  0  0  0  0  0
    8.9033   -4.5327   -0.5008 H   0  0  0  0  0  0  0  0  0  0  0  0
   14.1190   -4.5318    0.0122 H   0  0  0  0  0  0  0  0  0  0  0  0
   16.0030   -2.6055    0.1034 H   0  0  0  0  0  0  0  0  0  0  0  0
   15.9618    2.5878   -0.2277 H   0  0  0  0  0  0  0  0  0  0  0  0
   14.0533    4.4897   -0.1226 H   0  0  0  0  0  0  0  0  0  0  0  0
   10.2961    5.1346   -1.5094 H   0  0  0  0  0  0  0  0  0  0  0  0
   10.2733    7.5981   -1.3555 H   0  0  0  0  0  0  0  0  0  0  0  0
   11.4303    8.7359    0.5139 H   0  0  0  0  0  0  0  0  0  0  0  0
   12.6032    7.3957    2.2331 H   0  0  0  0  0  0  0  0  0  0  0  0
   12.6120    4.9314    2.0886 H   0  0  0  0  0  0  0  0  0  0  0  0
    8.8480    4.4078    0.6007 H   0  0  0  0  0  0  0  0  0  0  0  0
    6.9692    2.4794    0.4340 H   0  0  0  0  0  0  0  0  0  0  0  0
   10.8684   -5.0234   -2.2946 H   0  0  0  0  0  0  0  0  0  0  0  0
   10.8806   -7.4907   -2.4002 H   0  0  0  0  0  0  0  0  0  0  0  0
   11.5431   -8.8144   -0.4164 H   0  0  0  0  0  0  0  0  0  0  0  0
   12.1882   -7.6587    1.6753 H   0  0  0  0  0  0  0  0  0  0  0  0
   12.1665   -5.1916    1.7837 H   0  0  0  0  0  0  0  0  0  0  0  0
   30.0626    0.0339   -0.0143 Ni  0  0  0  0  0  0  0  0  0  0  0  0
   33.4576    0.0559   -0.0377 C   0  0  0  0  0  0  0  0  0  0  0  0
   32.8021    1.2644   -0.1473 C   0  0  0  0  0  0  0  0  0  0  0  0
   33.4797    2.5202   -0.2547 C   0  0  0  0  0  0  0  0  0  0  0  0
   32.5239    3.4783   -0.2477 C   0  0  0  0  0  0  0  0  0  0  0  0
   31.2619    2.8057   -0.1463 C   0  0  0  0  0  0  0  0  0  0  0  0
   31.4426    1.4457   -0.0974 N   0  0  0  0  0  0  0  0  0  0  0  0
   30.0446    3.4636   -0.0329 C   0  0  0  0  0  0  0  0  0  0  0  0
   28.8348    2.7931    0.0781 C   0  0  0  0  0  0  0  0  0  0  0  0
   27.5683    3.4551    0.1619 C   0  0  0  0  0  0  0  0  0  0  0  0
   26.6203    2.4880    0.1616 C   0  0  0  0  0  0  0  0  0  0  0  0
   28.6625    1.4273    0.0351 N   0  0  0  0  0  0  0  0  0  0  0  0
   27.3085    1.2397    0.0718 C   0  0  0  0  0  0  0  0  0  0  0  0
   26.6475    0.0121   -0.0267 C   0  0  0  0  0  0  0  0  0  0  0  0
   27.3262   -1.2066   -0.1137 C   0  0  0  0  0  0  0  0  0  0  0  0
   26.6577   -2.4618   -0.2434 C   0  0  0  0  0  0  0  0  0  0  0  0
   27.6180   -3.4169   -0.2257 C   0  0  0  0  0  0  0  0  0  0  0  0
   28.8710   -2.7412   -0.0756 C   0  0  0  0  0  0  0  0  0  0  0  0
   30.0890   -3.3968    0.0417 C   0  0  0  0  0  0  0  0  0  0  0  0
   30.0992   -4.8796    0.0675 C   0  0  0  0  0  0  0  0  0  0  0  0
   30.7578   -5.5991   -0.9305 C   0  0  0  0  0  0  0  0  0  0  0  0
   30.7659   -6.9856   -0.9055 C   0  0  0  0  0  0  0  0  0  0  0  0
   30.1211   -7.6693    0.1162 C   0  0  0  0  0  0  0  0  0  0  0  0
   29.4648   -6.9604    1.1132 C   0  0  0  0  0  0  0  0  0  0  0  0
   29.4510   -5.5739    1.0897 C   0  0  0  0  0  0  0  0  0  0  0  0
   31.2993   -2.7207    0.1289 C   0  0  0  0  0  0  0  0  0  0  0  0
   32.5678   -3.3712    0.2809 C   0  0  0  0  0  0  0  0  0  0  0  0
   33.5121   -2.4021    0.2457 C   0  0  0  0  0  0  0  0  0  0  0  0
   32.8194   -1.1602    0.0883 C   0  0  0  0  0  0  0  0  0  0  0  0
   31.4623   -1.3604    0.0453 N   0  0  0  0  0  0  0  0  0  0  0  0
   28.6812   -1.3776   -0.0401 N   0  0  0  0  0  0  0  0  0  0  0  0
   30.0354    4.9483   -0.0333 C   0  0  0  0  0  0  0  0  0  0  0  0
   30.4063    5.6562   -1.1766 C   0  0  0  0  0  0  0  0  0  0  0  0
   30.3930    7.0431   -1.1757 C   0  0  0  0  0  0  0  0  0  0  0  0
   30.0147    7.7369   -0.0344 C   0  0  0  0  0  0  0  0  0  0  0  0
   29.6470    7.0385    1.1076 C   0  0  0  0  0  0  0  0  0  0  0  0
   29.6543    5.6515    1.1094 C   0  0  0  0  0  0  0  0  0  0  0  0
   34.5414    0.0634   -0.0406 H   0  0  0  0  0  0  0  0  0  0  0  0
   34.5505    2.6338   -0.3136 H   0  0  0  0  0  0  0  0  0  0  0  0
   32.6491    4.5479   -0.2937 H   0  0  0  0  0  0  0  0  0  0  0  0
   27.4320    4.5235    0.2000 H   0  0  0  0  0  0  0  0  0  0  0  0
   25.5485    2.5948    0.2065 H   0  0  0  0  0  0  0  0  0  0  0  0
   25.5903   -2.5801   -0.3366 H   0  0  0  0  0  0  0  0  0  0  0  0
   27.4992   -4.4845   -0.3131 H   0  0  0  0  0  0  0  0  0  0  0  0
   31.2509   -5.0667   -1.7362 H   0  0  0  0  0  0  0  0  0  0  0  0
   31.2775   -7.5346   -1.6883 H   0  0  0  0  0  0  0  0  0  0  0  0
   30.1298   -8.7532    0.1353 H   0  0  0  0  0  0  0  0  0  0  0  0
   28.9614   -7.4898    1.9146 H   0  0  0  0  0  0  0  0  0  0  0  0
   28.9483   -5.0215    1.8758 H   0  0  0  0  0  0  0  0  0  0  0  0
   32.7049   -4.4333    0.4027 H   0  0  0  0  0  0  0  0  0  0  0  0
   34.5835   -2.4991    0.3216 H   0  0  0  0  0  0  0  0  0  0  0  0
   30.6915    5.1148   -2.0717 H   0  0  0  0  0  0  0  0  0  0  0  0
   30.6781    7.5843   -2.0710 H   0  0  0  0  0  0  0  0  0  0  0  0
   30.0062    8.8210   -0.0350 H   0  0  0  0  0  0  0  0  0  0  0  0
   29.3530    7.5761    2.0023 H   0  0  0  0  0  0  0  0  0  0  0  0
   29.3760    5.1065    2.0045 H   0  0  0  0  0  0  0  0  0  0  0  0
   16.3092   -0.0062   -0.0363 C   0  0  0  0  0  0  0  0  0  0  0  0
   17.5334   -0.0020   -0.0405 C   0  0  0  0  0  0  0  0  0  0  0  0
   18.8765    0.0009   -0.0455 C   0  0  0  0  0  0  0  0  0  0  0  0
   20.1069    0.0020   -0.0486 C   0  0  0  0  0  0  0  0  0  0  0  0
   21.4452    0.0004   -0.0508 C   0  0  0  0  0  0  0  0  0  0  0  0
   22.6756   -0.0038   -0.0460 C   0  0  0  0  0  0  0  0  0  0  0  0
   24.0187    0.0022   -0.0454 C   0  0  0  0  0  0  0  0  0  0  0  0
   25.2428    0.0042   -0.0377 C   0  0  0  0  0  0  0  0  0  0  0  0
  2  3  4  0  0  0  0
  3  4  4  0  0  0  0
  4  5  2  0  0  0  0
  5  6  4  0  0  0  0
  1  7  1  0  0  0  0
  3  7  4  0  0  0  0
  6  7  4  0  0  0  0
  6  8  4  0  0  0  0
  8  9  4  0  0  0  0
  9 10  4  0  0  0  0
 10 11  2  0  0  0  0
  1 12  1  0  0  0  0
  9 12  4  0  0  0  0
 11 13  4  0  0  0  0
 12 13  4  0  0  0  0
 13 14  4  0  0  0  0
 14 15  4  0  0  0  0
 15 16  4  0  0  0  0
 16 17  2  0  0  0  0
 17 18  4  0  0  0  0
 18 19  4  0  0  0  0
 19 20  1  0  0  0  0
 20 21  4  0  0  0  0
 21 22  4  0  0  0  0
 22 23  4  0  0  0  0
 23 24  4  0  0  0  0
 20 25  4  0  0  0  0
 24 25  4  0  0  0  0
 19 26  4  0  0  0  0
 26 27  4  0  0  0  0
 27 28  2  0  0  0  0
  2 29  4  0  0  0  0
 28 29  4  0  0  0  0
  1 30  1  0  0  0  0
 26 30  4  0  0  0  0
 29 30  4  0  0  0  0
  1 31  1  0  0  0  0
 15 31  4  0  0  0  0
 18 31  4  0  0  0  0
  8 32  1  0  0  0  0
 32 33  4  0  0  0  0
 33 34  4  0  0  0  0
 34 35  4  0  0  0  0
 35 36  4  0  0  0  0
 32 37  4  0  0  0  0
 36 37  4  0  0  0  0
  2 38  1  0  0  0  0
  4 39  1  0  0  0  0
  5 40  1  0  0  0  0
 10 41  1  0  0  0  0
 11 42  1  0  0  0  0
 16 43  1  0  0  0  0
 17 44  1  0  0  0  0
 21 45  1  0  0  0  0
 22 46  1  0  0  0  0
 23 47  1  0  0  0  0
 24 48  1  0  0  0  0
 25 49  1  0  0  0  0
 27 50  1  0  0  0  0
 28 51  1  0  0  0  0
 33 52  1  0  0  0  0
 34 53  1  0  0  0  0
 35 54  1  0  0  0  0
 36 55  1  0  0  0  0
 37 56  1  0  0  0  0
 58 59  4  0  0  0  0
 59 60  4  0  0  0  0
 60 61  2  0  0  0  0
 61 62  4  0  0  0  0
 57 63  1  0  0  0  0
 59 63  4  0  0  0  0
 62 63  4  0  0  0  0
 62 64  4  0  0  0  0
 64 65  4  0  0  0  0
 65 66  4  0  0  0  0
 66 67  2  0  0  0  0
 57 68  1  0  0  0  0
 65 68  4  0  0  0  0
 67 69  4  0  0  0  0
 68 69  4  0  0  0  0
 69 70  4  0  0  0  0
 70 71  4  0  0  0  0
 71 72  4  0  0  0  0
 72 73  2  0  0  0  0
 73 74  4  0  0  0  0
 74 75  4  0  0  0  0
 75 76  1  0  0  0  0
 76 77  4  0  0  0  0
 77 78  4  0  0  0  0
 78 79  4  0  0  0  0
 79 80  4  0  0  0  0
 76 81  4  0  0  0  0
 80 81  4  0  0  0  0
 75 82  4  0  0  0  0
 82 83  4  0  0  0  0
 83 84  2  0  0  0  0
 58 85  4  0  0  0  0
 84 85  4  0  0  0  0
 57 86  1  0  0  0  0
 82 86  4  0  0  0  0
 85 86  4  0  0  0  0
 57 87  1  0  0  0  0
 71 87  4  0  0  0  0
 74 87  4  0  0  0  0
 64 88  1  0  0  0  0
 88 89  4  0  0  0  0
 89 90  4  0  0  0  0
 90 91  4  0  0  0  0
 91 92  4  0  0  0  0
 88 93  4  0  0  0  0
 92 93  4  0  0  0  0
 58 94  1  0  0  0  0
 60 95  1  0  0  0  0
 61 96  1  0  0  0  0
 66 97  1  0  0  0  0
 67 98  1  0  0  0  0
 72 99  1  0  0  0  0
 73100  1  0  0  0  0
 77101  1  0  0  0  0
 78102  1  0  0  0  0
 79103  1  0  0  0  0
 80104  1  0  0  0  0
 81105  1  0  0  0  0
 83106  1  0  0  0  0
 84107  1  0  0  0  0
 89108  1  0  0  0  0
 90109  1  0  0  0  0
 91110  1  0  0  0  0
 92111  1  0  0  0  0
 93112  1  0  0  0  0
 14113  4  0  0  0  0
113114  3  0  0  0  0
114115  4  0  0  0  0
115116  3  0  0  0  0
116117  4  0  0  0  0
117118  3  0  0  0  0
118119  4  0  0  0  0
 70120  4  0  0  0  0
119120  3  0  0  0  0
M  END
