 xtb: 6.5.1 (b24c23e)
          07302210443D

318357  0     0  0            999 V2000
   41.7265    0.0007   -0.0193 Zn  0  0  0  0  0  0  0  0  0  0  0  0
   38.3095    0.0872   -0.0458 C   0  0  0  0  0  0  0  0  0  0  0  0
   38.9559    1.2216    0.4322 C   0  0  0  0  0  0  0  0  0  0  0  0
   38.3031    2.4090    0.9109 C   0  0  0  0  0  0  0  0  0  0  0  0
   39.2779    3.2755    1.2854 C   0  0  0  0  0  0  0  0  0  0  0  0
   40.5382    2.6274    1.0381 C   0  0  0  0  0  0  0  0  0  0  0  0
   40.3082    1.3855    0.5224 N   0  0  0  0  0  0  0  0  0  0  0  0
   41.7953    3.1853    1.2868 C   0  0  0  0  0  0  0  0  0  0  0  0
   41.8294    4.5646    1.8565 C   0  0  0  0  0  0  0  0  0  0  0  0
   41.8210    5.6728    1.0047 C   0  0  0  0  0  0  0  0  0  0  0  0
   41.7694    5.4723   -0.4866 C   0  0  0  0  0  0  0  0  0  0  0  0
   41.8624    6.9522    1.5464 C   0  0  0  0  0  0  0  0  0  0  0  0
   41.9111    7.1438    2.9235 C   0  0  0  0  0  0  0  0  0  0  0  0
   41.9815    8.5337    3.4964 C   0  0  0  0  0  0  0  0  0  0  0  0
   41.9172    6.0341    3.7621 C   0  0  0  0  0  0  0  0  0  0  0  0
   41.8765    4.7458    3.2416 C   0  0  0  0  0  0  0  0  0  0  0  0
   41.8854    3.5489    4.1550 C   0  0  0  0  0  0  0  0  0  0  0  0
   43.0255    2.5687    1.0510 C   0  0  0  0  0  0  0  0  0  0  0  0
   44.3085    3.1623    1.3075 C   0  0  0  0  0  0  0  0  0  0  0  0
   45.2485    2.2507    0.9486 C   0  0  0  0  0  0  0  0  0  0  0  0
   43.2098    1.3109    0.5414 N   0  0  0  0  0  0  0  0  0  0  0  0
   44.5496    1.0932    0.4698 C   0  0  0  0  0  0  0  0  0  0  0  0
   45.1688   -0.0830   -0.0006 C   0  0  0  0  0  0  0  0  0  0  0  0
   44.4986   -1.2290   -0.4752 C   0  0  0  0  0  0  0  0  0  0  0  0
   45.1456   -2.4205   -0.9436 C   0  0  0  0  0  0  0  0  0  0  0  0
   44.1663   -3.2865   -1.3101 C   0  0  0  0  0  0  0  0  0  0  0  0
   42.9109   -2.6304   -1.0697 C   0  0  0  0  0  0  0  0  0  0  0  0
   43.1506   -1.3818   -0.5605 N   0  0  0  0  0  0  0  0  0  0  0  0
   41.6547   -3.1858   -1.3203 C   0  0  0  0  0  0  0  0  0  0  0  0
   41.6262   -4.5668   -1.8861 C   0  0  0  0  0  0  0  0  0  0  0  0
   41.6977   -4.7550   -3.2699 C   0  0  0  0  0  0  0  0  0  0  0  0
   41.7944   -3.5631   -4.1848 C   0  0  0  0  0  0  0  0  0  0  0  0
   41.6808   -6.0445   -3.7861 C   0  0  0  0  0  0  0  0  0  0  0  0
   41.5944   -7.1505   -2.9449 C   0  0  0  0  0  0  0  0  0  0  0  0
   41.5760   -8.5383   -3.5270 C   0  0  0  0  0  0  0  0  0  0  0  0
   41.5198   -6.9520   -1.5712 C   0  0  0  0  0  0  0  0  0  0  0  0
   41.5349   -5.6695   -1.0332 C   0  0  0  0  0  0  0  0  0  0  0  0
   41.4570   -5.4622    0.4561 C   0  0  0  0  0  0  0  0  0  0  0  0
   40.4236   -2.5646   -1.0911 C   0  0  0  0  0  0  0  0  0  0  0  0
   39.1362   -3.1485   -1.3580 C   0  0  0  0  0  0  0  0  0  0  0  0
   38.2007   -2.2328   -1.0008 C   0  0  0  0  0  0  0  0  0  0  0  0
   38.9051   -1.0791   -0.5128 C   0  0  0  0  0  0  0  0  0  0  0  0
   40.2487   -1.3116   -0.5809 N   0  0  0  0  0  0  0  0  0  0  0  0
   37.2242    0.1149   -0.0548 H   0  0  0  0  0  0  0  0  0  0  0  0
   37.2342    2.5496    0.9509 H   0  0  0  0  0  0  0  0  0  0  0  0
   39.1656    4.2671    1.6948 H   0  0  0  0  0  0  0  0  0  0  0  0
   40.8521    4.9505   -0.7666 H   0  0  0  0  0  0  0  0  0  0  0  0
   42.6132    4.8633   -0.8164 H   0  0  0  0  0  0  0  0  0  0  0  0
   41.8011    6.4275   -1.0098 H   0  0  0  0  0  0  0  0  0  0  0  0
   41.8569    7.8123    0.8847 H   0  0  0  0  0  0  0  0  0  0  0  0
   41.5524    8.5640    4.4982 H   0  0  0  0  0  0  0  0  0  0  0  0
   43.0236    8.8552    3.5632 H   0  0  0  0  0  0  0  0  0  0  0  0
   41.4487    9.2428    2.8622 H   0  0  0  0  0  0  0  0  0  0  0  0
   41.9539    6.1740    4.8376 H   0  0  0  0  0  0  0  0  0  0  0  0
   42.7734    2.9406    3.9719 H   0  0  0  0  0  0  0  0  0  0  0  0
   41.8826    3.8561    5.2004 H   0  0  0  0  0  0  0  0  0  0  0  0
   41.0095    2.9241    3.9702 H   0  0  0  0  0  0  0  0  0  0  0  0
   44.4616    4.1514    1.7089 H   0  0  0  0  0  0  0  0  0  0  0  0
   46.3215    2.3458    0.9996 H   0  0  0  0  0  0  0  0  0  0  0  0
   46.2133   -2.5673   -0.9826 H   0  0  0  0  0  0  0  0  0  0  0  0
   44.2756   -4.2833   -1.7069 H   0  0  0  0  0  0  0  0  0  0  0  0
   40.9506   -2.8901   -4.0211 H   0  0  0  0  0  0  0  0  0  0  0  0
   41.7982   -3.8728   -5.2295 H   0  0  0  0  0  0  0  0  0  0  0  0
   42.7104   -3.0046   -3.9827 H   0  0  0  0  0  0  0  0  0  0  0  0
   41.7379   -6.1915   -4.8598 H   0  0  0  0  0  0  0  0  0  0  0  0
   42.4167   -8.6768   -4.2089 H   0  0  0  0  0  0  0  0  0  0  0  0
   41.6343   -9.2925   -2.7423 H   0  0  0  0  0  0  0  0  0  0  0  0
   40.6554   -8.6974   -4.0922 H   0  0  0  0  0  0  0  0  0  0  0  0
   41.4513   -7.8074   -0.9070 H   0  0  0  0  0  0  0  0  0  0  0  0
   40.5617   -4.8921    0.7122 H   0  0  0  0  0  0  0  0  0  0  0  0
   42.3232   -4.8975    0.8061 H   0  0  0  0  0  0  0  0  0  0  0  0
   41.4250   -6.4162    0.9815 H   0  0  0  0  0  0  0  0  0  0  0  0
   38.9802   -4.1338   -1.7681 H   0  0  0  0  0  0  0  0  0  0  0  0
   37.1268   -2.3190   -1.0583 H   0  0  0  0  0  0  0  0  0  0  0  0
   97.6330   -0.0253   -0.0471 Zn  0  0  0  0  0  0  0  0  0  0  0  0
  101.0505   -0.0798   -0.0933 C   0  0  0  0  0  0  0  0  0  0  0  0
  100.4048   -1.2269   -0.5410 C   0  0  0  0  0  0  0  0  0  0  0  0
  101.0585   -2.4175   -1.0107 C   0  0  0  0  0  0  0  0  0  0  0  0
  100.0842   -3.2984   -1.3512 C   0  0  0  0  0  0  0  0  0  0  0  0
   98.8233   -2.6546   -1.0955 C   0  0  0  0  0  0  0  0  0  0  0  0
   99.0525   -1.4027   -0.6043 N   0  0  0  0  0  0  0  0  0  0  0  0
   97.5665   -3.2230   -1.3208 C   0  0  0  0  0  0  0  0  0  0  0  0
   97.5332   -4.6127   -1.8646 C   0  0  0  0  0  0  0  0  0  0  0  0
   97.5552   -4.8244   -3.2460 C   0  0  0  0  0  0  0  0  0  0  0  0
   97.6221   -3.6486   -4.1841 C   0  0  0  0  0  0  0  0  0  0  0  0
   97.5136   -6.1230   -3.7397 C   0  0  0  0  0  0  0  0  0  0  0  0
   97.4511   -7.2134   -2.8780 C   0  0  0  0  0  0  0  0  0  0  0  0
   97.3806   -8.6134   -3.4256 C   0  0  0  0  0  0  0  0  0  0  0  0
   97.4318   -6.9915   -1.5049 C   0  0  0  0  0  0  0  0  0  0  0  0
   97.4726   -5.7011   -0.9898 C   0  0  0  0  0  0  0  0  0  0  0  0
   97.4499   -5.4676    0.4974 C   0  0  0  0  0  0  0  0  0  0  0  0
   96.3357   -2.6088   -1.0814 C   0  0  0  0  0  0  0  0  0  0  0  0
   95.0532   -3.2069   -1.3294 C   0  0  0  0  0  0  0  0  0  0  0  0
   94.1125   -2.2979   -0.9659 C   0  0  0  0  0  0  0  0  0  0  0  0
   96.1505   -1.3501   -0.5745 N   0  0  0  0  0  0  0  0  0  0  0  0
   94.8105   -1.1376   -0.4925 C   0  0  0  0  0  0  0  0  0  0  0  0
   94.1901    0.0344   -0.0129 C   0  0  0  0  0  0  0  0  0  0  0  0
   94.8594    1.1828    0.4568 C   0  0  0  0  0  0  0  0  0  0  0  0
   94.2116    2.3658    0.9450 C   0  0  0  0  0  0  0  0  0  0  0  0
   95.1904    3.2401    1.2928 C   0  0  0  0  0  0  0  0  0  0  0  0
   96.4464    2.5984    1.0189 C   0  0  0  0  0  0  0  0  0  0  0  0
   96.2075    1.3481    0.5135 N   0  0  0  0  0  0  0  0  0  0  0  0
   97.7024    3.1688    1.2349 C   0  0  0  0  0  0  0  0  0  0  0  0
   97.7302    4.5549    1.7881 C   0  0  0  0  0  0  0  0  0  0  0  0
   97.6628    5.6522    0.9240 C   0  0  0  0  0  0  0  0  0  0  0  0
   97.5691    5.4321   -0.5625 C   0  0  0  0  0  0  0  0  0  0  0  0
   97.6810    6.9381    1.4495 C   0  0  0  0  0  0  0  0  0  0  0  0
   97.7644    7.1482    2.8231 C   0  0  0  0  0  0  0  0  0  0  0  0
   97.7844    8.5506    3.3692 C   0  0  0  0  0  0  0  0  0  0  0  0
   97.8342    6.0505    3.6729 C   0  0  0  0  0  0  0  0  0  0  0  0
   97.8178    4.7546    3.1681 C   0  0  0  0  0  0  0  0  0  0  0  0
   97.8903    3.5701    4.0947 C   0  0  0  0  0  0  0  0  0  0  0  0
   98.9341    2.5600    0.9778 C   0  0  0  0  0  0  0  0  0  0  0  0
  100.2213    3.1622    1.2018 C   0  0  0  0  0  0  0  0  0  0  0  0
  101.1575    2.2531    0.8299 C   0  0  0  0  0  0  0  0  0  0  0  0
  100.4540    1.0859    0.3740 C   0  0  0  0  0  0  0  0  0  0  0  0
   99.1100    1.3040    0.4754 N   0  0  0  0  0  0  0  0  0  0  0  0
  102.1359   -0.0966   -0.1092 H   0  0  0  0  0  0  0  0  0  0  0  0
  102.1276   -2.5506   -1.0672 H   0  0  0  0  0  0  0  0  0  0  0  0
  100.1970   -4.2977   -1.7409 H   0  0  0  0  0  0  0  0  0  0  0  0
   98.5377   -3.0792   -4.0123 H   0  0  0  0  0  0  0  0  0  0  0  0
   96.7765   -2.9795   -4.0138 H   0  0  0  0  0  0  0  0  0  0  0  0
   97.6051   -3.9771   -5.2229 H   0  0  0  0  0  0  0  0  0  0  0  0
   97.5298   -6.2869   -4.8123 H   0  0  0  0  0  0  0  0  0  0  0  0
   97.8069   -9.3286   -2.7218 H   0  0  0  0  0  0  0  0  0  0  0  0
   96.3386   -8.8906   -3.6025 H   0  0  0  0  0  0  0  0  0  0  0  0
   97.9158   -8.6876   -4.3726 H   0  0  0  0  0  0  0  0  0  0  0  0
   97.3844   -7.8361   -0.8251 H   0  0  0  0  0  0  0  0  0  0  0  0
   96.5650   -4.8921    0.7762 H   0  0  0  0  0  0  0  0  0  0  0  0
   97.4371   -6.4121    1.0405 H   0  0  0  0  0  0  0  0  0  0  0  0
   98.3287   -4.8977    0.8052 H   0  0  0  0  0  0  0  0  0  0  0  0
   94.9007   -4.1954   -1.7326 H   0  0  0  0  0  0  0  0  0  0  0  0
   93.0395   -2.3964   -1.0107 H   0  0  0  0  0  0  0  0  0  0  0  0
   93.1437    2.5012    1.0104 H   0  0  0  0  0  0  0  0  0  0  0  0
   95.0806    4.2324    1.7007 H   0  0  0  0  0  0  0  0  0  0  0  0
   98.4109    4.8306   -0.9107 H   0  0  0  0  0  0  0  0  0  0  0  0
   97.5709    6.3810   -1.0980 H   0  0  0  0  0  0  0  0  0  0  0  0
   96.6511    4.8944   -0.8079 H   0  0  0  0  0  0  0  0  0  0  0  0
   97.6275    7.7902    0.7796 H   0  0  0  0  0  0  0  0  0  0  0  0
   96.9444    9.1250    2.9751 H   0  0  0  0  0  0  0  0  0  0  0  0
   97.7259    8.5476    4.4576 H   0  0  0  0  0  0  0  0  0  0  0  0
   98.7056    9.0568    3.0735 H   0  0  0  0  0  0  0  0  0  0  0  0
   97.8999    6.2036    4.7452 H   0  0  0  0  0  0  0  0  0  0  0  0
   98.7887    2.9844    3.8903 H   0  0  0  0  0  0  0  0  0  0  0  0
   97.0268    2.9189    3.9458 H   0  0  0  0  0  0  0  0  0  0  0  0
   97.9124    3.8902    5.1360 H   0  0  0  0  0  0  0  0  0  0  0  0
  100.3768    4.1554    1.5926 H   0  0  0  0  0  0  0  0  0  0  0  0
  102.2315    2.3525    0.8569 H   0  0  0  0  0  0  0  0  0  0  0  0
   46.5735   -0.1134    0.0044 C   0  0  0  0  0  0  0  0  0  0  0  0
   47.7980   -0.1303    0.0056 C   0  0  0  0  0  0  0  0  0  0  0  0
   49.1407   -0.1450    0.0049 C   0  0  0  0  0  0  0  0  0  0  0  0
   50.3714   -0.1496    0.0079 C   0  0  0  0  0  0  0  0  0  0  0  0
   51.7094   -0.1502    0.0043 C   0  0  0  0  0  0  0  0  0  0  0  0
   52.9401   -0.1449    0.0003 C   0  0  0  0  0  0  0  0  0  0  0  0
   54.2827   -0.1353   -0.0040 C   0  0  0  0  0  0  0  0  0  0  0  0
   55.5075   -0.1236   -0.0088 C   0  0  0  0  0  0  0  0  0  0  0  0
   65.2116   -0.0221   -0.0476 C   0  0  0  0  0  0  0  0  0  0  0  0
   66.4370   -0.0152   -0.0474 C   0  0  0  0  0  0  0  0  0  0  0  0
   67.7789   -0.0116   -0.0477 C   0  0  0  0  0  0  0  0  0  0  0  0
   69.0102   -0.0086   -0.0453 C   0  0  0  0  0  0  0  0  0  0  0  0
   70.3475   -0.0091   -0.0440 C   0  0  0  0  0  0  0  0  0  0  0  0
   71.5788   -0.0085   -0.0412 C   0  0  0  0  0  0  0  0  0  0  0  0
   72.9207   -0.0121   -0.0405 C   0  0  0  0  0  0  0  0  0  0  0  0
   74.1460   -0.0192   -0.0340 C   0  0  0  0  0  0  0  0  0  0  0  0
   83.8510    0.0248   -0.0213 C   0  0  0  0  0  0  0  0  0  0  0  0
   85.0758    0.0396   -0.0169 C   0  0  0  0  0  0  0  0  0  0  0  0
   86.4184    0.0484   -0.0135 C   0  0  0  0  0  0  0  0  0  0  0  0
   87.6491    0.0601   -0.0072 C   0  0  0  0  0  0  0  0  0  0  0  0
   88.9871    0.0684   -0.0069 C   0  0  0  0  0  0  0  0  0  0  0  0
   90.2178    0.0702   -0.0032 C   0  0  0  0  0  0  0  0  0  0  0  0
   91.5607    0.0669   -0.0027 C   0  0  0  0  0  0  0  0  0  0  0  0
   92.7853    0.0560   -0.0024 C   0  0  0  0  0  0  0  0  0  0  0  0
   60.3600   -0.0663   -0.0296 Zn  0  0  0  0  0  0  0  0  0  0  0  0
   56.9118   -0.1073   -0.0151 C   0  0  0  0  0  0  0  0  0  0  0  0
   57.5614    0.0529    1.2262 C   0  0  0  0  0  0  0  0  0  0  0  0
   56.8928    0.2004    2.4860 C   0  0  0  0  0  0  0  0  0  0  0  0
   57.8565    0.3226    3.4351 C   0  0  0  0  0  0  0  0  0  0  0  0
   59.1225    0.2494    2.7616 C   0  0  0  0  0  0  0  0  0  0  0  0
   58.9066    0.0869    1.4194 N   0  0  0  0  0  0  0  0  0  0  0  0
   60.3692    0.3289    3.3861 C   0  0  0  0  0  0  0  0  0  0  0  0
   60.3696    0.5016    4.8689 C   0  0  0  0  0  0  0  0  0  0  0  0
   60.4094    1.7844    5.4218 C   0  0  0  0  0  0  0  0  0  0  0  0
   60.4588    2.9892    4.5202 C   0  0  0  0  0  0  0  0  0  0  0  0
   60.4002    1.9340    6.8039 C   0  0  0  0  0  0  0  0  0  0  0  0
   60.3505    0.8254    7.6421 C   0  0  0  0  0  0  0  0  0  0  0  0
   60.3557    0.9954    9.1374 C   0  0  0  0  0  0  0  0  0  0  0  0
   60.3136   -0.4473    7.0809 C   0  0  0  0  0  0  0  0  0  0  0  0
   60.3218   -0.6200    5.7020 C   0  0  0  0  0  0  0  0  0  0  0  0
   60.2759   -1.9997    5.1011 C   0  0  0  0  0  0  0  0  0  0  0  0
   61.6125    0.2616    2.7541 C   0  0  0  0  0  0  0  0  0  0  0  0
   62.8822    0.3397    3.4197 C   0  0  0  0  0  0  0  0  0  0  0  0
   63.8405    0.2383    2.4627 C   0  0  0  0  0  0  0  0  0  0  0  0
   61.8211    0.1128    1.4087 N   0  0  0  0  0  0  0  0  0  0  0  0
   63.1650    0.0973    1.2058 C   0  0  0  0  0  0  0  0  0  0  0  0
   63.8081   -0.0324   -0.0432 C   0  0  0  0  0  0  0  0  0  0  0  0
   63.1578   -0.1716   -1.2874 C   0  0  0  0  0  0  0  0  0  0  0  0
   63.8258   -0.2946   -2.5501 C   0  0  0  0  0  0  0  0  0  0  0  0
   62.8620   -0.4109   -3.4999 C   0  0  0  0  0  0  0  0  0  0  0  0
   61.5964   -0.3617   -2.8238 C   0  0  0  0  0  0  0  0  0  0  0  0
   61.8129   -0.2133   -1.4796 N   0  0  0  0  0  0  0  0  0  0  0  0
   60.3497   -0.4559   -3.4459 C   0  0  0  0  0  0  0  0  0  0  0  0
   60.3422   -0.6235   -4.9292 C   0  0  0  0  0  0  0  0  0  0  0  0
   60.2447    0.4983   -5.7575 C   0  0  0  0  0  0  0  0  0  0  0  0
   60.1523    1.8733   -5.1512 C   0  0  0  0  0  0  0  0  0  0  0  0
   60.2307    0.3304   -7.1370 C   0  0  0  0  0  0  0  0  0  0  0  0
   60.3106   -0.9379   -7.7035 C   0  0  0  0  0  0  0  0  0  0  0  0
   60.3100   -1.1036   -9.1993 C   0  0  0  0  0  0  0  0  0  0  0  0
   60.4092   -2.0470   -6.8700 C   0  0  0  0  0  0  0  0  0  0  0  0
   60.4252   -1.9021   -5.4875 C   0  0  0  0  0  0  0  0  0  0  0  0
   60.5271   -3.1075   -4.5912 C   0  0  0  0  0  0  0  0  0  0  0  0
   59.1068   -0.4086   -2.8106 C   0  0  0  0  0  0  0  0  0  0  0  0
   57.8373   -0.5139   -3.4733 C   0  0  0  0  0  0  0  0  0  0  0  0
   56.8790   -0.4165   -2.5159 C   0  0  0  0  0  0  0  0  0  0  0  0
   57.5543   -0.2520   -1.2619 C   0  0  0  0  0  0  0  0  0  0  0  0
   58.8983   -0.2523   -1.4666 N   0  0  0  0  0  0  0  0  0  0  0  0
   55.8226    0.2086    2.6186 H   0  0  0  0  0  0  0  0  0  0  0  0
   57.7295    0.4521    4.4981 H   0  0  0  0  0  0  0  0  0  0  0  0
   61.3692    2.9736    3.9177 H   0  0  0  0  0  0  0  0  0  0  0  0
   60.4404    3.9113    5.1005 H   0  0  0  0  0  0  0  0  0  0  0  0
   59.6070    2.9871    3.8375 H   0  0  0  0  0  0  0  0  0  0  0  0
   60.4287    2.9306    7.2324 H   0  0  0  0  0  0  0  0  0  0  0  0
   61.3739    0.8936    9.5202 H   0  0  0  0  0  0  0  0  0  0  0  0
   59.7377    0.2347    9.6155 H   0  0  0  0  0  0  0  0  0  0  0  0
   59.9832    1.9806    9.4187 H   0  0  0  0  0  0  0  0  0  0  0  0
   60.2748   -1.3179    7.7276 H   0  0  0  0  0  0  0  0  0  0  0  0
   59.3731   -2.1197    4.4988 H   0  0  0  0  0  0  0  0  0  0  0  0
   61.1360   -2.1578    4.4477 H   0  0  0  0  0  0  0  0  0  0  0  0
   60.2808   -2.7636    5.8780 H   0  0  0  0  0  0  0  0  0  0  0  0
   63.0152    0.4556    4.4836 H   0  0  0  0  0  0  0  0  0  0  0  0
   64.9114    0.2562    2.5883 H   0  0  0  0  0  0  0  0  0  0  0  0
   64.8959   -0.2905   -2.6844 H   0  0  0  0  0  0  0  0  0  0  0  0
   62.9889   -0.5188   -4.5654 H   0  0  0  0  0  0  0  0  0  0  0  0
   59.2459    1.9604   -4.5487 H   0  0  0  0  0  0  0  0  0  0  0  0
   60.1312    2.6399   -5.9251 H   0  0  0  0  0  0  0  0  0  0  0  0
   61.0065    2.0579   -4.4970 H   0  0  0  0  0  0  0  0  0  0  0  0
   60.1537    1.2013   -7.7798 H   0  0  0  0  0  0  0  0  0  0  0  0
   59.9352   -2.0876   -9.4817 H   0  0  0  0  0  0  0  0  0  0  0  0
   61.3271   -1.0030   -9.5853 H   0  0  0  0  0  0  0  0  0  0  0  0
   59.6915   -0.3409   -9.6734 H   0  0  0  0  0  0  0  0  0  0  0  0
   60.4713   -3.0401   -7.3027 H   0  0  0  0  0  0  0  0  0  0  0  0
   60.5391   -4.0274   -5.1751 H   0  0  0  0  0  0  0  0  0  0  0  0
   59.6810   -3.1402   -3.9021 H   0  0  0  0  0  0  0  0  0  0  0  0
   61.4408   -3.0599   -3.9955 H   0  0  0  0  0  0  0  0  0  0  0  0
   57.7044   -0.6474   -4.5350 H   0  0  0  0  0  0  0  0  0  0  0  0
   55.8082   -0.4521   -2.6394 H   0  0  0  0  0  0  0  0  0  0  0  0
   78.9980   -0.0087   -0.0267 Zn  0  0  0  0  0  0  0  0  0  0  0  0
   75.5496   -0.0186   -0.0313 C   0  0  0  0  0  0  0  0  0  0  0  0
   76.1938    0.1238    1.2157 C   0  0  0  0  0  0  0  0  0  0  0  0
   75.5198    0.2650    2.4733 C   0  0  0  0  0  0  0  0  0  0  0  0
   76.4793    0.3712    3.4286 C   0  0  0  0  0  0  0  0  0  0  0  0
   77.7483    0.2956    2.7611 C   0  0  0  0  0  0  0  0  0  0  0  0
   77.5380    0.1460    1.4162 N   0  0  0  0  0  0  0  0  0  0  0  0
   78.9924    0.3655    3.3913 C   0  0  0  0  0  0  0  0  0  0  0  0
   78.9929    0.5265    4.8754 C   0  0  0  0  0  0  0  0  0  0  0  0
   79.0391    1.8048    5.4382 C   0  0  0  0  0  0  0  0  0  0  0  0
   79.0838    3.0165    4.5458 C   0  0  0  0  0  0  0  0  0  0  0  0
   79.0432    1.9432    6.8215 C   0  0  0  0  0  0  0  0  0  0  0  0
   79.0015    0.8278    7.6511 C   0  0  0  0  0  0  0  0  0  0  0  0
   79.0284    0.9853    9.1475 C   0  0  0  0  0  0  0  0  0  0  0  0
   78.9556   -0.4403    7.0799 C   0  0  0  0  0  0  0  0  0  0  0  0
   78.9505   -0.6017    5.6997 C   0  0  0  0  0  0  0  0  0  0  0  0
   78.9001   -1.9765    5.0878 C   0  0  0  0  0  0  0  0  0  0  0  0
   80.2383    0.3004    2.7635 C   0  0  0  0  0  0  0  0  0  0  0  0
   81.5051    0.3745    3.4355 C   0  0  0  0  0  0  0  0  0  0  0  0
   82.4677    0.2785    2.4823 C   0  0  0  0  0  0  0  0  0  0  0  0
   80.4528    0.1591    1.4186 N   0  0  0  0  0  0  0  0  0  0  0  0
   81.7978    0.1434    1.2219 C   0  0  0  0  0  0  0  0  0  0  0  0
   82.4466    0.0141   -0.0236 C   0  0  0  0  0  0  0  0  0  0  0  0
   81.8031   -0.1264   -1.2703 C   0  0  0  0  0  0  0  0  0  0  0  0
   82.4770   -0.2553   -2.5292 C   0  0  0  0  0  0  0  0  0  0  0  0
   81.5176   -0.3714   -3.4834 C   0  0  0  0  0  0  0  0  0  0  0  0
   80.2487   -0.3137   -2.8137 C   0  0  0  0  0  0  0  0  0  0  0  0
   80.4587   -0.1623   -1.4694 N   0  0  0  0  0  0  0  0  0  0  0  0
   79.0047   -0.4011   -3.4426 C   0  0  0  0  0  0  0  0  0  0  0  0
   79.0100   -0.5827   -4.9244 C   0  0  0  0  0  0  0  0  0  0  0  0
   78.9384    0.5306   -5.7665 C   0  0  0  0  0  0  0  0  0  0  0  0
   78.8525    1.9134   -5.1773 C   0  0  0  0  0  0  0  0  0  0  0  0
   78.9485    0.3473   -7.1442 C   0  0  0  0  0  0  0  0  0  0  0  0
   79.0280   -0.9279   -7.6951 C   0  0  0  0  0  0  0  0  0  0  0  0
   79.0611   -1.1098   -9.1886 C   0  0  0  0  0  0  0  0  0  0  0  0
   79.0986   -2.0285   -6.8478 C   0  0  0  0  0  0  0  0  0  0  0  0
   79.0903   -1.8682   -5.4670 C   0  0  0  0  0  0  0  0  0  0  0  0
   79.1673   -3.0643   -4.5558 C   0  0  0  0  0  0  0  0  0  0  0  0
   77.7587   -0.3386   -2.8153 C   0  0  0  0  0  0  0  0  0  0  0  0
   76.4921   -0.4295   -3.4852 C   0  0  0  0  0  0  0  0  0  0  0  0
   75.5293   -0.3196   -2.5336 C   0  0  0  0  0  0  0  0  0  0  0  0
   76.1989   -0.1635   -1.2754 C   0  0  0  0  0  0  0  0  0  0  0  0
   77.5438   -0.1787   -1.4721 N   0  0  0  0  0  0  0  0  0  0  0  0
   74.4490    0.2798    2.6005 H   0  0  0  0  0  0  0  0  0  0  0  0
   76.3476    0.4918    4.4921 H   0  0  0  0  0  0  0  0  0  0  0  0
   79.9816    2.9960    3.9250 H   0  0  0  0  0  0  0  0  0  0  0  0
   79.0871    3.9339    5.1337 H   0  0  0  0  0  0  0  0  0  0  0  0
   78.2185    3.0294    3.8803 H   0  0  0  0  0  0  0  0  0  0  0  0
   79.0784    2.9362    7.2578 H   0  0  0  0  0  0  0  0  0  0  0  0
   80.0513    0.8736    9.5146 H   0  0  0  0  0  0  0  0  0  0  0  0
   78.4124    0.2245    9.6282 H   0  0  0  0  0  0  0  0  0  0  0  0
   78.6667    1.9704    9.4424 H   0  0  0  0  0  0  0  0  0  0  0  0
   78.9227   -1.3160    7.7200 H   0  0  0  0  0  0  0  0  0  0  0  0
   77.9958   -2.0900    4.4867 H   0  0  0  0  0  0  0  0  0  0  0  0
   79.7585   -2.1308    4.4313 H   0  0  0  0  0  0  0  0  0  0  0  0
   78.9056   -2.7466    5.8585 H   0  0  0  0  0  0  0  0  0  0  0  0
   81.6333    0.4845    4.5005 H   0  0  0  0  0  0  0  0  0  0  0  0
   83.5381    0.2955    2.6128 H   0  0  0  0  0  0  0  0  0  0  0  0
   83.5478   -0.2559   -2.6582 H   0  0  0  0  0  0  0  0  0  0  0  0
   81.6493   -0.4833   -4.5478 H   0  0  0  0  0  0  0  0  0  0  0  0
   77.9397    2.0173   -4.5873 H   0  0  0  0  0  0  0  0  0  0  0  0
   78.8496    2.6711   -5.9603 H   0  0  0  0  0  0  0  0  0  0  0  0
   79.7005    2.0965   -4.5146 H   0  0  0  0  0  0  0  0  0  0  0  0
   78.8931    1.2116   -7.7979 H   0  0  0  0  0  0  0  0  0  0  0  0
   78.6952   -2.0977   -9.4689 H   0  0  0  0  0  0  0  0  0  0  0  0
   80.0867   -1.0108   -9.5520 H   0  0  0  0  0  0  0  0  0  0  0  0
   78.4523   -0.3536   -9.6852 H   0  0  0  0  0  0  0  0  0  0  0  0
   79.1601   -3.0270   -7.2682 H   0  0  0  0  0  0  0  0  0  0  0  0
   79.1868   -3.9906   -5.1292 H   0  0  0  0  0  0  0  0  0  0  0  0
   78.3073   -3.0854   -3.8838 H   0  0  0  0  0  0  0  0  0  0  0  0
   80.0689   -3.0144   -3.9421 H   0  0  0  0  0  0  0  0  0  0  0  0
   76.3639   -0.5620   -4.5477 H   0  0  0  0  0  0  0  0  0  0  0  0
   74.4590   -0.3427   -2.6634 H   0  0  0  0  0  0  0  0  0  0  0  0
  2  3  4  0  0  0  0
  3  4  1  0  0  0  0
  4  5  2  0  0  0  0
  5  6  4  0  0  0  0
  1  7  1  0  0  0  0
  3  7  4  0  0  0  0
  6  7  4  0  0  0  0
  6  8  4  0  0  0  0
  8  9  1  0  0  0  0
  9 10  4  0  0  0  0
 10 11  1  0  0  0  0
 10 12  4  0  0  0  0
 12 13  4  0  0  0  0
 13 14  1  0  0  0  0
 13 15  4  0  0  0  0
  9 16  4  0  0  0  0
 15 16  4  0  0  0  0
 16 17  1  0  0  0  0
  8 18  4  0  0  0  0
 18 19  4  0  0  0  0
 19 20  2  0  0  0  0
  1 21  1  0  0  0  0
 18 21  4  0  0  0  0
 20 22  4  0  0  0  0
 21 22  4  0  0  0  0
 22 23  4  0  0  0  0
 23 24  4  0  0  0  0
 24 25  4  0  0  0  0
 25 26  2  0  0  0  0
 26 27  4  0  0  0  0
  1 28  1  0  0  0  0
 24 28  4  0  0  0  0
 27 28  4  0  0  0  0
 27 29  4  0  0  0  0
 29 30  1  0  0  0  0
 30 31  4  0  0  0  0
 31 32  1  0  0  0  0
 31 33  4  0  0  0  0
 33 34  4  0  0  0  0
 34 35  1  0  0  0  0
 34 36  4  0  0  0  0
 30 37  4  0  0  0  0
 36 37  4  0  0  0  0
 37 38  1  0  0  0  0
 29 39  4  0  0  0  0
 39 40  4  0  0  0  0
 40 41  2  0  0  0  0
  2 42  4  0  0  0  0
 41 42  1  0  0  0  0
  1 43  1  0  0  0  0
 39 43  4  0  0  0  0
 42 43  4  0  0  0  0
  2 44  1  0  0  0  0
  4 45  1  0  0  0  0
  5 46  1  0  0  0  0
 11 47  1  0  0  0  0
 11 48  1  0  0  0  0
 11 49  1  0  0  0  0
 12 50  1  0  0  0  0
 14 51  1  0  0  0  0
 14 52  1  0  0  0  0
 14 53  1  0  0  0  0
 15 54  1  0  0  0  0
 17 55  1  0  0  0  0
 17 56  1  0  0  0  0
 17 57  1  0  0  0  0
 19 58  1  0  0  0  0
 20 59  1  0  0  0  0
 25 60  1  0  0  0  0
 26 61  1  0  0  0  0
 32 62  1  0  0  0  0
 32 63  1  0  0  0  0
 32 64  1  0  0  0  0
 33 65  1  0  0  0  0
 35 66  1  0  0  0  0
 35 67  1  0  0  0  0
 35 68  1  0  0  0  0
 36 69  1  0  0  0  0
 38 70  1  0  0  0  0
 38 71  1  0  0  0  0
 38 72  1  0  0  0  0
 40 73  1  0  0  0  0
 41 74  1  0  0  0  0
 76 77  4  0  0  0  0
 77 78  1  0  0  0  0
 78 79  2  0  0  0  0
 79 80  4  0  0  0  0
 75 81  1  0  0  0  0
 77 81  4  0  0  0  0
 80 81  4  0  0  0  0
 80 82  4  0  0  0  0
 82 83  1  0  0  0  0
 83 84  4  0  0  0  0
 84 85  1  0  0  0  0
 84 86  4  0  0  0  0
 86 87  4  0  0  0  0
 87 88  1  0  0  0  0
 87 89  4  0  0  0  0
 83 90  4  0  0  0  0
 89 90  4  0  0  0  0
 90 91  1  0  0  0  0
 82 92  4  0  0  0  0
 92 93  4  0  0  0  0
 93 94  2  0  0  0  0
 75 95  1  0  0  0  0
 92 95  4  0  0  0  0
 94 96  4  0  0  0  0
 95 96  4  0  0  0  0
 96 97  4  0  0  0  0
 97 98  4  0  0  0  0
 98 99  4  0  0  0  0
 99100  2  0  0  0  0
100101  4  0  0  0  0
 75102  1  0  0  0  0
 98102  4  0  0  0  0
101102  4  0  0  0  0
101103  4  0  0  0  0
103104  1  0  0  0  0
104105  4  0  0  0  0
105106  1  0  0  0  0
105107  4  0  0  0  0
107108  4  0  0  0  0
108109  1  0  0  0  0
108110  4  0  0  0  0
104111  4  0  0  0  0
110111  4  0  0  0  0
111112  1  0  0  0  0
103113  4  0  0  0  0
113114  4  0  0  0  0
114115  2  0  0  0  0
 76116  4  0  0  0  0
115116  1  0  0  0  0
 75117  1  0  0  0  0
113117  4  0  0  0  0
116117  4  0  0  0  0
 76118  1  0  0  0  0
 78119  1  0  0  0  0
 79120  1  0  0  0  0
 85121  1  0  0  0  0
 85122  1  0  0  0  0
 85123  1  0  0  0  0
 86124  1  0  0  0  0
 88125  1  0  0  0  0
 88126  1  0  0  0  0
 88127  1  0  0  0  0
 89128  1  0  0  0  0
 91129  1  0  0  0  0
 91130  1  0  0  0  0
 91131  1  0  0  0  0
 93132  1  0  0  0  0
 94133  1  0  0  0  0
 99134  1  0  0  0  0
100135  1  0  0  0  0
106136  1  0  0  0  0
106137  1  0  0  0  0
106138  1  0  0  0  0
107139  1  0  0  0  0
109140  1  0  0  0  0
109141  1  0  0  0  0
109142  1  0  0  0  0
110143  1  0  0  0  0
112144  1  0  0  0  0
112145  1  0  0  0  0
112146  1  0  0  0  0
114147  1  0  0  0  0
115148  1  0  0  0  0
 23149  4  0  0  0  0
149150  3  0  0  0  0
150151  4  0  0  0  0
151152  3  0  0  0  0
152153  4  0  0  0  0
153154  3  0  0  0  0
154155  4  0  0  0  0
155156  3  0  0  0  0
157158  3  0  0  0  0
158159  4  0  0  0  0
159160  3  0  0  0  0
160161  4  0  0  0  0
161162  3  0  0  0  0
162163  4  0  0  0  0
163164  3  0  0  0  0
165166  3  0  0  0  0
166167  4  0  0  0  0
167168  3  0  0  0  0
168169  4  0  0  0  0
169170  3  0  0  0  0
170171  4  0  0  0  0
 97172  4  0  0  0  0
171172  3  0  0  0  0
156174  4  0  0  0  0
174175  4  0  0  0  0
175176  4  0  0  0  0
176177  2  0  0  0  0
177178  4  0  0  0  0
173179  1  0  0  0  0
175179  4  0  0  0  0
178179  4  0  0  0  0
178180  4  0  0  0  0
180181  1  0  0  0  0
181182  4  0  0  0  0
182183  1  0  0  0  0
182184  4  0  0  0  0
184185  4  0  0  0  0
185186  1  0  0  0  0
185187  4  0  0  0  0
181188  4  0  0  0  0
187188  4  0  0  0  0
188189  1  0  0  0  0
180190  4  0  0  0  0
190191  4  0  0  0  0
191192  2  0  0  0  0
173193  1  0  0  0  0
190193  4  0  0  0  0
192194  4  0  0  0  0
193194  4  0  0  0  0
157195  4  0  0  0  0
194195  4  0  0  0  0
195196  4  0  0  0  0
196197  4  0  0  0  0
197198  2  0  0  0  0
198199  4  0  0  0  0
173200  1  0  0  0  0
196200  4  0  0  0  0
199200  4  0  0  0  0
199201  4  0  0  0  0
201202  1  0  0  0  0
202203  4  0  0  0  0
203204  1  0  0  0  0
203205  4  0  0  0  0
205206  4  0  0  0  0
206207  1  0  0  0  0
206208  4  0  0  0  0
202209  4  0  0  0  0
208209  4  0  0  0  0
209210  1  0  0  0  0
201211  4  0  0  0  0
211212  4  0  0  0  0
212213  2  0  0  0  0
174214  4  0  0  0  0
213214  4  0  0  0  0
173215  1  0  0  0  0
211215  4  0  0  0  0
214215  4  0  0  0  0
176216  1  0  0  0  0
177217  1  0  0  0  0
183218  1  0  0  0  0
183219  1  0  0  0  0
183220  1  0  0  0  0
184221  1  0  0  0  0
186222  1  0  0  0  0
186223  1  0  0  0  0
186224  1  0  0  0  0
187225  1  0  0  0  0
189226  1  0  0  0  0
189227  1  0  0  0  0
189228  1  0  0  0  0
191229  1  0  0  0  0
192230  1  0  0  0  0
197231  1  0  0  0  0
198232  1  0  0  0  0
204233  1  0  0  0  0
204234  1  0  0  0  0
204235  1  0  0  0  0
205236  1  0  0  0  0
207237  1  0  0  0  0
207238  1  0  0  0  0
207239  1  0  0  0  0
208240  1  0  0  0  0
210241  1  0  0  0  0
210242  1  0  0  0  0
210243  1  0  0  0  0
212244  1  0  0  0  0
213245  1  0  0  0  0
164247  4  0  0  0  0
247248  4  0  0  0  0
248249  4  0  0  0  0
249250  2  0  0  0  0
250251  4  0  0  0  0
246252  1  0  0  0  0
248252  4  0  0  0  0
251252  4  0  0  0  0
251253  4  0  0  0  0
253254  1  0  0  0  0
254255  4  0  0  0  0
255256  1  0  0  0  0
255257  4  0  0  0  0
257258  4  0  0  0  0
258259  1  0  0  0  0
258260  4  0  0  0  0
254261  4  0  0  0  0
260261  4  0  0  0  0
261262  1  0  0  0  0
253263  4  0  0  0  0
263264  4  0  0  0  0
264265  2  0  0  0  0
246266  1  0  0  0  0
263266  4  0  0  0  0
265267  4  0  0  0  0
266267  4  0  0  0  0
165268  4  0  0  0  0
267268  4  0  0  0  0
268269  4  0  0  0  0
269270  4  0  0  0  0
270271  2  0  0  0  0
271272  4  0  0  0  0
246273  1  0  0  0  0
269273  4  0  0  0  0
272273  4  0  0  0  0
272274  4  0  0  0  0
274275  1  0  0  0  0
275276  4  0  0  0  0
276277  1  0  0  0  0
276278  4  0  0  0  0
278279  4  0  0  0  0
279280  1  0  0  0  0
279281  4  0  0  0  0
275282  4  0  0  0  0
281282  4  0  0  0  0
282283  1  0  0  0  0
274284  4  0  0  0  0
284285  4  0  0  0  0
285286  2  0  0  0  0
247287  4  0  0  0  0
286287  4  0  0  0  0
246288  1  0  0  0  0
284288  4  0  0  0  0
287288  4  0  0  0  0
249289  1  0  0  0  0
250290  1  0  0  0  0
256291  1  0  0  0  0
256292  1  0  0  0  0
256293  1  0  0  0  0
257294  1  0  0  0  0
259295  1  0  0  0  0
259296  1  0  0  0  0
259297  1  0  0  0  0
260298  1  0  0  0  0
262299  1  0  0  0  0
262300  1  0  0  0  0
262301  1  0  0  0  0
264302  1  0  0  0  0
265303  1  0  0  0  0
270304  1  0  0  0  0
271305  1  0  0  0  0
277306  1  0  0  0  0
277307  1  0  0  0  0
277308  1  0  0  0  0
278309  1  0  0  0  0
280310  1  0  0  0  0
280311  1  0  0  0  0
280312  1  0  0  0  0
281313  1  0  0  0  0
283314  1  0  0  0  0
283315  1  0  0  0  0
283316  1  0  0  0  0
285317  1  0  0  0  0
286318  1  0  0  0  0
M  END
