318

Zn 41.350784 -0.024034 -0.021128
C 37.976916 0.108484 0.018155
C 38.645632 1.161124 0.496767
C 38.002315 2.342653 1.059551
C 38.949329 3.195117 1.404676
C 40.249773 2.597821 1.074291
N 40.065206 1.303628 0.501865
C 41.443532 3.195354 1.256607
C 41.489087 4.563248 1.836168
C 41.405353 5.696486 0.992968
C 41.267558 5.546036 -0.500065
C 41.448294 6.981762 1.554507
C 41.567890 7.154421 2.938376
C 41.653789 8.534362 3.521849
C 41.676644 6.032811 3.768521
C 41.629836 4.736707 3.233019
C 41.741200 3.550490 4.155516
C 42.736615 2.555906 0.903279
C 44.028752 3.246605 0.975470
C 44.963950 2.387619 0.627446
N 42.874006 1.320611 0.527877
C 44.276201 1.135847 0.331574
C 44.871201 -0.017884 -0.016942
C 44.113954 -1.259846 -0.304574
C 44.670241 -2.458710 -0.427448
C 43.621259 -3.387776 -0.794059
C 42.489878 -2.697426 -0.870541
N 42.710180 -1.319006 -0.564431
C 41.188194 -3.277048 -1.290600
C 41.177716 -4.639153 -1.888918
C 41.416385 -4.806847 -3.273104
C 41.684112 -3.621780 -4.164555
C 41.413090 -6.096770 -3.825169
C 41.174339 -7.217871 -3.022993
C 41.148766 -8.583894 -3.643804
C 40.925219 -7.050266 -1.655336
C 40.935918 -5.772217 -1.076032
C 40.674840 -5.628540 0.401323
C 40.026520 -2.614308 -1.147100
C 38.706521 -3.109884 -1.529902
C 37.845381 -2.182769 -1.158793
C 38.607540 -1.094281 -0.548297
N 39.880819 -1.335312 -0.535228
H 36.893741 0.133841 0.040483
H 36.939227 2.508634 1.177463
H 38.771486 4.166427 1.847952
H 40.315935 5.026645 -0.738220
H 42.117589 4.954077 -0.899624
H 41.263031 6.530368 -1.014487
H 41.389082 7.853746 0.913642
H 41.229929 8.553068 4.548609
H 42.716610 8.852283 3.562542
H 41.081887 9.258937 2.903698
H 41.796007 6.172335 4.836632
H 42.656195 2.971118 3.911320
H 41.800059 3.860834 5.220082
H 40.851903 2.896377 4.037567
H 44.204403 4.275216 1.261989
H 46.024131 2.599389 0.584810
H 45.715850 -2.705865 -0.303623
H 43.748601 -4.443931 -0.993290
H 40.849013 -2.893833 -4.086687
H 41.779937 -3.921252 -5.229715
H 42.629675 -3.128456 -3.856358
H 41.594849 -6.233214 -4.885070
H 42.049715 -8.727932 -4.278196
H 41.139646 -9.382056 -2.870462
H 40.240170 -8.686836 -4.274466
H 40.726361 -7.919143 -1.039089
H 39.720337 -5.085558 0.561764
H 41.502405 -5.062925 0.878538
H 40.602094 -6.615907 0.904773
H 38.458681 -4.047674 -2.010053
H 36.772160 -2.233592 -1.286998
Zn 98.011392 -0.010548 -0.015705
C 101.385260 -0.133368 -0.079105
C 100.716544 -1.224291 -0.462518
C 101.359861 -2.466494 -0.874427
C 100.412848 -3.320557 -1.215574
C 99.112404 -2.660823 -1.040451
N 99.296970 -1.330649 -0.557499
C 97.918644 -3.218216 -1.322582
C 97.873090 -4.606511 -1.851412
C 97.956823 -4.840467 -3.244422
C 98.094618 -3.698237 -4.217609
C 97.913882 -6.156670 -3.729057
C 97.794286 -7.239348 -2.850017
C 97.708388 -8.639045 -3.384363
C 97.685532 -7.004745 -1.474477
C 97.732341 -5.698755 -0.963558
C 97.620976 -5.481470 0.523352
C 96.625562 -2.512182 -1.134831
C 95.333425 -3.060559 -1.560929
C 94.398226 -2.199782 -1.217358
N 96.488170 -1.360912 -0.550486
C 95.085975 -1.091685 -0.564218
C 94.490976 -0.017884 -0.016942
C 95.248223 1.077430 0.635352
C 94.691936 2.027580 1.376694
C 95.740918 2.951794 1.755373
C 96.872298 2.506599 1.222236
N 96.651996 1.300026 0.488801
C 98.173982 3.215663 1.320417
C 98.184461 4.612768 1.831703
C 97.945791 5.692083 0.948995
C 97.678064 5.454134 -0.514715
C 97.949087 7.005080 1.443684
C 98.187837 7.258680 2.798690
C 98.213411 8.674184 3.296458
C 98.436958 6.190872 3.669531
C 98.426258 4.867585 3.202719
C 98.687336 3.741097 4.169282
C 99.335657 2.638092 0.965130
C 100.655655 3.260716 1.032008
C 101.516795 2.334797 0.657926
C 100.754636 1.126698 0.344860
N 99.481357 1.291574 0.521163
H 102.468435 -0.167123 -0.080548
H 102.422949 -2.667897 -0.904256
H 100.590690 -4.328330 -1.568178
H 99.046241 -3.158571 -4.029870
H 97.244587 -2.994464 -4.096095
H 98.099145 -4.052367 -5.270289
H 97.973095 -6.342191 -4.795193
H 98.132247 -9.363397 -2.656421
H 96.645566 -8.896625 -3.575105
H 98.280290 -8.733923 -4.332054
H 97.566169 -7.844906 -0.800341
H 96.705981 -4.894341 0.748259
H 97.562118 -6.442437 1.076665
H 98.510273 -4.927814 0.891102
H 95.157773 -4.001153 -2.066317
H 93.338045 -2.323074 -1.394738
H 93.646327 2.120196 1.637157
H 95.613575 3.851831 2.342815
H 98.513163 4.874950 -0.962504
H 97.582240 6.407668 -1.075984
H 96.732502 4.884787 -0.633866
H 97.767328 7.837334 0.773341
H 97.312461 9.217326 2.938413
H 98.222531 8.714718 4.407079
H 99.122007 9.185089 2.912652
H 98.635815 6.391195 4.715752
H 99.641839 3.238212 3.909133
H 97.859772 3.002570 4.122042
H 98.760082 4.105013 5.216145
H 100.903495 4.269831 1.334797
H 102.590017 2.460229 0.600602
C 47.186874 -0.003194 -0.006666
C 48.645101 -0.025030 -0.024539
C 49.779029 -0.045784 -0.026030
C 51.140410 -0.058374 -0.028221
C 52.414629 -0.048067 -0.032986
C 53.603092 -0.029269 -0.039142
C 54.955452 -0.004485 -0.023274
C 56.055720 -0.003194 -0.006666
C 65.184647 -0.003194 -0.006666
C 66.642873 -0.025030 -0.024539
C 67.776801 -0.045784 -0.026030
C 69.138183 -0.058374 -0.028221
C 70.412402 -0.048067 -0.032986
C 71.600864 -0.029269 -0.039142
C 72.953225 -0.004485 -0.023274
C 74.053493 -0.003194 -0.006666
C 83.182420 -0.003194 -0.006666
C 84.640646 -0.025030 -0.024539
C 85.774574 -0.045784 -0.026030
C 87.135956 -0.058374 -0.028221
C 88.410175 -0.048067 -0.032986
C 89.598637 -0.029269 -0.039142
C 90.950998 -0.004485 -0.023274
C 92.051265 -0.003194 -0.006666
Zn 60.674219 -0.038270 -0.006821
C 57.228359 0.018654 0.018270
C 57.886881 0.180463 1.181020
C 57.245106 0.414744 2.476951
C 58.185173 0.490148 3.396444
C 59.484721 0.309674 2.743626
N 59.306353 0.116713 1.338872
C 60.669732 0.302843 3.386520
C 60.693983 0.474781 4.863184
C 60.850550 1.764056 5.424445
C 61.011488 2.979421 4.547938
C 60.879883 1.912788 6.819455
C 60.731943 0.803577 7.660721
C 60.795236 0.971112 9.150790
C 60.593878 -0.473199 7.104136
C 60.574961 -0.651008 5.712335
C 60.410215 -2.037912 5.146777
C 61.974175 0.134042 2.699795
C 63.250971 -0.009040 3.408861
C 64.206054 -0.088726 2.506158
N 62.139317 0.143443 1.413165
C 63.545977 0.004619 1.209928
C 64.165179 0.018654 0.018270
C 63.426801 0.110325 -1.262033
C 63.994764 0.364005 -2.434161
C 62.961081 0.266894 -3.444493
C 61.828260 -0.037934 -2.823229
N 62.030825 -0.150697 -1.414541
C 60.549615 -0.325469 -3.517207
C 60.581805 -0.572333 -4.983977
C 60.334571 0.486387 -5.890185
C 60.031392 1.877877 -5.397207
C 60.372880 0.238877 -7.270887
C 60.649968 -1.042681 -7.760721
C 60.734362 -1.283034 -9.239466
C 60.919507 -2.082861 -6.863793
C 60.875880 -1.865006 -5.478343
C 61.170871 -3.008047 -4.541466
C 59.373652 -0.385606 -2.865633
C 58.082110 -0.678599 -3.476385
C 57.190773 -0.578332 -2.512582
C 57.902423 -0.224929 -1.278856
N 59.179843 -0.111645 -1.478455
H 56.186770 0.509528 2.679829
H 58.001479 0.654615 4.450405
H 61.966966 2.910370 3.987678
H 61.022535 3.916618 5.143503
H 60.168905 3.042850 3.828143
H 61.015598 2.896139 7.254630
H 61.840376 0.824022 9.494443
H 60.139666 0.228961 9.654309
H 60.455337 1.985653 9.449793
H 60.503202 -1.331238 7.759969
H 59.434411 -2.113607 4.623278
H 61.228824 -2.255171 4.429189
H 60.440242 -2.812451 5.942429
H 63.403538 -0.041821 4.479750
H 65.261754 -0.196064 2.717367
H 65.039695 0.574466 -2.617995
H 63.101316 0.384654 -4.511153
H 59.081194 1.873590 -4.823377
H 59.926147 2.598477 -6.236114
H 60.853498 2.233476 -4.740987
H 60.190760 1.046774 -7.970020
H 60.424572 -2.321264 -9.485256
H 61.779223 -1.126590 -9.580060
H 60.065753 -0.587126 -9.790124
H 61.163041 -3.066441 -7.248592
H 61.253194 -3.973522 -5.084647
H 60.355704 -3.108324 -3.794494
H 62.129980 -2.820050 -4.015432
H 57.870987 -0.922988 -4.509419
H 56.127773 -0.734715 -2.636657
Zn 78.671991 -0.038270 -0.006821
C 75.226132 0.018654 0.018270
C 75.884654 0.180463 1.181020
C 75.242879 0.414744 2.476951
C 76.182946 0.490148 3.396444
C 77.482493 0.309674 2.743626
N 77.304125 0.116713 1.338872
C 78.667505 0.302843 3.386520
C 78.691755 0.474781 4.863184
C 78.848323 1.764056 5.424445
C 79.009261 2.979421 4.547938
C 78.877656 1.912788 6.819455
C 78.729715 0.803577 7.660721
C 78.793009 0.971112 9.150790
C 78.591651 -0.473199 7.104136
C 78.572733 -0.651008 5.712335
C 78.407988 -2.037912 5.146777
C 79.971947 0.134042 2.699795
C 81.248744 -0.009040 3.408861
C 82.203827 -0.088726 2.506158
N 80.137090 0.143443 1.413165
C 81.543750 0.004619 1.209928
C 82.162952 0.018654 0.018270
C 81.424574 0.110325 -1.262033
C 81.992537 0.364005 -2.434161
C 80.958854 0.266894 -3.444493
C 79.826033 -0.037934 -2.823229
N 80.028597 -0.150697 -1.414541
C 78.547388 -0.325469 -3.517207
C 78.579578 -0.572333 -4.983977
C 78.332343 0.486387 -5.890185
C 78.029165 1.877877 -5.397207
C 78.370652 0.238877 -7.270887
C 78.647741 -1.042681 -7.760721
C 78.732135 -1.283034 -9.239466
C 78.917280 -2.082861 -6.863793
C 78.873653 -1.865006 -5.478343
C 79.168644 -3.008047 -4.541466
C 77.371424 -0.385606 -2.865633
C 76.079883 -0.678599 -3.476385
C 75.188546 -0.578332 -2.512582
C 75.900196 -0.224929 -1.278856
N 77.177616 -0.111645 -1.478455
H 74.184542 0.509528 2.679829
H 75.999252 0.654615 4.450405
H 79.964738 2.910370 3.987678
H 79.020308 3.916618 5.143503
H 78.166678 3.042850 3.828143
H 79.013370 2.896139 7.254630
H 79.838148 0.824022 9.494443
H 78.137438 0.228961 9.654309
H 78.453110 1.985653 9.449793
H 78.500975 -1.331238 7.759969
H 77.432183 -2.113607 4.623278
H 79.226596 -2.255171 4.429189
H 78.438015 -2.812451 5.942429
H 81.401311 -0.041821 4.479750
H 83.259526 -0.196064 2.717367
H 83.037468 0.574466 -2.617995
H 81.099089 0.384654 -4.511153
H 77.078966 1.873590 -4.823377
H 77.923920 2.598477 -6.236114
H 78.851271 2.233476 -4.740987
H 78.188533 1.046774 -7.970020
H 78.422345 -2.321264 -9.485256
H 79.776995 -1.126590 -9.580060
H 78.063526 -0.587126 -9.790124
H 79.160813 -3.066441 -7.248592
H 79.250967 -3.973522 -5.084647
H 78.353477 -3.108324 -3.794494
H 80.127753 -2.820050 -4.015432
H 75.868759 -0.922988 -4.509419
H 74.125545 -0.734715 -2.636657
