776

C 125.709528 -0.032903 -0.150950
C 126.436912 -0.229675 1.218835
C 125.835633 -0.582342 2.407148
C 126.855947 -0.616922 3.391338
C 128.036801 -0.253715 2.780742
N 127.780499 -0.078336 1.442680
C 129.454882 -0.106203 3.479045
C 130.588899 -0.049707 2.723160
C 131.900791 0.100574 3.320112
C 132.802499 0.161569 2.348185
N 130.783310 -0.090189 1.366875
C 132.117433 0.029294 1.076634
C 132.777713 0.037680 -0.110953
C 131.993916 -0.153985 -1.479410
C 132.505882 -0.703461 -2.638161
C 131.484030 -0.665264 -3.619700
C 130.380150 -0.090102 -3.035838
C 128.977639 0.174698 -3.740520
C 128.970698 0.388286 -5.218847
C 129.462753 1.577596 -5.794737
O 129.957092 2.662547 -5.118563
C 129.075920 3.230061 -4.149045
C 129.564214 1.703087 -7.187943
C 129.134839 0.678301 -8.027207
C 128.618951 -0.492002 -7.475718
C 128.555252 -0.654977 -6.085270
O 128.050558 -1.798725 -5.514766
C 128.297594 -3.020769 -6.204524
C 127.854487 0.201024 -2.975807
C 126.523460 0.364241 -3.532551
C 125.639819 0.283154 -2.540898
C 126.374134 0.092804 -1.314234
N 127.700938 0.075537 -1.622804
N 130.681346 0.165538 -1.716557
C 129.492163 0.008854 4.968929
C 129.191621 1.223016 5.625676
O 128.727929 2.343491 4.983938
C 129.741553 3.017531 4.241992
C 129.224289 1.314307 7.022025
C 129.582354 0.209922 7.788493
C 129.868708 -1.002478 7.160430
C 129.823570 -1.114572 5.761474
O 130.028972 -2.302400 5.105571
C 130.814580 -3.288214 5.755595
H 124.617938 0.003429 -0.145919
H 124.785598 -0.787470 2.548911
H 126.737851 -0.855716 4.435680
H 128.478715 0.120028 0.729770
H 132.114275 0.164352 4.371085
H 133.860434 0.271996 2.502490
H 133.499572 -1.100823 -2.760394
H 131.540329 -1.018246 -4.636961
H 129.587901 3.257464 -3.177827
H 128.862817 4.262415 -4.447871
H 128.126300 2.712647 -4.043096
H 129.981627 2.613443 -7.606918
H 129.202134 0.790330 -9.102853
H 128.272086 -1.275683 -8.140838
H 128.148832 -3.847013 -5.505859
H 127.579051 -3.145975 -7.021479
H 129.326086 -3.075393 -6.576344
H 126.285828 0.486874 -4.571634
H 124.568357 0.335169 -2.631901
H 130.004864 0.458049 -1.016634
H 130.022479 3.935357 4.767784
H 129.329387 3.305078 3.269557
H 130.642377 2.433389 4.070092
H 128.956846 2.249405 7.503141
H 129.611442 0.291020 8.871679
H 130.096770 -1.859269 7.782654
H 130.238803 -3.781928 6.541099
H 131.088740 -4.043870 5.016642
H 131.739622 -2.864599 6.162523
C 274.974041 -0.029089 -0.064870
C 274.246657 -0.346240 -1.411883
C 274.847936 -0.802625 -2.564347
C 273.827622 -0.924115 -3.541622
C 272.646768 -0.508327 -2.965543
N 272.903070 -0.215292 -1.648236
C 271.228687 -0.423155 -3.674156
C 270.094670 -0.300026 -2.926231
C 268.782778 -0.203131 -3.534134
C 267.881070 -0.056414 -2.571411
N 269.900259 -0.220394 -1.571679
C 268.566136 -0.075708 -1.293143
C 267.905856 0.037680 -0.110953
C 268.689653 -0.032201 1.269093
C 268.177687 -0.477039 2.471902
C 269.199540 -0.352180 3.446216
C 270.303419 0.169089 2.813772
C 271.705930 0.495176 3.492273
C 271.712871 0.838677 4.945915
C 271.220816 2.074261 5.414360
O 270.726477 3.095156 4.644878
C 271.607649 3.574697 3.628966
C 271.119355 2.322481 6.791008
C 271.548730 1.375939 7.717619
C 272.064618 0.161447 7.271798
C 272.128317 -0.123868 5.901214
O 272.633011 -1.313591 5.434104
C 272.385975 -2.469841 6.229242
C 272.829082 0.453764 2.728228
C 274.160110 0.665582 3.268354
C 275.043750 0.497107 2.287759
C 274.309435 0.199011 1.082737
N 272.982631 0.209103 1.391626
N 270.002223 0.307044 1.477051
C 271.191406 -0.440321 -5.168378
C 271.491948 0.710998 -5.929937
O 271.955640 1.883839 -5.389813
C 270.942016 2.620859 -4.710390
C 271.459280 0.678431 -7.328887
C 271.101215 -0.489415 -7.994675
C 270.814861 -1.641516 -7.261843
C 270.859999 -1.629440 -5.858456
O 270.654597 -2.754602 -5.100066
C 269.868989 -3.794044 -5.660353
H 276.065631 0.006656 -0.073095
H 275.897971 -1.019487 -2.687413
H 273.945718 -1.254339 -4.560752
H 272.204854 0.045348 -0.955664
H 268.569294 -0.232556 -4.586630
H 266.823135 0.039933 -2.734878
H 267.183997 -0.862033 2.628800
H 269.143240 -0.613807 4.490709
H 271.095668 3.516094 2.659131
H 271.820752 4.629435 3.835315
H 272.557269 3.049941 3.569194
H 270.701942 3.266325 7.127824
H 271.481435 1.582664 8.779141
H 272.411484 -0.560337 8.003624
H 272.534738 -3.354640 5.606391
H 273.104519 -2.522300 7.054069
H 271.357483 -2.491365 6.604435
H 274.397741 0.879637 4.292519
H 276.115212 0.556967 2.373805
H 270.678705 0.536505 0.754000
H 270.661090 3.488585 -5.315299
H 271.354182 2.993286 -3.767198
H 270.041192 2.054210 -4.487500
H 271.726723 1.567312 -7.890822
H 271.072127 -0.504437 -9.080789
H 270.586800 -2.549982 -7.805851
H 270.444767 -4.355297 -6.399113
H 269.594829 -4.481382 -4.857462
H 268.943947 -3.408079 -6.103153
C 138.841835 0.038782 -0.102463
C 137.632896 0.025327 -0.110910
C 136.211367 0.034147 -0.122893
C 134.999697 0.041585 -0.112030
C 140.258439 0.032107 -0.101930
C 141.479135 0.041585 -0.112030
C 154.367783 0.038782 -0.102463
C 153.158844 0.025327 -0.110910
C 151.737315 0.034147 -0.122893
C 150.525646 0.041585 -0.112030
C 155.784388 0.032107 -0.101930
C 157.005084 0.041585 -0.112030
C 169.893732 0.038782 -0.102463
C 168.684792 0.025327 -0.110910
C 167.263264 0.034147 -0.122893
C 166.051594 0.041585 -0.112030
C 171.310336 0.032107 -0.101930
C 172.531032 0.041585 -0.112030
C 185.419680 0.038782 -0.102463
C 184.210741 0.025327 -0.110910
C 182.789212 0.034147 -0.122893
C 181.577542 0.041585 -0.112030
C 186.836284 0.032107 -0.101930
C 188.056980 0.041585 -0.112030
C 200.945628 0.038782 -0.102463
C 199.736689 0.025327 -0.110910
C 198.315160 0.034147 -0.122893
C 197.103491 0.041585 -0.112030
C 202.362233 0.032107 -0.101930
C 203.582929 0.041585 -0.112030
C 216.471577 0.038782 -0.102463
C 215.262637 0.025327 -0.110910
C 213.841109 0.034147 -0.122893
C 212.629439 0.041585 -0.112030
C 217.888181 0.032107 -0.101930
C 219.108877 0.041585 -0.112030
C 231.997525 0.038782 -0.102463
C 230.788586 0.025327 -0.110910
C 229.367057 0.034147 -0.122893
C 228.155387 0.041585 -0.112030
C 233.414129 0.032107 -0.101930
C 234.634825 0.041585 -0.112030
C 247.523473 0.038782 -0.102463
C 246.314534 0.025327 -0.110910
C 244.893005 0.034147 -0.122893
C 243.681336 0.041585 -0.112030
C 248.940078 0.032107 -0.101930
C 250.160774 0.041585 -0.112030
C 263.049422 0.038782 -0.102463
C 261.840482 0.025327 -0.110910
C 260.418954 0.034147 -0.122893
C 259.207284 0.041585 -0.112030
C 264.466026 0.032107 -0.101930
C 265.686722 0.041585 -0.112030
C 142.457711 -0.013449 0.038626
C 143.248873 1.242934 0.602010
C 142.719981 2.277246 1.345700
C 143.754873 3.224764 1.532347
C 144.889572 2.738204 0.919850
N 144.588539 1.499870 0.409495
C 146.297020 3.471536 0.823790
C 147.429024 2.750049 0.592502
C 148.729773 3.378570 0.470968
C 149.639878 2.431748 0.290768
N 147.634191 1.404976 0.435198
C 148.966776 1.149808 0.246906
C 149.635962 -0.013449 0.038626
C 148.834356 -1.377146 -0.064351
C 149.333147 -2.648185 0.167347
C 148.297262 -3.570319 -0.117753
C 147.198185 -2.832662 -0.522231
C 145.803404 -3.418278 -1.000486
C 145.809533 -4.765118 -1.650483
C 145.445613 -5.897159 -0.871988
O 145.121143 -5.680718 0.443952
C 144.181804 -6.571510 1.027816
C 145.487909 -7.187445 -1.419612
C 145.898215 -7.375911 -2.730696
C 146.263275 -6.275731 -3.498935
C 146.210128 -4.971086 -2.987684
O 146.620712 -4.043755 -3.915829
C 145.950368 -2.782399 -3.899801
C 144.665894 -2.689928 -0.830472
C 143.361880 -3.198438 -1.210007
C 142.449202 -2.281041 -0.916610
C 143.126594 -1.130040 -0.350460
N 144.463236 -1.432688 -0.328859
N 147.513556 -1.500406 -0.421804
C 146.326384 4.955995 0.975586
C 146.393160 5.792520 -0.157199
O 146.453483 5.233903 -1.411403
C 145.318401 5.589496 -2.203620
C 146.462522 7.187117 -0.022406
C 146.430859 7.772761 1.240995
C 146.324417 6.967359 2.372829
C 146.291421 5.572888 2.245075
O 146.130644 4.867792 3.410387
C 147.366629 4.292391 3.840178
H 141.700240 2.361478 1.699474
H 143.683803 4.163655 2.058153
H 145.259041 0.867438 -0.024597
H 148.933739 4.431234 0.530380
H 150.692891 2.603785 0.180053
H 150.336244 -2.890807 0.492347
H 148.349093 -4.649950 -0.049876
H 143.782440 -6.099484 1.932459
H 144.676726 -7.502932 1.331050
H 143.332444 -6.771492 0.358337
H 145.242044 -8.057141 -0.823185
H 145.948390 -8.373901 -3.153807
H 146.592144 -6.424602 -4.518272
H 145.954921 -2.439435 -4.949910
H 144.886788 -2.881746 -3.612736
H 146.492530 -2.038959 -3.300454
H 143.161790 -4.157042 -1.649010
H 141.395132 -2.394788 -1.088202
H 146.867736 -0.724021 -0.544271
H 145.546374 6.504197 -2.767186
H 144.408876 5.742143 -1.609959
H 145.139032 4.784024 -2.929791
H 146.558282 7.813663 -0.903589
H 146.489366 8.852031 1.341150
H 146.290684 7.411734 3.359759
H 148.113065 4.178981 3.050795
H 147.149515 3.306139 4.270414
H 147.792609 4.924430 4.628169
C 157.983659 -0.013449 0.038626
C 158.774822 1.242934 0.602010
C 158.245929 2.277246 1.345700
C 159.280822 3.224764 1.532347
C 160.415520 2.738204 0.919850
N 160.114488 1.499870 0.409495
C 161.822968 3.471536 0.823790
C 162.954972 2.750049 0.592502
C 164.255721 3.378570 0.470968
C 165.165826 2.431748 0.290768
N 163.160139 1.404976 0.435198
C 164.492724 1.149808 0.246906
C 165.161910 -0.013449 0.038626
C 164.360304 -1.377146 -0.064351
C 164.859095 -2.648185 0.167347
C 163.823210 -3.570319 -0.117753
C 162.724133 -2.832662 -0.522231
C 161.329352 -3.418278 -1.000486
C 161.335481 -4.765118 -1.650483
C 160.971562 -5.897159 -0.871988
O 160.647092 -5.680718 0.443952
C 159.707752 -6.571510 1.027816
C 161.013857 -7.187445 -1.419612
C 161.424163 -7.375911 -2.730696
C 161.789223 -6.275731 -3.498935
C 161.736076 -4.971086 -2.987684
O 162.146660 -4.043755 -3.915829
C 161.476316 -2.782399 -3.899801
C 160.191842 -2.689928 -0.830472
C 158.887829 -3.198438 -1.210007
C 157.975150 -2.281041 -0.916610
C 158.652543 -1.130040 -0.350460
N 159.989185 -1.432688 -0.328859
N 163.039504 -1.500406 -0.421804
C 161.852332 4.955995 0.975586
C 161.919108 5.792520 -0.157199
O 161.979432 5.233903 -1.411403
C 160.844350 5.589496 -2.203620
C 161.988470 7.187117 -0.022406
C 161.956807 7.772761 1.240995
C 161.850365 6.967359 2.372829
C 161.817369 5.572888 2.245075
O 161.656592 4.867792 3.410387
C 162.892578 4.292391 3.840178
H 157.226189 2.361478 1.699474
H 159.209751 4.163655 2.058153
H 160.784989 0.867438 -0.024597
H 164.459687 4.431234 0.530380
H 166.218839 2.603785 0.180053
H 165.862193 -2.890807 0.492347
H 163.875041 -4.649950 -0.049876
H 159.308388 -6.099484 1.932459
H 160.202674 -7.502932 1.331050
H 158.858392 -6.771492 0.358337
H 160.767992 -8.057141 -0.823185
H 161.474338 -8.373901 -3.153807
H 162.118092 -6.424602 -4.518272
H 161.480870 -2.439435 -4.949910
H 160.412737 -2.881746 -3.612736
H 162.018478 -2.038959 -3.300454
H 158.687738 -4.157042 -1.649010
H 156.921080 -2.394788 -1.088202
H 162.393684 -0.724021 -0.544271
H 161.072323 6.504197 -2.767186
H 159.934824 5.742143 -1.609959
H 160.664980 4.784024 -2.929791
H 162.084231 7.813663 -0.903589
H 162.015314 8.852031 1.341150
H 161.816632 7.411734 3.359759
H 163.639013 4.178981 3.050795
H 162.675464 3.306139 4.270414
H 163.318557 4.924430 4.628169
C 173.509608 -0.013449 0.038626
C 174.300770 1.242934 0.602010
C 173.771878 2.277246 1.345700
C 174.806770 3.224764 1.532347
C 175.941469 2.738204 0.919850
N 175.640436 1.499870 0.409495
C 177.348917 3.471536 0.823790
C 178.480920 2.750049 0.592502
C 179.781669 3.378570 0.470968
C 180.691775 2.431748 0.290768
N 178.686087 1.404976 0.435198
C 180.018673 1.149808 0.246906
C 180.687858 -0.013449 0.038626
C 179.886252 -1.377146 -0.064351
C 180.385044 -2.648185 0.167347
C 179.349159 -3.570319 -0.117753
C 178.250082 -2.832662 -0.522231
C 176.855300 -3.418278 -1.000486
C 176.861430 -4.765118 -1.650483
C 176.497510 -5.897159 -0.871988
O 176.173040 -5.680718 0.443952
C 175.233700 -6.571510 1.027816
C 176.539806 -7.187445 -1.419612
C 176.950111 -7.375911 -2.730696
C 177.315171 -6.275731 -3.498935
C 177.262024 -4.971086 -2.987684
O 177.672609 -4.043755 -3.915829
C 177.002265 -2.782399 -3.899801
C 175.717790 -2.689928 -0.830472
C 174.413777 -3.198438 -1.210007
C 173.501098 -2.281041 -0.916610
C 174.178491 -1.130040 -0.350460
N 175.515133 -1.432688 -0.328859
N 178.565452 -1.500406 -0.421804
C 177.378280 4.955995 0.975586
C 177.445056 5.792520 -0.157199
O 177.505380 5.233903 -1.411403
C 176.370298 5.589496 -2.203620
C 177.514418 7.187117 -0.022406
C 177.482756 7.772761 1.240995
C 177.376314 6.967359 2.372829
C 177.343317 5.572888 2.245075
O 177.182540 4.867792 3.410387
C 178.418526 4.292391 3.840178
H 172.752137 2.361478 1.699474
H 174.735700 4.163655 2.058153
H 176.310937 0.867438 -0.024597
H 179.985636 4.431234 0.530380
H 181.744787 2.603785 0.180053
H 181.388141 -2.890807 0.492347
H 179.400990 -4.649950 -0.049876
H 174.834337 -6.099484 1.932459
H 175.728622 -7.502932 1.331050
H 174.384341 -6.771492 0.358337
H 176.293941 -8.057141 -0.823185
H 177.000286 -8.373901 -3.153807
H 177.644040 -6.424602 -4.518272
H 177.006818 -2.439435 -4.949910
H 175.938685 -2.881746 -3.612736
H 177.544426 -2.038959 -3.300454
H 174.213687 -4.157042 -1.649010
H 172.447028 -2.394788 -1.088202
H 177.919632 -0.724021 -0.544271
H 176.598271 6.504197 -2.767186
H 175.460773 5.742143 -1.609959
H 176.190928 4.784024 -2.929791
H 177.610179 7.813663 -0.903589
H 177.541262 8.852031 1.341150
H 177.342581 7.411734 3.359759
H 179.164962 4.178981 3.050795
H 178.201412 3.306139 4.270414
H 178.844506 4.924430 4.628169
C 189.035556 -0.013449 0.038626
C 189.826718 1.242934 0.602010
C 189.297826 2.277246 1.345700
C 190.332718 3.224764 1.532347
C 191.467417 2.738204 0.919850
N 191.166384 1.499870 0.409495
C 192.874865 3.471536 0.823790
C 194.006869 2.750049 0.592502
C 195.307618 3.378570 0.470968
C 196.217723 2.431748 0.290768
N 194.212036 1.404976 0.435198
C 195.544621 1.149808 0.246906
C 196.213807 -0.013449 0.038626
C 195.412201 -1.377146 -0.064351
C 195.910992 -2.648185 0.167347
C 194.875107 -3.570319 -0.117753
C 193.776030 -2.832662 -0.522231
C 192.381249 -3.418278 -1.000486
C 192.387378 -4.765118 -1.650483
C 192.023458 -5.897159 -0.871988
O 191.698988 -5.680718 0.443952
C 190.759649 -6.571510 1.027816
C 192.065754 -7.187445 -1.419612
C 192.476060 -7.375911 -2.730696
C 192.841120 -6.275731 -3.498935
C 192.787973 -4.971086 -2.987684
O 193.198557 -4.043755 -3.915829
C 192.528213 -2.782399 -3.899801
C 191.243739 -2.689928 -0.830472
C 189.939725 -3.198438 -1.210007
C 189.027047 -2.281041 -0.916610
C 189.704439 -1.130040 -0.350460
N 191.041081 -1.432688 -0.328859
N 194.091401 -1.500406 -0.421804
C 192.904229 4.955995 0.975586
C 192.971005 5.792520 -0.157199
O 193.031328 5.233903 -1.411403
C 191.896246 5.589496 -2.203620
C 193.040367 7.187117 -0.022406
C 193.008704 7.772761 1.240995
C 192.902262 6.967359 2.372829
C 192.869266 5.572888 2.245075
O 192.708489 4.867792 3.410387
C 193.944474 4.292391 3.840178
H 188.278085 2.361478 1.699474
H 190.261648 4.163655 2.058153
H 191.836886 0.867438 -0.024597
H 195.511584 4.431234 0.530380
H 197.270736 2.603785 0.180053
H 196.914089 -2.890807 0.492347
H 194.926938 -4.649950 -0.049876
H 190.360285 -6.099484 1.932459
H 191.254571 -7.502932 1.331050
H 189.910289 -6.771492 0.358337
H 191.819889 -8.057141 -0.823185
H 192.526235 -8.373901 -3.153807
H 193.169989 -6.424602 -4.518272
H 192.532766 -2.439435 -4.949910
H 191.464633 -2.881746 -3.612736
H 193.070375 -2.038959 -3.300454
H 189.739635 -4.157042 -1.649010
H 187.972977 -2.394788 -1.088202
H 193.445581 -0.724021 -0.544271
H 192.124219 6.504197 -2.767186
H 190.986721 5.742143 -1.609959
H 191.716877 4.784024 -2.929791
H 193.136127 7.813663 -0.903589
H 193.067211 8.852031 1.341150
H 192.868529 7.411734 3.359759
H 194.690910 4.178981 3.050795
H 193.727360 3.306139 4.270414
H 194.370454 4.924430 4.628169
C 204.561504 -0.013449 0.038626
C 205.352667 1.242934 0.602010
C 204.823774 2.277246 1.345700
C 205.858667 3.224764 1.532347
C 206.993365 2.738204 0.919850
N 206.692333 1.499870 0.409495
C 208.400813 3.471536 0.823790
C 209.532817 2.750049 0.592502
C 210.833566 3.378570 0.470968
C 211.743671 2.431748 0.290768
N 209.737984 1.404976 0.435198
C 211.070569 1.149808 0.246906
C 211.739755 -0.013449 0.038626
C 210.938149 -1.377146 -0.064351
C 211.436940 -2.648185 0.167347
C 210.401055 -3.570319 -0.117753
C 209.301978 -2.832662 -0.522231
C 207.907197 -3.418278 -1.000486
C 207.913326 -4.765118 -1.650483
C 207.549407 -5.897159 -0.871988
O 207.224937 -5.680718 0.443952
C 206.285597 -6.571510 1.027816
C 207.591702 -7.187445 -1.419612
C 208.002008 -7.375911 -2.730696
C 208.367068 -6.275731 -3.498935
C 208.313921 -4.971086 -2.987684
O 208.724505 -4.043755 -3.915829
C 208.054161 -2.782399 -3.899801
C 206.769687 -2.689928 -0.830472
C 205.465674 -3.198438 -1.210007
C 204.552995 -2.281041 -0.916610
C 205.230388 -1.130040 -0.350460
N 206.567030 -1.432688 -0.328859
N 209.617349 -1.500406 -0.421804
C 208.430177 4.955995 0.975586
C 208.496953 5.792520 -0.157199
O 208.557277 5.233903 -1.411403
C 207.422195 5.589496 -2.203620
C 208.566315 7.187117 -0.022406
C 208.534652 7.772761 1.240995
C 208.428210 6.967359 2.372829
C 208.395214 5.572888 2.245075
O 208.234437 4.867792 3.410387
C 209.470423 4.292391 3.840178
H 203.804033 2.361478 1.699474
H 205.787596 4.163655 2.058153
H 207.362834 0.867438 -0.024597
H 211.037532 4.431234 0.530380
H 212.796684 2.603785 0.180053
H 212.440038 -2.890807 0.492347
H 210.452886 -4.649950 -0.049876
H 205.886233 -6.099484 1.932459
H 206.780519 -7.502932 1.331050
H 205.436237 -6.771492 0.358337
H 207.345837 -8.057141 -0.823185
H 208.052183 -8.373901 -3.153807
H 208.695937 -6.424602 -4.518272
H 208.058715 -2.439435 -4.949910
H 206.990582 -2.881746 -3.612736
H 208.596323 -2.038959 -3.300454
H 205.265583 -4.157042 -1.649010
H 203.498925 -2.394788 -1.088202
H 208.971529 -0.724021 -0.544271
H 207.650168 6.504197 -2.767186
H 206.512669 5.742143 -1.609959
H 207.242825 4.784024 -2.929791
H 208.662076 7.813663 -0.903589
H 208.593159 8.852031 1.341150
H 208.394477 7.411734 3.359759
H 210.216858 4.178981 3.050795
H 209.253309 3.306139 4.270414
H 209.896402 4.924430 4.628169
C 220.087452 -0.013449 0.038626
C 220.878615 1.242934 0.602010
C 220.349723 2.277246 1.345700
C 221.384615 3.224764 1.532347
C 222.519314 2.738204 0.919850
N 222.218281 1.499870 0.409495
C 223.926762 3.471536 0.823790
C 225.058765 2.750049 0.592502
C 226.359514 3.378570 0.470968
C 227.269620 2.431748 0.290768
N 225.263932 1.404976 0.435198
C 226.596518 1.149808 0.246906
C 227.265703 -0.013449 0.038626
C 226.464097 -1.377146 -0.064351
C 226.962888 -2.648185 0.167347
C 225.927004 -3.570319 -0.117753
C 224.827927 -2.832662 -0.522231
C 223.433145 -3.418278 -1.000486
C 223.439275 -4.765118 -1.650483
C 223.075355 -5.897159 -0.871988
O 222.750885 -5.680718 0.443952
C 221.811545 -6.571510 1.027816
C 223.117651 -7.187445 -1.419612
C 223.527956 -7.375911 -2.730696
C 223.893016 -6.275731 -3.498935
C 223.839869 -4.971086 -2.987684
O 224.250453 -4.043755 -3.915829
C 223.580110 -2.782399 -3.899801
C 222.295635 -2.689928 -0.830472
C 220.991622 -3.198438 -1.210007
C 220.078943 -2.281041 -0.916610
C 220.756336 -1.130040 -0.350460
N 222.092978 -1.432688 -0.328859
N 225.143297 -1.500406 -0.421804
C 223.956125 4.955995 0.975586
C 224.022901 5.792520 -0.157199
O 224.083225 5.233903 -1.411403
C 222.948143 5.589496 -2.203620
C 224.092263 7.187117 -0.022406
C 224.060601 7.772761 1.240995
C 223.954159 6.967359 2.372829
C 223.921162 5.572888 2.245075
O 223.760385 4.867792 3.410387
C 224.996371 4.292391 3.840178
H 219.329982 2.361478 1.699474
H 221.313545 4.163655 2.058153
H 222.888782 0.867438 -0.024597
H 226.563481 4.431234 0.530380
H 228.322632 2.603785 0.180053
H 227.965986 -2.890807 0.492347
H 225.978835 -4.649950 -0.049876
H 221.412182 -6.099484 1.932459
H 222.306467 -7.502932 1.331050
H 220.962185 -6.771492 0.358337
H 222.871786 -8.057141 -0.823185
H 223.578131 -8.373901 -3.153807
H 224.221885 -6.424602 -4.518272
H 223.584663 -2.439435 -4.949910
H 222.516530 -2.881746 -3.612736
H 224.122271 -2.038959 -3.300454
H 220.791532 -4.157042 -1.649010
H 219.024873 -2.394788 -1.088202
H 224.497477 -0.724021 -0.544271
H 223.176116 6.504197 -2.767186
H 222.038618 5.742143 -1.609959
H 222.768773 4.784024 -2.929791
H 224.188024 7.813663 -0.903589
H 224.119107 8.852031 1.341150
H 223.920426 7.411734 3.359759
H 225.742807 4.178981 3.050795
H 224.779257 3.306139 4.270414
H 225.422351 4.924430 4.628169
C 235.613401 -0.013449 0.038626
C 236.404563 1.242934 0.602010
C 235.875671 2.277246 1.345700
C 236.910563 3.224764 1.532347
C 238.045262 2.738204 0.919850
N 237.744229 1.499870 0.409495
C 239.452710 3.471536 0.823790
C 240.584714 2.750049 0.592502
C 241.885463 3.378570 0.470968
C 242.795568 2.431748 0.290768
N 240.789881 1.404976 0.435198
C 242.122466 1.149808 0.246906
C 242.791651 -0.013449 0.038626
C 241.990046 -1.377146 -0.064351
C 242.488837 -2.648185 0.167347
C 241.452952 -3.570319 -0.117753
C 240.353875 -2.832662 -0.522231
C 238.959094 -3.418278 -1.000486
C 238.965223 -4.765118 -1.650483
C 238.601303 -5.897159 -0.871988
O 238.276833 -5.680718 0.443952
C 237.337494 -6.571510 1.027816
C 238.643599 -7.187445 -1.419612
C 239.053905 -7.375911 -2.730696
C 239.418965 -6.275731 -3.498935
C 239.365818 -4.971086 -2.987684
O 239.776402 -4.043755 -3.915829
C 239.106058 -2.782399 -3.899801
C 237.821584 -2.689928 -0.830472
C 236.517570 -3.198438 -1.210007
C 235.604891 -2.281041 -0.916610
C 236.282284 -1.130040 -0.350460
N 237.618926 -1.432688 -0.328859
N 240.669245 -1.500406 -0.421804
C 239.482074 4.955995 0.975586
C 239.548849 5.792520 -0.157199
O 239.609173 5.233903 -1.411403
C 238.474091 5.589496 -2.203620
C 239.618212 7.187117 -0.022406
C 239.586549 7.772761 1.240995
C 239.480107 6.967359 2.372829
C 239.447111 5.572888 2.245075
O 239.286334 4.867792 3.410387
C 240.522319 4.292391 3.840178
H 234.855930 2.361478 1.699474
H 236.839493 4.163655 2.058153
H 238.414731 0.867438 -0.024597
H 242.089429 4.431234 0.530380
H 243.848581 2.603785 0.180053
H 243.491934 -2.890807 0.492347
H 241.504783 -4.649950 -0.049876
H 236.938130 -6.099484 1.932459
H 237.832416 -7.502932 1.331050
H 236.488134 -6.771492 0.358337
H 238.397734 -8.057141 -0.823185
H 239.104080 -8.373901 -3.153807
H 239.747834 -6.424602 -4.518272
H 239.110611 -2.439435 -4.949910
H 238.042478 -2.881746 -3.612736
H 239.648220 -2.038959 -3.300454
H 236.317480 -4.157042 -1.649010
H 234.550822 -2.394788 -1.088202
H 240.023426 -0.724021 -0.544271
H 238.702064 6.504197 -2.767186
H 237.564566 5.742143 -1.609959
H 238.294722 4.784024 -2.929791
H 239.713972 7.813663 -0.903589
H 239.645056 8.852031 1.341150
H 239.446374 7.411734 3.359759
H 241.268755 4.178981 3.050795
H 240.305205 3.306139 4.270414
H 240.948299 4.924430 4.628169
C 251.139349 -0.013449 0.038626
C 251.930512 1.242934 0.602010
C 251.401619 2.277246 1.345700
C 252.436512 3.224764 1.532347
C 253.571210 2.738204 0.919850
N 253.270178 1.499870 0.409495
C 254.978658 3.471536 0.823790
C 256.110662 2.750049 0.592502
C 257.411411 3.378570 0.470968
C 258.321516 2.431748 0.290768
N 256.315829 1.404976 0.435198
C 257.648414 1.149808 0.246906
C 258.317600 -0.013449 0.038626
C 257.515994 -1.377146 -0.064351
C 258.014785 -2.648185 0.167347
C 256.978900 -3.570319 -0.117753
C 255.879823 -2.832662 -0.522231
C 254.485042 -3.418278 -1.000486
C 254.491171 -4.765118 -1.650483
C 254.127252 -5.897159 -0.871988
O 253.802782 -5.680718 0.443952
C 252.863442 -6.571510 1.027816
C 254.169547 -7.187445 -1.419612
C 254.579853 -7.375911 -2.730696
C 254.944913 -6.275731 -3.498935
C 254.891766 -4.971086 -2.987684
O 255.302350 -4.043755 -3.915829
C 254.632006 -2.782399 -3.899801
C 253.347532 -2.689928 -0.830472
C 252.043519 -3.198438 -1.210007
C 251.130840 -2.281041 -0.916610
C 251.808233 -1.130040 -0.350460
N 253.144875 -1.432688 -0.328859
N 256.195194 -1.500406 -0.421804
C 255.008022 4.955995 0.975586
C 255.074798 5.792520 -0.157199
O 255.135122 5.233903 -1.411403
C 254.000040 5.589496 -2.203620
C 255.144160 7.187117 -0.022406
C 255.112497 7.772761 1.240995
C 255.006055 6.967359 2.372829
C 254.973059 5.572888 2.245075
O 254.812282 4.867792 3.410387
C 256.048268 4.292391 3.840178
H 250.381878 2.361478 1.699474
H 252.365441 4.163655 2.058153
H 253.940679 0.867438 -0.024597
H 257.615377 4.431234 0.530380
H 259.374529 2.603785 0.180053
H 259.017882 -2.890807 0.492347
H 257.030731 -4.649950 -0.049876
H 252.464078 -6.099484 1.932459
H 253.358364 -7.502932 1.331050
H 252.014082 -6.771492 0.358337
H 253.923682 -8.057141 -0.823185
H 254.630028 -8.373901 -3.153807
H 255.273782 -6.424602 -4.518272
H 254.636560 -2.439435 -4.949910
H 253.568426 -2.881746 -3.612736
H 255.174168 -2.038959 -3.300454
H 251.843428 -4.157042 -1.649010
H 250.076770 -2.394788 -1.088202
H 255.549374 -0.724021 -0.544271
H 254.228013 6.504197 -2.767186
H 253.090514 5.742143 -1.609959
H 253.820670 4.784024 -2.929791
H 255.239921 7.813663 -0.903589
H 255.171004 8.852031 1.341150
H 254.972322 7.411734 3.359759
H 256.794703 4.178981 3.050795
H 255.831154 3.306139 4.270414
H 256.474247 4.924430 4.628169
