128

Zn 13.538322 0.027889 0.001227
C 10.201576 -0.097109 -0.076469
C 10.864773 -1.248442 -0.219188
C 10.214066 -2.546973 -0.345221
C 11.154555 -3.460081 -0.499652
C 12.459973 -2.785448 -0.490823
N 12.282967 -1.380682 -0.303466
C 13.652441 -3.395507 -0.653436
C 13.699825 -4.857401 -0.882691
C 14.215126 -5.706840 0.105409
C 14.273886 -7.085923 -0.112034
C 13.821099 -7.638084 -1.324774
N 13.876963 -9.058274 -1.551415
O 13.432513 -9.595560 -2.738312
O 14.316599 -9.826514 -0.670302
C 13.311856 -6.779538 -2.315109
C 13.253820 -5.400344 -2.096377
C 14.945454 -2.662317 -0.624323
C 16.232035 -3.261409 -1.000883
C 17.166378 -2.346893 -0.836662
N 15.086205 -1.428374 -0.246716
C 16.483396 -1.152999 -0.353030
C 17.076814 -0.000976 -0.000683
C 16.313520 1.173962 0.477008
C 16.845950 2.186836 1.149012
C 15.802360 3.175851 1.337142
C 14.701876 2.703394 0.762990
N 14.934780 1.414477 0.192089
C 13.419937 3.448564 0.668939
C 13.437433 4.916261 0.880785
C 12.775289 5.484763 1.979044
C 12.812381 6.866117 2.187540
C 13.516741 7.702716 1.304100
N 13.551511 9.125205 1.520772
O 12.946408 9.678916 2.626254
O 14.135234 9.878370 0.713560
C 14.187303 7.126235 0.209312
C 14.150348 5.744346 0.002448
C 12.257816 2.822444 0.401743
C 10.947653 3.455360 0.258698
C 10.086200 2.475816 0.065529
C 10.837611 1.221682 0.070175
N 12.104126 1.411434 0.264501
H 9.118094 -0.125289 -0.070622
H 9.149922 -2.744850 -0.316078
H 10.966684 -4.520068 -0.611385
H 14.569082 -5.300040 1.044914
H 14.674452 -7.719883 0.668059
H 12.959410 -7.173215 -3.259855
H 12.862522 -4.754450 -2.872714
H 16.404900 -4.269491 -1.354810
H 18.221971 -2.486158 -1.029639
H 17.872552 2.278088 1.476433
H 15.912515 4.132358 1.832297
H 12.234258 4.856252 2.676151
H 12.290440 7.279152 3.041215
H 14.745572 7.742507 -0.482998
H 14.677235 5.318559 -0.843025
H 10.704283 4.508924 0.299033
H 9.019673 2.594088 -0.074655
Zn 31.798022 -0.028451 -0.009736
C 35.134768 0.116559 -0.034894
C 34.471571 1.237407 0.264502
C 35.122278 2.488456 0.634560
C 34.181789 3.392850 0.833774
C 32.876371 2.764127 0.588999
N 33.053378 1.391600 0.235958
C 31.683903 3.390651 0.666997
C 31.636519 4.831848 1.002619
C 31.121219 5.248816 2.237133
C 31.062458 6.608815 2.552653
C 31.515246 7.575419 1.635431
N 31.459381 8.976975 1.957838
O 31.903831 9.920099 1.058995
O 31.019745 9.358784 3.062725
C 32.024489 7.150846 0.395429
C 32.082525 5.790261 0.081062
C 30.390890 2.700037 0.419070
C 29.104310 3.396614 0.294618
C 28.169966 2.487244 0.103952
N 30.250140 1.414533 0.306449
C 28.852949 1.199113 0.104638
C 28.259531 -0.000976 -0.000683
C 29.022824 -1.269307 0.001603
C 28.490394 -2.460257 0.244793
C 29.533984 -3.447656 0.048356
C 30.634468 -2.794385 -0.306754
N 30.401564 -1.385441 -0.352712
C 31.916407 -3.449924 -0.673351
C 31.898912 -4.889973 -1.027287
C 32.561055 -5.828800 -0.222321
C 32.523963 -7.187549 -0.546987
C 31.819603 -7.631858 -1.679662
N 31.784833 -9.031808 -2.012173
O 32.389937 -9.959631 -1.194964
O 31.201110 -9.427351 -3.042898
C 31.149041 -6.686935 -2.478420
C 31.185996 -5.328302 -2.152039
C 33.078528 -2.769296 -0.686284
C 34.388691 -3.302400 -1.056210
C 35.250145 -2.321892 -0.867997
C 34.498733 -1.160999 -0.393441
N 33.232218 -1.409772 -0.284442
H 36.218250 0.140491 -0.018908
H 36.186422 2.660969 0.735772
H 34.369660 4.417397 1.127644
H 30.767262 4.519420 2.955559
H 30.661892 6.904020 3.513541
H 32.376934 7.870042 -0.332777
H 32.473822 5.482584 -0.880818
H 28.931445 4.463856 0.344503
H 27.114373 2.688707 -0.022727
H 27.463792 -2.667621 0.514110
H 29.423830 -4.520040 0.148735
H 33.102087 -5.507530 0.659593
H 33.045905 -7.890543 0.089534
H 30.590772 -6.998657 -3.351297
H 30.659109 -4.616563 -2.776175
H 34.632061 -4.294222 -1.413861
H 36.316671 -2.378972 -1.042301
C 18.167809 0.014643 0.010243
C 19.626035 -0.007193 -0.007630
C 20.759963 -0.027947 -0.009121
C 22.121345 -0.040537 -0.011312
C 23.395564 -0.030231 -0.016077
C 24.584026 -0.011432 -0.022234
C 25.936387 0.013352 -0.006366
C 27.036654 0.014643 0.010243
