132

Cu 16.779085 0.016507 -0.051656
C 13.447208 0.106348 0.092293
C 14.101882 -0.224715 1.209072
C 13.442597 -0.625185 2.446138
C 14.377326 -0.853057 3.350080
C 15.687349 -0.595350 2.736105
N 15.519050 -0.206045 1.372332
C 16.876562 -0.692051 3.366501
C 16.918642 -1.064539 4.799208
C 16.436819 -0.181433 5.778041
C 16.493184 -0.531065 7.130186
C 17.042338 -1.760966 7.518462
S 17.104833 -2.208799 9.219404
O 17.144231 -0.970272 10.071056
O 15.741095 -3.114314 9.602347
O 18.343003 -3.020234 9.481287
C 17.523904 -2.643403 6.542016
C 17.466431 -2.295729 5.189361
C 18.172540 -0.431372 2.686612
C 19.454439 -0.308568 3.391481
C 20.394234 -0.115380 2.488511
N 18.321193 -0.313331 1.402795
C 19.719059 -0.110036 1.196580
C 20.318717 0.000212 0.000060
C 19.559644 0.011135 -1.270069
C 20.091397 -0.235511 -2.460549
C 19.054170 -0.015723 -3.449854
C 17.958456 0.355687 -2.797709
N 18.188072 0.389227 -1.388255
C 16.686610 0.754773 -3.453314
C 16.718240 1.138699 -4.885708
C 16.025331 0.380252 -5.843110
C 16.077350 0.733957 -7.194475
C 16.823314 1.847471 -7.603811
S 16.904223 2.283609 -9.307787
O 17.062504 3.771561 -9.450989
O 18.206956 1.505224 -10.029992
O 15.634673 1.868572 -9.996285
C 17.528965 2.595919 -6.652177
C 17.477449 2.243603 -5.300514
C 15.522743 0.777676 -2.775677
C 14.222255 1.188815 -3.302037
C 13.355051 1.000716 -2.326037
C 14.093432 0.484812 -1.174505
N 15.357439 0.350718 -1.425065
H 12.363585 0.099521 0.110558
H 12.377594 -0.730057 2.608834
H 14.182419 -1.176736 4.364062
H 16.018436 0.776005 5.492346
H 16.108977 0.157484 7.871754
H 15.845364 -3.340398 10.561344
H 17.942755 -3.600184 6.826955
H 17.845828 -2.985507 4.445293
H 19.620635 -0.362088 4.459392
H 21.448458 0.009801 2.696695
H 21.114650 -0.519934 -2.666170
H 19.165609 -0.111009 -4.522204
H 15.451070 -0.487519 -5.542407
H 15.540954 0.136158 -7.920286
H 18.999034 1.802486 -9.514720
H 18.121873 3.449270 -6.955980
H 18.028342 2.831330 -4.576340
H 13.988750 1.574543 -4.285567
H 12.293245 1.202018 -2.380065
Cu 30.691584 -0.003746 0.054138
C 34.023461 0.132909 -0.046451
C 33.368787 0.237731 -1.206542
C 34.028073 0.322480 -2.504049
C 33.093344 0.444587 -3.428238
C 31.783320 0.457304 -2.762494
N 31.951619 0.315380 -1.351362
C 30.594107 0.600274 -3.384032
C 30.552027 0.783285 -4.853012
C 31.033851 1.965476 -5.436465
C 30.977485 2.139973 -6.822137
C 30.428331 1.140442 -7.637216
S 30.365836 1.352508 -9.383294
O 30.326438 2.818015 -9.717284
O 31.729574 0.652458 -10.073607
O 29.127666 0.695173 -9.926359
C 29.946766 -0.040244 -7.055735
C 30.004238 -0.216750 -5.670312
C 29.298129 0.591407 -2.655936
C 28.016230 0.965867 -3.265608
C 27.076435 0.811889 -2.355132
N 29.149476 0.226931 -1.419296
C 27.751610 0.339687 -1.152577
C 27.151952 0.000212 0.000060
C 27.911025 -0.458752 1.184416
C 27.379272 -1.127656 2.199623
C 28.416499 -1.288803 3.200154
C 29.512213 -0.702788 2.731299
N 29.282598 -0.151045 1.433892
C 30.784059 -0.574065 3.487948
C 30.752429 -0.746332 4.960861
C 31.445338 -1.804762 5.570440
C 31.393319 -1.975186 6.956892
C 30.647356 -1.091592 7.748555
S 30.566446 -1.315647 9.493133
O 30.408165 0.014206 10.175777
O 29.263714 -2.305737 9.876781
O 31.835996 -1.955630 9.979657
C 29.941704 -0.044584 7.140644
C 29.993220 0.127241 5.754428
C 31.947926 -0.302499 2.866684
C 33.248414 -0.114840 3.507678
C 34.115618 0.070841 2.531215
C 33.377237 0.016728 1.270558
N 32.113230 -0.200427 1.453875
H 35.107084 0.133311 -0.065946
H 35.093076 0.285115 -2.693975
H 33.288250 0.518303 -4.490074
H 31.452233 2.749696 -4.817345
H 31.361692 3.053730 -7.256960
H 31.625305 0.796560 -11.048298
H 29.527914 -0.824133 -7.673909
H 29.624841 -1.132572 -5.233621
H 27.850035 1.310559 -4.277778
H 26.022211 1.005110 -2.502361
H 26.356019 -1.467913 2.285655
H 28.305060 -1.773418 4.161487
H 32.019599 -2.500112 4.970492
H 31.929716 -2.798791 7.410589
H 28.471635 -1.839180 9.507734
H 29.348796 0.636220 7.738147
H 29.442327 0.940881 5.298532
H 33.481919 -0.119647 4.564132
H 35.177424 0.237955 2.655773
C 22.999843 0.012383 0.002427
C 21.747573 -0.006797 -0.001922
C 24.313511 0.011618 0.004359
C 25.816645 -0.006797 -0.001922
