 xtb: 6.5.1 (b24c23e)
          07302213323D

132151  0     0  0            999 V2000
   17.0023    0.0222    0.0525 Cu  0  0  0  0  0  0  0  0  0  0  0  0
   13.5974    0.1174    0.0994 C   0  0  0  0  0  0  0  0  0  0  0  0
   14.2292   -0.1997    1.2924 C   0  0  0  0  0  0  0  0  0  0  0  0
   13.5506   -0.5258    2.5143 C   0  0  0  0  0  0  0  0  0  0  0  0
   14.5067   -0.7745    3.4428 C   0  0  0  0  0  0  0  0  0  0  0  0
   15.7794   -0.5895    2.7987 C   0  0  0  0  0  0  0  0  0  0  0  0
   15.5795   -0.2496    1.4922 N   0  0  0  0  0  0  0  0  0  0  0  0
   17.0239   -0.7539    3.4119 C   0  0  0  0  0  0  0  0  0  0  0  0
   17.0336   -1.0950    4.8556 C   0  0  0  0  0  0  0  0  0  0  0  0
   16.4886   -0.2135    5.7926 C   0  0  0  0  0  0  0  0  0  0  0  0
   16.4978   -0.5266    7.1419 C   0  0  0  0  0  0  0  0  0  0  0  0
   17.0521   -1.7320    7.5410 C   0  0  0  0  0  0  0  0  0  0  0  0
   17.0768   -2.1297    9.2480 S   0  0  0  0  0  0  0  0  0  0  0  0
   17.0084   -0.9418   10.0470 O   0  0  0  0  0  0  0  0  0  0  0  0
   15.6418   -2.8867    9.3357 O   0  0  0  0  0  0  0  0  0  0  0  0
   18.1028   -3.0890    9.5353 O   0  0  0  0  0  0  0  0  0  0  0  0
   17.6013   -2.6262    6.6363 C   0  0  0  0  0  0  0  0  0  0  0  0
   17.5907   -2.3004    5.2901 C   0  0  0  0  0  0  0  0  0  0  0  0
   18.2596   -0.6231    2.7743 C   0  0  0  0  0  0  0  0  0  0  0  0
   19.5359   -0.7247    3.4244 C   0  0  0  0  0  0  0  0  0  0  0  0
   20.4834   -0.5261    2.4734 C   0  0  0  0  0  0  0  0  0  0  0  0
   18.4500   -0.3526    1.4457 N   0  0  0  0  0  0  0  0  0  0  0  0
   19.7941   -0.2953    1.2394 C   0  0  0  0  0  0  0  0  0  0  0  0
   20.4313   -0.0567    0.0091 C   0  0  0  0  0  0  0  0  0  0  0  0
   19.7746    0.2050   -1.2059 C   0  0  0  0  0  0  0  0  0  0  0  0
   20.4421    0.4004   -2.4580 C   0  0  0  0  0  0  0  0  0  0  0  0
   19.4807    0.6377   -3.3858 C   0  0  0  0  0  0  0  0  0  0  0  0
   18.2181    0.5977   -2.7031 C   0  0  0  0  0  0  0  0  0  0  0  0
   18.4296    0.3219   -1.3787 N   0  0  0  0  0  0  0  0  0  0  0  0
   16.9742    0.7898   -3.3087 C   0  0  0  0  0  0  0  0  0  0  0  0
   16.9642    1.1279   -4.7532 C   0  0  0  0  0  0  0  0  0  0  0  0
   16.3464    0.2776   -5.6735 C   0  0  0  0  0  0  0  0  0  0  0  0
   16.3343    0.5908   -7.0229 C   0  0  0  0  0  0  0  0  0  0  0  0
   16.9439    1.7631   -7.4391 C   0  0  0  0  0  0  0  0  0  0  0  0
   16.9208    2.1714   -9.1445 S   0  0  0  0  0  0  0  0  0  0  0  0
   17.0559    3.5861   -9.3394 O   0  0  0  0  0  0  0  0  0  0  0  0
   18.3266    1.4861   -9.5820 O   0  0  0  0  0  0  0  0  0  0  0  0
   15.8500    1.4856   -9.8034 O   0  0  0  0  0  0  0  0  0  0  0  0
   17.5602    2.6290   -6.5502 C   0  0  0  0  0  0  0  0  0  0  0  0
   17.5692    2.3040   -5.2039 C   0  0  0  0  0  0  0  0  0  0  0  0
   15.7398    0.6946   -2.6616 C   0  0  0  0  0  0  0  0  0  0  0  0
   14.4621    0.9493   -3.2711 C   0  0  0  0  0  0  0  0  0  0  0  0
   13.5198    0.7587   -2.3153 C   0  0  0  0  0  0  0  0  0  0  0  0
   14.2127    0.3973   -1.1113 C   0  0  0  0  0  0  0  0  0  0  0  0
   15.5575    0.3696   -1.3488 N   0  0  0  0  0  0  0  0  0  0  0  0
   12.5129    0.1488    0.1147 H   0  0  0  0  0  0  0  0  0  0  0  0
   12.4791   -0.5657    2.6299 H   0  0  0  0  0  0  0  0  0  0  0  0
   14.3695   -1.0689    4.4709 H   0  0  0  0  0  0  0  0  0  0  0  0
   16.0711    0.7300    5.4607 H   0  0  0  0  0  0  0  0  0  0  0  0
   16.0883    0.1542    7.8775 H   0  0  0  0  0  0  0  0  0  0  0  0
   15.5043   -3.2370   10.2243 H   0  0  0  0  0  0  0  0  0  0  0  0
   18.0313   -3.5572    6.9837 H   0  0  0  0  0  0  0  0  0  0  0  0
   18.0059   -2.9904    4.5648 H   0  0  0  0  0  0  0  0  0  0  0  0
   19.6846   -0.9082    4.4762 H   0  0  0  0  0  0  0  0  0  0  0  0
   21.5554   -0.5272    2.5891 H   0  0  0  0  0  0  0  0  0  0  0  0
   21.5098    0.3522   -2.6007 H   0  0  0  0  0  0  0  0  0  0  0  0
   19.6106    0.8103   -4.4419 H   0  0  0  0  0  0  0  0  0  0  0  0
   15.8850   -0.6404   -5.3288 H   0  0  0  0  0  0  0  0  0  0  0  0
   15.8577   -0.0606   -7.7446 H   0  0  0  0  0  0  0  0  0  0  0  0
   18.6473    1.8787  -10.4034 H   0  0  0  0  0  0  0  0  0  0  0  0
   18.0166    3.5432   -6.9082 H   0  0  0  0  0  0  0  0  0  0  0  0
   18.0346    2.9738   -4.4902 H   0  0  0  0  0  0  0  0  0  0  0  0
   14.3129    1.2479   -4.2962 H   0  0  0  0  0  0  0  0  0  0  0  0
   12.4495    0.8595   -2.4010 H   0  0  0  0  0  0  0  0  0  0  0  0
   30.4673    0.0396   -0.0405 Cu  0  0  0  0  0  0  0  0  0  0  0  0
   33.8723    0.1443   -0.0472 C   0  0  0  0  0  0  0  0  0  0  0  0
   33.2411    0.2905   -1.2732 C   0  0  0  0  0  0  0  0  0  0  0  0
   33.9203    0.4386   -2.5289 C   0  0  0  0  0  0  0  0  0  0  0  0
   32.9648    0.5516   -3.4839 C   0  0  0  0  0  0  0  0  0  0  0  0
   31.6918    0.4861   -2.8175 C   0  0  0  0  0  0  0  0  0  0  0  0
   31.8909    0.3189   -1.4779 N   0  0  0  0  0  0  0  0  0  0  0  0
   30.4477    0.5605   -3.4488 C   0  0  0  0  0  0  0  0  0  0  0  0
   30.4388    0.7768   -4.9164 C   0  0  0  0  0  0  0  0  0  0  0  0
   30.9839    1.9421   -5.4615 C   0  0  0  0  0  0  0  0  0  0  0  0
   30.9756    2.1489   -6.8311 C   0  0  0  0  0  0  0  0  0  0  0  0
   30.4222    1.1757   -7.6472 C   0  0  0  0  0  0  0  0  0  0  0  0
   30.3985    1.4360   -9.3806 S   0  0  0  0  0  0  0  0  0  0  0  0
   30.4668    2.8348   -9.6848 O   0  0  0  0  0  0  0  0  0  0  0  0
   31.8338    0.7649   -9.7408 O   0  0  0  0  0  0  0  0  0  0  0  0
   29.3730    0.6502  -10.0021 O   0  0  0  0  0  0  0  0  0  0  0  0
   29.8729    0.0106   -7.1368 C   0  0  0  0  0  0  0  0  0  0  0  0
   29.8825   -0.1833   -5.7654 C   0  0  0  0  0  0  0  0  0  0  0  0
   29.2115    0.4463   -2.8088 C   0  0  0  0  0  0  0  0  0  0  0  0
   27.9356    0.5918   -3.4512 C   0  0  0  0  0  0  0  0  0  0  0  0
   26.9875    0.4243   -2.4948 C   0  0  0  0  0  0  0  0  0  0  0  0
   29.0204    0.2062   -1.4744 N   0  0  0  0  0  0  0  0  0  0  0  0
   27.6761    0.1826   -1.2624 C   0  0  0  0  0  0  0  0  0  0  0  0
   27.0382   -0.0506   -0.0316 C   0  0  0  0  0  0  0  0  0  0  0  0
   27.6943   -0.2562    1.1947 C   0  0  0  0  0  0  0  0  0  0  0  0
   27.0261   -0.5370    2.4300 C   0  0  0  0  0  0  0  0  0  0  0  0
   27.9870   -0.6585    3.3805 C   0  0  0  0  0  0  0  0  0  0  0  0
   29.2500   -0.4433    2.7320 C   0  0  0  0  0  0  0  0  0  0  0  0
   29.0392   -0.2109    1.3992 N   0  0  0  0  0  0  0  0  0  0  0  0
   30.4934   -0.4879    3.3665 C   0  0  0  0  0  0  0  0  0  0  0  0
   30.5028   -0.7069    4.8338 C   0  0  0  0  0  0  0  0  0  0  0  0
   31.1203   -1.8371    5.3751 C   0  0  0  0  0  0  0  0  0  0  0  0
   31.1317   -2.0446    6.7447 C   0  0  0  0  0  0  0  0  0  0  0  0
   30.5219   -1.1089    7.5643 C   0  0  0  0  0  0  0  0  0  0  0  0
   30.5436   -1.3603    9.2998 S   0  0  0  0  0  0  0  0  0  0  0  0
   30.4085   -0.1182   10.0044 O   0  0  0  0  0  0  0  0  0  0  0  0
   29.1375   -2.1584    9.4519 O   0  0  0  0  0  0  0  0  0  0  0  0
   31.6140   -2.2416    9.6586 O   0  0  0  0  0  0  0  0  0  0  0  0
   29.9062    0.0244    7.0579 C   0  0  0  0  0  0  0  0  0  0  0  0
   29.8978    0.2198    5.6867 C   0  0  0  0  0  0  0  0  0  0  0  0
   31.7283   -0.3375    2.7308 C   0  0  0  0  0  0  0  0  0  0  0  0
   33.0056   -0.3257    3.3921 C   0  0  0  0  0  0  0  0  0  0  0  0
   33.9484   -0.1506    2.4338 C   0  0  0  0  0  0  0  0  0  0  0  0
   33.2564   -0.0422    1.1811 C   0  0  0  0  0  0  0  0  0  0  0  0
   31.9114   -0.1552    1.3907 N   0  0  0  0  0  0  0  0  0  0  0  0
   34.9568    0.1785   -0.0493 H   0  0  0  0  0  0  0  0  0  0  0  0
   34.9920    0.4434   -2.6505 H   0  0  0  0  0  0  0  0  0  0  0  0
   33.1025    0.6580   -4.5479 H   0  0  0  0  0  0  0  0  0  0  0  0
   31.4007    2.6965   -4.8045 H   0  0  0  0  0  0  0  0  0  0  0  0
   31.3851    3.0533   -7.2632 H   0  0  0  0  0  0  0  0  0  0  0  0
   31.9715    0.7670  -10.6958 H   0  0  0  0  0  0  0  0  0  0  0  0
   29.4436   -0.7266   -7.8036 H   0  0  0  0  0  0  0  0  0  0  0  0
   29.4672   -1.0923   -5.3462 H   0  0  0  0  0  0  0  0  0  0  0  0
   27.7876    0.8103   -4.4963 H   0  0  0  0  0  0  0  0  0  0  0  0
   25.9156    0.4655   -2.6034 H   0  0  0  0  0  0  0  0  0  0  0  0
   25.9584   -0.6349    2.5442 H   0  0  0  0  0  0  0  0  0  0  0  0
   27.8566   -0.8879    4.4257 H   0  0  0  0  0  0  0  0  0  0  0  0
   31.5819   -2.5630    4.7158 H   0  0  0  0  0  0  0  0  0  0  0  0
   31.6081   -2.9165    7.1749 H   0  0  0  0  0  0  0  0  0  0  0  0
   28.8143   -2.0941   10.3591 H   0  0  0  0  0  0  0  0  0  0  0  0
   29.4498    0.7419    7.7282 H   0  0  0  0  0  0  0  0  0  0  0  0
   29.4329    1.1060    5.2708 H   0  0  0  0  0  0  0  0  0  0  0  0
   33.1541   -0.4262    4.4551 H   0  0  0  0  0  0  0  0  0  0  0  0
   35.0187   -0.0886    2.5514 H   0  0  0  0  0  0  0  0  0  0  0  0
   23.0596   -0.0838   -0.0132 C   0  0  0  0  0  0  0  0  0  0  0  0
   21.8380   -0.0766   -0.0055 C   0  0  0  0  0  0  0  0  0  0  0  0
   24.4100   -0.0830   -0.0208 C   0  0  0  0  0  0  0  0  0  0  0  0
   25.6316   -0.0737   -0.0260 C   0  0  0  0  0  0  0  0  0  0  0  0
  2  3  4  0  0  0  0
  3  4  1  0  0  0  0
  4  5  2  0  0  0  0
  5  6  4  0  0  0  0
  1  7  1  0  0  0  0
  3  7  4  0  0  0  0
  6  7  4  0  0  0  0
  6  8  4  0  0  0  0
  8  9  1  0  0  0  0
  9 10  4  0  0  0  0
 10 11  4  0  0  0  0
 11 12  4  0  0  0  0
 12 13  1  0  0  0  0
 13 14  2  0  0  0  0
 13 15  1  0  0  0  0
 13 16  2  0  0  0  0
 12 17  4  0  0  0  0
  9 18  4  0  0  0  0
 17 18  4  0  0  0  0
  8 19  4  0  0  0  0
 19 20  4  0  0  0  0
 20 21  2  0  0  0  0
  1 22  1  0  0  0  0
 19 22  4  0  0  0  0
 21 23  4  0  0  0  0
 22 23  4  0  0  0  0
 23 24  4  0  0  0  0
 24 25  4  0  0  0  0
 25 26  4  0  0  0  0
 26 27  2  0  0  0  0
 27 28  4  0  0  0  0
  1 29  1  0  0  0  0
 25 29  4  0  0  0  0
 28 29  4  0  0  0  0
 28 30  4  0  0  0  0
 30 31  1  0  0  0  0
 31 32  4  0  0  0  0
 32 33  4  0  0  0  0
 33 34  4  0  0  0  0
 34 35  1  0  0  0  0
 35 36  2  0  0  0  0
 35 37  1  0  0  0  0
 35 38  2  0  0  0  0
 34 39  4  0  0  0  0
 31 40  4  0  0  0  0
 39 40  4  0  0  0  0
 30 41  4  0  0  0  0
 41 42  4  0  0  0  0
 42 43  2  0  0  0  0
  2 44  4  0  0  0  0
 43 44  1  0  0  0  0
  1 45  1  0  0  0  0
 41 45  4  0  0  0  0
 44 45  4  0  0  0  0
  2 46  1  0  0  0  0
  4 47  1  0  0  0  0
  5 48  1  0  0  0  0
 10 49  1  0  0  0  0
 11 50  1  0  0  0  0
 15 51  1  0  0  0  0
 17 52  1  0  0  0  0
 18 53  1  0  0  0  0
 20 54  1  0  0  0  0
 21 55  1  0  0  0  0
 26 56  1  0  0  0  0
 27 57  1  0  0  0  0
 32 58  1  0  0  0  0
 33 59  1  0  0  0  0
 37 60  1  0  0  0  0
 39 61  1  0  0  0  0
 40 62  1  0  0  0  0
 42 63  1  0  0  0  0
 43 64  1  0  0  0  0
 66 67  4  0  0  0  0
 67 68  1  0  0  0  0
 68 69  2  0  0  0  0
 69 70  4  0  0  0  0
 65 71  1  0  0  0  0
 67 71  4  0  0  0  0
 70 71  4  0  0  0  0
 70 72  4  0  0  0  0
 72 73  1  0  0  0  0
 73 74  4  0  0  0  0
 74 75  4  0  0  0  0
 75 76  4  0  0  0  0
 76 77  1  0  0  0  0
 77 78  2  0  0  0  0
 77 79  1  0  0  0  0
 77 80  2  0  0  0  0
 76 81  4  0  0  0  0
 73 82  4  0  0  0  0
 81 82  4  0  0  0  0
 72 83  4  0  0  0  0
 83 84  4  0  0  0  0
 84 85  2  0  0  0  0
 65 86  1  0  0  0  0
 83 86  4  0  0  0  0
 85 87  4  0  0  0  0
 86 87  4  0  0  0  0
 87 88  4  0  0  0  0
 88 89  4  0  0  0  0
 89 90  4  0  0  0  0
 90 91  2  0  0  0  0
 91 92  4  0  0  0  0
 65 93  1  0  0  0  0
 89 93  4  0  0  0  0
 92 93  4  0  0  0  0
 92 94  4  0  0  0  0
 94 95  1  0  0  0  0
 95 96  4  0  0  0  0
 96 97  4  0  0  0  0
 97 98  4  0  0  0  0
 98 99  1  0  0  0  0
 99100  2  0  0  0  0
 99101  1  0  0  0  0
 99102  2  0  0  0  0
 98103  4  0  0  0  0
 95104  4  0  0  0  0
103104  4  0  0  0  0
 94105  4  0  0  0  0
105106  4  0  0  0  0
106107  2  0  0  0  0
 66108  4  0  0  0  0
107108  1  0  0  0  0
 65109  1  0  0  0  0
105109  4  0  0  0  0
108109  4  0  0  0  0
 66110  1  0  0  0  0
 68111  1  0  0  0  0
 69112  1  0  0  0  0
 74113  1  0  0  0  0
 75114  1  0  0  0  0
 79115  1  0  0  0  0
 81116  1  0  0  0  0
 82117  1  0  0  0  0
 84118  1  0  0  0  0
 85119  1  0  0  0  0
 90120  1  0  0  0  0
 91121  1  0  0  0  0
 96122  1  0  0  0  0
 97123  1  0  0  0  0
101124  1  0  0  0  0
103125  1  0  0  0  0
104126  1  0  0  0  0
106127  1  0  0  0  0
107128  1  0  0  0  0
 24130  4  0  0  0  0
129130  3  0  0  0  0
129131  4  0  0  0  0
 88132  4  0  0  0  0
131132  3  0  0  0  0
M  END
