 xtb: 6.5.1 (b24c23e)
          07302204193D

250289  0     0  0            999 V2000
   47.5432    0.0208    0.0324 Ni  0  0  0  0  0  0  0  0  0  0  0  0
   44.1552    0.1118    0.1321 C   0  0  0  0  0  0  0  0  0  0  0  0
   44.8122    1.1333   -0.5225 C   0  0  0  0  0  0  0  0  0  0  0  0
   44.1434    2.2039   -1.1955 C   0  0  0  0  0  0  0  0  0  0  0  0
   45.1059    3.0548   -1.6235 C   0  0  0  0  0  0  0  0  0  0  0  0
   46.3616    2.5108   -1.1971 C   0  0  0  0  0  0  0  0  0  0  0  0
   46.1731    1.3098   -0.5596 N   0  0  0  0  0  0  0  0  0  0  0  0
   47.5822    3.1559   -1.3584 C   0  0  0  0  0  0  0  0  0  0  0  0
   47.6017    4.5117   -1.9537 C   0  0  0  0  0  0  0  0  0  0  0  0
   48.3155    4.7647   -3.1277 C   0  0  0  0  0  0  0  0  0  0  0  0
   48.3378    6.0307   -3.6854 C   0  0  0  0  0  0  0  0  0  0  0  0
   47.6552    7.0814   -3.0671 C   0  0  0  0  0  0  0  0  0  0  0  0
   47.6447    8.3406   -3.6415 N   0  0  0  0  0  0  0  0  0  0  0  0
   46.9350    6.8355   -1.8953 C   0  0  0  0  0  0  0  0  0  0  0  0
   46.9096    5.5643   -1.3497 C   0  0  0  0  0  0  0  0  0  0  0  0
   48.7857    2.5790   -0.9723 C   0  0  0  0  0  0  0  0  0  0  0  0
   50.0507    3.2427   -1.0581 C   0  0  0  0  0  0  0  0  0  0  0  0
   50.9924    2.3420   -0.6859 C   0  0  0  0  0  0  0  0  0  0  0  0
   48.9490    1.2937   -0.5061 N   0  0  0  0  0  0  0  0  0  0  0  0
   50.3004    1.1353   -0.3650 C   0  0  0  0  0  0  0  0  0  0  0  0
   50.9516   -0.0560   -0.0328 C   0  0  0  0  0  0  0  0  0  0  0  0
   50.2612   -1.2210    0.3130 C   0  0  0  0  0  0  0  0  0  0  0  0
   50.9097   -2.4611    0.5951 C   0  0  0  0  0  0  0  0  0  0  0  0
   49.9421   -3.3250    0.9878 C   0  0  0  0  0  0  0  0  0  0  0  0
   48.7061   -2.6039    0.9585 C   0  0  0  0  0  0  0  0  0  0  0  0
   48.9100   -1.3213    0.5005 N   0  0  0  0  0  0  0  0  0  0  0  0
   47.4951   -3.1264    1.3951 C   0  0  0  0  0  0  0  0  0  0  0  0
   47.4742   -4.4870    1.9793 C   0  0  0  0  0  0  0  0  0  0  0  0
   48.2294   -4.7862    3.1160 C   0  0  0  0  0  0  0  0  0  0  0  0
   48.2098   -6.0552    3.6668 C   0  0  0  0  0  0  0  0  0  0  0  0
   47.4416   -7.0632    3.0785 C   0  0  0  0  0  0  0  0  0  0  0  0
   47.3891   -8.3233    3.6488 N   0  0  0  0  0  0  0  0  0  0  0  0
   46.6802   -6.7710    1.9439 C   0  0  0  0  0  0  0  0  0  0  0  0
   46.6974   -5.4966    1.4056 C   0  0  0  0  0  0  0  0  0  0  0  0
   46.3028   -2.4172    1.3063 C   0  0  0  0  0  0  0  0  0  0  0  0
   45.0470   -2.8975    1.8032 C   0  0  0  0  0  0  0  0  0  0  0  0
   44.1093   -1.9884    1.4457 C   0  0  0  0  0  0  0  0  0  0  0  0
   44.7940   -0.9482    0.7417 C   0  0  0  0  0  0  0  0  0  0  0  0
   46.1427   -1.1998    0.6929 N   0  0  0  0  0  0  0  0  0  0  0  0
   43.0724    0.1422    0.1665 H   0  0  0  0  0  0  0  0  0  0  0  0
   43.0743    2.2763   -1.3171 H   0  0  0  0  0  0  0  0  0  0  0  0
   44.9889    3.9691   -2.1823 H   0  0  0  0  0  0  0  0  0  0  0  0
   48.8420    3.9527   -3.6173 H   0  0  0  0  0  0  0  0  0  0  0  0
   48.8863    6.2123   -4.6033 H   0  0  0  0  0  0  0  0  0  0  0  0
   48.4158    8.5329   -4.2605 H   0  0  0  0  0  0  0  0  0  0  0  0
   47.4329    9.0957   -3.0090 H   0  0  0  0  0  0  0  0  0  0  0  0
   46.4002    7.6464   -1.4128 H   0  0  0  0  0  0  0  0  0  0  0  0
   46.3640    5.3856   -0.4295 H   0  0  0  0  0  0  0  0  0  0  0  0
   50.1907    4.2685   -1.3578 H   0  0  0  0  0  0  0  0  0  0  0  0
   52.0616    2.4688   -0.6297 H   0  0  0  0  0  0  0  0  0  0  0  0
   51.9695   -2.6340    0.4981 H   0  0  0  0  0  0  0  0  0  0  0  0
   50.0463   -4.3604    1.2684 H   0  0  0  0  0  0  0  0  0  0  0  0
   48.8215   -4.0070    3.5833 H   0  0  0  0  0  0  0  0  0  0  0  0
   48.7912   -6.2722    4.5563 H   0  0  0  0  0  0  0  0  0  0  0  0
   48.1772   -8.5616    4.2294 H   0  0  0  0  0  0  0  0  0  0  0  0
   47.1048   -9.0619    3.0253 H   0  0  0  0  0  0  0  0  0  0  0  0
   46.0790   -7.5483    1.4851 H   0  0  0  0  0  0  0  0  0  0  0  0
   46.1174   -5.2821    0.5146 H   0  0  0  0  0  0  0  0  0  0  0  0
   44.9134   -3.8117    2.3584 H   0  0  0  0  0  0  0  0  0  0  0  0
   43.0473   -2.0032    1.6331 H   0  0  0  0  0  0  0  0  0  0  0  0
   87.8224   -0.0264    0.0425 Ni  0  0  0  0  0  0  0  0  0  0  0  0
   91.2111    0.0058    0.1785 C   0  0  0  0  0  0  0  0  0  0  0  0
   90.5531   -1.1012    0.6732 C   0  0  0  0  0  0  0  0  0  0  0  0
   91.2219   -2.2496    1.2026 C   0  0  0  0  0  0  0  0  0  0  0  0
   90.2588   -3.0762    1.6747 C   0  0  0  0  0  0  0  0  0  0  0  0
   89.0028   -2.4245    1.4461 C   0  0  0  0  0  0  0  0  0  0  0  0
   89.1919   -1.2314    0.7943 N   0  0  0  0  0  0  0  0  0  0  0  0
   87.7806   -2.9217    1.8829 C   0  0  0  0  0  0  0  0  0  0  0  0
   87.7607   -4.1655    2.6866 C   0  0  0  0  0  0  0  0  0  0  0  0
   87.0623   -5.2911    2.2428 C   0  0  0  0  0  0  0  0  0  0  0  0
   87.0379   -6.4525    2.9944 C   0  0  0  0  0  0  0  0  0  0  0  0
   87.7026   -6.5072    4.2222 C   0  0  0  0  0  0  0  0  0  0  0  0
   87.7101   -7.6783    4.9602 N   0  0  0  0  0  0  0  0  0  0  0  0
   88.4085   -5.3877    4.6702 C   0  0  0  0  0  0  0  0  0  0  0  0
   88.4361   -4.2336    3.9076 C   0  0  0  0  0  0  0  0  0  0  0  0
   86.5761   -2.2889    1.6025 C   0  0  0  0  0  0  0  0  0  0  0  0
   85.3085   -2.7388    2.0919 C   0  0  0  0  0  0  0  0  0  0  0  0
   84.3676   -1.9329    1.5430 C   0  0  0  0  0  0  0  0  0  0  0  0
   86.4146   -1.1861    0.7940 N   0  0  0  0  0  0  0  0  0  0  0  0
   85.0626   -0.9873    0.7297 C   0  0  0  0  0  0  0  0  0  0  0  0
   84.4134   -0.0406   -0.0668 C   0  0  0  0  0  0  0  0  0  0  0  0
   85.1042    0.9052   -0.8286 C   0  0  0  0  0  0  0  0  0  0  0  0
   84.4553    1.8372   -1.6939 C   0  0  0  0  0  0  0  0  0  0  0  0
   85.4236    2.6439   -2.1917 C   0  0  0  0  0  0  0  0  0  0  0  0
   86.6604    2.2108   -1.6160 C   0  0  0  0  0  0  0  0  0  0  0  0
   86.4561    1.1135   -0.8096 N   0  0  0  0  0  0  0  0  0  0  0  0
   87.8735    2.8585   -1.8139 C   0  0  0  0  0  0  0  0  0  0  0  0
   87.8958    4.0998   -2.6213 C   0  0  0  0  0  0  0  0  0  0  0  0
   87.1497    5.2157   -2.2343 C   0  0  0  0  0  0  0  0  0  0  0  0
   87.1696    6.3775   -2.9851 C   0  0  0  0  0  0  0  0  0  0  0  0
   87.9291    6.4427   -4.1561 C   0  0  0  0  0  0  0  0  0  0  0  0
   87.9818    7.6155   -4.8894 N   0  0  0  0  0  0  0  0  0  0  0  0
   88.6820    5.3326   -4.5475 C   0  0  0  0  0  0  0  0  0  0  0  0
   88.6644    4.1780   -3.7853 C   0  0  0  0  0  0  0  0  0  0  0  0
   89.0665    2.3851   -1.2805 C   0  0  0  0  0  0  0  0  0  0  0  0
   90.3243    3.0599   -1.4114 C   0  0  0  0  0  0  0  0  0  0  0  0
   91.2611    2.2567   -0.8541 C   0  0  0  0  0  0  0  0  0  0  0  0
   90.5738    1.0981   -0.3728 C   0  0  0  0  0  0  0  0  0  0  0  0
   89.2248    1.2001   -0.6061 N   0  0  0  0  0  0  0  0  0  0  0  0
   92.2939    0.0171    0.2236 H   0  0  0  0  0  0  0  0  0  0  0  0
   92.2914   -2.3886    1.2019 H   0  0  0  0  0  0  0  0  0  0  0  0
   90.3755   -4.0446    2.1335 H   0  0  0  0  0  0  0  0  0  0  0  0
   86.5495   -5.2585    1.2877 H   0  0  0  0  0  0  0  0  0  0  0  0
   86.5012   -7.3236    2.6343 H   0  0  0  0  0  0  0  0  0  0  0  0
   86.9453   -8.3060    4.7704 H   0  0  0  0  0  0  0  0  0  0  0  0
   87.9058   -7.5616    5.9416 H   0  0  0  0  0  0  0  0  0  0  0  0
   88.9298   -5.4257    5.6204 H   0  0  0  0  0  0  0  0  0  0  0  0
   88.9702   -3.3624    4.2711 H   0  0  0  0  0  0  0  0  0  0  0  0
   85.1663   -3.5612    2.7738 H   0  0  0  0  0  0  0  0  0  0  0  0
   83.2973   -1.9633    1.6689 H   0  0  0  0  0  0  0  0  0  0  0  0
   83.3950    1.8570   -1.8880 H   0  0  0  0  0  0  0  0  0  0  0  0
   85.3195    3.4574   -2.8911 H   0  0  0  0  0  0  0  0  0  0  0  0
   86.5642    5.1757   -1.3222 H   0  0  0  0  0  0  0  0  0  0  0  0
   86.5951    7.2411   -2.6683 H   0  0  0  0  0  0  0  0  0  0  0  0
   87.1973    8.2343   -4.7603 H   0  0  0  0  0  0  0  0  0  0  0  0
   88.2583    7.5043   -5.8518 H   0  0  0  0  0  0  0  0  0  0  0  0
   89.2767    5.3786   -5.4534 H   0  0  0  0  0  0  0  0  0  0  0  0
   89.2374    3.3146   -4.1052 H   0  0  0  0  0  0  0  0  0  0  0  0
   90.4596    4.0272   -1.8673 H   0  0  0  0  0  0  0  0  0  0  0  0
   92.3240    2.4174   -0.7665 H   0  0  0  0  0  0  0  0  0  0  0  0
   53.5779   -0.0874   -0.0510 C   0  0  0  0  0  0  0  0  0  0  0  0
   52.3564   -0.0798   -0.0454 C   0  0  0  0  0  0  0  0  0  0  0  0
   54.9279   -0.0939   -0.0496 C   0  0  0  0  0  0  0  0  0  0  0  0
   56.1496   -0.0886   -0.0455 C   0  0  0  0  0  0  0  0  0  0  0  0
   67.0047   -0.0594   -0.0686 C   0  0  0  0  0  0  0  0  0  0  0  0
   65.7831   -0.0594   -0.0536 C   0  0  0  0  0  0  0  0  0  0  0  0
   68.3545   -0.0568   -0.0764 C   0  0  0  0  0  0  0  0  0  0  0  0
   69.5762   -0.0501   -0.0752 C   0  0  0  0  0  0  0  0  0  0  0  0
   80.4354   -0.0349   -0.1133 C   0  0  0  0  0  0  0  0  0  0  0  0
   79.2141   -0.0339   -0.1024 C   0  0  0  0  0  0  0  0  0  0  0  0
   81.7863   -0.0398   -0.1118 C   0  0  0  0  0  0  0  0  0  0  0  0
   83.0075   -0.0392   -0.0984 C   0  0  0  0  0  0  0  0  0  0  0  0
   60.9668   -0.0586    0.0044 Ni  0  0  0  0  0  0  0  0  0  0  0  0
   57.5542   -0.0803   -0.0348 C   0  0  0  0  0  0  0  0  0  0  0  0
   58.2235    1.0418   -0.5321 C   0  0  0  0  0  0  0  0  0  0  0  0
   57.5467    2.1877   -1.0489 C   0  0  0  0  0  0  0  0  0  0  0  0
   58.4966    3.1238   -1.2899 C   0  0  0  0  0  0  0  0  0  0  0  0
   59.7532    2.5409   -0.9322 C   0  0  0  0  0  0  0  0  0  0  0  0
   59.5745    1.2496   -0.4884 N   0  0  0  0  0  0  0  0  0  0  0  0
   60.9554    3.2368   -0.9289 C   0  0  0  0  0  0  0  0  0  0  0  0
   60.9505    4.6676   -1.3200 C   0  0  0  0  0  0  0  0  0  0  0  0
   60.6199    5.0487   -2.6218 C   0  0  0  0  0  0  0  0  0  0  0  0
   60.6163    6.3828   -2.9895 C   0  0  0  0  0  0  0  0  0  0  0  0
   60.9314    7.3695   -2.0519 C   0  0  0  0  0  0  0  0  0  0  0  0
   60.9667    8.7020   -2.4261 N   0  0  0  0  0  0  0  0  0  0  0  0
   61.2686    6.9945   -0.7489 C   0  0  0  0  0  0  0  0  0  0  0  0
   61.2784    5.6576   -0.3916 C   0  0  0  0  0  0  0  0  0  0  0  0
   62.1636    2.6467   -0.5816 C   0  0  0  0  0  0  0  0  0  0  0  0
   63.4196    3.3315   -0.6133 C   0  0  0  0  0  0  0  0  0  0  0  0
   64.3779    2.4049   -0.3701 C   0  0  0  0  0  0  0  0  0  0  0  0
   62.3512    1.3122   -0.2973 N   0  0  0  0  0  0  0  0  0  0  0  0
   63.7059    1.1577   -0.1938 C   0  0  0  0  0  0  0  0  0  0  0  0
   64.3787   -0.0567   -0.0287 C   0  0  0  0  0  0  0  0  0  0  0  0
   63.7090   -1.2676    0.1701 C   0  0  0  0  0  0  0  0  0  0  0  0
   64.3802   -2.5192    0.3120 C   0  0  0  0  0  0  0  0  0  0  0  0
   63.4287   -3.4391    0.6049 C   0  0  0  0  0  0  0  0  0  0  0  0
   62.1800   -2.7425    0.6504 C   0  0  0  0  0  0  0  0  0  0  0  0
   62.3596   -1.4140    0.3366 N   0  0  0  0  0  0  0  0  0  0  0  0
   60.9767   -3.3316    1.0191 C   0  0  0  0  0  0  0  0  0  0  0  0
   60.9826   -4.7434    1.4642 C   0  0  0  0  0  0  0  0  0  0  0  0
   60.2252   -5.7061    0.7921 C   0  0  0  0  0  0  0  0  0  0  0  0
   60.2307   -7.0270    1.2030 C   0  0  0  0  0  0  0  0  0  0  0  0
   60.9875   -7.4131    2.3124 C   0  0  0  0  0  0  0  0  0  0  0  0
   61.0256   -8.7400    2.7032 N   0  0  0  0  0  0  0  0  0  0  0  0
   61.7516   -6.4573    2.9871 C   0  0  0  0  0  0  0  0  0  0  0  0
   61.7480   -5.1404    2.5637 C   0  0  0  0  0  0  0  0  0  0  0  0
   59.7675   -2.6482    0.9773 C   0  0  0  0  0  0  0  0  0  0  0  0
   58.5178   -3.2103    1.3883 C   0  0  0  0  0  0  0  0  0  0  0  0
   57.5589   -2.3044    1.0756 C   0  0  0  0  0  0  0  0  0  0  0  0
   58.2274   -1.1861    0.4931 C   0  0  0  0  0  0  0  0  0  0  0  0
   59.5805   -1.3812    0.4712 N   0  0  0  0  0  0  0  0  0  0  0  0
   56.4798    2.2588   -1.1866 H   0  0  0  0  0  0  0  0  0  0  0  0
   58.3643    4.1268   -1.6613 H   0  0  0  0  0  0  0  0  0  0  0  0
   60.3814    4.2878   -3.3568 H   0  0  0  0  0  0  0  0  0  0  0  0
   60.3677    6.6669   -4.0061 H   0  0  0  0  0  0  0  0  0  0  0  0
   60.4130    8.9310   -3.2358 H   0  0  0  0  0  0  0  0  0  0  0  0
   60.8698    9.3591   -1.6685 H   0  0  0  0  0  0  0  0  0  0  0  0
   61.5191    7.7557   -0.0180 H   0  0  0  0  0  0  0  0  0  0  0  0
   61.5261    5.3746    0.6256 H   0  0  0  0  0  0  0  0  0  0  0  0
   63.5446    4.3824   -0.8171 H   0  0  0  0  0  0  0  0  0  0  0  0
   65.4469    2.5367   -0.3237 H   0  0  0  0  0  0  0  0  0  0  0  0
   65.4431   -2.6607    0.2001 H   0  0  0  0  0  0  0  0  0  0  0  0
   63.5520   -4.4972    0.7687 H   0  0  0  0  0  0  0  0  0  0  0  0
   59.6431   -5.4164   -0.0759 H   0  0  0  0  0  0  0  0  0  0  0  0
   59.6475   -7.7671    0.6661 H   0  0  0  0  0  0  0  0  0  0  0  0
   61.3025   -8.8955    3.6592 H   0  0  0  0  0  0  0  0  0  0  0  0
   60.2354   -9.2930    2.4128 H   0  0  0  0  0  0  0  0  0  0  0  0
   62.3441   -6.7518    3.8465 H   0  0  0  0  0  0  0  0  0  0  0  0
   62.3294   -4.4011    3.1037 H   0  0  0  0  0  0  0  0  0  0  0  0
   58.3978   -4.1722    1.8592 H   0  0  0  0  0  0  0  0  0  0  0  0
   56.4932   -2.3724    1.2238 H   0  0  0  0  0  0  0  0  0  0  0  0
   74.3948   -0.0243   -0.0257 Ni  0  0  0  0  0  0  0  0  0  0  0  0
   70.9809   -0.0441   -0.0664 C   0  0  0  0  0  0  0  0  0  0  0  0
   71.6505    1.0841   -0.5487 C   0  0  0  0  0  0  0  0  0  0  0  0
   70.9720    2.2376   -1.0463 C   0  0  0  0  0  0  0  0  0  0  0  0
   71.9218    3.1745   -1.2830 C   0  0  0  0  0  0  0  0  0  0  0  0
   73.1801    2.5836   -0.9443 C   0  0  0  0  0  0  0  0  0  0  0  0
   73.0022    1.2881   -0.5121 N   0  0  0  0  0  0  0  0  0  0  0  0
   74.3853    3.2734   -0.9574 C   0  0  0  0  0  0  0  0  0  0  0  0
   74.3824    4.7078   -1.3353 C   0  0  0  0  0  0  0  0  0  0  0  0
   74.0283    5.1068   -2.6254 C   0  0  0  0  0  0  0  0  0  0  0  0
   74.0307    6.4452   -2.9780 C   0  0  0  0  0  0  0  0  0  0  0  0
   74.3875    7.4169   -2.0398 C   0  0  0  0  0  0  0  0  0  0  0  0
   74.3441    8.7597   -2.3743 N   0  0  0  0  0  0  0  0  0  0  0  0
   74.7315    7.0251   -0.7436 C   0  0  0  0  0  0  0  0  0  0  0  0
   74.7351    5.6843   -0.4017 C   0  0  0  0  0  0  0  0  0  0  0  0
   75.5969    2.6752   -0.6365 C   0  0  0  0  0  0  0  0  0  0  0  0
   76.8555    3.3531   -0.6979 C   0  0  0  0  0  0  0  0  0  0  0  0
   77.8134    2.4237   -0.4640 C   0  0  0  0  0  0  0  0  0  0  0  0
   75.7825    1.3420   -0.3467 N   0  0  0  0  0  0  0  0  0  0  0  0
   77.1381    1.1822   -0.2618 C   0  0  0  0  0  0  0  0  0  0  0  0
   77.8087   -0.0294   -0.0748 C   0  0  0  0  0  0  0  0  0  0  0  0
   77.1386   -1.2340    0.1551 C   0  0  0  0  0  0  0  0  0  0  0  0
   77.8108   -2.4816    0.3256 C   0  0  0  0  0  0  0  0  0  0  0  0
   76.8590   -3.3967    0.6316 C   0  0  0  0  0  0  0  0  0  0  0  0
   75.6090   -2.7014    0.6554 C   0  0  0  0  0  0  0  0  0  0  0  0
   75.7884   -1.3785    0.3198 N   0  0  0  0  0  0  0  0  0  0  0  0
   74.4029   -3.2906    1.0152 C   0  0  0  0  0  0  0  0  0  0  0  0
   74.4098   -4.6988    1.4724 C   0  0  0  0  0  0  0  0  0  0  0  0
   73.6728   -5.6727    0.7939 C   0  0  0  0  0  0  0  0  0  0  0  0
   73.6844   -6.9911    1.2128 C   0  0  0  0  0  0  0  0  0  0  0  0
   74.4363   -7.3655    2.3295 C   0  0  0  0  0  0  0  0  0  0  0  0
   74.4126   -8.6738    2.7800 N   0  0  0  0  0  0  0  0  0  0  0  0
   75.1653   -6.3950    3.0217 C   0  0  0  0  0  0  0  0  0  0  0  0
   75.1559   -5.0806    2.5904 C   0  0  0  0  0  0  0  0  0  0  0  0
   73.1919   -2.6130    0.9511 C   0  0  0  0  0  0  0  0  0  0  0  0
   71.9393   -3.1800    1.3469 C   0  0  0  0  0  0  0  0  0  0  0  0
   70.9812   -2.2773    1.0241 C   0  0  0  0  0  0  0  0  0  0  0  0
   71.6527   -1.1554    0.4515 C   0  0  0  0  0  0  0  0  0  0  0  0
   73.0065   -1.3469    0.4416 N   0  0  0  0  0  0  0  0  0  0  0  0
   69.9042    2.3125   -1.1746 H   0  0  0  0  0  0  0  0  0  0  0  0
   71.7891    4.1823   -1.6411 H   0  0  0  0  0  0  0  0  0  0  0  0
   73.7669    4.3569   -3.3639 H   0  0  0  0  0  0  0  0  0  0  0  0
   73.7596    6.7438   -3.9848 H   0  0  0  0  0  0  0  0  0  0  0  0
   74.4192    8.9554   -3.3597 H   0  0  0  0  0  0  0  0  0  0  0  0
   74.9101    9.3603   -1.7963 H   0  0  0  0  0  0  0  0  0  0  0  0
   74.9972    7.7758   -0.0074 H   0  0  0  0  0  0  0  0  0  0  0  0
   74.9977    5.3872    0.6077 H   0  0  0  0  0  0  0  0  0  0  0  0
   76.9820    4.4014   -0.9137 H   0  0  0  0  0  0  0  0  0  0  0  0
   78.8837    2.5503   -0.4379 H   0  0  0  0  0  0  0  0  0  0  0  0
   78.8744   -2.6239    0.2217 H   0  0  0  0  0  0  0  0  0  0  0  0
   76.9829   -4.4512    0.8171 H   0  0  0  0  0  0  0  0  0  0  0  0
   73.1024   -5.3940   -0.0854 H   0  0  0  0  0  0  0  0  0  0  0  0
   73.1136   -7.7393    0.6736 H   0  0  0  0  0  0  0  0  0  0  0  0
   75.1991   -8.9432    3.3490 H   0  0  0  0  0  0  0  0  0  0  0  0
   74.1579   -9.3589    2.0866 H   0  0  0  0  0  0  0  0  0  0  0  0
   75.7394   -6.6770    3.8977 H   0  0  0  0  0  0  0  0  0  0  0  0
   75.7177   -4.3317    3.1378 H   0  0  0  0  0  0  0  0  0  0  0  0
   71.8174   -4.1426    1.8159 H   0  0  0  0  0  0  0  0  0  0  0  0
   69.9142   -2.3488    1.1605 H   0  0  0  0  0  0  0  0  0  0  0  0
  2  3  4  0  0  0  0
  3  4  4  0  0  0  0
  4  5  2  0  0  0  0
  5  6  4  0  0  0  0
  1  7  1  0  0  0  0
  3  7  4  0  0  0  0
  6  7  4  0  0  0  0
  6  8  4  0  0  0  0
  8  9  1  0  0  0  0
  9 10  4  0  0  0  0
 10 11  4  0  0  0  0
 11 12  4  0  0  0  0
 12 13  1  0  0  0  0
 12 14  4  0  0  0  0
  9 15  4  0  0  0  0
 14 15  4  0  0  0  0
  8 16  4  0  0  0  0
 16 17  4  0  0  0  0
 17 18  2  0  0  0  0
  1 19  1  0  0  0  0
 16 19  4  0  0  0  0
 18 20  4  0  0  0  0
 19 20  4  0  0  0  0
 20 21  4  0  0  0  0
 21 22  4  0  0  0  0
 22 23  4  0  0  0  0
 23 24  2  0  0  0  0
 24 25  4  0  0  0  0
  1 26  1  0  0  0  0
 22 26  4  0  0  0  0
 25 26  4  0  0  0  0
 25 27  4  0  0  0  0
 27 28  1  0  0  0  0
 28 29  4  0  0  0  0
 29 30  4  0  0  0  0
 30 31  4  0  0  0  0
 31 32  1  0  0  0  0
 31 33  4  0  0  0  0
 28 34  4  0  0  0  0
 33 34  4  0  0  0  0
 27 35  4  0  0  0  0
 35 36  4  0  0  0  0
 36 37  2  0  0  0  0
  2 38  4  0  0  0  0
 37 38  4  0  0  0  0
  1 39  1  0  0  0  0
 35 39  4  0  0  0  0
 38 39  4  0  0  0  0
  2 40  1  0  0  0  0
  4 41  1  0  0  0  0
  5 42  1  0  0  0  0
 10 43  1  0  0  0  0
 11 44  1  0  0  0  0
 13 45  1  0  0  0  0
 13 46  1  0  0  0  0
 14 47  1  0  0  0  0
 15 48  1  0  0  0  0
 17 49  1  0  0  0  0
 18 50  1  0  0  0  0
 23 51  1  0  0  0  0
 24 52  1  0  0  0  0
 29 53  1  0  0  0  0
 30 54  1  0  0  0  0
 32 55  1  0  0  0  0
 32 56  1  0  0  0  0
 33 57  1  0  0  0  0
 34 58  1  0  0  0  0
 36 59  1  0  0  0  0
 37 60  1  0  0  0  0
 62 63  4  0  0  0  0
 63 64  4  0  0  0  0
 64 65  2  0  0  0  0
 65 66  4  0  0  0  0
 61 67  1  0  0  0  0
 63 67  4  0  0  0  0
 66 67  4  0  0  0  0
 66 68  4  0  0  0  0
 68 69  1  0  0  0  0
 69 70  4  0  0  0  0
 70 71  4  0  0  0  0
 71 72  4  0  0  0  0
 72 73  1  0  0  0  0
 72 74  4  0  0  0  0
 69 75  4  0  0  0  0
 74 75  4  0  0  0  0
 68 76  4  0  0  0  0
 76 77  4  0  0  0  0
 77 78  2  0  0  0  0
 61 79  1  0  0  0  0
 76 79  4  0  0  0  0
 78 80  4  0  0  0  0
 79 80  4  0  0  0  0
 80 81  4  0  0  0  0
 81 82  4  0  0  0  0
 82 83  4  0  0  0  0
 83 84  2  0  0  0  0
 84 85  4  0  0  0  0
 61 86  1  0  0  0  0
 82 86  4  0  0  0  0
 85 86  4  0  0  0  0
 85 87  4  0  0  0  0
 87 88  1  0  0  0  0
 88 89  4  0  0  0  0
 89 90  4  0  0  0  0
 90 91  4  0  0  0  0
 91 92  1  0  0  0  0
 91 93  4  0  0  0  0
 88 94  4  0  0  0  0
 93 94  4  0  0  0  0
 87 95  4  0  0  0  0
 95 96  4  0  0  0  0
 96 97  2  0  0  0  0
 62 98  4  0  0  0  0
 97 98  4  0  0  0  0
 61 99  1  0  0  0  0
 95 99  4  0  0  0  0
 98 99  4  0  0  0  0
 62100  1  0  0  0  0
 64101  1  0  0  0  0
 65102  1  0  0  0  0
 70103  1  0  0  0  0
 71104  1  0  0  0  0
 73105  1  0  0  0  0
 73106  1  0  0  0  0
 74107  1  0  0  0  0
 75108  1  0  0  0  0
 77109  1  0  0  0  0
 78110  1  0  0  0  0
 83111  1  0  0  0  0
 84112  1  0  0  0  0
 89113  1  0  0  0  0
 90114  1  0  0  0  0
 92115  1  0  0  0  0
 92116  1  0  0  0  0
 93117  1  0  0  0  0
 94118  1  0  0  0  0
 96119  1  0  0  0  0
 97120  1  0  0  0  0
 21122  4  0  0  0  0
121122  3  0  0  0  0
121123  4  0  0  0  0
123124  3  0  0  0  0
125126  3  0  0  0  0
125127  4  0  0  0  0
127128  3  0  0  0  0
129130  3  0  0  0  0
129131  4  0  0  0  0
 81132  4  0  0  0  0
131132  3  0  0  0  0
124134  4  0  0  0  0
134135  4  0  0  0  0
135136  4  0  0  0  0
136137  2  0  0  0  0
137138  4  0  0  0  0
133139  1  0  0  0  0
135139  4  0  0  0  0
138139  4  0  0  0  0
138140  4  0  0  0  0
140141  1  0  0  0  0
141142  4  0  0  0  0
142143  4  0  0  0  0
143144  4  0  0  0  0
144145  1  0  0  0  0
144146  4  0  0  0  0
141147  4  0  0  0  0
146147  4  0  0  0  0
140148  4  0  0  0  0
148149  4  0  0  0  0
149150  2  0  0  0  0
133151  1  0  0  0  0
148151  4  0  0  0  0
150152  4  0  0  0  0
151152  4  0  0  0  0
126153  4  0  0  0  0
152153  4  0  0  0  0
153154  4  0  0  0  0
154155  4  0  0  0  0
155156  2  0  0  0  0
156157  4  0  0  0  0
133158  1  0  0  0  0
154158  4  0  0  0  0
157158  4  0  0  0  0
157159  4  0  0  0  0
159160  1  0  0  0  0
160161  4  0  0  0  0
161162  4  0  0  0  0
162163  4  0  0  0  0
163164  1  0  0  0  0
163165  4  0  0  0  0
160166  4  0  0  0  0
165166  4  0  0  0  0
159167  4  0  0  0  0
167168  4  0  0  0  0
168169  2  0  0  0  0
134170  4  0  0  0  0
169170  4  0  0  0  0
133171  1  0  0  0  0
167171  4  0  0  0  0
170171  4  0  0  0  0
136172  1  0  0  0  0
137173  1  0  0  0  0
142174  1  0  0  0  0
143175  1  0  0  0  0
145176  1  0  0  0  0
145177  1  0  0  0  0
146178  1  0  0  0  0
147179  1  0  0  0  0
149180  1  0  0  0  0
150181  1  0  0  0  0
155182  1  0  0  0  0
156183  1  0  0  0  0
161184  1  0  0  0  0
162185  1  0  0  0  0
164186  1  0  0  0  0
164187  1  0  0  0  0
165188  1  0  0  0  0
166189  1  0  0  0  0
168190  1  0  0  0  0
169191  1  0  0  0  0
128193  4  0  0  0  0
193194  4  0  0  0  0
194195  4  0  0  0  0
195196  2  0  0  0  0
196197  4  0  0  0  0
192198  1  0  0  0  0
194198  4  0  0  0  0
197198  4  0  0  0  0
197199  4  0  0  0  0
199200  1  0  0  0  0
200201  4  0  0  0  0
201202  4  0  0  0  0
202203  4  0  0  0  0
203204  1  0  0  0  0
203205  4  0  0  0  0
200206  4  0  0  0  0
205206  4  0  0  0  0
199207  4  0  0  0  0
207208  4  0  0  0  0
208209  2  0  0  0  0
192210  1  0  0  0  0
207210  4  0  0  0  0
209211  4  0  0  0  0
210211  4  0  0  0  0
130212  4  0  0  0  0
211212  4  0  0  0  0
212213  4  0  0  0  0
213214  4  0  0  0  0
214215  2  0  0  0  0
215216  4  0  0  0  0
192217  1  0  0  0  0
213217  4  0  0  0  0
216217  4  0  0  0  0
216218  4  0  0  0  0
218219  1  0  0  0  0
219220  4  0  0  0  0
220221  4  0  0  0  0
221222  4  0  0  0  0
222223  1  0  0  0  0
222224  4  0  0  0  0
219225  4  0  0  0  0
224225  4  0  0  0  0
218226  4  0  0  0  0
226227  4  0  0  0  0
227228  2  0  0  0  0
193229  4  0  0  0  0
228229  4  0  0  0  0
192230  1  0  0  0  0
226230  4  0  0  0  0
229230  4  0  0  0  0
195231  1  0  0  0  0
196232  1  0  0  0  0
201233  1  0  0  0  0
202234  1  0  0  0  0
204235  1  0  0  0  0
204236  1  0  0  0  0
205237  1  0  0  0  0
206238  1  0  0  0  0
208239  1  0  0  0  0
209240  1  0  0  0  0
214241  1  0  0  0  0
215242  1  0  0  0  0
220243  1  0  0  0  0
221244  1  0  0  0  0
223245  1  0  0  0  0
223246  1  0  0  0  0
224247  1  0  0  0  0
225248  1  0  0  0  0
227249  1  0  0  0  0
228250  1  0  0  0  0
M  END
