308

C 63.637231 0.100728 0.278924
C 64.370676 1.273396 -0.441773
C 63.773709 2.401110 -0.957215
C 64.797952 3.170393 -1.568472
C 65.985649 2.481338 -1.411693
N 65.719294 1.350638 -0.680690
C 67.399142 2.893369 -1.986028
C 67.428334 3.951733 -2.952717
C 67.438491 4.838598 -3.763575
C 67.448648 5.890088 -4.729932
C 66.650171 5.801999 -5.864854
C 66.694583 6.846505 -6.771729
N 67.466422 7.946958 -6.620984
C 68.230069 7.997057 -5.505636
C 68.256672 7.005562 -4.540246
C 68.527235 2.239851 -1.603173
C 69.822983 2.575441 -2.158277
C 70.730020 1.765818 -1.624240
N 68.733862 1.212994 -0.719464
C 70.063337 0.879258 -0.690619
C 70.737551 -0.065613 0.017498
C 69.968589 -0.996986 1.046296
C 70.518860 -1.637130 2.139406
C 69.491441 -2.399069 2.749922
C 68.340704 -2.195419 2.018185
N 68.629482 -1.301095 1.014556
C 66.928264 -2.847323 2.294897
C 66.897269 -4.087816 3.009225
C 66.881902 -5.131969 3.603491
C 66.858434 -6.376835 4.303206
C 67.898655 -6.716858 5.160835
C 67.828457 -7.934991 5.814476
N 66.810481 -8.813751 5.670153
C 65.817566 -8.449454 4.826960
C 65.794811 -7.255233 4.127737
C 65.800734 -2.240303 1.847622
C 64.474132 -2.778031 2.094152
C 63.582921 -1.957350 1.545489
C 64.305235 -0.875384 0.922003
N 65.632136 -1.090182 1.127929
H 62.554955 0.073661 0.234536
H 62.721258 2.636044 -0.912020
H 64.677533 4.110978 -2.084460
H 66.411280 0.673914 -0.367320
H 66.012683 4.941406 -6.035904
H 66.089991 6.824009 -7.672893
H 68.843071 8.887047 -5.403238
H 68.889115 7.096884 -3.663797
H 70.024812 3.340710 -2.886200
H 71.779269 1.786017 -1.856006
H 71.547769 -1.572650 2.459401
H 69.580819 -3.025924 3.624020
H 67.943738 -0.884727 0.390042
H 68.740277 -6.050086 5.313432
H 68.616260 -8.245791 6.493752
H 65.010392 -9.168009 4.722537
H 64.972569 -7.013451 3.462779
H 64.247554 -3.679047 2.634594
H 62.514364 -2.074226 1.557497
C 126.211657 0.176155 0.211305
C 125.478212 -0.667892 1.298567
C 126.075179 -1.303011 2.363482
C 125.050936 -1.994365 3.061666
C 123.863239 -1.763521 2.393768
N 124.129594 -0.913796 1.349347
C 122.449746 -2.379289 2.740841
C 122.420554 -3.455426 3.687706
C 122.410397 -4.357992 4.481050
C 122.400240 -5.433051 5.421116
C 123.198717 -6.551644 5.210028
C 123.154305 -7.566813 6.149626
N 122.382466 -7.536736 7.259948
C 121.618819 -6.433467 7.431142
C 121.592216 -5.365898 6.550609
C 121.321653 -1.927581 2.132875
C 120.025905 -2.515912 2.406055
C 119.118868 -1.896930 1.659366
N 121.115026 -0.937359 1.208300
C 119.785551 -0.872363 0.879687
C 119.111337 -0.065613 0.017498
C 119.880299 1.058441 -0.796369
C 119.330028 2.214730 -1.313737
C 120.357447 2.904548 -2.004702
C 121.508184 2.154993 -1.881903
N 121.219406 1.059989 -1.102125
C 122.920624 2.501013 -2.499817
C 122.951619 3.346111 -3.655195
C 122.966986 4.050491 -4.628466
C 122.990454 4.881539 -5.789781
C 121.950233 5.771080 -6.034441
C 122.020431 6.553418 -7.174196
N 123.038407 6.505596 -8.063444
C 124.031322 5.627762 -7.793083
C 124.054077 4.802716 -6.682058
C 124.048154 1.990328 -1.945085
C 125.374756 2.293919 -2.452786
C 126.265967 1.659194 -1.696696
C 125.543653 0.921652 -0.689017
N 124.216752 1.149733 -0.880126
H 127.293933 0.134976 0.179568
H 127.127629 -1.283654 2.601939
H 125.171354 -2.609659 3.940505
H 123.437608 -0.528635 0.710749
H 123.836205 -6.628012 4.335929
H 123.758897 -8.460175 6.029182
H 121.005817 -6.428542 8.326990
H 120.959773 -4.504595 6.736780
H 119.824076 -3.322801 3.087552
H 118.069619 -2.129517 1.654219
H 118.301119 2.525807 -1.214812
H 120.268069 3.841679 -2.532697
H 121.905150 0.393868 -0.756202
H 121.108611 5.850200 -5.355022
H 121.232628 7.262486 -7.409218
H 124.838496 5.602166 -8.518734
H 124.876319 4.115393 -6.514086
H 125.601334 2.929216 -3.289629
H 127.334523 1.683852 -1.811571
C 74.077046 -0.053177 0.019940
C 72.824776 -0.072358 0.015591
C 75.390714 -0.053943 0.021872
C 76.893848 -0.072358 0.015591
C 87.483803 -0.053177 0.019940
C 86.231532 -0.072358 0.015591
C 88.797471 -0.053943 0.021872
C 90.300605 -0.072358 0.015591
C 100.890560 -0.053177 0.019940
C 99.638289 -0.072358 0.015591
C 102.204228 -0.053943 0.021872
C 103.707361 -0.072358 0.015591
C 114.297316 -0.053177 0.019940
C 113.045046 -0.072358 0.015591
C 115.610984 -0.053943 0.021872
C 117.114118 -0.072358 0.015591
C 77.948553 0.051150 -0.013300
C 78.746167 0.118249 -1.380274
C 78.256631 0.525459 -2.603911
C 79.299009 0.360726 -3.552248
C 80.392887 -0.137654 -2.876673
N 80.067944 -0.213238 -1.545882
C 81.777541 -0.550695 -3.507050
C 81.765652 -1.031233 -4.856402
C 81.739239 -1.442660 -5.985081
C 81.710268 -1.947817 -7.320425
C 82.468022 -3.063644 -7.658703
C 82.405278 -3.518881 -8.963891
N 81.652497 -2.944580 -9.929673
C 80.928214 -1.862936 -9.563569
C 80.922612 -1.330924 -8.285891
C 82.914277 -0.485892 -2.768792
C 84.202839 -0.870385 -3.307353
C 85.117885 -0.707844 -2.357697
N 83.129517 -0.098365 -1.474874
C 84.458830 -0.211370 -1.165973
C 85.129270 0.051150 -0.013300
C 84.335108 0.581879 1.252943
C 84.844162 1.337204 2.289510
C 83.803409 1.511554 3.237471
C 82.688269 0.864523 2.746708
N 83.002389 0.366492 1.506640
C 81.295320 0.715112 3.473323
C 81.288856 0.786836 4.904022
C 81.280526 0.869933 6.103018
C 81.253554 0.986520 7.526302
C 80.162083 1.576891 8.154665
C 80.182477 1.674355 9.535237
N 81.198793 1.230735 10.309714
C 82.242150 0.660982 9.663667
C 82.317019 0.516438 8.288839
C 80.161284 0.509599 2.756953
C 78.870467 0.344167 3.394355
C 77.957035 0.158275 2.447591
C 78.618550 0.201617 1.159124
N 79.949360 0.407274 1.410048
H 77.257490 0.884440 -2.797545
H 79.252979 0.567530 -4.610446
H 80.717325 -0.425889 -0.794362
H 83.088537 -3.563770 -6.922688
H 82.978025 -4.386589 -9.276016
H 80.329334 -1.418018 -10.352060
H 80.321171 -0.460877 -8.046884
H 84.393359 -1.226124 -4.304066
H 86.166563 -0.917134 -2.472350
H 85.856259 1.705418 2.367492
H 83.865623 2.036474 4.178855
H 82.344495 -0.065309 0.862916
H 79.320697 1.952151 7.581632
H 79.353915 2.127781 10.071076
H 83.047190 0.310426 10.302655
H 83.179312 0.051655 7.822950
H 78.677012 0.362001 4.451717
H 76.908111 0.005736 2.625932
C 91.355309 0.051150 -0.013300
C 92.152924 0.118249 -1.380274
C 91.663387 0.525459 -2.603911
C 92.705766 0.360726 -3.552248
C 93.799644 -0.137654 -2.876673
N 93.474700 -0.213238 -1.545882
C 95.184298 -0.550695 -3.507050
C 95.172409 -1.031233 -4.856402
C 95.145995 -1.442660 -5.985081
C 95.117024 -1.947817 -7.320425
C 95.874779 -3.063644 -7.658703
C 95.812034 -3.518881 -8.963891
N 95.059254 -2.944580 -9.929673
C 94.334971 -1.862936 -9.563569
C 94.329369 -1.330924 -8.285891
C 96.321033 -0.485892 -2.768792
C 97.609596 -0.870385 -3.307353
C 98.524641 -0.707844 -2.357697
N 96.536274 -0.098365 -1.474874
C 97.865587 -0.211370 -1.165973
C 98.536027 0.051150 -0.013300
C 97.741865 0.581879 1.252943
C 98.250919 1.337204 2.289510
C 97.210166 1.511554 3.237471
C 96.095026 0.864523 2.746708
N 96.409146 0.366492 1.506640
C 94.702077 0.715112 3.473323
C 94.695612 0.786836 4.904022
C 94.687283 0.869933 6.103018
C 94.660310 0.986520 7.526302
C 93.568839 1.576891 8.154665
C 93.589234 1.674355 9.535237
N 94.605550 1.230735 10.309714
C 95.648907 0.660982 9.663667
C 95.723776 0.516438 8.288839
C 93.568041 0.509599 2.756953
C 92.277224 0.344167 3.394355
C 91.363792 0.158275 2.447591
C 92.025307 0.201617 1.159124
N 93.356116 0.407274 1.410048
H 90.664247 0.884440 -2.797545
H 92.659736 0.567530 -4.610446
H 94.124082 -0.425889 -0.794362
H 96.495294 -3.563770 -6.922688
H 96.384782 -4.386589 -9.276016
H 93.736091 -1.418018 -10.352060
H 93.727928 -0.460877 -8.046884
H 97.800115 -1.226124 -4.304066
H 99.573319 -0.917134 -2.472350
H 99.263016 1.705418 2.367492
H 97.272380 2.036474 4.178855
H 95.751252 -0.065309 0.862916
H 92.727454 1.952151 7.581632
H 92.760672 2.127781 10.071076
H 96.453947 0.310426 10.302655
H 96.586069 0.051655 7.822950
H 92.083768 0.362001 4.451717
H 90.314868 0.005736 2.625932
C 104.762066 0.051150 -0.013300
C 105.559681 0.118249 -1.380274
C 105.070144 0.525459 -2.603911
C 106.112522 0.360726 -3.552248
C 107.206401 -0.137654 -2.876673
N 106.881457 -0.213238 -1.545882
C 108.591054 -0.550695 -3.507050
C 108.579166 -1.031233 -4.856402
C 108.552752 -1.442660 -5.985081
C 108.523781 -1.947817 -7.320425
C 109.281536 -3.063644 -7.658703
C 109.218791 -3.518881 -8.963891
N 108.466011 -2.944580 -9.929673
C 107.741728 -1.862936 -9.563569
C 107.736126 -1.330924 -8.285891
C 109.727790 -0.485892 -2.768792
C 111.016352 -0.870385 -3.307353
C 111.931398 -0.707844 -2.357697
N 109.943031 -0.098365 -1.474874
C 111.272343 -0.211370 -1.165973
C 111.942784 0.051150 -0.013300
C 111.148622 0.581879 1.252943
C 111.657675 1.337204 2.289510
C 110.616922 1.511554 3.237471
C 109.501783 0.864523 2.746708
N 109.815903 0.366492 1.506640
C 108.108833 0.715112 3.473323
C 108.102369 0.786836 4.904022
C 108.094039 0.869933 6.103018
C 108.067067 0.986520 7.526302
C 106.975596 1.576891 8.154665
C 106.995991 1.674355 9.535237
N 108.012307 1.230735 10.309714
C 109.055664 0.660982 9.663667
C 109.130532 0.516438 8.288839
C 106.974797 0.509599 2.756953
C 105.683980 0.344167 3.394355
C 104.770549 0.158275 2.447591
C 105.432064 0.201617 1.159124
N 106.762873 0.407274 1.410048
H 104.071003 0.884440 -2.797545
H 106.066493 0.567530 -4.610446
H 107.530838 -0.425889 -0.794362
H 109.902050 -3.563770 -6.922688
H 109.791539 -4.386589 -9.276016
H 107.142848 -1.418018 -10.352060
H 107.134684 -0.460877 -8.046884
H 111.206872 -1.226124 -4.304066
H 112.980076 -0.917134 -2.472350
H 112.669773 1.705418 2.367492
H 110.679136 2.036474 4.178855
H 109.158008 -0.065309 0.862916
H 106.134211 1.952151 7.581632
H 106.167429 2.127781 10.071076
H 109.860704 0.310426 10.302655
H 109.992826 0.051655 7.822950
H 105.490525 0.362001 4.451717
H 103.721624 0.005736 2.625932
