 xtb: 6.5.1 (b24c23e)
          07292201273D

314341  0     0  0            999 V2000
   44.1799    0.0887    0.0973 C   0  0  0  0  0  0  0  0  0  0  0  0
   44.7901   -0.0759    1.3347 C   0  0  0  0  0  0  0  0  0  0  0  0
   44.1396   -0.1765    2.5956 C   0  0  0  0  0  0  0  0  0  0  0  0
   45.1007   -0.3459    3.5532 C   0  0  0  0  0  0  0  0  0  0  0  0
   46.3685   -0.3650    2.9064 C   0  0  0  0  0  0  0  0  0  0  0  0
   46.1312   -0.1870    1.5728 N   0  0  0  0  0  0  0  0  0  0  0  0
   47.6301   -0.5156    3.4972 C   0  0  0  0  0  0  0  0  0  0  0  0
   47.6577   -0.7423    4.9597 C   0  0  0  0  0  0  0  0  0  0  0  0
   48.3468    0.1231    5.8113 C   0  0  0  0  0  0  0  0  0  0  0  0
   48.3635   -0.0794    7.1793 C   0  0  0  0  0  0  0  0  0  0  0  0
   47.6921   -1.1682    7.7560 C   0  0  0  0  0  0  0  0  0  0  0  0
   47.7529   -1.4104    9.1246 N   0  0  0  0  0  0  0  0  0  0  0  0
   48.1460   -0.2984    9.9904 C   0  0  0  0  0  0  0  0  0  0  0  0
   46.7258   -2.2800    9.6997 C   0  0  0  0  0  0  0  0  0  0  0  0
   47.0143   -2.0461    6.8964 C   0  0  0  0  0  0  0  0  0  0  0  0
   46.9937   -1.8297    5.5308 C   0  0  0  0  0  0  0  0  0  0  0  0
   48.8426   -0.4669    2.8042 C   0  0  0  0  0  0  0  0  0  0  0  0
   50.1382   -0.6903    3.4192 C   0  0  0  0  0  0  0  0  0  0  0  0
   51.0564   -0.5485    2.4404 C   0  0  0  0  0  0  0  0  0  0  0  0
   48.9948   -0.2226    1.4725 N   0  0  0  0  0  0  0  0  0  0  0  0
   50.3197   -0.2540    1.2272 C   0  0  0  0  0  0  0  0  0  0  0  0
   50.9557   -0.0342   -0.0128 C   0  0  0  0  0  0  0  0  0  0  0  0
   50.3200    0.1861   -1.2504 C   0  0  0  0  0  0  0  0  0  0  0  0
   50.9663    0.4279   -2.4910 C   0  0  0  0  0  0  0  0  0  0  0  0
   50.0004    0.5723   -3.4488 C   0  0  0  0  0  0  0  0  0  0  0  0
   48.7336    0.4147   -2.8225 C   0  0  0  0  0  0  0  0  0  0  0  0
   48.9791    0.1927   -1.4924 N   0  0  0  0  0  0  0  0  0  0  0  0
   47.4722    0.4956   -3.4241 C   0  0  0  0  0  0  0  0  0  0  0  0
   47.4402    0.6937   -4.8899 C   0  0  0  0  0  0  0  0  0  0  0  0
   46.7891    1.7916   -5.4559 C   0  0  0  0  0  0  0  0  0  0  0  0
   46.7609    1.9813   -6.8254 C   0  0  0  0  0  0  0  0  0  0  0  0
   47.3806    1.0692   -7.6934 C   0  0  0  0  0  0  0  0  0  0  0  0
   47.3023    1.2195   -9.0739 N   0  0  0  0  0  0  0  0  0  0  0  0
   48.2860    0.5019   -9.8858 C   0  0  0  0  0  0  0  0  0  0  0  0
   46.9516    2.5420   -9.5919 C   0  0  0  0  0  0  0  0  0  0  0  0
   48.0224   -0.0408   -7.1230 C   0  0  0  0  0  0  0  0  0  0  0  0
   48.0562   -0.2160   -5.7518 C   0  0  0  0  0  0  0  0  0  0  0  0
   46.2567    0.4013   -2.7350 C   0  0  0  0  0  0  0  0  0  0  0  0
   44.9497    0.4288   -3.3720 C   0  0  0  0  0  0  0  0  0  0  0  0
   44.0391    0.3234   -2.3827 C   0  0  0  0  0  0  0  0  0  0  0  0
   44.7887    0.2148   -1.1442 C   0  0  0  0  0  0  0  0  0  0  0  0
   46.1207    0.2560   -1.3958 N   0  0  0  0  0  0  0  0  0  0  0  0
   43.0949    0.1163    0.1123 H   0  0  0  0  0  0  0  0  0  0  0  0
   43.0724   -0.1182    2.7398 H   0  0  0  0  0  0  0  0  0  0  0  0
   44.9494   -0.4379    4.6165 H   0  0  0  0  0  0  0  0  0  0  0  0
   46.8565   -0.1384    0.8652 H   0  0  0  0  0  0  0  0  0  0  0  0
   48.8587    0.9847    5.3967 H   0  0  0  0  0  0  0  0  0  0  0  0
   48.9096    0.6251    7.7933 H   0  0  0  0  0  0  0  0  0  0  0  0
   47.4963    0.5722    9.8478 H   0  0  0  0  0  0  0  0  0  0  0  0
   48.0870   -0.6219   11.0290 H   0  0  0  0  0  0  0  0  0  0  0  0
   49.1791   -0.0194    9.7808 H   0  0  0  0  0  0  0  0  0  0  0  0
   45.7178   -1.9245    9.4590 H   0  0  0  0  0  0  0  0  0  0  0  0
   46.8522   -3.2956    9.3229 H   0  0  0  0  0  0  0  0  0  0  0  0
   46.8476   -2.3032   10.7820 H   0  0  0  0  0  0  0  0  0  0  0  0
   46.5000   -2.9159    7.2843 H   0  0  0  0  0  0  0  0  0  0  0  0
   46.4721   -2.5335    4.8910 H   0  0  0  0  0  0  0  0  0  0  0  0
   50.3020   -0.9387    4.4553 H   0  0  0  0  0  0  0  0  0  0  0  0
   52.1287   -0.6422    2.5052 H   0  0  0  0  0  0  0  0  0  0  0  0
   52.0345    0.4882   -2.6234 H   0  0  0  0  0  0  0  0  0  0  0  0
   50.1501    0.7836   -4.4950 H   0  0  0  0  0  0  0  0  0  0  0  0
   48.2555    0.0653   -0.7926 H   0  0  0  0  0  0  0  0  0  0  0  0
   46.3177    2.5242   -4.8098 H   0  0  0  0  0  0  0  0  0  0  0  0
   46.2465    2.8526   -7.2098 H   0  0  0  0  0  0  0  0  0  0  0  0
   48.1594    0.7878  -10.9293 H   0  0  0  0  0  0  0  0  0  0  0  0
   49.3101    0.7321   -9.5719 H   0  0  0  0  0  0  0  0  0  0  0  0
   48.1144   -0.5720   -9.8056 H   0  0  0  0  0  0  0  0  0  0  0  0
   45.9354    2.7959   -9.2887 H   0  0  0  0  0  0  0  0  0  0  0  0
   46.9826    2.5139  -10.6805 H   0  0  0  0  0  0  0  0  0  0  0  0
   47.6434    3.3119   -9.2324 H   0  0  0  0  0  0  0  0  0  0  0  0
   48.4973   -0.7878   -7.7460 H   0  0  0  0  0  0  0  0  0  0  0  0
   48.5483   -1.0915   -5.3418 H   0  0  0  0  0  0  0  0  0  0  0  0
   44.7756    0.5021   -4.4335 H   0  0  0  0  0  0  0  0  0  0  0  0
   42.9628    0.3051   -2.4544 H   0  0  0  0  0  0  0  0  0  0  0  0
  106.6423    0.1180   -0.0838 C   0  0  0  0  0  0  0  0  0  0  0  0
  106.0314    0.2434   -1.3254 C   0  0  0  0  0  0  0  0  0  0  0  0
  106.6808    0.4426   -2.5751 C   0  0  0  0  0  0  0  0  0  0  0  0
  105.7194    0.4963   -3.5457 C   0  0  0  0  0  0  0  0  0  0  0  0
  104.4525    0.3206   -2.9210 C   0  0  0  0  0  0  0  0  0  0  0  0
  104.6906    0.1842   -1.5828 N   0  0  0  0  0  0  0  0  0  0  0  0
  103.1907    0.3062   -3.5303 C   0  0  0  0  0  0  0  0  0  0  0  0
  103.1617    0.4281   -5.0052 C   0  0  0  0  0  0  0  0  0  0  0  0
  102.4661    1.4651   -5.6296 C   0  0  0  0  0  0  0  0  0  0  0  0
  102.4475    1.5892   -7.0068 C   0  0  0  0  0  0  0  0  0  0  0  0
  103.1240    0.6703   -7.8234 C   0  0  0  0  0  0  0  0  0  0  0  0
  103.0618    0.7558   -9.2106 N   0  0  0  0  0  0  0  0  0  0  0  0
  102.6617    2.0380   -9.7906 C   0  0  0  0  0  0  0  0  0  0  0  0
  104.0929    0.0517   -9.9741 C   0  0  0  0  0  0  0  0  0  0  0  0
  103.8084   -0.3809   -7.1943 C   0  0  0  0  0  0  0  0  0  0  0  0
  103.8306   -0.4910   -5.8160 C   0  0  0  0  0  0  0  0  0  0  0  0
  101.9789    0.1871   -2.8447 C   0  0  0  0  0  0  0  0  0  0  0  0
  100.6834    0.1078   -3.4945 C   0  0  0  0  0  0  0  0  0  0  0  0
   99.7657    0.0157   -2.5094 C   0  0  0  0  0  0  0  0  0  0  0  0
  101.8271    0.1150   -1.4927 N   0  0  0  0  0  0  0  0  0  0  0  0
  100.5025    0.0233   -1.2611 C   0  0  0  0  0  0  0  0  0  0  0  0
   99.8669   -0.0512   -0.0038 C   0  0  0  0  0  0  0  0  0  0  0  0
  100.5030   -0.1211    1.2510 C   0  0  0  0  0  0  0  0  0  0  0  0
   99.8574   -0.1748    2.5142 C   0  0  0  0  0  0  0  0  0  0  0  0
  100.8239   -0.2556    3.4789 C   0  0  0  0  0  0  0  0  0  0  0  0
  102.0904   -0.2613    2.8325 C   0  0  0  0  0  0  0  0  0  0  0  0
  101.8441   -0.1686    1.4874 N   0  0  0  0  0  0  0  0  0  0  0  0
  103.3522   -0.3202    3.4358 C   0  0  0  0  0  0  0  0  0  0  0  0
  103.3853   -0.4690    4.9074 C   0  0  0  0  0  0  0  0  0  0  0  0
  104.0338    0.4689    5.7132 C   0  0  0  0  0  0  0  0  0  0  0  0
  104.0638    0.3342    7.0891 C   0  0  0  0  0  0  0  0  0  0  0  0
  103.4486   -0.7573    7.7211 C   0  0  0  0  0  0  0  0  0  0  0  0
  103.5293   -0.9325    9.0985 N   0  0  0  0  0  0  0  0  0  0  0  0
  102.5512   -1.8251    9.7219 C   0  0  0  0  0  0  0  0  0  0  0  0
  103.8736    0.2352    9.9099 C   0  0  0  0  0  0  0  0  0  0  0  0
  102.8092   -1.7059    6.9082 C   0  0  0  0  0  0  0  0  0  0  0  0
  102.7735   -1.5567    5.5340 C   0  0  0  0  0  0  0  0  0  0  0  0
  104.5672   -0.2480    2.7433 C   0  0  0  0  0  0  0  0  0  0  0  0
  105.8747   -0.3654    3.3690 C   0  0  0  0  0  0  0  0  0  0  0  0
  106.7847   -0.2329    2.3824 C   0  0  0  0  0  0  0  0  0  0  0  0
  106.0344   -0.0522    1.1529 C   0  0  0  0  0  0  0  0  0  0  0  0
  104.7024   -0.0762    1.4072 N   0  0  0  0  0  0  0  0  0  0  0  0
  107.7272    0.1536   -0.0919 H   0  0  0  0  0  0  0  0  0  0  0  0
  107.7475    0.5384   -2.7018 H   0  0  0  0  0  0  0  0  0  0  0  0
  105.8699    0.6553   -4.6012 H   0  0  0  0  0  0  0  0  0  0  0  0
  103.9659    0.0632   -0.8832 H   0  0  0  0  0  0  0  0  0  0  0  0
  101.9503    2.2024   -5.0240 H   0  0  0  0  0  0  0  0  0  0  0  0
  101.8962    2.4148   -7.4379 H   0  0  0  0  0  0  0  0  0  0  0  0
  103.3079    2.8540   -9.4483 H   0  0  0  0  0  0  0  0  0  0  0  0
  102.7199    1.9677  -10.8763 H   0  0  0  0  0  0  0  0  0  0  0  0
  101.6279    2.2549   -9.5203 H   0  0  0  0  0  0  0  0  0  0  0  0
  105.0993    0.3458   -9.6561 H   0  0  0  0  0  0  0  0  0  0  0  0
  103.9722   -1.0248   -9.8473 H   0  0  0  0  0  0  0  0  0  0  0  0
  103.9703    0.2836  -11.0315 H   0  0  0  0  0  0  0  0  0  0  0  0
  104.3268   -1.1324   -7.7759 H   0  0  0  0  0  0  0  0  0  0  0  0
  104.3574   -1.3223   -5.3597 H   0  0  0  0  0  0  0  0  0  0  0  0
  100.5194    0.1056   -4.5599 H   0  0  0  0  0  0  0  0  0  0  0  0
   98.6936   -0.0638   -2.5939 H   0  0  0  0  0  0  0  0  0  0  0  0
   98.7892   -0.1485    2.6575 H   0  0  0  0  0  0  0  0  0  0  0  0
  100.6748   -0.2935    4.5457 H   0  0  0  0  0  0  0  0  0  0  0  0
  102.5673   -0.1289    0.7768 H   0  0  0  0  0  0  0  0  0  0  0  0
  104.5019    1.3335    5.2551 H   0  0  0  0  0  0  0  0  0  0  0  0
  104.5761    1.0936    7.6656 H   0  0  0  0  0  0  0  0  0  0  0  0
  102.6802   -1.7911   10.8031 H   0  0  0  0  0  0  0  0  0  0  0  0
  101.5251   -1.5327    9.4730 H   0  0  0  0  0  0  0  0  0  0  0  0
  102.7271   -2.8495    9.3918 H   0  0  0  0  0  0  0  0  0  0  0  0
  104.8884    0.5576    9.6749 H   0  0  0  0  0  0  0  0  0  0  0  0
  103.8429   -0.0451   10.9622 H   0  0  0  0  0  0  0  0  0  0  0  0
  103.1778    1.0641    9.7384 H   0  0  0  0  0  0  0  0  0  0  0  0
  102.3377   -2.5792    7.3403 H   0  0  0  0  0  0  0  0  0  0  0  0
  102.2833   -2.3140    4.9316 H   0  0  0  0  0  0  0  0  0  0  0  0
  106.0496   -0.5416    4.4182 H   0  0  0  0  0  0  0  0  0  0  0  0
  107.8612   -0.2632    2.4478 H   0  0  0  0  0  0  0  0  0  0  0  0
   52.3601   -0.0337   -0.0294 C   0  0  0  0  0  0  0  0  0  0  0  0
   53.5852   -0.0203   -0.0400 C   0  0  0  0  0  0  0  0  0  0  0  0
   54.9269   -0.0088   -0.0506 C   0  0  0  0  0  0  0  0  0  0  0  0
   56.1582    0.0050   -0.0598 C   0  0  0  0  0  0  0  0  0  0  0  0
   57.4950    0.0209   -0.0638 C   0  0  0  0  0  0  0  0  0  0  0  0
   58.7263    0.0365   -0.0646 C   0  0  0  0  0  0  0  0  0  0  0  0
   60.0677    0.0550   -0.0614 C   0  0  0  0  0  0  0  0  0  0  0  0
   61.2930    0.0778   -0.0611 C   0  0  0  0  0  0  0  0  0  0  0  0
   70.9449    0.0472   -0.0027 C   0  0  0  0  0  0  0  0  0  0  0  0
   72.1703    0.0277   -0.0034 C   0  0  0  0  0  0  0  0  0  0  0  0
   73.5115    0.0157   -0.0017 C   0  0  0  0  0  0  0  0  0  0  0  0
   74.7430    0.0103   -0.0026 C   0  0  0  0  0  0  0  0  0  0  0  0
   76.0796    0.0110   -0.0027 C   0  0  0  0  0  0  0  0  0  0  0  0
   77.3112    0.0174   -0.0038 C   0  0  0  0  0  0  0  0  0  0  0  0
   78.6524    0.0294   -0.0018 C   0  0  0  0  0  0  0  0  0  0  0  0
   79.8778    0.0462   -0.0023 C   0  0  0  0  0  0  0  0  0  0  0  0
   89.5297    0.0499    0.0548 C   0  0  0  0  0  0  0  0  0  0  0  0
   90.7550    0.0256    0.0574 C   0  0  0  0  0  0  0  0  0  0  0  0
   92.0963    0.0022    0.0590 C   0  0  0  0  0  0  0  0  0  0  0  0
   93.3275   -0.0174    0.0554 C   0  0  0  0  0  0  0  0  0  0  0  0
   94.6644   -0.0348    0.0501 C   0  0  0  0  0  0  0  0  0  0  0  0
   95.8956   -0.0466    0.0408 C   0  0  0  0  0  0  0  0  0  0  0  0
   97.2373   -0.0538    0.0290 C   0  0  0  0  0  0  0  0  0  0  0  0
   98.4625   -0.0581    0.0126 C   0  0  0  0  0  0  0  0  0  0  0  0
   62.6962    0.0971   -0.0520 C   0  0  0  0  0  0  0  0  0  0  0  0
   63.3136    0.0313    1.2132 C   0  0  0  0  0  0  0  0  0  0  0  0
   62.6542   -0.0780    2.4638 C   0  0  0  0  0  0  0  0  0  0  0  0
   63.6094   -0.0754    3.4444 C   0  0  0  0  0  0  0  0  0  0  0  0
   64.8796    0.0434    2.8194 C   0  0  0  0  0  0  0  0  0  0  0  0
   64.6507    0.0912    1.4700 N   0  0  0  0  0  0  0  0  0  0  0  0
   66.1324    0.0878    3.4472 C   0  0  0  0  0  0  0  0  0  0  0  0
   66.1289    0.0953    4.9274 C   0  0  0  0  0  0  0  0  0  0  0  0
   65.4649    1.0979    5.6372 C   0  0  0  0  0  0  0  0  0  0  0  0
   65.4597    1.1147    7.0198 C   0  0  0  0  0  0  0  0  0  0  0  0
   66.1090    0.1119    7.7562 C   0  0  0  0  0  0  0  0  0  0  0  0
   66.1444    0.1537    9.1460 N   0  0  0  0  0  0  0  0  0  0  0  0
   65.1172    0.9481    9.8212 C   0  0  0  0  0  0  0  0  0  0  0  0
   66.5045   -1.0770    9.8504 C   0  0  0  0  0  0  0  0  0  0  0  0
   66.7790   -0.8923    7.0407 C   0  0  0  0  0  0  0  0  0  0  0  0
   66.7893   -0.8943    5.6579 C   0  0  0  0  0  0  0  0  0  0  0  0
   67.3615    0.1263    2.7850 C   0  0  0  0  0  0  0  0  0  0  0  0
   68.6427    0.2317    3.4591 C   0  0  0  0  0  0  0  0  0  0  0  0
   69.5860    0.2154    2.4940 C   0  0  0  0  0  0  0  0  0  0  0  0
   67.5467    0.0786    1.4363 N   0  0  0  0  0  0  0  0  0  0  0  0
   68.8788    0.1181    1.2332 C   0  0  0  0  0  0  0  0  0  0  0  0
   69.5419    0.0711   -0.0105 C   0  0  0  0  0  0  0  0  0  0  0  0
   68.9243    0.0591   -1.2772 C   0  0  0  0  0  0  0  0  0  0  0  0
   69.5830   -0.0073   -2.5313 C   0  0  0  0  0  0  0  0  0  0  0  0
   68.6282    0.0403   -3.5109 C   0  0  0  0  0  0  0  0  0  0  0  0
   67.3588    0.1452   -2.8816 C   0  0  0  0  0  0  0  0  0  0  0  0
   67.5879    0.1395   -1.5312 N   0  0  0  0  0  0  0  0  0  0  0  0
   66.1065    0.2229   -3.5066 C   0  0  0  0  0  0  0  0  0  0  0  0
   66.1088    0.2834   -4.9857 C   0  0  0  0  0  0  0  0  0  0  0  0
   66.7785    1.3056   -5.6613 C   0  0  0  0  0  0  0  0  0  0  0  0
   66.7800    1.3712   -7.0424 C   0  0  0  0  0  0  0  0  0  0  0  0
   66.1211    0.4000   -7.8119 C   0  0  0  0  0  0  0  0  0  0  0  0
   66.0813    0.4924   -9.1990 N   0  0  0  0  0  0  0  0  0  0  0  0
   65.6979   -0.7054   -9.9463 C   0  0  0  0  0  0  0  0  0  0  0  0
   67.1163    1.2969   -9.8497 C   0  0  0  0  0  0  0  0  0  0  0  0
   65.4465   -0.6247   -7.1306 C   0  0  0  0  0  0  0  0  0  0  0  0
   65.4399   -0.6755   -5.7487 C   0  0  0  0  0  0  0  0  0  0  0  0
   64.8776    0.2467   -2.8429 C   0  0  0  0  0  0  0  0  0  0  0  0
   63.5975    0.3878   -3.5124 C   0  0  0  0  0  0  0  0  0  0  0  0
   62.6539    0.3413   -2.5486 C   0  0  0  0  0  0  0  0  0  0  0  0
   63.3599    0.1899   -1.2926 C   0  0  0  0  0  0  0  0  0  0  0  0
   64.6919    0.1487   -1.4972 N   0  0  0  0  0  0  0  0  0  0  0  0
   61.5862   -0.1531    2.5894 H   0  0  0  0  0  0  0  0  0  0  0  0
   63.4487   -0.1618    4.5066 H   0  0  0  0  0  0  0  0  0  0  0  0
   65.3780    0.1548    0.7655 H   0  0  0  0  0  0  0  0  0  0  0  0
   64.9644    1.8938    5.0960 H   0  0  0  0  0  0  0  0  0  0  0  0
   64.9475    1.9268    7.5194 H   0  0  0  0  0  0  0  0  0  0  0  0
   65.2166    0.8133   10.8976 H   0  0  0  0  0  0  0  0  0  0  0  0
   65.2648    2.0051    9.5971 H   0  0  0  0  0  0  0  0  0  0  0  0
   64.1099    0.6471    9.5128 H   0  0  0  0  0  0  0  0  0  0  0  0
   67.5359   -1.3435    9.6174 H   0  0  0  0  0  0  0  0  0  0  0  0
   65.8420   -1.9058    9.5770 H   0  0  0  0  0  0  0  0  0  0  0  0
   66.4345   -0.9024   10.9235 H   0  0  0  0  0  0  0  0  0  0  0  0
   67.3029   -1.6866    7.5565 H   0  0  0  0  0  0  0  0  0  0  0  0
   67.2994   -1.6947    5.1328 H   0  0  0  0  0  0  0  0  0  0  0  0
   68.7815    0.3226    4.5241 H   0  0  0  0  0  0  0  0  0  0  0  0
   70.6575    0.2760    2.5985 H   0  0  0  0  0  0  0  0  0  0  0  0
   70.6505   -0.0865   -2.6596 H   0  0  0  0  0  0  0  0  0  0  0  0
   68.7881   -0.0066   -4.5757 H   0  0  0  0  0  0  0  0  0  0  0  0
   66.8608    0.1818   -0.8250 H   0  0  0  0  0  0  0  0  0  0  0  0
   67.2859    2.0783   -5.0937 H   0  0  0  0  0  0  0  0  0  0  0  0
   67.2964    2.1969   -7.5149 H   0  0  0  0  0  0  0  0  0  0  0  0
   66.3479   -1.5545   -9.7075 H   0  0  0  0  0  0  0  0  0  0  0  0
   64.6635   -0.9635   -9.7174 H   0  0  0  0  0  0  0  0  0  0  0  0
   65.7655   -0.4925  -11.0126 H   0  0  0  0  0  0  0  0  0  0  0  0
   68.1206    0.9743   -9.5536 H   0  0  0  0  0  0  0  0  0  0  0  0
   67.0136    1.1989  -10.9298 H   0  0  0  0  0  0  0  0  0  0  0  0
   66.9814    2.3476   -9.5905 H   0  0  0  0  0  0  0  0  0  0  0  0
   64.9162   -1.3970   -7.6725 H   0  0  0  0  0  0  0  0  0  0  0  0
   64.9258   -1.4904   -5.2507 H   0  0  0  0  0  0  0  0  0  0  0  0
   63.4598    0.5209   -4.5731 H   0  0  0  0  0  0  0  0  0  0  0  0
   61.5829    0.4139   -2.6508 H   0  0  0  0  0  0  0  0  0  0  0  0
   81.2808    0.0673    0.0059 C   0  0  0  0  0  0  0  0  0  0  0  0
   81.8987    0.0101    1.2712 C   0  0  0  0  0  0  0  0  0  0  0  0
   81.2399   -0.0986    2.5223 C   0  0  0  0  0  0  0  0  0  0  0  0
   82.1950   -0.0886    3.5028 C   0  0  0  0  0  0  0  0  0  0  0  0
   83.4647    0.0348    2.8774 C   0  0  0  0  0  0  0  0  0  0  0  0
   83.2354    0.0776    1.5277 N   0  0  0  0  0  0  0  0  0  0  0  0
   84.7172    0.0861    3.5046 C   0  0  0  0  0  0  0  0  0  0  0  0
   84.7148    0.0957    4.9848 C   0  0  0  0  0  0  0  0  0  0  0  0
   84.0470    1.0957    5.6947 C   0  0  0  0  0  0  0  0  0  0  0  0
   84.0454    1.1146    7.0772 C   0  0  0  0  0  0  0  0  0  0  0  0
   84.7024    0.1168    7.8135 C   0  0  0  0  0  0  0  0  0  0  0  0
   84.7425    0.1627    9.2028 N   0  0  0  0  0  0  0  0  0  0  0  0
   83.7103    0.9486    9.8802 C   0  0  0  0  0  0  0  0  0  0  0  0
   85.1222   -1.0602    9.9102 C   0  0  0  0  0  0  0  0  0  0  0  0
   85.3748   -0.8858    7.0979 C   0  0  0  0  0  0  0  0  0  0  0  0
   85.3815   -0.8900    5.7152 C   0  0  0  0  0  0  0  0  0  0  0  0
   85.9462    0.1284    2.8420 C   0  0  0  0  0  0  0  0  0  0  0  0
   87.2270    0.2400    3.5157 C   0  0  0  0  0  0  0  0  0  0  0  0
   88.1703    0.2241    2.5506 C   0  0  0  0  0  0  0  0  0  0  0  0
   86.1313    0.0782    1.4935 N   0  0  0  0  0  0  0  0  0  0  0  0
   87.4634    0.1214    1.2902 C   0  0  0  0  0  0  0  0  0  0  0  0
   88.1265    0.0740    0.0466 C   0  0  0  0  0  0  0  0  0  0  0  0
   87.5088    0.0593   -1.2199 C   0  0  0  0  0  0  0  0  0  0  0  0
   88.1679   -0.0028   -2.4740 C   0  0  0  0  0  0  0  0  0  0  0  0
   87.2126    0.0384   -3.4536 C   0  0  0  0  0  0  0  0  0  0  0  0
   85.9426    0.1346   -2.8243 C   0  0  0  0  0  0  0  0  0  0  0  0
   86.1718    0.1311   -1.4740 N   0  0  0  0  0  0  0  0  0  0  0  0
   84.6897    0.2017   -3.4498 C   0  0  0  0  0  0  0  0  0  0  0  0
   84.6932    0.2629   -4.9289 C   0  0  0  0  0  0  0  0  0  0  0  0
   85.3544    1.2925   -5.6016 C   0  0  0  0  0  0  0  0  0  0  0  0
   85.3594    1.3597   -6.9826 C   0  0  0  0  0  0  0  0  0  0  0  0
   84.7128    0.3826   -7.7550 C   0  0  0  0  0  0  0  0  0  0  0  0
   84.6769    0.4753   -9.1424 N   0  0  0  0  0  0  0  0  0  0  0  0
   84.3164   -0.7287   -9.8912 C   0  0  0  0  0  0  0  0  0  0  0  0
   85.7035    1.2943   -9.7884 C   0  0  0  0  0  0  0  0  0  0  0  0
   84.0460   -0.6491   -7.0767 C   0  0  0  0  0  0  0  0  0  0  0  0
   84.0358   -0.7016   -5.6948 C   0  0  0  0  0  0  0  0  0  0  0  0
   83.4607    0.2161   -2.7866 C   0  0  0  0  0  0  0  0  0  0  0  0
   82.1794    0.3438   -3.4566 C   0  0  0  0  0  0  0  0  0  0  0  0
   81.2363    0.2950   -2.4924 C   0  0  0  0  0  0  0  0  0  0  0  0
   81.9437    0.1554   -1.2357 C   0  0  0  0  0  0  0  0  0  0  0  0
   83.2757    0.1225   -1.4402 N   0  0  0  0  0  0  0  0  0  0  0  0
   80.1722   -0.1793    2.6480 H   0  0  0  0  0  0  0  0  0  0  0  0
   82.0349   -0.1730    4.5653 H   0  0  0  0  0  0  0  0  0  0  0  0
   83.9625    0.1428    0.8232 H   0  0  0  0  0  0  0  0  0  0  0  0
   83.5412    1.8882    5.1535 H   0  0  0  0  0  0  0  0  0  0  0  0
   83.5305    1.9249    7.5771 H   0  0  0  0  0  0  0  0  0  0  0  0
   83.8118    0.8132   10.9563 H   0  0  0  0  0  0  0  0  0  0  0  0
   83.8496    2.0070    9.6572 H   0  0  0  0  0  0  0  0  0  0  0  0
   82.7050    0.6403    9.5726 H   0  0  0  0  0  0  0  0  0  0  0  0
   86.1545   -1.3161    9.6697 H   0  0  0  0  0  0  0  0  0  0  0  0
   84.4670   -1.8979    9.6467 H   0  0  0  0  0  0  0  0  0  0  0  0
   85.0593   -0.8809   10.9830 H   0  0  0  0  0  0  0  0  0  0  0  0
   85.9033   -1.6772    7.6135 H   0  0  0  0  0  0  0  0  0  0  0  0
   85.8937   -1.6888    5.1900 H   0  0  0  0  0  0  0  0  0  0  0  0
   87.3655    0.3343    4.5805 H   0  0  0  0  0  0  0  0  0  0  0  0
   89.2416    0.2886    2.6550 H   0  0  0  0  0  0  0  0  0  0  0  0
   89.2358   -0.0746   -2.6024 H   0  0  0  0  0  0  0  0  0  0  0  0
   87.3730   -0.0074   -4.5184 H   0  0  0  0  0  0  0  0  0  0  0  0
   85.4445    0.1690   -0.7677 H   0  0  0  0  0  0  0  0  0  0  0  0
   85.8526    2.0695   -5.0316 H   0  0  0  0  0  0  0  0  0  0  0  0
   85.8692    2.1909   -7.4523 H   0  0  0  0  0  0  0  0  0  0  0  0
   84.9780   -1.5675   -9.6477 H   0  0  0  0  0  0  0  0  0  0  0  0
   83.2847   -1.0026   -9.6687 H   0  0  0  0  0  0  0  0  0  0  0  0
   84.3874   -0.5155  -10.9572 H   0  0  0  0  0  0  0  0  0  0  0  0
   86.7111    0.9824   -9.4918 H   0  0  0  0  0  0  0  0  0  0  0  0
   85.6035    1.1990  -10.8690 H   0  0  0  0  0  0  0  0  0  0  0  0
   85.5557    2.3423   -9.5257 H   0  0  0  0  0  0  0  0  0  0  0  0
   83.5247   -1.4258   -7.6211 H   0  0  0  0  0  0  0  0  0  0  0  0
   83.5282   -1.5221   -5.1993 H   0  0  0  0  0  0  0  0  0  0  0  0
   82.0404    0.4698   -4.5180 H   0  0  0  0  0  0  0  0  0  0  0  0
   80.1647    0.3587   -2.5947 H   0  0  0  0  0  0  0  0  0  0  0  0
  1  2  4  0  0  0  0
  2  3  4  0  0  0  0
  3  4  2  0  0  0  0
  4  5  4  0  0  0  0
  2  6  4  0  0  0  0
  5  6  4  0  0  0  0
  5  7  4  0  0  0  0
  7  8  1  0  0  0  0
  8  9  4  0  0  0  0
  9 10  4  0  0  0  0
 10 11  4  0  0  0  0
 11 12  1  0  0  0  0
 12 13  1  0  0  0  0
 12 14  1  0  0  0  0
 11 15  4  0  0  0  0
  8 16  4  0  0  0  0
 15 16  4  0  0  0  0
  7 17  4  0  0  0  0
 17 18  1  0  0  0  0
 18 19  2  0  0  0  0
 17 20  4  0  0  0  0
 19 21  1  0  0  0  0
 20 21  4  0  0  0  0
 21 22  4  0  0  0  0
 22 23  4  0  0  0  0
 23 24  4  0  0  0  0
 24 25  2  0  0  0  0
 25 26  4  0  0  0  0
 23 27  4  0  0  0  0
 26 27  4  0  0  0  0
 26 28  4  0  0  0  0
 28 29  1  0  0  0  0
 29 30  4  0  0  0  0
 30 31  4  0  0  0  0
 31 32  4  0  0  0  0
 32 33  1  0  0  0  0
 33 34  1  0  0  0  0
 33 35  1  0  0  0  0
 32 36  4  0  0  0  0
 29 37  4  0  0  0  0
 36 37  4  0  0  0  0
 28 38  4  0  0  0  0
 38 39  1  0  0  0  0
 39 40  2  0  0  0  0
  1 41  4  0  0  0  0
 40 41  1  0  0  0  0
 38 42  4  0  0  0  0
 41 42  4  0  0  0  0
  1 43  1  0  0  0  0
  3 44  1  0  0  0  0
  4 45  1  0  0  0  0
  6 46  1  0  0  0  0
  9 47  1  0  0  0  0
 10 48  1  0  0  0  0
 13 49  1  0  0  0  0
 13 50  1  0  0  0  0
 13 51  1  0  0  0  0
 14 52  1  0  0  0  0
 14 53  1  0  0  0  0
 14 54  1  0  0  0  0
 15 55  1  0  0  0  0
 16 56  1  0  0  0  0
 18 57  1  0  0  0  0
 19 58  1  0  0  0  0
 24 59  1  0  0  0  0
 25 60  1  0  0  0  0
 27 61  1  0  0  0  0
 30 62  1  0  0  0  0
 31 63  1  0  0  0  0
 34 64  1  0  0  0  0
 34 65  1  0  0  0  0
 34 66  1  0  0  0  0
 35 67  1  0  0  0  0
 35 68  1  0  0  0  0
 35 69  1  0  0  0  0
 36 70  1  0  0  0  0
 37 71  1  0  0  0  0
 39 72  1  0  0  0  0
 40 73  1  0  0  0  0
 74 75  4  0  0  0  0
 75 76  4  0  0  0  0
 76 77  2  0  0  0  0
 77 78  4  0  0  0  0
 75 79  4  0  0  0  0
 78 79  4  0  0  0  0
 78 80  4  0  0  0  0
 80 81  1  0  0  0  0
 81 82  4  0  0  0  0
 82 83  4  0  0  0  0
 83 84  4  0  0  0  0
 84 85  1  0  0  0  0
 85 86  1  0  0  0  0
 85 87  1  0  0  0  0
 84 88  4  0  0  0  0
 81 89  4  0  0  0  0
 88 89  4  0  0  0  0
 80 90  4  0  0  0  0
 90 91  1  0  0  0  0
 91 92  2  0  0  0  0
 90 93  4  0  0  0  0
 92 94  1  0  0  0  0
 93 94  4  0  0  0  0
 94 95  4  0  0  0  0
 95 96  4  0  0  0  0
 96 97  4  0  0  0  0
 97 98  2  0  0  0  0
 98 99  4  0  0  0  0
 96100  4  0  0  0  0
 99100  4  0  0  0  0
 99101  4  0  0  0  0
101102  1  0  0  0  0
102103  4  0  0  0  0
103104  4  0  0  0  0
104105  4  0  0  0  0
105106  1  0  0  0  0
106107  1  0  0  0  0
106108  1  0  0  0  0
105109  4  0  0  0  0
102110  4  0  0  0  0
109110  4  0  0  0  0
101111  4  0  0  0  0
111112  1  0  0  0  0
112113  2  0  0  0  0
 74114  4  0  0  0  0
113114  1  0  0  0  0
111115  4  0  0  0  0
114115  4  0  0  0  0
 74116  1  0  0  0  0
 76117  1  0  0  0  0
 77118  1  0  0  0  0
 79119  1  0  0  0  0
 82120  1  0  0  0  0
 83121  1  0  0  0  0
 86122  1  0  0  0  0
 86123  1  0  0  0  0
 86124  1  0  0  0  0
 87125  1  0  0  0  0
 87126  1  0  0  0  0
 87127  1  0  0  0  0
 88128  1  0  0  0  0
 89129  1  0  0  0  0
 91130  1  0  0  0  0
 92131  1  0  0  0  0
 97132  1  0  0  0  0
 98133  1  0  0  0  0
100134  1  0  0  0  0
103135  1  0  0  0  0
104136  1  0  0  0  0
107137  1  0  0  0  0
107138  1  0  0  0  0
107139  1  0  0  0  0
108140  1  0  0  0  0
108141  1  0  0  0  0
108142  1  0  0  0  0
109143  1  0  0  0  0
110144  1  0  0  0  0
112145  1  0  0  0  0
113146  1  0  0  0  0
 22147  4  0  0  0  0
147148  3  0  0  0  0
148149  4  0  0  0  0
149150  3  0  0  0  0
150151  4  0  0  0  0
151152  3  0  0  0  0
152153  4  0  0  0  0
153154  3  0  0  0  0
155156  3  0  0  0  0
156157  4  0  0  0  0
157158  3  0  0  0  0
158159  4  0  0  0  0
159160  3  0  0  0  0
160161  4  0  0  0  0
161162  3  0  0  0  0
163164  3  0  0  0  0
164165  4  0  0  0  0
165166  3  0  0  0  0
166167  4  0  0  0  0
167168  3  0  0  0  0
168169  4  0  0  0  0
 95170  4  0  0  0  0
169170  3  0  0  0  0
154171  4  0  0  0  0
171172  4  0  0  0  0
172173  4  0  0  0  0
173174  2  0  0  0  0
174175  4  0  0  0  0
172176  4  0  0  0  0
175176  4  0  0  0  0
175177  4  0  0  0  0
177178  1  0  0  0  0
178179  4  0  0  0  0
179180  4  0  0  0  0
180181  4  0  0  0  0
181182  1  0  0  0  0
182183  1  0  0  0  0
182184  1  0  0  0  0
181185  4  0  0  0  0
178186  4  0  0  0  0
185186  4  0  0  0  0
177187  4  0  0  0  0
187188  1  0  0  0  0
188189  2  0  0  0  0
187190  4  0  0  0  0
189191  1  0  0  0  0
190191  4  0  0  0  0
155192  4  0  0  0  0
191192  4  0  0  0  0
192193  4  0  0  0  0
193194  4  0  0  0  0
194195  2  0  0  0  0
195196  4  0  0  0  0
193197  4  0  0  0  0
196197  4  0  0  0  0
196198  4  0  0  0  0
198199  1  0  0  0  0
199200  4  0  0  0  0
200201  4  0  0  0  0
201202  4  0  0  0  0
202203  1  0  0  0  0
203204  1  0  0  0  0
203205  1  0  0  0  0
202206  4  0  0  0  0
199207  4  0  0  0  0
206207  4  0  0  0  0
198208  4  0  0  0  0
208209  1  0  0  0  0
209210  2  0  0  0  0
171211  4  0  0  0  0
210211  1  0  0  0  0
208212  4  0  0  0  0
211212  4  0  0  0  0
173213  1  0  0  0  0
174214  1  0  0  0  0
176215  1  0  0  0  0
179216  1  0  0  0  0
180217  1  0  0  0  0
183218  1  0  0  0  0
183219  1  0  0  0  0
183220  1  0  0  0  0
184221  1  0  0  0  0
184222  1  0  0  0  0
184223  1  0  0  0  0
185224  1  0  0  0  0
186225  1  0  0  0  0
188226  1  0  0  0  0
189227  1  0  0  0  0
194228  1  0  0  0  0
195229  1  0  0  0  0
197230  1  0  0  0  0
200231  1  0  0  0  0
201232  1  0  0  0  0
204233  1  0  0  0  0
204234  1  0  0  0  0
204235  1  0  0  0  0
205236  1  0  0  0  0
205237  1  0  0  0  0
205238  1  0  0  0  0
206239  1  0  0  0  0
207240  1  0  0  0  0
209241  1  0  0  0  0
210242  1  0  0  0  0
162243  4  0  0  0  0
243244  4  0  0  0  0
244245  4  0  0  0  0
245246  2  0  0  0  0
246247  4  0  0  0  0
244248  4  0  0  0  0
247248  4  0  0  0  0
247249  4  0  0  0  0
249250  1  0  0  0  0
250251  4  0  0  0  0
251252  4  0  0  0  0
252253  4  0  0  0  0
253254  1  0  0  0  0
254255  1  0  0  0  0
254256  1  0  0  0  0
253257  4  0  0  0  0
250258  4  0  0  0  0
257258  4  0  0  0  0
249259  4  0  0  0  0
259260  1  0  0  0  0
260261  2  0  0  0  0
259262  4  0  0  0  0
261263  1  0  0  0  0
262263  4  0  0  0  0
163264  4  0  0  0  0
263264  4  0  0  0  0
264265  4  0  0  0  0
265266  4  0  0  0  0
266267  2  0  0  0  0
267268  4  0  0  0  0
265269  4  0  0  0  0
268269  4  0  0  0  0
268270  4  0  0  0  0
270271  1  0  0  0  0
271272  4  0  0  0  0
272273  4  0  0  0  0
273274  4  0  0  0  0
274275  1  0  0  0  0
275276  1  0  0  0  0
275277  1  0  0  0  0
274278  4  0  0  0  0
271279  4  0  0  0  0
278279  4  0  0  0  0
270280  4  0  0  0  0
280281  1  0  0  0  0
281282  2  0  0  0  0
243283  4  0  0  0  0
282283  1  0  0  0  0
280284  4  0  0  0  0
283284  4  0  0  0  0
245285  1  0  0  0  0
246286  1  0  0  0  0
248287  1  0  0  0  0
251288  1  0  0  0  0
252289  1  0  0  0  0
255290  1  0  0  0  0
255291  1  0  0  0  0
255292  1  0  0  0  0
256293  1  0  0  0  0
256294  1  0  0  0  0
256295  1  0  0  0  0
257296  1  0  0  0  0
258297  1  0  0  0  0
260298  1  0  0  0  0
261299  1  0  0  0  0
266300  1  0  0  0  0
267301  1  0  0  0  0
269302  1  0  0  0  0
272303  1  0  0  0  0
273304  1  0  0  0  0
276305  1  0  0  0  0
276306  1  0  0  0  0
276307  1  0  0  0  0
277308  1  0  0  0  0
277309  1  0  0  0  0
277310  1  0  0  0  0
278311  1  0  0  0  0
279312  1  0  0  0  0
281313  1  0  0  0  0
282314  1  0  0  0  0
M  END
