 xtb: 6.5.1 (b24c23e)
          07302212343D

270309  0     0  0            999 V2000
   46.2214   -0.0434   -0.0054 Zn  0  0  0  0  0  0  0  0  0  0  0  0
   42.8131   -0.1281    0.0185 C   0  0  0  0  0  0  0  0  0  0  0  0
   43.4414   -0.1667    1.2572 C   0  0  0  0  0  0  0  0  0  0  0  0
   42.7654   -0.2023    2.5240 C   0  0  0  0  0  0  0  0  0  0  0  0
   43.7227   -0.2120    3.4846 C   0  0  0  0  0  0  0  0  0  0  0  0
   44.9968   -0.1928    2.8152 C   0  0  0  0  0  0  0  0  0  0  0  0
   44.7906   -0.1581    1.4675 N   0  0  0  0  0  0  0  0  0  0  0  0
   46.2473   -0.1764    3.4456 C   0  0  0  0  0  0  0  0  0  0  0  0
   47.4873   -0.1157    2.8000 C   0  0  0  0  0  0  0  0  0  0  0  0
   48.7665   -0.1543    3.4539 C   0  0  0  0  0  0  0  0  0  0  0  0
   49.7137   -0.0973    2.4835 C   0  0  0  0  0  0  0  0  0  0  0  0
   47.6821   -0.0475    1.4466 N   0  0  0  0  0  0  0  0  0  0  0  0
   49.0244   -0.0306    1.2282 C   0  0  0  0  0  0  0  0  0  0  0  0
   49.6565    0.0296   -0.0299 C   0  0  0  0  0  0  0  0  0  0  0  0
   49.0044    0.0722   -1.2783 C   0  0  0  0  0  0  0  0  0  0  0  0
   49.6736    0.1069   -2.5457 C   0  0  0  0  0  0  0  0  0  0  0  0
   48.7110    0.1312   -3.5023 C   0  0  0  0  0  0  0  0  0  0  0  0
   47.4423    0.1190   -2.8270 C   0  0  0  0  0  0  0  0  0  0  0  0
   46.1919    0.1161   -3.4555 C   0  0  0  0  0  0  0  0  0  0  0  0
   46.1778    0.1923   -4.9365 C   0  0  0  0  0  0  0  0  0  0  0  0
   45.6278   -0.8451   -5.6946 C   0  0  0  0  0  0  0  0  0  0  0  0
   45.6137   -0.7703   -7.0751 C   0  0  0  0  0  0  0  0  0  0  0  0
   46.1453    0.3455   -7.7249 C   0  0  0  0  0  0  0  0  0  0  0  0
   46.1032    0.3819   -9.2057 C   0  0  0  0  0  0  0  0  0  0  0  0
   46.6434    1.4922   -9.7317 O   0  0  0  0  0  0  0  0  0  0  0  0
   45.6351   -0.4883   -9.8953 O   0  0  0  0  0  0  0  0  0  0  0  0
   46.6947    1.3847   -6.9731 C   0  0  0  0  0  0  0  0  0  0  0  0
   46.7116    1.3052   -5.5917 C   0  0  0  0  0  0  0  0  0  0  0  0
   44.9516    0.0488   -2.8084 C   0  0  0  0  0  0  0  0  0  0  0  0
   43.6667    0.0897   -3.4561 C   0  0  0  0  0  0  0  0  0  0  0  0
   42.7251    0.0168   -2.4828 C   0  0  0  0  0  0  0  0  0  0  0  0
   43.4214   -0.0586   -1.2289 C   0  0  0  0  0  0  0  0  0  0  0  0
   44.7671   -0.0329   -1.4596 N   0  0  0  0  0  0  0  0  0  0  0  0
   47.6587    0.0751   -1.4759 N   0  0  0  0  0  0  0  0  0  0  0  0
   46.2572   -0.2273    4.9279 C   0  0  0  0  0  0  0  0  0  0  0  0
   45.7289   -1.3315    5.6023 C   0  0  0  0  0  0  0  0  0  0  0  0
   45.7381   -1.3762    6.9841 C   0  0  0  0  0  0  0  0  0  0  0  0
   46.2708   -0.3152    7.7190 C   0  0  0  0  0  0  0  0  0  0  0  0
   46.2538   -0.4070    9.1980 C   0  0  0  0  0  0  0  0  0  0  0  0
   46.7913    0.6601    9.8089 O   0  0  0  0  0  0  0  0  0  0  0  0
   45.8071   -1.3391    9.8173 O   0  0  0  0  0  0  0  0  0  0  0  0
   46.7981    0.7905    7.0510 C   0  0  0  0  0  0  0  0  0  0  0  0
   46.7925    0.8303    5.6677 C   0  0  0  0  0  0  0  0  0  0  0  0
   41.7276   -0.1416    0.0265 H   0  0  0  0  0  0  0  0  0  0  0  0
   41.6942   -0.2105    2.6502 H   0  0  0  0  0  0  0  0  0  0  0  0
   43.5831   -0.2190    4.5537 H   0  0  0  0  0  0  0  0  0  0  0  0
   48.9188   -0.2302    4.5185 H   0  0  0  0  0  0  0  0  0  0  0  0
   50.7857   -0.1056    2.5993 H   0  0  0  0  0  0  0  0  0  0  0  0
   50.7437    0.1057   -2.6787 H   0  0  0  0  0  0  0  0  0  0  0  0
   48.8464    0.1417   -4.5718 H   0  0  0  0  0  0  0  0  0  0  0  0
   45.2261   -1.7182   -5.1929 H   0  0  0  0  0  0  0  0  0  0  0  0
   45.1927   -1.5741   -7.6690 H   0  0  0  0  0  0  0  0  0  0  0  0
   46.5763    1.4376  -10.6987 H   0  0  0  0  0  0  0  0  0  0  0  0
   47.1053    2.2541   -7.4728 H   0  0  0  0  0  0  0  0  0  0  0  0
   47.1266    2.1189   -5.0075 H   0  0  0  0  0  0  0  0  0  0  0  0
   43.5095    0.1765   -4.5192 H   0  0  0  0  0  0  0  0  0  0  0  0
   41.6519    0.0209   -2.5917 H   0  0  0  0  0  0  0  0  0  0  0  0
   45.3259   -2.1618    5.0335 H   0  0  0  0  0  0  0  0  0  0  0  0
   45.3346   -2.2325    7.5132 H   0  0  0  0  0  0  0  0  0  0  0  0
   46.7424    0.5213   10.7686 H   0  0  0  0  0  0  0  0  0  0  0  0
   47.2095    1.6178    7.6171 H   0  0  0  0  0  0  0  0  0  0  0  0
   47.1909    1.6951    5.1491 H   0  0  0  0  0  0  0  0  0  0  0  0
  102.0901   -0.0350   -0.0457 Zn  0  0  0  0  0  0  0  0  0  0  0  0
  105.4982   -0.1253   -0.0799 C   0  0  0  0  0  0  0  0  0  0  0  0
  104.8699   -0.0182   -1.3147 C   0  0  0  0  0  0  0  0  0  0  0  0
  105.5460    0.0916   -2.5772 C   0  0  0  0  0  0  0  0  0  0  0  0
  104.5888    0.1956   -3.5323 C   0  0  0  0  0  0  0  0  0  0  0  0
  103.3147    0.1404   -2.8649 C   0  0  0  0  0  0  0  0  0  0  0  0
  103.5208    0.0181   -1.5224 N   0  0  0  0  0  0  0  0  0  0  0  0
  102.0644    0.2334   -3.4891 C   0  0  0  0  0  0  0  0  0  0  0  0
  100.8245    0.2233   -2.8405 C   0  0  0  0  0  0  0  0  0  0  0  0
   99.5452    0.2651   -3.4941 C   0  0  0  0  0  0  0  0  0  0  0  0
   98.5981    0.2127   -2.5233 C   0  0  0  0  0  0  0  0  0  0  0  0
  100.6297    0.1347   -1.4882 N   0  0  0  0  0  0  0  0  0  0  0  0
   99.2875    0.1308   -1.2690 C   0  0  0  0  0  0  0  0  0  0  0  0
   98.6554    0.0451   -0.0124 C   0  0  0  0  0  0  0  0  0  0  0  0
   99.3073   -0.0616    1.2323 C   0  0  0  0  0  0  0  0  0  0  0  0
   98.6380   -0.1734    2.4952 C   0  0  0  0  0  0  0  0  0  0  0  0
   99.6005   -0.2639    3.4479 C   0  0  0  0  0  0  0  0  0  0  0  0
  100.8692   -0.2005    2.7756 C   0  0  0  0  0  0  0  0  0  0  0  0
  102.1195   -0.2800    3.3993 C   0  0  0  0  0  0  0  0  0  0  0  0
  102.1338   -0.3773    4.8791 C   0  0  0  0  0  0  0  0  0  0  0  0
  102.6816   -1.4972    5.5106 C   0  0  0  0  0  0  0  0  0  0  0  0
  102.6967   -1.5838    6.8904 C   0  0  0  0  0  0  0  0  0  0  0  0
  102.1682   -0.5502    7.6663 C   0  0  0  0  0  0  0  0  0  0  0  0
  102.2118   -0.6864    9.1413 C   0  0  0  0  0  0  0  0  0  0  0  0
  101.6743    0.3560    9.7935 O   0  0  0  0  0  0  0  0  0  0  0  0
  102.6790   -1.6319    9.7242 O   0  0  0  0  0  0  0  0  0  0  0  0
  101.6206    0.5707    7.0412 C   0  0  0  0  0  0  0  0  0  0  0  0
  101.6027    0.6528    5.6599 C   0  0  0  0  0  0  0  0  0  0  0  0
  103.3597   -0.2740    2.7486 C   0  0  0  0  0  0  0  0  0  0  0  0
  104.6446   -0.3117    3.3964 C   0  0  0  0  0  0  0  0  0  0  0  0
  105.5862   -0.2726    2.4211 C   0  0  0  0  0  0  0  0  0  0  0  0
  104.8898   -0.1999    1.1671 C   0  0  0  0  0  0  0  0  0  0  0  0
  103.5441   -0.1983    1.3994 N   0  0  0  0  0  0  0  0  0  0  0  0
  100.6530   -0.0856    1.4287 N   0  0  0  0  0  0  0  0  0  0  0  0
  102.0545    0.3536   -4.9674 C   0  0  0  0  0  0  0  0  0  0  0  0
  102.5799   -0.6671   -5.7645 C   0  0  0  0  0  0  0  0  0  0  0  0
  102.5700   -0.5528   -7.1423 C   0  0  0  0  0  0  0  0  0  0  0  0
  102.0397    0.5870   -7.7501 C   0  0  0  0  0  0  0  0  0  0  0  0
  102.0561    0.6657   -9.2298 C   0  0  0  0  0  0  0  0  0  0  0  0
  101.5220    1.7978   -9.7137 O   0  0  0  0  0  0  0  0  0  0  0  0
  102.4987   -0.1910   -9.9526 O   0  0  0  0  0  0  0  0  0  0  0  0
  101.5155    1.6099   -6.9591 C   0  0  0  0  0  0  0  0  0  0  0  0
  101.5217    1.4905   -5.5805 C   0  0  0  0  0  0  0  0  0  0  0  0
  106.5836   -0.1404   -0.0897 H   0  0  0  0  0  0  0  0  0  0  0  0
  106.6173    0.0955   -2.7036 H   0  0  0  0  0  0  0  0  0  0  0  0
  104.7286    0.3124   -4.5951 H   0  0  0  0  0  0  0  0  0  0  0  0
   99.3927    0.3136   -4.5602 H   0  0  0  0  0  0  0  0  0  0  0  0
   97.5260    0.2215   -2.6389 H   0  0  0  0  0  0  0  0  0  0  0  0
   97.5679   -0.1871    2.6273 H   0  0  0  0  0  0  0  0  0  0  0  0
   99.4649   -0.3781    4.5113 H   0  0  0  0  0  0  0  0  0  0  0  0
  103.0810   -2.3068    4.9103 H   0  0  0  0  0  0  0  0  0  0  0  0
  103.1162   -2.4523    7.3863 H   0  0  0  0  0  0  0  0  0  0  0  0
  101.7420    0.1891   10.7475 H   0  0  0  0  0  0  0  0  0  0  0  0
  101.2123    1.3769    7.6391 H   0  0  0  0  0  0  0  0  0  0  0  0
  101.1894    1.5300    5.1749 H   0  0  0  0  0  0  0  0  0  0  0  0
  104.8020   -0.3498    4.4624 H   0  0  0  0  0  0  0  0  0  0  0  0
  106.6594   -0.2836    2.5297 H   0  0  0  0  0  0  0  0  0  0  0  0
  102.9811   -1.5583   -5.2952 H   0  0  0  0  0  0  0  0  0  0  0  0
  102.9713   -1.3437   -7.7665 H   0  0  0  0  0  0  0  0  0  0  0  0
  101.5703    1.7701  -10.6830 H   0  0  0  0  0  0  0  0  0  0  0  0
  101.1061    2.4979   -7.4262 H   0  0  0  0  0  0  0  0  0  0  0  0
  101.1257    2.2910   -4.9657 H   0  0  0  0  0  0  0  0  0  0  0  0
   51.0625    0.0354   -0.0402 C   0  0  0  0  0  0  0  0  0  0  0  0
   52.2870    0.0377   -0.0447 C   0  0  0  0  0  0  0  0  0  0  0  0
   53.6303    0.0368   -0.0481 C   0  0  0  0  0  0  0  0  0  0  0  0
   54.8608    0.0308   -0.0486 C   0  0  0  0  0  0  0  0  0  0  0  0
   56.1992    0.0226   -0.0503 C   0  0  0  0  0  0  0  0  0  0  0  0
   57.4298    0.0145   -0.0468 C   0  0  0  0  0  0  0  0  0  0  0  0
   58.7728    0.0092   -0.0428 C   0  0  0  0  0  0  0  0  0  0  0  0
   59.9974    0.0063   -0.0412 C   0  0  0  0  0  0  0  0  0  0  0  0
   69.6891    0.0348   -0.0161 C   0  0  0  0  0  0  0  0  0  0  0  0
   70.9143    0.0341   -0.0145 C   0  0  0  0  0  0  0  0  0  0  0  0
   72.2563    0.0327   -0.0122 C   0  0  0  0  0  0  0  0  0  0  0  0
   73.4874    0.0287   -0.0098 C   0  0  0  0  0  0  0  0  0  0  0  0
   74.8248    0.0248   -0.0087 C   0  0  0  0  0  0  0  0  0  0  0  0
   76.0559    0.0213   -0.0081 C   0  0  0  0  0  0  0  0  0  0  0  0
   77.3980    0.0190   -0.0084 C   0  0  0  0  0  0  0  0  0  0  0  0
   78.6231    0.0181   -0.0072 C   0  0  0  0  0  0  0  0  0  0  0  0
   88.3146    0.0364   -0.0037 C   0  0  0  0  0  0  0  0  0  0  0  0
   89.5392    0.0432    0.0000 C   0  0  0  0  0  0  0  0  0  0  0  0
   90.8823    0.0493    0.0031 C   0  0  0  0  0  0  0  0  0  0  0  0
   92.1128    0.0563    0.0068 C   0  0  0  0  0  0  0  0  0  0  0  0
   93.4512    0.0610    0.0083 C   0  0  0  0  0  0  0  0  0  0  0  0
   94.6817    0.0634    0.0073 C   0  0  0  0  0  0  0  0  0  0  0  0
   96.0250    0.0607    0.0037 C   0  0  0  0  0  0  0  0  0  0  0  0
   97.2494    0.0549   -0.0010 C   0  0  0  0  0  0  0  0  0  0  0  0
   64.8438    0.0201   -0.0247 Zn  0  0  0  0  0  0  0  0  0  0  0  0
   61.4028    0.0089   -0.0366 C   0  0  0  0  0  0  0  0  0  0  0  0
   62.0505   -1.2423    0.0007 C   0  0  0  0  0  0  0  0  0  0  0  0
   61.3774   -2.5074    0.0025 C   0  0  0  0  0  0  0  0  0  0  0  0
   62.3366   -3.4670    0.0496 C   0  0  0  0  0  0  0  0  0  0  0  0
   63.6054   -2.7948    0.0863 C   0  0  0  0  0  0  0  0  0  0  0  0
   63.3949   -1.4429    0.0451 N   0  0  0  0  0  0  0  0  0  0  0  0
   64.8542   -3.4251    0.1303 C   0  0  0  0  0  0  0  0  0  0  0  0
   66.0987   -2.7856    0.1168 C   0  0  0  0  0  0  0  0  0  0  0  0
   67.3716   -3.4438    0.2148 C   0  0  0  0  0  0  0  0  0  0  0  0
   68.3249   -2.4781    0.1732 C   0  0  0  0  0  0  0  0  0  0  0  0
   66.3012   -1.4341    0.0336 N   0  0  0  0  0  0  0  0  0  0  0  0
   67.6441   -1.2223    0.0593 C   0  0  0  0  0  0  0  0  0  0  0  0
   68.2849    0.0312   -0.0185 C   0  0  0  0  0  0  0  0  0  0  0  0
   67.6367    1.2808   -0.0984 C   0  0  0  0  0  0  0  0  0  0  0  0
   68.3101    2.5409   -0.2079 C   0  0  0  0  0  0  0  0  0  0  0  0
   67.3509    3.5007   -0.2528 C   0  0  0  0  0  0  0  0  0  0  0  0
   66.0817    2.8343   -0.1616 C   0  0  0  0  0  0  0  0  0  0  0  0
   64.8332    3.4655   -0.1812 C   0  0  0  0  0  0  0  0  0  0  0  0
   64.8278    4.9477   -0.2461 C   0  0  0  0  0  0  0  0  0  0  0  0
   65.3949    5.7029    0.7839 C   0  0  0  0  0  0  0  0  0  0  0  0
   65.3845    7.0842    0.7243 C   0  0  0  0  0  0  0  0  0  0  0  0
   64.8119    7.7370   -0.3690 C   0  0  0  0  0  0  0  0  0  0  0  0
   64.8266    9.2189   -0.3886 C   0  0  0  0  0  0  0  0  0  0  0  0
   64.2496    9.7477   -1.4786 O   0  0  0  0  0  0  0  0  0  0  0  0
   65.3029    9.9064    0.4788 O   0  0  0  0  0  0  0  0  0  0  0  0
   64.2474    6.9877   -1.4019 C   0  0  0  0  0  0  0  0  0  0  0  0
   64.2542    5.6054   -1.3372 C   0  0  0  0  0  0  0  0  0  0  0  0
   63.5884    2.8269   -0.1443 C   0  0  0  0  0  0  0  0  0  0  0  0
   62.3150    3.4908   -0.1132 C   0  0  0  0  0  0  0  0  0  0  0  0
   61.3618    2.5249   -0.0731 C   0  0  0  0  0  0  0  0  0  0  0  0
   62.0431    1.2642   -0.0694 C   0  0  0  0  0  0  0  0  0  0  0  0
   63.3864    1.4736   -0.1066 N   0  0  0  0  0  0  0  0  0  0  0  0
   66.2924    1.4840   -0.0793 N   0  0  0  0  0  0  0  0  0  0  0  0
   64.8594   -4.9072    0.1969 C   0  0  0  0  0  0  0  0  0  0  0  0
   64.2889   -5.5690    1.2874 C   0  0  0  0  0  0  0  0  0  0  0  0
   64.2982   -6.9503    1.3487 C   0  0  0  0  0  0  0  0  0  0  0  0
   64.8732   -7.6965    0.3181 C   0  0  0  0  0  0  0  0  0  0  0  0
   64.8566   -9.1746    0.4276 C   0  0  0  0  0  0  0  0  0  0  0  0
   65.4353   -9.7966   -0.6110 O   0  0  0  0  0  0  0  0  0  0  0  0
   64.3749   -9.7834    1.3491 O   0  0  0  0  0  0  0  0  0  0  0  0
   65.4416   -7.0408   -0.7744 C   0  0  0  0  0  0  0  0  0  0  0  0
   65.4359   -5.6581   -0.8307 C   0  0  0  0  0  0  0  0  0  0  0  0
   60.3075   -2.6372   -0.0348 H   0  0  0  0  0  0  0  0  0  0  0  0
   62.1986   -4.5362    0.0475 H   0  0  0  0  0  0  0  0  0  0  0  0
   67.5161   -4.5074    0.3156 H   0  0  0  0  0  0  0  0  0  0  0  0
   69.3954   -2.5977    0.2223 H   0  0  0  0  0  0  0  0  0  0  0  0
   69.3801    2.6672   -0.2515 H   0  0  0  0  0  0  0  0  0  0  0  0
   67.4891    4.5652   -0.3513 H   0  0  0  0  0  0  0  0  0  0  0  0
   65.8290    5.1980    1.6395 H   0  0  0  0  0  0  0  0  0  0  0  0
   65.8176    7.6762    1.5231 H   0  0  0  0  0  0  0  0  0  0  0  0
   64.2998   10.7152   -1.4138 H   0  0  0  0  0  0  0  0  0  0  0  0
   63.8053    7.4901   -2.2542 H   0  0  0  0  0  0  0  0  0  0  0  0
   63.8259    5.0232   -2.1454 H   0  0  0  0  0  0  0  0  0  0  0  0
   62.1698    4.5590   -0.1093 H   0  0  0  0  0  0  0  0  0  0  0  0
   60.2910    2.6480   -0.0412 H   0  0  0  0  0  0  0  0  0  0  0  0
   63.8528   -4.9910    2.0943 H   0  0  0  0  0  0  0  0  0  0  0  0
   63.8626   -7.4701    2.1950 H   0  0  0  0  0  0  0  0  0  0  0  0
   65.3824  -10.7548   -0.4634 H   0  0  0  0  0  0  0  0  0  0  0  0
   65.8858   -7.6159   -1.5783 H   0  0  0  0  0  0  0  0  0  0  0  0
   65.8672   -5.1488   -1.6852 H   0  0  0  0  0  0  0  0  0  0  0  0
   83.4683    0.0261   -0.0077 Zn  0  0  0  0  0  0  0  0  0  0  0  0
   80.0273    0.0196   -0.0075 C   0  0  0  0  0  0  0  0  0  0  0  0
   80.6741   -1.2327    0.0274 C   0  0  0  0  0  0  0  0  0  0  0  0
   79.9993   -2.4969    0.0303 C   0  0  0  0  0  0  0  0  0  0  0  0
   80.9573   -3.4579    0.0732 C   0  0  0  0  0  0  0  0  0  0  0  0
   82.2272   -2.7874    0.1068 C   0  0  0  0  0  0  0  0  0  0  0  0
   82.0181   -1.4349    0.0675 N   0  0  0  0  0  0  0  0  0  0  0  0
   83.4750   -3.4192    0.1475 C   0  0  0  0  0  0  0  0  0  0  0  0
   84.7205   -2.7811    0.1332 C   0  0  0  0  0  0  0  0  0  0  0  0
   85.9926   -3.4409    0.2305 C   0  0  0  0  0  0  0  0  0  0  0  0
   86.9471   -2.4763    0.1891 C   0  0  0  0  0  0  0  0  0  0  0  0
   84.9243   -1.4301    0.0500 N   0  0  0  0  0  0  0  0  0  0  0  0
   86.2677   -1.2197    0.0750 C   0  0  0  0  0  0  0  0  0  0  0  0
   86.9093    0.0326   -0.0064 C   0  0  0  0  0  0  0  0  0  0  0  0
   86.2629    1.2823   -0.0912 C   0  0  0  0  0  0  0  0  0  0  0  0
   86.9376    2.5410   -0.2084 C   0  0  0  0  0  0  0  0  0  0  0  0
   85.9797    3.5018   -0.2553 C   0  0  0  0  0  0  0  0  0  0  0  0
   84.7099    2.8377   -0.1570 C   0  0  0  0  0  0  0  0  0  0  0  0
   83.4620    3.4711   -0.1733 C   0  0  0  0  0  0  0  0  0  0  0  0
   83.4598    4.9529   -0.2434 C   0  0  0  0  0  0  0  0  0  0  0  0
   84.0351    5.7104    0.7804 C   0  0  0  0  0  0  0  0  0  0  0  0
   84.0304    7.0914    0.7145 C   0  0  0  0  0  0  0  0  0  0  0  0
   83.4551    7.7417   -0.3790 C   0  0  0  0  0  0  0  0  0  0  0  0
   83.4778    9.2235   -0.4063 C   0  0  0  0  0  0  0  0  0  0  0  0
   82.8985    9.7496   -1.4963 O   0  0  0  0  0  0  0  0  0  0  0  0
   83.9637    9.9127    0.4543 O   0  0  0  0  0  0  0  0  0  0  0  0
   82.8814    6.9903   -1.4051 C   0  0  0  0  0  0  0  0  0  0  0  0
   82.8826    5.6082   -1.3342 C   0  0  0  0  0  0  0  0  0  0  0  0
   82.2167    2.8347   -0.1288 C   0  0  0  0  0  0  0  0  0  0  0  0
   80.9445    3.5004   -0.0931 C   0  0  0  0  0  0  0  0  0  0  0  0
   79.9901    2.5360   -0.0465 C   0  0  0  0  0  0  0  0  0  0  0  0
   80.6695    1.2744   -0.0437 C   0  0  0  0  0  0  0  0  0  0  0  0
   82.0127    1.4814   -0.0872 N   0  0  0  0  0  0  0  0  0  0  0  0
   84.9186    1.4877   -0.0694 N   0  0  0  0  0  0  0  0  0  0  0  0
   83.4781   -4.9015    0.2112 C   0  0  0  0  0  0  0  0  0  0  0  0
   82.9086   -5.5646    1.3014 C   0  0  0  0  0  0  0  0  0  0  0  0
   82.9143   -6.9461    1.3591 C   0  0  0  0  0  0  0  0  0  0  0  0
   83.4845   -7.6911    0.3249 C   0  0  0  0  0  0  0  0  0  0  0  0
   83.4633   -9.1694    0.4304 C   0  0  0  0  0  0  0  0  0  0  0  0
   84.0372   -9.7906   -0.6114 O   0  0  0  0  0  0  0  0  0  0  0  0
   82.9833   -9.7792    1.3520 O   0  0  0  0  0  0  0  0  0  0  0  0
   84.0522   -7.0341   -0.7672 C   0  0  0  0  0  0  0  0  0  0  0  0
   84.0504   -5.6512   -0.8197 C   0  0  0  0  0  0  0  0  0  0  0  0
   78.9292   -2.6254   -0.0036 H   0  0  0  0  0  0  0  0  0  0  0  0
   80.8179   -4.5268    0.0703 H   0  0  0  0  0  0  0  0  0  0  0  0
   86.1358   -4.5046    0.3309 H   0  0  0  0  0  0  0  0  0  0  0  0
   88.0175   -2.5969    0.2379 H   0  0  0  0  0  0  0  0  0  0  0  0
   88.0077    2.6657   -0.2558 H   0  0  0  0  0  0  0  0  0  0  0  0
   86.1193    4.5657   -0.3596 H   0  0  0  0  0  0  0  0  0  0  0  0
   84.4716    5.2076    1.6359 H   0  0  0  0  0  0  0  0  0  0  0  0
   84.4703    7.6852    1.5082 H   0  0  0  0  0  0  0  0  0  0  0  0
   82.9547   10.7171   -1.4374 H   0  0  0  0  0  0  0  0  0  0  0  0
   82.4368    7.4906   -2.2573 H   0  0  0  0  0  0  0  0  0  0  0  0
   82.4476    5.0241   -2.1374 H   0  0  0  0  0  0  0  0  0  0  0  0
   80.8010    4.5689   -0.0907 H   0  0  0  0  0  0  0  0  0  0  0  0
   78.9196    2.6607   -0.0096 H   0  0  0  0  0  0  0  0  0  0  0  0
   82.4760   -4.9876    2.1108 H   0  0  0  0  0  0  0  0  0  0  0  0
   82.4792   -7.4669    2.2049 H   0  0  0  0  0  0  0  0  0  0  0  0
   83.9822  -10.7490   -0.4658 H   0  0  0  0  0  0  0  0  0  0  0  0
   84.4925   -7.6083   -1.5737 H   0  0  0  0  0  0  0  0  0  0  0  0
   84.4811   -5.1409   -1.6739 H   0  0  0  0  0  0  0  0  0  0  0  0
  2  3  4  0  0  0  0
  3  4  1  0  0  0  0
  4  5  2  0  0  0  0
  5  6  4  0  0  0  0
  1  7  1  0  0  0  0
  3  7  4  0  0  0  0
  6  7  4  0  0  0  0
  6  8  4  0  0  0  0
  8  9  4  0  0  0  0
  9 10  4  0  0  0  0
 10 11  2  0  0  0  0
  1 12  1  0  0  0  0
  9 12  4  0  0  0  0
 11 13  4  0  0  0  0
 12 13  4  0  0  0  0
 13 14  4  0  0  0  0
 14 15  4  0  0  0  0
 15 16  4  0  0  0  0
 16 17  2  0  0  0  0
 17 18  4  0  0  0  0
 18 19  4  0  0  0  0
 19 20  1  0  0  0  0
 20 21  4  0  0  0  0
 21 22  4  0  0  0  0
 22 23  4  0  0  0  0
 23 24  1  0  0  0  0
 24 25  4  0  0  0  0
 24 26  2  0  0  0  0
 23 27  4  0  0  0  0
 20 28  4  0  0  0  0
 27 28  4  0  0  0  0
 19 29  4  0  0  0  0
 29 30  4  0  0  0  0
 30 31  2  0  0  0  0
  2 32  4  0  0  0  0
 31 32  1  0  0  0  0
  1 33  1  0  0  0  0
 29 33  4  0  0  0  0
 32 33  4  0  0  0  0
  1 34  1  0  0  0  0
 15 34  4  0  0  0  0
 18 34  4  0  0  0  0
  8 35  1  0  0  0  0
 35 36  4  0  0  0  0
 36 37  4  0  0  0  0
 37 38  4  0  0  0  0
 38 39  1  0  0  0  0
 39 40  4  0  0  0  0
 39 41  2  0  0  0  0
 38 42  4  0  0  0  0
 35 43  4  0  0  0  0
 42 43  4  0  0  0  0
  2 44  1  0  0  0  0
  4 45  1  0  0  0  0
  5 46  1  0  0  0  0
 10 47  1  0  0  0  0
 11 48  1  0  0  0  0
 16 49  1  0  0  0  0
 17 50  1  0  0  0  0
 21 51  1  0  0  0  0
 22 52  1  0  0  0  0
 25 53  1  0  0  0  0
 27 54  1  0  0  0  0
 28 55  1  0  0  0  0
 30 56  1  0  0  0  0
 31 57  1  0  0  0  0
 36 58  1  0  0  0  0
 37 59  1  0  0  0  0
 40 60  1  0  0  0  0
 42 61  1  0  0  0  0
 43 62  1  0  0  0  0
 64 65  4  0  0  0  0
 65 66  1  0  0  0  0
 66 67  2  0  0  0  0
 67 68  4  0  0  0  0
 63 69  1  0  0  0  0
 65 69  4  0  0  0  0
 68 69  4  0  0  0  0
 68 70  4  0  0  0  0
 70 71  4  0  0  0  0
 71 72  4  0  0  0  0
 72 73  2  0  0  0  0
 63 74  1  0  0  0  0
 71 74  4  0  0  0  0
 73 75  4  0  0  0  0
 74 75  4  0  0  0  0
 75 76  4  0  0  0  0
 76 77  4  0  0  0  0
 77 78  4  0  0  0  0
 78 79  2  0  0  0  0
 79 80  4  0  0  0  0
 80 81  4  0  0  0  0
 81 82  1  0  0  0  0
 82 83  4  0  0  0  0
 83 84  4  0  0  0  0
 84 85  4  0  0  0  0
 85 86  1  0  0  0  0
 86 87  4  0  0  0  0
 86 88  2  0  0  0  0
 85 89  4  0  0  0  0
 82 90  4  0  0  0  0
 89 90  4  0  0  0  0
 81 91  4  0  0  0  0
 91 92  4  0  0  0  0
 92 93  2  0  0  0  0
 64 94  4  0  0  0  0
 93 94  1  0  0  0  0
 63 95  1  0  0  0  0
 91 95  4  0  0  0  0
 94 95  4  0  0  0  0
 63 96  1  0  0  0  0
 77 96  4  0  0  0  0
 80 96  4  0  0  0  0
 70 97  1  0  0  0  0
 97 98  4  0  0  0  0
 98 99  4  0  0  0  0
 99100  4  0  0  0  0
100101  1  0  0  0  0
101102  4  0  0  0  0
101103  2  0  0  0  0
100104  4  0  0  0  0
 97105  4  0  0  0  0
104105  4  0  0  0  0
 64106  1  0  0  0  0
 66107  1  0  0  0  0
 67108  1  0  0  0  0
 72109  1  0  0  0  0
 73110  1  0  0  0  0
 78111  1  0  0  0  0
 79112  1  0  0  0  0
 83113  1  0  0  0  0
 84114  1  0  0  0  0
 87115  1  0  0  0  0
 89116  1  0  0  0  0
 90117  1  0  0  0  0
 92118  1  0  0  0  0
 93119  1  0  0  0  0
 98120  1  0  0  0  0
 99121  1  0  0  0  0
102122  1  0  0  0  0
104123  1  0  0  0  0
105124  1  0  0  0  0
 14125  4  0  0  0  0
125126  3  0  0  0  0
126127  4  0  0  0  0
127128  3  0  0  0  0
128129  4  0  0  0  0
129130  3  0  0  0  0
130131  4  0  0  0  0
131132  3  0  0  0  0
133134  3  0  0  0  0
134135  4  0  0  0  0
135136  3  0  0  0  0
136137  4  0  0  0  0
137138  3  0  0  0  0
138139  4  0  0  0  0
139140  3  0  0  0  0
141142  3  0  0  0  0
142143  4  0  0  0  0
143144  3  0  0  0  0
144145  4  0  0  0  0
145146  3  0  0  0  0
146147  4  0  0  0  0
 76148  4  0  0  0  0
147148  3  0  0  0  0
132150  4  0  0  0  0
150151  4  0  0  0  0
151152  4  0  0  0  0
152153  2  0  0  0  0
153154  4  0  0  0  0
149155  1  0  0  0  0
151155  4  0  0  0  0
154155  4  0  0  0  0
154156  4  0  0  0  0
156157  4  0  0  0  0
157158  4  0  0  0  0
158159  2  0  0  0  0
149160  1  0  0  0  0
157160  4  0  0  0  0
159161  4  0  0  0  0
160161  4  0  0  0  0
133162  4  0  0  0  0
161162  4  0  0  0  0
162163  4  0  0  0  0
163164  4  0  0  0  0
164165  2  0  0  0  0
165166  4  0  0  0  0
166167  4  0  0  0  0
167168  1  0  0  0  0
168169  4  0  0  0  0
169170  4  0  0  0  0
170171  4  0  0  0  0
171172  1  0  0  0  0
172173  4  0  0  0  0
172174  2  0  0  0  0
171175  4  0  0  0  0
168176  4  0  0  0  0
175176  4  0  0  0  0
167177  4  0  0  0  0
177178  4  0  0  0  0
178179  2  0  0  0  0
150180  4  0  0  0  0
179180  4  0  0  0  0
149181  1  0  0  0  0
177181  4  0  0  0  0
180181  4  0  0  0  0
149182  1  0  0  0  0
163182  4  0  0  0  0
166182  4  0  0  0  0
156183  1  0  0  0  0
183184  4  0  0  0  0
184185  4  0  0  0  0
185186  4  0  0  0  0
186187  1  0  0  0  0
187188  4  0  0  0  0
187189  2  0  0  0  0
186190  4  0  0  0  0
183191  4  0  0  0  0
190191  4  0  0  0  0
152192  1  0  0  0  0
153193  1  0  0  0  0
158194  1  0  0  0  0
159195  1  0  0  0  0
164196  1  0  0  0  0
165197  1  0  0  0  0
169198  1  0  0  0  0
170199  1  0  0  0  0
173200  1  0  0  0  0
175201  1  0  0  0  0
176202  1  0  0  0  0
178203  1  0  0  0  0
179204  1  0  0  0  0
184205  1  0  0  0  0
185206  1  0  0  0  0
188207  1  0  0  0  0
190208  1  0  0  0  0
191209  1  0  0  0  0
140211  4  0  0  0  0
211212  4  0  0  0  0
212213  4  0  0  0  0
213214  2  0  0  0  0
214215  4  0  0  0  0
210216  1  0  0  0  0
212216  4  0  0  0  0
215216  4  0  0  0  0
215217  4  0  0  0  0
217218  4  0  0  0  0
218219  4  0  0  0  0
219220  2  0  0  0  0
210221  1  0  0  0  0
218221  4  0  0  0  0
220222  4  0  0  0  0
221222  4  0  0  0  0
141223  4  0  0  0  0
222223  4  0  0  0  0
223224  4  0  0  0  0
224225  4  0  0  0  0
225226  2  0  0  0  0
226227  4  0  0  0  0
227228  4  0  0  0  0
228229  1  0  0  0  0
229230  4  0  0  0  0
230231  4  0  0  0  0
231232  4  0  0  0  0
232233  1  0  0  0  0
233234  4  0  0  0  0
233235  2  0  0  0  0
232236  4  0  0  0  0
229237  4  0  0  0  0
236237  4  0  0  0  0
228238  4  0  0  0  0
238239  4  0  0  0  0
239240  2  0  0  0  0
211241  4  0  0  0  0
240241  4  0  0  0  0
210242  1  0  0  0  0
238242  4  0  0  0  0
241242  4  0  0  0  0
210243  1  0  0  0  0
224243  4  0  0  0  0
227243  4  0  0  0  0
217244  1  0  0  0  0
244245  4  0  0  0  0
245246  4  0  0  0  0
246247  4  0  0  0  0
247248  1  0  0  0  0
248249  4  0  0  0  0
248250  2  0  0  0  0
247251  4  0  0  0  0
244252  4  0  0  0  0
251252  4  0  0  0  0
213253  1  0  0  0  0
214254  1  0  0  0  0
219255  1  0  0  0  0
220256  1  0  0  0  0
225257  1  0  0  0  0
226258  1  0  0  0  0
230259  1  0  0  0  0
231260  1  0  0  0  0
234261  1  0  0  0  0
236262  1  0  0  0  0
237263  1  0  0  0  0
239264  1  0  0  0  0
240265  1  0  0  0  0
245266  1  0  0  0  0
246267  1  0  0  0  0
249268  1  0  0  0  0
251269  1  0  0  0  0
252270  1  0  0  0  0
M  END
