 xtb: 6.5.1 (b24c23e)
          07302211063D

248287  0     0  0            999 V2000
   44.5554   -0.2721   -0.1746 Zn  0  0  0  0  0  0  0  0  0  0  0  0
   41.1354   -0.2344   -0.1686 C   0  0  0  0  0  0  0  0  0  0  0  0
   41.7662    0.6434    0.7044 C   0  0  0  0  0  0  0  0  0  0  0  0
   41.0980    1.5510    1.5946 C   0  0  0  0  0  0  0  0  0  0  0  0
   42.0624    2.2256    2.2708 C   0  0  0  0  0  0  0  0  0  0  0  0
   43.3275    1.7356    1.7995 C   0  0  0  0  0  0  0  0  0  0  0  0
   43.1188    0.7817    0.8545 N   0  0  0  0  0  0  0  0  0  0  0  0
   44.5855    2.1783    2.2503 C   0  0  0  0  0  0  0  0  0  0  0  0
   44.5923    3.1845    3.2418 C   0  0  0  0  0  0  0  0  0  0  0  0
   44.5869    4.0485    4.0941 C   0  0  0  0  0  0  0  0  0  0  0  0
   44.5696    5.0552    5.0860 C   0  0  0  0  0  0  0  0  0  0  0  0
   45.7554    5.5842    5.6093 C   0  0  0  0  0  0  0  0  0  0  0  0
   45.6801    6.5677    6.5791 C   0  0  0  0  0  0  0  0  0  0  0  0
   44.5282    7.0430    7.0462 N   0  0  0  0  0  0  0  0  0  0  0  0
   43.3964    6.5456    6.5536 C   0  0  0  0  0  0  0  0  0  0  0  0
   43.3622    5.5611    5.5825 C   0  0  0  0  0  0  0  0  0  0  0  0
   45.8316    1.7078    1.7990 C   0  0  0  0  0  0  0  0  0  0  0  0
   47.1038    2.1705    2.2717 C   0  0  0  0  0  0  0  0  0  0  0  0
   48.0553    1.4768    1.5944 C   0  0  0  0  0  0  0  0  0  0  0  0
   46.0248    0.7477    0.8495 N   0  0  0  0  0  0  0  0  0  0  0  0
   47.3700    0.5866    0.7039 C   0  0  0  0  0  0  0  0  0  0  0  0
   48.0000   -0.3095   -0.1815 C   0  0  0  0  0  0  0  0  0  0  0  0
   47.3459   -1.1918   -1.0637 C   0  0  0  0  0  0  0  0  0  0  0  0
   48.0077   -2.0975   -1.9563 C   0  0  0  0  0  0  0  0  0  0  0  0
   47.0383   -2.7704   -2.6293 C   0  0  0  0  0  0  0  0  0  0  0  0
   45.7787   -2.2795   -2.1516 C   0  0  0  0  0  0  0  0  0  0  0  0
   45.9969   -1.3232   -1.2037 N   0  0  0  0  0  0  0  0  0  0  0  0
   44.5211   -2.7232   -2.5991 C   0  0  0  0  0  0  0  0  0  0  0  0
   44.5106   -3.7265   -3.5934 C   0  0  0  0  0  0  0  0  0  0  0  0
   44.5109   -4.5881   -4.4481 C   0  0  0  0  0  0  0  0  0  0  0  0
   44.5230   -5.5933   -5.4416 C   0  0  0  0  0  0  0  0  0  0  0  0
   45.7279   -6.0966   -5.9468 C   0  0  0  0  0  0  0  0  0  0  0  0
   45.6888   -7.0787   -6.9202 C   0  0  0  0  0  0  0  0  0  0  0  0
   44.5545   -7.5759   -7.4072 N   0  0  0  0  0  0  0  0  0  0  0  0
   43.4050   -7.1022   -6.9328 C   0  0  0  0  0  0  0  0  0  0  0  0
   43.3345   -6.1210   -5.9601 C   0  0  0  0  0  0  0  0  0  0  0  0
   43.2747   -2.2539   -2.1440 C   0  0  0  0  0  0  0  0  0  0  0  0
   41.9974   -2.7156   -2.6107 C   0  0  0  0  0  0  0  0  0  0  0  0
   41.0508   -2.0195   -1.9310 C   0  0  0  0  0  0  0  0  0  0  0  0
   41.7426   -1.1266   -1.0438 C   0  0  0  0  0  0  0  0  0  0  0  0
   43.0910   -1.2951   -1.1988 N   0  0  0  0  0  0  0  0  0  0  0  0
   40.0498   -0.2218   -0.1665 H   0  0  0  0  0  0  0  0  0  0  0  0
   40.0274    1.6505    1.6822 H   0  0  0  0  0  0  0  0  0  0  0  0
   41.9393    2.9883    3.0235 H   0  0  0  0  0  0  0  0  0  0  0  0
   46.7155    5.2262    5.2576 H   0  0  0  0  0  0  0  0  0  0  0  0
   46.5844    6.9955    7.0025 H   0  0  0  0  0  0  0  0  0  0  0  0
   42.4746    6.9554    6.9565 H   0  0  0  0  0  0  0  0  0  0  0  0
   42.4174    5.1846    5.2094 H   0  0  0  0  0  0  0  0  0  0  0  0
   47.2426    2.9291    3.0256 H   0  0  0  0  0  0  0  0  0  0  0  0
   49.1272    1.5549    1.6836 H   0  0  0  0  0  0  0  0  0  0  0  0
   49.0770   -2.2002   -2.0502 H   0  0  0  0  0  0  0  0  0  0  0  0
   47.1578   -3.5326   -3.3829 H   0  0  0  0  0  0  0  0  0  0  0  0
   46.6745   -5.7199   -5.5784 H   0  0  0  0  0  0  0  0  0  0  0  0
   46.6086   -7.4872   -7.3291 H   0  0  0  0  0  0  0  0  0  0  0  0
   42.4985   -7.5296   -7.3519 H   0  0  0  0  0  0  0  0  0  0  0  0
   42.3761   -5.7642   -5.6027 H   0  0  0  0  0  0  0  0  0  0  0  0
   41.8548   -3.4759   -3.3624 H   0  0  0  0  0  0  0  0  0  0  0  0
   39.9779   -2.0950   -2.0143 H   0  0  0  0  0  0  0  0  0  0  0  0
   92.7467   -0.3057   -0.2268 Zn  0  0  0  0  0  0  0  0  0  0  0  0
   96.1651   -0.3794   -0.3037 C   0  0  0  0  0  0  0  0  0  0  0  0
   95.5142   -1.5717   -0.5961 C   0  0  0  0  0  0  0  0  0  0  0  0
   96.1609   -2.8116   -0.9235 C   0  0  0  0  0  0  0  0  0  0  0  0
   95.1807   -3.7256   -1.1384 C   0  0  0  0  0  0  0  0  0  0  0  0
   93.9276   -3.0517   -0.9433 C   0  0  0  0  0  0  0  0  0  0  0  0
   94.1587   -1.7529   -0.6176 N   0  0  0  0  0  0  0  0  0  0  0  0
   92.6593   -3.6483   -1.0699 C   0  0  0  0  0  0  0  0  0  0  0  0
   92.6200   -5.0163   -1.4196 C   0  0  0  0  0  0  0  0  0  0  0  0
   92.5757   -6.1908   -1.7223 C   0  0  0  0  0  0  0  0  0  0  0  0
   92.5137   -7.5584   -2.0734 C   0  0  0  0  0  0  0  0  0  0  0  0
   91.2853   -8.2198   -2.1917 C   0  0  0  0  0  0  0  0  0  0  0  0
   91.2751   -9.5584   -2.5399 C   0  0  0  0  0  0  0  0  0  0  0  0
   92.3829  -10.2585   -2.7716 N   0  0  0  0  0  0  0  0  0  0  0  0
   93.5544   -9.6371   -2.6617 C   0  0  0  0  0  0  0  0  0  0  0  0
   93.6740   -8.3022   -2.3189 C   0  0  0  0  0  0  0  0  0  0  0  0
   91.4251   -3.0003   -0.8817 C   0  0  0  0  0  0  0  0  0  0  0  0
   90.1421   -3.6261   -1.0161 C   0  0  0  0  0  0  0  0  0  0  0  0
   89.2075   -2.6743   -0.7600 C   0  0  0  0  0  0  0  0  0  0  0  0
   91.2549   -1.6884   -0.5487 N   0  0  0  0  0  0  0  0  0  0  0  0
   89.9140   -1.4615   -0.4683 C   0  0  0  0  0  0  0  0  0  0  0  0
   89.3040   -0.2306   -0.1545 C   0  0  0  0  0  0  0  0  0  0  0  0
   89.9775    0.9722    0.1340 C   0  0  0  0  0  0  0  0  0  0  0  0
   89.3371    2.2142    0.4533 C   0  0  0  0  0  0  0  0  0  0  0  0
   90.3223    3.1241    0.6705 C   0  0  0  0  0  0  0  0  0  0  0  0
   91.5703    2.4431    0.4839 C   0  0  0  0  0  0  0  0  0  0  0  0
   91.3295    1.1403    0.1592 N   0  0  0  0  0  0  0  0  0  0  0  0
   92.8387    3.0357    0.6175 C   0  0  0  0  0  0  0  0  0  0  0  0
   92.8834    4.4035    0.9677 C   0  0  0  0  0  0  0  0  0  0  0  0
   92.9370    5.5784    1.2673 C   0  0  0  0  0  0  0  0  0  0  0  0
   93.0119    6.9459    1.6164 C   0  0  0  0  0  0  0  0  0  0  0  0
   91.8588    7.7036    1.8532 C   0  0  0  0  0  0  0  0  0  0  0  0
   91.9916    9.0382    2.1924 C   0  0  0  0  0  0  0  0  0  0  0  0
   93.1695    9.6467    2.3068 N   0  0  0  0  0  0  0  0  0  0  0  0
   94.2705    8.9333    2.0838 C   0  0  0  0  0  0  0  0  0  0  0  0
   94.2471    7.5937    1.7398 C   0  0  0  0  0  0  0  0  0  0  0  0
   94.0734    2.3847    0.4339 C   0  0  0  0  0  0  0  0  0  0  0  0
   95.3617    3.0043    0.5715 C   0  0  0  0  0  0  0  0  0  0  0  0
   96.2916    2.0497    0.3134 C   0  0  0  0  0  0  0  0  0  0  0  0
   95.5787    0.8388    0.0166 C   0  0  0  0  0  0  0  0  0  0  0  0
   94.2343    1.0776    0.0991 N   0  0  0  0  0  0  0  0  0  0  0  0
   97.2503   -0.4022   -0.3281 H   0  0  0  0  0  0  0  0  0  0  0  0
   97.2290   -2.9524   -0.9787 H   0  0  0  0  0  0  0  0  0  0  0  0
   95.2851   -4.7655   -1.4050 H   0  0  0  0  0  0  0  0  0  0  0  0
   90.3589   -7.6875   -2.0121 H   0  0  0  0  0  0  0  0  0  0  0  0
   90.3362  -10.0959   -2.6379 H   0  0  0  0  0  0  0  0  0  0  0  0
   94.4382  -10.2377   -2.8575 H   0  0  0  0  0  0  0  0  0  0  0  0
   94.6489   -7.8362   -2.2410 H   0  0  0  0  0  0  0  0  0  0  0  0
   89.9845   -4.6614   -1.2736 H   0  0  0  0  0  0  0  0  0  0  0  0
   88.1341   -2.7770   -0.7668 H   0  0  0  0  0  0  0  0  0  0  0  0
   88.2700    2.3622    0.5033 H   0  0  0  0  0  0  0  0  0  0  0  0
   90.2214    4.1652    0.9332 H   0  0  0  0  0  0  0  0  0  0  0  0
   90.8793    7.2483    1.7713 H   0  0  0  0  0  0  0  0  0  0  0  0
   91.1137    9.6494    2.3813 H   0  0  0  0  0  0  0  0  0  0  0  0
   95.2149    9.4604    2.1854 H   0  0  0  0  0  0  0  0  0  0  0  0
   95.1685    7.0506    1.5672 H   0  0  0  0  0  0  0  0  0  0  0  0
   95.5231    4.0385    0.8321 H   0  0  0  0  0  0  0  0  0  0  0  0
   97.3661    2.1453    0.3202 H   0  0  0  0  0  0  0  0  0  0  0  0
   53.2025   -0.4301   -0.2542 C   0  0  0  0  0  0  0  0  0  0  0  0
   51.9757   -0.3886   -0.2275 C   0  0  0  0  0  0  0  0  0  0  0  0
   50.6304   -0.3537   -0.2026 C   0  0  0  0  0  0  0  0  0  0  0  0
   49.4074   -0.3281   -0.1870 C   0  0  0  0  0  0  0  0  0  0  0  0
   54.5470   -0.4760   -0.2936 C   0  0  0  0  0  0  0  0  0  0  0  0
   55.7689   -0.5241   -0.3326 C   0  0  0  0  0  0  0  0  0  0  0  0
   69.2711   -0.8393   -0.5556 C   0  0  0  0  0  0  0  0  0  0  0  0
   68.0425   -0.8357   -0.5667 C   0  0  0  0  0  0  0  0  0  0  0  0
   66.6984   -0.8294   -0.5647 C   0  0  0  0  0  0  0  0  0  0  0  0
   65.4742   -0.8153   -0.5582 C   0  0  0  0  0  0  0  0  0  0  0  0
   70.6151   -0.8295   -0.5430 C   0  0  0  0  0  0  0  0  0  0  0  0
   71.8391   -0.8127   -0.5247 C   0  0  0  0  0  0  0  0  0  0  0  0
   85.3283   -0.2391   -0.1266 C   0  0  0  0  0  0  0  0  0  0  0  0
   84.1013   -0.2831   -0.1408 C   0  0  0  0  0  0  0  0  0  0  0  0
   82.7573   -0.3411   -0.1686 C   0  0  0  0  0  0  0  0  0  0  0  0
   81.5359   -0.4053   -0.2038 C   0  0  0  0  0  0  0  0  0  0  0  0
   86.6738   -0.2167   -0.1247 C   0  0  0  0  0  0  0  0  0  0  0  0
   87.8972   -0.2080   -0.1319 C   0  0  0  0  0  0  0  0  0  0  0  0
   60.6214   -0.7020   -0.4689 Zn  0  0  0  0  0  0  0  0  0  0  0  0
   57.1743   -0.5787   -0.3739 C   0  0  0  0  0  0  0  0  0  0  0  0
   57.8145    0.1129   -1.4209 C   0  0  0  0  0  0  0  0  0  0  0  0
   57.1396    0.8578   -2.4423 C   0  0  0  0  0  0  0  0  0  0  0  0
   58.0979    1.3703   -3.2579 C   0  0  0  0  0  0  0  0  0  0  0  0
   59.3628    0.9419   -2.7376 C   0  0  0  0  0  0  0  0  0  0  0  0
   59.1601    0.1807   -1.6244 N   0  0  0  0  0  0  0  0  0  0  0  0
   60.6133    1.2654   -3.2947 C   0  0  0  0  0  0  0  0  0  0  0  0
   60.6100    2.0695   -4.4565 C   0  0  0  0  0  0  0  0  0  0  0  0
   60.6096    2.7602   -5.4544 C   0  0  0  0  0  0  0  0  0  0  0  0
   60.6085    3.5621   -6.6184 C   0  0  0  0  0  0  0  0  0  0  0  0
   61.8031    3.9229   -7.2526 C   0  0  0  0  0  0  0  0  0  0  0  0
   61.7475    4.7083   -8.3901 C   0  0  0  0  0  0  0  0  0  0  0  0
   60.6067    5.1438   -8.9188 N   0  0  0  0  0  0  0  0  0  0  0  0
   59.4667    4.8057   -8.3214 C   0  0  0  0  0  0  0  0  0  0  0  0
   59.4129    4.0248   -7.1809 C   0  0  0  0  0  0  0  0  0  0  0  0
   61.8669    0.8646   -2.7988 C   0  0  0  0  0  0  0  0  0  0  0  0
   63.1292    1.2161   -3.3793 C   0  0  0  0  0  0  0  0  0  0  0  0
   64.0925    0.6456   -2.6092 C   0  0  0  0  0  0  0  0  0  0  0  0
   62.0763    0.0904   -1.6953 N   0  0  0  0  0  0  0  0  0  0  0  0
   63.4231   -0.0588   -1.5562 C   0  0  0  0  0  0  0  0  0  0  0  0
   64.0696   -0.7919   -0.5405 C   0  0  0  0  0  0  0  0  0  0  0  0
   63.4274   -1.5027    0.4938 C   0  0  0  0  0  0  0  0  0  0  0  0
   64.1019   -2.2561    1.5090 C   0  0  0  0  0  0  0  0  0  0  0  0
   63.1424   -2.7928    2.3076 C   0  0  0  0  0  0  0  0  0  0  0  0
   61.8775   -2.3667    1.7858 C   0  0  0  0  0  0  0  0  0  0  0  0
   62.0816   -1.5863    0.6855 N   0  0  0  0  0  0  0  0  0  0  0  0
   60.6265   -2.7021    2.3336 C   0  0  0  0  0  0  0  0  0  0  0  0
   60.6268   -3.5382    3.4726 C   0  0  0  0  0  0  0  0  0  0  0  0
   60.6240   -4.2643    4.4450 C   0  0  0  0  0  0  0  0  0  0  0  0
   60.6180   -5.1173    5.5721 C   0  0  0  0  0  0  0  0  0  0  0  0
   59.4189   -5.5103    6.1784 C   0  0  0  0  0  0  0  0  0  0  0  0
   59.4668   -6.3514    7.2757 C   0  0  0  0  0  0  0  0  0  0  0  0
   60.6042   -6.8116    7.7907 N   0  0  0  0  0  0  0  0  0  0  0  0
   61.7483   -6.4424    7.2203 C   0  0  0  0  0  0  0  0  0  0  0  0
   61.8099   -5.6055    6.1204 C   0  0  0  0  0  0  0  0  0  0  0  0
   59.3738   -2.2832    1.8499 C   0  0  0  0  0  0  0  0  0  0  0  0
   58.1120   -2.6259    2.4367 C   0  0  0  0  0  0  0  0  0  0  0  0
   57.1500   -2.0302    1.6844 C   0  0  0  0  0  0  0  0  0  0  0  0
   57.8194   -1.3233    0.6330 C   0  0  0  0  0  0  0  0  0  0  0  0
   59.1657   -1.4924    0.7585 N   0  0  0  0  0  0  0  0  0  0  0  0
   56.0698    0.9694   -2.5192 H   0  0  0  0  0  0  0  0  0  0  0  0
   57.9671    1.9847   -4.1345 H   0  0  0  0  0  0  0  0  0  0  0  0
   62.7548    3.5904   -6.8559 H   0  0  0  0  0  0  0  0  0  0  0  0
   62.6591    5.0029   -8.9021 H   0  0  0  0  0  0  0  0  0  0  0  0
   58.5545    5.1779   -8.7789 H   0  0  0  0  0  0  0  0  0  0  0  0
   58.4620    3.7730   -6.7270 H   0  0  0  0  0  0  0  0  0  0  0  0
   63.2551    1.8224   -4.2622 H   0  0  0  0  0  0  0  0  0  0  0  0
   65.1622    0.6921   -2.7373 H   0  0  0  0  0  0  0  0  0  0  0  0
   65.1721   -2.3582    1.5929 H   0  0  0  0  0  0  0  0  0  0  0  0
   63.2723   -3.4203    3.1750 H   0  0  0  0  0  0  0  0  0  0  0  0
   58.4700   -5.1594    5.7911 H   0  0  0  0  0  0  0  0  0  0  0  0
   58.5517   -6.6721    7.7654 H   0  0  0  0  0  0  0  0  0  0  0  0
   62.6576   -6.8357    7.6658 H   0  0  0  0  0  0  0  0  0  0  0  0
   62.7639   -5.3305    5.6870 H   0  0  0  0  0  0  0  0  0  0  0  0
   57.9857   -3.2420    3.3128 H   0  0  0  0  0  0  0  0  0  0  0  0
   56.0810   -2.0631    1.8223 H   0  0  0  0  0  0  0  0  0  0  0  0
   76.6893   -0.6518   -0.3931 Zn  0  0  0  0  0  0  0  0  0  0  0  0
   73.2434   -0.7806   -0.4963 C   0  0  0  0  0  0  0  0  0  0  0  0
   73.8905   -0.0331   -1.5012 C   0  0  0  0  0  0  0  0  0  0  0  0
   73.2224    0.6671   -2.5579 C   0  0  0  0  0  0  0  0  0  0  0  0
   74.1859    1.2519   -3.3170 C   0  0  0  0  0  0  0  0  0  0  0  0
   75.4466    0.9153   -2.7246 C   0  0  0  0  0  0  0  0  0  0  0  0
   75.2364    0.1341   -1.6262 N   0  0  0  0  0  0  0  0  0  0  0  0
   76.6996    1.3366   -3.2044 C   0  0  0  0  0  0  0  0  0  0  0  0
   76.7074    2.1331   -4.3714 C   0  0  0  0  0  0  0  0  0  0  0  0
   76.7208    2.8069   -5.3807 C   0  0  0  0  0  0  0  0  0  0  0  0
   76.7383    3.5852   -6.5605 C   0  0  0  0  0  0  0  0  0  0  0  0
   77.9421    4.0388   -7.1126 C   0  0  0  0  0  0  0  0  0  0  0  0
   77.9060    4.7920   -8.2725 C   0  0  0  0  0  0  0  0  0  0  0  0
   76.7756    5.1113   -8.8978 N   0  0  0  0  0  0  0  0  0  0  0  0
   75.6269    4.6847   -8.3788 C   0  0  0  0  0  0  0  0  0  0  0  0
   75.5538    3.9267   -7.2239 C   0  0  0  0  0  0  0  0  0  0  0  0
   77.9477    1.0358   -2.6295 C   0  0  0  0  0  0  0  0  0  0  0  0
   79.2113    1.4937   -3.1270 C   0  0  0  0  0  0  0  0  0  0  0  0
   80.1674    0.9930   -2.3016 C   0  0  0  0  0  0  0  0  0  0  0  0
   78.1489    0.2693   -1.5196 N   0  0  0  0  0  0  0  0  0  0  0  0
   79.4926    0.2242   -1.2981 C   0  0  0  0  0  0  0  0  0  0  0  0
   80.1322   -0.4775   -0.2572 C   0  0  0  0  0  0  0  0  0  0  0  0
   79.4882   -1.2548    0.7254 C   0  0  0  0  0  0  0  0  0  0  0  0
   80.1579   -1.9764    1.7667 C   0  0  0  0  0  0  0  0  0  0  0  0
   79.1971   -2.5993    2.4983 C   0  0  0  0  0  0  0  0  0  0  0  0
   77.9359   -2.2586    1.9089 C   0  0  0  0  0  0  0  0  0  0  0  0
   78.1433   -1.4428    0.8359 N   0  0  0  0  0  0  0  0  0  0  0  0
   76.6841   -2.6997    2.3750 C   0  0  0  0  0  0  0  0  0  0  0  0
   76.6833   -3.5562    3.4987 C   0  0  0  0  0  0  0  0  0  0  0  0
   76.6840   -4.2999    4.4578 C   0  0  0  0  0  0  0  0  0  0  0  0
   76.6859   -5.1731    5.5694 C   0  0  0  0  0  0  0  0  0  0  0  0
   75.4925   -5.6820    6.0954 C   0  0  0  0  0  0  0  0  0  0  0  0
   75.5497   -6.5382    7.1806 C   0  0  0  0  0  0  0  0  0  0  0  0
   76.6908   -6.9072    7.7572 N   0  0  0  0  0  0  0  0  0  0  0  0
   77.8295   -6.4270    7.2637 C   0  0  0  0  0  0  0  0  0  0  0  0
   77.8817   -5.5656    6.1825 C   0  0  0  0  0  0  0  0  0  0  0  0
   75.4337   -2.3673    1.8236 C   0  0  0  0  0  0  0  0  0  0  0  0
   74.1694   -2.8152    2.3283 C   0  0  0  0  0  0  0  0  0  0  0  0
   73.2104   -2.2749    1.5315 C   0  0  0  0  0  0  0  0  0  0  0  0
   73.8846   -1.4981    0.5339 C   0  0  0  0  0  0  0  0  0  0  0  0
   75.2298   -1.5708    0.7349 N   0  0  0  0  0  0  0  0  0  0  0  0
   72.1536    0.7002   -2.6966 H   0  0  0  0  0  0  0  0  0  0  0  0
   74.0611    1.8595   -4.1992 H   0  0  0  0  0  0  0  0  0  0  0  0
   78.8858    3.8010   -6.6365 H   0  0  0  0  0  0  0  0  0  0  0  0
   78.8249    5.1562   -8.7227 H   0  0  0  0  0  0  0  0  0  0  0  0
   74.7236    4.9630   -8.9141 H   0  0  0  0  0  0  0  0  0  0  0  0
   74.5964    3.5997   -6.8364 H   0  0  0  0  0  0  0  0  0  0  0  0
   79.3428    2.1188   -3.9958 H   0  0  0  0  0  0  0  0  0  0  0  0
   81.2358    1.1262   -2.3620 H   0  0  0  0  0  0  0  0  0  0  0  0
   81.2262   -1.9999    1.9120 H   0  0  0  0  0  0  0  0  0  0  0  0
   79.3238   -3.2328    3.3618 H   0  0  0  0  0  0  0  0  0  0  0  0
   74.5409   -5.4080    5.6562 H   0  0  0  0  0  0  0  0  0  0  0  0
   74.6392   -6.9482    7.6083 H   0  0  0  0  0  0  0  0  0  0  0  0
   78.7419   -6.7481    7.7579 H   0  0  0  0  0  0  0  0  0  0  0  0
   78.8316   -5.1989    5.8125 H   0  0  0  0  0  0  0  0  0  0  0  0
   74.0395   -3.4589    3.1837 H   0  0  0  0  0  0  0  0  0  0  0  0
   72.1407   -2.3900    1.6048 H   0  0  0  0  0  0  0  0  0  0  0  0
  2  3  4  0  0  0  0
  3  4  4  0  0  0  0
  4  5  2  0  0  0  0
  5  6  4  0  0  0  0
  1  7  1  0  0  0  0
  3  7  4  0  0  0  0
  6  7  4  0  0  0  0
  6  8  4  0  0  0  0
  8  9  1  0  0  0  0
  9 10  3  0  0  0  0
 10 11  1  0  0  0  0
 11 12  4  0  0  0  0
 12 13  4  0  0  0  0
 13 14  4  0  0  0  0
 14 15  4  0  0  0  0
 11 16  4  0  0  0  0
 15 16  4  0  0  0  0
  8 17  4  0  0  0  0
 17 18  4  0  0  0  0
 18 19  2  0  0  0  0
  1 20  1  0  0  0  0
 17 20  4  0  0  0  0
 19 21  4  0  0  0  0
 20 21  4  0  0  0  0
 21 22  4  0  0  0  0
 22 23  4  0  0  0  0
 23 24  4  0  0  0  0
 24 25  2  0  0  0  0
 25 26  4  0  0  0  0
  1 27  1  0  0  0  0
 23 27  4  0  0  0  0
 26 27  4  0  0  0  0
 26 28  4  0  0  0  0
 28 29  1  0  0  0  0
 29 30  3  0  0  0  0
 30 31  1  0  0  0  0
 31 32  4  0  0  0  0
 32 33  4  0  0  0  0
 33 34  4  0  0  0  0
 34 35  4  0  0  0  0
 31 36  4  0  0  0  0
 35 36  4  0  0  0  0
 28 37  4  0  0  0  0
 37 38  4  0  0  0  0
 38 39  2  0  0  0  0
  2 40  4  0  0  0  0
 39 40  4  0  0  0  0
  1 41  1  0  0  0  0
 37 41  4  0  0  0  0
 40 41  4  0  0  0  0
  2 42  1  0  0  0  0
  4 43  1  0  0  0  0
  5 44  1  0  0  0  0
 12 45  1  0  0  0  0
 13 46  1  0  0  0  0
 15 47  1  0  0  0  0
 16 48  1  0  0  0  0
 18 49  1  0  0  0  0
 19 50  1  0  0  0  0
 24 51  1  0  0  0  0
 25 52  1  0  0  0  0
 32 53  1  0  0  0  0
 33 54  1  0  0  0  0
 35 55  1  0  0  0  0
 36 56  1  0  0  0  0
 38 57  1  0  0  0  0
 39 58  1  0  0  0  0
 60 61  4  0  0  0  0
 61 62  4  0  0  0  0
 62 63  2  0  0  0  0
 63 64  4  0  0  0  0
 59 65  1  0  0  0  0
 61 65  4  0  0  0  0
 64 65  4  0  0  0  0
 64 66  4  0  0  0  0
 66 67  1  0  0  0  0
 67 68  3  0  0  0  0
 68 69  1  0  0  0  0
 69 70  4  0  0  0  0
 70 71  4  0  0  0  0
 71 72  4  0  0  0  0
 72 73  4  0  0  0  0
 69 74  4  0  0  0  0
 73 74  4  0  0  0  0
 66 75  4  0  0  0  0
 75 76  4  0  0  0  0
 76 77  2  0  0  0  0
 59 78  1  0  0  0  0
 75 78  4  0  0  0  0
 77 79  4  0  0  0  0
 78 79  4  0  0  0  0
 79 80  4  0  0  0  0
 80 81  4  0  0  0  0
 81 82  4  0  0  0  0
 82 83  2  0  0  0  0
 83 84  4  0  0  0  0
 59 85  1  0  0  0  0
 81 85  4  0  0  0  0
 84 85  4  0  0  0  0
 84 86  4  0  0  0  0
 86 87  1  0  0  0  0
 87 88  3  0  0  0  0
 88 89  1  0  0  0  0
 89 90  4  0  0  0  0
 90 91  4  0  0  0  0
 91 92  4  0  0  0  0
 92 93  4  0  0  0  0
 89 94  4  0  0  0  0
 93 94  4  0  0  0  0
 86 95  4  0  0  0  0
 95 96  4  0  0  0  0
 96 97  2  0  0  0  0
 60 98  4  0  0  0  0
 97 98  4  0  0  0  0
 59 99  1  0  0  0  0
 95 99  4  0  0  0  0
 98 99  4  0  0  0  0
 60100  1  0  0  0  0
 62101  1  0  0  0  0
 63102  1  0  0  0  0
 70103  1  0  0  0  0
 71104  1  0  0  0  0
 73105  1  0  0  0  0
 74106  1  0  0  0  0
 76107  1  0  0  0  0
 77108  1  0  0  0  0
 82109  1  0  0  0  0
 83110  1  0  0  0  0
 90111  1  0  0  0  0
 91112  1  0  0  0  0
 93113  1  0  0  0  0
 94114  1  0  0  0  0
 96115  1  0  0  0  0
 97116  1  0  0  0  0
117118  3  0  0  0  0
118119  4  0  0  0  0
 22120  4  0  0  0  0
119120  3  0  0  0  0
117121  4  0  0  0  0
121122  3  0  0  0  0
123124  3  0  0  0  0
124125  4  0  0  0  0
125126  3  0  0  0  0
123127  4  0  0  0  0
127128  3  0  0  0  0
129130  3  0  0  0  0
130131  4  0  0  0  0
131132  3  0  0  0  0
129133  4  0  0  0  0
 80134  4  0  0  0  0
133134  3  0  0  0  0
122136  4  0  0  0  0
136137  4  0  0  0  0
137138  4  0  0  0  0
138139  2  0  0  0  0
139140  4  0  0  0  0
135141  1  0  0  0  0
137141  4  0  0  0  0
140141  4  0  0  0  0
140142  4  0  0  0  0
142143  1  0  0  0  0
143144  3  0  0  0  0
144145  1  0  0  0  0
145146  4  0  0  0  0
146147  4  0  0  0  0
147148  4  0  0  0  0
148149  4  0  0  0  0
145150  4  0  0  0  0
149150  4  0  0  0  0
142151  4  0  0  0  0
151152  4  0  0  0  0
152153  2  0  0  0  0
135154  1  0  0  0  0
151154  4  0  0  0  0
153155  4  0  0  0  0
154155  4  0  0  0  0
126156  4  0  0  0  0
155156  4  0  0  0  0
156157  4  0  0  0  0
157158  4  0  0  0  0
158159  2  0  0  0  0
159160  4  0  0  0  0
135161  1  0  0  0  0
157161  4  0  0  0  0
160161  4  0  0  0  0
160162  4  0  0  0  0
162163  1  0  0  0  0
163164  3  0  0  0  0
164165  1  0  0  0  0
165166  4  0  0  0  0
166167  4  0  0  0  0
167168  4  0  0  0  0
168169  4  0  0  0  0
165170  4  0  0  0  0
169170  4  0  0  0  0
162171  4  0  0  0  0
171172  4  0  0  0  0
172173  2  0  0  0  0
136174  4  0  0  0  0
173174  4  0  0  0  0
135175  1  0  0  0  0
171175  4  0  0  0  0
174175  4  0  0  0  0
138176  1  0  0  0  0
139177  1  0  0  0  0
146178  1  0  0  0  0
147179  1  0  0  0  0
149180  1  0  0  0  0
150181  1  0  0  0  0
152182  1  0  0  0  0
153183  1  0  0  0  0
158184  1  0  0  0  0
159185  1  0  0  0  0
166186  1  0  0  0  0
167187  1  0  0  0  0
169188  1  0  0  0  0
170189  1  0  0  0  0
172190  1  0  0  0  0
173191  1  0  0  0  0
128193  4  0  0  0  0
193194  4  0  0  0  0
194195  4  0  0  0  0
195196  2  0  0  0  0
196197  4  0  0  0  0
192198  1  0  0  0  0
194198  4  0  0  0  0
197198  4  0  0  0  0
197199  4  0  0  0  0
199200  1  0  0  0  0
200201  3  0  0  0  0
201202  1  0  0  0  0
202203  4  0  0  0  0
203204  4  0  0  0  0
204205  4  0  0  0  0
205206  4  0  0  0  0
202207  4  0  0  0  0
206207  4  0  0  0  0
199208  4  0  0  0  0
208209  4  0  0  0  0
209210  2  0  0  0  0
192211  1  0  0  0  0
208211  4  0  0  0  0
210212  4  0  0  0  0
211212  4  0  0  0  0
132213  4  0  0  0  0
212213  4  0  0  0  0
213214  4  0  0  0  0
214215  4  0  0  0  0
215216  2  0  0  0  0
216217  4  0  0  0  0
192218  1  0  0  0  0
214218  4  0  0  0  0
217218  4  0  0  0  0
217219  4  0  0  0  0
219220  1  0  0  0  0
220221  3  0  0  0  0
221222  1  0  0  0  0
222223  4  0  0  0  0
223224  4  0  0  0  0
224225  4  0  0  0  0
225226  4  0  0  0  0
222227  4  0  0  0  0
226227  4  0  0  0  0
219228  4  0  0  0  0
228229  4  0  0  0  0
229230  2  0  0  0  0
193231  4  0  0  0  0
230231  4  0  0  0  0
192232  1  0  0  0  0
228232  4  0  0  0  0
231232  4  0  0  0  0
195233  1  0  0  0  0
196234  1  0  0  0  0
203235  1  0  0  0  0
204236  1  0  0  0  0
206237  1  0  0  0  0
207238  1  0  0  0  0
209239  1  0  0  0  0
210240  1  0  0  0  0
215241  1  0  0  0  0
216242  1  0  0  0  0
223243  1  0  0  0  0
224244  1  0  0  0  0
226245  1  0  0  0  0
227246  1  0  0  0  0
229247  1  0  0  0  0
230248  1  0  0  0  0
M  END
