396

C 56.231285 -0.024912 -0.021169
C 56.956473 -1.403683 0.022014
C 56.338829 -2.629579 0.115642
C 57.360753 -3.612482 0.086786
C 58.569134 -2.952688 -0.023707
N 58.312089 -1.605147 -0.031432
C 60.002855 -3.622771 -0.145433
C 60.054935 -5.108655 -0.292920
C 59.984293 -5.700911 -1.575077
C 59.874124 -4.854991 -2.816866
C 60.022663 -7.100113 -1.694386
C 60.137192 -7.919155 -0.566051
C 60.141343 -9.410577 -0.708459
C 60.190735 -7.328384 0.700829
C 60.156230 -5.932378 0.852505
C 60.225872 -5.335696 2.234099
C 61.129119 -2.858188 -0.142428
C 62.442028 -3.447619 -0.303185
C 63.343507 -2.473652 -0.287432
N 61.318695 -1.505772 -0.016924
C 62.655802 -1.210571 -0.098968
C 63.327479 -0.029511 -0.032235
C 62.555473 1.338430 0.217184
C 63.125879 2.528734 0.626435
C 62.098420 3.500725 0.684752
C 60.923784 2.877028 0.322931
N 61.204726 1.553246 0.072838
C 59.496361 3.568723 0.218234
C 59.438912 5.059861 0.212321
C 59.574086 5.769722 -1.002834
C 59.770270 5.043585 -2.308088
C 59.514614 7.173354 -0.995499
C 59.333174 7.882949 0.196215
C 59.229334 9.377623 0.184691
C 59.189217 7.174898 1.394151
C 59.249800 5.771728 1.419925
C 59.083905 5.049298 2.731308
C 58.376971 2.803502 0.126218
C 57.047637 3.379329 0.021945
C 56.165834 2.386713 -0.036737
C 56.896489 1.144402 0.019845
N 58.220312 1.445114 0.108954
H 55.150226 -0.024081 -0.095957
H 55.275523 -2.797738 0.185449
H 57.229974 -4.683124 0.127638
H 59.017551 -0.872063 -0.066382
H 58.972757 -4.235492 -2.785390
H 59.805842 -5.476714 -3.716346
H 60.757379 -4.219148 -2.929531
H 59.964131 -7.550500 -2.682121
H 59.116734 -9.793207 -0.674786
H 60.600006 -9.711873 -1.656013
H 60.720285 -9.879085 0.094368
H 60.262049 -7.957311 1.584643
H 59.324661 -4.753270 2.448829
H 60.296550 -6.115566 3.000242
H 61.110736 -4.700283 2.337542
H 62.658514 -4.494076 -0.424296
H 64.402537 -2.623988 -0.389127
H 64.169123 2.690902 0.850402
H 62.203681 4.540493 0.956878
H 60.510118 0.844012 -0.149482
H 59.854112 5.746149 -3.144534
H 60.692611 4.454952 -2.288885
H 58.917417 4.390671 -2.518433
H 59.607459 7.713331 -1.934413
H 59.672559 9.804738 1.089793
H 58.179114 9.679296 0.129228
H 59.762780 9.803717 -0.670941
H 59.025331 7.716910 2.322090
H 59.066281 5.752821 3.571133
H 58.140684 4.495098 2.748281
H 59.918506 4.364651 2.909050
H 56.814080 4.428697 -0.001174
H 55.098700 2.486217 -0.115403
C 130.915555 -0.033542 -0.020950
C 130.190367 1.345642 -0.047903
C 130.808011 2.574712 -0.016707
C 129.786087 3.554878 -0.095485
C 128.577706 2.890321 -0.172299
N 128.834751 1.544129 -0.111520
C 127.143985 3.553351 -0.327927
C 127.091905 5.029817 -0.550748
C 127.162546 5.556138 -1.861351
C 127.272715 4.648193 -3.058538
C 127.124177 6.947467 -2.051625
C 127.009648 7.822802 -0.966380
C 127.005497 9.305058 -1.184409
C 126.956104 7.297187 0.328892
C 126.990610 5.910696 0.551328
C 126.920968 5.385009 1.961464
C 126.017721 2.789909 -0.286063
C 124.704812 3.370407 -0.476572
C 123.803333 2.398499 -0.411334
N 125.828145 1.445620 -0.091980
C 124.491038 1.146631 -0.158913
C 123.819361 -0.029511 -0.032235
C 124.591367 -1.383006 0.286392
C 124.020961 -2.550971 0.755616
C 125.048420 -3.518741 0.863261
C 126.223056 -2.914240 0.470207
N 125.942114 -1.604882 0.153151
C 127.650479 -3.610363 0.400803
C 127.707928 -5.099875 0.470689
C 127.572754 -5.870582 -0.706813
C 127.376570 -5.211728 -2.047289
C 127.632226 -7.272027 -0.628144
C 127.813666 -7.920132 0.598098
C 127.917506 -9.413460 0.662561
C 127.957623 -7.152106 1.758496
C 127.897040 -5.749440 1.712916
C 128.062935 -4.961288 2.985884
C 128.769869 -2.850808 0.270010
C 130.099203 -3.431191 0.195141
C 130.981006 -2.442841 0.086082
C 130.250351 -1.199260 0.079446
N 128.926528 -1.495054 0.183724
H 131.996614 -0.038173 -0.095599
H 131.871317 2.746202 0.044463
H 129.916866 4.626213 -0.109104
H 128.129289 0.810216 -0.109163
H 128.174083 4.031094 -2.995614
H 127.340998 5.223393 -3.988456
H 126.389461 4.007446 -3.138738
H 127.182709 7.347067 -3.060976
H 128.030106 9.688904 -1.170229
H 126.546834 9.557801 -2.146054
H 126.426555 9.813767 -0.406434
H 126.884790 7.970224 1.179596
H 127.822179 4.814251 2.205521
H 126.850290 6.202813 2.686978
H 126.036104 4.755675 2.097071
H 124.488326 4.409355 -0.650716
H 122.744303 2.543472 -0.520539
H 122.977716 -2.701545 0.987536
H 124.943159 -4.543333 1.187886
H 126.636722 -0.907864 -0.104930
H 127.292728 -5.955898 -2.846944
H 126.454229 -4.622879 -2.058030
H 128.229422 -4.570349 -2.290548
H 127.539381 -7.859030 -1.538398
H 127.474281 -9.794018 1.588202
H 128.967726 -9.717562 0.622503
H 127.384060 -9.882493 -0.170308
H 128.121509 -7.646253 2.712785
H 128.080559 -5.621215 3.860382
H 129.006156 -4.406942 2.974666
H 127.228334 -4.268493 3.128597
H 130.332760 -4.480378 0.225390
H 132.048140 -2.546215 0.012575
C 69.708237 -0.028409 -0.023746
C 68.499298 -0.041864 -0.032193
C 67.077769 -0.033044 -0.044176
C 65.866099 -0.025606 -0.033313
C 71.124842 -0.035084 -0.023212
C 72.345537 -0.025606 -0.033313
C 86.020922 -0.028409 -0.023746
C 84.811982 -0.041864 -0.032193
C 83.390453 -0.033044 -0.044176
C 82.178784 -0.025606 -0.033313
C 87.437526 -0.035084 -0.023212
C 88.658222 -0.025606 -0.033313
C 102.333606 -0.028409 -0.023746
C 101.124667 -0.041864 -0.032193
C 99.703138 -0.033044 -0.044176
C 98.491468 -0.025606 -0.033313
C 103.750210 -0.035084 -0.023212
C 104.970906 -0.025606 -0.033313
C 118.646290 -0.028409 -0.023746
C 117.437351 -0.041864 -0.032193
C 116.015822 -0.033044 -0.044176
C 114.804153 -0.025606 -0.033313
C 120.062895 -0.035084 -0.023212
C 121.283591 -0.025606 -0.033313
C 73.671893 0.022708 0.025382
C 74.460282 -0.762290 1.155392
C 73.932774 -1.259998 2.329686
C 74.968287 -1.963017 2.995326
C 76.099816 -1.862184 2.214837
N 75.798315 -1.072770 1.132491
C 77.498882 -2.553579 2.495046
C 77.506252 -3.785619 3.338519
C 77.246466 -5.046587 2.753159
C 76.963963 -5.175403 1.278835
C 77.266025 -6.200447 3.554723
C 77.529068 -6.124082 4.926364
C 77.590474 -7.368711 5.757667
C 77.796058 -4.875704 5.498300
C 77.777594 -3.702923 4.724472
C 78.077242 -2.380927 5.382245
C 78.631467 -2.055025 1.931277
C 79.923277 -2.681886 2.122892
C 80.832082 -1.982810 1.452779
N 78.837611 -0.971781 1.121433
C 80.165331 -0.875266 0.797240
C 80.832230 0.022708 0.025382
C 80.043791 1.211273 -0.666302
C 80.568288 2.425746 -1.059674
C 79.533136 3.143907 -1.709879
C 78.403882 2.352622 -1.681573
N 78.707387 1.208781 -0.985499
C 77.004908 2.685754 -2.350435
C 76.999119 3.633181 -3.504510
C 77.268647 3.161748 -4.810197
C 77.550791 1.704215 -5.069116
C 77.271852 4.064991 -5.886164
C 77.001793 5.423827 -5.690604
C 77.041826 6.378577 -6.844935
C 76.749335 5.887480 -4.395202
C 76.740637 5.009022 -3.298647
C 76.454208 5.549034 -1.921680
C 75.872867 2.081347 -1.900733
C 74.581151 2.324120 -2.508591
C 73.672838 1.600065 -1.864754
C 74.339523 0.858834 -0.812654
N 75.667819 1.185504 -0.887473
H 72.911481 -1.153350 2.661622
H 74.892660 -2.501198 3.928244
H 76.468112 -0.747543 0.440919
H 76.073143 -4.603882 1.003835
H 77.820128 -4.832045 0.691665
H 76.775358 -6.217030 1.000737
H 77.077192 -7.168029 3.096581
H 77.262272 -7.169983 6.783000
H 76.932623 -8.143505 5.351256
H 78.614858 -7.751457 5.782543
H 78.024763 -4.808321 6.558957
H 77.278742 -1.657979 5.188722
H 78.152687 -2.488608 6.470349
H 79.031473 -1.981490 5.025278
H 80.119818 -3.565110 2.704703
H 81.880501 -2.216530 1.415613
H 81.588296 2.752100 -0.920598
H 79.608665 4.119356 -2.166732
H 78.039580 0.489831 -0.721371
H 77.722701 1.517080 -6.133779
H 76.699228 1.087163 -4.767648
H 78.450095 1.383565 -4.535499
H 77.485179 3.697425 -6.887014
H 76.713244 5.889293 -7.767991
H 78.060099 6.753148 -6.984387
H 76.373350 7.228881 -6.673743
H 76.555041 6.944518 -4.230953
H 77.292298 5.353268 -1.244657
H 76.307186 6.635526 -1.944811
H 75.538435 5.108352 -1.516565
H 74.384968 2.976728 -3.340651
H 72.624678 1.582898 -2.100393
C 89.984578 0.022708 0.025382
C 90.772966 -0.762290 1.155392
C 90.245458 -1.259998 2.329686
C 91.280971 -1.963017 2.995326
C 92.412501 -1.862184 2.214837
N 92.110999 -1.072770 1.132491
C 93.811567 -2.553579 2.495046
C 93.818937 -3.785619 3.338519
C 93.559150 -5.046587 2.753159
C 93.276648 -5.175403 1.278835
C 93.578709 -6.200447 3.554723
C 93.841752 -6.124082 4.926364
C 93.903159 -7.368711 5.757667
C 94.108743 -4.875704 5.498300
C 94.090278 -3.702923 4.724472
C 94.389927 -2.380927 5.382245
C 94.944151 -2.055025 1.931277
C 96.235961 -2.681886 2.122892
C 97.144766 -1.982810 1.452779
N 95.150296 -0.971781 1.121433
C 96.478015 -0.875266 0.797240
C 97.144915 0.022708 0.025382
C 96.356475 1.211273 -0.666302
C 96.880972 2.425746 -1.059674
C 95.845820 3.143907 -1.709879
C 94.716566 2.352622 -1.681573
N 95.020071 1.208781 -0.985499
C 93.317593 2.685754 -2.350435
C 93.311803 3.633181 -3.504510
C 93.581331 3.161748 -4.810197
C 93.863475 1.704215 -5.069116
C 93.584536 4.064991 -5.886164
C 93.314477 5.423827 -5.690604
C 93.354510 6.378577 -6.844935
C 93.062019 5.887480 -4.395202
C 93.053321 5.009022 -3.298647
C 92.766892 5.549034 -1.921680
C 92.185551 2.081347 -1.900733
C 90.893835 2.324120 -2.508591
C 89.985522 1.600065 -1.864754
C 90.652207 0.858834 -0.812654
N 91.980504 1.185504 -0.887473
H 89.224165 -1.153350 2.661622
H 91.205345 -2.501198 3.928244
H 92.780797 -0.747543 0.440919
H 92.385827 -4.603882 1.003835
H 94.132812 -4.832045 0.691665
H 93.088043 -6.217030 1.000737
H 93.389876 -7.168029 3.096581
H 93.574956 -7.169983 6.783000
H 93.245307 -8.143505 5.351256
H 94.927543 -7.751457 5.782543
H 94.337447 -4.808321 6.558957
H 93.591426 -1.657979 5.188722
H 94.465371 -2.488608 6.470349
H 95.344157 -1.981490 5.025278
H 96.432502 -3.565110 2.704703
H 98.193186 -2.216530 1.415613
H 97.900981 2.752100 -0.920598
H 95.921349 4.119356 -2.166732
H 94.352264 0.489831 -0.721371
H 94.035385 1.517080 -6.133779
H 93.011913 1.087163 -4.767648
H 94.762779 1.383565 -4.535499
H 93.797864 3.697425 -6.887014
H 93.025929 5.889293 -7.767991
H 94.372784 6.753148 -6.984387
H 92.686034 7.228881 -6.673743
H 92.867726 6.944518 -4.230953
H 93.604982 5.353268 -1.244657
H 92.619870 6.635526 -1.944811
H 91.851120 5.108352 -1.516565
H 90.697653 2.976728 -3.340651
H 88.937363 1.582898 -2.100393
C 106.297262 0.022708 0.025382
C 107.085651 -0.762290 1.155392
C 106.558143 -1.259998 2.329686
C 107.593655 -1.963017 2.995326
C 108.725185 -1.862184 2.214837
N 108.423683 -1.072770 1.132491
C 110.124251 -2.553579 2.495046
C 110.131621 -3.785619 3.338519
C 109.871835 -5.046587 2.753159
C 109.589332 -5.175403 1.278835
C 109.891394 -6.200447 3.554723
C 110.154437 -6.124082 4.926364
C 110.215843 -7.368711 5.757667
C 110.421427 -4.875704 5.498300
C 110.402963 -3.702923 4.724472
C 110.702611 -2.380927 5.382245
C 111.256836 -2.055025 1.931277
C 112.548646 -2.681886 2.122892
C 113.457450 -1.982810 1.452779
N 111.462980 -0.971781 1.121433
C 112.790700 -0.875266 0.797240
C 113.457599 0.022708 0.025382
C 112.669159 1.211273 -0.666302
C 113.193657 2.425746 -1.059674
C 112.158505 3.143907 -1.709879
C 111.029250 2.352622 -1.681573
N 111.332756 1.208781 -0.985499
C 109.630277 2.685754 -2.350435
C 109.624488 3.633181 -3.504510
C 109.894016 3.161748 -4.810197
C 110.176160 1.704215 -5.069116
C 109.897221 4.064991 -5.886164
C 109.627162 5.423827 -5.690604
C 109.667195 6.378577 -6.844935
C 109.374704 5.887480 -4.395202
C 109.366005 5.009022 -3.298647
C 109.079577 5.549034 -1.921680
C 108.498235 2.081347 -1.900733
C 107.206519 2.324120 -2.508591
C 106.298207 1.600065 -1.864754
C 106.964892 0.858834 -0.812654
N 108.293188 1.185504 -0.887473
H 105.536849 -1.153350 2.661622
H 107.518029 -2.501198 3.928244
H 109.093481 -0.747543 0.440919
H 108.698512 -4.603882 1.003835
H 110.445496 -4.832045 0.691665
H 109.400727 -6.217030 1.000737
H 109.702561 -7.168029 3.096581
H 109.887640 -7.169983 6.783000
H 109.557991 -8.143505 5.351256
H 111.240227 -7.751457 5.782543
H 110.650132 -4.808321 6.558957
H 109.904111 -1.657979 5.188722
H 110.778055 -2.488608 6.470349
H 111.656842 -1.981490 5.025278
H 112.745187 -3.565110 2.704703
H 114.505870 -2.216530 1.415613
H 114.213665 2.752100 -0.920598
H 112.234034 4.119356 -2.166732
H 110.664948 0.489831 -0.721371
H 110.348070 1.517080 -6.133779
H 109.324597 1.087163 -4.767648
H 111.075464 1.383565 -4.535499
H 110.110548 3.697425 -6.887014
H 109.338613 5.889293 -7.767991
H 110.685468 6.753148 -6.984387
H 108.998719 7.228881 -6.673743
H 109.180410 6.944518 -4.230953
H 109.917667 5.353268 -1.244657
H 108.932555 6.635526 -1.944811
H 108.163804 5.108352 -1.516565
H 107.010337 2.976728 -3.340651
H 105.250047 1.582898 -2.100393
