 xtb: 6.5.1 (b24c23e)
          07292200483D

396430  0     0  0            999 V2000
   57.9655   -0.1328   -0.0148 C   0  0  0  0  0  0  0  0  0  0  0  0
   58.5811   -1.3772   -0.0560 C   0  0  0  0  0  0  0  0  0  0  0  0
   57.9468   -2.6510   -0.0999 C   0  0  0  0  0  0  0  0  0  0  0  0
   58.9235   -3.6065   -0.1290 C   0  0  0  0  0  0  0  0  0  0  0  0
   60.1855   -2.9465   -0.1032 C   0  0  0  0  0  0  0  0  0  0  0  0
   59.9283   -1.6057   -0.0601 N   0  0  0  0  0  0  0  0  0  0  0  0
   61.4494   -3.5414   -0.1166 C   0  0  0  0  0  0  0  0  0  0  0  0
   61.4746   -5.0333   -0.1655 C   0  0  0  0  0  0  0  0  0  0  0  0
   61.4969   -5.6898   -1.3994 C   0  0  0  0  0  0  0  0  0  0  0  0
   61.5056   -4.8915   -2.6759 C   0  0  0  0  0  0  0  0  0  0  0  0
   61.5122   -7.0792   -1.4341 C   0  0  0  0  0  0  0  0  0  0  0  0
   61.5064   -7.8237   -0.2591 C   0  0  0  0  0  0  0  0  0  0  0  0
   61.5005   -9.3277   -0.3099 C   0  0  0  0  0  0  0  0  0  0  0  0
   61.4849   -7.1598    0.9632 C   0  0  0  0  0  0  0  0  0  0  0  0
   61.4693   -5.7712    1.0215 C   0  0  0  0  0  0  0  0  0  0  0  0
   61.4480   -5.0604    2.3486 C   0  0  0  0  0  0  0  0  0  0  0  0
   62.6679   -2.8652   -0.0896 C   0  0  0  0  0  0  0  0  0  0  0  0
   63.9553   -3.5364   -0.1011 C   0  0  0  0  0  0  0  0  0  0  0  0
   64.8923   -2.5658   -0.0710 C   0  0  0  0  0  0  0  0  0  0  0  0
   62.8437   -1.5152   -0.0519 N   0  0  0  0  0  0  0  0  0  0  0  0
   64.1751   -1.3052   -0.0418 C   0  0  0  0  0  0  0  0  0  0  0  0
   64.8238   -0.0531   -0.0159 C   0  0  0  0  0  0  0  0  0  0  0  0
   64.1821    1.1996    0.0116 C   0  0  0  0  0  0  0  0  0  0  0  0
   64.8102    2.4734    0.0424 C   0  0  0  0  0  0  0  0  0  0  0  0
   63.8295    3.4261    0.0740 C   0  0  0  0  0  0  0  0  0  0  0  0
   62.5717    2.7612    0.0631 C   0  0  0  0  0  0  0  0  0  0  0  0
   62.8370    1.4175    0.0237 N   0  0  0  0  0  0  0  0  0  0  0  0
   61.3091    3.3559    0.0894 C   0  0  0  0  0  0  0  0  0  0  0  0
   61.2749    4.8471    0.1391 C   0  0  0  0  0  0  0  0  0  0  0  0
   61.2491    5.5852   -1.0478 C   0  0  0  0  0  0  0  0  0  0  0  0
   61.2595    4.8749   -2.3752 C   0  0  0  0  0  0  0  0  0  0  0  0
   61.2124    6.9733   -0.9887 C   0  0  0  0  0  0  0  0  0  0  0  0
   61.2016    7.6368    0.2340 C   0  0  0  0  0  0  0  0  0  0  0  0
   61.1392    9.1395    0.2844 C   0  0  0  0  0  0  0  0  0  0  0  0
   61.2266    6.8923    1.4087 C   0  0  0  0  0  0  0  0  0  0  0  0
   61.2635    5.5032    1.3733 C   0  0  0  0  0  0  0  0  0  0  0  0
   61.2894    4.7049    2.6495 C   0  0  0  0  0  0  0  0  0  0  0  0
   60.0896    2.6764    0.0741 C   0  0  0  0  0  0  0  0  0  0  0  0
   58.7958    3.3408    0.1008 C   0  0  0  0  0  0  0  0  0  0  0  0
   57.8652    2.3655    0.0706 C   0  0  0  0  0  0  0  0  0  0  0  0
   58.5901    1.1073    0.0264 C   0  0  0  0  0  0  0  0  0  0  0  0
   59.9267    1.3327    0.0303 N   0  0  0  0  0  0  0  0  0  0  0  0
   56.8804   -0.1395   -0.0152 H   0  0  0  0  0  0  0  0  0  0  0  0
   56.8791   -2.8020   -0.1079 H   0  0  0  0  0  0  0  0  0  0  0  0
   58.7938   -4.6762   -0.1650 H   0  0  0  0  0  0  0  0  0  0  0  0
   60.6386   -0.8821   -0.0345 H   0  0  0  0  0  0  0  0  0  0  0  0
   60.6124   -4.2668   -2.7386 H   0  0  0  0  0  0  0  0  0  0  0  0
   61.5342   -5.5478   -3.5452 H   0  0  0  0  0  0  0  0  0  0  0  0
   62.3758   -4.2332   -2.7050 H   0  0  0  0  0  0  0  0  0  0  0  0
   61.5301   -7.5885   -2.3921 H   0  0  0  0  0  0  0  0  0  0  0  0
   60.4716   -9.6943   -0.3369 H   0  0  0  0  0  0  0  0  0  0  0  0
   62.0121   -9.6883   -1.2026 H   0  0  0  0  0  0  0  0  0  0  0  0
   61.9871   -9.7483    0.5704 H   0  0  0  0  0  0  0  0  0  0  0  0
   61.4816   -7.7323    1.8850 H   0  0  0  0  0  0  0  0  0  0  0  0
   60.5455   -4.4527    2.4386 H   0  0  0  0  0  0  0  0  0  0  0  0
   61.4721   -5.7732    3.1724 H   0  0  0  0  0  0  0  0  0  0  0  0
   62.3086   -4.3946    2.4357 H   0  0  0  0  0  0  0  0  0  0  0  0
   64.0936   -4.6054   -0.1285 H   0  0  0  0  0  0  0  0  0  0  0  0
   65.9660   -2.6650   -0.0687 H   0  0  0  0  0  0  0  0  0  0  0  0
   65.8770    2.6292    0.0412 H   0  0  0  0  0  0  0  0  0  0  0  0
   63.9557    4.4964    0.1027 H   0  0  0  0  0  0  0  0  0  0  0  0
   62.1293    0.6907    0.0084 H   0  0  0  0  0  0  0  0  0  0  0  0
   61.2197    5.5876   -3.1984 H   0  0  0  0  0  0  0  0  0  0  0  0
   62.1651    4.2737   -2.4766 H   0  0  0  0  0  0  0  0  0  0  0  0
   60.4027    4.2028   -2.4518 H   0  0  0  0  0  0  0  0  0  0  0  0
   61.1925    7.5460   -1.9102 H   0  0  0  0  0  0  0  0  0  0  0  0
   61.6057    9.5179    1.1942 H   0  0  0  0  0  0  0  0  0  0  0  0
   60.0974    9.4683    0.2747 H   0  0  0  0  0  0  0  0  0  0  0  0
   61.6406    9.5782   -0.5787 H   0  0  0  0  0  0  0  0  0  0  0  0
   61.2178    7.4011    2.3671 H   0  0  0  0  0  0  0  0  0  0  0  0
   61.2596    5.3604    3.5193 H   0  0  0  0  0  0  0  0  0  0  0  0
   60.4335    4.0288    2.6907 H   0  0  0  0  0  0  0  0  0  0  0  0
   62.1961    4.0988    2.6994 H   0  0  0  0  0  0  0  0  0  0  0  0
   58.6520    4.4090    0.1371 H   0  0  0  0  0  0  0  0  0  0  0  0
   56.7902    2.4560    0.0769 H   0  0  0  0  0  0  0  0  0  0  0  0
  129.1836    0.0938   -0.0483 C   0  0  0  0  0  0  0  0  0  0  0  0
  128.5656    1.3291   -0.1941 C   0  0  0  0  0  0  0  0  0  0  0  0
  129.1974    2.5965   -0.3392 C   0  0  0  0  0  0  0  0  0  0  0  0
  128.2188    3.5438   -0.4531 C   0  0  0  0  0  0  0  0  0  0  0  0
  126.9581    2.8847   -0.3821 C   0  0  0  0  0  0  0  0  0  0  0  0
  127.2179    1.5529   -0.2255 N   0  0  0  0  0  0  0  0  0  0  0  0
  125.6931    3.4725   -0.4594 C   0  0  0  0  0  0  0  0  0  0  0  0
  125.6653    4.9550   -0.6322 C   0  0  0  0  0  0  0  0  0  0  0  0
  125.6703    5.5085   -1.9156 C   0  0  0  0  0  0  0  0  0  0  0  0
  125.6932    4.6086   -3.1224 C   0  0  0  0  0  0  0  0  0  0  0  0
  125.6527    6.8904   -2.0640 C   0  0  0  0  0  0  0  0  0  0  0  0
  125.6296    7.7283   -0.9539 C   0  0  0  0  0  0  0  0  0  0  0  0
  125.6336    9.2232   -1.1268 C   0  0  0  0  0  0  0  0  0  0  0  0
  125.6240    7.1665    0.3186 C   0  0  0  0  0  0  0  0  0  0  0  0
  125.6413    5.7874    0.4906 C   0  0  0  0  0  0  0  0  0  0  0  0
  125.6331    5.1875    1.8714 C   0  0  0  0  0  0  0  0  0  0  0  0
  124.4759    2.7971   -0.3891 C   0  0  0  0  0  0  0  0  0  0  0  0
  123.1872    3.4598   -0.4809 C   0  0  0  0  0  0  0  0  0  0  0  0
  122.2521    2.4932   -0.3708 C   0  0  0  0  0  0  0  0  0  0  0  0
  124.3025    1.4560   -0.2268 N   0  0  0  0  0  0  0  0  0  0  0  0
  122.9716    1.2438   -0.2111 C   0  0  0  0  0  0  0  0  0  0  0  0
  122.3253   -0.0001   -0.0542 C   0  0  0  0  0  0  0  0  0  0  0  0
  122.9696   -1.2414    0.1078 C   0  0  0  0  0  0  0  0  0  0  0  0
  122.3439   -2.5070    0.2654 C   0  0  0  0  0  0  0  0  0  0  0  0
  123.3264   -3.4513    0.3812 C   0  0  0  0  0  0  0  0  0  0  0  0
  124.5829   -2.7892    0.2979 C   0  0  0  0  0  0  0  0  0  0  0  0
  124.3151   -1.4554    0.1343 N   0  0  0  0  0  0  0  0  0  0  0  0
  125.8467   -3.3782    0.3661 C   0  0  0  0  0  0  0  0  0  0  0  0
  125.8835   -4.8598    0.5415 C   0  0  0  0  0  0  0  0  0  0  0  0
  125.8993   -5.6943   -0.5800 C   0  0  0  0  0  0  0  0  0  0  0  0
  125.8754   -5.0972   -1.9618 C   0  0  0  0  0  0  0  0  0  0  0  0
  125.9385   -7.0726   -0.4057 C   0  0  0  0  0  0  0  0  0  0  0  0
  125.9615   -7.6318    0.8679 C   0  0  0  0  0  0  0  0  0  0  0  0
  126.0263   -9.1251    1.0424 C   0  0  0  0  0  0  0  0  0  0  0  0
  125.9464   -6.7920    1.9766 C   0  0  0  0  0  0  0  0  0  0  0  0
  125.9074   -5.4107    1.8259 C   0  0  0  0  0  0  0  0  0  0  0  0
  125.8921   -4.5087    3.0312 C   0  0  0  0  0  0  0  0  0  0  0  0
  127.0649   -2.7014    0.2826 C   0  0  0  0  0  0  0  0  0  0  0  0
  128.3599   -3.3594    0.3590 C   0  0  0  0  0  0  0  0  0  0  0  0
  129.2887   -2.3887    0.2432 C   0  0  0  0  0  0  0  0  0  0  0  0
  128.5614   -1.1398    0.0961 C   0  0  0  0  0  0  0  0  0  0  0  0
  127.2252   -1.3661    0.1236 N   0  0  0  0  0  0  0  0  0  0  0  0
  130.2686    0.1027   -0.0478 H   0  0  0  0  0  0  0  0  0  0  0  0
  130.2648    2.7493   -0.3527 H   0  0  0  0  0  0  0  0  0  0  0  0
  128.3465    4.6073   -0.5760 H   0  0  0  0  0  0  0  0  0  0  0  0
  126.5090    0.8321   -0.1443 H   0  0  0  0  0  0  0  0  0  0  0  0
  126.5946    3.9926   -3.1189 H   0  0  0  0  0  0  0  0  0  0  0  0
  125.6725    5.1913   -4.0429 H   0  0  0  0  0  0  0  0  0  0  0  0
  124.8314    3.9389   -3.1120 H   0  0  0  0  0  0  0  0  0  0  0  0
  125.6559    7.3198   -3.0606 H   0  0  0  0  0  0  0  0  0  0  0  0
  126.6620    9.5914   -1.1515 H   0  0  0  0  0  0  0  0  0  0  0  0
  125.1494    9.5078   -2.0613 H   0  0  0  0  0  0  0  0  0  0  0  0
  125.1188    9.7115   -0.2991 H   0  0  0  0  0  0  0  0  0  0  0  0
  125.6048    7.8124    1.1904 H   0  0  0  0  0  0  0  0  0  0  0  0
  126.5295    4.5842    2.0281 H   0  0  0  0  0  0  0  0  0  0  0  0
  125.5984    5.9654    2.6336 H   0  0  0  0  0  0  0  0  0  0  0  0
  124.7665    4.5357    1.9962 H   0  0  0  0  0  0  0  0  0  0  0  0
  123.0470    4.5208   -0.6123 H   0  0  0  0  0  0  0  0  0  0  0  0
  121.1782    2.5885   -0.3916 H   0  0  0  0  0  0  0  0  0  0  0  0
  121.2774   -2.6635    0.2853 H   0  0  0  0  0  0  0  0  0  0  0  0
  123.2022   -4.5141    0.5125 H   0  0  0  0  0  0  0  0  0  0  0  0
  125.0215   -0.7328    0.0437 H   0  0  0  0  0  0  0  0  0  0  0  0
  125.9105   -5.8760   -2.7230 H   0  0  0  0  0  0  0  0  0  0  0  0
  124.9670   -4.5089   -2.1051 H   0  0  0  0  0  0  0  0  0  0  0  0
  126.7293   -4.4318   -2.1018 H   0  0  0  0  0  0  0  0  0  0  0  0
  125.9506   -7.7201   -1.2764 H   0  0  0  0  0  0  0  0  0  0  0  0
  125.5724   -9.4265    1.9866 H   0  0  0  0  0  0  0  0  0  0  0  0
  127.0683   -9.4536    1.0460 H   0  0  0  0  0  0  0  0  0  0  0  0
  125.5140   -9.6341    0.2255 H   0  0  0  0  0  0  0  0  0  0  0  0
  125.9647   -7.2191    2.9739 H   0  0  0  0  0  0  0  0  0  0  0  0
  125.9298   -5.0894    3.9524 H   0  0  0  0  0  0  0  0  0  0  0  0
  126.7482   -3.8318    3.0085 H   0  0  0  0  0  0  0  0  0  0  0  0
  124.9858   -3.9002    3.0382 H   0  0  0  0  0  0  0  0  0  0  0  0
  128.5058   -4.4206    0.4846 H   0  0  0  0  0  0  0  0  0  0  0  0
  130.3639   -2.4768    0.2527 H   0  0  0  0  0  0  0  0  0  0  0  0
   70.0269   -0.0127   -0.0255 C   0  0  0  0  0  0  0  0  0  0  0  0
   68.7983   -0.0194   -0.0224 C   0  0  0  0  0  0  0  0  0  0  0  0
   67.4535   -0.0276   -0.0198 C   0  0  0  0  0  0  0  0  0  0  0  0
   66.2293   -0.0403   -0.0174 C   0  0  0  0  0  0  0  0  0  0  0  0
   71.3715   -0.0105   -0.0274 C   0  0  0  0  0  0  0  0  0  0  0  0
   72.5959   -0.0091   -0.0310 C   0  0  0  0  0  0  0  0  0  0  0  0
   86.1349   -0.0465   -0.0504 C   0  0  0  0  0  0  0  0  0  0  0  0
   84.9056   -0.0453   -0.0500 C   0  0  0  0  0  0  0  0  0  0  0  0
   83.5620   -0.0417   -0.0511 C   0  0  0  0  0  0  0  0  0  0  0  0
   82.3370   -0.0413   -0.0506 C   0  0  0  0  0  0  0  0  0  0  0  0
   87.4784   -0.0494   -0.0513 C   0  0  0  0  0  0  0  0  0  0  0  0
   88.7035   -0.0497   -0.0538 C   0  0  0  0  0  0  0  0  0  0  0  0
  102.2444   -0.0847   -0.0773 C   0  0  0  0  0  0  0  0  0  0  0  0
  101.0149   -0.0810   -0.0727 C   0  0  0  0  0  0  0  0  0  0  0  0
   99.6714   -0.0755   -0.0692 C   0  0  0  0  0  0  0  0  0  0  0  0
   98.4465   -0.0726   -0.0641 C   0  0  0  0  0  0  0  0  0  0  0  0
  103.5879   -0.0897   -0.0803 C   0  0  0  0  0  0  0  0  0  0  0  0
  104.8129   -0.0904   -0.0836 C   0  0  0  0  0  0  0  0  0  0  0  0
  118.3515   -0.0475   -0.0619 C   0  0  0  0  0  0  0  0  0  0  0  0
  117.1227   -0.0603   -0.0667 C   0  0  0  0  0  0  0  0  0  0  0  0
  115.7784   -0.0703   -0.0711 C   0  0  0  0  0  0  0  0  0  0  0  0
  114.5540   -0.0809   -0.0731 C   0  0  0  0  0  0  0  0  0  0  0  0
  119.6959   -0.0311   -0.0584 C   0  0  0  0  0  0  0  0  0  0  0  0
  120.9201   -0.0168   -0.0567 C   0  0  0  0  0  0  0  0  0  0  0  0
   74.0005   -0.0135   -0.0320 C   0  0  0  0  0  0  0  0  0  0  0  0
   74.6324   -0.9665    0.7902 C   0  0  0  0  0  0  0  0  0  0  0  0
   73.9990   -1.9225    1.6261 C   0  0  0  0  0  0  0  0  0  0  0  0
   74.9771   -2.6411    2.2583 C   0  0  0  0  0  0  0  0  0  0  0  0
   76.2364   -2.1433    1.8247 C   0  0  0  0  0  0  0  0  0  0  0  0
   75.9770   -1.1335    0.9372 N   0  0  0  0  0  0  0  0  0  0  0  0
   77.4966   -2.5940    2.2286 C   0  0  0  0  0  0  0  0  0  0  0  0
   77.5048   -3.7105    3.2202 C   0  0  0  0  0  0  0  0  0  0  0  0
   77.5024   -5.0367    2.7782 C   0  0  0  0  0  0  0  0  0  0  0  0
   77.4957   -5.3377    1.3031 C   0  0  0  0  0  0  0  0  0  0  0  0
   77.5066   -6.0673    3.7104 C   0  0  0  0  0  0  0  0  0  0  0  0
   77.5121   -5.7969    5.0753 C   0  0  0  0  0  0  0  0  0  0  0  0
   77.5357   -6.9241    6.0721 C   0  0  0  0  0  0  0  0  0  0  0  0
   77.5159   -4.4738    5.5035 C   0  0  0  0  0  0  0  0  0  0  0  0
   77.5118   -3.4270    4.5887 C   0  0  0  0  0  0  0  0  0  0  0  0
   77.5142   -1.9974    5.0609 C   0  0  0  0  0  0  0  0  0  0  0  0
   78.7263   -2.1025    1.7967 C   0  0  0  0  0  0  0  0  0  0  0  0
   80.0005   -2.6219    2.2604 C   0  0  0  0  0  0  0  0  0  0  0  0
   80.9565   -1.9106    1.6269 C   0  0  0  0  0  0  0  0  0  0  0  0
   78.9287   -1.0968    0.9006 N   0  0  0  0  0  0  0  0  0  0  0  0
   80.2640   -0.9604    0.7788 C   0  0  0  0  0  0  0  0  0  0  0  0
   80.9337   -0.0362   -0.0503 C   0  0  0  0  0  0  0  0  0  0  0  0
   80.3010    0.9035   -0.8881 C   0  0  0  0  0  0  0  0  0  0  0  0
   80.9340    1.8455   -1.7398 C   0  0  0  0  0  0  0  0  0  0  0  0
   79.9557    2.5637   -2.3721 C   0  0  0  0  0  0  0  0  0  0  0  0
   78.6966    2.0800   -1.9225 C   0  0  0  0  0  0  0  0  0  0  0  0
   78.9566    1.0764   -1.0276 N   0  0  0  0  0  0  0  0  0  0  0  0
   77.4366    2.5413   -2.3140 C   0  0  0  0  0  0  0  0  0  0  0  0
   77.4277    3.6549   -3.3088 C   0  0  0  0  0  0  0  0  0  0  0  0
   77.3983    3.3672   -4.6761 C   0  0  0  0  0  0  0  0  0  0  0  0
   77.3713    1.9363   -5.1434 C   0  0  0  0  0  0  0  0  0  0  0  0
   77.3915    4.4112   -5.5941 C   0  0  0  0  0  0  0  0  0  0  0  0
   77.4123    5.7355   -5.1703 C   0  0  0  0  0  0  0  0  0  0  0  0
   77.4243    6.8594   -6.1710 C   0  0  0  0  0  0  0  0  0  0  0  0
   77.4411    6.0101   -3.8066 C   0  0  0  0  0  0  0  0  0  0  0  0
   77.4485    4.9824   -2.8711 C   0  0  0  0  0  0  0  0  0  0  0  0
   77.4759    5.2880   -1.3972 C   0  0  0  0  0  0  0  0  0  0  0  0
   76.2068    2.0621   -1.8677 C   0  0  0  0  0  0  0  0  0  0  0  0
   74.9326    2.5955   -2.3155 C   0  0  0  0  0  0  0  0  0  0  0  0
   73.9767    1.8867   -1.6794 C   0  0  0  0  0  0  0  0  0  0  0  0
   74.6692    0.9231   -0.8464 C   0  0  0  0  0  0  0  0  0  0  0  0
   76.0049    1.0523   -0.9770 N   0  0  0  0  0  0  0  0  0  0  0  0
   72.9317   -2.0374    1.7253 H   0  0  0  0  0  0  0  0  0  0  0  0
   74.8462   -3.4454    2.9640 H   0  0  0  0  0  0  0  0  0  0  0  0
   76.6839   -0.5853    0.4587 H   0  0  0  0  0  0  0  0  0  0  0  0
   76.6022   -4.9204    0.8349 H   0  0  0  0  0  0  0  0  0  0  0  0
   78.3659   -4.8884    0.8209 H   0  0  0  0  0  0  0  0  0  0  0  0
   77.5132   -6.4125    1.1251 H   0  0  0  0  0  0  0  0  0  0  0  0
   77.5041   -7.0968    3.3676 H   0  0  0  0  0  0  0  0  0  0  0  0
   77.1397   -6.6011    7.0350 H   0  0  0  0  0  0  0  0  0  0  0  0
   76.9477   -7.7698    5.7141 H   0  0  0  0  0  0  0  0  0  0  0  0
   78.5624   -7.2657    6.2227 H   0  0  0  0  0  0  0  0  0  0  0  0
   77.5206   -4.2530    6.5659 H   0  0  0  0  0  0  0  0  0  0  0  0
   76.6210   -1.4795    4.7063 H   0  0  0  0  0  0  0  0  0  0  0  0
   77.5380   -1.9470    6.1490 H   0  0  0  0  0  0  0  0  0  0  0  0
   78.3845   -1.4696    4.6666 H   0  0  0  0  0  0  0  0  0  0  0  0
   80.1183   -3.4221    2.9734 H   0  0  0  0  0  0  0  0  0  0  0  0
   82.0282   -1.9996    1.7070 H   0  0  0  0  0  0  0  0  0  0  0  0
   82.0013    1.9523   -1.8485 H   0  0  0  0  0  0  0  0  0  0  0  0
   80.0863    3.3595   -3.0876 H   0  0  0  0  0  0  0  0  0  0  0  0
   78.2500    0.5381   -0.5377 H   0  0  0  0  0  0  0  0  0  0  0  0
   77.3416    1.8826   -6.2313 H   0  0  0  0  0  0  0  0  0  0  0  0
   76.4945    1.4238   -4.7434 H   0  0  0  0  0  0  0  0  0  0  0  0
   78.2578    1.4053   -4.7911 H   0  0  0  0  0  0  0  0  0  0  0  0
   77.3676    4.1871   -6.6556 H   0  0  0  0  0  0  0  0  0  0  0  0
   77.0036    6.5374   -7.1237 H   0  0  0  0  0  0  0  0  0  0  0  0
   78.4506    7.1905   -6.3459 H   0  0  0  0  0  0  0  0  0  0  0  0
   76.8527    7.7118   -5.8027 H   0  0  0  0  0  0  0  0  0  0  0  0
   77.4559    7.0406   -3.4671 H   0  0  0  0  0  0  0  0  0  0  0  0
   78.3745    4.8694   -0.9399 H   0  0  0  0  0  0  0  0  0  0  0  0
   77.4641    6.3634   -1.2224 H   0  0  0  0  0  0  0  0  0  0  0  0
   76.6111    4.8428   -0.9018 H   0  0  0  0  0  0  0  0  0  0  0  0
   74.8147    3.4026   -3.0208 H   0  0  0  0  0  0  0  0  0  0  0  0
   72.9051    1.9845   -1.7489 H   0  0  0  0  0  0  0  0  0  0  0  0
   90.1068   -0.0529   -0.0517 C   0  0  0  0  0  0  0  0  0  0  0  0
   90.7399   -0.9825    0.7970 C   0  0  0  0  0  0  0  0  0  0  0  0
   90.1077   -1.9198    1.6543 C   0  0  0  0  0  0  0  0  0  0  0  0
   91.0867   -2.6259    2.2993 C   0  0  0  0  0  0  0  0  0  0  0  0
   92.3453   -2.1387    1.8523 C   0  0  0  0  0  0  0  0  0  0  0  0
   92.0845   -1.1466    0.9452 N   0  0  0  0  0  0  0  0  0  0  0  0
   93.6060   -2.5845    2.2604 C   0  0  0  0  0  0  0  0  0  0  0  0
   93.6151   -3.6858    3.2688 C   0  0  0  0  0  0  0  0  0  0  0  0
   93.6156   -5.0183    2.8459 C   0  0  0  0  0  0  0  0  0  0  0  0
   93.6117   -5.3407    1.3754 C   0  0  0  0  0  0  0  0  0  0  0  0
   93.6202   -6.0353    3.7930 C   0  0  0  0  0  0  0  0  0  0  0  0
   93.6234   -5.7453    5.1538 C   0  0  0  0  0  0  0  0  0  0  0  0
   93.6474   -6.8574    6.1672 C   0  0  0  0  0  0  0  0  0  0  0  0
   93.6249   -4.4160    5.5628 C   0  0  0  0  0  0  0  0  0  0  0  0
   93.6203   -3.3825    4.6331 C   0  0  0  0  0  0  0  0  0  0  0  0
   93.6209   -1.9462    5.0844 C   0  0  0  0  0  0  0  0  0  0  0  0
   94.8357   -2.1024    1.8179 C   0  0  0  0  0  0  0  0  0  0  0  0
   96.1099   -2.6154    2.2887 C   0  0  0  0  0  0  0  0  0  0  0  0
   97.0659   -1.9153    1.6430 C   0  0  0  0  0  0  0  0  0  0  0  0
   95.0382   -1.1115    0.9054 N   0  0  0  0  0  0  0  0  0  0  0  0
   96.3735   -0.9782    0.7804 C   0  0  0  0  0  0  0  0  0  0  0  0
   97.0432   -0.0668   -0.0627 C   0  0  0  0  0  0  0  0  0  0  0  0
   96.4100    0.8599   -0.9146 C   0  0  0  0  0  0  0  0  0  0  0  0
   97.0422    1.7921   -1.7775 C   0  0  0  0  0  0  0  0  0  0  0  0
   96.0631    2.4975   -2.4232 C   0  0  0  0  0  0  0  0  0  0  0  0
   94.8046    2.0146   -1.9716 C   0  0  0  0  0  0  0  0  0  0  0  0
   95.0654    1.0258   -1.0608 N   0  0  0  0  0  0  0  0  0  0  0  0
   93.5440    2.4625   -2.3774 C   0  0  0  0  0  0  0  0  0  0  0  0
   93.5350    3.5599   -3.3899 C   0  0  0  0  0  0  0  0  0  0  0  0
   93.5323    3.2508   -4.7530 C   0  0  0  0  0  0  0  0  0  0  0  0
   93.5341    1.8126   -5.1982 C   0  0  0  0  0  0  0  0  0  0  0  0
   93.5250    4.2803   -5.6871 C   0  0  0  0  0  0  0  0  0  0  0  0
   93.5194    5.6113   -5.2838 C   0  0  0  0  0  0  0  0  0  0  0  0
   93.5315    6.7187   -6.3026 C   0  0  0  0  0  0  0  0  0  0  0  0
   93.5222    5.9072   -3.9243 C   0  0  0  0  0  0  0  0  0  0  0  0
   93.5295    4.8942   -2.9728 C   0  0  0  0  0  0  0  0  0  0  0  0
   93.5291    5.2228   -1.5036 C   0  0  0  0  0  0  0  0  0  0  0  0
   92.3143    1.9847   -1.9302 C   0  0  0  0  0  0  0  0  0  0  0  0
   91.0401    2.5011   -2.3973 C   0  0  0  0  0  0  0  0  0  0  0  0
   90.0840    1.8020   -1.7504 C   0  0  0  0  0  0  0  0  0  0  0  0
   90.7765    0.8619   -0.8912 C   0  0  0  0  0  0  0  0  0  0  0  0
   92.1118    0.9936   -1.0179 N   0  0  0  0  0  0  0  0  0  0  0  0
   89.0404   -2.0320    1.7579 H   0  0  0  0  0  0  0  0  0  0  0  0
   90.9567   -3.4156    3.0214 H   0  0  0  0  0  0  0  0  0  0  0  0
   92.7906   -0.6097    0.4529 H   0  0  0  0  0  0  0  0  0  0  0  0
   92.7194   -4.9295    0.8992 H   0  0  0  0  0  0  0  0  0  0  0  0
   94.4832   -4.8992    0.8886 H   0  0  0  0  0  0  0  0  0  0  0  0
   93.6287   -6.4180    1.2131 H   0  0  0  0  0  0  0  0  0  0  0  0
   93.6197   -7.0697    3.4650 H   0  0  0  0  0  0  0  0  0  0  0  0
   93.2298   -6.5267    7.1184 H   0  0  0  0  0  0  0  0  0  0  0  0
   93.0792   -7.7176    5.8120 H   0  0  0  0  0  0  0  0  0  0  0  0
   94.6767   -7.1799    6.3407 H   0  0  0  0  0  0  0  0  0  0  0  0
   93.6282   -4.1799    6.6219 H   0  0  0  0  0  0  0  0  0  0  0  0
   92.7266   -1.4348    4.7230 H   0  0  0  0  0  0  0  0  0  0  0  0
   93.6454   -1.8799    6.1716 H   0  0  0  0  0  0  0  0  0  0  0  0
   94.4901   -1.4230    4.6817 H   0  0  0  0  0  0  0  0  0  0  0  0
   96.2276   -3.4038    3.0147 H   0  0  0  0  0  0  0  0  0  0  0  0
   98.1376   -2.0038    1.7236 H   0  0  0  0  0  0  0  0  0  0  0  0
   98.1094    1.9016   -1.8841 H   0  0  0  0  0  0  0  0  0  0  0  0
   96.1931    3.2839   -3.1490 H   0  0  0  0  0  0  0  0  0  0  0  0
   94.3593    0.4919   -0.5653 H   0  0  0  0  0  0  0  0  0  0  0  0
   93.5144    1.7417   -6.2852 H   0  0  0  0  0  0  0  0  0  0  0  0
   92.6632    1.2909   -4.7971 H   0  0  0  0  0  0  0  0  0  0  0  0
   94.4268    1.3029   -4.8307 H   0  0  0  0  0  0  0  0  0  0  0  0
   93.5216    4.0397   -6.7452 H   0  0  0  0  0  0  0  0  0  0  0  0
   93.0963    6.3856   -7.2449 H   0  0  0  0  0  0  0  0  0  0  0  0
   94.5593    7.0352   -6.4952 H   0  0  0  0  0  0  0  0  0  0  0  0
   92.9736    7.5834   -5.9419 H   0  0  0  0  0  0  0  0  0  0  0  0
   93.5167    6.9429   -3.6006 H   0  0  0  0  0  0  0  0  0  0  0  0
   94.4223    4.8176   -1.0242 H   0  0  0  0  0  0  0  0  0  0  0  0
   93.5069    6.3007   -1.3460 H   0  0  0  0  0  0  0  0  0  0  0  0
   92.6587    4.7795   -1.0165 H   0  0  0  0  0  0  0  0  0  0  0  0
   90.9223    3.2907   -3.1219 H   0  0  0  0  0  0  0  0  0  0  0  0
   89.0124    1.8930   -1.8283 H   0  0  0  0  0  0  0  0  0  0  0  0
  106.2162   -0.0939   -0.0840 C   0  0  0  0  0  0  0  0  0  0  0  0
  106.8503   -1.0355    0.7506 C   0  0  0  0  0  0  0  0  0  0  0  0
  106.2187   -1.9850    1.5951 C   0  0  0  0  0  0  0  0  0  0  0  0
  107.1982   -2.7011    2.2282 C   0  0  0  0  0  0  0  0  0  0  0  0
  108.4566   -2.2080    1.7867 C   0  0  0  0  0  0  0  0  0  0  0  0
  108.1950   -1.2024    0.8946 N   0  0  0  0  0  0  0  0  0  0  0  0
  109.7174   -2.6618    2.1844 C   0  0  0  0  0  0  0  0  0  0  0  0
  109.7280   -3.7767    3.1777 C   0  0  0  0  0  0  0  0  0  0  0  0
  109.7222   -5.1038    2.7382 C   0  0  0  0  0  0  0  0  0  0  0  0
  109.7102   -5.4075    1.2637 C   0  0  0  0  0  0  0  0  0  0  0  0
  109.7280   -6.1327    3.6724 C   0  0  0  0  0  0  0  0  0  0  0  0
  109.7385   -5.8598    5.0367 C   0  0  0  0  0  0  0  0  0  0  0  0
  109.7633   -6.9846    6.0360 C   0  0  0  0  0  0  0  0  0  0  0  0
  109.7466   -4.5358    5.4623 C   0  0  0  0  0  0  0  0  0  0  0  0
  109.7411   -3.4907    4.5457 C   0  0  0  0  0  0  0  0  0  0  0  0
  109.7493   -2.0603    5.0151 C   0  0  0  0  0  0  0  0  0  0  0  0
  110.9466   -2.1735    1.7465 C   0  0  0  0  0  0  0  0  0  0  0  0
  112.2217   -2.6973    2.2028 C   0  0  0  0  0  0  0  0  0  0  0  0
  113.1765   -1.9822    1.5720 C   0  0  0  0  0  0  0  0  0  0  0  0
  111.1470   -1.1626    0.8564 N   0  0  0  0  0  0  0  0  0  0  0  0
  112.4824   -1.0243    0.7339 C   0  0  0  0  0  0  0  0  0  0  0  0
  113.1497   -0.0853   -0.0792 C   0  0  0  0  0  0  0  0  0  0  0  0
  112.5161    0.8622   -0.9067 C   0  0  0  0  0  0  0  0  0  0  0  0
  113.1478    1.8197   -1.7420 C   0  0  0  0  0  0  0  0  0  0  0  0
  112.1685    2.5335   -2.3778 C   0  0  0  0  0  0  0  0  0  0  0  0
  110.9101    2.0312   -1.9469 C   0  0  0  0  0  0  0  0  0  0  0  0
  111.1712    1.0230   -1.0581 N   0  0  0  0  0  0  0  0  0  0  0  0
  109.6493    2.4784   -2.3525 C   0  0  0  0  0  0  0  0  0  0  0  0
  109.6398    3.5965   -3.3423 C   0  0  0  0  0  0  0  0  0  0  0  0
  109.6505    3.3156   -4.7115 C   0  0  0  0  0  0  0  0  0  0  0  0
  109.6673    1.8870   -5.1862 C   0  0  0  0  0  0  0  0  0  0  0  0
  109.6429    4.3640   -5.6240 C   0  0  0  0  0  0  0  0  0  0  0  0
  109.6241    5.6865   -5.1932 C   0  0  0  0  0  0  0  0  0  0  0  0
  109.6363    6.8131   -6.1908 C   0  0  0  0  0  0  0  0  0  0  0  0
  109.6142    5.9541   -3.8282 C   0  0  0  0  0  0  0  0  0  0  0  0
  109.6214    4.9216   -2.8978 C   0  0  0  0  0  0  0  0  0  0  0  0
  109.6079    5.2198   -1.4222 C   0  0  0  0  0  0  0  0  0  0  0  0
  108.4204    1.9832   -1.9228 C   0  0  0  0  0  0  0  0  0  0  0  0
  107.1453    2.4999   -2.3872 C   0  0  0  0  0  0  0  0  0  0  0  0
  106.1905    1.7852   -1.7558 C   0  0  0  0  0  0  0  0  0  0  0  0
  106.8845    0.8349   -0.9091 C   0  0  0  0  0  0  0  0  0  0  0  0
  108.2195    0.9749   -1.0291 N   0  0  0  0  0  0  0  0  0  0  0  0
  105.1516   -2.0983    1.6984 H   0  0  0  0  0  0  0  0  0  0  0  0
  107.0688   -3.5011    2.9390 H   0  0  0  0  0  0  0  0  0  0  0  0
  108.9008   -0.6579    0.4104 H   0  0  0  0  0  0  0  0  0  0  0  0
  108.8142   -4.9923    0.7982 H   0  0  0  0  0  0  0  0  0  0  0  0
  110.5778   -4.9578    0.7773 H   0  0  0  0  0  0  0  0  0  0  0  0
  109.7286   -6.4826    1.0876 H   0  0  0  0  0  0  0  0  0  0  0  0
  109.7226   -7.1628    3.3314 H   0  0  0  0  0  0  0  0  0  0  0  0
  109.3556   -6.6632    6.9945 H   0  0  0  0  0  0  0  0  0  0  0  0
  109.1865   -7.8365    5.6747 H   0  0  0  0  0  0  0  0  0  0  0  0
  110.7917   -7.3162    6.1970 H   0  0  0  0  0  0  0  0  0  0  0  0
  109.7558   -4.3131    6.5243 H   0  0  0  0  0  0  0  0  0  0  0  0
  108.8585   -1.5390    4.6592 H   0  0  0  0  0  0  0  0  0  0  0  0
  109.7730   -2.0079    6.1032 H   0  0  0  0  0  0  0  0  0  0  0  0
  110.6221   -1.5371    4.6201 H   0  0  0  0  0  0  0  0  0  0  0  0
  112.3408   -3.5027    2.9097 H   0  0  0  0  0  0  0  0  0  0  0  0
  114.2483   -2.0723    1.6484 H   0  0  0  0  0  0  0  0  0  0  0  0
  114.2150    1.9389   -1.8383 H   0  0  0  0  0  0  0  0  0  0  0  0
  112.2981    3.3379   -3.0836 H   0  0  0  0  0  0  0  0  0  0  0  0
  110.4653    0.4726   -0.5808 H   0  0  0  0  0  0  0  0  0  0  0  0
  109.6565    1.8384   -6.2746 H   0  0  0  0  0  0  0  0  0  0  0  0
  108.7977    1.3501   -4.8027 H   0  0  0  0  0  0  0  0  0  0  0  0
  110.5614    1.3770   -4.8223 H   0  0  0  0  0  0  0  0  0  0  0  0
  109.6498    4.1457   -6.6869 H   0  0  0  0  0  0  0  0  0  0  0  0
  109.1466    6.5160   -7.1185 H   0  0  0  0  0  0  0  0  0  0  0  0
  110.6668    7.0909   -6.4248 H   0  0  0  0  0  0  0  0  0  0  0  0
  109.1310    7.6923   -5.7904 H   0  0  0  0  0  0  0  0  0  0  0  0
  109.5986    6.9827   -3.4830 H   0  0  0  0  0  0  0  0  0  0  0  0
  110.5009    4.8116   -0.9448 H   0  0  0  0  0  0  0  0  0  0  0  0
  109.5761    6.2939   -1.2425 H   0  0  0  0  0  0  0  0  0  0  0  0
  108.7377    4.7597   -0.9505 H   0  0  0  0  0  0  0  0  0  0  0  0
  107.0263    3.3007   -3.0992 H   0  0  0  0  0  0  0  0  0  0  0  0
  105.1187    1.8717   -1.8367 H   0  0  0  0  0  0  0  0  0  0  0  0
  1  2  4  0  0  0  0
  2  3  4  0  0  0  0
  3  4  2  0  0  0  0
  4  5  4  0  0  0  0
  2  6  4  0  0  0  0
  5  6  4  0  0  0  0
  5  7  4  0  0  0  0
  7  8  1  0  0  0  0
  8  9  4  0  0  0  0
  9 10  1  0  0  0  0
  9 11  4  0  0  0  0
 11 12  4  0  0  0  0
 12 13  1  0  0  0  0
 12 14  4  0  0  0  0
  8 15  4  0  0  0  0
 14 15  4  0  0  0  0
 15 16  1  0  0  0  0
  7 17  4  0  0  0  0
 17 18  1  0  0  0  0
 18 19  2  0  0  0  0
 17 20  4  0  0  0  0
 19 21  1  0  0  0  0
 20 21  4  0  0  0  0
 21 22  4  0  0  0  0
 22 23  4  0  0  0  0
 23 24  4  0  0  0  0
 24 25  2  0  0  0  0
 25 26  4  0  0  0  0
 23 27  4  0  0  0  0
 26 27  4  0  0  0  0
 26 28  4  0  0  0  0
 28 29  1  0  0  0  0
 29 30  4  0  0  0  0
 30 31  1  0  0  0  0
 30 32  4  0  0  0  0
 32 33  4  0  0  0  0
 33 34  1  0  0  0  0
 33 35  4  0  0  0  0
 29 36  4  0  0  0  0
 35 36  4  0  0  0  0
 36 37  1  0  0  0  0
 28 38  4  0  0  0  0
 38 39  1  0  0  0  0
 39 40  2  0  0  0  0
  1 41  4  0  0  0  0
 40 41  1  0  0  0  0
 38 42  4  0  0  0  0
 41 42  4  0  0  0  0
  1 43  1  0  0  0  0
  3 44  1  0  0  0  0
  4 45  1  0  0  0  0
  6 46  1  0  0  0  0
 10 47  1  0  0  0  0
 10 48  1  0  0  0  0
 10 49  1  0  0  0  0
 11 50  1  0  0  0  0
 13 51  1  0  0  0  0
 13 52  1  0  0  0  0
 13 53  1  0  0  0  0
 14 54  1  0  0  0  0
 16 55  1  0  0  0  0
 16 56  1  0  0  0  0
 16 57  1  0  0  0  0
 18 58  1  0  0  0  0
 19 59  1  0  0  0  0
 24 60  1  0  0  0  0
 25 61  1  0  0  0  0
 27 62  1  0  0  0  0
 31 63  1  0  0  0  0
 31 64  1  0  0  0  0
 31 65  1  0  0  0  0
 32 66  1  0  0  0  0
 34 67  1  0  0  0  0
 34 68  1  0  0  0  0
 34 69  1  0  0  0  0
 35 70  1  0  0  0  0
 37 71  1  0  0  0  0
 37 72  1  0  0  0  0
 37 73  1  0  0  0  0
 39 74  1  0  0  0  0
 40 75  1  0  0  0  0
 76 77  4  0  0  0  0
 77 78  4  0  0  0  0
 78 79  2  0  0  0  0
 79 80  4  0  0  0  0
 77 81  4  0  0  0  0
 80 81  4  0  0  0  0
 80 82  4  0  0  0  0
 82 83  1  0  0  0  0
 83 84  4  0  0  0  0
 84 85  1  0  0  0  0
 84 86  4  0  0  0  0
 86 87  4  0  0  0  0
 87 88  1  0  0  0  0
 87 89  4  0  0  0  0
 83 90  4  0  0  0  0
 89 90  4  0  0  0  0
 90 91  1  0  0  0  0
 82 92  4  0  0  0  0
 92 93  1  0  0  0  0
 93 94  2  0  0  0  0
 92 95  4  0  0  0  0
 94 96  1  0  0  0  0
 95 96  4  0  0  0  0
 96 97  4  0  0  0  0
 97 98  4  0  0  0  0
 98 99  4  0  0  0  0
 99100  2  0  0  0  0
100101  4  0  0  0  0
 98102  4  0  0  0  0
101102  4  0  0  0  0
101103  4  0  0  0  0
103104  1  0  0  0  0
104105  4  0  0  0  0
105106  1  0  0  0  0
105107  4  0  0  0  0
107108  4  0  0  0  0
108109  1  0  0  0  0
108110  4  0  0  0  0
104111  4  0  0  0  0
110111  4  0  0  0  0
111112  1  0  0  0  0
103113  4  0  0  0  0
113114  1  0  0  0  0
114115  2  0  0  0  0
 76116  4  0  0  0  0
115116  1  0  0  0  0
113117  4  0  0  0  0
116117  4  0  0  0  0
 76118  1  0  0  0  0
 78119  1  0  0  0  0
 79120  1  0  0  0  0
 81121  1  0  0  0  0
 85122  1  0  0  0  0
 85123  1  0  0  0  0
 85124  1  0  0  0  0
 86125  1  0  0  0  0
 88126  1  0  0  0  0
 88127  1  0  0  0  0
 88128  1  0  0  0  0
 89129  1  0  0  0  0
 91130  1  0  0  0  0
 91131  1  0  0  0  0
 91132  1  0  0  0  0
 93133  1  0  0  0  0
 94134  1  0  0  0  0
 99135  1  0  0  0  0
100136  1  0  0  0  0
102137  1  0  0  0  0
106138  1  0  0  0  0
106139  1  0  0  0  0
106140  1  0  0  0  0
107141  1  0  0  0  0
109142  1  0  0  0  0
109143  1  0  0  0  0
109144  1  0  0  0  0
110145  1  0  0  0  0
112146  1  0  0  0  0
112147  1  0  0  0  0
112148  1  0  0  0  0
114149  1  0  0  0  0
115150  1  0  0  0  0
151152  3  0  0  0  0
152153  4  0  0  0  0
 22154  4  0  0  0  0
153154  3  0  0  0  0
151155  4  0  0  0  0
155156  3  0  0  0  0
157158  3  0  0  0  0
158159  4  0  0  0  0
159160  3  0  0  0  0
157161  4  0  0  0  0
161162  3  0  0  0  0
163164  3  0  0  0  0
164165  4  0  0  0  0
165166  3  0  0  0  0
163167  4  0  0  0  0
167168  3  0  0  0  0
169170  3  0  0  0  0
170171  4  0  0  0  0
171172  3  0  0  0  0
169173  4  0  0  0  0
 97174  4  0  0  0  0
173174  3  0  0  0  0
156175  4  0  0  0  0
175176  4  0  0  0  0
176177  4  0  0  0  0
177178  2  0  0  0  0
178179  4  0  0  0  0
176180  4  0  0  0  0
179180  4  0  0  0  0
179181  4  0  0  0  0
181182  1  0  0  0  0
182183  4  0  0  0  0
183184  1  0  0  0  0
183185  4  0  0  0  0
185186  4  0  0  0  0
186187  1  0  0  0  0
186188  4  0  0  0  0
182189  4  0  0  0  0
188189  4  0  0  0  0
189190  1  0  0  0  0
181191  4  0  0  0  0
191192  1  0  0  0  0
192193  2  0  0  0  0
191194  4  0  0  0  0
193195  1  0  0  0  0
194195  4  0  0  0  0
160196  4  0  0  0  0
195196  4  0  0  0  0
196197  4  0  0  0  0
197198  4  0  0  0  0
198199  2  0  0  0  0
199200  4  0  0  0  0
197201  4  0  0  0  0
200201  4  0  0  0  0
200202  4  0  0  0  0
202203  1  0  0  0  0
203204  4  0  0  0  0
204205  1  0  0  0  0
204206  4  0  0  0  0
206207  4  0  0  0  0
207208  1  0  0  0  0
207209  4  0  0  0  0
203210  4  0  0  0  0
209210  4  0  0  0  0
210211  1  0  0  0  0
202212  4  0  0  0  0
212213  1  0  0  0  0
213214  2  0  0  0  0
175215  4  0  0  0  0
214215  1  0  0  0  0
212216  4  0  0  0  0
215216  4  0  0  0  0
177217  1  0  0  0  0
178218  1  0  0  0  0
180219  1  0  0  0  0
184220  1  0  0  0  0
184221  1  0  0  0  0
184222  1  0  0  0  0
185223  1  0  0  0  0
187224  1  0  0  0  0
187225  1  0  0  0  0
187226  1  0  0  0  0
188227  1  0  0  0  0
190228  1  0  0  0  0
190229  1  0  0  0  0
190230  1  0  0  0  0
192231  1  0  0  0  0
193232  1  0  0  0  0
198233  1  0  0  0  0
199234  1  0  0  0  0
201235  1  0  0  0  0
205236  1  0  0  0  0
205237  1  0  0  0  0
205238  1  0  0  0  0
206239  1  0  0  0  0
208240  1  0  0  0  0
208241  1  0  0  0  0
208242  1  0  0  0  0
209243  1  0  0  0  0
211244  1  0  0  0  0
211245  1  0  0  0  0
211246  1  0  0  0  0
213247  1  0  0  0  0
214248  1  0  0  0  0
162249  4  0  0  0  0
249250  4  0  0  0  0
250251  4  0  0  0  0
251252  2  0  0  0  0
252253  4  0  0  0  0
250254  4  0  0  0  0
253254  4  0  0  0  0
253255  4  0  0  0  0
255256  1  0  0  0  0
256257  4  0  0  0  0
257258  1  0  0  0  0
257259  4  0  0  0  0
259260  4  0  0  0  0
260261  1  0  0  0  0
260262  4  0  0  0  0
256263  4  0  0  0  0
262263  4  0  0  0  0
263264  1  0  0  0  0
255265  4  0  0  0  0
265266  1  0  0  0  0
266267  2  0  0  0  0
265268  4  0  0  0  0
267269  1  0  0  0  0
268269  4  0  0  0  0
166270  4  0  0  0  0
269270  4  0  0  0  0
270271  4  0  0  0  0
271272  4  0  0  0  0
272273  2  0  0  0  0
273274  4  0  0  0  0
271275  4  0  0  0  0
274275  4  0  0  0  0
274276  4  0  0  0  0
276277  1  0  0  0  0
277278  4  0  0  0  0
278279  1  0  0  0  0
278280  4  0  0  0  0
280281  4  0  0  0  0
281282  1  0  0  0  0
281283  4  0  0  0  0
277284  4  0  0  0  0
283284  4  0  0  0  0
284285  1  0  0  0  0
276286  4  0  0  0  0
286287  1  0  0  0  0
287288  2  0  0  0  0
249289  4  0  0  0  0
288289  1  0  0  0  0
286290  4  0  0  0  0
289290  4  0  0  0  0
251291  1  0  0  0  0
252292  1  0  0  0  0
254293  1  0  0  0  0
258294  1  0  0  0  0
258295  1  0  0  0  0
258296  1  0  0  0  0
259297  1  0  0  0  0
261298  1  0  0  0  0
261299  1  0  0  0  0
261300  1  0  0  0  0
262301  1  0  0  0  0
264302  1  0  0  0  0
264303  1  0  0  0  0
264304  1  0  0  0  0
266305  1  0  0  0  0
267306  1  0  0  0  0
272307  1  0  0  0  0
273308  1  0  0  0  0
275309  1  0  0  0  0
279310  1  0  0  0  0
279311  1  0  0  0  0
279312  1  0  0  0  0
280313  1  0  0  0  0
282314  1  0  0  0  0
282315  1  0  0  0  0
282316  1  0  0  0  0
283317  1  0  0  0  0
285318  1  0  0  0  0
285319  1  0  0  0  0
285320  1  0  0  0  0
287321  1  0  0  0  0
288322  1  0  0  0  0
168323  4  0  0  0  0
323324  4  0  0  0  0
324325  4  0  0  0  0
325326  2  0  0  0  0
326327  4  0  0  0  0
324328  4  0  0  0  0
327328  4  0  0  0  0
327329  4  0  0  0  0
329330  1  0  0  0  0
330331  4  0  0  0  0
331332  1  0  0  0  0
331333  4  0  0  0  0
333334  4  0  0  0  0
334335  1  0  0  0  0
334336  4  0  0  0  0
330337  4  0  0  0  0
336337  4  0  0  0  0
337338  1  0  0  0  0
329339  4  0  0  0  0
339340  1  0  0  0  0
340341  2  0  0  0  0
339342  4  0  0  0  0
341343  1  0  0  0  0
342343  4  0  0  0  0
172344  4  0  0  0  0
343344  4  0  0  0  0
344345  4  0  0  0  0
345346  4  0  0  0  0
346347  2  0  0  0  0
347348  4  0  0  0  0
345349  4  0  0  0  0
348349  4  0  0  0  0
348350  4  0  0  0  0
350351  1  0  0  0  0
351352  4  0  0  0  0
352353  1  0  0  0  0
352354  4  0  0  0  0
354355  4  0  0  0  0
355356  1  0  0  0  0
355357  4  0  0  0  0
351358  4  0  0  0  0
357358  4  0  0  0  0
358359  1  0  0  0  0
350360  4  0  0  0  0
360361  1  0  0  0  0
361362  2  0  0  0  0
323363  4  0  0  0  0
362363  1  0  0  0  0
360364  4  0  0  0  0
363364  4  0  0  0  0
325365  1  0  0  0  0
326366  1  0  0  0  0
328367  1  0  0  0  0
332368  1  0  0  0  0
332369  1  0  0  0  0
332370  1  0  0  0  0
333371  1  0  0  0  0
335372  1  0  0  0  0
335373  1  0  0  0  0
335374  1  0  0  0  0
336375  1  0  0  0  0
338376  1  0  0  0  0
338377  1  0  0  0  0
338378  1  0  0  0  0
340379  1  0  0  0  0
341380  1  0  0  0  0
346381  1  0  0  0  0
347382  1  0  0  0  0
349383  1  0  0  0  0
353384  1  0  0  0  0
353385  1  0  0  0  0
353386  1  0  0  0  0
354387  1  0  0  0  0
356388  1  0  0  0  0
356389  1  0  0  0  0
356390  1  0  0  0  0
357391  1  0  0  0  0
359392  1  0  0  0  0
359393  1  0  0  0  0
359394  1  0  0  0  0
361395  1  0  0  0  0
362396  1  0  0  0  0
M  END
