134

C 9.039197 -0.627820 0.561093
C 9.729742 -1.267695 -0.683231
C 9.080649 -1.796002 -1.773119
C 10.077267 -2.271129 -2.662698
C 11.302434 -2.028319 -2.082367
N 11.079736 -1.378058 -0.892647
C 12.725680 -2.441000 -2.651958
C 12.780637 -3.321060 -3.851799
C 13.347162 -2.810221 -5.036109
C 13.408138 -3.598342 -6.177398
O 13.963522 -3.141291 -7.339083
C 12.887507 -4.883400 -6.159996
O 12.934750 -5.656471 -7.290787
C 12.300697 -5.390344 -5.002743
O 11.764359 -6.647535 -5.018164
C 12.247577 -4.621675 -3.843709
C 13.855748 -1.948780 -2.067893
C 15.176240 -2.407128 -2.448093
C 16.074400 -1.756710 -1.718685
N 14.038519 -1.021954 -1.075461
C 15.375979 -0.837987 -0.843214
C 16.038675 -0.000908 -0.000635
C 15.245955 1.043608 0.892714
C 15.736695 2.239511 1.379423
C 14.720385 2.835934 2.167990
C 13.628637 1.995573 2.125874
N 13.942637 0.930270 1.312784
C 12.243492 2.206542 2.863673
C 12.165982 3.237118 3.923135
C 12.639381 2.984550 5.221227
C 12.551953 3.981601 6.180503
O 13.002210 3.756450 7.450822
C 12.007334 5.218742 5.857157
O 11.928371 6.189983 6.821778
C 11.550846 5.478320 4.569350
O 11.035736 6.719325 4.313265
C 11.625456 4.494650 3.596504
C 11.152157 1.498343 2.466867
C 9.865256 1.598820 3.134376
C 9.002721 0.806914 2.504572
C 9.701028 0.187525 1.404103
N 10.994426 0.605208 1.445820
H 7.988500 -0.836331 0.727418
H 8.011025 -1.833124 -1.915109
H 9.916177 -2.749851 -3.617063
H 11.806009 -1.007894 -0.288057
H 13.729087 -1.790094 -5.024116
H 14.277480 -2.244047 -7.146433
H 13.420640 -5.094329 -7.918541
H 12.005848 -6.982232 -5.898851
H 11.785574 -5.013249 -2.940857
H 15.404295 -3.172518 -3.166925
H 17.134298 -1.911596 -1.782381
H 16.721576 2.642977 1.192097
H 14.782067 3.771585 2.704006
H 13.284346 0.205628 1.031304
H 13.068813 2.015477 5.459771
H 12.832292 4.597295 7.915319
H 11.513232 6.943255 6.345712
H 10.802257 6.735440 3.365697
H 11.270006 4.658504 2.581086
H 9.640972 2.192792 4.001786
H 7.968394 0.659981 2.760902
C 34.287381 -0.701023 0.466694
C 33.596836 0.344823 1.396204
C 34.245929 1.268870 2.179211
C 33.249311 2.012155 2.860845
C 32.024144 1.510545 2.481203
N 32.246842 0.520169 1.555227
C 30.600898 1.959463 3.022693
C 30.545941 2.902431 4.173752
C 29.979417 4.176629 3.973838
C 29.918440 5.085776 5.021275
O 29.363056 6.324671 4.867823
C 30.439071 4.749000 6.261541
O 30.391828 5.651727 7.291789
C 31.025881 3.501976 6.464419
O 31.562219 3.203926 7.685866
C 31.079001 2.570799 5.431403
C 29.470830 1.516329 2.400565
C 28.150338 1.770449 2.939135
C 27.252178 1.225932 2.127604
N 29.288059 0.785882 1.255848
C 27.950599 0.606747 1.019854
C 27.287903 -0.000908 -0.000635
C 28.080623 -0.606090 -1.234668
C 27.589884 -0.779749 -2.514087
C 28.606193 -1.395005 -3.288050
C 29.697941 -1.563427 -2.463663
N 29.383941 -1.041151 -1.229478
C 31.083086 -2.225475 -2.851669
C 31.160596 -2.995011 -4.113556
C 30.687197 -4.315111 -4.192108
C 30.774625 -4.995962 -5.396584
O 30.324368 -6.282337 -5.494776
C 31.319244 -4.374803 -6.514275
O 31.398207 -5.067257 -7.695084
C 31.775733 -3.062919 -6.445073
O 32.290842 -2.505941 -7.583251
C 31.701123 -2.365595 -5.250178
C 32.174421 -2.017473 -2.066981
C 33.461322 -2.638950 -2.330474
C 34.323857 -2.226126 -1.406708
C 33.625550 -1.314506 -0.532852
N 32.332153 -1.250924 -0.947770
H 35.338078 -0.914021 0.627232
H 35.315553 1.397148 2.250514
H 33.410401 2.817291 3.562089
H 31.520569 0.026769 1.046202
H 29.597491 4.418980 2.982844
H 29.049098 6.361461 3.950868
H 29.905938 6.399664 6.903629
H 31.320731 3.973561 8.229277
H 31.541004 1.598890 5.585878
H 27.922283 2.276101 3.859383
H 26.192280 1.249063 2.293472
H 26.605002 -0.497875 -2.858214
H 28.544511 -1.681208 -4.327686
H 30.042233 -0.948938 -0.457575
H 30.257765 -4.787401 -3.312934
H 30.494286 -6.522876 -6.424786
H 31.813346 -4.418648 -8.306120
H 32.524321 -1.584196 -7.362956
H 32.056572 -1.341354 -5.156079
H 33.685606 -3.331177 -3.121692
H 35.358184 -2.510965 -1.328216
C 17.164691 0.014294 0.009999
C 18.622917 -0.007543 -0.007875
C 19.756845 -0.028296 -0.009366
C 21.118227 -0.040886 -0.011557
C 22.392446 -0.030580 -0.016322
C 23.580908 -0.011782 -0.022478
C 24.933269 0.013003 -0.006610
C 26.033536 0.014294 0.009999
