 xtb: 6.5.1 (b24c23e)
          07302206143D

124143  0     0  0            999 V2000
   13.0163   -0.0341   -0.0780 Ni  0  0  0  0  0  0  0  0  0  0  0  0
    9.6299   -0.0813   -0.2895 C   0  0  0  0  0  0  0  0  0  0  0  0
   10.2945   -1.2898   -0.2817 C   0  0  0  0  0  0  0  0  0  0  0  0
    9.6270   -2.5546   -0.3266 C   0  0  0  0  0  0  0  0  0  0  0  0
   10.5802   -3.5018   -0.1649 C   0  0  0  0  0  0  0  0  0  0  0  0
   11.8329   -2.8153   -0.0441 C   0  0  0  0  0  0  0  0  0  0  0  0
   11.6481   -1.4578   -0.1279 N   0  0  0  0  0  0  0  0  0  0  0  0
   13.0451   -3.4521    0.1894 C   0  0  0  0  0  0  0  0  0  0  0  0
   13.0588   -4.9291    0.3358 C   0  0  0  0  0  0  0  0  0  0  0  0
   12.7187   -5.7523   -0.7372 C   0  0  0  0  0  0  0  0  0  0  0  0
   12.7335   -7.1323   -0.6024 C   0  0  0  0  0  0  0  0  0  0  0  0
   13.0854   -7.7036    0.6181 C   0  0  0  0  0  0  0  0  0  0  0  0
   13.1093   -9.0499    0.7950 O   0  0  0  0  0  0  0  0  0  0  0  0
   13.4259   -6.8913    1.6982 C   0  0  0  0  0  0  0  0  0  0  0  0
   13.4150   -5.5153    1.5521 C   0  0  0  0  0  0  0  0  0  0  0  0
   14.2493   -2.7665    0.2707 C   0  0  0  0  0  0  0  0  0  0  0  0
   15.5171   -3.4127    0.4270 C   0  0  0  0  0  0  0  0  0  0  0  0
   16.4631   -2.4483    0.3292 C   0  0  0  0  0  0  0  0  0  0  0  0
   14.4188   -1.4105    0.0986 N   0  0  0  0  0  0  0  0  0  0  0  0
   15.7722   -1.2163    0.1192 C   0  0  0  0  0  0  0  0  0  0  0  0
   16.4291    0.0021   -0.0780 C   0  0  0  0  0  0  0  0  0  0  0  0
   15.7452    1.2128   -0.2200 C   0  0  0  0  0  0  0  0  0  0  0  0
   16.4075    2.4665   -0.3891 C   0  0  0  0  0  0  0  0  0  0  0  0
   15.4439    3.4187   -0.3834 C   0  0  0  0  0  0  0  0  0  0  0  0
   14.1941    2.7422   -0.2127 C   0  0  0  0  0  0  0  0  0  0  0  0
   14.3898    1.3811   -0.1429 N   0  0  0  0  0  0  0  0  0  0  0  0
   12.9711    3.3949   -0.1283 C   0  0  0  0  0  0  0  0  0  0  0  0
   12.9570    4.8775   -0.1273 C   0  0  0  0  0  0  0  0  0  0  0  0
   13.5895    5.5913    0.8935 C   0  0  0  0  0  0  0  0  0  0  0  0
   13.5765    6.9747    0.9037 C   0  0  0  0  0  0  0  0  0  0  0  0
   12.9325    7.6676   -0.1199 C   0  0  0  0  0  0  0  0  0  0  0  0
   12.9412    9.0248   -0.0807 O   0  0  0  0  0  0  0  0  0  0  0  0
   12.3032    6.9693   -1.1478 C   0  0  0  0  0  0  0  0  0  0  0  0
   12.3153    5.5831   -1.1456 C   0  0  0  0  0  0  0  0  0  0  0  0
   11.7618    2.7136   -0.0705 C   0  0  0  0  0  0  0  0  0  0  0  0
   10.4833    3.3581    0.0036 C   0  0  0  0  0  0  0  0  0  0  0  0
    9.5473    2.3835   -0.0756 C   0  0  0  0  0  0  0  0  0  0  0  0
   10.2539    1.1431   -0.1700 C   0  0  0  0  0  0  0  0  0  0  0  0
   11.6100    1.3508   -0.1385 N   0  0  0  0  0  0  0  0  0  0  0  0
    8.5486   -0.0961   -0.3612 H   0  0  0  0  0  0  0  0  0  0  0  0
    8.5626   -2.6799   -0.4461 H   0  0  0  0  0  0  0  0  0  0  0  0
   10.4570   -4.5717   -0.1195 H   0  0  0  0  0  0  0  0  0  0  0  0
   12.4563   -5.3087   -1.6912 H   0  0  0  0  0  0  0  0  0  0  0  0
   12.4743   -7.7686   -1.4418 H   0  0  0  0  0  0  0  0  0  0  0  0
   12.8580   -9.5161   -0.0136 H   0  0  0  0  0  0  0  0  0  0  0  0
   13.6950   -7.3495    2.6418 H   0  0  0  0  0  0  0  0  0  0  0  0
   13.6711   -4.8824    2.3944 H   0  0  0  0  0  0  0  0  0  0  0  0
   15.6558   -4.4716    0.5714 H   0  0  0  0  0  0  0  0  0  0  0  0
   17.5351   -2.5472    0.3869 H   0  0  0  0  0  0  0  0  0  0  0  0
   17.4738    2.5865   -0.4926 H   0  0  0  0  0  0  0  0  0  0  0  0
   15.5580    4.4844   -0.4960 H   0  0  0  0  0  0  0  0  0  0  0  0
   14.0814    5.0520    1.6953 H   0  0  0  0  0  0  0  0  0  0  0  0
   14.0596    7.5307    1.6976 H   0  0  0  0  0  0  0  0  0  0  0  0
   12.4672    9.4023   -0.8338 H   0  0  0  0  0  0  0  0  0  0  0  0
   11.8083    7.5126   -1.9456 H   0  0  0  0  0  0  0  0  0  0  0  0
   11.8368    5.0411   -1.9538 H   0  0  0  0  0  0  0  0  0  0  0  0
   10.3335    4.4207    0.1052 H   0  0  0  0  0  0  0  0  0  0  0  0
    8.4728    2.4752   -0.0617 H   0  0  0  0  0  0  0  0  0  0  0  0
   31.5846    0.0197   -0.0815 Ni  0  0  0  0  0  0  0  0  0  0  0  0
   34.9713    0.0370   -0.2941 C   0  0  0  0  0  0  0  0  0  0  0  0
   34.3067    1.2341   -0.4595 C   0  0  0  0  0  0  0  0  0  0  0  0
   34.9742    2.4798   -0.6837 C   0  0  0  0  0  0  0  0  0  0  0  0
   34.0207    3.4400   -0.6610 C   0  0  0  0  0  0  0  0  0  0  0  0
   32.7678    2.7775   -0.4451 C   0  0  0  0  0  0  0  0  0  0  0  0
   32.9529    1.4220   -0.3333 N   0  0  0  0  0  0  0  0  0  0  0  0
   31.5552    3.4407   -0.3076 C   0  0  0  0  0  0  0  0  0  0  0  0
   31.5407    4.9235   -0.3753 C   0  0  0  0  0  0  0  0  0  0  0  0
   31.8806    5.5838   -1.5556 C   0  0  0  0  0  0  0  0  0  0  0  0
   31.8643    6.9688   -1.6210 C   0  0  0  0  0  0  0  0  0  0  0  0
   31.5111    7.7096   -0.4956 C   0  0  0  0  0  0  0  0  0  0  0  0
   31.4854    9.0673   -0.5146 O   0  0  0  0  0  0  0  0  0  0  0  0
   31.1710    7.0610    0.6901 C   0  0  0  0  0  0  0  0  0  0  0  0
   31.1833    5.6783    0.7438 C   0  0  0  0  0  0  0  0  0  0  0  0
   30.3510    2.7736   -0.1304 C   0  0  0  0  0  0  0  0  0  0  0  0
   29.0830    3.4352   -0.0702 C   0  0  0  0  0  0  0  0  0  0  0  0
   28.1371    2.4666   -0.0289 C   0  0  0  0  0  0  0  0  0  0  0  0
   30.1818    1.4068   -0.1055 N   0  0  0  0  0  0  0  0  0  0  0  0
   28.8283    1.2174   -0.0582 C   0  0  0  0  0  0  0  0  0  0  0  0
   28.1716   -0.0168   -0.0774 C   0  0  0  0  0  0  0  0  0  0  0  0
   28.8556   -1.2352   -0.0432 C   0  0  0  0  0  0  0  0  0  0  0  0
   28.1934   -2.5003   -0.0298 C   0  0  0  0  0  0  0  0  0  0  0  0
   29.1572   -3.4417    0.1125 C   0  0  0  0  0  0  0  0  0  0  0  0
   30.4069   -2.7475    0.1835 C   0  0  0  0  0  0  0  0  0  0  0  0
   30.2110   -1.3906    0.0569 N   0  0  0  0  0  0  0  0  0  0  0  0
   31.6301   -3.3812    0.3598 C   0  0  0  0  0  0  0  0  0  0  0  0
   31.6449   -4.8484    0.5728 C   0  0  0  0  0  0  0  0  0  0  0  0
   31.0153   -5.4089    1.6867 C   0  0  0  0  0  0  0  0  0  0  0  0
   31.0299   -6.7766    1.8952 C   0  0  0  0  0  0  0  0  0  0  0  0
   31.6725   -7.6085    0.9800 C   0  0  0  0  0  0  0  0  0  0  0  0
   31.6656   -8.9461    1.2135 O   0  0  0  0  0  0  0  0  0  0  0  0
   32.2989   -7.0643   -0.1388 C   0  0  0  0  0  0  0  0  0  0  0  0
   32.2854   -5.6921   -0.3353 C   0  0  0  0  0  0  0  0  0  0  0  0
   32.8393   -2.6984    0.3193 C   0  0  0  0  0  0  0  0  0  0  0  0
   34.1178   -3.3258    0.4849 C   0  0  0  0  0  0  0  0  0  0  0  0
   35.0538   -2.3722    0.2682 C   0  0  0  0  0  0  0  0  0  0  0  0
   34.3472   -1.1580   -0.0021 C   0  0  0  0  0  0  0  0  0  0  0  0
   32.9911   -1.3592    0.0578 N   0  0  0  0  0  0  0  0  0  0  0  0
   36.0527    0.0416   -0.3660 H   0  0  0  0  0  0  0  0  0  0  0  0
   36.0388    2.5870   -0.8182 H   0  0  0  0  0  0  0  0  0  0  0  0
   34.1435    4.5054   -0.7692 H   0  0  0  0  0  0  0  0  0  0  0  0
   32.1441    5.0077   -2.4356 H   0  0  0  0  0  0  0  0  0  0  0  0
   32.1230    7.4778   -2.5432 H   0  0  0  0  0  0  0  0  0  0  0  0
   31.7365    9.4125   -1.3818 H   0  0  0  0  0  0  0  0  0  0  0  0
   30.9009    7.6500    1.5578 H   0  0  0  0  0  0  0  0  0  0  0  0
   30.9276    5.1731    1.6683 H   0  0  0  0  0  0  0  0  0  0  0  0
   28.9440    4.5039   -0.0802 H   0  0  0  0  0  0  0  0  0  0  0  0
   27.0651    2.5726    0.0129 H   0  0  0  0  0  0  0  0  0  0  0  0
   27.1271   -2.6340   -0.1144 H   0  0  0  0  0  0  0  0  0  0  0  0
   29.0432   -4.5125    0.1547 H   0  0  0  0  0  0  0  0  0  0  0  0
   30.5245   -4.7606    2.4040 H   0  0  0  0  0  0  0  0  0  0  0  0
   30.5492   -7.2134    2.7617 H   0  0  0  0  0  0  0  0  0  0  0  0
   32.1383   -9.4273    0.5211 H   0  0  0  0  0  0  0  0  0  0  0  0
   32.7929   -7.7160   -0.8515 H   0  0  0  0  0  0  0  0  0  0  0  0
   32.7618   -5.2711   -1.2137 H   0  0  0  0  0  0  0  0  0  0  0  0
   34.2676   -4.3631    0.7366 H   0  0  0  0  0  0  0  0  0  0  0  0
   36.1283   -2.4609    0.2956 H   0  0  0  0  0  0  0  0  0  0  0  0
   17.8335    0.0113   -0.1059 C   0  0  0  0  0  0  0  0  0  0  0  0
   19.0576    0.0072   -0.1274 C   0  0  0  0  0  0  0  0  0  0  0  0
   20.4008    0.0016   -0.1421 C   0  0  0  0  0  0  0  0  0  0  0  0
   21.6312   -0.0080   -0.1474 C   0  0  0  0  0  0  0  0  0  0  0  0
   22.9696   -0.0165   -0.1464 C   0  0  0  0  0  0  0  0  0  0  0  0
   24.2000   -0.0265   -0.1394 C   0  0  0  0  0  0  0  0  0  0  0  0
   25.5431   -0.0290   -0.1247 C   0  0  0  0  0  0  0  0  0  0  0  0
   26.7672   -0.0298   -0.1043 C   0  0  0  0  0  0  0  0  0  0  0  0
  2  3  4  0  0  0  0
  3  4  4  0  0  0  0
  4  5  2  0  0  0  0
  5  6  4  0  0  0  0
  1  7  1  0  0  0  0
  3  7  4  0  0  0  0
  6  7  4  0  0  0  0
  6  8  4  0  0  0  0
  8  9  1  0  0  0  0
  9 10  4  0  0  0  0
 10 11  4  0  0  0  0
 11 12  4  0  0  0  0
 12 13  1  0  0  0  0
 12 14  4  0  0  0  0
  9 15  4  0  0  0  0
 14 15  4  0  0  0  0
  8 16  4  0  0  0  0
 16 17  4  0  0  0  0
 17 18  2  0  0  0  0
  1 19  1  0  0  0  0
 16 19  4  0  0  0  0
 18 20  4  0  0  0  0
 19 20  4  0  0  0  0
 20 21  4  0  0  0  0
 21 22  4  0  0  0  0
 22 23  4  0  0  0  0
 23 24  2  0  0  0  0
 24 25  4  0  0  0  0
  1 26  1  0  0  0  0
 22 26  4  0  0  0  0
 25 26  4  0  0  0  0
 25 27  4  0  0  0  0
 27 28  1  0  0  0  0
 28 29  4  0  0  0  0
 29 30  4  0  0  0  0
 30 31  4  0  0  0  0
 31 32  1  0  0  0  0
 31 33  4  0  0  0  0
 28 34  4  0  0  0  0
 33 34  4  0  0  0  0
 27 35  4  0  0  0  0
 35 36  4  0  0  0  0
 36 37  2  0  0  0  0
  2 38  4  0  0  0  0
 37 38  4  0  0  0  0
  1 39  1  0  0  0  0
 35 39  4  0  0  0  0
 38 39  4  0  0  0  0
  2 40  1  0  0  0  0
  4 41  1  0  0  0  0
  5 42  1  0  0  0  0
 10 43  1  0  0  0  0
 11 44  1  0  0  0  0
 13 45  1  0  0  0  0
 14 46  1  0  0  0  0
 15 47  1  0  0  0  0
 17 48  1  0  0  0  0
 18 49  1  0  0  0  0
 23 50  1  0  0  0  0
 24 51  1  0  0  0  0
 29 52  1  0  0  0  0
 30 53  1  0  0  0  0
 32 54  1  0  0  0  0
 33 55  1  0  0  0  0
 34 56  1  0  0  0  0
 36 57  1  0  0  0  0
 37 58  1  0  0  0  0
 60 61  4  0  0  0  0
 61 62  4  0  0  0  0
 62 63  2  0  0  0  0
 63 64  4  0  0  0  0
 59 65  1  0  0  0  0
 61 65  4  0  0  0  0
 64 65  4  0  0  0  0
 64 66  4  0  0  0  0
 66 67  1  0  0  0  0
 67 68  4  0  0  0  0
 68 69  4  0  0  0  0
 69 70  4  0  0  0  0
 70 71  1  0  0  0  0
 70 72  4  0  0  0  0
 67 73  4  0  0  0  0
 72 73  4  0  0  0  0
 66 74  4  0  0  0  0
 74 75  4  0  0  0  0
 75 76  2  0  0  0  0
 59 77  1  0  0  0  0
 74 77  4  0  0  0  0
 76 78  4  0  0  0  0
 77 78  4  0  0  0  0
 78 79  4  0  0  0  0
 79 80  4  0  0  0  0
 80 81  4  0  0  0  0
 81 82  2  0  0  0  0
 82 83  4  0  0  0  0
 59 84  1  0  0  0  0
 80 84  4  0  0  0  0
 83 84  4  0  0  0  0
 83 85  4  0  0  0  0
 85 86  1  0  0  0  0
 86 87  4  0  0  0  0
 87 88  4  0  0  0  0
 88 89  4  0  0  0  0
 89 90  1  0  0  0  0
 89 91  4  0  0  0  0
 86 92  4  0  0  0  0
 91 92  4  0  0  0  0
 85 93  4  0  0  0  0
 93 94  4  0  0  0  0
 94 95  2  0  0  0  0
 60 96  4  0  0  0  0
 95 96  4  0  0  0  0
 59 97  1  0  0  0  0
 93 97  4  0  0  0  0
 96 97  4  0  0  0  0
 60 98  1  0  0  0  0
 62 99  1  0  0  0  0
 63100  1  0  0  0  0
 68101  1  0  0  0  0
 69102  1  0  0  0  0
 71103  1  0  0  0  0
 72104  1  0  0  0  0
 73105  1  0  0  0  0
 75106  1  0  0  0  0
 76107  1  0  0  0  0
 81108  1  0  0  0  0
 82109  1  0  0  0  0
 87110  1  0  0  0  0
 88111  1  0  0  0  0
 90112  1  0  0  0  0
 91113  1  0  0  0  0
 92114  1  0  0  0  0
 94115  1  0  0  0  0
 95116  1  0  0  0  0
 21117  4  0  0  0  0
117118  3  0  0  0  0
118119  4  0  0  0  0
119120  3  0  0  0  0
120121  4  0  0  0  0
121122  3  0  0  0  0
122123  4  0  0  0  0
 79124  4  0  0  0  0
123124  3  0  0  0  0
M  END
