382

C 72.678696 0.047025 0.003954
C 73.403550 -1.006909 0.895238
C 72.788099 -1.994085 1.631323
C 73.809526 -2.698223 2.319116
C 75.015203 -2.110772 1.985668
N 74.758223 -1.107257 1.085784
C 76.443257 -2.496133 2.555936
C 76.492758 -3.443420 3.694691
C 76.742145 -4.801819 3.476349
C 76.794752 -5.692411 4.552785
C 76.640199 -5.232108 5.863277
N 76.601541 -6.143327 6.933344
C 76.316612 -3.887576 6.072135
C 76.265242 -2.993257 4.998610
C 77.571906 -1.939112 2.038297
C 78.881201 -2.219492 2.591039
C 79.782728 -1.523134 1.908880
N 77.764945 -1.061487 1.002928
C 79.099110 -0.771596 0.874717
C 79.769016 0.033364 0.006881
C 78.994484 0.813397 -1.139661
C 79.548864 1.306558 -2.304528
C 78.523809 1.974006 -3.018691
C 77.367110 1.858055 -2.278577
N 77.653346 1.112533 -1.158587
C 75.950061 2.460899 -2.658240
C 75.900280 3.542662 -3.666542
C 75.680464 3.242753 -5.014637
C 75.631391 4.265222 -5.966483
C 75.754529 5.602348 -5.579134
N 75.794333 6.618492 -6.550068
C 76.044517 5.893234 -4.242307
C 76.096345 4.873242 -3.286966
C 74.827892 1.985929 -2.057596
C 73.502623 2.498388 -2.358452
C 72.619045 1.827636 -1.625669
C 73.344271 0.868404 -0.829505
N 74.666731 1.008817 -1.114728
H 71.599694 0.112702 0.073218
H 71.725437 -2.178237 1.678540
H 73.677507 -3.527157 2.999302
H 75.461993 -0.529373 0.632825
H 76.889972 -5.154946 2.459091
H 76.968444 -6.744299 4.351117
H 76.830014 -5.700888 7.817898
H 77.167240 -6.966846 6.753678
H 76.110452 -3.514375 7.070073
H 76.040742 -1.941647 5.164849
H 79.097264 -2.867767 3.421110
H 80.838927 -1.536430 2.105155
H 80.580327 1.210422 -2.606380
H 78.620189 2.484500 -3.964934
H 76.964624 0.795816 -0.481056
H 75.554930 2.204252 -5.311510
H 75.487095 4.000602 -7.008434
H 75.247126 6.381930 -7.370460
H 75.543595 7.522492 -6.163976
H 76.224157 6.914910 -3.923590
H 76.294447 5.102764 -2.242167
H 73.270985 3.284837 -3.053761
H 71.554027 1.971119 -1.621434
C 152.522230 0.033645 0.020849
C 151.797375 0.659822 -1.209218
C 152.412826 1.150218 -2.338753
C 151.391399 1.658439 -3.181714
C 150.185723 1.468415 -2.533503
N 150.442702 0.822317 -1.350545
C 148.757669 1.935252 -3.039241
C 148.708167 2.826750 -4.222182
C 148.458781 2.303064 -5.494453
C 148.406174 3.146885 -6.607931
C 148.560727 4.527970 -6.460042
N 148.599385 5.360868 -7.592140
C 148.884313 5.039249 -5.199097
C 148.935684 4.199114 -4.082658
C 147.629019 1.558964 -2.378462
C 146.319724 2.032788 -2.777996
C 145.418197 1.528271 -1.943900
N 147.435981 0.752148 -1.287013
C 146.101815 0.693747 -0.975461
C 145.431909 0.033364 0.006881
C 146.206442 -0.904023 1.028797
C 145.652061 -1.924959 1.775667
C 146.677116 -2.467252 2.588952
C 147.833815 -1.773375 2.306557
N 147.547579 -0.853928 1.324315
C 149.250864 -2.004858 2.980337
C 149.300646 -2.738568 4.264297
C 149.520461 -4.119519 4.281151
C 149.569534 -4.811856 5.494462
C 149.446396 -4.128528 6.707314
N 149.406592 -4.840895 7.918840
C 149.156408 -2.760614 6.684257
C 149.104581 -2.064307 5.472557
C 150.373033 -1.528978 2.380414
C 151.698302 -1.704454 2.948161
C 152.581881 -1.144793 2.127394
C 151.856655 -0.589514 1.011298
N 150.534195 -0.834992 1.213311
H 153.601232 0.116110 0.068914
H 153.475488 1.153999 -2.528824
H 151.523418 2.130669 -4.144410
H 149.738933 0.513769 -0.684271
H 148.310954 1.231965 -5.605183
H 148.232482 2.709638 -7.585660
H 148.370911 6.323247 -7.364076
H 148.033686 4.997347 -8.352611
H 149.090473 6.096139 -5.064402
H 149.160183 4.601811 -3.097084
H 146.103662 2.692299 -3.599168
H 144.361998 1.716281 -2.001800
H 144.620599 -2.240807 1.751228
H 146.580737 -3.271406 3.302616
H 148.236301 -0.266956 0.860827
H 149.645996 -4.646373 3.338261
H 149.713831 -5.886717 5.475542
H 149.953800 -5.693661 7.876483
H 149.657331 -4.258001 8.710368
H 148.976768 -2.216349 7.605767
H 148.906479 -0.994713 5.456659
H 151.929941 -2.201136 3.872966
H 153.646899 -1.107805 2.266092
C 83.592474 0.046096 0.009406
C 82.340203 0.026915 0.005057
C 84.906142 0.045330 0.011338
C 86.409275 0.026915 0.005057
C 97.726853 0.046096 0.009406
C 96.474582 0.026915 0.005057
C 99.040521 0.045330 0.011338
C 100.543655 0.026915 0.005057
C 111.861232 0.046096 0.009406
C 110.608961 0.026915 0.005057
C 113.174900 0.045330 0.011338
C 114.678034 0.026915 0.005057
C 125.995611 0.046096 0.009406
C 124.743341 0.026915 0.005057
C 127.309279 0.045330 0.011338
C 128.812413 0.026915 0.005057
C 140.129990 0.046096 0.009406
C 138.877720 0.026915 0.005057
C 141.443658 0.045330 0.011338
C 142.946792 0.026915 0.005057
C 87.822666 -0.019203 -0.003919
C 88.615311 -0.605361 1.236712
C 88.106818 -1.415795 2.231542
C 89.143432 -1.628308 3.176115
C 90.254451 -0.947431 2.724646
N 89.944604 -0.392282 1.508289
C 91.644177 -0.816267 3.472427
C 91.638318 -0.908920 4.951103
C 92.097886 -2.062799 5.594873
C 92.089209 -2.144881 6.990607
C 91.659595 -1.062232 7.763108
N 91.566086 -1.183201 9.160447
C 91.130109 0.058410 7.116798
C 91.138368 0.145135 5.721091
C 92.778904 -0.578975 2.762412
C 94.065876 -0.389775 3.399778
C 94.973551 -0.170830 2.454613
N 92.986869 -0.450920 1.416749
C 94.311244 -0.209072 1.166325
C 94.975350 -0.019203 -0.003919
C 94.182692 -0.068845 -1.375115
C 94.690998 -0.421993 -2.608795
C 93.654403 -0.244812 -3.560657
C 92.543579 0.203537 -2.877393
N 92.853531 0.234517 -1.540732
C 91.153885 0.618929 -3.512846
C 91.159566 1.116249 -4.908432
C 91.657190 2.389318 -5.200800
C 91.665050 2.859328 -6.517851
C 91.137519 2.082768 -7.553520
N 91.230786 2.522062 -8.885533
C 90.710259 0.782560 -7.270023
C 90.701900 0.308319 -5.954781
C 90.019182 0.557180 -2.766757
C 88.732192 0.982090 -3.278051
C 87.824493 0.810666 -2.323147
C 88.486804 0.267813 -1.154180
N 89.811232 0.144524 -1.479544
H 87.097354 -1.793934 2.286599
H 89.081105 -2.195470 4.092839
H 90.606587 0.066046 0.888754
H 92.458427 -2.895471 4.994906
H 92.430776 -3.060877 7.461019
H 92.258510 -1.822979 9.534935
H 91.580515 -0.280139 9.622556
H 90.712675 0.881839 7.686825
H 90.749194 1.029506 5.221587
H 94.261316 -0.410093 4.456923
H 96.017791 0.006909 2.635662
H 95.700332 -0.748293 -2.808400
H 93.716582 -0.405046 -4.626668
H 92.191634 0.411934 -0.790711
H 92.044784 3.006223 -4.393159
H 92.080644 3.841510 -6.717354
H 90.539676 2.079881 -9.482103
H 91.214150 3.534100 -8.954705
H 90.370260 0.125206 -8.063302
H 90.343113 -0.693998 -5.731369
H 88.536778 1.379972 -4.257689
H 86.780221 1.045157 -2.419583
C 101.957045 -0.019203 -0.003919
C 102.749690 -0.605361 1.236712
C 102.241197 -1.415795 2.231542
C 103.277811 -1.628308 3.176115
C 104.388831 -0.947431 2.724646
N 104.078983 -0.392282 1.508289
C 105.778556 -0.816267 3.472427
C 105.772697 -0.908920 4.951103
C 106.232265 -2.062799 5.594873
C 106.223588 -2.144881 6.990607
C 105.793975 -1.062232 7.763108
N 105.700465 -1.183201 9.160447
C 105.264488 0.058410 7.116798
C 105.272747 0.145135 5.721091
C 106.913283 -0.578975 2.762412
C 108.200255 -0.389775 3.399778
C 109.107931 -0.170830 2.454613
N 107.121248 -0.450920 1.416749
C 108.445623 -0.209072 1.166325
C 109.109729 -0.019203 -0.003919
C 108.317071 -0.068845 -1.375115
C 108.825377 -0.421993 -2.608795
C 107.788782 -0.244812 -3.560657
C 106.677958 0.203537 -2.877393
N 106.987910 0.234517 -1.540732
C 105.288264 0.618929 -3.512846
C 105.293946 1.116249 -4.908432
C 105.791569 2.389318 -5.200800
C 105.799429 2.859328 -6.517851
C 105.271898 2.082768 -7.553520
N 105.365165 2.522062 -8.885533
C 104.844638 0.782560 -7.270023
C 104.836279 0.308319 -5.954781
C 104.153562 0.557180 -2.766757
C 102.866571 0.982090 -3.278051
C 101.958872 0.810666 -2.323147
C 102.621183 0.267813 -1.154180
N 103.945611 0.144524 -1.479544
H 101.231733 -1.793934 2.286599
H 103.215484 -2.195470 4.092839
H 104.740966 0.066046 0.888754
H 106.592806 -2.895471 4.994906
H 106.565155 -3.060877 7.461019
H 106.392890 -1.822979 9.534935
H 105.714894 -0.280139 9.622556
H 104.847054 0.881839 7.686825
H 104.883573 1.029506 5.221587
H 108.395695 -0.410093 4.456923
H 110.152170 0.006909 2.635662
H 109.834711 -0.748293 -2.808400
H 107.850962 -0.405046 -4.626668
H 106.326013 0.411934 -0.790711
H 106.179164 3.006223 -4.393159
H 106.215023 3.841510 -6.717354
H 104.674055 2.079881 -9.482103
H 105.348529 3.534100 -8.954705
H 104.504640 0.125206 -8.063302
H 104.477493 -0.693998 -5.731369
H 102.671157 1.379972 -4.257689
H 100.914600 1.045157 -2.419583
C 116.091424 -0.019203 -0.003919
C 116.884069 -0.605361 1.236712
C 116.375576 -1.415795 2.231542
C 117.412190 -1.628308 3.176115
C 118.523210 -0.947431 2.724646
N 118.213363 -0.392282 1.508289
C 119.912935 -0.816267 3.472427
C 119.907076 -0.908920 4.951103
C 120.366644 -2.062799 5.594873
C 120.357967 -2.144881 6.990607
C 119.928354 -1.062232 7.763108
N 119.834845 -1.183201 9.160447
C 119.398867 0.058410 7.116798
C 119.407126 0.145135 5.721091
C 121.047662 -0.578975 2.762412
C 122.334634 -0.389775 3.399778
C 123.242310 -0.170830 2.454613
N 121.255627 -0.450920 1.416749
C 122.580003 -0.209072 1.166325
C 123.244108 -0.019203 -0.003919
C 122.451451 -0.068845 -1.375115
C 122.959756 -0.421993 -2.608795
C 121.923161 -0.244812 -3.560657
C 120.812338 0.203537 -2.877393
N 121.122289 0.234517 -1.540732
C 119.422643 0.618929 -3.512846
C 119.428325 1.116249 -4.908432
C 119.925948 2.389318 -5.200800
C 119.933808 2.859328 -6.517851
C 119.406277 2.082768 -7.553520
N 119.499544 2.522062 -8.885533
C 118.979017 0.782560 -7.270023
C 118.970658 0.308319 -5.954781
C 118.287941 0.557180 -2.766757
C 117.000950 0.982090 -3.278051
C 116.093251 0.810666 -2.323147
C 116.755562 0.267813 -1.154180
N 118.079990 0.144524 -1.479544
H 115.366112 -1.793934 2.286599
H 117.349863 -2.195470 4.092839
H 118.875345 0.066046 0.888754
H 120.727185 -2.895471 4.994906
H 120.699534 -3.060877 7.461019
H 120.527269 -1.822979 9.534935
H 119.849273 -0.280139 9.622556
H 118.981433 0.881839 7.686825
H 119.017952 1.029506 5.221587
H 122.530074 -0.410093 4.456923
H 124.286549 0.006909 2.635662
H 123.969090 -0.748293 -2.808400
H 121.985341 -0.405046 -4.626668
H 120.460392 0.411934 -0.790711
H 120.313543 3.006223 -4.393159
H 120.349402 3.841510 -6.717354
H 118.808434 2.079881 -9.482103
H 119.482908 3.534100 -8.954705
H 118.639019 0.125206 -8.063302
H 118.611872 -0.693998 -5.731369
H 116.805536 1.379972 -4.257689
H 115.048979 1.045157 -2.419583
C 130.225803 -0.019203 -0.003919
C 131.018448 -0.605361 1.236712
C 130.509956 -1.415795 2.231542
C 131.546570 -1.628308 3.176115
C 132.657589 -0.947431 2.724646
N 132.347742 -0.392282 1.508289
C 134.047314 -0.816267 3.472427
C 134.041456 -0.908920 4.951103
C 134.501023 -2.062799 5.594873
C 134.492346 -2.144881 6.990607
C 134.062733 -1.062232 7.763108
N 133.969224 -1.183201 9.160447
C 133.533246 0.058410 7.116798
C 133.541505 0.145135 5.721091
C 135.182041 -0.578975 2.762412
C 136.469013 -0.389775 3.399778
C 137.376689 -0.170830 2.454613
N 135.390007 -0.450920 1.416749
C 136.714382 -0.209072 1.166325
C 137.378488 -0.019203 -0.003919
C 136.585830 -0.068845 -1.375115
C 137.094135 -0.421993 -2.608795
C 136.057541 -0.244812 -3.560657
C 134.946717 0.203537 -2.877393
N 135.256668 0.234517 -1.540732
C 133.557023 0.618929 -3.512846
C 133.562704 1.116249 -4.908432
C 134.060328 2.389318 -5.200800
C 134.068188 2.859328 -6.517851
C 133.540657 2.082768 -7.553520
N 133.633924 2.522062 -8.885533
C 133.113396 0.782560 -7.270023
C 133.105037 0.308319 -5.954781
C 132.422320 0.557180 -2.766757
C 131.135329 0.982090 -3.278051
C 130.227631 0.810666 -2.323147
C 130.889941 0.267813 -1.154180
N 132.214370 0.144524 -1.479544
H 129.500491 -1.793934 2.286599
H 131.484242 -2.195470 4.092839
H 133.009724 0.066046 0.888754
H 134.861564 -2.895471 4.994906
H 134.833913 -3.060877 7.461019
H 134.661648 -1.822979 9.534935
H 133.983652 -0.280139 9.622556
H 133.115812 0.881839 7.686825
H 133.152331 1.029506 5.221587
H 136.664453 -0.410093 4.456923
H 138.420928 0.006909 2.635662
H 138.103469 -0.748293 -2.808400
H 136.119720 -0.405046 -4.626668
H 134.594771 0.411934 -0.790711
H 134.447922 3.006223 -4.393159
H 134.483781 3.841510 -6.717354
H 132.942813 2.079881 -9.482103
H 133.617287 3.534100 -8.954705
H 132.773398 0.125206 -8.063302
H 132.746251 -0.693998 -5.731369
H 130.939916 1.379972 -4.257689
H 129.183358 1.045157 -2.419583
