 xtb: 6.5.1 (b24c23e)
          07302207583D

183218  0     0  0            999 V2000
   34.8421   -0.0167   -0.0777 Cu  0  0  0  0  0  0  0  0  0  0  0  0
   31.4360   -0.0295   -0.1412 C   0  0  0  0  0  0  0  0  0  0  0  0
   32.0680   -1.2517   -0.3116 C   0  0  0  0  0  0  0  0  0  0  0  0
   31.3899   -2.5082   -0.4562 C   0  0  0  0  0  0  0  0  0  0  0  0
   32.3459   -3.4579   -0.6033 C   0  0  0  0  0  0  0  0  0  0  0  0
   33.6174   -2.7865   -0.5655 C   0  0  0  0  0  0  0  0  0  0  0  0
   33.4181   -1.4501   -0.3755 N   0  0  0  0  0  0  0  0  0  0  0  0
   34.8620   -3.4089   -0.6923 C   0  0  0  0  0  0  0  0  0  0  0  0
   34.8739   -4.8686   -0.9461 C   0  0  0  0  0  0  0  0  0  0  0  0
   35.4926   -5.7360   -0.0402 C   0  0  0  0  0  0  0  0  0  0  0  0
   35.5002   -7.1004   -0.2657 C   0  0  0  0  0  0  0  0  0  0  0  0
   34.8882   -7.6024   -1.4107 C   0  0  0  0  0  0  0  0  0  0  0  0
   34.8922   -9.0346   -1.6523 N   0  0  0  0  0  0  0  0  0  0  0  0
   34.3457   -9.4333   -2.6485 O   0  0  0  0  0  0  0  0  0  0  0  0
   35.4413   -9.7350   -0.8412 O   0  0  0  0  0  0  0  0  0  0  0  0
   34.2716   -6.7562   -2.3278 C   0  0  0  0  0  0  0  0  0  0  0  0
   34.2651   -5.3938   -2.0901 C   0  0  0  0  0  0  0  0  0  0  0  0
   36.0972   -2.7625   -0.5989 C   0  0  0  0  0  0  0  0  0  0  0  0
   37.3693   -3.3870   -0.8269 C   0  0  0  0  0  0  0  0  0  0  0  0
   38.3171   -2.4323   -0.6498 C   0  0  0  0  0  0  0  0  0  0  0  0
   36.2895   -1.4397   -0.3028 N   0  0  0  0  0  0  0  0  0  0  0  0
   37.6333   -1.2199   -0.3141 C   0  0  0  0  0  0  0  0  0  0  0  0
   38.2728   -0.0016   -0.0266 C   0  0  0  0  0  0  0  0  0  0  0  0
   37.6153    1.2107    0.2443 C   0  0  0  0  0  0  0  0  0  0  0  0
   38.2783    2.4276    0.6044 C   0  0  0  0  0  0  0  0  0  0  0  0
   37.3170    3.3720    0.7633 C   0  0  0  0  0  0  0  0  0  0  0  0
   36.0574    2.7373    0.4969 C   0  0  0  0  0  0  0  0  0  0  0  0
   36.2703    1.4186    0.1968 N   0  0  0  0  0  0  0  0  0  0  0  0
   34.8138    3.3706    0.5613 C   0  0  0  0  0  0  0  0  0  0  0  0
   34.8002    4.8251    0.8441 C   0  0  0  0  0  0  0  0  0  0  0  0
   34.1513    5.3151    1.9818 C   0  0  0  0  0  0  0  0  0  0  0  0
   34.1301    6.6714    2.2505 C   0  0  0  0  0  0  0  0  0  0  0  0
   34.7593    7.5473    1.3706 C   0  0  0  0  0  0  0  0  0  0  0  0
   34.7336    8.9735    1.6442 N   0  0  0  0  0  0  0  0  0  0  0  0
   34.1570    9.3402    2.6358 O   0  0  0  0  0  0  0  0  0  0  0  0
   35.2898    9.7013    0.8626 O   0  0  0  0  0  0  0  0  0  0  0  0
   35.4109    7.0807    0.2326 C   0  0  0  0  0  0  0  0  0  0  0  0
   35.4310    5.7218   -0.0238 C   0  0  0  0  0  0  0  0  0  0  0  0
   33.5797    2.7394    0.3847 C   0  0  0  0  0  0  0  0  0  0  0  0
   32.3026    3.4011    0.3833 C   0  0  0  0  0  0  0  0  0  0  0  0
   31.3600    2.4465    0.1887 C   0  0  0  0  0  0  0  0  0  0  0  0
   32.0524    1.1964    0.0572 C   0  0  0  0  0  0  0  0  0  0  0  0
   33.3977    1.4039    0.1730 N   0  0  0  0  0  0  0  0  0  0  0  0
   30.3512   -0.0333   -0.1619 H   0  0  0  0  0  0  0  0  0  0  0  0
   30.3191   -2.6341   -0.4340 H   0  0  0  0  0  0  0  0  0  0  0  0
   32.2094   -4.5214   -0.7147 H   0  0  0  0  0  0  0  0  0  0  0  0
   35.9543   -5.3337    0.8539 H   0  0  0  0  0  0  0  0  0  0  0  0
   35.9705   -7.7807    0.4340 H   0  0  0  0  0  0  0  0  0  0  0  0
   33.8071   -7.1717   -3.2139 H   0  0  0  0  0  0  0  0  0  0  0  0
   33.7994   -4.7234   -2.8030 H   0  0  0  0  0  0  0  0  0  0  0  0
   37.5149   -4.4176   -1.1072 H   0  0  0  0  0  0  0  0  0  0  0  0
   39.3857   -2.5305   -0.7503 H   0  0  0  0  0  0  0  0  0  0  0  0
   39.3430    2.5351    0.7328 H   0  0  0  0  0  0  0  0  0  0  0  0
   37.4453    4.4021    1.0534 H   0  0  0  0  0  0  0  0  0  0  0  0
   33.6751    4.6215    2.6650 H   0  0  0  0  0  0  0  0  0  0  0  0
   33.6341    7.0595    3.1319 H   0  0  0  0  0  0  0  0  0  0  0  0
   35.8899    7.7839   -0.4380 H   0  0  0  0  0  0  0  0  0  0  0  0
   35.9236    5.3474   -0.9135 H   0  0  0  0  0  0  0  0  0  0  0  0
   32.1539    4.4622    0.5022 H   0  0  0  0  0  0  0  0  0  0  0  0
   30.2899    2.5652    0.1278 H   0  0  0  0  0  0  0  0  0  0  0  0
   56.6851    0.0692   -0.0210 Cu  0  0  0  0  0  0  0  0  0  0  0  0
   60.0932    0.1102   -0.1339 C   0  0  0  0  0  0  0  0  0  0  0  0
   59.4635    1.3053    0.1777 C   0  0  0  0  0  0  0  0  0  0  0  0
   60.1438    2.5267    0.5015 C   0  0  0  0  0  0  0  0  0  0  0  0
   59.1891    3.4605    0.7336 C   0  0  0  0  0  0  0  0  0  0  0  0
   57.9161    2.8202    0.5379 C   0  0  0  0  0  0  0  0  0  0  0  0
   58.1132    1.5095    0.2143 N   0  0  0  0  0  0  0  0  0  0  0  0
   56.6718    3.4411    0.6698 C   0  0  0  0  0  0  0  0  0  0  0  0
   56.6611    4.8908    0.9774 C   0  0  0  0  0  0  0  0  0  0  0  0
   56.0597    5.3580    2.1504 C   0  0  0  0  0  0  0  0  0  0  0  0
   56.0499    6.7089    2.4461 C   0  0  0  0  0  0  0  0  0  0  0  0
   56.6435    7.6023    1.5590 C   0  0  0  0  0  0  0  0  0  0  0  0
   56.6360    9.0221    1.8646 N   0  0  0  0  0  0  0  0  0  0  0  0
   57.1744    9.7634    1.0832 O   0  0  0  0  0  0  0  0  0  0  0  0
   56.0914    9.3704    2.8806 O   0  0  0  0  0  0  0  0  0  0  0  0
   57.2448    7.1586    0.3846 C   0  0  0  0  0  0  0  0  0  0  0  0
   57.2525    5.8052    0.1004 C   0  0  0  0  0  0  0  0  0  0  0  0
   55.4355    2.8045    0.5334 C   0  0  0  0  0  0  0  0  0  0  0  0
   54.1657    3.4705    0.5825 C   0  0  0  0  0  0  0  0  0  0  0  0
   53.2145    2.5200    0.4058 C   0  0  0  0  0  0  0  0  0  0  0  0
   55.2365    1.4676    0.3124 N   0  0  0  0  0  0  0  0  0  0  0  0
   53.8897    1.2692    0.2425 C   0  0  0  0  0  0  0  0  0  0  0  0
   53.2421    0.0321    0.0689 C   0  0  0  0  0  0  0  0  0  0  0  0
   53.9065   -1.1933   -0.1240 C   0  0  0  0  0  0  0  0  0  0  0  0
   53.2511   -2.4606   -0.2317 C   0  0  0  0  0  0  0  0  0  0  0  0
   54.2125   -3.3929   -0.4474 C   0  0  0  0  0  0  0  0  0  0  0  0
   55.4675   -2.6985   -0.4805 C   0  0  0  0  0  0  0  0  0  0  0  0
   55.2514   -1.3635   -0.2642 N   0  0  0  0  0  0  0  0  0  0  0  0
   56.7078   -3.3073   -0.6877 C   0  0  0  0  0  0  0  0  0  0  0  0
   56.7149   -4.7600   -0.9809 C   0  0  0  0  0  0  0  0  0  0  0  0
   57.3838   -5.6490   -0.1340 C   0  0  0  0  0  0  0  0  0  0  0  0
   57.3995   -7.0045   -0.4077 C   0  0  0  0  0  0  0  0  0  0  0  0
   56.7441   -7.4755   -1.5418 C   0  0  0  0  0  0  0  0  0  0  0  0
   56.7648   -8.8970   -1.8391 N   0  0  0  0  0  0  0  0  0  0  0  0
   57.3650   -9.6160   -1.0821 O   0  0  0  0  0  0  0  0  0  0  0  0
   56.1818   -9.2688   -2.8250 O   0  0  0  0  0  0  0  0  0  0  0  0
   56.0713   -6.6079   -2.3973 C   0  0  0  0  0  0  0  0  0  0  0  0
   56.0575   -5.2549   -2.1116 C   0  0  0  0  0  0  0  0  0  0  0  0
   57.9425   -2.6554   -0.6437 C   0  0  0  0  0  0  0  0  0  0  0  0
   59.2146   -3.2666   -0.9210 C   0  0  0  0  0  0  0  0  0  0  0  0
   60.1595   -2.3078   -0.7619 C   0  0  0  0  0  0  0  0  0  0  0  0
   59.4730   -1.1008   -0.3997 C   0  0  0  0  0  0  0  0  0  0  0  0
   58.1287   -1.3378   -0.3431 N   0  0  0  0  0  0  0  0  0  0  0  0
   61.1774    0.1234   -0.1712 H   0  0  0  0  0  0  0  0  0  0  0  0
   61.2153    2.6377    0.5525 H   0  0  0  0  0  0  0  0  0  0  0  0
   59.3274    4.4895    1.0239 H   0  0  0  0  0  0  0  0  0  0  0  0
   55.6125    4.6511    2.8394 H   0  0  0  0  0  0  0  0  0  0  0  0
   55.5917    7.0795    3.3552 H   0  0  0  0  0  0  0  0  0  0  0  0
   57.6957    7.8750   -0.2916 H   0  0  0  0  0  0  0  0  0  0  0  0
   57.7055    5.4489   -0.8175 H   0  0  0  0  0  0  0  0  0  0  0  0
   54.0224    4.5303    0.7160 H   0  0  0  0  0  0  0  0  0  0  0  0
   52.1466    2.6514    0.3815 H   0  0  0  0  0  0  0  0  0  0  0  0
   52.1896   -2.6146   -0.1409 H   0  0  0  0  0  0  0  0  0  0  0  0
   54.0866   -4.4577   -0.5567 H   0  0  0  0  0  0  0  0  0  0  0  0
   57.8804   -5.2711    0.7522 H   0  0  0  0  0  0  0  0  0  0  0  0
   57.9112   -7.7013    0.2451 H   0  0  0  0  0  0  0  0  0  0  0  0
   55.5715   -6.9996   -3.2751 H   0  0  0  0  0  0  0  0  0  0  0  0
   55.5485   -4.5675   -2.7772 H   0  0  0  0  0  0  0  0  0  0  0  0
   59.3583   -4.2945   -1.2125 H   0  0  0  0  0  0  0  0  0  0  0  0
   61.2275   -2.3934   -0.8852 H   0  0  0  0  0  0  0  0  0  0  0  0
   39.6827    0.0031   -0.0070 C   0  0  0  0  0  0  0  0  0  0  0  0
   40.8994    0.0043    0.0087 C   0  0  0  0  0  0  0  0  0  0  0  0
   50.6114    0.0088    0.0853 C   0  0  0  0  0  0  0  0  0  0  0  0
   51.8298    0.0187    0.0853 C   0  0  0  0  0  0  0  0  0  0  0  0
   45.7491    0.0036    0.0419 Cu  0  0  0  0  0  0  0  0  0  0  0  0
   42.3087    0.0048    0.0214 C   0  0  0  0  0  0  0  0  0  0  0  0
   42.9592   -1.2344    0.1567 C   0  0  0  0  0  0  0  0  0  0  0  0
   42.2905   -2.4832    0.3652 C   0  0  0  0  0  0  0  0  0  0  0  0
   43.2469   -3.4458    0.3931 C   0  0  0  0  0  0  0  0  0  0  0  0
   44.5080   -2.7884    0.1991 C   0  0  0  0  0  0  0  0  0  0  0  0
   44.3023   -1.4412    0.0780 N   0  0  0  0  0  0  0  0  0  0  0  0
   45.7481   -3.4304    0.1469 C   0  0  0  0  0  0  0  0  0  0  0  0
   45.7442   -4.9117    0.1766 C   0  0  0  0  0  0  0  0  0  0  0  0
   46.4106   -5.6040    1.1924 C   0  0  0  0  0  0  0  0  0  0  0  0
   46.4072   -6.9866    1.2205 C   0  0  0  0  0  0  0  0  0  0  0  0
   45.7356   -7.6846    0.2210 C   0  0  0  0  0  0  0  0  0  0  0  0
   45.7325   -9.1371    0.2436 N   0  0  0  0  0  0  0  0  0  0  0  0
   45.1366   -9.7065   -0.6337 O   0  0  0  0  0  0  0  0  0  0  0  0
   46.3278   -9.6815    1.1375 O   0  0  0  0  0  0  0  0  0  0  0  0
   45.0668   -7.0153   -0.7996 C   0  0  0  0  0  0  0  0  0  0  0  0
   45.0717   -5.6326   -0.8153 C   0  0  0  0  0  0  0  0  0  0  0  0
   46.9888   -2.7925    0.0648 C   0  0  0  0  0  0  0  0  0  0  0  0
   48.2494   -3.4638   -0.0728 C   0  0  0  0  0  0  0  0  0  0  0  0
   49.2075   -2.5035   -0.0928 C   0  0  0  0  0  0  0  0  0  0  0  0
   47.1988   -1.4402    0.1030 N   0  0  0  0  0  0  0  0  0  0  0  0
   48.5439   -1.2408    0.0225 C   0  0  0  0  0  0  0  0  0  0  0  0
   49.1993    0.0039    0.0790 C   0  0  0  0  0  0  0  0  0  0  0  0
   48.5399    1.2471    0.1202 C   0  0  0  0  0  0  0  0  0  0  0  0
   49.1996    2.5110    0.2421 C   0  0  0  0  0  0  0  0  0  0  0  0
   48.2427    3.4709    0.1849 C   0  0  0  0  0  0  0  0  0  0  0  0
   46.9866    2.7975    0.0216 C   0  0  0  0  0  0  0  0  0  0  0  0
   47.1972    1.4451    0.0050 N   0  0  0  0  0  0  0  0  0  0  0  0
   45.7499    3.4364   -0.1008 C   0  0  0  0  0  0  0  0  0  0  0  0
   45.7574    4.9158   -0.1823 C   0  0  0  0  0  0  0  0  0  0  0  0
   46.4470    5.5593   -1.2150 C   0  0  0  0  0  0  0  0  0  0  0  0
   46.4551    6.9392   -1.3027 C   0  0  0  0  0  0  0  0  0  0  0  0
   45.7721    7.6840   -0.3454 C   0  0  0  0  0  0  0  0  0  0  0  0
   45.7784    9.1340   -0.4323 N   0  0  0  0  0  0  0  0  0  0  0  0
   46.3871    9.6346   -1.3428 O   0  0  0  0  0  0  0  0  0  0  0  0
   45.1734    9.7452    0.4101 O   0  0  0  0  0  0  0  0  0  0  0  0
   45.0830    7.0638    0.6928 C   0  0  0  0  0  0  0  0  0  0  0  0
   45.0764    5.6828    0.7680 C   0  0  0  0  0  0  0  0  0  0  0  0
   44.5095    2.7968   -0.1576 C   0  0  0  0  0  0  0  0  0  0  0  0
   43.2505    3.4523   -0.3708 C   0  0  0  0  0  0  0  0  0  0  0  0
   42.2932    2.4909   -0.3368 C   0  0  0  0  0  0  0  0  0  0  0  0
   42.9599    1.2440   -0.1100 C   0  0  0  0  0  0  0  0  0  0  0  0
   44.3019    1.4514   -0.0203 N   0  0  0  0  0  0  0  0  0  0  0  0
   41.2263   -2.6002    0.4896 H   0  0  0  0  0  0  0  0  0  0  0  0
   43.1144   -4.5037    0.5515 H   0  0  0  0  0  0  0  0  0  0  0  0
   46.9191   -5.0494    1.9724 H   0  0  0  0  0  0  0  0  0  0  0  0
   46.9162   -7.5317    2.0062 H   0  0  0  0  0  0  0  0  0  0  0  0
   44.5540   -7.5820   -1.5675 H   0  0  0  0  0  0  0  0  0  0  0  0
   44.5651   -5.0997   -1.6115 H   0  0  0  0  0  0  0  0  0  0  0  0
   48.3822   -4.5298   -0.1604 H   0  0  0  0  0  0  0  0  0  0  0  0
   50.2719   -2.6342   -0.1882 H   0  0  0  0  0  0  0  0  0  0  0  0
   50.2604    2.6429    0.3669 H   0  0  0  0  0  0  0  0  0  0  0  0
   48.3724    4.5377    0.2655 H   0  0  0  0  0  0  0  0  0  0  0  0
   46.9647    4.9676   -1.9609 H   0  0  0  0  0  0  0  0  0  0  0  0
   46.9808    7.4461   -2.1028 H   0  0  0  0  0  0  0  0  0  0  0  0
   44.5637    7.6669    1.4279 H   0  0  0  0  0  0  0  0  0  0  0  0
   44.5541    5.1886    1.5788 H   0  0  0  0  0  0  0  0  0  0  0  0
   43.1197    4.5083   -0.5430 H   0  0  0  0  0  0  0  0  0  0  0  0
   41.2298    2.6070   -0.4692 H   0  0  0  0  0  0  0  0  0  0  0  0
  2  3  4  0  0  0  0
  3  4  1  0  0  0  0
  4  5  2  0  0  0  0
  5  6  4  0  0  0  0
  1  7  1  0  0  0  0
  3  7  4  0  0  0  0
  6  7  4  0  0  0  0
  6  8  4  0  0  0  0
  8  9  1  0  0  0  0
  9 10  4  0  0  0  0
 10 11  4  0  0  0  0
 11 12  4  0  0  0  0
 12 13  1  0  0  0  0
 13 14  2  0  0  0  0
 13 15  2  0  0  0  0
 14 15  1  0  0  0  0
 12 16  4  0  0  0  0
  9 17  4  0  0  0  0
 16 17  4  0  0  0  0
  8 18  4  0  0  0  0
 18 19  4  0  0  0  0
 19 20  2  0  0  0  0
  1 21  1  0  0  0  0
 18 21  4  0  0  0  0
 20 22  4  0  0  0  0
 21 22  4  0  0  0  0
 22 23  4  0  0  0  0
 23 24  4  0  0  0  0
 24 25  4  0  0  0  0
 25 26  2  0  0  0  0
 26 27  4  0  0  0  0
  1 28  1  0  0  0  0
 24 28  4  0  0  0  0
 27 28  4  0  0  0  0
 27 29  4  0  0  0  0
 29 30  1  0  0  0  0
 30 31  4  0  0  0  0
 31 32  4  0  0  0  0
 32 33  4  0  0  0  0
 33 34  1  0  0  0  0
 34 35  2  0  0  0  0
 34 36  2  0  0  0  0
 35 36  1  0  0  0  0
 33 37  4  0  0  0  0
 30 38  4  0  0  0  0
 37 38  4  0  0  0  0
 29 39  4  0  0  0  0
 39 40  4  0  0  0  0
 40 41  2  0  0  0  0
  2 42  4  0  0  0  0
 41 42  1  0  0  0  0
  1 43  1  0  0  0  0
 39 43  4  0  0  0  0
 42 43  4  0  0  0  0
  2 44  1  0  0  0  0
  4 45  1  0  0  0  0
  5 46  1  0  0  0  0
 10 47  1  0  0  0  0
 11 48  1  0  0  0  0
 16 49  1  0  0  0  0
 17 50  1  0  0  0  0
 19 51  1  0  0  0  0
 20 52  1  0  0  0  0
 25 53  1  0  0  0  0
 26 54  1  0  0  0  0
 31 55  1  0  0  0  0
 32 56  1  0  0  0  0
 37 57  1  0  0  0  0
 38 58  1  0  0  0  0
 40 59  1  0  0  0  0
 41 60  1  0  0  0  0
 62 63  4  0  0  0  0
 63 64  1  0  0  0  0
 64 65  2  0  0  0  0
 65 66  4  0  0  0  0
 61 67  1  0  0  0  0
 63 67  4  0  0  0  0
 66 67  4  0  0  0  0
 66 68  4  0  0  0  0
 68 69  1  0  0  0  0
 69 70  4  0  0  0  0
 70 71  4  0  0  0  0
 71 72  4  0  0  0  0
 72 73  1  0  0  0  0
 73 74  2  0  0  0  0
 73 75  2  0  0  0  0
 74 75  1  0  0  0  0
 72 76  4  0  0  0  0
 69 77  4  0  0  0  0
 76 77  4  0  0  0  0
 68 78  4  0  0  0  0
 78 79  4  0  0  0  0
 79 80  2  0  0  0  0
 61 81  1  0  0  0  0
 78 81  4  0  0  0  0
 80 82  4  0  0  0  0
 81 82  4  0  0  0  0
 82 83  4  0  0  0  0
 83 84  4  0  0  0  0
 84 85  4  0  0  0  0
 85 86  2  0  0  0  0
 86 87  4  0  0  0  0
 61 88  1  0  0  0  0
 84 88  4  0  0  0  0
 87 88  4  0  0  0  0
 87 89  4  0  0  0  0
 89 90  1  0  0  0  0
 90 91  4  0  0  0  0
 91 92  4  0  0  0  0
 92 93  4  0  0  0  0
 93 94  1  0  0  0  0
 94 95  2  0  0  0  0
 94 96  2  0  0  0  0
 95 96  1  0  0  0  0
 93 97  4  0  0  0  0
 90 98  4  0  0  0  0
 97 98  4  0  0  0  0
 89 99  4  0  0  0  0
 99100  4  0  0  0  0
100101  2  0  0  0  0
 62102  4  0  0  0  0
101102  1  0  0  0  0
 61103  1  0  0  0  0
 99103  4  0  0  0  0
102103  4  0  0  0  0
 62104  1  0  0  0  0
 64105  1  0  0  0  0
 65106  1  0  0  0  0
 70107  1  0  0  0  0
 71108  1  0  0  0  0
 76109  1  0  0  0  0
 77110  1  0  0  0  0
 79111  1  0  0  0  0
 80112  1  0  0  0  0
 85113  1  0  0  0  0
 86114  1  0  0  0  0
 91115  1  0  0  0  0
 92116  1  0  0  0  0
 97117  1  0  0  0  0
 98118  1  0  0  0  0
100119  1  0  0  0  0
101120  1  0  0  0  0
 23121  4  0  0  0  0
121122  3  0  0  0  0
 83124  4  0  0  0  0
123124  3  0  0  0  0
122126  4  0  0  0  0
126127  4  0  0  0  0
127128  4  0  0  0  0
128129  2  0  0  0  0
129130  4  0  0  0  0
125131  1  0  0  0  0
127131  4  0  0  0  0
130131  4  0  0  0  0
130132  4  0  0  0  0
132133  1  0  0  0  0
133134  4  0  0  0  0
134135  4  0  0  0  0
135136  4  0  0  0  0
136137  1  0  0  0  0
137138  2  0  0  0  0
137139  2  0  0  0  0
138139  1  0  0  0  0
136140  4  0  0  0  0
133141  4  0  0  0  0
140141  4  0  0  0  0
132142  4  0  0  0  0
142143  4  0  0  0  0
143144  2  0  0  0  0
125145  1  0  0  0  0
142145  4  0  0  0  0
144146  4  0  0  0  0
145146  4  0  0  0  0
123147  4  0  0  0  0
146147  4  0  0  0  0
147148  4  0  0  0  0
148149  4  0  0  0  0
149150  2  0  0  0  0
150151  4  0  0  0  0
125152  1  0  0  0  0
148152  4  0  0  0  0
151152  4  0  0  0  0
151153  4  0  0  0  0
153154  1  0  0  0  0
154155  4  0  0  0  0
155156  4  0  0  0  0
156157  4  0  0  0  0
157158  1  0  0  0  0
158159  2  0  0  0  0
158160  2  0  0  0  0
159160  1  0  0  0  0
157161  4  0  0  0  0
154162  4  0  0  0  0
161162  4  0  0  0  0
153163  4  0  0  0  0
163164  4  0  0  0  0
164165  2  0  0  0  0
126166  4  0  0  0  0
165166  4  0  0  0  0
125167  1  0  0  0  0
163167  4  0  0  0  0
166167  4  0  0  0  0
128168  1  0  0  0  0
129169  1  0  0  0  0
134170  1  0  0  0  0
135171  1  0  0  0  0
140172  1  0  0  0  0
141173  1  0  0  0  0
143174  1  0  0  0  0
144175  1  0  0  0  0
149176  1  0  0  0  0
150177  1  0  0  0  0
155178  1  0  0  0  0
156179  1  0  0  0  0
161180  1  0  0  0  0
162181  1  0  0  0  0
164182  1  0  0  0  0
165183  1  0  0  0  0
M  END
