 xtb: 6.5.1 (b24c23e)
          07302211213D

228267  0     0  0            999 V2000
   47.0576    0.0043    0.0034 Zn  0  0  0  0  0  0  0  0  0  0  0  0
   43.6425   -0.0116    0.0053 C   0  0  0  0  0  0  0  0  0  0  0  0
   44.2682   -1.2513   -0.0520 C   0  0  0  0  0  0  0  0  0  0  0  0
   43.5908   -2.5175   -0.0663 C   0  0  0  0  0  0  0  0  0  0  0  0
   44.5466   -3.4786   -0.1213 C   0  0  0  0  0  0  0  0  0  0  0  0
   45.8204   -2.8099   -0.1531 C   0  0  0  0  0  0  0  0  0  0  0  0
   45.6164   -1.4620   -0.0979 N   0  0  0  0  0  0  0  0  0  0  0  0
   47.0695   -3.4382   -0.2202 C   0  0  0  0  0  0  0  0  0  0  0  0
   48.3103   -2.7909   -0.2161 C   0  0  0  0  0  0  0  0  0  0  0  0
   49.5803   -3.4427   -0.3715 C   0  0  0  0  0  0  0  0  0  0  0  0
   50.5330   -2.4775   -0.3161 C   0  0  0  0  0  0  0  0  0  0  0  0
   48.5164   -1.4429   -0.0857 N   0  0  0  0  0  0  0  0  0  0  0  0
   49.8598   -1.2273   -0.1263 C   0  0  0  0  0  0  0  0  0  0  0  0
   50.5035    0.0215    0.0034 C   0  0  0  0  0  0  0  0  0  0  0  0
   49.8491    1.2647    0.1305 C   0  0  0  0  0  0  0  0  0  0  0  0
   50.5133    2.5287    0.2462 C   0  0  0  0  0  0  0  0  0  0  0  0
   49.5519    3.4852    0.2975 C   0  0  0  0  0  0  0  0  0  0  0  0
   48.2847    2.8132    0.2298 C   0  0  0  0  0  0  0  0  0  0  0  0
   47.0372    3.4464    0.2290 C   0  0  0  0  0  0  0  0  0  0  0  0
   47.0276    4.9295    0.3175 C   0  0  0  0  0  0  0  0  0  0  0  0
   46.5273    5.6938   -0.7374 C   0  0  0  0  0  0  0  0  0  0  0  0
   46.5194    7.0784   -0.6588 C   0  0  0  0  0  0  0  0  0  0  0  0
   47.0054    7.7159    0.4746 C   0  0  0  0  0  0  0  0  0  0  0  0
   47.5018    6.9624    1.5297 C   0  0  0  0  0  0  0  0  0  0  0  0
   47.5157    5.5777    1.4525 C   0  0  0  0  0  0  0  0  0  0  0  0
   45.7951    2.8063    0.1519 C   0  0  0  0  0  0  0  0  0  0  0  0
   44.5142    3.4603    0.2004 C   0  0  0  0  0  0  0  0  0  0  0  0
   43.5670    2.4913    0.1387 C   0  0  0  0  0  0  0  0  0  0  0  0
   44.2565    1.2340    0.0581 C   0  0  0  0  0  0  0  0  0  0  0  0
   45.6032    1.4583    0.0677 N   0  0  0  0  0  0  0  0  0  0  0  0
   48.5026    1.4644    0.1290 N   0  0  0  0  0  0  0  0  0  0  0  0
   47.0805   -4.9207   -0.2998 C   0  0  0  0  0  0  0  0  0  0  0  0
   46.4849   -5.5810   -1.3752 C   0  0  0  0  0  0  0  0  0  0  0  0
   46.4961   -6.9663   -1.4414 C   0  0  0  0  0  0  0  0  0  0  0  0
   47.0969   -7.7091   -0.4341 C   0  0  0  0  0  0  0  0  0  0  0  0
   47.6910   -7.0600    0.6398 C   0  0  0  0  0  0  0  0  0  0  0  0
   47.6860   -5.6749    0.7067 C   0  0  0  0  0  0  0  0  0  0  0  0
   42.5570   -0.0174    0.0206 H   0  0  0  0  0  0  0  0  0  0  0  0
   42.5199   -2.6433   -0.0308 H   0  0  0  0  0  0  0  0  0  0  0  0
   44.4063   -4.5477   -0.1285 H   0  0  0  0  0  0  0  0  0  0  0  0
   49.7231   -4.5006   -0.5226 H   0  0  0  0  0  0  0  0  0  0  0  0
   51.5994   -2.5968   -0.4110 H   0  0  0  0  0  0  0  0  0  0  0  0
   51.5812    2.6647    0.2820 H   0  0  0  0  0  0  0  0  0  0  0  0
   49.6886    4.5524    0.3665 H   0  0  0  0  0  0  0  0  0  0  0  0
   46.1577    5.1975   -1.6280 H   0  0  0  0  0  0  0  0  0  0  0  0
   46.1330    7.6622   -1.4870 H   0  0  0  0  0  0  0  0  0  0  0  0
   46.9971    8.7983    0.5356 H   0  0  0  0  0  0  0  0  0  0  0  0
   47.8795    7.4556    2.4186 H   0  0  0  0  0  0  0  0  0  0  0  0
   47.8928    4.9906    2.2826 H   0  0  0  0  0  0  0  0  0  0  0  0
   44.3643    4.5249    0.2841 H   0  0  0  0  0  0  0  0  0  0  0  0
   42.4943    2.6054    0.1527 H   0  0  0  0  0  0  0  0  0  0  0  0
   46.0264   -5.0029   -2.1699 H   0  0  0  0  0  0  0  0  0  0  0  0
   46.0342   -7.4684   -2.2844 H   0  0  0  0  0  0  0  0  0  0  0  0
   47.1025   -8.7920   -0.4861 H   0  0  0  0  0  0  0  0  0  0  0  0
   48.1599   -7.6352    1.4306 H   0  0  0  0  0  0  0  0  0  0  0  0
   48.1400   -5.1698    1.5521 H   0  0  0  0  0  0  0  0  0  0  0  0
   79.8702    0.0751    0.0188 Zn  0  0  0  0  0  0  0  0  0  0  0  0
   83.2855    0.1008    0.0136 C   0  0  0  0  0  0  0  0  0  0  0  0
   82.6560    1.3399    0.0076 C   0  0  0  0  0  0  0  0  0  0  0  0
   83.3298    2.6077    0.0412 C   0  0  0  0  0  0  0  0  0  0  0  0
   82.3711    3.5674    0.0265 C   0  0  0  0  0  0  0  0  0  0  0  0
   81.0991    2.8966   -0.0271 C   0  0  0  0  0  0  0  0  0  0  0  0
   81.3072    1.5482   -0.0260 N   0  0  0  0  0  0  0  0  0  0  0  0
   79.8481    3.5234   -0.0628 C   0  0  0  0  0  0  0  0  0  0  0  0
   78.6089    2.8733   -0.0774 C   0  0  0  0  0  0  0  0  0  0  0  0
   77.3363    3.5277   -0.1966 C   0  0  0  0  0  0  0  0  0  0  0  0
   76.3863    2.5585   -0.1752 C   0  0  0  0  0  0  0  0  0  0  0  0
   78.4068    1.5205   -0.0022 N   0  0  0  0  0  0  0  0  0  0  0  0
   77.0637    1.3032   -0.0432 C   0  0  0  0  0  0  0  0  0  0  0  0
   76.4239    0.0482    0.0357 C   0  0  0  0  0  0  0  0  0  0  0  0
   77.0824   -1.1976    0.1040 C   0  0  0  0  0  0  0  0  0  0  0  0
   76.4224   -2.4675    0.1656 C   0  0  0  0  0  0  0  0  0  0  0  0
   77.3866   -3.4226    0.1684 C   0  0  0  0  0  0  0  0  0  0  0  0
   78.6516   -2.7444    0.1254 C   0  0  0  0  0  0  0  0  0  0  0  0
   79.9008   -3.3733    0.0919 C   0  0  0  0  0  0  0  0  0  0  0  0
   79.9149   -4.8589    0.1124 C   0  0  0  0  0  0  0  0  0  0  0  0
   80.4142   -5.5727   -0.9777 C   0  0  0  0  0  0  0  0  0  0  0  0
   80.4252   -6.9594   -0.9630 C   0  0  0  0  0  0  0  0  0  0  0  0
   79.9436   -7.6495    0.1412 C   0  0  0  0  0  0  0  0  0  0  0  0
   79.4487   -6.9465    1.2313 C   0  0  0  0  0  0  0  0  0  0  0  0
   79.4317   -5.5598    1.2179 C   0  0  0  0  0  0  0  0  0  0  0  0
   81.1410   -2.7269    0.0412 C   0  0  0  0  0  0  0  0  0  0  0  0
   82.4238   -3.3789    0.0599 C   0  0  0  0  0  0  0  0  0  0  0  0
   83.3682   -2.4054    0.0403 C   0  0  0  0  0  0  0  0  0  0  0  0
   82.6751   -1.1477    0.0150 C   0  0  0  0  0  0  0  0  0  0  0  0
   81.3290   -1.3760    0.0162 N   0  0  0  0  0  0  0  0  0  0  0  0
   78.4294   -1.3930    0.0868 N   0  0  0  0  0  0  0  0  0  0  0  0
   79.8338    5.0080   -0.0829 C   0  0  0  0  0  0  0  0  0  0  0  0
   80.4190    5.7116   -1.1364 C   0  0  0  0  0  0  0  0  0  0  0  0
   80.4062    7.0984   -1.1468 C   0  0  0  0  0  0  0  0  0  0  0  0
   79.8142    7.7993   -0.1049 C   0  0  0  0  0  0  0  0  0  0  0  0
   79.2305    7.1070    0.9474 C   0  0  0  0  0  0  0  0  0  0  0  0
   79.2370    5.7203    0.9584 C   0  0  0  0  0  0  0  0  0  0  0  0
   84.3710    0.1092    0.0274 H   0  0  0  0  0  0  0  0  0  0  0  0
   84.4004    2.7352    0.0784 H   0  0  0  0  0  0  0  0  0  0  0  0
   82.5082    4.6364    0.0604 H   0  0  0  0  0  0  0  0  0  0  0  0
   77.1901    4.5907   -0.3018 H   0  0  0  0  0  0  0  0  0  0  0  0
   75.3190    2.6792   -0.2573 H   0  0  0  0  0  0  0  0  0  0  0  0
   75.3550   -2.6080    0.2007 H   0  0  0  0  0  0  0  0  0  0  0  0
   77.2531   -4.4922    0.1894 H   0  0  0  0  0  0  0  0  0  0  0  0
   80.7805   -5.0352   -1.8455 H   0  0  0  0  0  0  0  0  0  0  0  0
   80.8108   -7.5037   -1.8181 H   0  0  0  0  0  0  0  0  0  0  0  0
   79.9541   -8.7336    0.1522 H   0  0  0  0  0  0  0  0  0  0  0  0
   79.0747   -7.4809    2.0976 H   0  0  0  0  0  0  0  0  0  0  0  0
   79.0558   -5.0123    2.0751 H   0  0  0  0  0  0  0  0  0  0  0  0
   82.5766   -4.4457    0.0965 H   0  0  0  0  0  0  0  0  0  0  0  0
   84.4413   -2.5170    0.0488 H   0  0  0  0  0  0  0  0  0  0  0  0
   80.8709    5.1662   -1.9576 H   0  0  0  0  0  0  0  0  0  0  0  0
   80.8601    7.6345   -1.9730 H   0  0  0  0  0  0  0  0  0  0  0  0
   79.8077    8.8834   -0.1130 H   0  0  0  0  0  0  0  0  0  0  0  0
   78.7689    7.6495    1.7651 H   0  0  0  0  0  0  0  0  0  0  0  0
   78.7911    5.1811    1.7870 H   0  0  0  0  0  0  0  0  0  0  0  0
   51.9138    0.0269   -0.0012 C   0  0  0  0  0  0  0  0  0  0  0  0
   53.1325    0.0294    0.0006 C   0  0  0  0  0  0  0  0  0  0  0  0
   62.8538    0.0237    0.0151 C   0  0  0  0  0  0  0  0  0  0  0  0
   64.0725    0.0262    0.0192 C   0  0  0  0  0  0  0  0  0  0  0  0
   73.7949    0.0337    0.0423 C   0  0  0  0  0  0  0  0  0  0  0  0
   75.0135    0.0391    0.0363 C   0  0  0  0  0  0  0  0  0  0  0  0
   57.9954    0.0262    0.0156 Zn  0  0  0  0  0  0  0  0  0  0  0  0
   54.5420    0.0291    0.0060 C   0  0  0  0  0  0  0  0  0  0  0  0
   55.1934   -1.2204    0.0807 C   0  0  0  0  0  0  0  0  0  0  0  0
   54.5319   -2.4819    0.2262 C   0  0  0  0  0  0  0  0  0  0  0  0
   55.4902   -3.4435    0.1975 C   0  0  0  0  0  0  0  0  0  0  0  0
   56.7502   -2.7767    0.0309 C   0  0  0  0  0  0  0  0  0  0  0  0
   56.5359   -1.4250   -0.0118 N   0  0  0  0  0  0  0  0  0  0  0  0
   57.9920   -3.4123   -0.0835 C   0  0  0  0  0  0  0  0  0  0  0  0
   59.2351   -2.7743   -0.1611 C   0  0  0  0  0  0  0  0  0  0  0  0
   60.4944   -3.4317   -0.3655 C   0  0  0  0  0  0  0  0  0  0  0  0
   61.4538   -2.4709   -0.3418 C   0  0  0  0  0  0  0  0  0  0  0  0
   59.4507   -1.4271   -0.0428 N   0  0  0  0  0  0  0  0  0  0  0  0
   60.7929   -1.2191   -0.1261 C   0  0  0  0  0  0  0  0  0  0  0  0
   61.4456    0.0238    0.0159 C   0  0  0  0  0  0  0  0  0  0  0  0
   60.7950    1.2677    0.1590 C   0  0  0  0  0  0  0  0  0  0  0  0
   61.4580    2.5186    0.3740 C   0  0  0  0  0  0  0  0  0  0  0  0
   60.4998    3.4805    0.4013 C   0  0  0  0  0  0  0  0  0  0  0  0
   59.2393    2.8245    0.1994 C   0  0  0  0  0  0  0  0  0  0  0  0
   57.9971    3.4642    0.1255 C   0  0  0  0  0  0  0  0  0  0  0  0
   57.9962    4.9474    0.1779 C   0  0  0  0  0  0  0  0  0  0  0  0
   57.3197    5.6186    1.1979 C   0  0  0  0  0  0  0  0  0  0  0  0
   57.3217    7.0043    1.2480 C   0  0  0  0  0  0  0  0  0  0  0  0
   57.9935    7.7370    0.2787 C   0  0  0  0  0  0  0  0  0  0  0  0
   58.6664    7.0773   -0.7409 C   0  0  0  0  0  0  0  0  0  0  0  0
   58.6712    5.6915   -0.7910 C   0  0  0  0  0  0  0  0  0  0  0  0
   56.7548    2.8309    0.0066 C   0  0  0  0  0  0  0  0  0  0  0  0
   55.4967    3.5011   -0.1592 C   0  0  0  0  0  0  0  0  0  0  0  0
   54.5373    2.5411   -0.2000 C   0  0  0  0  0  0  0  0  0  0  0  0
   55.1960    1.2775   -0.0610 C   0  0  0  0  0  0  0  0  0  0  0  0
   56.5384    1.4793    0.0391 N   0  0  0  0  0  0  0  0  0  0  0  0
   59.4530    1.4772    0.0789 N   0  0  0  0  0  0  0  0  0  0  0  0
   57.9898   -4.8955   -0.1291 C   0  0  0  0  0  0  0  0  0  0  0  0
   57.3020   -5.5715   -1.1384 C   0  0  0  0  0  0  0  0  0  0  0  0
   57.3039   -6.9574   -1.1829 C   0  0  0  0  0  0  0  0  0  0  0  0
   57.9876   -7.6859   -0.2188 C   0  0  0  0  0  0  0  0  0  0  0  0
   58.6719   -7.0217    0.7903 C   0  0  0  0  0  0  0  0  0  0  0  0
   58.6759   -5.6358    0.8352 C   0  0  0  0  0  0  0  0  0  0  0  0
   53.4698   -2.6120    0.3515 H   0  0  0  0  0  0  0  0  0  0  0  0
   55.3567   -4.5085    0.2982 H   0  0  0  0  0  0  0  0  0  0  0  0
   60.6264   -4.4898   -0.5245 H   0  0  0  0  0  0  0  0  0  0  0  0
   62.5161   -2.5942   -0.4740 H   0  0  0  0  0  0  0  0  0  0  0  0
   62.5207    2.6408    0.5033 H   0  0  0  0  0  0  0  0  0  0  0  0
   60.6332    4.5385    0.5600 H   0  0  0  0  0  0  0  0  0  0  0  0
   56.8048    5.0477    1.9627 H   0  0  0  0  0  0  0  0  0  0  0  0
   56.7972    7.5146    2.0483 H   0  0  0  0  0  0  0  0  0  0  0  0
   57.9924    8.8205    0.3177 H   0  0  0  0  0  0  0  0  0  0  0  0
   59.1898    7.6451   -1.5024 H   0  0  0  0  0  0  0  0  0  0  0  0
   59.1867    5.1783   -1.5954 H   0  0  0  0  0  0  0  0  0  0  0  0
   55.3656    4.5673   -0.2503 H   0  0  0  0  0  0  0  0  0  0  0  0
   53.4760    2.6737   -0.3280 H   0  0  0  0  0  0  0  0  0  0  0  0
   56.7786   -5.0041   -1.9001 H   0  0  0  0  0  0  0  0  0  0  0  0
   56.7701   -7.4711   -1.9750 H   0  0  0  0  0  0  0  0  0  0  0  0
   57.9872   -8.7695   -0.2539 H   0  0  0  0  0  0  0  0  0  0  0  0
   59.2046   -7.5861    1.5478 H   0  0  0  0  0  0  0  0  0  0  0  0
   59.1998   -5.1192    1.6320 H   0  0  0  0  0  0  0  0  0  0  0  0
   68.9316    0.0288    0.0337 Zn  0  0  0  0  0  0  0  0  0  0  0  0
   65.4808    0.0272    0.0214 C   0  0  0  0  0  0  0  0  0  0  0  0
   66.1326   -1.2210    0.1106 C   0  0  0  0  0  0  0  0  0  0  0  0
   65.4704   -2.4810    0.2668 C   0  0  0  0  0  0  0  0  0  0  0  0
   66.4298   -3.4420    0.2560 C   0  0  0  0  0  0  0  0  0  0  0  0
   67.6904   -2.7763    0.0895 C   0  0  0  0  0  0  0  0  0  0  0  0
   67.4753   -1.4253    0.0272 N   0  0  0  0  0  0  0  0  0  0  0  0
   68.9342   -3.4104   -0.0042 C   0  0  0  0  0  0  0  0  0  0  0  0
   70.1764   -2.7712   -0.0867 C   0  0  0  0  0  0  0  0  0  0  0  0
   71.4370   -3.4321   -0.2708 C   0  0  0  0  0  0  0  0  0  0  0  0
   72.3952   -2.4701   -0.2633 C   0  0  0  0  0  0  0  0  0  0  0  0
   70.3906   -1.4218    0.0046 N   0  0  0  0  0  0  0  0  0  0  0  0
   71.7334   -1.2141   -0.0768 C   0  0  0  0  0  0  0  0  0  0  0  0
   72.3852    0.0313    0.0445 C   0  0  0  0  0  0  0  0  0  0  0  0
   71.7314    1.2758    0.1671 C   0  0  0  0  0  0  0  0  0  0  0  0
   72.3899    2.5314    0.3668 C   0  0  0  0  0  0  0  0  0  0  0  0
   71.4303    3.4921    0.3709 C   0  0  0  0  0  0  0  0  0  0  0  0
   70.1724    2.8307    0.1714 C   0  0  0  0  0  0  0  0  0  0  0  0
   68.9301    3.4684    0.0790 C   0  0  0  0  0  0  0  0  0  0  0  0
   68.9302    4.9524    0.0961 C   0  0  0  0  0  0  0  0  0  0  0  0
   68.2493    5.6499    1.0952 C   0  0  0  0  0  0  0  0  0  0  0  0
   68.2520    7.0366    1.1096 C   0  0  0  0  0  0  0  0  0  0  0  0
   68.9290    7.7439    0.1252 C   0  0  0  0  0  0  0  0  0  0  0  0
   69.6069    7.0579   -0.8735 C   0  0  0  0  0  0  0  0  0  0  0  0
   69.6109    5.6713   -0.8880 C   0  0  0  0  0  0  0  0  0  0  0  0
   67.6882    2.8327   -0.0284 C   0  0  0  0  0  0  0  0  0  0  0  0
   66.4284    3.4974   -0.2047 C   0  0  0  0  0  0  0  0  0  0  0  0
   65.4700    2.5354   -0.2243 C   0  0  0  0  0  0  0  0  0  0  0  0
   66.1321    1.2760   -0.0636 C   0  0  0  0  0  0  0  0  0  0  0  0
   67.4739    1.4814    0.0302 N   0  0  0  0  0  0  0  0  0  0  0  0
   70.3891    1.4820    0.0756 N   0  0  0  0  0  0  0  0  0  0  0  0
   68.9363   -4.8945   -0.0158 C   0  0  0  0  0  0  0  0  0  0  0  0
   68.2644   -5.5967   -1.0176 C   0  0  0  0  0  0  0  0  0  0  0  0
   68.2683   -6.9833   -1.0262 C   0  0  0  0  0  0  0  0  0  0  0  0
   68.9378   -7.6860   -0.0334 C   0  0  0  0  0  0  0  0  0  0  0  0
   69.6070   -6.9954    0.9679 C   0  0  0  0  0  0  0  0  0  0  0  0
   69.6095   -5.6087    0.9767 C   0  0  0  0  0  0  0  0  0  0  0  0
   64.4071   -2.6099    0.3852 H   0  0  0  0  0  0  0  0  0  0  0  0
   66.2969   -4.5060    0.3675 H   0  0  0  0  0  0  0  0  0  0  0  0
   71.5708   -4.4933   -0.4059 H   0  0  0  0  0  0  0  0  0  0  0  0
   73.4577   -2.5962   -0.3874 H   0  0  0  0  0  0  0  0  0  0  0  0
   73.4509    2.6578    0.5039 H   0  0  0  0  0  0  0  0  0  0  0  0
   71.5610    4.5527    0.5137 H   0  0  0  0  0  0  0  0  0  0  0  0
   67.7306    5.0993    1.8723 H   0  0  0  0  0  0  0  0  0  0  0  0
   67.7239    7.5675    1.8940 H   0  0  0  0  0  0  0  0  0  0  0  0
   68.9282    8.8280    0.1363 H   0  0  0  0  0  0  0  0  0  0  0  0
   70.1347    7.6056   -1.6466 H   0  0  0  0  0  0  0  0  0  0  0  0
   70.1304    5.1373   -1.6760 H   0  0  0  0  0  0  0  0  0  0  0  0
   66.2955    4.5614   -0.3163 H   0  0  0  0  0  0  0  0  0  0  0  0
   64.4078    2.6635   -0.3517 H   0  0  0  0  0  0  0  0  0  0  0  0
   67.7516   -5.0495   -1.8010 H   0  0  0  0  0  0  0  0  0  0  0  0
   67.7469   -7.5180   -1.8124 H   0  0  0  0  0  0  0  0  0  0  0  0
   68.9380   -8.7701   -0.0400 H   0  0  0  0  0  0  0  0  0  0  0  0
   70.1288   -7.5393    1.7475 H   0  0  0  0  0  0  0  0  0  0  0  0
   70.1220   -5.0712    1.7668 H   0  0  0  0  0  0  0  0  0  0  0  0
  2  3  4  0  0  0  0
  3  4  1  0  0  0  0
  4  5  2  0  0  0  0
  5  6  4  0  0  0  0
  1  7  1  0  0  0  0
  3  7  4  0  0  0  0
  6  7  4  0  0  0  0
  6  8  4  0  0  0  0
  8  9  4  0  0  0  0
  9 10  4  0  0  0  0
 10 11  2  0  0  0  0
  1 12  1  0  0  0  0
  9 12  4  0  0  0  0
 11 13  4  0  0  0  0
 12 13  4  0  0  0  0
 13 14  4  0  0  0  0
 14 15  4  0  0  0  0
 15 16  4  0  0  0  0
 16 17  2  0  0  0  0
 17 18  4  0  0  0  0
 18 19  4  0  0  0  0
 19 20  1  0  0  0  0
 20 21  4  0  0  0  0
 21 22  4  0  0  0  0
 22 23  4  0  0  0  0
 23 24  4  0  0  0  0
 20 25  4  0  0  0  0
 24 25  4  0  0  0  0
 19 26  4  0  0  0  0
 26 27  4  0  0  0  0
 27 28  2  0  0  0  0
  2 29  4  0  0  0  0
 28 29  1  0  0  0  0
  1 30  1  0  0  0  0
 26 30  4  0  0  0  0
 29 30  4  0  0  0  0
  1 31  1  0  0  0  0
 15 31  4  0  0  0  0
 18 31  4  0  0  0  0
  8 32  1  0  0  0  0
 32 33  4  0  0  0  0
 33 34  4  0  0  0  0
 34 35  4  0  0  0  0
 35 36  4  0  0  0  0
 32 37  4  0  0  0  0
 36 37  4  0  0  0  0
  2 38  1  0  0  0  0
  4 39  1  0  0  0  0
  5 40  1  0  0  0  0
 10 41  1  0  0  0  0
 11 42  1  0  0  0  0
 16 43  1  0  0  0  0
 17 44  1  0  0  0  0
 21 45  1  0  0  0  0
 22 46  1  0  0  0  0
 23 47  1  0  0  0  0
 24 48  1  0  0  0  0
 25 49  1  0  0  0  0
 27 50  1  0  0  0  0
 28 51  1  0  0  0  0
 33 52  1  0  0  0  0
 34 53  1  0  0  0  0
 35 54  1  0  0  0  0
 36 55  1  0  0  0  0
 37 56  1  0  0  0  0
 58 59  4  0  0  0  0
 59 60  1  0  0  0  0
 60 61  2  0  0  0  0
 61 62  4  0  0  0  0
 57 63  1  0  0  0  0
 59 63  4  0  0  0  0
 62 63  4  0  0  0  0
 62 64  4  0  0  0  0
 64 65  4  0  0  0  0
 65 66  4  0  0  0  0
 66 67  2  0  0  0  0
 57 68  1  0  0  0  0
 65 68  4  0  0  0  0
 67 69  4  0  0  0  0
 68 69  4  0  0  0  0
 69 70  4  0  0  0  0
 70 71  4  0  0  0  0
 71 72  4  0  0  0  0
 72 73  2  0  0  0  0
 73 74  4  0  0  0  0
 74 75  4  0  0  0  0
 75 76  1  0  0  0  0
 76 77  4  0  0  0  0
 77 78  4  0  0  0  0
 78 79  4  0  0  0  0
 79 80  4  0  0  0  0
 76 81  4  0  0  0  0
 80 81  4  0  0  0  0
 75 82  4  0  0  0  0
 82 83  4  0  0  0  0
 83 84  2  0  0  0  0
 58 85  4  0  0  0  0
 84 85  1  0  0  0  0
 57 86  1  0  0  0  0
 82 86  4  0  0  0  0
 85 86  4  0  0  0  0
 57 87  1  0  0  0  0
 71 87  4  0  0  0  0
 74 87  4  0  0  0  0
 64 88  1  0  0  0  0
 88 89  4  0  0  0  0
 89 90  4  0  0  0  0
 90 91  4  0  0  0  0
 91 92  4  0  0  0  0
 88 93  4  0  0  0  0
 92 93  4  0  0  0  0
 58 94  1  0  0  0  0
 60 95  1  0  0  0  0
 61 96  1  0  0  0  0
 66 97  1  0  0  0  0
 67 98  1  0  0  0  0
 72 99  1  0  0  0  0
 73100  1  0  0  0  0
 77101  1  0  0  0  0
 78102  1  0  0  0  0
 79103  1  0  0  0  0
 80104  1  0  0  0  0
 81105  1  0  0  0  0
 83106  1  0  0  0  0
 84107  1  0  0  0  0
 89108  1  0  0  0  0
 90109  1  0  0  0  0
 91110  1  0  0  0  0
 92111  1  0  0  0  0
 93112  1  0  0  0  0
 14113  4  0  0  0  0
113114  3  0  0  0  0
115116  3  0  0  0  0
 70118  4  0  0  0  0
117118  3  0  0  0  0
114120  4  0  0  0  0
120121  4  0  0  0  0
121122  4  0  0  0  0
122123  2  0  0  0  0
123124  4  0  0  0  0
119125  1  0  0  0  0
121125  4  0  0  0  0
124125  4  0  0  0  0
124126  4  0  0  0  0
126127  4  0  0  0  0
127128  4  0  0  0  0
128129  2  0  0  0  0
119130  1  0  0  0  0
127130  4  0  0  0  0
129131  4  0  0  0  0
130131  4  0  0  0  0
115132  4  0  0  0  0
131132  4  0  0  0  0
132133  4  0  0  0  0
133134  4  0  0  0  0
134135  2  0  0  0  0
135136  4  0  0  0  0
136137  4  0  0  0  0
137138  1  0  0  0  0
138139  4  0  0  0  0
139140  4  0  0  0  0
140141  4  0  0  0  0
141142  4  0  0  0  0
138143  4  0  0  0  0
142143  4  0  0  0  0
137144  4  0  0  0  0
144145  4  0  0  0  0
145146  2  0  0  0  0
120147  4  0  0  0  0
146147  4  0  0  0  0
119148  1  0  0  0  0
144148  4  0  0  0  0
147148  4  0  0  0  0
119149  1  0  0  0  0
133149  4  0  0  0  0
136149  4  0  0  0  0
126150  1  0  0  0  0
150151  4  0  0  0  0
151152  4  0  0  0  0
152153  4  0  0  0  0
153154  4  0  0  0  0
150155  4  0  0  0  0
154155  4  0  0  0  0
122156  1  0  0  0  0
123157  1  0  0  0  0
128158  1  0  0  0  0
129159  1  0  0  0  0
134160  1  0  0  0  0
135161  1  0  0  0  0
139162  1  0  0  0  0
140163  1  0  0  0  0
141164  1  0  0  0  0
142165  1  0  0  0  0
143166  1  0  0  0  0
145167  1  0  0  0  0
146168  1  0  0  0  0
151169  1  0  0  0  0
152170  1  0  0  0  0
153171  1  0  0  0  0
154172  1  0  0  0  0
155173  1  0  0  0  0
116175  4  0  0  0  0
175176  4  0  0  0  0
176177  4  0  0  0  0
177178  2  0  0  0  0
178179  4  0  0  0  0
174180  1  0  0  0  0
176180  4  0  0  0  0
179180  4  0  0  0  0
179181  4  0  0  0  0
181182  4  0  0  0  0
182183  4  0  0  0  0
183184  2  0  0  0  0
174185  1  0  0  0  0
182185  4  0  0  0  0
184186  4  0  0  0  0
185186  4  0  0  0  0
117187  4  0  0  0  0
186187  4  0  0  0  0
187188  4  0  0  0  0
188189  4  0  0  0  0
189190  2  0  0  0  0
190191  4  0  0  0  0
191192  4  0  0  0  0
192193  1  0  0  0  0
193194  4  0  0  0  0
194195  4  0  0  0  0
195196  4  0  0  0  0
196197  4  0  0  0  0
193198  4  0  0  0  0
197198  4  0  0  0  0
192199  4  0  0  0  0
199200  4  0  0  0  0
200201  2  0  0  0  0
175202  4  0  0  0  0
201202  4  0  0  0  0
174203  1  0  0  0  0
199203  4  0  0  0  0
202203  4  0  0  0  0
174204  1  0  0  0  0
188204  4  0  0  0  0
191204  4  0  0  0  0
181205  1  0  0  0  0
205206  4  0  0  0  0
206207  4  0  0  0  0
207208  4  0  0  0  0
208209  4  0  0  0  0
205210  4  0  0  0  0
209210  4  0  0  0  0
177211  1  0  0  0  0
178212  1  0  0  0  0
183213  1  0  0  0  0
184214  1  0  0  0  0
189215  1  0  0  0  0
190216  1  0  0  0  0
194217  1  0  0  0  0
195218  1  0  0  0  0
196219  1  0  0  0  0
197220  1  0  0  0  0
198221  1  0  0  0  0
200222  1  0  0  0  0
201223  1  0  0  0  0
206224  1  0  0  0  0
207225  1  0  0  0  0
208226  1  0  0  0  0
209227  1  0  0  0  0
210228  1  0  0  0  0
M  END
