128

C 13.633233 -0.189270 -0.391292
C 14.345026 1.162062 -0.699209
C 13.709653 2.353865 -0.964003
C 14.720510 3.325803 -1.172416
C 15.942166 2.693518 -1.029651
N 15.700346 1.375250 -0.732192
C 17.370307 3.371921 -1.154747
C 17.407392 4.790619 -1.586006
C 17.564764 5.824729 -0.654794
C 17.555768 7.155473 -1.084595
C 17.744410 8.229142 -0.081827
O 17.334119 9.434110 -0.531677
O 18.206662 8.121167 1.037711
C 17.389247 7.453302 -2.446058
C 17.238317 6.423343 -3.375353
C 17.247711 5.096992 -2.945159
C 18.504238 2.669219 -0.891246
C 19.812962 3.289030 -0.944042
C 20.718911 2.382982 -0.595856
N 18.704141 1.359165 -0.539528
C 20.042093 1.125272 -0.344496
C 20.724145 -0.000000 0.000000
C 19.975651 -1.392246 0.173662
C 20.582120 -2.634060 0.195408
C 19.566973 -3.605317 0.365960
C 18.363466 -2.935120 0.430499
N 18.619077 -1.587965 0.297065
C 16.937873 -3.609156 0.602618
C 16.889131 -5.033352 1.003064
C 16.905105 -6.040172 0.028341
C 16.870394 -7.384539 0.398569
C 16.813720 -7.728727 1.749850
C 16.795436 -6.727495 2.733322
C 16.725603 -7.143195 4.153438
O 16.906021 -6.123039 5.010691
O 16.544956 -8.280419 4.555651
C 16.836187 -5.380775 2.358735
C 15.807713 -2.889474 0.383703
C 14.479571 -3.467515 0.500710
C 13.588226 -2.523950 0.217675
C 14.309706 -1.310532 -0.080388
N 15.638713 -1.579635 0.031763
H 12.549613 -0.209345 -0.424070
H 12.641386 2.507808 -0.998427
H 14.572927 4.370881 -1.398784
H 16.413383 0.668882 -0.567750
H 17.690171 5.574855 0.397089
H 17.509282 10.010237 0.240067
H 17.385867 8.483621 -2.789827
H 17.114871 6.644893 -4.431093
H 17.128994 4.283148 -3.660159
H 20.030855 4.309759 -1.200975
H 21.776173 2.568575 -0.543113
H 21.639954 -2.828701 0.097943
H 19.702167 -4.675406 0.424107
H 17.905859 -0.863827 0.243489
H 16.944191 -5.756378 -1.021671
H 16.887070 -8.155597 -0.366885
H 16.783896 -8.777271 2.036295
H 16.834261 -6.521749 5.898767
H 16.819433 -4.584061 3.100973
H 14.249709 -4.484210 0.765907
H 12.519594 -2.637121 0.214220
C 31.267845 0.012504 -0.434484
C 30.556052 -1.346462 -0.162236
C 31.191425 -2.542227 0.084052
C 30.180568 -3.514312 0.291776
C 28.958912 -2.878991 0.163197
N 29.200732 -1.554471 -0.105058
C 27.530772 -3.549156 0.326775
C 27.493686 -5.020077 0.514067
C 27.336314 -5.582369 1.787003
C 27.345310 -6.972447 1.939620
C 27.156668 -7.541538 3.294037
O 27.566959 -8.825069 3.376873
O 26.694416 -6.984729 4.271271
C 27.511831 -7.801508 0.819378
C 27.662761 -7.242219 -0.450109
C 27.653367 -5.855989 -0.600569
C 26.396840 -2.800164 0.279527
C 25.088116 -3.387274 0.485084
C 24.182167 -2.418087 0.431858
N 26.196937 -1.460926 0.064139
C 24.858985 -1.167690 0.146335
C 24.176933 0.000000 -0.000000
C 24.925427 1.341337 -0.411487
C 24.318958 2.483236 -0.899998
C 25.334105 3.439201 -1.141986
C 26.537612 2.854152 -0.808749
N 26.282001 1.570423 -0.379018
C 27.963205 3.539583 -0.927637
C 28.011947 5.002907 -1.145292
C 27.995973 5.522487 -2.446756
C 28.030684 6.900607 -2.659302
C 28.087358 7.767798 -1.567329
C 28.105642 7.256897 -0.260170
C 28.175475 8.217511 0.865333
O 27.995057 7.637675 2.065080
O 28.356122 9.419733 0.766766
C 28.064891 5.874846 -0.050637
C 29.093365 2.793349 -0.832759
C 30.421507 3.368636 -0.962633
C 31.312852 2.391889 -0.834607
C 30.591372 1.162785 -0.609825
N 29.262365 1.454218 -0.617662
H 32.351465 0.017403 -0.472608
H 32.259692 -2.696772 0.115663
H 30.328151 -4.560479 0.513059
H 28.487695 -0.842684 -0.244185
H 27.210907 -4.923790 2.644423
H 27.391796 -9.034789 4.316835
H 27.515211 -8.882268 0.927507
H 27.786207 -7.876535 -1.322644
H 27.772084 -5.406154 -1.586072
H 24.870223 -4.423737 0.668513
H 23.124905 -2.565826 0.555954
H 23.261124 2.620923 -1.068600
H 25.198912 4.439324 -1.526988
H 26.995219 0.887807 -0.131465
H 27.956887 4.833727 -3.288584
H 28.014008 7.290753 -3.673322
H 28.117182 8.841719 -1.735217
H 28.066817 8.364991 2.712119
H 28.081645 5.451789 0.952704
H 30.651369 4.404802 -1.136870
H 32.381484 2.493730 -0.884087
C 21.839580 -0.000000 0.000000
C 23.061498 -0.000000 0.000000
