 xtb: 6.5.1 (b24c23e)
          07292215363D

134153  0     0  0            999 V2000
   18.9143    0.0617   -0.0200 Fe  0  0  0  0  0  0  0  0  0  0  0  0
   15.5378    0.1446   -0.1060 C   0  0  0  0  0  0  0  0  0  0  0  0
   16.1762    0.8993    0.8578 C   0  0  0  0  0  0  0  0  0  0  0  0
   15.4954    1.6904    1.8372 C   0  0  0  0  0  0  0  0  0  0  0  0
   16.4471    2.3902    2.5008 C   0  0  0  0  0  0  0  0  0  0  0  0
   17.7072    2.0390    1.9125 C   0  0  0  0  0  0  0  0  0  0  0  0
   17.5318    1.0795    0.9525 N   0  0  0  0  0  0  0  0  0  0  0  0
   18.9173    2.6579    2.2185 C   0  0  0  0  0  0  0  0  0  0  0  0
   18.9231    3.7925    3.1645 C   0  0  0  0  0  0  0  0  0  0  0  0
   18.1306    4.9220    2.9362 C   0  0  0  0  0  0  0  0  0  0  0  0
   18.1484    5.9879    3.8148 C   0  0  0  0  0  0  0  0  0  0  0  0
   18.9516    5.9520    4.9619 C   0  0  0  0  0  0  0  0  0  0  0  0
   18.9732    7.0650    5.7873 N   0  0  0  0  0  0  0  0  0  0  0  0
   19.3946    6.9307    7.1750 C   0  0  0  0  0  0  0  0  0  0  0  0
   19.7485    4.8268    5.1942 C   0  0  0  0  0  0  0  0  0  0  0  0
   19.7317    3.7678    4.3035 C   0  0  0  0  0  0  0  0  0  0  0  0
   20.1224    2.2554    1.6527 C   0  0  0  0  0  0  0  0  0  0  0  0
   21.3733    2.9226    1.8563 C   0  0  0  0  0  0  0  0  0  0  0  0
   22.3227    2.1688    1.2487 C   0  0  0  0  0  0  0  0  0  0  0  0
   20.3046    1.1336    0.8815 N   0  0  0  0  0  0  0  0  0  0  0  0
   21.6496    1.0485    0.6723 C   0  0  0  0  0  0  0  0  0  0  0  0
   22.3104   -0.0318    0.0745 C   0  0  0  0  0  0  0  0  0  0  0  0
   21.6290   -1.0960   -0.5298 C   0  0  0  0  0  0  0  0  0  0  0  0
   22.2778   -2.2522   -1.0615 C   0  0  0  0  0  0  0  0  0  0  0  0
   21.3198   -2.9865   -1.6790 C   0  0  0  0  0  0  0  0  0  0  0  0
   20.0901   -2.2657   -1.5357 C   0  0  0  0  0  0  0  0  0  0  0  0
   20.2874   -1.1421   -0.7693 N   0  0  0  0  0  0  0  0  0  0  0  0
   18.8995   -2.6130   -2.1642 C   0  0  0  0  0  0  0  0  0  0  0  0
   18.8960   -3.7550   -3.1008 C   0  0  0  0  0  0  0  0  0  0  0  0
   19.7741   -3.7928   -4.1867 C   0  0  0  0  0  0  0  0  0  0  0  0
   19.7774   -4.8582   -5.0699 C   0  0  0  0  0  0  0  0  0  0  0  0
   18.8948   -5.9267   -4.8844 C   0  0  0  0  0  0  0  0  0  0  0  0
   18.8946   -7.0454   -5.7017 N   0  0  0  0  0  0  0  0  0  0  0  0
   19.4174   -6.9551   -7.0579 C   0  0  0  0  0  0  0  0  0  0  0  0
   18.0196   -5.8996   -3.7909 C   0  0  0  0  0  0  0  0  0  0  0  0
   18.0170   -4.8278   -2.9196 C   0  0  0  0  0  0  0  0  0  0  0  0
   17.7122   -1.9159   -1.9470 C   0  0  0  0  0  0  0  0  0  0  0  0
   16.4783   -2.1857   -2.6261 C   0  0  0  0  0  0  0  0  0  0  0  0
   15.5313   -1.4117   -2.0426 C   0  0  0  0  0  0  0  0  0  0  0  0
   16.1906   -0.6593   -1.0191 C   0  0  0  0  0  0  0  0  0  0  0  0
   17.5315   -0.9432   -1.0025 N   0  0  0  0  0  0  0  0  0  0  0  0
   14.4549    0.1836   -0.1465 H   0  0  0  0  0  0  0  0  0  0  0  0
   14.4268    1.6977    1.9837 H   0  0  0  0  0  0  0  0  0  0  0  0
   16.3178    3.0807    3.3185 H   0  0  0  0  0  0  0  0  0  0  0  0
   17.5152    4.9718    2.0446 H   0  0  0  0  0  0  0  0  0  0  0  0
   17.5396    6.8641    3.6178 H   0  0  0  0  0  0  0  0  0  0  0  0
   18.1511    7.6474    5.6855 H   0  0  0  0  0  0  0  0  0  0  0  0
   20.4634    6.7175    7.2221 H   0  0  0  0  0  0  0  0  0  0  0  0
   18.8449    6.1331    7.6875 H   0  0  0  0  0  0  0  0  0  0  0  0
   19.2056    7.8791    7.6776 H   0  0  0  0  0  0  0  0  0  0  0  0
   20.3848    4.7724    6.0689 H   0  0  0  0  0  0  0  0  0  0  0  0
   20.3401    2.8929    4.5052 H   0  0  0  0  0  0  0  0  0  0  0  0
   21.5003    3.8541    2.3835 H   0  0  0  0  0  0  0  0  0  0  0  0
   23.3840    2.3474    1.1866 H   0  0  0  0  0  0  0  0  0  0  0  0
   23.3292   -2.4681   -0.9613 H   0  0  0  0  0  0  0  0  0  0  0  0
   21.4281   -3.9343   -2.1806 H   0  0  0  0  0  0  0  0  0  0  0  0
   20.4492   -2.9608   -4.3547 H   0  0  0  0  0  0  0  0  0  0  0  0
   20.4695   -4.8523   -5.9029 H   0  0  0  0  0  0  0  0  0  0  0  0
   18.0306   -7.5712   -5.6519 H   0  0  0  0  0  0  0  0  0  0  0  0
   18.9515   -6.1349   -7.6159 H   0  0  0  0  0  0  0  0  0  0  0  0
   19.2088   -7.8983   -7.5628 H   0  0  0  0  0  0  0  0  0  0  0  0
   20.4973   -6.8043   -7.0328 H   0  0  0  0  0  0  0  0  0  0  0  0
   17.3419   -6.7315   -3.6301 H   0  0  0  0  0  0  0  0  0  0  0  0
   17.3434   -4.8288   -2.0696 H   0  0  0  0  0  0  0  0  0  0  0  0
   16.3628   -2.8748   -3.4472 H   0  0  0  0  0  0  0  0  0  0  0  0
   14.4797   -1.3439   -2.2723 H   0  0  0  0  0  0  0  0  0  0  0  0
   29.7311    0.0067   -0.0654 Fe  0  0  0  0  0  0  0  0  0  0  0  0
   33.1074    0.0720   -0.1652 C   0  0  0  0  0  0  0  0  0  0  0  0
   32.4688   -1.0334   -0.6909 C   0  0  0  0  0  0  0  0  0  0  0  0
   33.1495   -2.1621   -1.2488 C   0  0  0  0  0  0  0  0  0  0  0  0
   32.1976   -2.9627   -1.7863 C   0  0  0  0  0  0  0  0  0  0  0  0
   30.9376   -2.3117   -1.5720 C   0  0  0  0  0  0  0  0  0  0  0  0
   31.1132   -1.1651   -0.8456 N   0  0  0  0  0  0  0  0  0  0  0  0
   29.7275   -2.7452   -2.1093 C   0  0  0  0  0  0  0  0  0  0  0  0
   29.7217   -3.9161   -3.0101 C   0  0  0  0  0  0  0  0  0  0  0  0
   30.5142   -3.9394   -4.1623 C   0  0  0  0  0  0  0  0  0  0  0  0
   30.4966   -5.0294   -5.0108 C   0  0  0  0  0  0  0  0  0  0  0  0
   29.6938   -6.1413   -4.7256 C   0  0  0  0  0  0  0  0  0  0  0  0
   29.6725   -7.1894   -5.6318 N   0  0  0  0  0  0  0  0  0  0  0  0
   29.2509   -8.5145   -5.1986 C   0  0  0  0  0  0  0  0  0  0  0  0
   28.8970   -6.1228   -3.5767 C   0  0  0  0  0  0  0  0  0  0  0  0
   28.9135   -5.0225   -2.7375 C   0  0  0  0  0  0  0  0  0  0  0  0
   28.5226   -2.1047   -1.8407 C   0  0  0  0  0  0  0  0  0  0  0  0
   27.2718   -2.4485   -2.4478 C   0  0  0  0  0  0  0  0  0  0  0  0
   26.3225   -1.6902   -1.8453 C   0  0  0  0  0  0  0  0  0  0  0  0
   28.3406   -1.1069   -0.9144 N   0  0  0  0  0  0  0  0  0  0  0  0
   26.9957   -0.8836   -0.8776 C   0  0  0  0  0  0  0  0  0  0  0  0
   26.3349   -0.0644    0.0463 C   0  0  0  0  0  0  0  0  0  0  0  0
   27.0164    0.7574    0.9529 C   0  0  0  0  0  0  0  0  0  0  0  0
   26.3676    1.5287    1.9652 C   0  0  0  0  0  0  0  0  0  0  0  0
   27.3258    2.2909    2.5477 C   0  0  0  0  0  0  0  0  0  0  0  0
   28.5556    1.9935    1.8758 C   0  0  0  0  0  0  0  0  0  0  0  0
   28.3581    1.0006    0.9462 N   0  0  0  0  0  0  0  0  0  0  0  0
   29.7464    2.6820    2.0782 C   0  0  0  0  0  0  0  0  0  0  0  0
   29.7499    3.8451    2.9885 C   0  0  0  0  0  0  0  0  0  0  0  0
   28.8714    4.9128    2.7886 C   0  0  0  0  0  0  0  0  0  0  0  0
   28.8678    6.0072    3.6355 C   0  0  0  0  0  0  0  0  0  0  0  0
   29.7506    6.0597    4.7185 C   0  0  0  0  0  0  0  0  0  0  0  0
   29.7506    7.1016    5.6317 N   0  0  0  0  0  0  0  0  0  0  0  0
   29.2278    8.4053    5.2471 C   0  0  0  0  0  0  0  0  0  0  0  0
   30.6263    4.9870    4.9306 C   0  0  0  0  0  0  0  0  0  0  0  0
   30.6291    3.9027    4.0747 C   0  0  0  0  0  0  0  0  0  0  0  0
   30.9337    2.3178    1.4453 C   0  0  0  0  0  0  0  0  0  0  0  0
   32.1677    3.0393    1.5605 C   0  0  0  0  0  0  0  0  0  0  0  0
   33.1144    2.3012    0.9317 C   0  0  0  0  0  0  0  0  0  0  0  0
   32.4549    1.1385    0.4204 C   0  0  0  0  0  0  0  0  0  0  0  0
   31.1141    1.1841    0.7017 N   0  0  0  0  0  0  0  0  0  0  0  0
   34.1903    0.1030   -0.2125 H   0  0  0  0  0  0  0  0  0  0  0  0
   34.2181   -2.3067   -1.2242 H   0  0  0  0  0  0  0  0  0  0  0  0
   32.3267   -3.9117   -2.2812 H   0  0  0  0  0  0  0  0  0  0  0  0
   31.1293   -3.0800   -4.4053 H   0  0  0  0  0  0  0  0  0  0  0  0
   31.1053   -5.0280   -5.9089 H   0  0  0  0  0  0  0  0  0  0  0  0
   30.4946   -7.2169   -6.2224 H   0  0  0  0  0  0  0  0  0  0  0  0
   28.1820   -8.5141   -4.9809 H   0  0  0  0  0  0  0  0  0  0  0  0
   29.8002   -8.8410   -4.3083 H   0  0  0  0  0  0  0  0  0  0  0  0
   29.4403   -9.2117   -6.0148 H   0  0  0  0  0  0  0  0  0  0  0  0
   28.2611   -6.9648   -3.3326 H   0  0  0  0  0  0  0  0  0  0  0  0
   28.3050   -5.0286   -1.8396 H   0  0  0  0  0  0  0  0  0  0  0  0
   27.1447   -3.1664   -3.2416 H   0  0  0  0  0  0  0  0  0  0  0  0
   25.2613   -1.6680   -2.0336 H   0  0  0  0  0  0  0  0  0  0  0  0
   25.3161    1.4786    2.1973 H   0  0  0  0  0  0  0  0  0  0  0  0
   27.2175    2.9870    3.3633 H   0  0  0  0  0  0  0  0  0  0  0  0
   28.1961    4.8949    1.9400 H   0  0  0  0  0  0  0  0  0  0  0  0
   28.1753    6.8185    3.4481 H   0  0  0  0  0  0  0  0  0  0  0  0
   30.6146    7.1681    6.1557 H   0  0  0  0  0  0  0  0  0  0  0  0
   29.6939    8.7705    4.3248 H   0  0  0  0  0  0  0  0  0  0  0  0
   29.4361    9.1041    6.0572 H   0  0  0  0  0  0  0  0  0  0  0  0
   28.1479    8.3477    5.1050 H   0  0  0  0  0  0  0  0  0  0  0  0
   31.3042    5.0119    5.7773 H   0  0  0  0  0  0  0  0  0  0  0  0
   31.3030    3.0737    4.2611 H   0  0  0  0  0  0  0  0  0  0  0  0
   32.2835    3.9907    2.0542 H   0  0  0  0  0  0  0  0  0  0  0  0
   34.1661    2.5106    0.8151 H   0  0  0  0  0  0  0  0  0  0  0  0
   23.7135   -0.0492    0.0774 C   0  0  0  0  0  0  0  0  0  0  0  0
   24.9318   -0.0641    0.0642 C   0  0  0  0  0  0  0  0  0  0  0  0
  2  3  4  0  0  0  0
  3  4  4  0  0  0  0
  4  5  2  0  0  0  0
  5  6  4  0  0  0  0
  1  7  1  0  0  0  0
  3  7  4  0  0  0  0
  6  7  4  0  0  0  0
  6  8  4  0  0  0  0
  8  9  1  0  0  0  0
  9 10  4  0  0  0  0
 10 11  4  0  0  0  0
 11 12  4  0  0  0  0
 12 13  1  0  0  0  0
 13 14  1  0  0  0  0
 12 15  4  0  0  0  0
  9 16  4  0  0  0  0
 15 16  4  0  0  0  0
  8 17  4  0  0  0  0
 17 18  4  0  0  0  0
 18 19  2  0  0  0  0
  1 20  1  0  0  0  0
 17 20  4  0  0  0  0
 19 21  4  0  0  0  0
 20 21  4  0  0  0  0
 21 22  4  0  0  0  0
 22 23  4  0  0  0  0
 23 24  4  0  0  0  0
 24 25  2  0  0  0  0
 25 26  4  0  0  0  0
  1 27  1  0  0  0  0
 23 27  4  0  0  0  0
 26 27  4  0  0  0  0
 26 28  4  0  0  0  0
 28 29  1  0  0  0  0
 29 30  4  0  0  0  0
 30 31  4  0  0  0  0
 31 32  4  0  0  0  0
 32 33  1  0  0  0  0
 33 34  1  0  0  0  0
 32 35  4  0  0  0  0
 29 36  4  0  0  0  0
 35 36  4  0  0  0  0
 28 37  4  0  0  0  0
 37 38  4  0  0  0  0
 38 39  2  0  0  0  0
  2 40  4  0  0  0  0
 39 40  4  0  0  0  0
  1 41  1  0  0  0  0
 37 41  4  0  0  0  0
 40 41  4  0  0  0  0
  2 42  1  0  0  0  0
  4 43  1  0  0  0  0
  5 44  1  0  0  0  0
 10 45  1  0  0  0  0
 11 46  1  0  0  0  0
 13 47  1  0  0  0  0
 14 48  1  0  0  0  0
 14 49  1  0  0  0  0
 14 50  1  0  0  0  0
 15 51  1  0  0  0  0
 16 52  1  0  0  0  0
 18 53  1  0  0  0  0
 19 54  1  0  0  0  0
 24 55  1  0  0  0  0
 25 56  1  0  0  0  0
 30 57  1  0  0  0  0
 31 58  1  0  0  0  0
 33 59  1  0  0  0  0
 34 60  1  0  0  0  0
 34 61  1  0  0  0  0
 34 62  1  0  0  0  0
 35 63  1  0  0  0  0
 36 64  1  0  0  0  0
 38 65  1  0  0  0  0
 39 66  1  0  0  0  0
 68 69  4  0  0  0  0
 69 70  4  0  0  0  0
 70 71  2  0  0  0  0
 71 72  4  0  0  0  0
 67 73  1  0  0  0  0
 69 73  4  0  0  0  0
 72 73  4  0  0  0  0
 72 74  4  0  0  0  0
 74 75  1  0  0  0  0
 75 76  4  0  0  0  0
 76 77  4  0  0  0  0
 77 78  4  0  0  0  0
 78 79  1  0  0  0  0
 79 80  1  0  0  0  0
 78 81  4  0  0  0  0
 75 82  4  0  0  0  0
 81 82  4  0  0  0  0
 74 83  4  0  0  0  0
 83 84  4  0  0  0  0
 84 85  2  0  0  0  0
 67 86  1  0  0  0  0
 83 86  4  0  0  0  0
 85 87  4  0  0  0  0
 86 87  4  0  0  0  0
 87 88  4  0  0  0  0
 88 89  4  0  0  0  0
 89 90  4  0  0  0  0
 90 91  2  0  0  0  0
 91 92  4  0  0  0  0
 67 93  1  0  0  0  0
 89 93  4  0  0  0  0
 92 93  4  0  0  0  0
 92 94  4  0  0  0  0
 94 95  1  0  0  0  0
 95 96  4  0  0  0  0
 96 97  4  0  0  0  0
 97 98  4  0  0  0  0
 98 99  1  0  0  0  0
 99100  1  0  0  0  0
 98101  4  0  0  0  0
 95102  4  0  0  0  0
101102  4  0  0  0  0
 94103  4  0  0  0  0
103104  4  0  0  0  0
104105  2  0  0  0  0
 68106  4  0  0  0  0
105106  4  0  0  0  0
 67107  1  0  0  0  0
103107  4  0  0  0  0
106107  4  0  0  0  0
 68108  1  0  0  0  0
 70109  1  0  0  0  0
 71110  1  0  0  0  0
 76111  1  0  0  0  0
 77112  1  0  0  0  0
 79113  1  0  0  0  0
 80114  1  0  0  0  0
 80115  1  0  0  0  0
 80116  1  0  0  0  0
 81117  1  0  0  0  0
 82118  1  0  0  0  0
 84119  1  0  0  0  0
 85120  1  0  0  0  0
 90121  1  0  0  0  0
 91122  1  0  0  0  0
 96123  1  0  0  0  0
 97124  1  0  0  0  0
 99125  1  0  0  0  0
100126  1  0  0  0  0
100127  1  0  0  0  0
100128  1  0  0  0  0
101129  1  0  0  0  0
102130  1  0  0  0  0
104131  1  0  0  0  0
105132  1  0  0  0  0
 22133  4  0  0  0  0
 88134  4  0  0  0  0
133134  3  0  0  0  0
M  END
