258

C 31.131715 -0.028381 0.076859
C 31.865591 1.194678 0.708021
C 31.271521 2.215182 1.415041
C 32.296606 3.136804 1.754325
C 33.481024 2.651958 1.233411
N 33.213813 1.439407 0.648245
C 34.901166 3.356882 1.271106
C 34.892900 4.791511 1.591674
C 34.583322 5.683457 0.626064
C 34.514391 7.164405 0.832147
N 34.961188 7.553617 2.167759
C 35.199839 6.623670 3.152935
C 35.193691 5.305169 2.922551
C 36.027166 2.657486 0.967593
C 37.326584 3.295267 0.938150
C 38.229421 2.388610 0.582442
N 36.225028 1.344871 0.628140
C 37.554044 1.121417 0.376464
C 38.220360 -0.002297 -0.000363
C 37.442521 -1.372146 -0.197382
C 37.982372 -2.639608 -0.098016
C 36.956355 -3.566931 -0.408295
C 35.815019 -2.841153 -0.678401
N 36.107818 -1.509837 -0.492596
C 34.401798 -3.423915 -1.102422
C 34.411680 -4.758264 -1.715700
C 34.020136 -5.829383 -0.991083
C 33.949535 -7.228549 -1.518683
N 34.507236 -7.338401 -2.865865
C 34.811190 -6.220262 -3.610475
C 34.793086 -4.981279 -3.104362
C 33.280432 -2.681875 -0.906202
C 31.960078 -3.145944 -1.293405
C 31.073910 -2.212743 -0.957319
C 31.794703 -1.117070 -0.356377
N 33.115788 -1.439829 -0.359201
H 30.054531 0.022586 -0.024844
H 30.221071 2.294567 1.648206
H 32.180330 4.062901 2.296693
H 33.908716 0.817063 0.243322
H 34.356101 5.314308 -0.370507
H 33.482673 7.502497 0.684109
H 35.142944 7.668522 0.090685
H 34.659005 8.464285 2.488870
H 35.405781 7.029055 4.137331
H 35.401269 4.578572 3.700850
H 37.529811 4.329064 1.155671
H 39.280826 2.583638 0.474445
H 39.005147 -2.874871 0.155550
H 37.041251 -4.643002 -0.439533
H 35.424989 -0.757076 -0.516414
H 33.711430 -5.674655 0.040208
H 32.904557 -7.557229 -1.531310
H 34.505070 -7.899126 -0.854984
H 34.182372 -8.131364 -3.404457
H 35.073718 -6.407583 -4.645889
H 35.044063 -4.108478 -3.698175
H 31.736370 -4.080599 -1.774759
H 30.011210 -2.255131 -1.113248
C 95.711928 -0.020836 0.079009
C 94.978052 -1.392879 -0.029323
C 95.572122 -2.632778 0.033579
C 94.547037 -3.594809 -0.163898
C 93.362619 -2.908209 -0.351000
N 93.629831 -1.569340 -0.209120
C 91.942477 -3.527119 -0.690542
C 91.950743 -4.915236 -1.174336
C 92.260322 -5.164222 -2.465063
C 92.329253 -6.531353 -3.070562
N 91.882455 -7.566122 -2.140724
C 91.643805 -7.295157 -0.813338
C 91.649952 -6.053262 -0.314119
C 90.816478 -2.772790 -0.579805
C 89.517060 -3.299253 -0.941008
C 88.614222 -2.341283 -0.765376
N 90.618616 -1.478406 -0.176374
C 89.289600 -1.155854 -0.272462
C 88.623284 -0.002297 -0.000363
C 89.401123 1.265645 0.554276
C 88.861272 2.290352 1.306813
C 89.887288 3.241938 1.531943
C 91.028624 2.767552 0.919841
N 90.735826 1.538265 0.375984
C 92.441846 3.486287 0.866692
C 92.431964 4.943478 1.048884
C 92.823508 5.471754 2.229260
C 92.894109 6.938863 2.518427
N 92.336408 7.742332 1.431502
C 92.032454 7.184637 0.209351
C 92.050558 5.864976 -0.013641
C 93.563212 2.752275 0.642299
C 94.883566 3.350738 0.557873
C 95.769733 2.380553 0.351575
C 95.048941 1.132691 0.284709
N 93.727856 1.408459 0.452440
H 96.789113 -0.010538 -0.034283
H 96.622573 -2.823144 0.189876
H 94.663313 -4.667691 -0.191154
H 92.934928 -0.827035 -0.225176
H 92.487542 -4.325215 -3.117361
H 93.360970 -6.740629 -3.374576
H 91.700700 -6.568915 -3.966379
H 92.184639 -8.509265 -2.347869
H 91.437862 -8.158538 -0.190487
H 91.442375 -5.846055 0.730275
H 89.313833 -4.292427 -1.301087
H 87.562817 -2.450090 -0.959953
H 87.838497 2.356619 1.646301
H 89.802393 4.172844 2.072608
H 91.418654 0.911128 -0.041047
H 93.132214 4.796660 3.024087
H 93.939087 7.224830 2.680948
H 92.338574 7.158872 3.435905
H 92.661272 8.700088 1.391791
H 91.769926 7.889602 -0.571800
H 91.799581 5.436280 -0.978325
H 95.107274 4.398731 0.641489
H 96.832434 2.498767 0.241410
C 40.730835 0.011361 0.009191
C 42.189061 -0.010476 -0.008682
C 43.322989 -0.031229 -0.010173
C 44.684371 -0.043819 -0.012364
C 45.958590 -0.033513 -0.017129
C 47.147052 -0.014715 -0.023285
C 48.499413 0.010070 -0.007418
C 49.599680 0.011361 0.009191
C 58.929739 0.011361 0.009191
C 60.387965 -0.010476 -0.008682
C 61.521893 -0.031229 -0.010173
C 62.883275 -0.043819 -0.012364
C 64.157494 -0.033513 -0.017129
C 65.345956 -0.014715 -0.023285
C 66.698317 0.010070 -0.007418
C 67.798584 0.011361 0.009191
C 77.128643 0.011361 0.009191
C 78.586869 -0.010476 -0.008682
C 79.720797 -0.031229 -0.010173
C 81.082179 -0.043819 -0.012364
C 82.356398 -0.033513 -0.017129
C 83.544860 -0.014715 -0.023285
C 84.897221 0.010070 -0.007418
C 85.997488 0.011361 0.009191
C 50.711046 -0.000014 -0.001533
C 51.486739 -0.147580 1.377564
C 50.913562 -0.128365 2.633425
C 51.954060 -0.268161 3.579568
C 53.140077 -0.367041 2.881124
N 52.846911 -0.287393 1.539559
C 54.579680 -0.514464 3.526623
C 54.603288 -0.764476 4.977147
C 54.542372 -2.035789 5.428638
C 54.601633 -2.423432 6.873355
N 54.564670 -1.258649 7.757135
C 54.736014 0.017836 7.270264
C 54.748507 0.301032 5.962140
C 55.705593 -0.405702 2.773553
C 57.017698 -0.484744 3.381516
C 57.929618 -0.324077 2.431560
N 55.902383 -0.214337 1.431751
C 57.247218 -0.160231 1.163120
C 57.930079 -0.000014 -0.001533
C 57.153027 0.105280 -1.382364
C 57.719499 0.016711 -2.638400
C 56.679069 0.151641 -3.585576
C 55.500609 0.316376 -2.886546
N 55.796495 0.271971 -1.544412
C 54.064631 0.495786 -3.529602
C 54.045405 0.764174 -4.976661
C 54.149636 2.037729 -5.413713
C 54.098358 2.443798 -6.853571
N 54.093521 1.288786 -7.751164
C 53.877597 0.013723 -7.278164
C 53.858817 -0.283883 -5.973389
C 52.938121 0.399299 -2.775757
C 51.626989 0.514987 -3.379459
C 50.714034 0.360614 -2.429684
C 51.395262 0.163234 -1.165114
N 52.740176 0.193362 -1.436109
H 49.863536 -0.016727 2.855335
H 51.849751 -0.284415 4.654417
H 53.531641 -0.287863 0.787080
H 54.461130 -2.842235 4.704667
H 55.520934 -2.989523 7.058368
H 53.753305 -3.071935 7.114876
H 54.929931 -1.412193 8.688754
H 54.857833 0.790505 8.021556
H 54.878370 1.310821 5.587515
H 57.227747 -0.635251 4.425455
H 58.990862 -0.333279 2.599421
H 58.765021 -0.134698 -2.858370
H 56.778034 0.125271 -4.660990
H 55.114488 0.309449 -0.790603
H 54.261849 2.832532 -4.681028
H 53.197267 3.041631 -7.028536
H 54.966515 3.067218 -7.090978
H 53.728501 1.466035 -8.678598
H 53.724287 -0.745027 -8.037606
H 53.692111 -1.292239 -5.609880
H 51.418203 0.685450 -4.420604
H 49.652962 0.395149 -2.595298
C 68.909950 -0.000014 -0.001533
C 69.685643 -0.147580 1.377564
C 69.112466 -0.128365 2.633425
C 70.152964 -0.268161 3.579568
C 71.338981 -0.367041 2.881124
N 71.045815 -0.287393 1.539559
C 72.778584 -0.514464 3.526623
C 72.802192 -0.764476 4.977147
C 72.741276 -2.035789 5.428638
C 72.800537 -2.423432 6.873355
N 72.763574 -1.258649 7.757135
C 72.934918 0.017836 7.270264
C 72.947411 0.301032 5.962140
C 73.904497 -0.405702 2.773553
C 75.216602 -0.484744 3.381516
C 76.128522 -0.324077 2.431560
N 74.101287 -0.214337 1.431751
C 75.446122 -0.160231 1.163120
C 76.128983 -0.000014 -0.001533
C 75.351931 0.105280 -1.382364
C 75.918403 0.016711 -2.638400
C 74.877973 0.151641 -3.585576
C 73.699513 0.316376 -2.886546
N 73.995399 0.271971 -1.544412
C 72.263535 0.495786 -3.529602
C 72.244309 0.764174 -4.976661
C 72.348540 2.037729 -5.413713
C 72.297263 2.443798 -6.853571
N 72.292425 1.288786 -7.751164
C 72.076501 0.013723 -7.278164
C 72.057721 -0.283883 -5.973389
C 71.137025 0.399299 -2.775757
C 69.825893 0.514987 -3.379459
C 68.912938 0.360614 -2.429684
C 69.594166 0.163234 -1.165114
N 70.939080 0.193362 -1.436109
H 68.062440 -0.016727 2.855335
H 70.048655 -0.284415 4.654417
H 71.730545 -0.287863 0.787080
H 72.660034 -2.842235 4.704667
H 73.719838 -2.989523 7.058368
H 71.952209 -3.071935 7.114876
H 73.128835 -1.412193 8.688754
H 73.056737 0.790505 8.021556
H 73.077274 1.310821 5.587515
H 75.426651 -0.635251 4.425455
H 77.189766 -0.333279 2.599421
H 76.963925 -0.134698 -2.858370
H 74.976938 0.125271 -4.660990
H 73.313392 0.309449 -0.790603
H 72.460753 2.832532 -4.681028
H 71.396171 3.041631 -7.028536
H 73.165419 3.067218 -7.090978
H 71.927405 1.466035 -8.678598
H 71.923191 -0.745027 -8.037606
H 71.891015 -1.292239 -5.609880
H 69.617107 0.685450 -4.420604
H 67.851866 0.395149 -2.595298
