 xtb: 6.5.1 (b24c23e)
          07282208573D

258285  0     0  0            999 V2000
   32.1397    0.0434    0.0991 C   0  0  0  0  0  0  0  0  0  0  0  0
   32.7538    1.2231    0.4989 C   0  0  0  0  0  0  0  0  0  0  0  0
   32.1075    2.4114    0.9413 C   0  0  0  0  0  0  0  0  0  0  0  0
   33.0735    3.3354    1.2251 C   0  0  0  0  0  0  0  0  0  0  0  0
   34.3414    2.7444    0.9581 C   0  0  0  0  0  0  0  0  0  0  0  0
   34.0975    1.4691    0.5325 N   0  0  0  0  0  0  0  0  0  0  0  0
   35.6057    3.3229    1.1163 C   0  0  0  0  0  0  0  0  0  0  0  0
   35.6421    4.7391    1.5575 C   0  0  0  0  0  0  0  0  0  0  0  0
   35.0959    5.7181    0.8206 C   0  0  0  0  0  0  0  0  0  0  0  0
   35.1068    7.1610    1.2539 C   0  0  0  0  0  0  0  0  0  0  0  0
   36.0751    7.3843    2.3307 N   0  0  0  0  0  0  0  0  0  0  0  0
   36.4552    6.3570    3.1540 C   0  0  0  0  0  0  0  0  0  0  0  0
   36.3012    5.0650    2.8138 C   0  0  0  0  0  0  0  0  0  0  0  0
   36.8187    2.6679    0.8909 C   0  0  0  0  0  0  0  0  0  0  0  0
   38.1178    3.3006    1.0314 C   0  0  0  0  0  0  0  0  0  0  0  0
   39.0367    2.3599    0.7307 C   0  0  0  0  0  0  0  0  0  0  0  0
   36.9704    1.3738    0.4950 N   0  0  0  0  0  0  0  0  0  0  0  0
   38.2977    1.1577    0.3962 C   0  0  0  0  0  0  0  0  0  0  0  0
   38.9312   -0.0453    0.0239 C   0  0  0  0  0  0  0  0  0  0  0  0
   38.2907   -1.2375   -0.3646 C   0  0  0  0  0  0  0  0  0  0  0  0
   38.9300   -2.4497   -0.7366 C   0  0  0  0  0  0  0  0  0  0  0  0
   37.9587   -3.3577   -1.0562 C   0  0  0  0  0  0  0  0  0  0  0  0
   36.6952   -2.7255   -0.8931 C   0  0  0  0  0  0  0  0  0  0  0  0
   36.9482   -1.4470   -0.4694 N   0  0  0  0  0  0  0  0  0  0  0  0
   35.4321   -3.2942   -1.0892 C   0  0  0  0  0  0  0  0  0  0  0  0
   35.4020   -4.6965   -1.5704 C   0  0  0  0  0  0  0  0  0  0  0  0
   34.8364   -5.6772   -0.8510 C   0  0  0  0  0  0  0  0  0  0  0  0
   34.7793   -7.1038   -1.3315 C   0  0  0  0  0  0  0  0  0  0  0  0
   35.7211   -7.3318   -2.4309 N   0  0  0  0  0  0  0  0  0  0  0  0
   36.1215   -6.2943   -3.2320 C   0  0  0  0  0  0  0  0  0  0  0  0
   36.0236   -5.0087   -2.8499 C   0  0  0  0  0  0  0  0  0  0  0  0
   34.2174   -2.6379   -0.8647 C   0  0  0  0  0  0  0  0  0  0  0  0
   32.9102   -3.2246   -1.1154 C   0  0  0  0  0  0  0  0  0  0  0  0
   31.9993   -2.2913   -0.7722 C   0  0  0  0  0  0  0  0  0  0  0  0
   32.7486   -1.1300   -0.3274 C   0  0  0  0  0  0  0  0  0  0  0  0
   34.0801   -1.3718   -0.4031 N   0  0  0  0  0  0  0  0  0  0  0  0
   31.0545    0.0502    0.1190 H   0  0  0  0  0  0  0  0  0  0  0  0
   31.0393    2.5291    1.0312 H   0  0  0  0  0  0  0  0  0  0  0  0
   32.9276    4.3368    1.5963 H   0  0  0  0  0  0  0  0  0  0  0  0
   34.8191    0.8021    0.2803 H   0  0  0  0  0  0  0  0  0  0  0  0
   34.6063    5.5158   -0.1250 H   0  0  0  0  0  0  0  0  0  0  0  0
   34.0962    7.4684    1.5829 H   0  0  0  0  0  0  0  0  0  0  0  0
   35.3828    7.8072    0.4095 H   0  0  0  0  0  0  0  0  0  0  0  0
   36.0105    8.2979    2.7558 H   0  0  0  0  0  0  0  0  0  0  0  0
   36.9638    6.6663    4.0615 H   0  0  0  0  0  0  0  0  0  0  0  0
   36.6518    4.2678    3.4536 H   0  0  0  0  0  0  0  0  0  0  0  0
   38.2815    4.3277    1.3151 H   0  0  0  0  0  0  0  0  0  0  0  0
   40.1114    2.4475    0.7202 H   0  0  0  0  0  0  0  0  0  0  0  0
   39.9976   -2.5990   -0.7515 H   0  0  0  0  0  0  0  0  0  0  0  0
   38.1005   -4.3786   -1.3715 H   0  0  0  0  0  0  0  0  0  0  0  0
   36.2298   -0.7631   -0.2558 H   0  0  0  0  0  0  0  0  0  0  0  0
   34.3757   -5.4864    0.1112 H   0  0  0  0  0  0  0  0  0  0  0  0
   33.7518   -7.3567   -1.6537 H   0  0  0  0  0  0  0  0  0  0  0  0
   35.0404   -7.7891   -0.5138 H   0  0  0  0  0  0  0  0  0  0  0  0
   35.6092   -8.2273   -2.8840 H   0  0  0  0  0  0  0  0  0  0  0  0
   36.5993   -6.5941   -4.1593 H   0  0  0  0  0  0  0  0  0  0  0  0
   36.3890   -4.2060   -3.4746 H   0  0  0  0  0  0  0  0  0  0  0  0
   32.7374   -4.2121   -1.5120 H   0  0  0  0  0  0  0  0  0  0  0  0
   30.9228   -2.3498   -0.8158 H   0  0  0  0  0  0  0  0  0  0  0  0
   94.7120   -0.0987    0.0736 C   0  0  0  0  0  0  0  0  0  0  0  0
   94.0979   -1.3100   -0.2166 C   0  0  0  0  0  0  0  0  0  0  0  0
   94.7432   -2.5562   -0.4524 C   0  0  0  0  0  0  0  0  0  0  0  0
   93.7776   -3.4883   -0.7102 C   0  0  0  0  0  0  0  0  0  0  0  0
   92.5110   -2.8400   -0.6487 C   0  0  0  0  0  0  0  0  0  0  0  0
   92.7551   -1.5318   -0.3388 N   0  0  0  0  0  0  0  0  0  0  0  0
   91.2475   -3.4102   -0.8394 C   0  0  0  0  0  0  0  0  0  0  0  0
   91.2109   -4.8484   -1.2022 C   0  0  0  0  0  0  0  0  0  0  0  0
   91.7754   -5.3026   -2.3313 C   0  0  0  0  0  0  0  0  0  0  0  0
   91.7652   -6.7599   -2.7136 C   0  0  0  0  0  0  0  0  0  0  0  0
   90.7827   -7.5087   -1.9256 N   0  0  0  0  0  0  0  0  0  0  0  0
   90.3817   -7.0581   -0.6953 C   0  0  0  0  0  0  0  0  0  0  0  0
   90.5324   -5.7781   -0.3111 C   0  0  0  0  0  0  0  0  0  0  0  0
   90.0350   -2.7280   -0.7132 C   0  0  0  0  0  0  0  0  0  0  0  0
   88.7377   -3.3343   -0.9527 C   0  0  0  0  0  0  0  0  0  0  0  0
   87.8188   -2.3705   -0.7371 C   0  0  0  0  0  0  0  0  0  0  0  0
   89.8826   -1.4176   -0.3760 N   0  0  0  0  0  0  0  0  0  0  0  0
   88.5560   -1.1750   -0.3757 C   0  0  0  0  0  0  0  0  0  0  0  0
   87.9221    0.0465   -0.0711 C   0  0  0  0  0  0  0  0  0  0  0  0
   88.5624    1.2599    0.2459 C   0  0  0  0  0  0  0  0  0  0  0  0
   87.9225    2.4872    0.5633 C   0  0  0  0  0  0  0  0  0  0  0  0
   88.8937    3.4213    0.7956 C   0  0  0  0  0  0  0  0  0  0  0  0
   90.1579    2.7935    0.6219 C   0  0  0  0  0  0  0  0  0  0  0  0
   89.9053    1.4867    0.2954 N   0  0  0  0  0  0  0  0  0  0  0  0
   91.4209    3.3740    0.7810 C   0  0  0  0  0  0  0  0  0  0  0  0
   91.4514    4.8170    1.1210 C   0  0  0  0  0  0  0  0  0  0  0  0
   92.0008    5.2612    2.2613 C   0  0  0  0  0  0  0  0  0  0  0  0
   92.0580    6.7241    2.6159 C   0  0  0  0  0  0  0  0  0  0  0  0
   91.1308    7.5061    1.7934 N   0  0  0  0  0  0  0  0  0  0  0  0
   90.7489    7.0573    0.5559 C   0  0  0  0  0  0  0  0  0  0  0  0
   90.8482    5.7656    0.1952 C   0  0  0  0  0  0  0  0  0  0  0  0
   92.6354    2.6940    0.6424 C   0  0  0  0  0  0  0  0  0  0  0  0
   93.9432    3.3197    0.7609 C   0  0  0  0  0  0  0  0  0  0  0  0
   94.8536    2.3433    0.5705 C   0  0  0  0  0  0  0  0  0  0  0  0
   94.1037    1.1253    0.3212 C   0  0  0  0  0  0  0  0  0  0  0  0
   92.7723    1.3753    0.3646 N   0  0  0  0  0  0  0  0  0  0  0  0
   95.7969   -0.1190    0.1039 H   0  0  0  0  0  0  0  0  0  0  0  0
   95.8105   -2.7078   -0.4203 H   0  0  0  0  0  0  0  0  0  0  0  0
   93.9229   -4.5363   -0.9163 H   0  0  0  0  0  0  0  0  0  0  0  0
   92.0341   -0.8288   -0.2156 H   0  0  0  0  0  0  0  0  0  0  0  0
   92.2801   -4.6395   -3.0243 H   0  0  0  0  0  0  0  0  0  0  0  0
   92.7724   -7.1970   -2.5780 H   0  0  0  0  0  0  0  0  0  0  0  0
   91.5048   -6.8705   -3.7751 H   0  0  0  0  0  0  0  0  0  0  0  0
   90.8471   -8.5102   -2.0364 H   0  0  0  0  0  0  0  0  0  0  0  0
   89.8603   -7.7930   -0.0901 H   0  0  0  0  0  0  0  0  0  0  0  0
   90.1653   -5.4290    0.6434 H   0  0  0  0  0  0  0  0  0  0  0  0
   88.5754   -4.3572   -1.2519 H   0  0  0  0  0  0  0  0  0  0  0  0
   86.7451   -2.4342   -0.8152 H   0  0  0  0  0  0  0  0  0  0  0  0
   86.8544    2.6265    0.6090 H   0  0  0  0  0  0  0  0  0  0  0  0
   88.7512    4.4540    1.0695 H   0  0  0  0  0  0  0  0  0  0  0  0
   90.6239    0.7904    0.1273 H   0  0  0  0  0  0  0  0  0  0  0  0
   92.4474    4.5851    2.9810 H   0  0  0  0  0  0  0  0  0  0  0  0
   93.0888    7.1062    2.4930 H   0  0  0  0  0  0  0  0  0  0  0  0
   91.7820    6.8693    3.6691 H   0  0  0  0  0  0  0  0  0  0  0  0
   91.2442    8.5049    1.8896 H   0  0  0  0  0  0  0  0  0  0  0  0
   90.2836    7.8070   -0.0761 H   0  0  0  0  0  0  0  0  0  0  0  0
   90.4974    5.4209   -0.7672 H   0  0  0  0  0  0  0  0  0  0  0  0
   94.1167    4.3666    0.9508 H   0  0  0  0  0  0  0  0  0  0  0  0
   95.9303    2.4123    0.5807 H   0  0  0  0  0  0  0  0  0  0  0  0
   40.3373   -0.0693    0.0313 C   0  0  0  0  0  0  0  0  0  0  0  0
   41.5617   -0.0930    0.0423 C   0  0  0  0  0  0  0  0  0  0  0  0
   42.9049   -0.1100    0.0549 C   0  0  0  0  0  0  0  0  0  0  0  0
   44.1355   -0.1248    0.0644 C   0  0  0  0  0  0  0  0  0  0  0  0
   45.4740   -0.1344    0.0729 C   0  0  0  0  0  0  0  0  0  0  0  0
   46.7048   -0.1367    0.0810 C   0  0  0  0  0  0  0  0  0  0  0  0
   48.0479   -0.1330    0.0835 C   0  0  0  0  0  0  0  0  0  0  0  0
   49.2728   -0.1287    0.0739 C   0  0  0  0  0  0  0  0  0  0  0  0
   58.9587    0.0430   -0.0057 C   0  0  0  0  0  0  0  0  0  0  0  0
   60.1843    0.0358   -0.0113 C   0  0  0  0  0  0  0  0  0  0  0  0
   61.5262    0.0267   -0.0099 C   0  0  0  0  0  0  0  0  0  0  0  0
   62.7578    0.0146   -0.0031 C   0  0  0  0  0  0  0  0  0  0  0  0
   64.0949   -0.0039    0.0047 C   0  0  0  0  0  0  0  0  0  0  0  0
   65.3264   -0.0191    0.0097 C   0  0  0  0  0  0  0  0  0  0  0  0
   66.6683   -0.0310    0.0122 C   0  0  0  0  0  0  0  0  0  0  0  0
   67.8939   -0.0371    0.0130 C   0  0  0  0  0  0  0  0  0  0  0  0
   77.5803    0.1178   -0.0352 C   0  0  0  0  0  0  0  0  0  0  0  0
   78.8051    0.1272   -0.0458 C   0  0  0  0  0  0  0  0  0  0  0  0
   80.1482    0.1325   -0.0529 C   0  0  0  0  0  0  0  0  0  0  0  0
   81.3791    0.1335   -0.0592 C   0  0  0  0  0  0  0  0  0  0  0  0
   82.7176    0.1237   -0.0694 C   0  0  0  0  0  0  0  0  0  0  0  0
   83.9482    0.1076   -0.0769 C   0  0  0  0  0  0  0  0  0  0  0  0
   85.2915    0.0908   -0.0788 C   0  0  0  0  0  0  0  0  0  0  0  0
   86.5160    0.0708   -0.0806 C   0  0  0  0  0  0  0  0  0  0  0  0
   50.6778   -0.1118    0.0641 C   0  0  0  0  0  0  0  0  0  0  0  0
   51.3188   -0.3146    1.3016 C   0  0  0  0  0  0  0  0  0  0  0  0
   50.6860   -0.5095    2.5564 C   0  0  0  0  0  0  0  0  0  0  0  0
   51.6639   -0.6416    3.5043 C   0  0  0  0  0  0  0  0  0  0  0  0
   52.9233   -0.5403    2.8530 C   0  0  0  0  0  0  0  0  0  0  0  0
   52.6633   -0.3395    1.5233 N   0  0  0  0  0  0  0  0  0  0  0  0
   54.1893   -0.6030    3.4465 C   0  0  0  0  0  0  0  0  0  0  0  0
   54.2239   -0.8477    4.9105 C   0  0  0  0  0  0  0  0  0  0  0  0
   53.7590   -1.9871    5.4444 C   0  0  0  0  0  0  0  0  0  0  0  0
   53.8345   -2.2763    6.9206 C   0  0  0  0  0  0  0  0  0  0  0  0
   54.0758   -1.0514    7.6875 N   0  0  0  0  0  0  0  0  0  0  0  0
   54.6950    0.0256    7.1098 C   0  0  0  0  0  0  0  0  0  0  0  0
   54.7722    0.1852    5.7766 C   0  0  0  0  0  0  0  0  0  0  0  0
   55.4076   -0.4576    2.7819 C   0  0  0  0  0  0  0  0  0  0  0  0
   56.6987   -0.5894    3.4327 C   0  0  0  0  0  0  0  0  0  0  0  0
   57.6310   -0.4119    2.4738 C   0  0  0  0  0  0  0  0  0  0  0  0
   55.5773   -0.2131    1.4528 N   0  0  0  0  0  0  0  0  0  0  0  0
   56.9080   -0.1767    1.2397 C   0  0  0  0  0  0  0  0  0  0  0  0
   57.5549    0.0425    0.0059 C   0  0  0  0  0  0  0  0  0  0  0  0
   56.9134    0.2483   -1.2316 C   0  0  0  0  0  0  0  0  0  0  0  0
   57.5458    0.4398   -2.4869 C   0  0  0  0  0  0  0  0  0  0  0  0
   56.5676    0.5780   -3.4338 C   0  0  0  0  0  0  0  0  0  0  0  0
   55.3083    0.4825   -2.7815 C   0  0  0  0  0  0  0  0  0  0  0  0
   55.5690    0.2806   -1.4517 N   0  0  0  0  0  0  0  0  0  0  0  0
   54.0422    0.5490   -3.3739 C   0  0  0  0  0  0  0  0  0  0  0  0
   54.0044    0.7922   -4.8379 C   0  0  0  0  0  0  0  0  0  0  0  0
   54.4696    1.9295   -5.3758 C   0  0  0  0  0  0  0  0  0  0  0  0
   54.3866    2.2190   -6.8515 C   0  0  0  0  0  0  0  0  0  0  0  0
   54.1196    0.9989   -7.6178 N   0  0  0  0  0  0  0  0  0  0  0  0
   53.5049   -0.0768   -7.0332 C   0  0  0  0  0  0  0  0  0  0  0  0
   53.4455   -0.2390   -5.6995 C   0  0  0  0  0  0  0  0  0  0  0  0
   52.8238    0.4048   -2.7084 C   0  0  0  0  0  0  0  0  0  0  0  0
   51.5324    0.5387   -3.3586 C   0  0  0  0  0  0  0  0  0  0  0  0
   50.6003    0.3544   -2.4009 C   0  0  0  0  0  0  0  0  0  0  0  0
   51.3236    0.1149   -1.1678 C   0  0  0  0  0  0  0  0  0  0  0  0
   52.6548    0.1553   -1.3808 N   0  0  0  0  0  0  0  0  0  0  0  0
   49.6188   -0.5358    2.7065 H   0  0  0  0  0  0  0  0  0  0  0  0
   51.5285   -0.7873    4.5635 H   0  0  0  0  0  0  0  0  0  0  0  0
   53.3734   -0.2178    0.8090 H   0  0  0  0  0  0  0  0  0  0  0  0
   53.3728   -2.7903    4.8277 H   0  0  0  0  0  0  0  0  0  0  0  0
   54.6312   -3.0161    7.1252 H   0  0  0  0  0  0  0  0  0  0  0  0
   52.8890   -2.7142    7.2684 H   0  0  0  0  0  0  0  0  0  0  0  0
   54.2770   -1.2130    8.6637 H   0  0  0  0  0  0  0  0  0  0  0  0
   55.0418    0.7791    7.8097 H   0  0  0  0  0  0  0  0  0  0  0  0
   55.1964    1.0780    5.3396 H   0  0  0  0  0  0  0  0  0  0  0  0
   56.8483   -0.8028    4.4789 H   0  0  0  0  0  0  0  0  0  0  0  0
   58.7052   -0.4383    2.5651 H   0  0  0  0  0  0  0  0  0  0  0  0
   58.6130    0.4605   -2.6381 H   0  0  0  0  0  0  0  0  0  0  0  0
   56.7025    0.7237   -4.4931 H   0  0  0  0  0  0  0  0  0  0  0  0
   54.8590    0.1612   -0.7369 H   0  0  0  0  0  0  0  0  0  0  0  0
   54.8611    2.7325   -4.7620 H   0  0  0  0  0  0  0  0  0  0  0  0
   53.5998    2.9711   -7.0493 H   0  0  0  0  0  0  0  0  0  0  0  0
   55.3358    2.6428   -7.2070 H   0  0  0  0  0  0  0  0  0  0  0  0
   53.9013    1.1655   -8.5895 H   0  0  0  0  0  0  0  0  0  0  0  0
   53.1449   -0.8272   -7.7298 H   0  0  0  0  0  0  0  0  0  0  0  0
   53.0240   -1.1312   -5.2587 H   0  0  0  0  0  0  0  0  0  0  0  0
   51.3823    0.7577   -4.4035 H   0  0  0  0  0  0  0  0  0  0  0  0
   49.5261    0.3799   -2.4919 H   0  0  0  0  0  0  0  0  0  0  0  0
   69.2978   -0.0394    0.0058 C   0  0  0  0  0  0  0  0  0  0  0  0
   69.9348   -0.2518    1.2444 C   0  0  0  0  0  0  0  0  0  0  0  0
   69.2977   -0.4499    2.4964 C   0  0  0  0  0  0  0  0  0  0  0  0
   70.2723   -0.5936    3.4461 C   0  0  0  0  0  0  0  0  0  0  0  0
   71.5340   -0.4943    2.7990 C   0  0  0  0  0  0  0  0  0  0  0  0
   71.2784   -0.2855    1.4694 N   0  0  0  0  0  0  0  0  0  0  0  0
   72.7977   -0.5618    3.3966 C   0  0  0  0  0  0  0  0  0  0  0  0
   72.8285   -0.8132    4.8595 C   0  0  0  0  0  0  0  0  0  0  0  0
   72.3651   -1.9559    5.3873 C   0  0  0  0  0  0  0  0  0  0  0  0
   72.4404   -2.2543    6.8618 C   0  0  0  0  0  0  0  0  0  0  0  0
   72.6955   -1.0373    7.6371 N   0  0  0  0  0  0  0  0  0  0  0  0
   73.3092    0.0447    7.0632 C   0  0  0  0  0  0  0  0  0  0  0  0
   73.3773    0.2152    5.7309 C   0  0  0  0  0  0  0  0  0  0  0  0
   74.0188   -0.4121    2.7374 C   0  0  0  0  0  0  0  0  0  0  0  0
   75.3077   -0.5428    3.3933 C   0  0  0  0  0  0  0  0  0  0  0  0
   76.2436   -0.3559    2.4397 C   0  0  0  0  0  0  0  0  0  0  0  0
   74.1931   -0.1610    1.4108 N   0  0  0  0  0  0  0  0  0  0  0  0
   75.5251   -0.1182    1.2035 C   0  0  0  0  0  0  0  0  0  0  0  0
   76.1752    0.1061   -0.0266 C   0  0  0  0  0  0  0  0  0  0  0  0
   75.5386    0.3043   -1.2673 C   0  0  0  0  0  0  0  0  0  0  0  0
   76.1766    0.4904   -2.5207 C   0  0  0  0  0  0  0  0  0  0  0  0
   75.2027    0.6200   -3.4729 C   0  0  0  0  0  0  0  0  0  0  0  0
   73.9406    0.5260   -2.8259 C   0  0  0  0  0  0  0  0  0  0  0  0
   74.1951    0.3313   -1.4941 N   0  0  0  0  0  0  0  0  0  0  0  0
   72.6769    0.5914   -3.4241 C   0  0  0  0  0  0  0  0  0  0  0  0
   72.6486    0.8280   -4.8895 C   0  0  0  0  0  0  0  0  0  0  0  0
   73.1253    1.9597   -5.4295 C   0  0  0  0  0  0  0  0  0  0  0  0
   73.0578    2.2394   -6.9080 C   0  0  0  0  0  0  0  0  0  0  0  0
   72.8068    1.0119   -7.6675 N   0  0  0  0  0  0  0  0  0  0  0  0
   72.1759   -0.0555   -7.0845 C   0  0  0  0  0  0  0  0  0  0  0  0
   72.0934   -0.2055   -5.7505 C   0  0  0  0  0  0  0  0  0  0  0  0
   71.4558    0.4545   -2.7629 C   0  0  0  0  0  0  0  0  0  0  0  0
   70.1674    0.5930   -3.4176 C   0  0  0  0  0  0  0  0  0  0  0  0
   69.2312    0.4204   -2.4615 C   0  0  0  0  0  0  0  0  0  0  0  0
   69.9493    0.1811   -1.2254 C   0  0  0  0  0  0  0  0  0  0  0  0
   71.2808    0.2115   -1.4342 N   0  0  0  0  0  0  0  0  0  0  0  0
   68.2298   -0.4714    2.6434 H   0  0  0  0  0  0  0  0  0  0  0  0
   70.1334   -0.7454    4.5040 H   0  0  0  0  0  0  0  0  0  0  0  0
   71.9911   -0.1631    0.7578 H   0  0  0  0  0  0  0  0  0  0  0  0
   71.9805   -2.7566    4.7662 H   0  0  0  0  0  0  0  0  0  0  0  0
   73.2301   -3.0031    7.0600 H   0  0  0  0  0  0  0  0  0  0  0  0
   71.4914   -2.6855    7.2086 H   0  0  0  0  0  0  0  0  0  0  0  0
   72.9074   -1.2085    8.6094 H   0  0  0  0  0  0  0  0  0  0  0  0
   73.6608    0.7927    7.7668 H   0  0  0  0  0  0  0  0  0  0  0  0
   73.7975    1.1119    5.2984 H   0  0  0  0  0  0  0  0  0  0  0  0
   75.4537   -0.7613    4.4389 H   0  0  0  0  0  0  0  0  0  0  0  0
   77.3174   -0.3785    2.5353 H   0  0  0  0  0  0  0  0  0  0  0  0
   77.2445    0.5128   -2.6670 H   0  0  0  0  0  0  0  0  0  0  0  0
   75.3426    0.7593   -4.5324 H   0  0  0  0  0  0  0  0  0  0  0  0
   73.4819    0.2145   -0.7821 H   0  0  0  0  0  0  0  0  0  0  0  0
   73.5166    2.7637   -4.8170 H   0  0  0  0  0  0  0  0  0  0  0  0
   72.2694    2.9858   -7.1205 H   0  0  0  0  0  0  0  0  0  0  0  0
   74.0089    2.6653   -7.2554 H   0  0  0  0  0  0  0  0  0  0  0  0
   72.6099    1.1688   -8.6453 H   0  0  0  0  0  0  0  0  0  0  0  0
   71.8241   -0.8103   -7.7804 H   0  0  0  0  0  0  0  0  0  0  0  0
   71.6598   -1.0914   -5.3089 H   0  0  0  0  0  0  0  0  0  0  0  0
   70.0221    0.8074   -4.4642 H   0  0  0  0  0  0  0  0  0  0  0  0
   68.1575    0.4525   -2.5561 H   0  0  0  0  0  0  0  0  0  0  0  0
  1  2  4  0  0  0  0
  2  3  4  0  0  0  0
  3  4  2  0  0  0  0
  4  5  4  0  0  0  0
  2  6  4  0  0  0  0
  5  6  4  0  0  0  0
  5  7  4  0  0  0  0
  7  8  1  0  0  0  0
  8  9  2  0  0  0  0
  9 10  1  0  0  0  0
 10 11  1  0  0  0  0
 11 12  1  0  0  0  0
  8 13  1  0  0  0  0
 12 13  2  0  0  0  0
  7 14  4  0  0  0  0
 14 15  1  0  0  0  0
 15 16  2  0  0  0  0
 14 17  4  0  0  0  0
 16 18  1  0  0  0  0
 17 18  4  0  0  0  0
 18 19  4  0  0  0  0
 19 20  4  0  0  0  0
 20 21  4  0  0  0  0
 21 22  2  0  0  0  0
 22 23  4  0  0  0  0
 20 24  4  0  0  0  0
 23 24  4  0  0  0  0
 23 25  4  0  0  0  0
 25 26  1  0  0  0  0
 26 27  2  0  0  0  0
 27 28  1  0  0  0  0
 28 29  1  0  0  0  0
 29 30  1  0  0  0  0
 26 31  1  0  0  0  0
 30 31  2  0  0  0  0
 25 32  4  0  0  0  0
 32 33  1  0  0  0  0
 33 34  2  0  0  0  0
  1 35  4  0  0  0  0
 34 35  1  0  0  0  0
 32 36  4  0  0  0  0
 35 36  4  0  0  0  0
  1 37  1  0  0  0  0
  3 38  1  0  0  0  0
  4 39  1  0  0  0  0
  6 40  1  0  0  0  0
  9 41  1  0  0  0  0
 10 42  1  0  0  0  0
 10 43  1  0  0  0  0
 11 44  1  0  0  0  0
 12 45  1  0  0  0  0
 13 46  1  0  0  0  0
 15 47  1  0  0  0  0
 16 48  1  0  0  0  0
 21 49  1  0  0  0  0
 22 50  1  0  0  0  0
 24 51  1  0  0  0  0
 27 52  1  0  0  0  0
 28 53  1  0  0  0  0
 28 54  1  0  0  0  0
 29 55  1  0  0  0  0
 30 56  1  0  0  0  0
 31 57  1  0  0  0  0
 33 58  1  0  0  0  0
 34 59  1  0  0  0  0
 60 61  4  0  0  0  0
 61 62  4  0  0  0  0
 62 63  2  0  0  0  0
 63 64  4  0  0  0  0
 61 65  4  0  0  0  0
 64 65  4  0  0  0  0
 64 66  4  0  0  0  0
 66 67  1  0  0  0  0
 67 68  2  0  0  0  0
 68 69  1  0  0  0  0
 69 70  1  0  0  0  0
 70 71  1  0  0  0  0
 67 72  1  0  0  0  0
 71 72  2  0  0  0  0
 66 73  4  0  0  0  0
 73 74  1  0  0  0  0
 74 75  2  0  0  0  0
 73 76  4  0  0  0  0
 75 77  1  0  0  0  0
 76 77  4  0  0  0  0
 77 78  4  0  0  0  0
 78 79  4  0  0  0  0
 79 80  4  0  0  0  0
 80 81  2  0  0  0  0
 81 82  4  0  0  0  0
 79 83  4  0  0  0  0
 82 83  4  0  0  0  0
 82 84  4  0  0  0  0
 84 85  1  0  0  0  0
 85 86  2  0  0  0  0
 86 87  1  0  0  0  0
 87 88  1  0  0  0  0
 88 89  1  0  0  0  0
 85 90  1  0  0  0  0
 89 90  2  0  0  0  0
 84 91  4  0  0  0  0
 91 92  1  0  0  0  0
 92 93  2  0  0  0  0
 60 94  4  0  0  0  0
 93 94  1  0  0  0  0
 91 95  4  0  0  0  0
 94 95  4  0  0  0  0
 60 96  1  0  0  0  0
 62 97  1  0  0  0  0
 63 98  1  0  0  0  0
 65 99  1  0  0  0  0
 68100  1  0  0  0  0
 69101  1  0  0  0  0
 69102  1  0  0  0  0
 70103  1  0  0  0  0
 71104  1  0  0  0  0
 72105  1  0  0  0  0
 74106  1  0  0  0  0
 75107  1  0  0  0  0
 80108  1  0  0  0  0
 81109  1  0  0  0  0
 83110  1  0  0  0  0
 86111  1  0  0  0  0
 87112  1  0  0  0  0
 87113  1  0  0  0  0
 88114  1  0  0  0  0
 89115  1  0  0  0  0
 90116  1  0  0  0  0
 92117  1  0  0  0  0
 93118  1  0  0  0  0
 19119  4  0  0  0  0
119120  3  0  0  0  0
120121  4  0  0  0  0
121122  3  0  0  0  0
122123  4  0  0  0  0
123124  3  0  0  0  0
124125  4  0  0  0  0
125126  3  0  0  0  0
127128  3  0  0  0  0
128129  4  0  0  0  0
129130  3  0  0  0  0
130131  4  0  0  0  0
131132  3  0  0  0  0
132133  4  0  0  0  0
133134  3  0  0  0  0
135136  3  0  0  0  0
136137  4  0  0  0  0
137138  3  0  0  0  0
138139  4  0  0  0  0
139140  3  0  0  0  0
140141  4  0  0  0  0
 78142  4  0  0  0  0
141142  3  0  0  0  0
126143  4  0  0  0  0
143144  4  0  0  0  0
144145  4  0  0  0  0
145146  2  0  0  0  0
146147  4  0  0  0  0
144148  4  0  0  0  0
147148  4  0  0  0  0
147149  4  0  0  0  0
149150  1  0  0  0  0
150151  2  0  0  0  0
151152  1  0  0  0  0
152153  1  0  0  0  0
153154  1  0  0  0  0
150155  1  0  0  0  0
154155  2  0  0  0  0
149156  4  0  0  0  0
156157  1  0  0  0  0
157158  2  0  0  0  0
156159  4  0  0  0  0
158160  1  0  0  0  0
159160  4  0  0  0  0
127161  4  0  0  0  0
160161  4  0  0  0  0
161162  4  0  0  0  0
162163  4  0  0  0  0
163164  2  0  0  0  0
164165  4  0  0  0  0
162166  4  0  0  0  0
165166  4  0  0  0  0
165167  4  0  0  0  0
167168  1  0  0  0  0
168169  2  0  0  0  0
169170  1  0  0  0  0
170171  1  0  0  0  0
171172  1  0  0  0  0
168173  1  0  0  0  0
172173  2  0  0  0  0
167174  4  0  0  0  0
174175  1  0  0  0  0
175176  2  0  0  0  0
143177  4  0  0  0  0
176177  1  0  0  0  0
174178  4  0  0  0  0
177178  4  0  0  0  0
145179  1  0  0  0  0
146180  1  0  0  0  0
148181  1  0  0  0  0
151182  1  0  0  0  0
152183  1  0  0  0  0
152184  1  0  0  0  0
153185  1  0  0  0  0
154186  1  0  0  0  0
155187  1  0  0  0  0
157188  1  0  0  0  0
158189  1  0  0  0  0
163190  1  0  0  0  0
164191  1  0  0  0  0
166192  1  0  0  0  0
169193  1  0  0  0  0
170194  1  0  0  0  0
170195  1  0  0  0  0
171196  1  0  0  0  0
172197  1  0  0  0  0
173198  1  0  0  0  0
175199  1  0  0  0  0
176200  1  0  0  0  0
134201  4  0  0  0  0
201202  4  0  0  0  0
202203  4  0  0  0  0
203204  2  0  0  0  0
204205  4  0  0  0  0
202206  4  0  0  0  0
205206  4  0  0  0  0
205207  4  0  0  0  0
207208  1  0  0  0  0
208209  2  0  0  0  0
209210  1  0  0  0  0
210211  1  0  0  0  0
211212  1  0  0  0  0
208213  1  0  0  0  0
212213  2  0  0  0  0
207214  4  0  0  0  0
214215  1  0  0  0  0
215216  2  0  0  0  0
214217  4  0  0  0  0
216218  1  0  0  0  0
217218  4  0  0  0  0
135219  4  0  0  0  0
218219  4  0  0  0  0
219220  4  0  0  0  0
220221  4  0  0  0  0
221222  2  0  0  0  0
222223  4  0  0  0  0
220224  4  0  0  0  0
223224  4  0  0  0  0
223225  4  0  0  0  0
225226  1  0  0  0  0
226227  2  0  0  0  0
227228  1  0  0  0  0
228229  1  0  0  0  0
229230  1  0  0  0  0
226231  1  0  0  0  0
230231  2  0  0  0  0
225232  4  0  0  0  0
232233  1  0  0  0  0
233234  2  0  0  0  0
201235  4  0  0  0  0
234235  1  0  0  0  0
232236  4  0  0  0  0
235236  4  0  0  0  0
203237  1  0  0  0  0
204238  1  0  0  0  0
206239  1  0  0  0  0
209240  1  0  0  0  0
210241  1  0  0  0  0
210242  1  0  0  0  0
211243  1  0  0  0  0
212244  1  0  0  0  0
213245  1  0  0  0  0
215246  1  0  0  0  0
216247  1  0  0  0  0
221248  1  0  0  0  0
222249  1  0  0  0  0
224250  1  0  0  0  0
227251  1  0  0  0  0
228252  1  0  0  0  0
228253  1  0  0  0  0
229254  1  0  0  0  0
230255  1  0  0  0  0
231256  1  0  0  0  0
233257  1  0  0  0  0
234258  1  0  0  0  0
M  END
