 xtb: 6.5.1 (b24c23e)
          07272213563D

192212  0     0  0            999 V2000
   31.3242   -0.0473   -0.2251 C   0  0  0  0  0  0  0  0  0  0  0  0
   31.9221    1.1706   -0.5211 C   0  0  0  0  0  0  0  0  0  0  0  0
   31.2608    2.3998   -0.7994 C   0  0  0  0  0  0  0  0  0  0  0  0
   32.2156    3.3434   -1.0540 C   0  0  0  0  0  0  0  0  0  0  0  0
   33.4914    2.7184   -0.9493 C   0  0  0  0  0  0  0  0  0  0  0  0
   33.2635    1.4138   -0.6153 N   0  0  0  0  0  0  0  0  0  0  0  0
   34.7488    3.3027   -1.1359 C   0  0  0  0  0  0  0  0  0  0  0  0
   34.7641    4.7328   -1.5319 C   0  0  0  0  0  0  0  0  0  0  0  0
   35.3752    5.6833   -0.7188 C   0  0  0  0  0  0  0  0  0  0  0  0
   35.3838    7.0282   -1.0860 C   0  0  0  0  0  0  0  0  0  0  0  0
   36.0460    7.9944   -0.1739 C   0  0  0  0  0  0  0  0  0  0  0  0
   35.9860    9.2635   -0.6028 O   0  0  0  0  0  0  0  0  0  0  0  0
   36.5909    7.6931    0.8570 O   0  0  0  0  0  0  0  0  0  0  0  0
   34.7815    7.4316   -2.2778 C   0  0  0  0  0  0  0  0  0  0  0  0
   34.1756    6.4868   -3.0910 C   0  0  0  0  0  0  0  0  0  0  0  0
   34.1636    5.1488   -2.7226 C   0  0  0  0  0  0  0  0  0  0  0  0
   35.9734    2.6487   -0.9790 C   0  0  0  0  0  0  0  0  0  0  0  0
   37.2597    3.2644   -1.2521 C   0  0  0  0  0  0  0  0  0  0  0  0
   38.1945    2.3304   -0.9817 C   0  0  0  0  0  0  0  0  0  0  0  0
   36.1482    1.3615   -0.5731 N   0  0  0  0  0  0  0  0  0  0  0  0
   37.4798    1.1452   -0.5494 C   0  0  0  0  0  0  0  0  0  0  0  0
   38.1328   -0.0427   -0.1654 C   0  0  0  0  0  0  0  0  0  0  0  0
   37.5071   -1.2473    0.2063 C   0  0  0  0  0  0  0  0  0  0  0  0
   38.1551   -2.4318    0.6455 C   0  0  0  0  0  0  0  0  0  0  0  0
   37.1951   -3.3740    0.8906 C   0  0  0  0  0  0  0  0  0  0  0  0
   35.9287   -2.7928    0.6059 C   0  0  0  0  0  0  0  0  0  0  0  0
   36.1679   -1.5046    0.2074 N   0  0  0  0  0  0  0  0  0  0  0  0
   34.6734   -3.3983    0.7285 C   0  0  0  0  0  0  0  0  0  0  0  0
   34.6631   -4.8258    1.1334 C   0  0  0  0  0  0  0  0  0  0  0  0
   35.2741   -5.7930    0.3321 C   0  0  0  0  0  0  0  0  0  0  0  0
   35.2694   -7.1291    0.7081 C   0  0  0  0  0  0  0  0  0  0  0  0
   34.6607   -7.5154    1.8905 C   0  0  0  0  0  0  0  0  0  0  0  0
   34.0491   -6.5579    2.7013 C   0  0  0  0  0  0  0  0  0  0  0  0
   33.4147   -7.0115    3.9646 C   0  0  0  0  0  0  0  0  0  0  0  0
   32.8600   -6.0180    4.6738 O   0  0  0  0  0  0  0  0  0  0  0  0
   33.3891   -8.1559    4.3387 O   0  0  0  0  0  0  0  0  0  0  0  0
   34.0484   -5.2175    2.3209 C   0  0  0  0  0  0  0  0  0  0  0  0
   33.4485   -2.7621    0.5069 C   0  0  0  0  0  0  0  0  0  0  0  0
   32.1547   -3.4214    0.5985 C   0  0  0  0  0  0  0  0  0  0  0  0
   31.2269   -2.4795    0.3351 C   0  0  0  0  0  0  0  0  0  0  0  0
   31.9531   -1.2493    0.0719 C   0  0  0  0  0  0  0  0  0  0  0  0
   33.2882   -1.4598    0.1724 N   0  0  0  0  0  0  0  0  0  0  0  0
   30.2389   -0.0508   -0.2285 H   0  0  0  0  0  0  0  0  0  0  0  0
   30.1907    2.5328   -0.7959 H   0  0  0  0  0  0  0  0  0  0  0  0
   32.0563    4.3842   -1.2851 H   0  0  0  0  0  0  0  0  0  0  0  0
   33.9930    0.7275   -0.4543 H   0  0  0  0  0  0  0  0  0  0  0  0
   35.8375    5.3894    0.2172 H   0  0  0  0  0  0  0  0  0  0  0  0
   36.4370    9.8293    0.0447 H   0  0  0  0  0  0  0  0  0  0  0  0
   34.7907    8.4766   -2.5626 H   0  0  0  0  0  0  0  0  0  0  0  0
   33.7095    6.7924   -4.0209 H   0  0  0  0  0  0  0  0  0  0  0  0
   33.6995    4.4138   -3.3709 H   0  0  0  0  0  0  0  0  0  0  0  0
   37.4052    4.2683   -1.6166 H   0  0  0  0  0  0  0  0  0  0  0  0
   39.2659    2.4074   -1.0731 H   0  0  0  0  0  0  0  0  0  0  0  0
   39.2201   -2.5385    0.7696 H   0  0  0  0  0  0  0  0  0  0  0  0
   37.3470   -4.3785    1.2506 H   0  0  0  0  0  0  0  0  0  0  0  0
   35.4435   -0.8381   -0.0386 H   0  0  0  0  0  0  0  0  0  0  0  0
   35.7418   -5.4942   -0.5995 H   0  0  0  0  0  0  0  0  0  0  0  0
   35.7431   -7.8691    0.0731 H   0  0  0  0  0  0  0  0  0  0  0  0
   34.6506   -8.5540    2.2010 H   0  0  0  0  0  0  0  0  0  0  0  0
   32.4718   -6.3943    5.4802 H   0  0  0  0  0  0  0  0  0  0  0  0
   33.5842   -4.4743    2.9584 H   0  0  0  0  0  0  0  0  0  0  0  0
   32.0035   -4.4650    0.8232 H   0  0  0  0  0  0  0  0  0  0  0  0
   30.1531   -2.5779    0.3067 H   0  0  0  0  0  0  0  0  0  0  0  0
   59.9022    0.0878   -0.2926 C   0  0  0  0  0  0  0  0  0  0  0  0
   59.3340   -1.1577   -0.0594 C   0  0  0  0  0  0  0  0  0  0  0  0
   60.0245   -2.3810    0.1685 C   0  0  0  0  0  0  0  0  0  0  0  0
   59.0920   -3.3637    0.3464 C   0  0  0  0  0  0  0  0  0  0  0  0
   57.8014   -2.7734    0.2242 C   0  0  0  0  0  0  0  0  0  0  0  0
   57.9984   -1.4429   -0.0124 N   0  0  0  0  0  0  0  0  0  0  0  0
   56.5582   -3.4031    0.3488 C   0  0  0  0  0  0  0  0  0  0  0  0
   56.5797   -4.8681    0.5879 C   0  0  0  0  0  0  0  0  0  0  0  0
   56.0434   -5.4037    1.7554 C   0  0  0  0  0  0  0  0  0  0  0  0
   56.0648   -6.7802    1.9766 C   0  0  0  0  0  0  0  0  0  0  0  0
   55.4783   -7.2909    3.2412 C   0  0  0  0  0  0  0  0  0  0  0  0
   55.5591   -8.6233    3.3694 O   0  0  0  0  0  0  0  0  0  0  0  0
   54.9726   -6.5969    4.0856 O   0  0  0  0  0  0  0  0  0  0  0  0
   56.6239   -7.6331    1.0249 C   0  0  0  0  0  0  0  0  0  0  0  0
   57.1584   -7.1021   -0.1384 C   0  0  0  0  0  0  0  0  0  0  0  0
   57.1394   -5.7317   -0.3566 C   0  0  0  0  0  0  0  0  0  0  0  0
   55.3181   -2.7660    0.2665 C   0  0  0  0  0  0  0  0  0  0  0  0
   54.0458   -3.4576    0.3725 C   0  0  0  0  0  0  0  0  0  0  0  0
   53.0887   -2.5160    0.2463 C   0  0  0  0  0  0  0  0  0  0  0  0
   55.1112   -1.4361    0.0600 N   0  0  0  0  0  0  0  0  0  0  0  0
   53.7745   -1.2542    0.0471 C   0  0  0  0  0  0  0  0  0  0  0  0
   53.0912   -0.0334   -0.1239 C   0  0  0  0  0  0  0  0  0  0  0  0
   53.6869    1.2244   -0.3356 C   0  0  0  0  0  0  0  0  0  0  0  0
   53.0071    2.4593   -0.5072 C   0  0  0  0  0  0  0  0  0  0  0  0
   53.9443    3.4370   -0.6914 C   0  0  0  0  0  0  0  0  0  0  0  0
   55.2284    2.8261   -0.6525 C   0  0  0  0  0  0  0  0  0  0  0  0
   55.0210    1.4905   -0.4290 N   0  0  0  0  0  0  0  0  0  0  0  0
   56.4700    3.4554   -0.7906 C   0  0  0  0  0  0  0  0  0  0  0  0
   56.4519    4.9193   -1.0334 C   0  0  0  0  0  0  0  0  0  0  0  0
   55.8406    5.4441   -2.1743 C   0  0  0  0  0  0  0  0  0  0  0  0
   55.8240    6.8134   -2.4013 C   0  0  0  0  0  0  0  0  0  0  0  0
   56.4147    7.6754   -1.4925 C   0  0  0  0  0  0  0  0  0  0  0  0
   57.0291    7.1632   -0.3486 C   0  0  0  0  0  0  0  0  0  0  0  0
   57.6515    8.1194    0.6012 C   0  0  0  0  0  0  0  0  0  0  0  0
   58.2286    7.5285    1.6575 O   0  0  0  0  0  0  0  0  0  0  0  0
   57.6526    9.3153    0.4581 O   0  0  0  0  0  0  0  0  0  0  0  0
   57.0475    5.7886   -0.1216 C   0  0  0  0  0  0  0  0  0  0  0  0
   57.7110    2.8151   -0.7165 C   0  0  0  0  0  0  0  0  0  0  0  0
   58.9887    3.4829   -0.9143 C   0  0  0  0  0  0  0  0  0  0  0  0
   59.9395    2.5382   -0.7716 C   0  0  0  0  0  0  0  0  0  0  0  0
   59.2438    1.2929   -0.4985 C   0  0  0  0  0  0  0  0  0  0  0  0
   57.9036    1.4961   -0.4802 N   0  0  0  0  0  0  0  0  0  0  0  0
   60.9869    0.1123   -0.3170 H   0  0  0  0  0  0  0  0  0  0  0  0
   61.0978   -2.4811    0.1967 H   0  0  0  0  0  0  0  0  0  0  0  0
   59.2757   -4.4054    0.5542 H   0  0  0  0  0  0  0  0  0  0  0  0
   57.2532   -0.7643   -0.1277 H   0  0  0  0  0  0  0  0  0  0  0  0
   55.6162   -4.7548    2.5120 H   0  0  0  0  0  0  0  0  0  0  0  0
   55.1559   -8.8766    4.2156 H   0  0  0  0  0  0  0  0  0  0  0  0
   56.6371   -8.7024    1.1972 H   0  0  0  0  0  0  0  0  0  0  0  0
   57.5917   -7.7592   -0.8841 H   0  0  0  0  0  0  0  0  0  0  0  0
   57.5470   -5.3247   -1.2754 H   0  0  0  0  0  0  0  0  0  0  0  0
   53.9226   -4.5188    0.5153 H   0  0  0  0  0  0  0  0  0  0  0  0
   52.0187   -2.6398    0.2812 H   0  0  0  0  0  0  0  0  0  0  0  0
   51.9364    2.5780   -0.4919 H   0  0  0  0  0  0  0  0  0  0  0  0
   53.7646    4.4900   -0.8344 H   0  0  0  0  0  0  0  0  0  0  0  0
   55.7622    0.8034   -0.3393 H   0  0  0  0  0  0  0  0  0  0  0  0
   55.3905    4.7705   -2.8950 H   0  0  0  0  0  0  0  0  0  0  0  0
   55.3490    7.2056   -3.2933 H   0  0  0  0  0  0  0  0  0  0  0  0
   56.4101    8.7474   -1.6539 H   0  0  0  0  0  0  0  0  0  0  0  0
   58.6099    8.2172    2.2259 H   0  0  0  0  0  0  0  0  0  0  0  0
   57.5124    5.3945    0.7743 H   0  0  0  0  0  0  0  0  0  0  0  0
   59.1151    4.5288   -1.1430 H   0  0  0  0  0  0  0  0  0  0  0  0
   61.0107    2.6406   -0.8469 H   0  0  0  0  0  0  0  0  0  0  0  0
   39.5427   -0.0403   -0.1468 C   0  0  0  0  0  0  0  0  0  0  0  0
   40.7597   -0.0453   -0.1297 C   0  0  0  0  0  0  0  0  0  0  0  0
   50.4651   -0.0702   -0.0512 C   0  0  0  0  0  0  0  0  0  0  0  0
   51.6821   -0.0576   -0.0833 C   0  0  0  0  0  0  0  0  0  0  0  0
   42.1687   -0.0499   -0.1061 C   0  0  0  0  0  0  0  0  0  0  0  0
   42.7994    1.1921    0.0958 C   0  0  0  0  0  0  0  0  0  0  0  0
   42.1601    2.4475    0.2644 C   0  0  0  0  0  0  0  0  0  0  0  0
   43.1292    3.3899    0.4729 C   0  0  0  0  0  0  0  0  0  0  0  0
   44.3904    2.7339    0.4513 C   0  0  0  0  0  0  0  0  0  0  0  0
   44.1410    1.4102    0.2062 N   0  0  0  0  0  0  0  0  0  0  0  0
   45.6500    3.3144    0.6426 C   0  0  0  0  0  0  0  0  0  0  0  0
   45.6679    4.7678    0.9442 C   0  0  0  0  0  0  0  0  0  0  0  0
   46.3278    5.6542    0.0974 C   0  0  0  0  0  0  0  0  0  0  0  0
   46.3490    7.0194    0.3795 C   0  0  0  0  0  0  0  0  0  0  0  0
   47.0728    7.9125   -0.5599 C   0  0  0  0  0  0  0  0  0  0  0  0
   47.0250    9.2068   -0.2129 O   0  0  0  0  0  0  0  0  0  0  0  0
   47.6563    7.5355   -1.5439 O   0  0  0  0  0  0  0  0  0  0  0  0
   45.7070    7.5083    1.5172 C   0  0  0  0  0  0  0  0  0  0  0  0
   45.0503    6.6278    2.3625 C   0  0  0  0  0  0  0  0  0  0  0  0
   45.0288    5.2691    2.0806 C   0  0  0  0  0  0  0  0  0  0  0  0
   46.8753    2.6486    0.5739 C   0  0  0  0  0  0  0  0  0  0  0  0
   48.1525    3.2799    0.8549 C   0  0  0  0  0  0  0  0  0  0  0  0
   49.0953    2.3345    0.6636 C   0  0  0  0  0  0  0  0  0  0  0  0
   47.0621    1.3402    0.2490 N   0  0  0  0  0  0  0  0  0  0  0  0
   48.3943    1.1272    0.2751 C   0  0  0  0  0  0  0  0  0  0  0  0
   49.0562   -0.0790   -0.0292 C   0  0  0  0  0  0  0  0  0  0  0  0
   48.4256   -1.3049   -0.3138 C   0  0  0  0  0  0  0  0  0  0  0  0
   49.0627   -2.5276   -0.6476 C   0  0  0  0  0  0  0  0  0  0  0  0
   48.0929   -3.4773   -0.8154 C   0  0  0  0  0  0  0  0  0  0  0  0
   46.8323   -2.8603   -0.5888 C   0  0  0  0  0  0  0  0  0  0  0  0
   47.0832   -1.5460   -0.3005 N   0  0  0  0  0  0  0  0  0  0  0  0
   45.5718   -3.4642   -0.6711 C   0  0  0  0  0  0  0  0  0  0  0  0
   45.5635   -4.9251   -0.9369 C   0  0  0  0  0  0  0  0  0  0  0  0
   44.9676   -5.4363   -2.0919 C   0  0  0  0  0  0  0  0  0  0  0  0
   44.9623   -6.8021   -2.3393 C   0  0  0  0  0  0  0  0  0  0  0  0
   45.5496   -7.6740   -1.4378 C   0  0  0  0  0  0  0  0  0  0  0  0
   46.1490   -7.1754   -0.2802 C   0  0  0  0  0  0  0  0  0  0  0  0
   46.7691   -8.1414    0.6616 C   0  0  0  0  0  0  0  0  0  0  0  0
   47.3218   -7.5626    1.7369 O   0  0  0  0  0  0  0  0  0  0  0  0
   46.7884   -9.3342    0.4953 O   0  0  0  0  0  0  0  0  0  0  0  0
   46.1563   -5.8042   -0.0329 C   0  0  0  0  0  0  0  0  0  0  0  0
   44.3443   -2.8153   -0.5305 C   0  0  0  0  0  0  0  0  0  0  0  0
   43.0611   -3.4916   -0.5955 C   0  0  0  0  0  0  0  0  0  0  0  0
   42.1193   -2.5373   -0.4469 C   0  0  0  0  0  0  0  0  0  0  0  0
   42.8266   -1.2843   -0.2740 C   0  0  0  0  0  0  0  0  0  0  0  0
   44.1602   -1.4831   -0.3199 N   0  0  0  0  0  0  0  0  0  0  0  0
   41.0945    2.6039    0.2307 H   0  0  0  0  0  0  0  0  0  0  0  0
   42.9843    4.4475    0.6215 H   0  0  0  0  0  0  0  0  0  0  0  0
   44.8556    0.6951    0.1213 H   0  0  0  0  0  0  0  0  0  0  0  0
   46.8212    5.2934   -0.7984 H   0  0  0  0  0  0  0  0  0  0  0  0
   47.5201    9.7212   -0.8709 H   0  0  0  0  0  0  0  0  0  0  0  0
   45.7258    8.5690    1.7359 H   0  0  0  0  0  0  0  0  0  0  0  0
   44.5529    7.0002    3.2508 H   0  0  0  0  0  0  0  0  0  0  0  0
   44.5271    4.5850    2.7559 H   0  0  0  0  0  0  0  0  0  0  0  0
   48.2876    4.3014    1.1711 H   0  0  0  0  0  0  0  0  0  0  0  0
   50.1626    2.4170    0.7884 H   0  0  0  0  0  0  0  0  0  0  0  0
   50.1271   -2.6566   -0.7544 H   0  0  0  0  0  0  0  0  0  0  0  0
   48.2357   -4.5109   -1.0853 H   0  0  0  0  0  0  0  0  0  0  0  0
   46.3693   -0.8504   -0.1116 H   0  0  0  0  0  0  0  0  0  0  0  0
   44.5196   -4.7542   -2.8058 H   0  0  0  0  0  0  0  0  0  0  0  0
   44.4989   -7.1841   -3.2418 H   0  0  0  0  0  0  0  0  0  0  0  0
   45.5539   -8.7435   -1.6154 H   0  0  0  0  0  0  0  0  0  0  0  0
   47.7030   -8.2556    2.3003 H   0  0  0  0  0  0  0  0  0  0  0  0
   46.6107   -5.4208    0.8731 H   0  0  0  0  0  0  0  0  0  0  0  0
   42.9202   -4.5521   -0.7272 H   0  0  0  0  0  0  0  0  0  0  0  0
   41.0471   -2.6479   -0.4502 H   0  0  0  0  0  0  0  0  0  0  0  0
  1  2  4  0  0  0  0
  2  3  4  0  0  0  0
  3  4  2  0  0  0  0
  4  5  4  0  0  0  0
  2  6  4  0  0  0  0
  5  6  4  0  0  0  0
  5  7  4  0  0  0  0
  7  8  1  0  0  0  0
  8  9  4  0  0  0  0
  9 10  4  0  0  0  0
 10 11  1  0  0  0  0
 11 12  4  0  0  0  0
 11 13  2  0  0  0  0
 10 14  4  0  0  0  0
 14 15  4  0  0  0  0
  8 16  4  0  0  0  0
 15 16  4  0  0  0  0
  7 17  4  0  0  0  0
 17 18  1  0  0  0  0
 18 19  2  0  0  0  0
 17 20  4  0  0  0  0
 19 21  1  0  0  0  0
 20 21  4  0  0  0  0
 21 22  4  0  0  0  0
 22 23  4  0  0  0  0
 23 24  4  0  0  0  0
 24 25  2  0  0  0  0
 25 26  4  0  0  0  0
 23 27  4  0  0  0  0
 26 27  4  0  0  0  0
 26 28  4  0  0  0  0
 28 29  1  0  0  0  0
 29 30  4  0  0  0  0
 30 31  4  0  0  0  0
 31 32  4  0  0  0  0
 32 33  4  0  0  0  0
 33 34  1  0  0  0  0
 34 35  4  0  0  0  0
 34 36  2  0  0  0  0
 29 37  4  0  0  0  0
 33 37  4  0  0  0  0
 28 38  4  0  0  0  0
 38 39  1  0  0  0  0
 39 40  2  0  0  0  0
  1 41  4  0  0  0  0
 40 41  1  0  0  0  0
 38 42  4  0  0  0  0
 41 42  4  0  0  0  0
  1 43  1  0  0  0  0
  3 44  1  0  0  0  0
  4 45  1  0  0  0  0
  6 46  1  0  0  0  0
  9 47  1  0  0  0  0
 12 48  1  0  0  0  0
 14 49  1  0  0  0  0
 15 50  1  0  0  0  0
 16 51  1  0  0  0  0
 18 52  1  0  0  0  0
 19 53  1  0  0  0  0
 24 54  1  0  0  0  0
 25 55  1  0  0  0  0
 27 56  1  0  0  0  0
 30 57  1  0  0  0  0
 31 58  1  0  0  0  0
 32 59  1  0  0  0  0
 35 60  1  0  0  0  0
 37 61  1  0  0  0  0
 39 62  1  0  0  0  0
 40 63  1  0  0  0  0
 64 65  4  0  0  0  0
 65 66  4  0  0  0  0
 66 67  2  0  0  0  0
 67 68  4  0  0  0  0
 65 69  4  0  0  0  0
 68 69  4  0  0  0  0
 68 70  4  0  0  0  0
 70 71  1  0  0  0  0
 71 72  4  0  0  0  0
 72 73  4  0  0  0  0
 73 74  1  0  0  0  0
 74 75  4  0  0  0  0
 74 76  2  0  0  0  0
 73 77  4  0  0  0  0
 77 78  4  0  0  0  0
 71 79  4  0  0  0  0
 78 79  4  0  0  0  0
 70 80  4  0  0  0  0
 80 81  1  0  0  0  0
 81 82  2  0  0  0  0
 80 83  4  0  0  0  0
 82 84  1  0  0  0  0
 83 84  4  0  0  0  0
 84 85  4  0  0  0  0
 85 86  4  0  0  0  0
 86 87  4  0  0  0  0
 87 88  2  0  0  0  0
 88 89  4  0  0  0  0
 86 90  4  0  0  0  0
 89 90  4  0  0  0  0
 89 91  4  0  0  0  0
 91 92  1  0  0  0  0
 92 93  4  0  0  0  0
 93 94  4  0  0  0  0
 94 95  4  0  0  0  0
 95 96  4  0  0  0  0
 96 97  1  0  0  0  0
 97 98  4  0  0  0  0
 97 99  2  0  0  0  0
 92100  4  0  0  0  0
 96100  4  0  0  0  0
 91101  4  0  0  0  0
101102  1  0  0  0  0
102103  2  0  0  0  0
 64104  4  0  0  0  0
103104  1  0  0  0  0
101105  4  0  0  0  0
104105  4  0  0  0  0
 64106  1  0  0  0  0
 66107  1  0  0  0  0
 67108  1  0  0  0  0
 69109  1  0  0  0  0
 72110  1  0  0  0  0
 75111  1  0  0  0  0
 77112  1  0  0  0  0
 78113  1  0  0  0  0
 79114  1  0  0  0  0
 81115  1  0  0  0  0
 82116  1  0  0  0  0
 87117  1  0  0  0  0
 88118  1  0  0  0  0
 90119  1  0  0  0  0
 93120  1  0  0  0  0
 94121  1  0  0  0  0
 95122  1  0  0  0  0
 98123  1  0  0  0  0
100124  1  0  0  0  0
102125  1  0  0  0  0
103126  1  0  0  0  0
 22127  4  0  0  0  0
127128  3  0  0  0  0
 85130  4  0  0  0  0
129130  3  0  0  0  0
128131  4  0  0  0  0
131132  4  0  0  0  0
132133  4  0  0  0  0
133134  2  0  0  0  0
134135  4  0  0  0  0
132136  4  0  0  0  0
135136  4  0  0  0  0
135137  4  0  0  0  0
137138  1  0  0  0  0
138139  4  0  0  0  0
139140  4  0  0  0  0
140141  1  0  0  0  0
141142  4  0  0  0  0
141143  2  0  0  0  0
140144  4  0  0  0  0
144145  4  0  0  0  0
138146  4  0  0  0  0
145146  4  0  0  0  0
137147  4  0  0  0  0
147148  1  0  0  0  0
148149  2  0  0  0  0
147150  4  0  0  0  0
149151  1  0  0  0  0
150151  4  0  0  0  0
129152  4  0  0  0  0
151152  4  0  0  0  0
152153  4  0  0  0  0
153154  4  0  0  0  0
154155  2  0  0  0  0
155156  4  0  0  0  0
153157  4  0  0  0  0
156157  4  0  0  0  0
156158  4  0  0  0  0
158159  1  0  0  0  0
159160  4  0  0  0  0
160161  4  0  0  0  0
161162  4  0  0  0  0
162163  4  0  0  0  0
163164  1  0  0  0  0
164165  4  0  0  0  0
164166  2  0  0  0  0
159167  4  0  0  0  0
163167  4  0  0  0  0
158168  4  0  0  0  0
168169  1  0  0  0  0
169170  2  0  0  0  0
131171  4  0  0  0  0
170171  1  0  0  0  0
168172  4  0  0  0  0
171172  4  0  0  0  0
133173  1  0  0  0  0
134174  1  0  0  0  0
136175  1  0  0  0  0
139176  1  0  0  0  0
142177  1  0  0  0  0
144178  1  0  0  0  0
145179  1  0  0  0  0
146180  1  0  0  0  0
148181  1  0  0  0  0
149182  1  0  0  0  0
154183  1  0  0  0  0
155184  1  0  0  0  0
157185  1  0  0  0  0
160186  1  0  0  0  0
161187  1  0  0  0  0
162188  1  0  0  0  0
165189  1  0  0  0  0
167190  1  0  0  0  0
169191  1  0  0  0  0
170192  1  0  0  0  0
M  END
