530

C 103.712486 0.096247 -0.013531
C 104.436887 0.007635 1.363572
C 103.816993 -0.025228 2.592563
C 104.837675 -0.142929 3.569954
C 106.049046 -0.176596 2.903947
N 105.792246 -0.062520 1.561062
C 107.481031 -0.354487 3.561431
C 107.534246 -0.626063 5.017368
C 107.732690 0.412160 5.925489
C 107.767519 0.154438 7.303936
C 107.591202 -1.139965 7.831628
N 107.630529 -1.387790 9.216754
C 107.333683 -0.269889 10.108962
C 107.217314 -2.703450 9.694907
C 107.418171 -2.170552 6.886755
C 107.382305 -1.921751 5.506161
C 108.608769 -0.285249 2.802937
C 109.920297 -0.512059 3.374057
C 110.822611 -0.409708 2.406004
N 108.800726 -0.033112 1.468895
C 110.137656 -0.093197 1.168007
C 110.810434 0.086393 -0.000201
C 110.038028 0.477909 -1.332756
C 110.604129 1.034802 -2.464483
C 109.578441 1.183010 -3.429091
C 108.408681 0.727347 -2.856638
N 108.690573 0.337909 -1.567721
C 106.984846 0.682697 -3.558227
C 106.936149 0.831246 -5.029621
C 106.760490 2.085989 -5.610655
C 106.753527 2.227663 -7.005419
C 106.932924 1.131241 -7.871894
N 106.933176 1.297126 -9.271496
C 107.194093 0.126890 -10.104335
C 107.487525 2.555587 -9.770215
C 107.069770 -0.127456 -7.255681
C 107.082104 -0.277465 -5.860699
C 105.862603 0.515719 -2.811302
C 104.534051 0.472683 -3.397058
C 103.650362 0.316171 -2.416156
C 104.378735 0.248806 -1.172962
N 105.703352 0.362892 -1.461622
H 102.631022 0.024901 -0.022195
H 102.752463 0.019948 2.765423
H 104.704041 -0.207704 4.640036
H 106.497005 -0.031616 0.828478
H 107.868389 1.423975 5.550117
H 107.945228 1.008313 7.948233
H 106.351482 0.164975 9.890507
H 107.323631 -0.594089 11.156201
H 108.104261 0.505700 10.045968
H 106.170053 -2.905848 9.444178
H 107.856048 -3.495155 9.288570
H 107.315129 -2.771945 10.784385
H 107.302404 -3.205112 7.189531
H 107.241530 -2.739430 4.802819
H 110.137948 -0.739457 4.402650
H 111.880597 -0.536580 2.545001
H 111.643396 1.296464 -2.592525
H 109.682382 1.575532 -4.429765
H 107.997527 0.035307 -0.887696
H 106.626943 2.953682 -4.968174
H 106.589474 3.228093 -7.390810
H 107.090408 0.378642 -11.166188
H 108.210161 -0.252983 -9.949825
H 106.467831 -0.670577 -9.911940
H 106.842600 3.404409 -9.521824
H 107.558889 2.545568 -10.863591
H 108.495530 2.731440 -9.377662
H 107.187793 -1.035516 -7.835943
H 107.207000 -1.261700 -5.413623
H 104.299234 0.554922 -4.443446
H 102.582844 0.249437 -2.524163
C 197.902374 0.092849 0.015068
C 197.177973 0.329383 -1.344460
C 197.797867 0.585408 -2.546937
C 196.777185 0.700004 -3.524697
C 195.565814 0.511217 -2.885120
N 195.822614 0.307456 -1.552891
C 194.133829 0.492338 -3.565983
C 194.080614 0.569474 -5.045022
C 193.882170 1.791581 -5.684587
C 193.847341 1.864028 -7.085048
C 194.023658 0.729307 -7.901349
N 193.984331 0.812941 -9.305984
C 194.281176 2.108779 -9.911410
C 194.397545 -0.354052 -10.079106
C 194.196689 -0.493987 -7.224265
C 194.232554 -0.575611 -5.823809
C 193.006091 0.381920 -2.812382
C 191.694563 0.295248 -3.420747
C 190.792249 0.167918 -2.455662
N 192.814134 0.314449 -1.456399
C 191.477204 0.185534 -1.177966
C 190.804425 0.086393 -0.000201
C 191.576831 0.154769 1.386995
C 191.010731 0.430975 2.617705
C 192.036418 0.349033 3.590187
C 193.206179 0.040191 2.926900
N 192.924287 -0.036390 1.582615
C 194.630014 -0.167611 3.598496
C 194.678711 -0.367969 5.063733
C 194.854369 0.715695 5.922599
C 194.861333 0.526608 7.311730
C 194.681936 -0.742320 7.897172
N 194.681684 -0.909003 9.296679
C 194.420766 -2.241809 9.832126
C 194.127335 0.197564 10.076393
C 194.545090 -1.821585 7.003180
C 194.532756 -1.640550 5.611885
C 195.752257 -0.154922 2.833239
C 197.080809 -0.334013 3.392603
C 197.964497 -0.256326 2.402336
C 197.236125 -0.030513 1.177967
N 195.911507 0.012758 1.485323
H 198.983838 0.021459 0.006773
H 198.862397 0.669831 -2.704399
H 196.910818 0.887770 -4.580167
H 195.117854 0.165843 -0.833460
H 193.746471 2.687272 -5.082580
H 193.669632 2.845101 -7.511330
H 195.263378 2.480349 -9.597140
H 194.291229 2.038991 -11.005459
H 193.510599 2.848016 -9.668435
H 195.444807 -0.609565 -9.882783
H 193.758812 -1.218928 -9.869592
H 194.299730 -0.165357 -11.154303
H 194.312456 -1.428800 -7.761027
H 194.373330 -1.535330 -5.331644
H 191.476912 0.315198 -4.473987
H 189.734263 0.077148 -2.620518
H 189.971463 0.655351 2.803494
H 191.932478 0.496152 4.654977
H 193.617332 -0.171226 0.850617
H 194.987917 1.709776 5.501320
H 195.025385 1.408883 7.920810
H 194.524452 -2.245876 10.923407
H 193.404699 -2.574901 9.592907
H 195.147029 -2.971994 9.458228
H 194.772259 1.080957 10.033811
H 194.055971 -0.068373 11.136982
H 193.119329 0.460503 9.735975
H 194.427067 -2.840330 7.354514
H 194.407860 -2.492627 4.946632
H 197.315626 -0.499250 4.429131
H 199.032016 -0.346510 2.491699
C 114.575319 0.098830 0.002241
C 113.323048 0.079649 -0.002107
C 115.888987 0.098064 0.004173
C 117.392121 0.079649 -0.002107
C 128.773258 0.098830 0.002241
C 127.520988 0.079649 -0.002107
C 130.086926 0.098064 0.004173
C 131.590060 0.079649 -0.002107
C 142.971198 0.098830 0.002241
C 141.718927 0.079649 -0.002107
C 144.284866 0.098064 0.004173
C 145.787999 0.079649 -0.002107
C 157.169137 0.098830 0.002241
C 155.916866 0.079649 -0.002107
C 158.482805 0.098064 0.004173
C 159.985939 0.079649 -0.002107
C 171.367076 0.098830 0.002241
C 170.114806 0.079649 -0.002107
C 172.680744 0.098064 0.004173
C 174.183878 0.079649 -0.002107
C 185.565016 0.098830 0.002241
C 184.312745 0.079649 -0.002107
C 186.878684 0.098064 0.004173
C 188.381817 0.079649 -0.002107
C 118.838246 -0.040347 0.000222
C 119.632032 -0.390318 1.326582
C 119.124280 -1.005390 2.453287
C 120.161497 -1.041364 3.420120
C 121.272151 -0.454044 2.851254
N 120.961397 -0.131224 1.553994
C 122.662292 -0.186965 3.562826
C 122.651777 -0.005795 5.032491
C 122.201827 1.188012 5.593057
C 122.163713 1.352098 6.985835
C 122.553646 0.328368 7.868781
N 122.515595 0.472676 9.271118
C 122.040333 1.739851 9.817300
C 122.098889 -0.717799 10.012747
C 123.029300 -0.856424 7.274347
C 123.071982 -1.027437 5.883303
C 123.796911 -0.085218 2.821676
C 125.083521 0.215245 3.414924
C 125.991436 0.258248 2.445840
N 124.005028 -0.205794 1.475456
C 125.329294 -0.013822 1.185713
C 125.992884 -0.040347 0.000222
C 125.199086 -0.339455 -1.338541
C 125.706492 -0.913299 -2.487187
C 124.669580 -0.912131 -3.455010
C 123.559411 -0.344963 -2.864622
N 123.870055 -0.071563 -1.556059
C 122.169644 -0.050025 -3.565864
C 122.180617 0.183685 -5.028079
C 122.639983 1.392033 -5.547041
C 122.677416 1.603609 -6.933736
C 122.277209 0.616436 -7.854480
N 122.314292 0.821297 -9.247729
C 122.492733 -0.366159 -10.081222
C 122.941246 2.040144 -9.750259
C 121.793410 -0.584103 -7.298796
C 121.752273 -0.803796 -5.914042
C 121.034906 0.024277 -2.821225
C 119.748098 0.347052 -3.402305
C 118.840077 0.352650 -2.432145
C 119.502253 0.032560 -1.183417
N 120.826939 -0.147065 -1.480341
H 118.114963 -1.367131 2.577175
H 120.100310 -1.431056 4.425200
H 121.622794 0.209211 0.861798
H 121.878504 1.993297 4.936838
H 121.800090 2.307520 7.347086
H 122.159512 1.755582 10.907211
H 122.628034 2.583460 9.437454
H 120.978564 1.898321 9.595692
H 122.845962 -1.515336 9.951817
H 121.133367 -1.093058 9.653565
H 121.989537 -0.492623 11.080415
H 123.401732 -1.675642 7.879821
H 123.441923 -1.956240 5.454079
H 125.277626 0.386649 4.458925
H 127.035578 0.465388 2.592101
H 126.715569 -1.271555 -2.623776
H 124.730264 -1.264050 -4.474029
H 123.209509 0.244769 -0.851165
H 122.970231 2.171865 -4.863930
H 123.045085 2.569930 -7.260286
H 123.386006 -0.929535 -9.787818
H 121.614406 -1.019056 -10.040864
H 122.612002 -0.091654 -11.136029
H 124.008304 2.070887 -9.502772
H 122.852588 2.100693 -10.841157
H 122.444196 2.935154 -9.359544
H 121.420100 -1.385152 -7.926913
H 121.378291 -1.745321 -5.517489
H 119.553432 0.558059 -4.438752
H 117.795708 0.565161 -2.570065
C 133.036185 -0.040347 0.000222
C 133.829972 -0.390318 1.326582
C 133.322220 -1.005390 2.453287
C 134.359437 -1.041364 3.420120
C 135.470090 -0.454044 2.851254
N 135.159336 -0.131224 1.553994
C 136.860231 -0.186965 3.562826
C 136.849717 -0.005795 5.032491
C 136.399767 1.188012 5.593057
C 136.361653 1.352098 6.985835
C 136.751586 0.328368 7.868781
N 136.713535 0.472676 9.271118
C 136.238273 1.739851 9.817300
C 136.296828 -0.717799 10.012747
C 137.227239 -0.856424 7.274347
C 137.269922 -1.027437 5.883303
C 137.994850 -0.085218 2.821676
C 139.281460 0.215245 3.414924
C 140.189375 0.258248 2.445840
N 138.202968 -0.205794 1.475456
C 139.527233 -0.013822 1.185713
C 140.190823 -0.040347 0.000222
C 139.397025 -0.339455 -1.338541
C 139.904431 -0.913299 -2.487187
C 138.867519 -0.912131 -3.455010
C 137.757351 -0.344963 -2.864622
N 138.067994 -0.071563 -1.556059
C 136.367583 -0.050025 -3.565864
C 136.378557 0.183685 -5.028079
C 136.837922 1.392033 -5.547041
C 136.875355 1.603609 -6.933736
C 136.475148 0.616436 -7.854480
N 136.512231 0.821297 -9.247729
C 136.690673 -0.366159 -10.081222
C 137.139185 2.040144 -9.750259
C 135.991349 -0.584103 -7.298796
C 135.950213 -0.803796 -5.914042
C 135.232845 0.024277 -2.821225
C 133.946037 0.347052 -3.402305
C 133.038017 0.352650 -2.432145
C 133.700192 0.032560 -1.183417
N 135.024878 -0.147065 -1.480341
H 132.312903 -1.367131 2.577175
H 134.298249 -1.431056 4.425200
H 135.820734 0.209211 0.861798
H 136.076444 1.993297 4.936838
H 135.998029 2.307520 7.347086
H 136.357451 1.755582 10.907211
H 136.825974 2.583460 9.437454
H 135.176503 1.898321 9.595692
H 137.043901 -1.515336 9.951817
H 135.331306 -1.093058 9.653565
H 136.187477 -0.492623 11.080415
H 137.599671 -1.675642 7.879821
H 137.639862 -1.956240 5.454079
H 139.475565 0.386649 4.458925
H 141.233517 0.465388 2.592101
H 140.913509 -1.271555 -2.623776
H 138.928204 -1.264050 -4.474029
H 137.407449 0.244769 -0.851165
H 137.168171 2.171865 -4.863930
H 137.243025 2.569930 -7.260286
H 137.583945 -0.929535 -9.787818
H 135.812345 -1.019056 -10.040864
H 136.809941 -0.091654 -11.136029
H 138.206244 2.070887 -9.502772
H 137.050527 2.100693 -10.841157
H 136.642135 2.935154 -9.359544
H 135.618039 -1.385152 -7.926913
H 135.576231 -1.745321 -5.517489
H 133.751371 0.558059 -4.438752
H 131.993647 0.565161 -2.570065
C 147.234124 -0.040347 0.000222
C 148.027911 -0.390318 1.326582
C 147.520159 -1.005390 2.453287
C 148.557376 -1.041364 3.420120
C 149.668030 -0.454044 2.851254
N 149.357276 -0.131224 1.553994
C 151.058170 -0.186965 3.562826
C 151.047656 -0.005795 5.032491
C 150.597706 1.188012 5.593057
C 150.559592 1.352098 6.985835
C 150.949525 0.328368 7.868781
N 150.911474 0.472676 9.271118
C 150.436212 1.739851 9.817300
C 150.494767 -0.717799 10.012747
C 151.425178 -0.856424 7.274347
C 151.467861 -1.027437 5.883303
C 152.192790 -0.085218 2.821676
C 153.479399 0.215245 3.414924
C 154.387315 0.258248 2.445840
N 152.400907 -0.205794 1.475456
C 153.725173 -0.013822 1.185713
C 154.388763 -0.040347 0.000222
C 153.594964 -0.339455 -1.338541
C 154.102370 -0.913299 -2.487187
C 153.065458 -0.912131 -3.455010
C 151.955290 -0.344963 -2.864622
N 152.265933 -0.071563 -1.556059
C 150.565523 -0.050025 -3.565864
C 150.576496 0.183685 -5.028079
C 151.035862 1.392033 -5.547041
C 151.073294 1.603609 -6.933736
C 150.673088 0.616436 -7.854480
N 150.710171 0.821297 -9.247729
C 150.888612 -0.366159 -10.081222
C 151.337125 2.040144 -9.750259
C 150.189289 -0.584103 -7.298796
C 150.148152 -0.803796 -5.914042
C 149.430785 0.024277 -2.821225
C 148.143976 0.347052 -3.402305
C 147.235956 0.352650 -2.432145
C 147.898132 0.032560 -1.183417
N 149.222818 -0.147065 -1.480341
H 146.510842 -1.367131 2.577175
H 148.496189 -1.431056 4.425200
H 150.018673 0.209211 0.861798
H 150.274383 1.993297 4.936838
H 150.195968 2.307520 7.347086
H 150.555391 1.755582 10.907211
H 151.023913 2.583460 9.437454
H 149.374443 1.898321 9.595692
H 151.241841 -1.515336 9.951817
H 149.529245 -1.093058 9.653565
H 150.385416 -0.492623 11.080415
H 151.797610 -1.675642 7.879821
H 151.837801 -1.956240 5.454079
H 153.673504 0.386649 4.458925
H 155.431456 0.465388 2.592101
H 155.111448 -1.271555 -2.623776
H 153.126143 -1.264050 -4.474029
H 151.605388 0.244769 -0.851165
H 151.366110 2.171865 -4.863930
H 151.440964 2.569930 -7.260286
H 151.781884 -0.929535 -9.787818
H 150.010284 -1.019056 -10.040864
H 151.007881 -0.091654 -11.136029
H 152.404183 2.070887 -9.502772
H 151.248466 2.100693 -10.841157
H 150.840074 2.935154 -9.359544
H 149.815979 -1.385152 -7.926913
H 149.774170 -1.745321 -5.517489
H 147.949310 0.558059 -4.438752
H 146.191587 0.565161 -2.570065
C 161.432064 -0.040347 0.000222
C 162.225850 -0.390318 1.326582
C 161.718099 -1.005390 2.453287
C 162.755315 -1.041364 3.420120
C 163.865969 -0.454044 2.851254
N 163.555215 -0.131224 1.553994
C 165.256110 -0.186965 3.562826
C 165.245595 -0.005795 5.032491
C 164.795645 1.188012 5.593057
C 164.757531 1.352098 6.985835
C 165.147465 0.328368 7.868781
N 165.109413 0.472676 9.271118
C 164.634151 1.739851 9.817300
C 164.692707 -0.717799 10.012747
C 165.623118 -0.856424 7.274347
C 165.665800 -1.027437 5.883303
C 166.390729 -0.085218 2.821676
C 167.677339 0.215245 3.414924
C 168.585254 0.258248 2.445840
N 166.598846 -0.205794 1.475456
C 167.923112 -0.013822 1.185713
C 168.586702 -0.040347 0.000222
C 167.792904 -0.339455 -1.338541
C 168.300310 -0.913299 -2.487187
C 167.263398 -0.912131 -3.455010
C 166.153229 -0.344963 -2.864622
N 166.463873 -0.071563 -1.556059
C 164.763462 -0.050025 -3.565864
C 164.774435 0.183685 -5.028079
C 165.233801 1.392033 -5.547041
C 165.271234 1.603609 -6.933736
C 164.871027 0.616436 -7.854480
N 164.908110 0.821297 -9.247729
C 165.086551 -0.366159 -10.081222
C 165.535064 2.040144 -9.750259
C 164.387228 -0.584103 -7.298796
C 164.346091 -0.803796 -5.914042
C 163.628724 0.024277 -2.821225
C 162.341916 0.347052 -3.402305
C 161.433895 0.352650 -2.432145
C 162.096071 0.032560 -1.183417
N 163.420757 -0.147065 -1.480341
H 160.708781 -1.367131 2.577175
H 162.694128 -1.431056 4.425200
H 164.216612 0.209211 0.861798
H 164.472322 1.993297 4.936838
H 164.393908 2.307520 7.347086
H 164.753330 1.755582 10.907211
H 165.221852 2.583460 9.437454
H 163.572382 1.898321 9.595692
H 165.439780 -1.515336 9.951817
H 163.727185 -1.093058 9.653565
H 164.583355 -0.492623 11.080415
H 165.995550 -1.675642 7.879821
H 166.035741 -1.956240 5.454079
H 167.871444 0.386649 4.458925
H 169.629396 0.465388 2.592101
H 169.309387 -1.271555 -2.623776
H 167.324082 -1.264050 -4.474029
H 165.803327 0.244769 -0.851165
H 165.564049 2.171865 -4.863930
H 165.638903 2.569930 -7.260286
H 165.979824 -0.929535 -9.787818
H 164.208224 -1.019056 -10.040864
H 165.205820 -0.091654 -11.136029
H 166.602122 2.070887 -9.502772
H 165.446406 2.100693 -10.841157
H 165.038014 2.935154 -9.359544
H 164.013918 -1.385152 -7.926913
H 163.972109 -1.745321 -5.517489
H 162.147250 0.558059 -4.438752
H 160.389526 0.565161 -2.570065
C 175.630003 -0.040347 0.000222
C 176.423790 -0.390318 1.326582
C 175.916038 -1.005390 2.453287
C 176.953255 -1.041364 3.420120
C 178.063909 -0.454044 2.851254
N 177.753154 -0.131224 1.553994
C 179.454049 -0.186965 3.562826
C 179.443535 -0.005795 5.032491
C 178.993585 1.188012 5.593057
C 178.955471 1.352098 6.985835
C 179.345404 0.328368 7.868781
N 179.307353 0.472676 9.271118
C 178.832091 1.739851 9.817300
C 178.890646 -0.717799 10.012747
C 179.821057 -0.856424 7.274347
C 179.863740 -1.027437 5.883303
C 180.588668 -0.085218 2.821676
C 181.875278 0.215245 3.414924
C 182.783194 0.258248 2.445840
N 180.796786 -0.205794 1.475456
C 182.121052 -0.013822 1.185713
C 182.784642 -0.040347 0.000222
C 181.990843 -0.339455 -1.338541
C 182.498249 -0.913299 -2.487187
C 181.461337 -0.912131 -3.455010
C 180.351169 -0.344963 -2.864622
N 180.661812 -0.071563 -1.556059
C 178.961401 -0.050025 -3.565864
C 178.972375 0.183685 -5.028079
C 179.431740 1.392033 -5.547041
C 179.469173 1.603609 -6.933736
C 179.068966 0.616436 -7.854480
N 179.106049 0.821297 -9.247729
C 179.284491 -0.366159 -10.081222
C 179.733003 2.040144 -9.750259
C 178.585167 -0.584103 -7.298796
C 178.544031 -0.803796 -5.914042
C 177.826663 0.024277 -2.821225
C 176.539855 0.347052 -3.402305
C 175.631835 0.352650 -2.432145
C 176.294011 0.032560 -1.183417
N 177.618696 -0.147065 -1.480341
H 174.906721 -1.367131 2.577175
H 176.892067 -1.431056 4.425200
H 178.414552 0.209211 0.861798
H 178.670262 1.993297 4.936838
H 178.591847 2.307520 7.347086
H 178.951269 1.755582 10.907211
H 179.419792 2.583460 9.437454
H 177.770321 1.898321 9.595692
H 179.637719 -1.515336 9.951817
H 177.925124 -1.093058 9.653565
H 178.781295 -0.492623 11.080415
H 180.193489 -1.675642 7.879821
H 180.233680 -1.956240 5.454079
H 182.069383 0.386649 4.458925
H 183.827335 0.465388 2.592101
H 183.507327 -1.271555 -2.623776
H 181.522022 -1.264050 -4.474029
H 180.001267 0.244769 -0.851165
H 179.761989 2.171865 -4.863930
H 179.836843 2.569930 -7.260286
H 180.177763 -0.929535 -9.787818
H 178.406163 -1.019056 -10.040864
H 179.403759 -0.091654 -11.136029
H 180.800062 2.070887 -9.502772
H 179.644345 2.100693 -10.841157
H 179.235953 2.935154 -9.359544
H 178.211857 -1.385152 -7.926913
H 178.170049 -1.745321 -5.517489
H 176.345189 0.558059 -4.438752
H 174.587465 0.565161 -2.570065
