 xtb: 6.5.1 (b24c23e)
          07302216373D

189218  0     0  0            999 V2000
   28.6122    0.0266    0.0142 Zn  0  0  0  0  0  0  0  0  0  0  0  0
   25.2027    0.0495    0.0898 C   0  0  0  0  0  0  0  0  0  0  0  0
   25.8345    1.2682    0.3054 C   0  0  0  0  0  0  0  0  0  0  0  0
   25.1623    2.5185    0.5231 C   0  0  0  0  0  0  0  0  0  0  0  0
   26.1227    3.4617    0.6893 C   0  0  0  0  0  0  0  0  0  0  0  0
   27.3947    2.7958    0.5866 C   0  0  0  0  0  0  0  0  0  0  0  0
   27.1844    1.4703    0.3445 N   0  0  0  0  0  0  0  0  0  0  0  0
   28.6476    3.4131    0.6916 C   0  0  0  0  0  0  0  0  0  0  0  0
   28.6603    4.8686    0.9776 C   0  0  0  0  0  0  0  0  0  0  0  0
   28.1101    5.3633    2.1625 C   0  0  0  0  0  0  0  0  0  0  0  0
   28.1158    6.7204    2.4303 C   0  0  0  0  0  0  0  0  0  0  0  0
   28.6704    7.6142    1.5093 C   0  0  0  0  0  0  0  0  0  0  0  0
   28.6723    9.0119    1.7783 C   0  0  0  0  0  0  0  0  0  0  0  0
   28.6728   10.1421    1.9955 N   0  0  0  0  0  0  0  0  0  0  0  0
   29.2219    7.1247    0.3214 C   0  0  0  0  0  0  0  0  0  0  0  0
   29.2178    5.7657    0.0633 C   0  0  0  0  0  0  0  0  0  0  0  0
   29.8861    2.7776    0.5497 C   0  0  0  0  0  0  0  0  0  0  0  0
   31.1667    3.4084    0.7151 C   0  0  0  0  0  0  0  0  0  0  0  0
   32.1114    2.4554    0.5107 C   0  0  0  0  0  0  0  0  0  0  0  0
   30.0775    1.4526    0.2622 N   0  0  0  0  0  0  0  0  0  0  0  0
   31.4190    1.2326    0.2269 C   0  0  0  0  0  0  0  0  0  0  0  0
   32.0485    0.0014   -0.0486 C   0  0  0  0  0  0  0  0  0  0  0  0
   31.3915   -1.2192   -0.3057 C   0  0  0  0  0  0  0  0  0  0  0  0
   32.0549   -2.4506   -0.6194 C   0  0  0  0  0  0  0  0  0  0  0  0
   31.0894   -3.3885   -0.7942 C   0  0  0  0  0  0  0  0  0  0  0  0
   29.8251   -2.7402   -0.5785 C   0  0  0  0  0  0  0  0  0  0  0  0
   30.0465   -1.4192   -0.2934 N   0  0  0  0  0  0  0  0  0  0  0  0
   28.5729   -3.3574   -0.6726 C   0  0  0  0  0  0  0  0  0  0  0  0
   28.5520   -4.8112   -0.9668 C   0  0  0  0  0  0  0  0  0  0  0  0
   27.9431   -5.2898   -2.1294 C   0  0  0  0  0  0  0  0  0  0  0  0
   27.9160   -6.6451   -2.4051 C   0  0  0  0  0  0  0  0  0  0  0  0
   28.4962   -7.5532   -1.5143 C   0  0  0  0  0  0  0  0  0  0  0  0
   28.4636   -8.9490   -1.7910 C   0  0  0  0  0  0  0  0  0  0  0  0
   28.4352  -10.0776   -2.0142 N   0  0  0  0  0  0  0  0  0  0  0  0
   29.1065   -7.0798   -0.3489 C   0  0  0  0  0  0  0  0  0  0  0  0
   29.1348   -5.7226   -0.0829 C   0  0  0  0  0  0  0  0  0  0  0  0
   27.3342   -2.7237   -0.5109 C   0  0  0  0  0  0  0  0  0  0  0  0
   26.0503   -3.3727   -0.5576 C   0  0  0  0  0  0  0  0  0  0  0  0
   25.1109   -2.4179   -0.3448 C   0  0  0  0  0  0  0  0  0  0  0  0
   25.8083   -1.1769   -0.1552 C   0  0  0  0  0  0  0  0  0  0  0  0
   27.1524   -1.3964   -0.2559 N   0  0  0  0  0  0  0  0  0  0  0  0
   24.1174    0.0564    0.1146 H   0  0  0  0  0  0  0  0  0  0  0  0
   24.0915    2.6478    0.5364 H   0  0  0  0  0  0  0  0  0  0  0  0
   25.9863    4.5183    0.8554 H   0  0  0  0  0  0  0  0  0  0  0  0
   27.6892    4.6725    2.8844 H   0  0  0  0  0  0  0  0  0  0  0  0
   27.6916    7.0957    3.3543 H   0  0  0  0  0  0  0  0  0  0  0  0
   29.6498    7.8148   -0.3963 H   0  0  0  0  0  0  0  0  0  0  0  0
   29.6349    5.3913   -0.8648 H   0  0  0  0  0  0  0  0  0  0  0  0
   31.3215    4.4447    0.9688 H   0  0  0  0  0  0  0  0  0  0  0  0
   33.1836    2.5620    0.5533 H   0  0  0  0  0  0  0  0  0  0  0  0
   33.1232   -2.5725   -0.7016 H   0  0  0  0  0  0  0  0  0  0  0  0
   31.2195   -4.4256   -1.0584 H   0  0  0  0  0  0  0  0  0  0  0  0
   27.5017   -4.5881   -2.8281 H   0  0  0  0  0  0  0  0  0  0  0  0
   27.4459   -7.0079   -3.3117 H   0  0  0  0  0  0  0  0  0  0  0  0
   29.5544   -7.7810    0.3455 H   0  0  0  0  0  0  0  0  0  0  0  0
   29.5973   -5.3607    0.8284 H   0  0  0  0  0  0  0  0  0  0  0  0
   25.8927   -4.4269   -0.7200 H   0  0  0  0  0  0  0  0  0  0  0  0
   24.0389   -2.5335   -0.3092 H   0  0  0  0  0  0  0  0  0  0  0  0
   65.8594   -0.0019    0.0290 Zn  0  0  0  0  0  0  0  0  0  0  0  0
   69.2692   -0.0283    0.0791 C   0  0  0  0  0  0  0  0  0  0  0  0
   68.6370   -1.2324    0.3637 C   0  0  0  0  0  0  0  0  0  0  0  0
   69.3086   -2.4710    0.6424 C   0  0  0  0  0  0  0  0  0  0  0  0
   68.3479   -3.4022    0.8643 C   0  0  0  0  0  0  0  0  0  0  0  0
   67.0763   -2.7402    0.7350 C   0  0  0  0  0  0  0  0  0  0  0  0
   67.2870   -1.4296    0.4225 N   0  0  0  0  0  0  0  0  0  0  0  0
   65.8232   -3.3492    0.8786 C   0  0  0  0  0  0  0  0  0  0  0  0
   65.8105   -4.7879    1.2399 C   0  0  0  0  0  0  0  0  0  0  0  0
   66.3661   -5.2206    2.4464 C   0  0  0  0  0  0  0  0  0  0  0  0
   66.3609   -6.5619    2.7846 C   0  0  0  0  0  0  0  0  0  0  0  0
   65.8013   -7.5020    1.9140 C   0  0  0  0  0  0  0  0  0  0  0  0
   65.8001   -8.8838    2.2555 C   0  0  0  0  0  0  0  0  0  0  0  0
   65.7998  -10.0010    2.5317 N   0  0  0  0  0  0  0  0  0  0  0  0
   65.2444   -7.0746    0.7049 C   0  0  0  0  0  0  0  0  0  0  0  0
   65.2481   -5.7309    0.3763 C   0  0  0  0  0  0  0  0  0  0  0  0
   64.5847   -2.7201    0.7103 C   0  0  0  0  0  0  0  0  0  0  0  0
   63.3041   -3.3401    0.9128 C   0  0  0  0  0  0  0  0  0  0  0  0
   62.3596   -2.3972    0.6654 C   0  0  0  0  0  0  0  0  0  0  0  0
   64.3935   -1.4108    0.3579 N   0  0  0  0  0  0  0  0  0  0  0  0
   63.0520   -1.1909    0.3182 C   0  0  0  0  0  0  0  0  0  0  0  0
   62.4228    0.0271   -0.0106 C   0  0  0  0  0  0  0  0  0  0  0  0
   63.0797    1.2331   -0.3286 C   0  0  0  0  0  0  0  0  0  0  0  0
   62.4158    2.4493   -0.6964 C   0  0  0  0  0  0  0  0  0  0  0  0
   63.3817    3.3748   -0.9271 C   0  0  0  0  0  0  0  0  0  0  0  0
   64.6466    2.7345   -0.6919 C   0  0  0  0  0  0  0  0  0  0  0  0
   64.4253    1.4302   -0.3386 N   0  0  0  0  0  0  0  0  0  0  0  0
   65.8993    3.3423   -0.8310 C   0  0  0  0  0  0  0  0  0  0  0  0
   65.9207    4.7781   -1.2033 C   0  0  0  0  0  0  0  0  0  0  0  0
   66.5179    5.1905   -2.3970 C   0  0  0  0  0  0  0  0  0  0  0  0
   66.5453    6.5285   -2.7469 C   0  0  0  0  0  0  0  0  0  0  0  0
   65.9771    7.4857   -1.9009 C   0  0  0  0  0  0  0  0  0  0  0  0
   66.0097    8.8643   -2.2538 C   0  0  0  0  0  0  0  0  0  0  0  0
   66.0372    9.9782   -2.5417 N   0  0  0  0  0  0  0  0  0  0  0  0
   65.3789    7.0788   -0.7046 C   0  0  0  0  0  0  0  0  0  0  0  0
   65.3504    5.7383   -0.3642 C   0  0  0  0  0  0  0  0  0  0  0  0
   67.1380    2.7144   -0.6487 C   0  0  0  0  0  0  0  0  0  0  0  0
   68.4227    3.3568   -0.7416 C   0  0  0  0  0  0  0  0  0  0  0  0
   69.3622    2.4123   -0.4870 C   0  0  0  0  0  0  0  0  0  0  0  0
   68.6639    1.1848   -0.2256 C   0  0  0  0  0  0  0  0  0  0  0  0
   67.3194    1.4020   -0.3257 N   0  0  0  0  0  0  0  0  0  0  0  0
   70.3547   -0.0363    0.0956 H   0  0  0  0  0  0  0  0  0  0  0  0
   70.3793   -2.6015    0.6552 H   0  0  0  0  0  0  0  0  0  0  0  0
   68.4837   -4.4489    1.0848 H   0  0  0  0  0  0  0  0  0  0  0  0
   66.7909   -4.4936    3.1293 H   0  0  0  0  0  0  0  0  0  0  0  0
   66.7894   -6.8890    3.7247 H   0  0  0  0  0  0  0  0  0  0  0  0
   64.8127   -7.8008    0.0261 H   0  0  0  0  0  0  0  0  0  0  0  0
   64.8269   -5.4049   -0.5680 H   0  0  0  0  0  0  0  0  0  0  0  0
   63.1493   -4.3622    1.2186 H   0  0  0  0  0  0  0  0  0  0  0  0
   61.2875   -2.5001    0.7183 H   0  0  0  0  0  0  0  0  0  0  0  0
   61.3471    2.5698   -0.7742 H   0  0  0  0  0  0  0  0  0  0  0  0
   63.2511    4.3978   -1.2412 H   0  0  0  0  0  0  0  0  0  0  0  0
   66.9498    4.4501   -3.0609 H   0  0  0  0  0  0  0  0  0  0  0  0
   67.0061    6.8397   -3.6771 H   0  0  0  0  0  0  0  0  0  0  0  0
   64.9407    7.8184   -0.0447 H   0  0  0  0  0  0  0  0  0  0  0  0
   64.8972    5.4283    0.5707 H   0  0  0  0  0  0  0  0  0  0  0  0
   68.5809    4.4005   -0.9611 H   0  0  0  0  0  0  0  0  0  0  0  0
   70.4346    2.5269   -0.4673 H   0  0  0  0  0  0  0  0  0  0  0  0
   33.4534   -0.0089   -0.0665 C   0  0  0  0  0  0  0  0  0  0  0  0
   34.6783   -0.0146   -0.0744 C   0  0  0  0  0  0  0  0  0  0  0  0
   36.0209   -0.0179   -0.0801 C   0  0  0  0  0  0  0  0  0  0  0  0
   37.2519   -0.0162   -0.0816 C   0  0  0  0  0  0  0  0  0  0  0  0
   38.5897   -0.0128   -0.0803 C   0  0  0  0  0  0  0  0  0  0  0  0
   39.8208   -0.0115   -0.0752 C   0  0  0  0  0  0  0  0  0  0  0  0
   41.1631   -0.0034   -0.0682 C   0  0  0  0  0  0  0  0  0  0  0  0
   42.3882    0.0020   -0.0605 C   0  0  0  0  0  0  0  0  0  0  0  0
   52.0822    0.0463   -0.0323 C   0  0  0  0  0  0  0  0  0  0  0  0
   53.3072    0.0512   -0.0325 C   0  0  0  0  0  0  0  0  0  0  0  0
   54.6499    0.0542   -0.0322 C   0  0  0  0  0  0  0  0  0  0  0  0
   55.8808    0.0552   -0.0330 C   0  0  0  0  0  0  0  0  0  0  0  0
   57.2189    0.0538   -0.0328 C   0  0  0  0  0  0  0  0  0  0  0  0
   58.4497    0.0534   -0.0295 C   0  0  0  0  0  0  0  0  0  0  0  0
   59.7926    0.0474   -0.0256 C   0  0  0  0  0  0  0  0  0  0  0  0
   61.0174    0.0392   -0.0221 C   0  0  0  0  0  0  0  0  0  0  0  0
   47.2350    0.0220   -0.0401 Zn  0  0  0  0  0  0  0  0  0  0  0  0
   43.7926    0.0075   -0.0530 C   0  0  0  0  0  0  0  0  0  0  0  0
   44.4443   -1.1604   -0.4997 C   0  0  0  0  0  0  0  0  0  0  0  0
   43.7741   -2.3531   -0.9258 C   0  0  0  0  0  0  0  0  0  0  0  0
   44.7358   -3.2430   -1.2816 C   0  0  0  0  0  0  0  0  0  0  0  0
   46.0034   -2.5970   -1.0844 C   0  0  0  0  0  0  0  0  0  0  0  0
   45.7893   -1.3348   -0.5991 N   0  0  0  0  0  0  0  0  0  0  0  0
   47.2535   -3.1777   -1.3256 C   0  0  0  0  0  0  0  0  0  0  0  0
   47.2608   -4.5529   -1.8829 C   0  0  0  0  0  0  0  0  0  0  0  0
   46.6993   -4.8117   -3.1354 C   0  0  0  0  0  0  0  0  0  0  0  0
   46.7072   -6.0912   -3.6611 C   0  0  0  0  0  0  0  0  0  0  0  0
   47.2749   -7.1431   -2.9361 C   0  0  0  0  0  0  0  0  0  0  0  0
   47.2824   -8.4616   -3.4725 C   0  0  0  0  0  0  0  0  0  0  0  0
   47.2894   -9.5269   -3.9076 N   0  0  0  0  0  0  0  0  0  0  0  0
   47.8352   -6.8903   -1.6804 C   0  0  0  0  0  0  0  0  0  0  0  0
   47.8292   -5.6070   -1.1639 C   0  0  0  0  0  0  0  0  0  0  0  0
   48.4970   -2.5799   -1.0920 C   0  0  0  0  0  0  0  0  0  0  0  0
   49.7717   -3.1699   -1.3920 C   0  0  0  0  0  0  0  0  0  0  0  0
   50.7230   -2.2713   -1.0305 C   0  0  0  0  0  0  0  0  0  0  0  0
   48.6966   -1.3307   -0.5684 N   0  0  0  0  0  0  0  0  0  0  0  0
   50.0394   -1.1219   -0.5158 C   0  0  0  0  0  0  0  0  0  0  0  0
   50.6774    0.0389   -0.0328 C   0  0  0  0  0  0  0  0  0  0  0  0
   50.0260    1.1927    0.4490 C   0  0  0  0  0  0  0  0  0  0  0  0
   50.6961    2.3479    0.9683 C   0  0  0  0  0  0  0  0  0  0  0  0
   49.7345    3.2364    1.3275 C   0  0  0  0  0  0  0  0  0  0  0  0
   48.4669    2.6344    1.0209 C   0  0  0  0  0  0  0  0  0  0  0  0
   48.6810    1.3880    0.4966 N   0  0  0  0  0  0  0  0  0  0  0  0
   47.2167    3.2207    1.2478 C   0  0  0  0  0  0  0  0  0  0  0  0
   47.2085    4.5963    1.8043 C   0  0  0  0  0  0  0  0  0  0  0  0
   46.6387    4.8514    3.0538 C   0  0  0  0  0  0  0  0  0  0  0  0
   46.6319    6.1317    3.5776 C   0  0  0  0  0  0  0  0  0  0  0  0
   47.1927    7.1880    2.8535 C   0  0  0  0  0  0  0  0  0  0  0  0
   47.1853    8.5073    3.3883 C   0  0  0  0  0  0  0  0  0  0  0  0
   47.1757    9.5740    3.8199 N   0  0  0  0  0  0  0  0  0  0  0  0
   47.7615    6.9388    1.6010 C   0  0  0  0  0  0  0  0  0  0  0  0
   47.7703    5.6547    1.0865 C   0  0  0  0  0  0  0  0  0  0  0  0
   45.9733    2.6293    0.9980 C   0  0  0  0  0  0  0  0  0  0  0  0
   44.6989    3.2645    1.1861 C   0  0  0  0  0  0  0  0  0  0  0  0
   43.7475    2.3672    0.8215 C   0  0  0  0  0  0  0  0  0  0  0  0
   44.4309    1.1804    0.3998 C   0  0  0  0  0  0  0  0  0  0  0  0
   45.7735    1.3658    0.5101 N   0  0  0  0  0  0  0  0  0  0  0  0
   42.7044   -2.4881   -0.9412 H   0  0  0  0  0  0  0  0  0  0  0  0
   44.5999   -4.2525   -1.6347 H   0  0  0  0  0  0  0  0  0  0  0  0
   46.2683   -3.9964   -3.7055 H   0  0  0  0  0  0  0  0  0  0  0  0
   46.2751   -6.2827   -4.6364 H   0  0  0  0  0  0  0  0  0  0  0  0
   48.2726   -7.7041   -1.1138 H   0  0  0  0  0  0  0  0  0  0  0  0
   48.2545   -5.4170   -0.1849 H   0  0  0  0  0  0  0  0  0  0  0  0
   49.9191   -4.1419   -1.8345 H   0  0  0  0  0  0  0  0  0  0  0  0
   51.7940   -2.3684   -1.1095 H   0  0  0  0  0  0  0  0  0  0  0  0
   51.7658    2.4554    1.0518 H   0  0  0  0  0  0  0  0  0  0  0  0
   49.8703    4.2090    1.7724 H   0  0  0  0  0  0  0  0  0  0  0  0
   46.2129    4.0328    3.6232 H   0  0  0  0  0  0  0  0  0  0  0  0
   46.1937    6.3205    4.5507 H   0  0  0  0  0  0  0  0  0  0  0  0
   48.1938    7.7558    1.0352 H   0  0  0  0  0  0  0  0  0  0  0  0
   48.2022    5.4672    0.1099 H   0  0  0  0  0  0  0  0  0  0  0  0
   44.5520    4.2724    1.5393 H   0  0  0  0  0  0  0  0  0  0  0  0
   42.6766    2.4933    0.8283 H   0  0  0  0  0  0  0  0  0  0  0  0
  2  3  4  0  0  0  0
  3  4  1  0  0  0  0
  4  5  2  0  0  0  0
  5  6  4  0  0  0  0
  1  7  1  0  0  0  0
  3  7  4  0  0  0  0
  6  7  4  0  0  0  0
  6  8  4  0  0  0  0
  8  9  1  0  0  0  0
  9 10  4  0  0  0  0
 10 11  4  0  0  0  0
 11 12  4  0  0  0  0
 12 13  1  0  0  0  0
 13 14  3  0  0  0  0
 12 15  4  0  0  0  0
  9 16  4  0  0  0  0
 15 16  4  0  0  0  0
  8 17  4  0  0  0  0
 17 18  4  0  0  0  0
 18 19  2  0  0  0  0
  1 20  1  0  0  0  0
 17 20  4  0  0  0  0
 19 21  4  0  0  0  0
 20 21  4  0  0  0  0
 21 22  4  0  0  0  0
 22 23  4  0  0  0  0
 23 24  4  0  0  0  0
 24 25  2  0  0  0  0
 25 26  4  0  0  0  0
  1 27  1  0  0  0  0
 23 27  4  0  0  0  0
 26 27  4  0  0  0  0
 26 28  4  0  0  0  0
 28 29  1  0  0  0  0
 29 30  4  0  0  0  0
 30 31  4  0  0  0  0
 31 32  4  0  0  0  0
 32 33  1  0  0  0  0
 33 34  3  0  0  0  0
 32 35  4  0  0  0  0
 29 36  4  0  0  0  0
 35 36  4  0  0  0  0
 28 37  4  0  0  0  0
 37 38  4  0  0  0  0
 38 39  2  0  0  0  0
  2 40  4  0  0  0  0
 39 40  1  0  0  0  0
  1 41  1  0  0  0  0
 37 41  4  0  0  0  0
 40 41  4  0  0  0  0
  2 42  1  0  0  0  0
  4 43  1  0  0  0  0
  5 44  1  0  0  0  0
 10 45  1  0  0  0  0
 11 46  1  0  0  0  0
 15 47  1  0  0  0  0
 16 48  1  0  0  0  0
 18 49  1  0  0  0  0
 19 50  1  0  0  0  0
 24 51  1  0  0  0  0
 25 52  1  0  0  0  0
 30 53  1  0  0  0  0
 31 54  1  0  0  0  0
 35 55  1  0  0  0  0
 36 56  1  0  0  0  0
 38 57  1  0  0  0  0
 39 58  1  0  0  0  0
 60 61  4  0  0  0  0
 61 62  1  0  0  0  0
 62 63  2  0  0  0  0
 63 64  4  0  0  0  0
 59 65  1  0  0  0  0
 61 65  4  0  0  0  0
 64 65  4  0  0  0  0
 64 66  4  0  0  0  0
 66 67  1  0  0  0  0
 67 68  4  0  0  0  0
 68 69  4  0  0  0  0
 69 70  4  0  0  0  0
 70 71  1  0  0  0  0
 71 72  3  0  0  0  0
 70 73  4  0  0  0  0
 67 74  4  0  0  0  0
 73 74  4  0  0  0  0
 66 75  4  0  0  0  0
 75 76  4  0  0  0  0
 76 77  2  0  0  0  0
 59 78  1  0  0  0  0
 75 78  4  0  0  0  0
 77 79  4  0  0  0  0
 78 79  4  0  0  0  0
 79 80  4  0  0  0  0
 80 81  4  0  0  0  0
 81 82  4  0  0  0  0
 82 83  2  0  0  0  0
 83 84  4  0  0  0  0
 59 85  1  0  0  0  0
 81 85  4  0  0  0  0
 84 85  4  0  0  0  0
 84 86  4  0  0  0  0
 86 87  1  0  0  0  0
 87 88  4  0  0  0  0
 88 89  4  0  0  0  0
 89 90  4  0  0  0  0
 90 91  1  0  0  0  0
 91 92  3  0  0  0  0
 90 93  4  0  0  0  0
 87 94  4  0  0  0  0
 93 94  4  0  0  0  0
 86 95  4  0  0  0  0
 95 96  4  0  0  0  0
 96 97  2  0  0  0  0
 60 98  4  0  0  0  0
 97 98  1  0  0  0  0
 59 99  1  0  0  0  0
 95 99  4  0  0  0  0
 98 99  4  0  0  0  0
 60100  1  0  0  0  0
 62101  1  0  0  0  0
 63102  1  0  0  0  0
 68103  1  0  0  0  0
 69104  1  0  0  0  0
 73105  1  0  0  0  0
 74106  1  0  0  0  0
 76107  1  0  0  0  0
 77108  1  0  0  0  0
 82109  1  0  0  0  0
 83110  1  0  0  0  0
 88111  1  0  0  0  0
 89112  1  0  0  0  0
 93113  1  0  0  0  0
 94114  1  0  0  0  0
 96115  1  0  0  0  0
 97116  1  0  0  0  0
 22117  4  0  0  0  0
117118  3  0  0  0  0
118119  4  0  0  0  0
119120  3  0  0  0  0
120121  4  0  0  0  0
121122  3  0  0  0  0
122123  4  0  0  0  0
123124  3  0  0  0  0
125126  3  0  0  0  0
126127  4  0  0  0  0
127128  3  0  0  0  0
128129  4  0  0  0  0
129130  3  0  0  0  0
130131  4  0  0  0  0
 80132  4  0  0  0  0
131132  3  0  0  0  0
124134  4  0  0  0  0
134135  4  0  0  0  0
135136  4  0  0  0  0
136137  2  0  0  0  0
137138  4  0  0  0  0
133139  1  0  0  0  0
135139  4  0  0  0  0
138139  4  0  0  0  0
138140  4  0  0  0  0
140141  1  0  0  0  0
141142  4  0  0  0  0
142143  4  0  0  0  0
143144  4  0  0  0  0
144145  1  0  0  0  0
145146  3  0  0  0  0
144147  4  0  0  0  0
141148  4  0  0  0  0
147148  4  0  0  0  0
140149  4  0  0  0  0
149150  4  0  0  0  0
150151  2  0  0  0  0
133152  1  0  0  0  0
149152  4  0  0  0  0
151153  4  0  0  0  0
152153  4  0  0  0  0
125154  4  0  0  0  0
153154  4  0  0  0  0
154155  4  0  0  0  0
155156  4  0  0  0  0
156157  2  0  0  0  0
157158  4  0  0  0  0
133159  1  0  0  0  0
155159  4  0  0  0  0
158159  4  0  0  0  0
158160  4  0  0  0  0
160161  1  0  0  0  0
161162  4  0  0  0  0
162163  4  0  0  0  0
163164  4  0  0  0  0
164165  1  0  0  0  0
165166  3  0  0  0  0
164167  4  0  0  0  0
161168  4  0  0  0  0
167168  4  0  0  0  0
160169  4  0  0  0  0
169170  4  0  0  0  0
170171  2  0  0  0  0
134172  4  0  0  0  0
171172  4  0  0  0  0
133173  1  0  0  0  0
169173  4  0  0  0  0
172173  4  0  0  0  0
136174  1  0  0  0  0
137175  1  0  0  0  0
142176  1  0  0  0  0
143177  1  0  0  0  0
147178  1  0  0  0  0
148179  1  0  0  0  0
150180  1  0  0  0  0
151181  1  0  0  0  0
156182  1  0  0  0  0
157183  1  0  0  0  0
162184  1  0  0  0  0
163185  1  0  0  0  0
167186  1  0  0  0  0
168187  1  0  0  0  0
170188  1  0  0  0  0
171189  1  0  0  0  0
M  END
