540

C 137.059690 -0.039942 0.082049
C 137.787909 1.336022 0.160802
C 137.180601 2.557682 0.339170
C 138.203220 3.540516 0.292098
C 139.400690 2.884759 0.077022
N 139.139946 1.537492 0.045657
C 140.823531 3.553561 -0.125929
C 140.862929 5.019537 -0.329658
C 141.167278 5.870845 0.739603
C 141.196211 7.254549 0.552577
C 140.919710 7.794374 -0.708078
C 140.950504 9.214129 -0.903967
N 140.974229 10.363613 -1.068254
C 140.613015 6.946966 -1.778550
C 140.584790 5.562994 -1.587864
C 141.953805 2.797077 -0.149412
C 143.256898 3.377971 -0.401498
C 144.160324 2.405352 -0.385339
N 142.151922 1.451581 0.018368
C 143.483884 1.152631 -0.110847
C 144.155250 -0.027022 -0.025526
C 143.382104 -1.375018 0.301398
C 143.935803 -2.526444 0.828602
C 142.908489 -3.499600 0.901213
C 141.754796 -2.913511 0.425652
N 142.040238 -1.604926 0.119178
C 140.341715 -3.616358 0.271133
C 140.309335 -5.092136 0.184392
C 139.966976 -5.862747 1.302675
C 139.945576 -7.255922 1.217320
C 140.270851 -7.887290 0.011678
C 140.247186 -9.317592 -0.078540
N 140.228992 -10.476581 -0.152260
C 140.617505 -7.120710 -1.106955
C 140.635853 -5.727674 -1.018764
C 139.214370 -2.863857 0.186776
C 137.890973 -3.442493 0.031287
C 137.003644 -2.452312 -0.006125
C 137.725943 -1.209555 0.107082
N 139.048340 -1.507273 0.216549
H 135.980843 -0.038498 -0.018970
H 136.122641 2.723610 0.472221
H 138.074946 4.608634 0.380952
H 139.839346 0.804882 -0.044766
H 141.385796 5.437018 1.714180
H 141.436029 7.896567 1.395699
H 140.397285 7.347099 -2.764890
H 140.349399 4.893829 -2.412289
H 143.469829 4.415539 -0.587189
H 145.212849 2.547928 -0.549198
H 144.968915 -2.660524 1.111402
H 143.006755 -4.517153 1.243435
H 141.352334 -0.909324 -0.160372
H 139.712503 -5.359011 2.232987
H 139.674191 -7.834786 2.095851
H 140.875718 -7.591928 -2.051757
H 140.899471 -5.119301 -1.883103
H 137.659437 -4.489350 -0.041586
H 135.938356 -2.552210 -0.113346
C 229.472746 0.015263 0.074230
C 228.744527 -1.284717 0.531977
C 229.351835 -2.408799 1.042572
C 228.329215 -3.366050 1.270275
C 227.131745 -2.795808 0.881561
N 227.392490 -1.510238 0.477307
C 225.708904 -3.494664 0.872312
C 225.669507 -4.959558 1.083681
C 225.365158 -5.480462 2.347289
C 225.336225 -6.861681 2.551859
C 225.612725 -7.730346 1.490689
C 225.581931 -9.148660 1.696756
N 225.558206 -10.298556 1.858130
C 225.919421 -7.213525 0.227000
C 225.947645 -5.831033 0.025872
C 224.578631 -2.774453 0.639684
C 223.275538 -3.402503 0.558820
C 222.372111 -2.463649 0.304258
N 224.380513 -1.435283 0.427235
C 223.048552 -1.183973 0.220086
C 222.377186 -0.027022 -0.025526
C 223.150332 1.358742 -0.085785
C 222.596632 2.611283 0.100946
C 223.623946 3.566329 -0.099535
C 224.777640 2.871231 -0.393642
N 224.492197 1.529008 -0.324681
C 226.190720 3.503528 -0.737256
C 226.223100 4.897177 -1.230395
C 226.565460 5.948016 -0.370084
C 226.586860 7.262697 -0.838953
C 226.261585 7.534439 -2.172502
C 226.285249 8.883435 -2.656352
N 226.303443 9.976372 -3.049012
C 225.914931 6.487375 -3.034269
C 225.896583 5.173616 -2.562714
C 227.318066 2.757197 -0.609334
C 228.641463 3.269898 -0.919389
C 229.528791 2.308271 -0.680366
C 228.806492 1.145827 -0.226510
N 227.484096 1.462234 -0.204022
H 230.551592 -0.014177 -0.022414
H 230.409795 -2.531254 1.216467
H 228.457490 -4.367486 1.652240
H 226.693090 -0.831550 0.187002
H 225.146640 -4.793067 3.163067
H 225.096407 -7.244322 3.540103
H 226.135151 -7.871818 -0.609434
H 226.183036 -5.417119 -0.951949
H 223.062607 -4.450828 0.668555
H 221.319586 -2.646120 0.186435
H 221.563521 2.818620 0.335391
H 223.525681 4.638893 -0.053336
H 225.180101 0.783134 -0.400075
H 226.819932 5.722430 0.663523
H 226.858245 8.062754 -0.155718
H 225.656718 6.677698 -4.072765
H 225.632965 4.349152 -3.224120
H 228.872998 4.255346 -1.280098
H 230.594079 2.374466 -0.811111
C 145.970519 -0.027022 -0.025526
C 147.192437 -0.027022 -0.025526
C 156.451873 -0.027022 -0.025526
C 157.673791 -0.027022 -0.025526
C 166.933228 -0.027022 -0.025526
C 168.155145 -0.027022 -0.025526
C 177.414582 -0.027022 -0.025526
C 178.636499 -0.027022 -0.025526
C 187.895936 -0.027022 -0.025526
C 189.117854 -0.027022 -0.025526
C 198.377290 -0.027022 -0.025526
C 199.599208 -0.027022 -0.025526
C 208.858645 -0.027022 -0.025526
C 210.080562 -0.027022 -0.025526
C 219.339999 -0.027022 -0.025526
C 220.561916 -0.027022 -0.025526
C 148.243089 0.008919 0.008425
C 149.038323 1.160649 -0.733312
C 148.537157 2.381017 -1.138072
C 149.575719 3.056742 -1.828791
C 150.679498 2.229886 -1.818766
N 150.365093 1.114456 -1.084009
C 152.066327 2.503617 -2.530013
C 152.054194 3.349001 -3.744377
C 151.577533 2.830166 -4.953813
C 151.550912 3.626850 -6.100653
C 152.000136 4.951005 -6.042172
C 151.974059 5.770091 -7.218145
N 151.952770 6.436072 -8.170177
C 152.474242 5.475515 -4.834333
C 152.498607 4.676122 -3.689592
C 153.202704 1.931358 -2.053672
C 154.488124 2.102537 -2.699296
C 155.397205 1.422477 -2.009042
N 153.412542 1.120336 -0.973716
C 154.736718 0.782780 -0.889344
C 155.401043 0.008919 0.008425
C 154.605827 -0.664513 1.201393
C 155.107078 -0.997736 2.443161
C 154.068523 -1.647940 3.157960
C 152.964642 -1.685768 2.332049
N 153.278993 -1.017070 1.175792
C 151.577817 -2.379895 2.646741
C 151.590136 -3.543340 3.560950
C 152.068439 -4.780252 3.113274
C 152.095269 -5.879173 3.974830
C 151.644633 -5.744809 5.292962
C 151.670873 -6.871576 6.178512
N 151.692237 -7.783698 6.898161
C 151.168938 -4.509149 5.746432
C 151.144395 -3.412459 4.882283
C 150.441410 -1.937613 2.047816
C 149.156040 -2.572352 2.256073
C 148.246950 -1.922870 1.536990
C 148.907386 -0.842169 0.833368
N 150.231519 -0.906565 1.175470
H 147.531564 2.738129 -0.974897
H 149.517821 4.027426 -2.297491
H 151.022630 0.392015 -0.805158
H 151.230103 1.799033 -4.987878
H 151.178227 3.202358 -7.029150
H 152.827703 6.501158 -4.769879
H 152.866958 5.071487 -2.744490
H 154.683890 2.671648 -3.590137
H 156.441302 1.365001 -2.257478
H 156.112721 -0.814250 2.790084
H 154.126464 -2.059539 4.154210
H 152.621380 -0.780429 0.438545
H 152.416999 -4.873444 2.086180
H 152.469225 -6.830263 3.604988
H 150.814365 -4.385957 6.766306
H 150.774848 -2.446450 5.222103
H 148.960322 -3.428701 2.875884
H 147.202898 -2.174393 1.493886
C 158.724443 0.008919 0.008425
C 159.519677 1.160649 -0.733312
C 159.018512 2.381017 -1.138072
C 160.057073 3.056742 -1.828791
C 161.160852 2.229886 -1.818766
N 160.846448 1.114456 -1.084009
C 162.547681 2.503617 -2.530013
C 162.535549 3.349001 -3.744377
C 162.058887 2.830166 -4.953813
C 162.032266 3.626850 -6.100653
C 162.481490 4.951005 -6.042172
C 162.455413 5.770091 -7.218145
N 162.434125 6.436072 -8.170177
C 162.955596 5.475515 -4.834333
C 162.979962 4.676122 -3.689592
C 163.684058 1.931358 -2.053672
C 164.969478 2.102537 -2.699296
C 165.878559 1.422477 -2.009042
N 163.893896 1.120336 -0.973716
C 165.218072 0.782780 -0.889344
C 165.882398 0.008919 0.008425
C 165.087181 -0.664513 1.201393
C 165.588433 -0.997736 2.443161
C 164.549877 -1.647940 3.157960
C 163.445996 -1.685768 2.332049
N 163.760347 -1.017070 1.175792
C 162.059171 -2.379895 2.646741
C 162.071490 -3.543340 3.560950
C 162.549794 -4.780252 3.113274
C 162.576623 -5.879173 3.974830
C 162.125987 -5.744809 5.292962
C 162.152227 -6.871576 6.178512
N 162.173591 -7.783698 6.898161
C 161.650292 -4.509149 5.746432
C 161.625749 -3.412459 4.882283
C 160.922765 -1.937613 2.047816
C 159.637394 -2.572352 2.256073
C 158.728304 -1.922870 1.536990
C 159.388740 -0.842169 0.833368
N 160.712873 -0.906565 1.175470
H 158.012918 2.738129 -0.974897
H 159.999176 4.027426 -2.297491
H 161.503984 0.392015 -0.805158
H 161.711457 1.799033 -4.987878
H 161.659581 3.202358 -7.029150
H 163.309057 6.501158 -4.769879
H 163.348312 5.071487 -2.744490
H 165.165244 2.671648 -3.590137
H 166.922656 1.365001 -2.257478
H 166.594075 -0.814250 2.790084
H 164.607819 -2.059539 4.154210
H 163.102734 -0.780429 0.438545
H 162.898353 -4.873444 2.086180
H 162.950579 -6.830263 3.604988
H 161.295719 -4.385957 6.766306
H 161.256203 -2.446450 5.222103
H 159.441676 -3.428701 2.875884
H 157.684252 -2.174393 1.493886
C 169.205797 0.008919 0.008425
C 170.001031 1.160649 -0.733312
C 169.499866 2.381017 -1.138072
C 170.538428 3.056742 -1.828791
C 171.642206 2.229886 -1.818766
N 171.327802 1.114456 -1.084009
C 173.029035 2.503617 -2.530013
C 173.016903 3.349001 -3.744377
C 172.540241 2.830166 -4.953813
C 172.513621 3.626850 -6.100653
C 172.962845 4.951005 -6.042172
C 172.936767 5.770091 -7.218145
N 172.915479 6.436072 -8.170177
C 173.436951 5.475515 -4.834333
C 173.461316 4.676122 -3.689592
C 174.165412 1.931358 -2.053672
C 175.450832 2.102537 -2.699296
C 176.359914 1.422477 -2.009042
N 174.375251 1.120336 -0.973716
C 175.699427 0.782780 -0.889344
C 176.363752 0.008919 0.008425
C 175.568535 -0.664513 1.201393
C 176.069787 -0.997736 2.443161
C 175.031232 -1.647940 3.157960
C 173.927351 -1.685768 2.332049
N 174.241701 -1.017070 1.175792
C 172.540526 -2.379895 2.646741
C 172.552845 -3.543340 3.560950
C 173.031148 -4.780252 3.113274
C 173.057977 -5.879173 3.974830
C 172.607342 -5.744809 5.292962
C 172.633581 -6.871576 6.178512
N 172.654945 -7.783698 6.898161
C 172.131646 -4.509149 5.746432
C 172.107103 -3.412459 4.882283
C 171.404119 -1.937613 2.047816
C 170.118748 -2.572352 2.256073
C 169.209658 -1.922870 1.536990
C 169.870094 -0.842169 0.833368
N 171.194227 -0.906565 1.175470
H 168.494273 2.738129 -0.974897
H 170.480530 4.027426 -2.297491
H 171.985339 0.392015 -0.805158
H 172.192811 1.799033 -4.987878
H 172.140936 3.202358 -7.029150
H 173.790412 6.501158 -4.769879
H 173.829666 5.071487 -2.744490
H 175.646599 2.671648 -3.590137
H 177.404010 1.365001 -2.257478
H 177.075429 -0.814250 2.790084
H 175.089173 -2.059539 4.154210
H 173.584088 -0.780429 0.438545
H 173.379708 -4.873444 2.086180
H 173.431933 -6.830263 3.604988
H 171.777073 -4.385957 6.766306
H 171.737557 -2.446450 5.222103
H 169.923030 -3.428701 2.875884
H 168.165606 -2.174393 1.493886
C 179.687152 0.008919 0.008425
C 180.482386 1.160649 -0.733312
C 179.981220 2.381017 -1.138072
C 181.019782 3.056742 -1.828791
C 182.123560 2.229886 -1.818766
N 181.809156 1.114456 -1.084009
C 183.510390 2.503617 -2.530013
C 183.498257 3.349001 -3.744377
C 183.021595 2.830166 -4.953813
C 182.994975 3.626850 -6.100653
C 183.444199 4.951005 -6.042172
C 183.418122 5.770091 -7.218145
N 183.396833 6.436072 -8.170177
C 183.918305 5.475515 -4.834333
C 183.942670 4.676122 -3.689592
C 184.646766 1.931358 -2.053672
C 185.932187 2.102537 -2.699296
C 186.841268 1.422477 -2.009042
N 184.856605 1.120336 -0.973716
C 186.180781 0.782780 -0.889344
C 186.845106 0.008919 0.008425
C 186.049889 -0.664513 1.201393
C 186.551141 -0.997736 2.443161
C 185.512586 -1.647940 3.157960
C 184.408705 -1.685768 2.332049
N 184.723056 -1.017070 1.175792
C 183.021880 -2.379895 2.646741
C 183.034199 -3.543340 3.560950
C 183.512502 -4.780252 3.113274
C 183.539331 -5.879173 3.974830
C 183.088696 -5.744809 5.292962
C 183.114936 -6.871576 6.178512
N 183.136300 -7.783698 6.898161
C 182.613000 -4.509149 5.746432
C 182.588458 -3.412459 4.882283
C 181.885473 -1.937613 2.047816
C 180.600103 -2.572352 2.256073
C 179.691012 -1.922870 1.536990
C 180.351448 -0.842169 0.833368
N 181.675582 -0.906565 1.175470
H 178.975627 2.738129 -0.974897
H 180.961884 4.027426 -2.297491
H 182.466693 0.392015 -0.805158
H 182.674166 1.799033 -4.987878
H 182.622290 3.202358 -7.029150
H 184.271766 6.501158 -4.769879
H 184.311021 5.071487 -2.744490
H 186.127953 2.671648 -3.590137
H 187.885364 1.365001 -2.257478
H 187.556784 -0.814250 2.790084
H 185.570527 -2.059539 4.154210
H 184.065443 -0.780429 0.438545
H 183.861062 -4.873444 2.086180
H 183.913287 -6.830263 3.604988
H 182.258428 -4.385957 6.766306
H 182.218911 -2.446450 5.222103
H 180.404385 -3.428701 2.875884
H 178.646961 -2.174393 1.493886
C 190.168506 0.008919 0.008425
C 190.963740 1.160649 -0.733312
C 190.462574 2.381017 -1.138072
C 191.501136 3.056742 -1.828791
C 192.604915 2.229886 -1.818766
N 192.290510 1.114456 -1.084009
C 193.991744 2.503617 -2.530013
C 193.979611 3.349001 -3.744377
C 193.502950 2.830166 -4.953813
C 193.476329 3.626850 -6.100653
C 193.925553 4.951005 -6.042172
C 193.899476 5.770091 -7.218145
N 193.878187 6.436072 -8.170177
C 194.399659 5.475515 -4.834333
C 194.424024 4.676122 -3.689592
C 195.128121 1.931358 -2.053672
C 196.413541 2.102537 -2.699296
C 197.322622 1.422477 -2.009042
N 195.337959 1.120336 -0.973716
C 196.662135 0.782780 -0.889344
C 197.326460 0.008919 0.008425
C 196.531244 -0.664513 1.201393
C 197.032495 -0.997736 2.443161
C 195.993940 -1.647940 3.157960
C 194.890059 -1.685768 2.332049
N 195.204410 -1.017070 1.175792
C 193.503234 -2.379895 2.646741
C 193.515553 -3.543340 3.560950
C 193.993856 -4.780252 3.113274
C 194.020686 -5.879173 3.974830
C 193.570050 -5.744809 5.292962
C 193.596290 -6.871576 6.178512
N 193.617654 -7.783698 6.898161
C 193.094355 -4.509149 5.746432
C 193.069812 -3.412459 4.882283
C 192.366827 -1.937613 2.047816
C 191.081457 -2.572352 2.256073
C 190.172367 -1.922870 1.536990
C 190.832803 -0.842169 0.833368
N 192.156936 -0.906565 1.175470
H 189.456981 2.738129 -0.974897
H 191.443239 4.027426 -2.297491
H 192.948047 0.392015 -0.805158
H 193.155520 1.799033 -4.987878
H 193.103644 3.202358 -7.029150
H 194.753120 6.501158 -4.769879
H 194.792375 5.071487 -2.744490
H 196.609307 2.671648 -3.590137
H 198.366719 1.365001 -2.257478
H 198.038138 -0.814250 2.790084
H 196.051881 -2.059539 4.154210
H 194.546797 -0.780429 0.438545
H 194.342416 -4.873444 2.086180
H 194.394642 -6.830263 3.604988
H 192.739782 -4.385957 6.766306
H 192.700265 -2.446450 5.222103
H 190.885739 -3.428701 2.875884
H 189.128315 -2.174393 1.493886
C 200.649860 0.008919 0.008425
C 201.445094 1.160649 -0.733312
C 200.943929 2.381017 -1.138072
C 201.982490 3.056742 -1.828791
C 203.086269 2.229886 -1.818766
N 202.771865 1.114456 -1.084009
C 204.473098 2.503617 -2.530013
C 204.460966 3.349001 -3.744377
C 203.984304 2.830166 -4.953813
C 203.957683 3.626850 -6.100653
C 204.406907 4.951005 -6.042172
C 204.380830 5.770091 -7.218145
N 204.359542 6.436072 -8.170177
C 204.881014 5.475515 -4.834333
C 204.905379 4.676122 -3.689592
C 205.609475 1.931358 -2.053672
C 206.894895 2.102537 -2.699296
C 207.803977 1.422477 -2.009042
N 205.819313 1.120336 -0.973716
C 207.143489 0.782780 -0.889344
C 207.807815 0.008919 0.008425
C 207.012598 -0.664513 1.201393
C 207.513850 -0.997736 2.443161
C 206.475294 -1.647940 3.157960
C 205.371413 -1.685768 2.332049
N 205.685764 -1.017070 1.175792
C 203.984588 -2.379895 2.646741
C 203.996907 -3.543340 3.560950
C 204.475211 -4.780252 3.113274
C 204.502040 -5.879173 3.974830
C 204.051404 -5.744809 5.292962
C 204.077644 -6.871576 6.178512
N 204.099008 -7.783698 6.898161
C 203.575709 -4.509149 5.746432
C 203.551166 -3.412459 4.882283
C 202.848182 -1.937613 2.047816
C 201.562811 -2.572352 2.256073
C 200.653721 -1.922870 1.536990
C 201.314157 -0.842169 0.833368
N 202.638290 -0.906565 1.175470
H 199.938335 2.738129 -0.974897
H 201.924593 4.027426 -2.297491
H 203.429401 0.392015 -0.805158
H 203.636874 1.799033 -4.987878
H 203.584998 3.202358 -7.029150
H 205.234474 6.501158 -4.769879
H 205.273729 5.071487 -2.744490
H 207.090661 2.671648 -3.590137
H 208.848073 1.365001 -2.257478
H 208.519492 -0.814250 2.790084
H 206.533236 -2.059539 4.154210
H 205.028151 -0.780429 0.438545
H 204.823770 -4.873444 2.086180
H 204.875996 -6.830263 3.604988
H 203.221136 -4.385957 6.766306
H 203.181620 -2.446450 5.222103
H 201.367093 -3.428701 2.875884
H 199.609669 -2.174393 1.493886
C 211.131214 0.008919 0.008425
C 211.926448 1.160649 -0.733312
C 211.425283 2.381017 -1.138072
C 212.463845 3.056742 -1.828791
C 213.567623 2.229886 -1.818766
N 213.253219 1.114456 -1.084009
C 214.954452 2.503617 -2.530013
C 214.942320 3.349001 -3.744377
C 214.465658 2.830166 -4.953813
C 214.439038 3.626850 -6.100653
C 214.888262 4.951005 -6.042172
C 214.862184 5.770091 -7.218145
N 214.840896 6.436072 -8.170177
C 215.362368 5.475515 -4.834333
C 215.386733 4.676122 -3.689592
C 216.090829 1.931358 -2.053672
C 217.376249 2.102537 -2.699296
C 218.285331 1.422477 -2.009042
N 216.300668 1.120336 -0.973716
C 217.624844 0.782780 -0.889344
C 218.289169 0.008919 0.008425
C 217.493952 -0.664513 1.201393
C 217.995204 -0.997736 2.443161
C 216.956649 -1.647940 3.157960
C 215.852768 -1.685768 2.332049
N 216.167118 -1.017070 1.175792
C 214.465943 -2.379895 2.646741
C 214.478262 -3.543340 3.560950
C 214.956565 -4.780252 3.113274
C 214.983394 -5.879173 3.974830
C 214.532759 -5.744809 5.292962
C 214.558998 -6.871576 6.178512
N 214.580362 -7.783698 6.898161
C 214.057063 -4.509149 5.746432
C 214.032520 -3.412459 4.882283
C 213.329536 -1.937613 2.047816
C 212.044165 -2.572352 2.256073
C 211.135075 -1.922870 1.536990
C 211.795511 -0.842169 0.833368
N 213.119644 -0.906565 1.175470
H 210.419690 2.738129 -0.974897
H 212.405947 4.027426 -2.297491
H 213.910756 0.392015 -0.805158
H 214.118228 1.799033 -4.987878
H 214.066353 3.202358 -7.029150
H 215.715829 6.501158 -4.769879
H 215.755083 5.071487 -2.744490
H 217.572016 2.671648 -3.590137
H 219.329427 1.365001 -2.257478
H 219.000846 -0.814250 2.790084
H 217.014590 -2.059539 4.154210
H 215.509505 -0.780429 0.438545
H 215.305125 -4.873444 2.086180
H 215.357350 -6.830263 3.604988
H 213.702490 -4.385957 6.766306
H 213.662974 -2.446450 5.222103
H 211.848447 -3.428701 2.875884
H 210.091023 -2.174393 1.493886
