236

Co 46.960506 0.535719 0.410735
C 43.625963 0.409554 0.369076
C 44.286855 -0.751845 0.369844
C 43.634970 -2.054527 0.420241
C 44.573664 -2.981416 0.365385
C 45.878549 -2.313409 0.266133
N 45.702950 -0.896022 0.280510
C 47.068987 -2.939614 0.151270
C 47.120229 -4.420263 0.101990
C 46.649527 -5.080917 -0.966824
C 46.638667 -6.586557 -1.041015
N 47.442329 -7.204020 0.017111
C 47.889082 -6.475737 1.165439
C 47.739899 -5.154387 1.222070
C 48.359378 -2.205070 0.074082
C 49.639658 -2.834604 -0.273393
C 50.574162 -1.907135 -0.213115
N 48.505147 -0.941964 0.333331
C 49.898164 -0.674933 0.172696
C 50.494175 0.504745 0.412289
C 49.730152 1.714026 0.787627
C 50.254284 2.775632 1.387558
C 49.212176 3.781483 1.470885
C 48.122245 3.267744 0.911131
N 48.360391 1.935901 0.453569
C 46.851119 4.008503 0.710517
C 46.890340 5.492398 0.715848
C 46.213673 6.190836 1.642863
C 46.189244 7.697892 1.654141
N 47.196033 8.281017 0.763551
C 47.872316 7.512626 -0.237507
C 47.733756 6.189298 -0.275399
C 45.689776 3.360107 0.496966
C 44.388337 3.973100 0.235501
C 43.525030 2.978848 0.151110
C 44.266930 1.733914 0.343208
N 45.528942 1.943990 0.545480
H 42.542737 0.384563 0.383890
H 42.572074 -2.245556 0.493366
H 44.384333 -4.046159 0.388188
H 46.202500 -4.530842 -1.787063
H 47.035970 -6.902646 -2.029272
H 45.590150 -6.940594 -0.952416
H 47.593144 -8.236913 -0.009645
H 48.370825 -7.000546 1.980965
H 48.099096 -4.612365 2.089114
H 49.807060 -3.871223 -0.535537
H 51.625310 -2.062195 -0.414447
H 51.275715 2.889153 1.725862
H 49.316164 4.776710 1.884028
H 45.614063 5.668749 2.379509
H 46.374194 8.051279 2.690233
H 45.181584 8.041442 1.338632
H 47.338711 9.314821 0.779711
H 48.513133 8.009764 -0.955030
H 48.262186 5.618651 -1.029676
H 44.150187 5.022961 0.127833
H 42.462606 3.081250 -0.030415
Co 76.896679 0.474826 0.404123
C 80.231222 0.606993 0.390515
C 79.570331 1.741159 0.640548
C 80.222215 3.002662 0.969378
C 79.283521 3.919723 1.114748
C 77.978636 3.288588 0.874428
N 78.154235 1.901150 0.584242
C 76.788199 3.924853 0.896651
C 76.736956 5.381570 1.166326
C 77.207658 6.256236 0.264226
C 77.218518 7.742709 0.514934
N 76.414857 8.118665 1.680931
C 75.968103 7.160879 2.646176
C 76.117286 5.858169 2.417873
C 75.497807 3.223996 0.663599
C 74.217527 3.913439 0.459346
C 73.283023 2.994649 0.319148
N 75.352038 1.934684 0.645693
C 73.959021 1.708355 0.431487
C 73.363010 0.504745 0.412289
C 74.127034 -0.756914 0.519319
C 73.602901 -1.922547 0.877404
C 74.645009 -2.922839 0.742893
C 75.734940 -2.300929 0.306454
N 75.496794 -0.901916 0.145423
C 77.006066 -2.981364 -0.048480
C 76.966845 -4.431818 -0.361777
C 77.643512 -5.312952 0.393720
C 77.667941 -6.787304 0.081260
N 76.661153 -7.165682 -0.913736
C 75.984869 -6.200333 -1.726534
C 76.123430 -4.899714 -1.479503
C 78.167410 -2.302243 -0.117883
C 79.468848 -2.844828 -0.504826
C 80.332155 -1.855635 -0.373845
C 79.590255 -0.680949 0.080989
N 78.328243 -0.929544 0.233456
H 81.314448 0.628221 0.410348
H 81.285112 3.173543 1.081801
H 79.472853 4.954756 1.365556
H 77.654685 5.895038 -0.654965
H 76.821215 8.263550 -0.382444
H 78.267035 8.069477 0.677459
H 76.264041 9.133227 1.876499
H 75.486360 7.498412 3.555341
H 75.758090 5.142678 3.148369
H 74.050126 4.982165 0.425812
H 72.231875 3.189309 0.155790
H 72.581470 -2.106036 1.183457
H 74.541021 -3.983549 0.932792
H 78.243122 -4.961147 1.225257
H 77.482991 -7.354842 1.017354
H 78.675601 -7.055126 -0.300635
H 76.518475 -8.178860 -1.119848
H 75.344052 -6.531875 -2.534039
H 75.595000 -4.180469 -2.093717
H 79.706998 -3.847110 -0.835327
H 81.394579 -1.916688 -0.573119
C 51.871719 0.504745 0.412289
C 53.093637 0.504745 0.412289
C 61.317634 0.504745 0.412289
C 62.539551 0.504745 0.412289
C 70.763548 0.504745 0.412289
C 71.985466 0.504745 0.412289
Co 56.917001 0.019655 -0.275810
C 54.083351 -0.540166 -0.441221
C 54.402579 0.505156 -1.206219
C 54.198418 1.905659 -0.831618
C 55.007571 2.657401 -1.559368
C 55.872545 1.766964 -2.337033
N 55.457770 0.415563 -2.156313
C 57.105081 2.104778 -2.754943
C 57.449747 3.520779 -3.053077
C 56.656194 4.253457 -3.852730
C 56.964742 5.683604 -4.214381
N 58.093095 6.224186 -3.450419
C 58.951262 5.403365 -2.656269
C 58.661250 4.122218 -2.459522
C 58.205743 1.137965 -2.562022
C 59.335698 0.938497 -3.471237
C 60.232723 0.200478 -2.833997
N 58.416433 0.583599 -1.410970
C 59.693317 -0.034780 -1.496511
C 60.356805 -0.540166 -0.441221
C 59.754539 -0.588750 0.914240
C 60.432778 -0.594330 2.058502
C 59.458565 -0.651318 3.140527
C 58.250568 -0.687095 2.583276
N 58.353328 -0.645760 1.158400
C 56.962115 -0.830924 3.323008
C 56.976393 -1.263278 4.743519
C 57.555324 -2.424342 5.087949
C 57.625420 -2.886416 6.520223
N 56.683140 -2.168226 7.376909
C 56.156275 -0.887999 7.011827
C 56.297160 -0.441763 5.763386
C 55.787325 -0.664183 2.683311
C 54.456752 -1.060548 3.150652
C 53.656331 -0.987626 2.095478
C 54.452836 -0.494172 0.973489
N 55.685641 -0.318502 1.313333
H 53.519094 2.274386 -0.075194
H 55.108671 3.728065 -1.451678
H 55.780385 3.801787 -4.301254
H 57.198694 5.736093 -5.300751
H 56.064116 6.304939 -4.016689
H 58.334562 7.229440 -3.566475
H 59.831131 5.831257 -2.199458
H 59.313954 3.525780 -1.835573
H 59.441143 1.337611 -4.472313
H 61.190895 -0.105361 -3.232432
H 61.507062 -0.549383 2.171039
H 59.680635 -0.682259 4.200441
H 58.041770 -3.028837 4.337126
H 58.654917 -2.727320 6.899401
H 57.395218 -3.972079 6.558473
H 56.522245 -2.518339 8.348175
H 55.613880 -0.303828 7.736964
H 55.878916 0.523632 5.496868
H 54.177923 -1.428344 4.128145
H 52.616001 -1.272693 2.073378
Co 66.362916 0.019655 -0.275810
C 63.529265 -0.540166 -0.441221
C 63.848494 0.505156 -1.206219
C 63.644332 1.905659 -0.831618
C 64.453485 2.657401 -1.559368
C 65.318460 1.766964 -2.337033
N 64.903685 0.415563 -2.156313
C 66.550995 2.104778 -2.754943
C 66.895661 3.520779 -3.053077
C 66.102109 4.253457 -3.852730
C 66.410656 5.683604 -4.214381
N 67.539010 6.224186 -3.450419
C 68.397176 5.403365 -2.656269
C 68.107164 4.122218 -2.459522
C 67.651658 1.137965 -2.562022
C 68.781612 0.938497 -3.471237
C 69.678638 0.200478 -2.833997
N 67.862348 0.583599 -1.410970
C 69.139231 -0.034780 -1.496511
C 69.802720 -0.540166 -0.441221
C 69.200453 -0.588750 0.914240
C 69.878693 -0.594330 2.058502
C 68.904479 -0.651318 3.140527
C 67.696482 -0.687095 2.583276
N 67.799242 -0.645760 1.158400
C 66.408029 -0.830924 3.323008
C 66.422307 -1.263278 4.743519
C 67.001238 -2.424342 5.087949
C 67.071334 -2.886416 6.520223
N 66.129054 -2.168226 7.376909
C 65.602189 -0.887999 7.011827
C 65.743074 -0.441763 5.763386
C 65.233240 -0.664183 2.683311
C 63.902666 -1.060548 3.150652
C 63.102246 -0.987626 2.095478
C 63.898750 -0.494172 0.973489
N 65.131556 -0.318502 1.313333
H 62.965008 2.274386 -0.075194
H 64.554586 3.728065 -1.451678
H 65.226299 3.801787 -4.301254
H 66.644608 5.736093 -5.300751
H 65.510030 6.304939 -4.016689
H 67.780477 7.229440 -3.566475
H 69.277045 5.831257 -2.199458
H 68.759869 3.525780 -1.835573
H 68.887058 1.337611 -4.472313
H 70.636809 -0.105361 -3.232432
H 70.952976 -0.549383 2.171039
H 69.126550 -0.682259 4.200441
H 67.487684 -3.028837 4.337126
H 68.100832 -2.727320 6.899401
H 66.841132 -3.972079 6.558473
H 65.968159 -2.518339 8.348175
H 65.059794 -0.303828 7.736964
H 65.324831 0.523632 5.496868
H 63.623837 -1.428344 4.128145
H 62.061915 -1.272693 2.073378
