 xtb: 6.5.1 (b24c23e)
          07302200153D

236275  0     0  0            999 V2000
   46.1907    0.4482    0.1174 Co  0  0  0  0  0  0  0  0  0  0  0  0
   43.1279    0.2532   -1.1994 C   0  0  0  0  0  0  0  0  0  0  0  0
   43.6065   -0.8450   -0.5110 C   0  0  0  0  0  0  0  0  0  0  0  0
   42.8327   -2.0177   -0.2401 C   0  0  0  0  0  0  0  0  0  0  0  0
   43.5700   -2.7852    0.5990 C   0  0  0  0  0  0  0  0  0  0  0  0
   44.8275   -2.1194    0.7753 C   0  0  0  0  0  0  0  0  0  0  0  0
   44.8201   -0.9148    0.1208 N   0  0  0  0  0  0  0  0  0  0  0  0
   45.9385   -2.6752    1.4014 C   0  0  0  0  0  0  0  0  0  0  0  0
   45.8323   -3.9855    2.0823 C   0  0  0  0  0  0  0  0  0  0  0  0
   45.4681   -5.1054    1.4391 C   0  0  0  0  0  0  0  0  0  0  0  0
   45.3504   -6.4364    2.1342 C   0  0  0  0  0  0  0  0  0  0  0  0
   46.0277   -6.4207    3.4328 N   0  0  0  0  0  0  0  0  0  0  0  0
   46.2355   -5.2450    4.1034 C   0  0  0  0  0  0  0  0  0  0  0  0
   46.1838   -4.0474    3.4932 C   0  0  0  0  0  0  0  0  0  0  0  0
   47.1926   -2.0846    1.3081 C   0  0  0  0  0  0  0  0  0  0  0  0
   48.4169   -2.7619    1.6127 C   0  0  0  0  0  0  0  0  0  0  0  0
   49.4251   -1.9548    1.1995 C   0  0  0  0  0  0  0  0  0  0  0  0
   47.4578   -0.8524    0.7619 N   0  0  0  0  0  0  0  0  0  0  0  0
   48.8178   -0.7596    0.7055 C   0  0  0  0  0  0  0  0  0  0  0  0
   49.5346    0.3991    0.3822 C   0  0  0  0  0  0  0  0  0  0  0  0
   48.8899    1.6403    0.2794 C   0  0  0  0  0  0  0  0  0  0  0  0
   49.5659    2.8937    0.3908 C   0  0  0  0  0  0  0  0  0  0  0  0
   48.6084    3.8540    0.4032 C   0  0  0  0  0  0  0  0  0  0  0  0
   47.3537    3.1893    0.2171 C   0  0  0  0  0  0  0  0  0  0  0  0
   47.5433    1.8252    0.1919 N   0  0  0  0  0  0  0  0  0  0  0  0
   46.1531    3.8280   -0.0573 C   0  0  0  0  0  0  0  0  0  0  0  0
   46.0681    5.3051   -0.0003 C   0  0  0  0  0  0  0  0  0  0  0  0
   45.2026    5.9099    0.8279 C   0  0  0  0  0  0  0  0  0  0  0  0
   45.0729    7.4074    0.9143 C   0  0  0  0  0  0  0  0  0  0  0  0
   46.2093    8.0768    0.2763 N   0  0  0  0  0  0  0  0  0  0  0  0
   46.9343    7.4464   -0.7005 C   0  0  0  0  0  0  0  0  0  0  0  0
   46.9312    6.1097   -0.8518 C   0  0  0  0  0  0  0  0  0  0  0  0
   45.0417    3.1165   -0.5031 C   0  0  0  0  0  0  0  0  0  0  0  0
   43.9079    3.7184   -1.1413 C   0  0  0  0  0  0  0  0  0  0  0  0
   43.1182    2.7071   -1.5775 C   0  0  0  0  0  0  0  0  0  0  0  0
   43.7392    1.4894   -1.1520 C   0  0  0  0  0  0  0  0  0  0  0  0
   44.9296    1.7537   -0.5232 N   0  0  0  0  0  0  0  0  0  0  0  0
   42.1647    0.1734   -1.6900 H   0  0  0  0  0  0  0  0  0  0  0  0
   41.8378   -2.1957   -0.6169 H   0  0  0  0  0  0  0  0  0  0  0  0
   43.2992   -3.7262    1.0496 H   0  0  0  0  0  0  0  0  0  0  0  0
   45.2316   -5.1074    0.3816 H   0  0  0  0  0  0  0  0  0  0  0  0
   45.8077   -7.2252    1.5213 H   0  0  0  0  0  0  0  0  0  0  0  0
   44.2853   -6.7038    2.2669 H   0  0  0  0  0  0  0  0  0  0  0  0
   45.8531   -7.2383    3.9985 H   0  0  0  0  0  0  0  0  0  0  0  0
   46.5225   -5.3601    5.1437 H   0  0  0  0  0  0  0  0  0  0  0  0
   46.4048   -3.1336    4.0263 H   0  0  0  0  0  0  0  0  0  0  0  0
   48.4841   -3.7435    2.0533 H   0  0  0  0  0  0  0  0  0  0  0  0
   50.4882   -2.1249    1.2567 H   0  0  0  0  0  0  0  0  0  0  0  0
   50.6328    3.0085    0.4953 H   0  0  0  0  0  0  0  0  0  0  0  0
   48.7358    4.9195    0.5053 H   0  0  0  0  0  0  0  0  0  0  0  0
   44.5405    5.3427    1.4718 H   0  0  0  0  0  0  0  0  0  0  0  0
   45.0380    7.7247    1.9655 H   0  0  0  0  0  0  0  0  0  0  0  0
   44.1272    7.7355    0.4437 H   0  0  0  0  0  0  0  0  0  0  0  0
   46.0921    9.0744    0.1733 H   0  0  0  0  0  0  0  0  0  0  0  0
   47.5719    8.1001   -1.2872 H   0  0  0  0  0  0  0  0  0  0  0  0
   47.5402    5.6279   -1.6034 H   0  0  0  0  0  0  0  0  0  0  0  0
   43.7644    4.7799   -1.2642 H   0  0  0  0  0  0  0  0  0  0  0  0
   42.1819    2.7636   -2.1100 H   0  0  0  0  0  0  0  0  0  0  0  0
   77.5483    0.0435   -0.0014 Co  0  0  0  0  0  0  0  0  0  0  0  0
   80.8646   -0.1184    0.4220 C   0  0  0  0  0  0  0  0  0  0  0  0
   80.3297    1.0288   -0.1257 C   0  0  0  0  0  0  0  0  0  0  0  0
   81.1125    2.1415   -0.5721 C   0  0  0  0  0  0  0  0  0  0  0  0
   80.2863    2.9277   -1.3038 C   0  0  0  0  0  0  0  0  0  0  0  0
   78.9873    2.3226   -1.2592 C   0  0  0  0  0  0  0  0  0  0  0  0
   79.0217    1.1759   -0.5157 N   0  0  0  0  0  0  0  0  0  0  0  0
   77.8449    2.8806   -1.8289 C   0  0  0  0  0  0  0  0  0  0  0  0
   78.0046    4.0400   -2.7353 C   0  0  0  0  0  0  0  0  0  0  0  0
   78.6974    3.9270   -3.8792 C   0  0  0  0  0  0  0  0  0  0  0  0
   78.8959    5.0818   -4.8247 C   0  0  0  0  0  0  0  0  0  0  0  0
   77.9648    6.1744   -4.5309 N   0  0  0  0  0  0  0  0  0  0  0  0
   77.4430    6.3255   -3.2724 C   0  0  0  0  0  0  0  0  0  0  0  0
   77.4036    5.3177   -2.3825 C   0  0  0  0  0  0  0  0  0  0  0  0
   76.5767    2.4370   -1.4851 C   0  0  0  0  0  0  0  0  0  0  0  0
   75.3581    3.1025   -1.8370 C   0  0  0  0  0  0  0  0  0  0  0  0
   74.3746    2.5356   -1.0952 C   0  0  0  0  0  0  0  0  0  0  0  0
   76.3138    1.4031   -0.6126 N   0  0  0  0  0  0  0  0  0  0  0  0
   74.9797    1.4793   -0.3485 C   0  0  0  0  0  0  0  0  0  0  0  0
   74.2696    0.6109    0.4924 C   0  0  0  0  0  0  0  0  0  0  0  0
   74.8132   -0.6163    0.8905 C   0  0  0  0  0  0  0  0  0  0  0  0
   74.0368   -1.6760    1.4538 C   0  0  0  0  0  0  0  0  0  0  0  0
   74.8206   -2.7823    1.4389 C   0  0  0  0  0  0  0  0  0  0  0  0
   76.0936   -2.3816    0.9208 C   0  0  0  0  0  0  0  0  0  0  0  0
   76.0758   -1.0465    0.5995 N   0  0  0  0  0  0  0  0  0  0  0  0
   77.2038   -3.2150    0.8600 C   0  0  0  0  0  0  0  0  0  0  0  0
   77.0077   -4.6597    1.1159 C   0  0  0  0  0  0  0  0  0  0  0  0
   77.5741   -5.2929    2.1546 C   0  0  0  0  0  0  0  0  0  0  0  0
   77.3824   -6.7658    2.4049 C   0  0  0  0  0  0  0  0  0  0  0  0
   76.2373   -7.2875    1.6554 N   0  0  0  0  0  0  0  0  0  0  0  0
   75.8092   -6.6677    0.5110 C   0  0  0  0  0  0  0  0  0  0  0  0
   76.1269   -5.3939    0.2192 C   0  0  0  0  0  0  0  0  0  0  0  0
   78.4830   -2.7051    0.6679 C   0  0  0  0  0  0  0  0  0  0  0  0
   79.6934   -3.4578    0.8252 C   0  0  0  0  0  0  0  0  0  0  0  0
   80.7133   -2.5654    0.8258 C   0  0  0  0  0  0  0  0  0  0  0  0
   80.1336   -1.2788    0.5901 C   0  0  0  0  0  0  0  0  0  0  0  0
   78.7729   -1.3788    0.4714 N   0  0  0  0  0  0  0  0  0  0  0  0
   81.9302   -0.1477    0.6182 H   0  0  0  0  0  0  0  0  0  0  0  0
   82.1645    2.2700   -0.3717 H   0  0  0  0  0  0  0  0  0  0  0  0
   80.5167    3.8515   -1.8097 H   0  0  0  0  0  0  0  0  0  0  0  0
   79.1621    2.9930   -4.1731 H   0  0  0  0  0  0  0  0  0  0  0  0
   78.7234    4.7579   -5.8600 H   0  0  0  0  0  0  0  0  0  0  0  0
   79.9387    5.4465   -4.7668 H   0  0  0  0  0  0  0  0  0  0  0  0
   78.1620    7.0258   -5.0368 H   0  0  0  0  0  0  0  0  0  0  0  0
   76.9909    7.2934   -3.0806 H   0  0  0  0  0  0  0  0  0  0  0  0
   76.9518    5.4448   -1.4090 H   0  0  0  0  0  0  0  0  0  0  0  0
   75.2769    3.9132   -2.5425 H   0  0  0  0  0  0  0  0  0  0  0  0
   73.3244    2.7783   -1.0741 H   0  0  0  0  0  0  0  0  0  0  0  0
   73.0121   -1.5827    1.7756 H   0  0  0  0  0  0  0  0  0  0  0  0
   74.5777   -3.7785    1.7717 H   0  0  0  0  0  0  0  0  0  0  0  0
   78.2084   -4.7753    2.8646 H   0  0  0  0  0  0  0  0  0  0  0  0
   77.2011   -6.9480    3.4729 H   0  0  0  0  0  0  0  0  0  0  0  0
   78.2989   -7.3212    2.1307 H   0  0  0  0  0  0  0  0  0  0  0  0
   76.1547   -8.2933    1.6796 H   0  0  0  0  0  0  0  0  0  0  0  0
   75.1299   -7.2560   -0.0977 H   0  0  0  0  0  0  0  0  0  0  0  0
   75.7351   -4.9026   -0.6601 H   0  0  0  0  0  0  0  0  0  0  0  0
   79.7461   -4.5286    0.9376 H   0  0  0  0  0  0  0  0  0  0  0  0
   81.7702   -2.7497    0.9380 H   0  0  0  0  0  0  0  0  0  0  0  0
   50.9308    0.3434    0.2774 C   0  0  0  0  0  0  0  0  0  0  0  0
   52.1381    0.2941    0.1162 C   0  0  0  0  0  0  0  0  0  0  0  0
   61.4783    0.8545    0.8913 C   0  0  0  0  0  0  0  0  0  0  0  0
   62.6158    1.1143    1.2489 C   0  0  0  0  0  0  0  0  0  0  0  0
   71.8095    1.1927    1.1813 C   0  0  0  0  0  0  0  0  0  0  0  0
   72.9475    0.9174    0.8411 C   0  0  0  0  0  0  0  0  0  0  0  0
   56.8907    0.2272   -0.2020 Co  0  0  0  0  0  0  0  0  0  0  0  0
   53.5274    0.2467   -0.0599 C   0  0  0  0  0  0  0  0  0  0  0  0
   54.1967    1.3830   -0.5313 C   0  0  0  0  0  0  0  0  0  0  0  0
   53.5300    2.5573   -0.9966 C   0  0  0  0  0  0  0  0  0  0  0  0
   54.4550    3.2906   -1.6659 C   0  0  0  0  0  0  0  0  0  0  0  0
   55.6935    2.5819   -1.5674 C   0  0  0  0  0  0  0  0  0  0  0  0
   55.5260    1.4291   -0.8438 N   0  0  0  0  0  0  0  0  0  0  0  0
   56.8996    3.0304   -2.0987 C   0  0  0  0  0  0  0  0  0  0  0  0
   56.8752    4.1977   -3.0076 C   0  0  0  0  0  0  0  0  0  0  0  0
   56.2109    4.1462   -4.1733 C   0  0  0  0  0  0  0  0  0  0  0  0
   56.1976    5.2889   -5.1525 C   0  0  0  0  0  0  0  0  0  0  0  0
   56.6722    6.5277   -4.5320 N   0  0  0  0  0  0  0  0  0  0  0  0
   57.4498    6.5073   -3.4071 C   0  0  0  0  0  0  0  0  0  0  0  0
   57.5637    5.4196   -2.6230 C   0  0  0  0  0  0  0  0  0  0  0  0
   58.1130    2.4766   -1.7163 C   0  0  0  0  0  0  0  0  0  0  0  0
   59.3970    3.0094   -2.0574 C   0  0  0  0  0  0  0  0  0  0  0  0
   60.2995    2.4012   -1.2465 C   0  0  0  0  0  0  0  0  0  0  0  0
   58.2521    1.4700   -0.7855 N   0  0  0  0  0  0  0  0  0  0  0  0
   59.5737    1.4542   -0.4628 C   0  0  0  0  0  0  0  0  0  0  0  0
   60.1628    0.6051    0.4886 C   0  0  0  0  0  0  0  0  0  0  0  0
   59.4989   -0.5433    0.9401 C   0  0  0  0  0  0  0  0  0  0  0  0
   60.1388   -1.5935    1.6660 C   0  0  0  0  0  0  0  0  0  0  0  0
   59.2884   -2.6510    1.6506 C   0  0  0  0  0  0  0  0  0  0  0  0
   58.1123   -2.2259    0.9556 C   0  0  0  0  0  0  0  0  0  0  0  0
   58.2457   -0.9212    0.5515 N   0  0  0  0  0  0  0  0  0  0  0  0
   56.9825   -3.0149    0.7642 C   0  0  0  0  0  0  0  0  0  0  0  0
   57.0664   -4.4553    1.0901 C   0  0  0  0  0  0  0  0  0  0  0  0
   57.9367   -5.2553    0.4535 C   0  0  0  0  0  0  0  0  0  0  0  0
   58.0604   -6.7242    0.7584 C   0  0  0  0  0  0  0  0  0  0  0  0
   56.9125   -7.2053    1.5311 N   0  0  0  0  0  0  0  0  0  0  0  0
   56.1818   -6.3438    2.3061 C   0  0  0  0  0  0  0  0  0  0  0  0
   56.1921   -5.0129    2.1110 C   0  0  0  0  0  0  0  0  0  0  0  0
   55.7679   -2.4642    0.3743 C   0  0  0  0  0  0  0  0  0  0  0  0
   54.5228   -3.1700    0.3536 C   0  0  0  0  0  0  0  0  0  0  0  0
   53.5467   -2.2358    0.2288 C   0  0  0  0  0  0  0  0  0  0  0  0
   54.1999   -0.9727    0.1082 C   0  0  0  0  0  0  0  0  0  0  0  0
   55.5535   -1.1224    0.1527 N   0  0  0  0  0  0  0  0  0  0  0  0
   52.4816    2.7652   -0.8570 H   0  0  0  0  0  0  0  0  0  0  0  0
   54.3244    4.2369   -2.1652 H   0  0  0  0  0  0  0  0  0  0  0  0
   55.7065    3.2443   -4.5000 H   0  0  0  0  0  0  0  0  0  0  0  0
   56.8203    5.0452   -6.0334 H   0  0  0  0  0  0  0  0  0  0  0  0
   55.1752    5.4595   -5.5179 H   0  0  0  0  0  0  0  0  0  0  0  0
   56.8281    7.2848   -5.1808 H   0  0  0  0  0  0  0  0  0  0  0  0
   57.9049    7.4594   -3.1534 H   0  0  0  0  0  0  0  0  0  0  0  0
   58.1178    5.4531   -1.6960 H   0  0  0  0  0  0  0  0  0  0  0  0
   59.5759    3.7639   -2.8061 H   0  0  0  0  0  0  0  0  0  0  0  0
   61.3663    2.5493   -1.1989 H   0  0  0  0  0  0  0  0  0  0  0  0
   61.1263   -1.5310    2.0941 H   0  0  0  0  0  0  0  0  0  0  0  0
   59.4268   -3.6257    2.0896 H   0  0  0  0  0  0  0  0  0  0  0  0
   58.6035   -4.8755   -0.3117 H   0  0  0  0  0  0  0  0  0  0  0  0
   58.9980   -6.9198    1.3116 H   0  0  0  0  0  0  0  0  0  0  0  0
   58.1085   -7.3022   -0.1744 H   0  0  0  0  0  0  0  0  0  0  0  0
   57.0230   -8.1437    1.8870 H   0  0  0  0  0  0  0  0  0  0  0  0
   55.5341   -6.8232    3.0332 H   0  0  0  0  0  0  0  0  0  0  0  0
   55.5778   -4.3528    2.7067 H   0  0  0  0  0  0  0  0  0  0  0  0
   54.4144   -4.2384    0.4454 H   0  0  0  0  0  0  0  0  0  0  0  0
   52.4792   -2.3812    0.1911 H   0  0  0  0  0  0  0  0  0  0  0  0
   67.2120    1.8055    2.0806 Co  0  0  0  0  0  0  0  0  0  0  0  0
   63.9350    1.3968    1.6144 C   0  0  0  0  0  0  0  0  0  0  0  0
   64.5328    2.5833    1.1535 C   0  0  0  0  0  0  0  0  0  0  0  0
   63.8002    3.6753    0.5973 C   0  0  0  0  0  0  0  0  0  0  0  0
   64.6739    4.7065    0.4679 C   0  0  0  0  0  0  0  0  0  0  0  0
   65.9572    4.2121    0.8637 C   0  0  0  0  0  0  0  0  0  0  0  0
   65.8393    2.9212    1.3265 N   0  0  0  0  0  0  0  0  0  0  0  0
   67.1648    4.8676    0.6614 C   0  0  0  0  0  0  0  0  0  0  0  0
   67.1857    6.2589    0.1604 C   0  0  0  0  0  0  0  0  0  0  0  0
   66.6319    6.6133   -1.0098 C   0  0  0  0  0  0  0  0  0  0  0  0
   66.7076    8.0172   -1.5477 C   0  0  0  0  0  0  0  0  0  0  0  0
   67.1072    8.9668   -0.5063 N   0  0  0  0  0  0  0  0  0  0  0  0
   67.8183    8.5489    0.5875 C   0  0  0  0  0  0  0  0  0  0  0  0
   67.8652    7.2600    0.9686 C   0  0  0  0  0  0  0  0  0  0  0  0
   68.3818    4.2012    0.7895 C   0  0  0  0  0  0  0  0  0  0  0  0
   69.6131    4.6679    0.2303 C   0  0  0  0  0  0  0  0  0  0  0  0
   70.5074    3.6532    0.3492 C   0  0  0  0  0  0  0  0  0  0  0  0
   68.5420    2.9358    1.2919 N   0  0  0  0  0  0  0  0  0  0  0  0
   69.8399    2.5971    1.0401 C   0  0  0  0  0  0  0  0  0  0  0  0
   70.4877    1.4652    1.5539 C   0  0  0  0  0  0  0  0  0  0  0  0
   69.8896    0.6892    2.5611 C   0  0  0  0  0  0  0  0  0  0  0  0
   70.6219   -0.1510    3.4528 C   0  0  0  0  0  0  0  0  0  0  0  0
   69.7505   -0.5555    4.4126 C   0  0  0  0  0  0  0  0  0  0  0  0
   68.4682   -0.0323    4.0534 C   0  0  0  0  0  0  0  0  0  0  0  0
   68.5840    0.7672    2.9403 N   0  0  0  0  0  0  0  0  0  0  0  0
   67.2598   -0.4005    4.6350 C   0  0  0  0  0  0  0  0  0  0  0  0
   67.2396   -1.2529    5.8436 C   0  0  0  0  0  0  0  0  0  0  0  0
   67.7899   -2.4764    5.8783 C   0  0  0  0  0  0  0  0  0  0  0  0
   67.7722   -3.3350    7.1156 C   0  0  0  0  0  0  0  0  0  0  0  0
   66.7815   -2.8552    8.0816 N   0  0  0  0  0  0  0  0  0  0  0  0
   66.3735   -1.5485    8.0785 C   0  0  0  0  0  0  0  0  0  0  0  0
   66.5439   -0.7421    7.0154 C   0  0  0  0  0  0  0  0  0  0  0  0
   66.0435   -0.0921    4.0324 C   0  0  0  0  0  0  0  0  0  0  0  0
   64.8106   -0.7546    4.3308 C   0  0  0  0  0  0  0  0  0  0  0  0
   63.9171   -0.3651    3.3860 C   0  0  0  0  0  0  0  0  0  0  0  0
   64.5856    0.5868    2.5573 C   0  0  0  0  0  0  0  0  0  0  0  0
   65.8823    0.7360    2.9505 N   0  0  0  0  0  0  0  0  0  0  0  0
   62.7429    3.6628    0.3867 H   0  0  0  0  0  0  0  0  0  0  0  0
   64.4741    5.7063    0.1187 H   0  0  0  0  0  0  0  0  0  0  0  0
   66.1720    5.8861   -1.6686 H   0  0  0  0  0  0  0  0  0  0  0  0
   67.4170    8.0631   -2.3953 H   0  0  0  0  0  0  0  0  0  0  0  0
   65.7258    8.3267   -1.9316 H   0  0  0  0  0  0  0  0  0  0  0  0
   67.3218    9.8902   -0.8540 H   0  0  0  0  0  0  0  0  0  0  0  0
   68.2694    9.3473    1.1679 H   0  0  0  0  0  0  0  0  0  0  0  0
   68.3737    6.9571    1.8727 H   0  0  0  0  0  0  0  0  0  0  0  0
   69.7557    5.6334   -0.2277 H   0  0  0  0  0  0  0  0  0  0  0  0
   71.5386    3.6276    0.0360 H   0  0  0  0  0  0  0  0  0  0  0  0
   71.6777   -0.3562    3.3779 H   0  0  0  0  0  0  0  0  0  0  0  0
   69.9537   -1.1671    5.2763 H   0  0  0  0  0  0  0  0  0  0  0  0
   68.2800   -2.9094    5.0144 H   0  0  0  0  0  0  0  0  0  0  0  0
   68.7757   -3.3527    7.5804 H   0  0  0  0  0  0  0  0  0  0  0  0
   67.5184   -4.3713    6.8539 H   0  0  0  0  0  0  0  0  0  0  0  0
   66.8279   -3.3115    8.9808 H   0  0  0  0  0  0  0  0  0  0  0  0
   65.8330   -1.2387    8.9672 H   0  0  0  0  0  0  0  0  0  0  0  0
   66.1663    0.2704    7.0094 H   0  0  0  0  0  0  0  0  0  0  0  0
   64.6673   -1.4551    5.1376 H   0  0  0  0  0  0  0  0  0  0  0  0
   62.8855   -0.6583    3.2763 H   0  0  0  0  0  0  0  0  0  0  0  0
  2  3  4  0  0  0  0
  3  4  4  0  0  0  0
  4  5  2  0  0  0  0
  5  6  4  0  0  0  0
  1  7  1  0  0  0  0
  3  7  4  0  0  0  0
  6  7  4  0  0  0  0
  6  8  4  0  0  0  0
  8  9  1  0  0  0  0
  9 10  2  0  0  0  0
 10 11  1  0  0  0  0
 11 12  1  0  0  0  0
 12 13  1  0  0  0  0
  9 14  1  0  0  0  0
 13 14  2  0  0  0  0
  8 15  4  0  0  0  0
 15 16  4  0  0  0  0
 16 17  2  0  0  0  0
  1 18  1  0  0  0  0
 15 18  4  0  0  0  0
 17 19  4  0  0  0  0
 18 19  4  0  0  0  0
 19 20  4  0  0  0  0
 20 21  4  0  0  0  0
 21 22  4  0  0  0  0
 22 23  2  0  0  0  0
 23 24  4  0  0  0  0
  1 25  1  0  0  0  0
 21 25  4  0  0  0  0
 24 25  4  0  0  0  0
 24 26  4  0  0  0  0
 26 27  1  0  0  0  0
 27 28  2  0  0  0  0
 28 29  1  0  0  0  0
 29 30  1  0  0  0  0
 30 31  1  0  0  0  0
 27 32  1  0  0  0  0
 31 32  2  0  0  0  0
 26 33  4  0  0  0  0
 33 34  4  0  0  0  0
 34 35  2  0  0  0  0
  2 36  4  0  0  0  0
 35 36  1  0  0  0  0
  1 37  1  0  0  0  0
 33 37  4  0  0  0  0
 36 37  4  0  0  0  0
  2 38  1  0  0  0  0
  4 39  1  0  0  0  0
  5 40  1  0  0  0  0
 10 41  1  0  0  0  0
 11 42  1  0  0  0  0
 11 43  1  0  0  0  0
 12 44  1  0  0  0  0
 13 45  1  0  0  0  0
 14 46  1  0  0  0  0
 16 47  1  0  0  0  0
 17 48  1  0  0  0  0
 22 49  1  0  0  0  0
 23 50  1  0  0  0  0
 28 51  1  0  0  0  0
 29 52  1  0  0  0  0
 29 53  1  0  0  0  0
 30 54  1  0  0  0  0
 31 55  1  0  0  0  0
 32 56  1  0  0  0  0
 34 57  1  0  0  0  0
 35 58  1  0  0  0  0
 60 61  4  0  0  0  0
 61 62  1  0  0  0  0
 62 63  2  0  0  0  0
 63 64  4  0  0  0  0
 59 65  1  0  0  0  0
 61 65  4  0  0  0  0
 64 65  4  0  0  0  0
 64 66  4  0  0  0  0
 66 67  1  0  0  0  0
 67 68  2  0  0  0  0
 68 69  1  0  0  0  0
 69 70  1  0  0  0  0
 70 71  1  0  0  0  0
 67 72  1  0  0  0  0
 71 72  2  0  0  0  0
 66 73  4  0  0  0  0
 73 74  4  0  0  0  0
 74 75  2  0  0  0  0
 59 76  1  0  0  0  0
 73 76  4  0  0  0  0
 75 77  4  0  0  0  0
 76 77  4  0  0  0  0
 77 78  4  0  0  0  0
 78 79  4  0  0  0  0
 79 80  4  0  0  0  0
 80 81  2  0  0  0  0
 81 82  4  0  0  0  0
 59 83  1  0  0  0  0
 79 83  4  0  0  0  0
 82 83  4  0  0  0  0
 82 84  4  0  0  0  0
 84 85  1  0  0  0  0
 85 86  2  0  0  0  0
 86 87  1  0  0  0  0
 87 88  1  0  0  0  0
 88 89  1  0  0  0  0
 85 90  1  0  0  0  0
 89 90  2  0  0  0  0
 84 91  4  0  0  0  0
 91 92  4  0  0  0  0
 92 93  2  0  0  0  0
 60 94  4  0  0  0  0
 93 94  4  0  0  0  0
 59 95  1  0  0  0  0
 91 95  4  0  0  0  0
 94 95  4  0  0  0  0
 60 96  1  0  0  0  0
 62 97  1  0  0  0  0
 63 98  1  0  0  0  0
 68 99  1  0  0  0  0
 69100  1  0  0  0  0
 69101  1  0  0  0  0
 70102  1  0  0  0  0
 71103  1  0  0  0  0
 72104  1  0  0  0  0
 74105  1  0  0  0  0
 75106  1  0  0  0  0
 80107  1  0  0  0  0
 81108  1  0  0  0  0
 86109  1  0  0  0  0
 87110  1  0  0  0  0
 87111  1  0  0  0  0
 88112  1  0  0  0  0
 89113  1  0  0  0  0
 90114  1  0  0  0  0
 92115  1  0  0  0  0
 93116  1  0  0  0  0
 20117  4  0  0  0  0
117118  3  0  0  0  0
119120  3  0  0  0  0
 78122  4  0  0  0  0
121122  3  0  0  0  0
118124  4  0  0  0  0
124125  4  0  0  0  0
125126  4  0  0  0  0
126127  2  0  0  0  0
127128  4  0  0  0  0
123129  1  0  0  0  0
125129  4  0  0  0  0
128129  4  0  0  0  0
128130  4  0  0  0  0
130131  1  0  0  0  0
131132  2  0  0  0  0
132133  1  0  0  0  0
133134  1  0  0  0  0
134135  1  0  0  0  0
131136  1  0  0  0  0
135136  2  0  0  0  0
130137  4  0  0  0  0
137138  4  0  0  0  0
138139  2  0  0  0  0
123140  1  0  0  0  0
137140  4  0  0  0  0
139141  4  0  0  0  0
140141  4  0  0  0  0
119142  4  0  0  0  0
141142  4  0  0  0  0
142143  4  0  0  0  0
143144  4  0  0  0  0
144145  2  0  0  0  0
145146  4  0  0  0  0
123147  1  0  0  0  0
143147  4  0  0  0  0
146147  4  0  0  0  0
146148  4  0  0  0  0
148149  1  0  0  0  0
149150  2  0  0  0  0
150151  1  0  0  0  0
151152  1  0  0  0  0
152153  1  0  0  0  0
149154  1  0  0  0  0
153154  2  0  0  0  0
148155  4  0  0  0  0
155156  4  0  0  0  0
156157  2  0  0  0  0
124158  4  0  0  0  0
157158  4  0  0  0  0
123159  1  0  0  0  0
155159  4  0  0  0  0
158159  4  0  0  0  0
126160  1  0  0  0  0
127161  1  0  0  0  0
132162  1  0  0  0  0
133163  1  0  0  0  0
133164  1  0  0  0  0
134165  1  0  0  0  0
135166  1  0  0  0  0
136167  1  0  0  0  0
138168  1  0  0  0  0
139169  1  0  0  0  0
144170  1  0  0  0  0
145171  1  0  0  0  0
150172  1  0  0  0  0
151173  1  0  0  0  0
151174  1  0  0  0  0
152175  1  0  0  0  0
153176  1  0  0  0  0
154177  1  0  0  0  0
156178  1  0  0  0  0
157179  1  0  0  0  0
120181  4  0  0  0  0
181182  4  0  0  0  0
182183  4  0  0  0  0
183184  2  0  0  0  0
184185  4  0  0  0  0
180186  1  0  0  0  0
182186  4  0  0  0  0
185186  4  0  0  0  0
185187  4  0  0  0  0
187188  1  0  0  0  0
188189  2  0  0  0  0
189190  1  0  0  0  0
190191  1  0  0  0  0
191192  1  0  0  0  0
188193  1  0  0  0  0
192193  2  0  0  0  0
187194  4  0  0  0  0
194195  4  0  0  0  0
195196  2  0  0  0  0
180197  1  0  0  0  0
194197  4  0  0  0  0
196198  4  0  0  0  0
197198  4  0  0  0  0
121199  4  0  0  0  0
198199  4  0  0  0  0
199200  4  0  0  0  0
200201  4  0  0  0  0
201202  2  0  0  0  0
202203  4  0  0  0  0
180204  1  0  0  0  0
200204  4  0  0  0  0
203204  4  0  0  0  0
203205  4  0  0  0  0
205206  1  0  0  0  0
206207  2  0  0  0  0
207208  1  0  0  0  0
208209  1  0  0  0  0
209210  1  0  0  0  0
206211  1  0  0  0  0
210211  2  0  0  0  0
205212  4  0  0  0  0
212213  4  0  0  0  0
213214  2  0  0  0  0
181215  4  0  0  0  0
214215  4  0  0  0  0
180216  1  0  0  0  0
212216  4  0  0  0  0
215216  4  0  0  0  0
183217  1  0  0  0  0
184218  1  0  0  0  0
189219  1  0  0  0  0
190220  1  0  0  0  0
190221  1  0  0  0  0
191222  1  0  0  0  0
192223  1  0  0  0  0
193224  1  0  0  0  0
195225  1  0  0  0  0
196226  1  0  0  0  0
201227  1  0  0  0  0
202228  1  0  0  0  0
207229  1  0  0  0  0
208230  1  0  0  0  0
208231  1  0  0  0  0
209232  1  0  0  0  0
210233  1  0  0  0  0
211234  1  0  0  0  0
213235  1  0  0  0  0
214236  1  0  0  0  0
M  END
