680

C 170.629875 1.216377 -0.176963
C 171.529477 1.605730 -1.386220
C 171.440449 2.757675 -2.142332
C 172.527644 2.734513 -3.055690
C 173.206225 1.546751 -2.856089
N 172.636122 0.902479 -1.783787
C 174.498328 1.022943 -3.619455
C 174.370273 0.698997 -5.068352
C 174.673117 -0.588272 -5.535031
C 174.439861 -0.963431 -6.861933
C 173.824691 -0.081883 -7.747185
N 173.478226 -0.468518 -9.065648
C 172.605749 -1.634734 -9.092093
C 173.561222 1.221548 -7.310262
C 173.833035 1.601611 -5.987744
C 175.602706 0.749348 -2.868069
C 176.878377 0.382784 -3.449273
C 177.735681 0.143583 -2.462664
N 175.775537 0.737295 -1.508085
C 177.044424 0.323504 -1.196741
C 177.636731 0.077611 -0.001091
C 176.810070 0.151940 1.366705
C 177.343287 0.048379 2.633942
C 176.267343 0.026045 3.557095
C 175.103459 0.096406 2.824909
N 175.440824 0.240989 1.495986
C 173.631057 -0.009392 3.429151
C 173.496915 -0.474167 4.829638
C 173.260345 0.442559 5.860430
C 173.146462 0.007822 7.184704
C 173.296851 -1.347168 7.517746
N 173.125697 -1.849290 8.821865
C 173.312250 -0.936712 9.935637
C 173.516760 -2.252947 6.471237
C 173.632328 -1.822921 5.145124
C 172.553036 0.276886 2.657062
C 171.182093 0.137869 3.120814
C 170.364291 0.476936 2.126283
C 171.184150 0.837159 0.989909
N 172.484476 0.701568 1.362093
H 169.556183 1.255504 -0.292118
H 170.710354 3.545325 -2.021074
H 172.784854 3.507996 -3.768115
H 173.067318 0.158928 -1.249328
H 175.064976 -1.325919 -4.832678
H 174.719814 -1.962537 -7.172800
H 173.052052 0.320634 -9.543374
H 171.742952 -1.510212 -8.426603
H 172.222844 -1.776850 -10.104320
H 173.142506 -2.550459 -8.814956
H 173.078827 1.933106 -7.970432
H 173.607391 2.612930 -5.664829
H 177.103083 0.345493 -4.495336
H 178.763820 -0.138366 -2.601923
H 178.390935 -0.037270 2.878400
H 176.341083 -0.084873 4.627280
H 174.777823 0.361161 0.731263
H 173.163505 1.501708 5.615438
H 172.952850 0.759897 7.948579
H 173.636262 -2.719717 8.930623
H 172.502807 -0.200348 9.982772
H 174.283285 -0.426659 9.883804
H 173.286712 -1.507694 10.872466
H 173.595098 -3.316429 6.672557
H 173.808141 -2.537083 4.343573
H 170.876109 -0.202801 4.092782
H 169.290731 0.456629 2.149610
C 282.328957 1.223858 0.116538
C 281.429356 1.674310 1.304390
C 281.518384 2.863279 2.000835
C 280.431188 2.886677 2.914187
C 279.752608 1.690289 2.775355
N 280.322711 0.992226 1.737268
C 278.460505 1.206051 3.564415
C 278.588560 0.956338 5.027933
C 278.285716 -0.305485 5.559586
C 278.518972 -0.612558 6.903877
C 279.134141 0.312944 7.743069
N 279.480606 -0.006022 9.079518
C 280.353083 -1.169375 9.165340
C 279.397611 1.592423 7.240311
C 279.125798 1.904618 5.900149
C 277.356127 0.894532 2.827943
C 276.080455 0.558053 3.427066
C 275.223152 0.268900 2.453924
N 277.183296 0.813211 1.470339
C 275.914409 0.384097 1.180479
C 275.322101 0.077611 -0.001091
C 276.148763 0.082162 -1.370898
C 275.615546 -0.085823 -2.631214
C 276.691490 -0.155158 -3.552030
C 277.855373 -0.047587 -2.824380
N 277.518009 0.164509 -1.504548
C 279.327776 -0.184031 -3.422448
C 279.461918 -0.719549 -4.797438
C 279.698488 0.143474 -5.873594
C 279.812371 -0.358163 -7.174001
C 279.661982 -1.728360 -7.437581
N 279.833136 -2.296268 -8.714426
C 279.646582 -1.441614 -9.873243
C 279.442073 -2.579649 -6.346287
C 279.326505 -2.082623 -5.043803
C 280.405797 0.141209 -2.665945
C 281.776739 -0.021253 -3.122013
C 282.594542 0.368040 -2.146046
C 281.774683 0.785687 -1.029499
N 280.474357 0.631312 -1.394293
H 283.402650 1.268801 0.229551
H 282.248478 3.643729 1.839608
H 280.173978 3.695450 3.586283
H 279.891515 0.222413 1.241382
H 277.893856 -1.077954 4.895723
H 278.239019 -1.594530 7.265239
H 279.906780 0.806443 9.516420
H 281.215881 -1.078918 8.494371
H 280.735989 -1.259740 10.183493
H 279.816326 -2.098030 8.935214
H 279.880006 2.336689 7.863375
H 279.351442 2.898173 5.526132
H 275.855750 0.574102 4.473670
H 274.195012 -0.005588 2.607366
H 274.567898 -0.183814 -2.870991
H 276.617749 -0.320451 -4.615175
H 278.181010 0.323484 -0.746940
H 279.795328 1.213728 -5.682877
H 280.005982 0.354021 -7.975198
H 279.322570 -3.171105 -8.778700
H 280.456026 -0.708608 -9.957830
H 278.675548 -0.929584 -9.847462
H 279.672121 -2.059582 -10.779767
H 279.363735 -3.652007 -6.493167
H 279.150692 -2.755024 -4.206910
H 282.082724 -0.410997 -4.075363
H 283.668102 0.346571 -2.168309
C 179.802060 0.077611 -0.001091
C 181.023978 0.077611 -0.001091
C 191.318660 0.077611 -0.001091
C 192.540577 0.077611 -0.001091
C 202.835259 0.077611 -0.001091
C 204.057177 0.077611 -0.001091
C 214.351858 0.077611 -0.001091
C 215.573776 0.077611 -0.001091
C 225.868458 0.077611 -0.001091
C 227.090375 0.077611 -0.001091
C 237.385057 0.077611 -0.001091
C 238.606974 0.077611 -0.001091
C 248.901656 0.077611 -0.001091
C 250.123574 0.077611 -0.001091
C 260.418255 0.077611 -0.001091
C 261.640173 0.077611 -0.001091
C 271.934855 0.077611 -0.001091
C 273.156772 0.077611 -0.001091
C 182.636585 -0.022343 0.000314
C 183.411755 0.024923 1.386940
C 182.830648 0.039292 2.639397
C 183.872738 0.076830 3.593301
C 185.066681 0.085202 2.902014
N 184.777608 0.054275 1.558309
C 186.506749 0.120892 3.564029
C 186.568324 0.189159 5.045312
C 186.633883 -0.978328 5.808348
C 186.665014 -0.905935 7.205292
C 186.598347 0.326810 7.874096
N 186.674227 0.329985 9.278381
C 186.194120 1.502317 9.985064
C 186.587896 1.490832 7.095155
C 186.556842 1.424774 5.696562
C 187.634460 0.092088 2.806259
C 188.948309 0.119154 3.415733
C 189.858273 0.075319 2.451869
N 187.829331 0.036909 1.451015
C 189.174017 0.024256 1.175010
C 189.857725 -0.022343 0.000314
C 189.082869 -0.063442 -1.386757
C 189.663696 -0.063187 -2.639787
C 188.621685 -0.102281 -3.593922
C 187.427962 -0.123721 -2.902272
N 187.717347 -0.099541 -1.558253
C 185.988624 -0.165467 -3.562951
C 185.920551 -0.233729 -5.043749
C 185.870981 0.935902 -5.805850
C 185.798021 0.870520 -7.202845
C 185.741907 -0.361425 -7.866993
N 185.710921 -0.490597 -9.267606
C 185.169686 0.613282 -10.038324
C 185.849481 -1.527080 -7.091952
C 185.921940 -1.468021 -5.696110
C 184.860335 -0.137953 -2.805247
C 183.546144 -0.168189 -3.414442
C 182.635862 -0.124641 -2.450960
C 183.320084 -0.070105 -1.174365
N 184.664781 -0.080706 -1.450233
H 181.773382 0.021524 2.854397
H 183.762315 0.093508 4.667463
H 185.464970 0.044557 0.808490
H 186.668682 -1.940882 5.303425
H 186.737686 -1.832964 7.765733
H 186.293106 -0.536721 9.648265
H 185.163008 1.745177 9.707444
H 186.210083 1.301861 11.061388
H 186.839373 2.369155 9.810617
H 186.602237 2.475102 7.548644
H 186.531821 2.335429 5.102153
H 189.164690 0.165140 4.468431
H 190.919637 0.081723 2.619255
H 190.720747 -0.035963 -2.855015
H 188.732217 -0.111226 -4.668557
H 187.030327 -0.097418 -0.808155
H 185.890915 1.898246 -5.299281
H 185.781966 1.807657 -7.747033
H 185.298539 -1.384719 -9.521423
H 185.824236 1.489752 -9.999280
H 185.097880 0.313357 -11.088995
H 184.164080 0.885431 -9.700543
H 185.869777 -2.503548 -7.565948
H 185.980220 -2.379794 -5.106364
H 183.329566 -0.215963 -4.466831
H 181.574496 -0.132919 -2.617914
C 194.153184 -0.022343 0.000314
C 194.928354 0.024923 1.386940
C 194.347247 0.039292 2.639397
C 195.389337 0.076830 3.593301
C 196.583280 0.085202 2.902014
N 196.294208 0.054275 1.558309
C 198.023348 0.120892 3.564029
C 198.084923 0.189159 5.045312
C 198.150482 -0.978328 5.808348
C 198.181613 -0.905935 7.205292
C 198.114946 0.326810 7.874096
N 198.190827 0.329985 9.278381
C 197.710719 1.502317 9.985064
C 198.104496 1.490832 7.095155
C 198.073441 1.424774 5.696562
C 199.151060 0.092088 2.806259
C 200.464908 0.119154 3.415733
C 201.374872 0.075319 2.451869
N 199.345930 0.036909 1.451015
C 200.690616 0.024256 1.175010
C 201.374324 -0.022343 0.000314
C 200.599469 -0.063442 -1.386757
C 201.180296 -0.063187 -2.639787
C 200.138285 -0.102281 -3.593922
C 198.944562 -0.123721 -2.902272
N 199.233946 -0.099541 -1.558253
C 197.505223 -0.165467 -3.562951
C 197.437151 -0.233729 -5.043749
C 197.387580 0.935902 -5.805850
C 197.314621 0.870520 -7.202845
C 197.258507 -0.361425 -7.866993
N 197.227520 -0.490597 -9.267606
C 196.686286 0.613282 -10.038324
C 197.366081 -1.527080 -7.091952
C 197.438539 -1.468021 -5.696110
C 196.376934 -0.137953 -2.805247
C 195.062743 -0.168189 -3.414442
C 194.152461 -0.124641 -2.450960
C 194.836684 -0.070105 -1.174365
N 196.181380 -0.080706 -1.450233
H 193.289981 0.021524 2.854397
H 195.278914 0.093508 4.667463
H 196.981569 0.044557 0.808490
H 198.185281 -1.940882 5.303425
H 198.254285 -1.832964 7.765733
H 197.809705 -0.536721 9.648265
H 196.679608 1.745177 9.707444
H 197.726682 1.301861 11.061388
H 198.355972 2.369155 9.810617
H 198.118836 2.475102 7.548644
H 198.048420 2.335429 5.102153
H 200.681289 0.165140 4.468431
H 202.436236 0.081723 2.619255
H 202.237346 -0.035963 -2.855015
H 200.248817 -0.111226 -4.668557
H 198.546926 -0.097418 -0.808155
H 197.407514 1.898246 -5.299281
H 197.298565 1.807657 -7.747033
H 196.815138 -1.384719 -9.521423
H 197.340835 1.489752 -9.999280
H 196.614479 0.313357 -11.088995
H 195.680680 0.885431 -9.700543
H 197.386377 -2.503548 -7.565948
H 197.496819 -2.379794 -5.106364
H 194.846165 -0.215963 -4.466831
H 193.091095 -0.132919 -2.617914
C 205.669784 -0.022343 0.000314
C 206.444954 0.024923 1.386940
C 205.863847 0.039292 2.639397
C 206.905937 0.076830 3.593301
C 208.099879 0.085202 2.902014
N 207.810807 0.054275 1.558309
C 209.539947 0.120892 3.564029
C 209.601523 0.189159 5.045312
C 209.667082 -0.978328 5.808348
C 209.698213 -0.905935 7.205292
C 209.631545 0.326810 7.874096
N 209.707426 0.329985 9.278381
C 209.227318 1.502317 9.985064
C 209.621095 1.490832 7.095155
C 209.590040 1.424774 5.696562
C 210.667659 0.092088 2.806259
C 211.981507 0.119154 3.415733
C 212.891471 0.075319 2.451869
N 210.862530 0.036909 1.451015
C 212.207216 0.024256 1.175010
C 212.890923 -0.022343 0.000314
C 212.116068 -0.063442 -1.386757
C 212.696895 -0.063187 -2.639787
C 211.654884 -0.102281 -3.593922
C 210.461161 -0.123721 -2.902272
N 210.750545 -0.099541 -1.558253
C 209.021822 -0.165467 -3.562951
C 208.953750 -0.233729 -5.043749
C 208.904180 0.935902 -5.805850
C 208.831220 0.870520 -7.202845
C 208.775106 -0.361425 -7.866993
N 208.744119 -0.490597 -9.267606
C 208.202885 0.613282 -10.038324
C 208.882680 -1.527080 -7.091952
C 208.955139 -1.468021 -5.696110
C 207.893534 -0.137953 -2.805247
C 206.579343 -0.168189 -3.414442
C 205.669061 -0.124641 -2.450960
C 206.353283 -0.070105 -1.174365
N 207.697980 -0.080706 -1.450233
H 204.806581 0.021524 2.854397
H 206.795514 0.093508 4.667463
H 208.498169 0.044557 0.808490
H 209.701881 -1.940882 5.303425
H 209.770884 -1.832964 7.765733
H 209.326305 -0.536721 9.648265
H 208.196207 1.745177 9.707444
H 209.243281 1.301861 11.061388
H 209.872571 2.369155 9.810617
H 209.635435 2.475102 7.548644
H 209.565019 2.335429 5.102153
H 212.197889 0.165140 4.468431
H 213.952835 0.081723 2.619255
H 213.753945 -0.035963 -2.855015
H 211.765416 -0.111226 -4.668557
H 210.063525 -0.097418 -0.808155
H 208.924114 1.898246 -5.299281
H 208.815164 1.807657 -7.747033
H 208.331737 -1.384719 -9.521423
H 208.857435 1.489752 -9.999280
H 208.131078 0.313357 -11.088995
H 207.197279 0.885431 -9.700543
H 208.902976 -2.503548 -7.565948
H 209.013419 -2.379794 -5.106364
H 206.362764 -0.215963 -4.466831
H 204.607695 -0.132919 -2.617914
C 217.186383 -0.022343 0.000314
C 217.961553 0.024923 1.386940
C 217.380446 0.039292 2.639397
C 218.422536 0.076830 3.593301
C 219.616479 0.085202 2.902014
N 219.327406 0.054275 1.558309
C 221.056547 0.120892 3.564029
C 221.118122 0.189159 5.045312
C 221.183681 -0.978328 5.808348
C 221.214812 -0.905935 7.205292
C 221.148145 0.326810 7.874096
N 221.224025 0.329985 9.278381
C 220.743918 1.502317 9.985064
C 221.137694 1.490832 7.095155
C 221.106640 1.424774 5.696562
C 222.184258 0.092088 2.806259
C 223.498107 0.119154 3.415733
C 224.408071 0.075319 2.451869
N 222.379129 0.036909 1.451015
C 223.723815 0.024256 1.175010
C 224.407523 -0.022343 0.000314
C 223.632667 -0.063442 -1.386757
C 224.213494 -0.063187 -2.639787
C 223.171483 -0.102281 -3.593922
C 221.977760 -0.123721 -2.902272
N 222.267145 -0.099541 -1.558253
C 220.538422 -0.165467 -3.562951
C 220.470349 -0.233729 -5.043749
C 220.420779 0.935902 -5.805850
C 220.347819 0.870520 -7.202845
C 220.291705 -0.361425 -7.866993
N 220.260719 -0.490597 -9.267606
C 219.719484 0.613282 -10.038324
C 220.399279 -1.527080 -7.091952
C 220.471738 -1.468021 -5.696110
C 219.410133 -0.137953 -2.805247
C 218.095942 -0.168189 -3.414442
C 217.185660 -0.124641 -2.450960
C 217.869882 -0.070105 -1.174365
N 219.214579 -0.080706 -1.450233
H 216.323180 0.021524 2.854397
H 218.312113 0.093508 4.667463
H 220.014768 0.044557 0.808490
H 221.218480 -1.940882 5.303425
H 221.287484 -1.832964 7.765733
H 220.842904 -0.536721 9.648265
H 219.712806 1.745177 9.707444
H 220.759881 1.301861 11.061388
H 221.389171 2.369155 9.810617
H 221.152035 2.475102 7.548644
H 221.081619 2.335429 5.102153
H 223.714488 0.165140 4.468431
H 225.469435 0.081723 2.619255
H 225.270545 -0.035963 -2.855015
H 223.282015 -0.111226 -4.668557
H 221.580124 -0.097418 -0.808155
H 220.440713 1.898246 -5.299281
H 220.331764 1.807657 -7.747033
H 219.848337 -1.384719 -9.521423
H 220.374034 1.489752 -9.999280
H 219.647678 0.313357 -11.088995
H 218.713878 0.885431 -9.700543
H 220.419575 -2.503548 -7.565948
H 220.530018 -2.379794 -5.106364
H 217.879363 -0.215963 -4.466831
H 216.124294 -0.132919 -2.617914
C 228.702982 -0.022343 0.000314
C 229.478152 0.024923 1.386940
C 228.897045 0.039292 2.639397
C 229.939135 0.076830 3.593301
C 231.133078 0.085202 2.902014
N 230.844006 0.054275 1.558309
C 232.573146 0.120892 3.564029
C 232.634721 0.189159 5.045312
C 232.700280 -0.978328 5.808348
C 232.731411 -0.905935 7.205292
C 232.664744 0.326810 7.874096
N 232.740624 0.329985 9.278381
C 232.260517 1.502317 9.985064
C 232.654294 1.490832 7.095155
C 232.623239 1.424774 5.696562
C 233.700858 0.092088 2.806259
C 235.014706 0.119154 3.415733
C 235.924670 0.075319 2.451869
N 233.895728 0.036909 1.451015
C 235.240414 0.024256 1.175010
C 235.924122 -0.022343 0.000314
C 235.149266 -0.063442 -1.386757
C 235.730094 -0.063187 -2.639787
C 234.688083 -0.102281 -3.593922
C 233.494359 -0.123721 -2.902272
N 233.783744 -0.099541 -1.558253
C 232.055021 -0.165467 -3.562951
C 231.986949 -0.233729 -5.043749
C 231.937378 0.935902 -5.805850
C 231.864419 0.870520 -7.202845
C 231.808305 -0.361425 -7.866993
N 231.777318 -0.490597 -9.267606
C 231.236084 0.613282 -10.038324
C 231.915879 -1.527080 -7.091952
C 231.988337 -1.468021 -5.696110
C 230.926732 -0.137953 -2.805247
C 229.612541 -0.168189 -3.414442
C 228.702259 -0.124641 -2.450960
C 229.386482 -0.070105 -1.174365
N 230.731178 -0.080706 -1.450233
H 227.839779 0.021524 2.854397
H 229.828712 0.093508 4.667463
H 231.531367 0.044557 0.808490
H 232.735079 -1.940882 5.303425
H 232.804083 -1.832964 7.765733
H 232.359503 -0.536721 9.648265
H 231.229406 1.745177 9.707444
H 232.276480 1.301861 11.061388
H 232.905770 2.369155 9.810617
H 232.668634 2.475102 7.548644
H 232.598218 2.335429 5.102153
H 235.231087 0.165140 4.468431
H 236.986034 0.081723 2.619255
H 236.787144 -0.035963 -2.855015
H 234.798615 -0.111226 -4.668557
H 233.096724 -0.097418 -0.808155
H 231.957312 1.898246 -5.299281
H 231.848363 1.807657 -7.747033
H 231.364936 -1.384719 -9.521423
H 231.890633 1.489752 -9.999280
H 231.164277 0.313357 -11.088995
H 230.230478 0.885431 -9.700543
H 231.936175 -2.503548 -7.565948
H 232.046617 -2.379794 -5.106364
H 229.395963 -0.215963 -4.466831
H 227.640893 -0.132919 -2.617914
C 240.219582 -0.022343 0.000314
C 240.994752 0.024923 1.386940
C 240.413644 0.039292 2.639397
C 241.455735 0.076830 3.593301
C 242.649677 0.085202 2.902014
N 242.360605 0.054275 1.558309
C 244.089745 0.120892 3.564029
C 244.151321 0.189159 5.045312
C 244.216880 -0.978328 5.808348
C 244.248011 -0.905935 7.205292
C 244.181343 0.326810 7.874096
N 244.257224 0.329985 9.278381
C 243.777116 1.502317 9.985064
C 244.170893 1.490832 7.095155
C 244.139838 1.424774 5.696562
C 245.217457 0.092088 2.806259
C 246.531305 0.119154 3.415733
C 247.441269 0.075319 2.451869
N 245.412328 0.036909 1.451015
C 246.757014 0.024256 1.175010
C 247.440721 -0.022343 0.000314
C 246.665866 -0.063442 -1.386757
C 247.246693 -0.063187 -2.639787
C 246.204682 -0.102281 -3.593922
C 245.010959 -0.123721 -2.902272
N 245.300343 -0.099541 -1.558253
C 243.571620 -0.165467 -3.562951
C 243.503548 -0.233729 -5.043749
C 243.453978 0.935902 -5.805850
C 243.381018 0.870520 -7.202845
C 243.324904 -0.361425 -7.866993
N 243.293917 -0.490597 -9.267606
C 242.752683 0.613282 -10.038324
C 243.432478 -1.527080 -7.091952
C 243.504937 -1.468021 -5.696110
C 242.443331 -0.137953 -2.805247
C 241.129141 -0.168189 -3.414442
C 240.218859 -0.124641 -2.450960
C 240.903081 -0.070105 -1.174365
N 242.247777 -0.080706 -1.450233
H 239.356379 0.021524 2.854397
H 241.345312 0.093508 4.667463
H 243.047967 0.044557 0.808490
H 244.251679 -1.940882 5.303425
H 244.320682 -1.832964 7.765733
H 243.876103 -0.536721 9.648265
H 242.746005 1.745177 9.707444
H 243.793079 1.301861 11.061388
H 244.422369 2.369155 9.810617
H 244.185233 2.475102 7.548644
H 244.114817 2.335429 5.102153
H 246.747687 0.165140 4.468431
H 248.502633 0.081723 2.619255
H 248.303743 -0.035963 -2.855015
H 246.315214 -0.111226 -4.668557
H 244.613323 -0.097418 -0.808155
H 243.473912 1.898246 -5.299281
H 243.364962 1.807657 -7.747033
H 242.881535 -1.384719 -9.521423
H 243.407233 1.489752 -9.999280
H 242.680876 0.313357 -11.088995
H 241.747077 0.885431 -9.700543
H 243.452774 -2.503548 -7.565948
H 243.563217 -2.379794 -5.106364
H 240.912562 -0.215963 -4.466831
H 239.157493 -0.132919 -2.617914
C 251.736181 -0.022343 0.000314
C 252.511351 0.024923 1.386940
C 251.930244 0.039292 2.639397
C 252.972334 0.076830 3.593301
C 254.166277 0.085202 2.902014
N 253.877204 0.054275 1.558309
C 255.606345 0.120892 3.564029
C 255.667920 0.189159 5.045312
C 255.733479 -0.978328 5.808348
C 255.764610 -0.905935 7.205292
C 255.697943 0.326810 7.874096
N 255.773823 0.329985 9.278381
C 255.293715 1.502317 9.985064
C 255.687492 1.490832 7.095155
C 255.656438 1.424774 5.696562
C 256.734056 0.092088 2.806259
C 258.047904 0.119154 3.415733
C 258.957868 0.075319 2.451869
N 256.928927 0.036909 1.451015
C 258.273613 0.024256 1.175010
C 258.957320 -0.022343 0.000314
C 258.182465 -0.063442 -1.386757
C 258.763292 -0.063187 -2.639787
C 257.721281 -0.102281 -3.593922
C 256.527558 -0.123721 -2.902272
N 256.816943 -0.099541 -1.558253
C 255.088220 -0.165467 -3.562951
C 255.020147 -0.233729 -5.043749
C 254.970577 0.935902 -5.805850
C 254.897617 0.870520 -7.202845
C 254.841503 -0.361425 -7.866993
N 254.810517 -0.490597 -9.267606
C 254.269282 0.613282 -10.038324
C 254.949077 -1.527080 -7.091952
C 255.021536 -1.468021 -5.696110
C 253.959931 -0.137953 -2.805247
C 252.645740 -0.168189 -3.414442
C 251.735458 -0.124641 -2.450960
C 252.419680 -0.070105 -1.174365
N 253.764377 -0.080706 -1.450233
H 250.872978 0.021524 2.854397
H 252.861911 0.093508 4.667463
H 254.564566 0.044557 0.808490
H 255.768278 -1.940882 5.303425
H 255.837282 -1.832964 7.765733
H 255.392702 -0.536721 9.648265
H 254.262604 1.745177 9.707444
H 255.309679 1.301861 11.061388
H 255.938969 2.369155 9.810617
H 255.701833 2.475102 7.548644
H 255.631417 2.335429 5.102153
H 258.264286 0.165140 4.468431
H 260.019233 0.081723 2.619255
H 259.820343 -0.035963 -2.855015
H 257.831813 -0.111226 -4.668557
H 256.129922 -0.097418 -0.808155
H 254.990511 1.898246 -5.299281
H 254.881562 1.807657 -7.747033
H 254.398135 -1.384719 -9.521423
H 254.923832 1.489752 -9.999280
H 254.197476 0.313357 -11.088995
H 253.263676 0.885431 -9.700543
H 254.969373 -2.503548 -7.565948
H 255.079816 -2.379794 -5.106364
H 252.429161 -0.215963 -4.466831
H 250.674092 -0.132919 -2.617914
C 263.252780 -0.022343 0.000314
C 264.027950 0.024923 1.386940
C 263.446843 0.039292 2.639397
C 264.488933 0.076830 3.593301
C 265.682876 0.085202 2.902014
N 265.393804 0.054275 1.558309
C 267.122944 0.120892 3.564029
C 267.184519 0.189159 5.045312
C 267.250078 -0.978328 5.808348
C 267.281209 -0.905935 7.205292
C 267.214542 0.326810 7.874096
N 267.290422 0.329985 9.278381
C 266.810315 1.502317 9.985064
C 267.204092 1.490832 7.095155
C 267.173037 1.424774 5.696562
C 268.250655 0.092088 2.806259
C 269.564504 0.119154 3.415733
C 270.474468 0.075319 2.451869
N 268.445526 0.036909 1.451015
C 269.790212 0.024256 1.175010
C 270.473920 -0.022343 0.000314
C 269.699064 -0.063442 -1.386757
C 270.279892 -0.063187 -2.639787
C 269.237881 -0.102281 -3.593922
C 268.044157 -0.123721 -2.902272
N 268.333542 -0.099541 -1.558253
C 266.604819 -0.165467 -3.562951
C 266.536747 -0.233729 -5.043749
C 266.487176 0.935902 -5.805850
C 266.414217 0.870520 -7.202845
C 266.358103 -0.361425 -7.866993
N 266.327116 -0.490597 -9.267606
C 265.785882 0.613282 -10.038324
C 266.465677 -1.527080 -7.091952
C 266.538135 -1.468021 -5.696110
C 265.476530 -0.137953 -2.805247
C 264.162339 -0.168189 -3.414442
C 263.252057 -0.124641 -2.450960
C 263.936280 -0.070105 -1.174365
N 265.280976 -0.080706 -1.450233
H 262.389577 0.021524 2.854397
H 264.378510 0.093508 4.667463
H 266.081165 0.044557 0.808490
H 267.284877 -1.940882 5.303425
H 267.353881 -1.832964 7.765733
H 266.909301 -0.536721 9.648265
H 265.779204 1.745177 9.707444
H 266.826278 1.301861 11.061388
H 267.455568 2.369155 9.810617
H 267.218432 2.475102 7.548644
H 267.148016 2.335429 5.102153
H 269.780885 0.165140 4.468431
H 271.535832 0.081723 2.619255
H 271.336942 -0.035963 -2.855015
H 269.348413 -0.111226 -4.668557
H 267.646522 -0.097418 -0.808155
H 266.507110 1.898246 -5.299281
H 266.398161 1.807657 -7.747033
H 265.914734 -1.384719 -9.521423
H 266.440431 1.489752 -9.999280
H 265.714075 0.313357 -11.088995
H 264.780276 0.885431 -9.700543
H 266.485973 -2.503548 -7.565948
H 266.596415 -2.379794 -5.106364
H 263.945761 -0.215963 -4.466831
H 262.190691 -0.132919 -2.617914
