 xtb: 6.5.1 (b24c23e)
          07302207483D

195224  0     0  0            999 V2000
   26.5191    0.0210    0.0232 Cu  0  0  0  0  0  0  0  0  0  0  0  0
   23.1145    0.0862    0.0697 C   0  0  0  0  0  0  0  0  0  0  0  0
   23.7529    1.1994   -0.4562 C   0  0  0  0  0  0  0  0  0  0  0  0
   23.0815    2.3316   -1.0258 C   0  0  0  0  0  0  0  0  0  0  0  0
   24.0433    3.1987   -1.4298 C   0  0  0  0  0  0  0  0  0  0  0  0
   25.3115    2.6097   -1.0967 C   0  0  0  0  0  0  0  0  0  0  0  0
   25.1041    1.3929   -0.5134 N   0  0  0  0  0  0  0  0  0  0  0  0
   26.5579    3.1904   -1.3495 C   0  0  0  0  0  0  0  0  0  0  0  0
   26.5756    4.5484   -1.9436 C   0  0  0  0  0  0  0  0  0  0  0  0
   27.1877    4.7770   -3.1785 C   0  0  0  0  0  0  0  0  0  0  0  0
   27.2037    6.0415   -3.7396 C   0  0  0  0  0  0  0  0  0  0  0  0
   26.6175    7.1155   -3.0648 C   0  0  0  0  0  0  0  0  0  0  0  0
   26.5977    8.3742   -3.6404 N   0  0  0  0  0  0  0  0  0  0  0  0
   25.9997    6.8948   -1.8312 C   0  0  0  0  0  0  0  0  0  0  0  0
   25.9796    5.6249   -1.2820 C   0  0  0  0  0  0  0  0  0  0  0  0
   27.7880    2.5841   -1.0841 C   0  0  0  0  0  0  0  0  0  0  0  0
   29.0667    3.2092   -1.2687 C   0  0  0  0  0  0  0  0  0  0  0  0
   30.0098    2.3071   -0.8949 C   0  0  0  0  0  0  0  0  0  0  0  0
   27.9726    1.3192   -0.5900 N   0  0  0  0  0  0  0  0  0  0  0  0
   29.3150    1.1294   -0.4716 C   0  0  0  0  0  0  0  0  0  0  0  0
   29.9474   -0.0404   -0.0131 C   0  0  0  0  0  0  0  0  0  0  0  0
   29.2835   -1.1893    0.4537 C   0  0  0  0  0  0  0  0  0  0  0  0
   29.9445   -2.3932    0.8569 C   0  0  0  0  0  0  0  0  0  0  0  0
   28.9777   -3.2629    1.2468 C   0  0  0  0  0  0  0  0  0  0  0  0
   27.7188   -2.5911    1.0935 C   0  0  0  0  0  0  0  0  0  0  0  0
   27.9380   -1.3315    0.5998 N   0  0  0  0  0  0  0  0  0  0  0  0
   26.4738   -3.1517    1.3877 C   0  0  0  0  0  0  0  0  0  0  0  0
   26.4541   -4.5132    1.9741 C   0  0  0  0  0  0  0  0  0  0  0  0
   27.0837   -4.7732    3.1938 C   0  0  0  0  0  0  0  0  0  0  0  0
   27.0632   -6.0412    3.7470 C   0  0  0  0  0  0  0  0  0  0  0  0
   26.4220   -7.0875    3.0787 C   0  0  0  0  0  0  0  0  0  0  0  0
   26.3661   -8.3483    3.6471 N   0  0  0  0  0  0  0  0  0  0  0  0
   25.7868   -6.8351    1.8601 C   0  0  0  0  0  0  0  0  0  0  0  0
   25.8031   -5.5616    1.3193 C   0  0  0  0  0  0  0  0  0  0  0  0
   25.2443   -2.5225    1.1710 C   0  0  0  0  0  0  0  0  0  0  0  0
   23.9643   -3.0632    1.5387 C   0  0  0  0  0  0  0  0  0  0  0  0
   23.0257   -2.1584    1.1642 C   0  0  0  0  0  0  0  0  0  0  0  0
   23.7240   -1.0514    0.5774 C   0  0  0  0  0  0  0  0  0  0  0  0
   25.0679   -1.2968    0.5963 N   0  0  0  0  0  0  0  0  0  0  0  0
   22.0296    0.1071    0.0848 H   0  0  0  0  0  0  0  0  0  0  0  0
   22.0109    2.4317   -1.1122 H   0  0  0  0  0  0  0  0  0  0  0  0
   23.9119    4.1481   -1.9236 H   0  0  0  0  0  0  0  0  0  0  0  0
   27.6371    3.9469   -3.7126 H   0  0  0  0  0  0  0  0  0  0  0  0
   27.6721    6.2039   -4.7043 H   0  0  0  0  0  0  0  0  0  0  0  0
   27.3154    8.5390   -4.3281 H   0  0  0  0  0  0  0  0  0  0  0  0
   26.4715    9.1363   -2.9936 H   0  0  0  0  0  0  0  0  0  0  0  0
   25.5400    7.7238   -1.3042 H   0  0  0  0  0  0  0  0  0  0  0  0
   25.5144    5.4657   -0.3152 H   0  0  0  0  0  0  0  0  0  0  0  0
   29.2200    4.2163   -1.6214 H   0  0  0  0  0  0  0  0  0  0  0  0
   31.0818    2.4236   -0.8941 H   0  0  0  0  0  0  0  0  0  0  0  0
   31.0113   -2.5481    0.8316 H   0  0  0  0  0  0  0  0  0  0  0  0
   29.1020   -4.2767    1.5917 H   0  0  0  0  0  0  0  0  0  0  0  0
   27.5760   -3.9645    3.7229 H   0  0  0  0  0  0  0  0  0  0  0  0
   27.5455   -6.2279    4.7003 H   0  0  0  0  0  0  0  0  0  0  0  0
   27.0918   -8.5456    4.3176 H   0  0  0  0  0  0  0  0  0  0  0  0
   26.1961   -9.1005    2.9986 H   0  0  0  0  0  0  0  0  0  0  0  0
   25.2845   -7.6424    1.3382 H   0  0  0  0  0  0  0  0  0  0  0  0
   25.3231   -5.3778    0.3642 H   0  0  0  0  0  0  0  0  0  0  0  0
   23.8107   -4.0084    2.0341 H   0  0  0  0  0  0  0  0  0  0  0  0
   21.9549   -2.2172    1.2808 H   0  0  0  0  0  0  0  0  0  0  0  0
   63.7332   -0.0144    0.0416 Cu  0  0  0  0  0  0  0  0  0  0  0  0
   67.1374   -0.0097    0.1238 C   0  0  0  0  0  0  0  0  0  0  0  0
   66.4996   -1.0650    0.7587 C   0  0  0  0  0  0  0  0  0  0  0  0
   67.1716   -2.1664    1.3855 C   0  0  0  0  0  0  0  0  0  0  0  0
   66.2101   -2.9854    1.8803 C   0  0  0  0  0  0  0  0  0  0  0  0
   64.9416   -2.3830    1.5734 C   0  0  0  0  0  0  0  0  0  0  0  0
   65.1485   -1.2220    0.8856 N   0  0  0  0  0  0  0  0  0  0  0  0
   63.6953   -2.9169    1.9147 C   0  0  0  0  0  0  0  0  0  0  0  0
   63.6781   -4.1645    2.7153 C   0  0  0  0  0  0  0  0  0  0  0  0
   63.0693   -5.3205    2.2204 C   0  0  0  0  0  0  0  0  0  0  0  0
   63.0541   -6.4881    2.9624 C   0  0  0  0  0  0  0  0  0  0  0  0
   63.6375   -6.5199    4.2317 C   0  0  0  0  0  0  0  0  0  0  0  0
   63.6584   -7.6962    4.9610 N   0  0  0  0  0  0  0  0  0  0  0  0
   64.2517   -5.3692    4.7325 C   0  0  0  0  0  0  0  0  0  0  0  0
   64.2713   -4.2087    3.9794 C   0  0  0  0  0  0  0  0  0  0  0  0
   62.4650   -2.3598    1.5580 C   0  0  0  0  0  0  0  0  0  0  0  0
   61.1865   -2.8607    1.9754 C   0  0  0  0  0  0  0  0  0  0  0  0
   60.2433   -2.0476    1.4349 C   0  0  0  0  0  0  0  0  0  0  0  0
   62.2803   -1.2454    0.7821 N   0  0  0  0  0  0  0  0  0  0  0  0
   60.9381   -1.0407    0.6914 C   0  0  0  0  0  0  0  0  0  0  0  0
   60.3055   -0.0074   -0.0233 C   0  0  0  0  0  0  0  0  0  0  0  0
   60.9684    1.0200   -0.7185 C   0  0  0  0  0  0  0  0  0  0  0  0
   60.3062    2.0255   -1.4929 C   0  0  0  0  0  0  0  0  0  0  0  0
   61.2726    2.8296   -2.0052 C   0  0  0  0  0  0  0  0  0  0  0  0
   62.5325    2.3261   -1.5372 C   0  0  0  0  0  0  0  0  0  0  0  0
   62.3140    1.2176   -0.7615 N   0  0  0  0  0  0  0  0  0  0  0  0
   63.7778    2.8778   -1.8470 C   0  0  0  0  0  0  0  0  0  0  0  0
   63.7980    4.1183   -2.6586 C   0  0  0  0  0  0  0  0  0  0  0  0
   63.1728    5.2805   -2.2002 C   0  0  0  0  0  0  0  0  0  0  0  0
   63.1947    6.4420   -2.9517 C   0  0  0  0  0  0  0  0  0  0  0  0
   63.8332    6.4613   -4.1943 C   0  0  0  0  0  0  0  0  0  0  0  0
   63.8915    7.6318   -4.9309 N   0  0  0  0  0  0  0  0  0  0  0  0
   64.4638    5.3041   -4.6588 C   0  0  0  0  0  0  0  0  0  0  0  0
   64.4458    4.1499   -3.8960 C   0  0  0  0  0  0  0  0  0  0  0  0
   65.0076    2.3476   -1.4452 C   0  0  0  0  0  0  0  0  0  0  0  0
   66.2878    2.9517   -1.6948 C   0  0  0  0  0  0  0  0  0  0  0  0
   67.2262    2.1407   -1.1456 C   0  0  0  0  0  0  0  0  0  0  0  0
   66.5278    1.0412   -0.5450 C   0  0  0  0  0  0  0  0  0  0  0  0
   65.1840    1.1925   -0.7395 N   0  0  0  0  0  0  0  0  0  0  0  0
   68.2223   -0.0072    0.1512 H   0  0  0  0  0  0  0  0  0  0  0  0
   68.2424   -2.2921    1.4228 H   0  0  0  0  0  0  0  0  0  0  0  0
   66.3419   -3.9232    2.3956 H   0  0  0  0  0  0  0  0  0  0  0  0
   62.6217   -5.3064    1.2325 H   0  0  0  0  0  0  0  0  0  0  0  0
   62.5884   -7.3822    2.5624 H   0  0  0  0  0  0  0  0  0  0  0  0
   62.9423   -8.3615    4.7166 H   0  0  0  0  0  0  0  0  0  0  0  0
   63.7832   -7.5794    5.9539 H   0  0  0  0  0  0  0  0  0  0  0  0
   64.7092   -5.3886    5.7157 H   0  0  0  0  0  0  0  0  0  0  0  0
   64.7337   -3.3146    4.3831 H   0  0  0  0  0  0  0  0  0  0  0  0
   61.0335   -3.7144    2.6157 H   0  0  0  0  0  0  0  0  0  0  0  0
   59.1714   -2.1109    1.5335 H   0  0  0  0  0  0  0  0  0  0  0  0
   59.2388    2.0934   -1.6304 H   0  0  0  0  0  0  0  0  0  0  0  0
   61.1473    3.6792   -2.6568 H   0  0  0  0  0  0  0  0  0  0  0  0
   62.6830    5.2763   -1.2325 H   0  0  0  0  0  0  0  0  0  0  0  0
   62.7158    7.3411   -2.5794 H   0  0  0  0  0  0  0  0  0  0  0  0
   63.1691    8.3025   -4.7226 H   0  0  0  0  0  0  0  0  0  0  0  0
   64.0592    7.5071   -5.9165 H   0  0  0  0  0  0  0  0  0  0  0  0
   64.9638    5.3138   -5.6212 H   0  0  0  0  0  0  0  0  0  0  0  0
   64.9224    3.2509   -4.2717 H   0  0  0  0  0  0  0  0  0  0  0  0
   66.4417    3.8855   -2.2113 H   0  0  0  0  0  0  0  0  0  0  0  0
   68.2971    2.2703   -1.1305 H   0  0  0  0  0  0  0  0  0  0  0  0
   31.3522   -0.0616   -0.0201 C   0  0  0  0  0  0  0  0  0  0  0  0
   32.5770   -0.0750   -0.0185 C   0  0  0  0  0  0  0  0  0  0  0  0
   33.9196   -0.0848   -0.0201 C   0  0  0  0  0  0  0  0  0  0  0  0
   35.1505   -0.0920   -0.0183 C   0  0  0  0  0  0  0  0  0  0  0  0
   36.4884   -0.0926   -0.0133 C   0  0  0  0  0  0  0  0  0  0  0  0
   37.7193   -0.0856   -0.0069 C   0  0  0  0  0  0  0  0  0  0  0  0
   39.0618   -0.0792   -0.0037 C   0  0  0  0  0  0  0  0  0  0  0  0
   40.2867   -0.0684    0.0013 C   0  0  0  0  0  0  0  0  0  0  0  0
   49.9664   -0.0107   -0.0204 C   0  0  0  0  0  0  0  0  0  0  0  0
   51.1913   -0.0070   -0.0332 C   0  0  0  0  0  0  0  0  0  0  0  0
   52.5337   -0.0048   -0.0470 C   0  0  0  0  0  0  0  0  0  0  0  0
   53.7646   -0.0007   -0.0552 C   0  0  0  0  0  0  0  0  0  0  0  0
   55.1024    0.0003   -0.0606 C   0  0  0  0  0  0  0  0  0  0  0  0
   56.3333    0.0030   -0.0613 C   0  0  0  0  0  0  0  0  0  0  0  0
   57.6759    0.0003   -0.0546 C   0  0  0  0  0  0  0  0  0  0  0  0
   58.9006   -0.0024   -0.0435 C   0  0  0  0  0  0  0  0  0  0  0  0
   45.1264   -0.0327    0.0136 Cu  0  0  0  0  0  0  0  0  0  0  0  0
   41.6912   -0.0598   -0.0016 C   0  0  0  0  0  0  0  0  0  0  0  0
   42.3314    1.1433   -0.3519 C   0  0  0  0  0  0  0  0  0  0  0  0
   41.6441    2.3592   -0.6659 C   0  0  0  0  0  0  0  0  0  0  0  0
   42.5940    3.2944   -0.9235 C   0  0  0  0  0  0  0  0  0  0  0  0
   43.8686    2.6511   -0.7799 C   0  0  0  0  0  0  0  0  0  0  0  0
   43.6750    1.3429   -0.4222 N   0  0  0  0  0  0  0  0  0  0  0  0
   45.1047    3.2781   -0.9544 C   0  0  0  0  0  0  0  0  0  0  0  0
   45.0969    4.7038   -1.3643 C   0  0  0  0  0  0  0  0  0  0  0  0
   44.5263    5.0939   -2.5780 C   0  0  0  0  0  0  0  0  0  0  0  0
   44.5233    6.4220   -2.9661 C   0  0  0  0  0  0  0  0  0  0  0  0
   45.0911    7.3952   -2.1399 C   0  0  0  0  0  0  0  0  0  0  0  0
   45.0462    8.7307   -2.5015 N   0  0  0  0  0  0  0  0  0  0  0  0
   45.6520    7.0147   -0.9181 C   0  0  0  0  0  0  0  0  0  0  0  0
   45.6601    5.6830   -0.5426 C   0  0  0  0  0  0  0  0  0  0  0  0
   46.3490    2.6684   -0.7751 C   0  0  0  0  0  0  0  0  0  0  0  0
   47.6146    3.3008   -1.0145 C   0  0  0  0  0  0  0  0  0  0  0  0
   48.5769    2.3816   -0.7454 C   0  0  0  0  0  0  0  0  0  0  0  0
   46.5600    1.3745   -0.3783 N   0  0  0  0  0  0  0  0  0  0  0  0
   47.9060    1.1810   -0.3483 C   0  0  0  0  0  0  0  0  0  0  0  0
   48.5621   -0.0135    0.0016 C   0  0  0  0  0  0  0  0  0  0  0  0
   47.9219   -1.2132    0.3631 C   0  0  0  0  0  0  0  0  0  0  0  0
   48.6087   -2.4284    0.6803 C   0  0  0  0  0  0  0  0  0  0  0  0
   47.6586   -3.3576    0.9586 C   0  0  0  0  0  0  0  0  0  0  0  0
   46.3846   -2.7119    0.8212 C   0  0  0  0  0  0  0  0  0  0  0  0
   46.5784   -1.4080    0.4491 N   0  0  0  0  0  0  0  0  0  0  0  0
   45.1484   -3.3352    1.0094 C   0  0  0  0  0  0  0  0  0  0  0  0
   45.1585   -4.7537    1.4433 C   0  0  0  0  0  0  0  0  0  0  0  0
   44.5893   -5.7480    0.6443 C   0  0  0  0  0  0  0  0  0  0  0  0
   44.6012   -7.0726    1.0439 C   0  0  0  0  0  0  0  0  0  0  0  0
   45.1834   -7.4323    2.2620 C   0  0  0  0  0  0  0  0  0  0  0  0
   45.1534   -8.7490    2.6883 N   0  0  0  0  0  0  0  0  0  0  0  0
   45.7434   -6.4419    3.0730 C   0  0  0  0  0  0  0  0  0  0  0  0
   45.7361   -5.1210    2.6609 C   0  0  0  0  0  0  0  0  0  0  0  0
   43.9041   -2.7287    0.8204 C   0  0  0  0  0  0  0  0  0  0  0  0
   42.6380   -3.3600    1.0599 C   0  0  0  0  0  0  0  0  0  0  0  0
   41.6759   -2.4472    0.7691 C   0  0  0  0  0  0  0  0  0  0  0  0
   42.3474   -1.2502    0.3622 C   0  0  0  0  0  0  0  0  0  0  0  0
   43.6935   -1.4403    0.4051 N   0  0  0  0  0  0  0  0  0  0  0  0
   40.5721    2.4760   -0.6758 H   0  0  0  0  0  0  0  0  0  0  0  0
   42.4470    4.3324   -1.1743 H   0  0  0  0  0  0  0  0  0  0  0  0
   44.0990    4.3421   -3.2325 H   0  0  0  0  0  0  0  0  0  0  0  0
   44.0836    6.7116   -3.9143 H   0  0  0  0  0  0  0  0  0  0  0  0
   44.9411    8.9010   -3.4889 H   0  0  0  0  0  0  0  0  0  0  0  0
   45.7373    9.3152   -2.0590 H   0  0  0  0  0  0  0  0  0  0  0  0
   46.0819    7.7674   -0.2663 H   0  0  0  0  0  0  0  0  0  0  0  0
   46.0904    5.3964    0.4108 H   0  0  0  0  0  0  0  0  0  0  0  0
   47.7473    4.3133   -1.3598 H   0  0  0  0  0  0  0  0  0  0  0  0
   49.6470    2.4955   -0.8143 H   0  0  0  0  0  0  0  0  0  0  0  0
   49.6803   -2.5488    0.6795 H   0  0  0  0  0  0  0  0  0  0  0  0
   47.8050   -4.3935    1.2185 H   0  0  0  0  0  0  0  0  0  0  0  0
   44.1509   -5.4790   -0.3106 H   0  0  0  0  0  0  0  0  0  0  0  0
   44.1621   -7.8366    0.4115 H   0  0  0  0  0  0  0  0  0  0  0  0
   45.8522   -8.9908    3.3726 H   0  0  0  0  0  0  0  0  0  0  0  0
   45.0491   -9.4315    1.9546 H   0  0  0  0  0  0  0  0  0  0  0  0
   46.1844   -6.7130    4.0260 H   0  0  0  0  0  0  0  0  0  0  0  0
   46.1653   -4.3568    3.2997 H   0  0  0  0  0  0  0  0  0  0  0  0
   42.5043   -4.3673    1.4195 H   0  0  0  0  0  0  0  0  0  0  0  0
   40.6056   -2.5625    0.8312 H   0  0  0  0  0  0  0  0  0  0  0  0
  2  3  4  0  0  0  0
  3  4  1  0  0  0  0
  4  5  2  0  0  0  0
  5  6  4  0  0  0  0
  1  7  1  0  0  0  0
  3  7  4  0  0  0  0
  6  7  4  0  0  0  0
  6  8  4  0  0  0  0
  8  9  1  0  0  0  0
  9 10  4  0  0  0  0
 10 11  4  0  0  0  0
 11 12  4  0  0  0  0
 12 13  1  0  0  0  0
 12 14  4  0  0  0  0
  9 15  4  0  0  0  0
 14 15  4  0  0  0  0
  8 16  4  0  0  0  0
 16 17  4  0  0  0  0
 17 18  2  0  0  0  0
  1 19  1  0  0  0  0
 16 19  4  0  0  0  0
 18 20  4  0  0  0  0
 19 20  4  0  0  0  0
 20 21  4  0  0  0  0
 21 22  4  0  0  0  0
 22 23  4  0  0  0  0
 23 24  2  0  0  0  0
 24 25  4  0  0  0  0
  1 26  1  0  0  0  0
 22 26  4  0  0  0  0
 25 26  4  0  0  0  0
 25 27  4  0  0  0  0
 27 28  1  0  0  0  0
 28 29  4  0  0  0  0
 29 30  4  0  0  0  0
 30 31  4  0  0  0  0
 31 32  1  0  0  0  0
 31 33  4  0  0  0  0
 28 34  4  0  0  0  0
 33 34  4  0  0  0  0
 27 35  4  0  0  0  0
 35 36  4  0  0  0  0
 36 37  2  0  0  0  0
  2 38  4  0  0  0  0
 37 38  1  0  0  0  0
  1 39  1  0  0  0  0
 35 39  4  0  0  0  0
 38 39  4  0  0  0  0
  2 40  1  0  0  0  0
  4 41  1  0  0  0  0
  5 42  1  0  0  0  0
 10 43  1  0  0  0  0
 11 44  1  0  0  0  0
 13 45  1  0  0  0  0
 13 46  1  0  0  0  0
 14 47  1  0  0  0  0
 15 48  1  0  0  0  0
 17 49  1  0  0  0  0
 18 50  1  0  0  0  0
 23 51  1  0  0  0  0
 24 52  1  0  0  0  0
 29 53  1  0  0  0  0
 30 54  1  0  0  0  0
 32 55  1  0  0  0  0
 32 56  1  0  0  0  0
 33 57  1  0  0  0  0
 34 58  1  0  0  0  0
 36 59  1  0  0  0  0
 37 60  1  0  0  0  0
 62 63  4  0  0  0  0
 63 64  1  0  0  0  0
 64 65  2  0  0  0  0
 65 66  4  0  0  0  0
 61 67  1  0  0  0  0
 63 67  4  0  0  0  0
 66 67  4  0  0  0  0
 66 68  4  0  0  0  0
 68 69  1  0  0  0  0
 69 70  4  0  0  0  0
 70 71  4  0  0  0  0
 71 72  4  0  0  0  0
 72 73  1  0  0  0  0
 72 74  4  0  0  0  0
 69 75  4  0  0  0  0
 74 75  4  0  0  0  0
 68 76  4  0  0  0  0
 76 77  4  0  0  0  0
 77 78  2  0  0  0  0
 61 79  1  0  0  0  0
 76 79  4  0  0  0  0
 78 80  4  0  0  0  0
 79 80  4  0  0  0  0
 80 81  4  0  0  0  0
 81 82  4  0  0  0  0
 82 83  4  0  0  0  0
 83 84  2  0  0  0  0
 84 85  4  0  0  0  0
 61 86  1  0  0  0  0
 82 86  4  0  0  0  0
 85 86  4  0  0  0  0
 85 87  4  0  0  0  0
 87 88  1  0  0  0  0
 88 89  4  0  0  0  0
 89 90  4  0  0  0  0
 90 91  4  0  0  0  0
 91 92  1  0  0  0  0
 91 93  4  0  0  0  0
 88 94  4  0  0  0  0
 93 94  4  0  0  0  0
 87 95  4  0  0  0  0
 95 96  4  0  0  0  0
 96 97  2  0  0  0  0
 62 98  4  0  0  0  0
 97 98  1  0  0  0  0
 61 99  1  0  0  0  0
 95 99  4  0  0  0  0
 98 99  4  0  0  0  0
 62100  1  0  0  0  0
 64101  1  0  0  0  0
 65102  1  0  0  0  0
 70103  1  0  0  0  0
 71104  1  0  0  0  0
 73105  1  0  0  0  0
 73106  1  0  0  0  0
 74107  1  0  0  0  0
 75108  1  0  0  0  0
 77109  1  0  0  0  0
 78110  1  0  0  0  0
 83111  1  0  0  0  0
 84112  1  0  0  0  0
 89113  1  0  0  0  0
 90114  1  0  0  0  0
 92115  1  0  0  0  0
 92116  1  0  0  0  0
 93117  1  0  0  0  0
 94118  1  0  0  0  0
 96119  1  0  0  0  0
 97120  1  0  0  0  0
 21121  4  0  0  0  0
121122  3  0  0  0  0
122123  4  0  0  0  0
123124  3  0  0  0  0
124125  4  0  0  0  0
125126  3  0  0  0  0
126127  4  0  0  0  0
127128  3  0  0  0  0
129130  3  0  0  0  0
130131  4  0  0  0  0
131132  3  0  0  0  0
132133  4  0  0  0  0
133134  3  0  0  0  0
134135  4  0  0  0  0
 81136  4  0  0  0  0
135136  3  0  0  0  0
128138  4  0  0  0  0
138139  4  0  0  0  0
139140  4  0  0  0  0
140141  2  0  0  0  0
141142  4  0  0  0  0
137143  1  0  0  0  0
139143  4  0  0  0  0
142143  4  0  0  0  0
142144  4  0  0  0  0
144145  1  0  0  0  0
145146  4  0  0  0  0
146147  4  0  0  0  0
147148  4  0  0  0  0
148149  1  0  0  0  0
148150  4  0  0  0  0
145151  4  0  0  0  0
150151  4  0  0  0  0
144152  4  0  0  0  0
152153  4  0  0  0  0
153154  2  0  0  0  0
137155  1  0  0  0  0
152155  4  0  0  0  0
154156  4  0  0  0  0
155156  4  0  0  0  0
129157  4  0  0  0  0
156157  4  0  0  0  0
157158  4  0  0  0  0
158159  4  0  0  0  0
159160  2  0  0  0  0
160161  4  0  0  0  0
137162  1  0  0  0  0
158162  4  0  0  0  0
161162  4  0  0  0  0
161163  4  0  0  0  0
163164  1  0  0  0  0
164165  4  0  0  0  0
165166  4  0  0  0  0
166167  4  0  0  0  0
167168  1  0  0  0  0
167169  4  0  0  0  0
164170  4  0  0  0  0
169170  4  0  0  0  0
163171  4  0  0  0  0
171172  4  0  0  0  0
172173  2  0  0  0  0
138174  4  0  0  0  0
173174  4  0  0  0  0
137175  1  0  0  0  0
171175  4  0  0  0  0
174175  4  0  0  0  0
140176  1  0  0  0  0
141177  1  0  0  0  0
146178  1  0  0  0  0
147179  1  0  0  0  0
149180  1  0  0  0  0
149181  1  0  0  0  0
150182  1  0  0  0  0
151183  1  0  0  0  0
153184  1  0  0  0  0
154185  1  0  0  0  0
159186  1  0  0  0  0
160187  1  0  0  0  0
165188  1  0  0  0  0
166189  1  0  0  0  0
168190  1  0  0  0  0
168191  1  0  0  0  0
169192  1  0  0  0  0
170193  1  0  0  0  0
172194  1  0  0  0  0
173195  1  0  0  0  0
M  END
