542

C 82.210059 -0.036882 -0.139277
C 82.937442 -0.233654 1.230508
C 82.336163 -0.586321 2.418821
C 83.356478 -0.620900 3.403011
C 84.537332 -0.257693 2.792414
N 84.281030 -0.082315 1.454353
C 85.955413 -0.110182 3.490718
C 87.089430 -0.053686 2.734833
C 88.401322 0.096595 3.331785
C 89.303029 0.157590 2.359858
N 87.283840 -0.094168 1.378547
C 88.617963 0.025315 1.088307
C 89.278243 0.033701 -0.099280
C 88.494446 -0.157964 -1.467737
C 89.006412 -0.707440 -2.626489
C 87.984560 -0.669243 -3.608027
C 86.880680 -0.094081 -3.024165
C 85.478169 0.170719 -3.728847
C 85.471228 0.384307 -5.207174
C 85.963283 1.573617 -5.783064
O 86.457623 2.658569 -5.106890
C 85.576451 3.226082 -4.137372
C 86.064744 1.699108 -7.176270
C 85.635369 0.674322 -8.015534
C 85.119482 -0.495980 -7.464045
C 85.055782 -0.658956 -6.073597
O 84.551088 -1.802704 -5.503093
C 84.798124 -3.024748 -6.192851
C 84.355017 0.197045 -2.964134
C 83.023990 0.360262 -3.520878
C 82.140350 0.279175 -2.529225
C 82.874665 0.088825 -1.302561
N 84.201468 0.071558 -1.611131
N 87.181876 0.161559 -1.704884
C 85.992693 0.004875 4.980602
C 85.692151 1.219038 5.637349
O 85.228459 2.339512 4.995611
C 86.242084 3.013552 4.253665
C 85.724819 1.310328 7.033698
C 86.082884 0.205943 7.800166
C 86.369239 -1.006457 7.172103
C 86.324100 -1.118551 5.773147
O 86.529503 -2.306379 5.117243
C 87.315111 -3.292193 5.767268
H 81.118469 -0.000549 -0.134246
H 81.286129 -0.791449 2.560584
H 83.238381 -0.859695 4.447353
H 84.979245 0.116049 0.741443
H 88.614805 0.160373 4.382758
H 90.360965 0.268017 2.514163
H 90.000103 -1.104802 -2.748721
H 88.040859 -1.022225 -4.625288
H 86.088431 3.253485 -3.166154
H 85.363347 4.258436 -4.436198
H 84.626830 2.708669 -4.031423
H 86.482157 2.609464 -7.595245
H 85.702665 0.786351 -9.091180
H 84.772616 -1.279662 -8.129165
H 84.649362 -3.850992 -5.494186
H 84.079581 -3.149954 -7.009806
H 85.826616 -3.079372 -6.564671
H 82.786359 0.482896 -4.559961
H 81.068888 0.331190 -2.620228
H 86.505394 0.454071 -1.004961
H 86.523009 3.931379 4.779457
H 85.829917 3.301099 3.281230
H 87.142907 2.429410 4.081765
H 85.457376 2.245426 7.514813
H 86.111972 0.287041 8.883352
H 86.597300 -1.863248 7.794327
H 86.739333 -3.785907 6.552772
H 87.589270 -4.047849 5.028315
H 88.240152 -2.868578 6.174196
C 184.896726 -0.033068 -0.053197
C 184.169342 -0.350219 -1.400210
C 184.770621 -0.806603 -2.552675
C 183.750307 -0.928093 -3.529950
C 182.569453 -0.512306 -2.953870
N 182.825755 -0.219270 -1.636563
C 181.151372 -0.427134 -3.662483
C 180.017355 -0.304005 -2.914558
C 178.705463 -0.207110 -3.522461
C 177.803755 -0.060393 -2.559738
N 179.822945 -0.224373 -1.560006
C 178.488822 -0.079687 -1.281471
C 177.828541 0.033701 -0.099280
C 178.612339 -0.036180 1.280766
C 178.100373 -0.481018 2.483575
C 179.122225 -0.356159 3.457888
C 180.226105 0.165110 2.825444
C 181.628616 0.491197 3.503945
C 181.635557 0.834698 4.957588
C 181.143501 2.070282 5.426033
O 180.649162 3.091177 4.656551
C 181.530334 3.570718 3.640639
C 181.042040 2.318502 6.802681
C 181.471416 1.371960 7.729292
C 181.987303 0.157468 7.283471
C 182.051003 -0.127846 5.912887
O 182.555697 -1.317570 5.445777
C 182.308661 -2.473819 6.240915
C 182.751768 0.449786 2.739901
C 184.082795 0.661604 3.280027
C 184.966435 0.493128 2.299432
C 184.232120 0.195032 1.094410
N 182.905317 0.205125 1.403298
N 179.924909 0.303065 1.488724
C 181.114091 -0.444300 -5.156705
C 181.414634 0.707019 -5.918264
O 181.878326 1.879861 -5.378140
C 180.864701 2.616880 -4.698717
C 181.381966 0.674452 -7.317214
C 181.023901 -0.493394 -7.983002
C 180.737546 -1.645495 -7.250170
C 180.782685 -1.633419 -5.846783
O 180.577282 -2.758581 -5.088393
C 179.791674 -3.798022 -5.648680
H 185.988316 0.002677 -0.061422
H 185.820656 -1.023466 -2.675740
H 183.868403 -1.258318 -4.549079
H 182.127540 0.041369 -0.943991
H 178.491980 -0.236535 -4.574957
H 176.745820 0.035954 -2.723205
H 177.106682 -0.866012 2.640473
H 179.065926 -0.617786 4.502382
H 181.018353 3.512115 2.670804
H 181.743438 4.625456 3.846988
H 182.479955 3.045962 3.580867
H 180.624628 3.262347 7.139497
H 181.404120 1.578685 8.790814
H 182.334169 -0.564316 8.015297
H 182.457423 -3.358619 5.618064
H 183.027204 -2.526279 7.065742
H 181.280169 -2.495344 6.616108
H 184.320426 0.875658 4.304192
H 186.037897 0.552988 2.385478
H 180.601390 0.532526 0.765673
H 180.583776 3.484607 -5.303626
H 181.276867 2.989307 -3.755525
H 179.963878 2.050231 -4.475827
H 181.649409 1.563334 -7.879149
H 180.994813 -0.508416 -9.069116
H 180.509485 -2.553960 -7.794178
H 180.367452 -4.359276 -6.387440
H 179.517515 -4.485361 -4.845789
H 178.866633 -3.412058 -6.091480
C 95.342365 0.034804 -0.090790
C 94.133426 0.021349 -0.099237
C 92.711897 0.030168 -0.111220
C 91.500228 0.037607 -0.100357
C 96.758970 0.028128 -0.090257
C 97.979666 0.037607 -0.100357
C 110.868314 0.034804 -0.090790
C 109.659375 0.021349 -0.099237
C 108.237846 0.030168 -0.111220
C 107.026176 0.037607 -0.100357
C 112.284918 0.028128 -0.090257
C 113.505614 0.037607 -0.100357
C 126.394262 0.034804 -0.090790
C 125.185323 0.021349 -0.099237
C 123.763794 0.030168 -0.111220
C 122.552124 0.037607 -0.100357
C 127.810866 0.028128 -0.090257
C 129.031562 0.037607 -0.100357
C 141.920210 0.034804 -0.090790
C 140.711271 0.021349 -0.099237
C 139.289742 0.030168 -0.111220
C 138.078073 0.037607 -0.100357
C 143.336815 0.028128 -0.090257
C 144.557511 0.037607 -0.100357
C 157.446159 0.034804 -0.090790
C 156.237219 0.021349 -0.099237
C 154.815691 0.030168 -0.111220
C 153.604021 0.037607 -0.100357
C 158.862763 0.028128 -0.090257
C 160.083459 0.037607 -0.100357
C 172.972107 0.034804 -0.090790
C 171.763168 0.021349 -0.099237
C 170.341639 0.030168 -0.111220
C 169.129969 0.037607 -0.100357
C 174.388711 0.028128 -0.090257
C 175.609407 0.037607 -0.100357
C 98.958241 -0.017428 0.050299
C 99.749404 1.238955 0.613683
C 99.220511 2.273267 1.357373
C 100.255404 3.220785 1.544020
C 101.390102 2.734225 0.931523
N 101.089070 1.495891 0.421168
C 102.797550 3.467557 0.835463
C 103.929554 2.746070 0.604175
C 105.230303 3.374591 0.482641
C 106.140408 2.427769 0.302441
N 104.134721 1.400997 0.446871
C 105.467306 1.145829 0.258579
C 106.136492 -0.017428 0.050299
C 105.334886 -1.381125 -0.052679
C 105.833677 -2.652164 0.179020
C 104.797792 -3.574297 -0.106080
C 103.698715 -2.836641 -0.510558
C 102.303934 -3.422257 -0.988813
C 102.310064 -4.769097 -1.638810
C 101.946144 -5.901138 -0.860315
O 101.621674 -5.684697 0.455625
C 100.682334 -6.575489 1.039489
C 101.988439 -7.191424 -1.407939
C 102.398745 -7.379890 -2.719023
C 102.763805 -6.279710 -3.487262
C 102.710658 -4.975065 -2.976011
O 103.121242 -4.047734 -3.904156
C 102.450898 -2.786378 -3.888128
C 101.166424 -2.693907 -0.818799
C 99.862411 -3.202417 -1.198334
C 98.949732 -2.285020 -0.904937
C 99.627125 -1.134019 -0.338787
N 100.963767 -1.436667 -0.317186
N 104.014086 -1.504385 -0.410131
C 102.826914 4.952016 0.987259
C 102.893690 5.788541 -0.145526
O 102.954014 5.229924 -1.399730
C 101.818932 5.585517 -2.191947
C 102.963052 7.183138 -0.010733
C 102.931389 7.768783 1.252668
C 102.824947 6.963380 2.384502
C 102.791951 5.568910 2.256748
O 102.631174 4.863813 3.422060
C 103.867160 4.288413 3.851851
H 98.200771 2.357500 1.711147
H 100.184333 4.159676 2.069826
H 101.759571 0.863459 -0.012925
H 105.434269 4.427256 0.542053
H 107.193421 2.599806 0.191726
H 106.836775 -2.894785 0.504020
H 104.849623 -4.653929 -0.038203
H 100.282970 -6.103463 1.944132
H 101.177256 -7.506911 1.342723
H 99.832974 -6.775471 0.370010
H 101.742574 -8.061120 -0.811512
H 102.448920 -8.377879 -3.142134
H 103.092674 -6.428581 -4.506599
H 102.455452 -2.443414 -4.938237
H 101.387319 -2.885724 -3.601063
H 102.993060 -2.042938 -3.288781
H 99.662320 -4.161021 -1.637337
H 97.895662 -2.398767 -1.076529
H 103.368266 -0.727999 -0.532598
H 102.046905 6.500218 -2.755513
H 100.909406 5.738164 -1.598286
H 101.639562 4.780045 -2.918119
H 103.058813 7.809684 -0.891916
H 102.989896 8.848052 1.352823
H 102.791214 7.407755 3.371432
H 104.613595 4.175002 3.062468
H 103.650046 3.302160 4.282087
H 104.293139 4.920451 4.639842
C 114.484190 -0.017428 0.050299
C 115.275352 1.238955 0.613683
C 114.746460 2.273267 1.357373
C 115.781352 3.220785 1.544020
C 116.916051 2.734225 0.931523
N 116.615018 1.495891 0.421168
C 118.323499 3.467557 0.835463
C 119.455502 2.746070 0.604175
C 120.756251 3.374591 0.482641
C 121.666357 2.427769 0.302441
N 119.660669 1.400997 0.446871
C 120.993255 1.145829 0.258579
C 121.662440 -0.017428 0.050299
C 120.860835 -1.381125 -0.052679
C 121.359626 -2.652164 0.179020
C 120.323741 -3.574297 -0.106080
C 119.224664 -2.836641 -0.510558
C 117.829882 -3.422257 -0.988813
C 117.836012 -4.769097 -1.638810
C 117.472092 -5.901138 -0.860315
O 117.147622 -5.684697 0.455625
C 116.208282 -6.575489 1.039489
C 117.514388 -7.191424 -1.407939
C 117.924693 -7.379890 -2.719023
C 118.289753 -6.279710 -3.487262
C 118.236606 -4.975065 -2.976011
O 118.647191 -4.047734 -3.904156
C 117.976847 -2.786378 -3.888128
C 116.692372 -2.693907 -0.818799
C 115.388359 -3.202417 -1.198334
C 114.475680 -2.285020 -0.904937
C 115.153073 -1.134019 -0.338787
N 116.489715 -1.436667 -0.317186
N 119.540034 -1.504385 -0.410131
C 118.352862 4.952016 0.987259
C 118.419638 5.788541 -0.145526
O 118.479962 5.229924 -1.399730
C 117.344880 5.585517 -2.191947
C 118.489000 7.183138 -0.010733
C 118.457338 7.768783 1.252668
C 118.350896 6.963380 2.384502
C 118.317899 5.568910 2.256748
O 118.157122 4.863813 3.422060
C 119.393108 4.288413 3.851851
H 113.726719 2.357500 1.711147
H 115.710282 4.159676 2.069826
H 117.285519 0.863459 -0.012925
H 120.960218 4.427256 0.542053
H 122.719369 2.599806 0.191726
H 122.362723 -2.894785 0.504020
H 120.375572 -4.653929 -0.038203
H 115.808919 -6.103463 1.944132
H 116.703204 -7.506911 1.342723
H 115.358923 -6.775471 0.370010
H 117.268523 -8.061120 -0.811512
H 117.974868 -8.377879 -3.142134
H 118.618622 -6.428581 -4.506599
H 117.981400 -2.443414 -4.938237
H 116.913267 -2.885724 -3.601063
H 118.519008 -2.042938 -3.288781
H 115.188269 -4.161021 -1.637337
H 113.421610 -2.398767 -1.076529
H 118.894214 -0.727999 -0.532598
H 117.572853 6.500218 -2.755513
H 116.435355 5.738164 -1.598286
H 117.165510 4.780045 -2.918119
H 118.584761 7.809684 -0.891916
H 118.515844 8.848052 1.352823
H 118.317163 7.407755 3.371432
H 120.139544 4.175002 3.062468
H 119.175994 3.302160 4.282087
H 119.819088 4.920451 4.639842
C 130.010138 -0.017428 0.050299
C 130.801300 1.238955 0.613683
C 130.272408 2.273267 1.357373
C 131.307300 3.220785 1.544020
C 132.441999 2.734225 0.931523
N 132.140966 1.495891 0.421168
C 133.849447 3.467557 0.835463
C 134.981451 2.746070 0.604175
C 136.282200 3.374591 0.482641
C 137.192305 2.427769 0.302441
N 135.186618 1.400997 0.446871
C 136.519203 1.145829 0.258579
C 137.188389 -0.017428 0.050299
C 136.386783 -1.381125 -0.052679
C 136.885574 -2.652164 0.179020
C 135.849689 -3.574297 -0.106080
C 134.750612 -2.836641 -0.510558
C 133.355831 -3.422257 -0.988813
C 133.361960 -4.769097 -1.638810
C 132.998040 -5.901138 -0.860315
O 132.673570 -5.684697 0.455625
C 131.734231 -6.575489 1.039489
C 133.040336 -7.191424 -1.407939
C 133.450642 -7.379890 -2.719023
C 133.815702 -6.279710 -3.487262
C 133.762555 -4.975065 -2.976011
O 134.173139 -4.047734 -3.904156
C 133.502795 -2.786378 -3.888128
C 132.218321 -2.693907 -0.818799
C 130.914307 -3.202417 -1.198334
C 130.001629 -2.285020 -0.904937
C 130.679021 -1.134019 -0.338787
N 132.015663 -1.436667 -0.317186
N 135.065983 -1.504385 -0.410131
C 133.878811 4.952016 0.987259
C 133.945587 5.788541 -0.145526
O 134.005910 5.229924 -1.399730
C 132.870828 5.585517 -2.191947
C 134.014949 7.183138 -0.010733
C 133.983286 7.768783 1.252668
C 133.876844 6.963380 2.384502
C 133.843848 5.568910 2.256748
O 133.683071 4.863813 3.422060
C 134.919056 4.288413 3.851851
H 129.252667 2.357500 1.711147
H 131.236230 4.159676 2.069826
H 132.811468 0.863459 -0.012925
H 136.486166 4.427256 0.542053
H 138.245318 2.599806 0.191726
H 137.888671 -2.894785 0.504020
H 135.901520 -4.653929 -0.038203
H 131.334867 -6.103463 1.944132
H 132.229153 -7.506911 1.342723
H 130.884871 -6.775471 0.370010
H 132.794471 -8.061120 -0.811512
H 133.500817 -8.377879 -3.142134
H 134.144571 -6.428581 -4.506599
H 133.507348 -2.443414 -4.938237
H 132.439215 -2.885724 -3.601063
H 134.044957 -2.042938 -3.288781
H 130.714217 -4.161021 -1.637337
H 128.947559 -2.398767 -1.076529
H 134.420163 -0.727999 -0.532598
H 133.098801 6.500218 -2.755513
H 131.961303 5.738164 -1.598286
H 132.691459 4.780045 -2.918119
H 134.110709 7.809684 -0.891916
H 134.041793 8.848052 1.352823
H 133.843111 7.407755 3.371432
H 135.665492 4.175002 3.062468
H 134.701942 3.302160 4.282087
H 135.345036 4.920451 4.639842
C 145.536086 -0.017428 0.050299
C 146.327249 1.238955 0.613683
C 145.798356 2.273267 1.357373
C 146.833249 3.220785 1.544020
C 147.967947 2.734225 0.931523
N 147.666915 1.495891 0.421168
C 149.375395 3.467557 0.835463
C 150.507399 2.746070 0.604175
C 151.808148 3.374591 0.482641
C 152.718253 2.427769 0.302441
N 150.712566 1.400997 0.446871
C 152.045151 1.145829 0.258579
C 152.714337 -0.017428 0.050299
C 151.912731 -1.381125 -0.052679
C 152.411522 -2.652164 0.179020
C 151.375637 -3.574297 -0.106080
C 150.276560 -2.836641 -0.510558
C 148.881779 -3.422257 -0.988813
C 148.887909 -4.769097 -1.638810
C 148.523989 -5.901138 -0.860315
O 148.199519 -5.684697 0.455625
C 147.260179 -6.575489 1.039489
C 148.566284 -7.191424 -1.407939
C 148.976590 -7.379890 -2.719023
C 149.341650 -6.279710 -3.487262
C 149.288503 -4.975065 -2.976011
O 149.699087 -4.047734 -3.904156
C 149.028743 -2.786378 -3.888128
C 147.744269 -2.693907 -0.818799
C 146.440256 -3.202417 -1.198334
C 145.527577 -2.285020 -0.904937
C 146.204970 -1.134019 -0.338787
N 147.541612 -1.436667 -0.317186
N 150.591931 -1.504385 -0.410131
C 149.404759 4.952016 0.987259
C 149.471535 5.788541 -0.145526
O 149.531859 5.229924 -1.399730
C 148.396777 5.585517 -2.191947
C 149.540897 7.183138 -0.010733
C 149.509234 7.768783 1.252668
C 149.402792 6.963380 2.384502
C 149.369796 5.568910 2.256748
O 149.209019 4.863813 3.422060
C 150.445005 4.288413 3.851851
H 144.778616 2.357500 1.711147
H 146.762178 4.159676 2.069826
H 148.337416 0.863459 -0.012925
H 152.012114 4.427256 0.542053
H 153.771266 2.599806 0.191726
H 153.414620 -2.894785 0.504020
H 151.427468 -4.653929 -0.038203
H 146.860815 -6.103463 1.944132
H 147.755101 -7.506911 1.342723
H 146.410819 -6.775471 0.370010
H 148.320419 -8.061120 -0.811512
H 149.026765 -8.377879 -3.142134
H 149.670519 -6.428581 -4.506599
H 149.033297 -2.443414 -4.938237
H 147.965164 -2.885724 -3.601063
H 149.570905 -2.042938 -3.288781
H 146.240165 -4.161021 -1.637337
H 144.473507 -2.398767 -1.076529
H 149.946111 -0.727999 -0.532598
H 148.624750 6.500218 -2.755513
H 147.487251 5.738164 -1.598286
H 148.217407 4.780045 -2.918119
H 149.636658 7.809684 -0.891916
H 149.567741 8.848052 1.352823
H 149.369059 7.407755 3.371432
H 151.191440 4.175002 3.062468
H 150.227891 3.302160 4.282087
H 150.870984 4.920451 4.639842
C 161.062035 -0.017428 0.050299
C 161.853197 1.238955 0.613683
C 161.324305 2.273267 1.357373
C 162.359197 3.220785 1.544020
C 163.493896 2.734225 0.931523
N 163.192863 1.495891 0.421168
C 164.901344 3.467557 0.835463
C 166.033347 2.746070 0.604175
C 167.334096 3.374591 0.482641
C 168.244202 2.427769 0.302441
N 166.238514 1.400997 0.446871
C 167.571100 1.145829 0.258579
C 168.240285 -0.017428 0.050299
C 167.438679 -1.381125 -0.052679
C 167.937471 -2.652164 0.179020
C 166.901586 -3.574297 -0.106080
C 165.802509 -2.836641 -0.510558
C 164.407727 -3.422257 -0.988813
C 164.413857 -4.769097 -1.638810
C 164.049937 -5.901138 -0.860315
O 163.725467 -5.684697 0.455625
C 162.786127 -6.575489 1.039489
C 164.092233 -7.191424 -1.407939
C 164.502538 -7.379890 -2.719023
C 164.867598 -6.279710 -3.487262
C 164.814451 -4.975065 -2.976011
O 165.225036 -4.047734 -3.904156
C 164.554692 -2.786378 -3.888128
C 163.270217 -2.693907 -0.818799
C 161.966204 -3.202417 -1.198334
C 161.053525 -2.285020 -0.904937
C 161.730918 -1.134019 -0.338787
N 163.067560 -1.436667 -0.317186
N 166.117879 -1.504385 -0.410131
C 164.930707 4.952016 0.987259
C 164.997483 5.788541 -0.145526
O 165.057807 5.229924 -1.399730
C 163.922725 5.585517 -2.191947
C 165.066845 7.183138 -0.010733
C 165.035183 7.768783 1.252668
C 164.928741 6.963380 2.384502
C 164.895744 5.568910 2.256748
O 164.734967 4.863813 3.422060
C 165.970953 4.288413 3.851851
H 160.304564 2.357500 1.711147
H 162.288127 4.159676 2.069826
H 163.863364 0.863459 -0.012925
H 167.538063 4.427256 0.542053
H 169.297214 2.599806 0.191726
H 168.940568 -2.894785 0.504020
H 166.953417 -4.653929 -0.038203
H 162.386764 -6.103463 1.944132
H 163.281049 -7.506911 1.342723
H 161.936768 -6.775471 0.370010
H 163.846368 -8.061120 -0.811512
H 164.552713 -8.377879 -3.142134
H 165.196467 -6.428581 -4.506599
H 164.559245 -2.443414 -4.938237
H 163.491112 -2.885724 -3.601063
H 165.096853 -2.042938 -3.288781
H 161.766114 -4.161021 -1.637337
H 159.999455 -2.398767 -1.076529
H 165.472059 -0.727999 -0.532598
H 164.150698 6.500218 -2.755513
H 163.013200 5.738164 -1.598286
H 163.743355 4.780045 -2.918119
H 165.162606 7.809684 -0.891916
H 165.093689 8.848052 1.352823
H 164.895008 7.407755 3.371432
H 166.717389 4.175002 3.062468
H 165.753839 3.302160 4.282087
H 166.396933 4.920451 4.639842
