448

C 96.229265 -0.607658 0.575288
C 96.919810 -1.247533 -0.669036
C 96.270717 -1.775840 -1.758924
C 97.267335 -2.250967 -2.648502
C 98.492501 -2.008157 -2.068172
N 98.269804 -1.357896 -0.878451
C 99.915748 -2.420838 -2.637762
C 99.970705 -3.300898 -3.837604
C 100.537229 -2.790058 -5.021914
C 100.598206 -3.578179 -6.163202
O 101.153590 -3.121128 -7.324888
C 100.077575 -4.863238 -6.145801
O 100.124817 -5.636308 -7.276592
C 99.490765 -5.370182 -4.988547
O 98.954426 -6.627373 -5.003968
C 99.437645 -4.601513 -3.829513
C 101.045815 -1.928618 -2.053698
C 102.366307 -2.386966 -2.433897
C 103.264468 -1.736547 -1.704489
N 101.228587 -1.001792 -1.061266
C 102.566047 -0.817825 -0.829018
C 103.228743 0.019255 0.013561
C 102.436023 1.063770 0.906909
C 102.926762 2.259673 1.393618
C 101.910453 2.856096 2.182186
C 100.818705 2.015736 2.140069
N 101.132705 0.950433 1.326980
C 99.433560 2.226705 2.877869
C 99.356050 3.257280 3.937330
C 99.829449 3.004712 5.235422
C 99.742021 4.001763 6.194699
O 100.192277 3.776613 7.465017
C 99.197402 5.238904 5.871352
O 99.118439 6.210145 6.835973
C 98.740913 5.498482 4.583545
O 98.225804 6.739488 4.327460
C 98.815523 4.514812 3.610700
C 98.342225 1.518506 2.481063
C 97.055324 1.618982 3.148571
C 96.192789 0.827076 2.518768
C 96.891095 0.207687 1.418299
N 98.184493 0.625370 1.460015
H 95.178568 -0.816168 0.741613
H 95.201092 -1.812962 -1.900913
H 97.106245 -2.729689 -3.602867
H 98.996077 -0.987732 -0.273861
H 100.919155 -1.769931 -5.009921
H 101.467547 -2.223885 -7.132238
H 100.610708 -5.074167 -7.904345
H 99.195915 -6.962069 -5.884656
H 98.975642 -4.993086 -2.926662
H 102.594363 -3.152355 -3.152730
H 104.324366 -1.891434 -1.768185
H 103.911644 2.663139 1.206292
H 101.972135 3.791747 2.718201
H 100.474413 0.225790 1.045500
H 100.258881 2.035640 5.473967
H 100.022360 4.617458 7.929514
H 98.703300 6.963417 6.359907
H 97.992324 6.755603 3.379892
H 98.460074 4.678667 2.595281
H 96.831040 2.212954 4.015982
H 95.158461 0.680144 2.775097
C 173.331606 -0.680860 0.480890
C 172.641061 0.364985 1.410400
C 173.290154 1.289033 2.193407
C 172.293536 2.032317 2.875041
C 171.068369 1.530708 2.495398
N 171.291067 0.540332 1.569423
C 169.645123 1.979625 3.036889
C 169.590166 2.922593 4.187948
C 169.023642 4.196791 3.988033
C 168.962665 5.105939 5.035471
O 168.407281 6.344834 4.882018
C 169.483296 4.769162 6.275737
O 169.436053 5.671890 7.305984
C 170.070106 3.522138 6.478614
O 170.606445 3.224088 7.700062
C 170.123226 2.590961 5.445598
C 168.515055 1.536491 2.414761
C 167.194563 1.790611 2.953330
C 166.296403 1.246094 2.141800
N 168.332284 0.806045 1.270044
C 166.994824 0.626909 1.034050
C 166.332128 0.019255 0.013561
C 167.124848 -0.585928 -1.220472
C 166.634109 -0.759586 -2.499891
C 167.650418 -1.374842 -3.273854
C 168.742166 -1.543264 -2.449468
N 168.428166 -1.020989 -1.215283
C 170.127311 -2.205312 -2.837474
C 170.204821 -2.974849 -4.099361
C 169.731422 -4.294948 -4.177912
C 169.818850 -4.975800 -5.382389
O 169.368594 -6.262175 -5.480580
C 170.363469 -4.354640 -6.500079
O 170.442432 -5.047094 -7.680889
C 170.819958 -3.042757 -6.430877
O 171.335067 -2.485779 -7.569055
C 170.745348 -2.345432 -5.235982
C 171.218646 -1.997310 -2.052785
C 172.505547 -2.618788 -2.316279
C 173.368082 -2.205964 -1.392513
C 172.669775 -1.294344 -0.518657
N 171.376378 -1.230762 -0.933574
H 174.382303 -0.893859 0.641427
H 174.359778 1.417310 2.264709
H 172.454626 2.837453 3.576284
H 170.564794 0.046932 1.060397
H 168.641716 4.439142 2.997039
H 168.093323 6.381623 3.965063
H 168.950163 6.419827 6.917824
H 170.364956 3.993723 8.243472
H 170.585229 1.619052 5.600073
H 166.966508 2.296263 3.873579
H 165.236505 1.269225 2.307667
H 165.649227 -0.477713 -2.844018
H 167.588736 -1.661046 -4.313490
H 169.086458 -0.928775 -0.443380
H 169.301990 -4.767238 -3.298739
H 169.538511 -6.502714 -6.410590
H 170.857571 -4.398485 -8.291924
H 171.568546 -1.564034 -7.348760
H 171.100797 -1.321192 -5.141884
H 172.729831 -3.311015 -3.107496
H 174.402410 -2.490802 -1.314021
C 105.616226 0.019255 0.013561
C 106.838144 0.019255 0.013561
C 117.037526 0.019255 0.013561
C 118.259444 0.019255 0.013561
C 128.458826 0.019255 0.013561
C 129.680744 0.019255 0.013561
C 139.880127 0.019255 0.013561
C 141.102044 0.019255 0.013561
C 151.301427 0.019255 0.013561
C 152.523345 0.019255 0.013561
C 162.722727 0.019255 0.013561
C 163.944645 0.019255 0.013561
C 108.379356 -0.008572 -0.006037
C 109.163789 -1.355244 0.287449
C 108.629252 -2.524695 0.792034
C 109.666669 -3.490197 0.814625
C 110.807053 -2.877742 0.336042
N 110.507807 -1.560641 0.086016
C 112.208463 -3.569758 0.095701
C 112.215772 -5.033409 -0.131863
C 112.542439 -5.914513 0.916399
C 112.550686 -7.292402 0.691504
O 112.879931 -8.153618 1.707208
C 112.228953 -7.789513 -0.571936
O 112.229517 -9.136130 -0.826284
C 111.903477 -6.911080 -1.612530
O 111.601585 -7.446860 -2.844084
C 111.892734 -5.535954 -1.403046
C 113.344195 -2.826865 0.026397
C 114.635521 -3.421872 -0.251405
C 115.542462 -2.453541 -0.291156
N 113.552070 -1.481354 0.157896
C 114.878387 -1.191852 -0.028706
C 115.547737 -0.008572 -0.006037
C 114.765137 1.338524 0.285616
C 115.298864 2.502320 0.806705
C 114.264073 3.471027 0.822953
C 113.124865 2.865091 0.326777
N 113.425742 1.552191 0.058009
C 111.718524 3.554759 0.099873
C 111.676365 5.034208 0.045751
C 111.952806 5.727155 -1.144244
C 111.891339 7.115177 -1.151131
O 112.149104 7.804938 -2.305072
C 111.563091 7.811367 0.010909
O 111.499724 9.180879 -0.019141
C 111.297826 7.128066 1.193133
O 110.979345 7.859055 2.308449
C 111.353136 5.741238 1.220052
C 110.586273 2.807059 0.004653
C 109.288508 3.405235 -0.244687
C 108.381302 2.436185 -0.281891
C 109.051418 1.172319 -0.047887
N 110.383822 1.457947 0.101515
H 107.600948 -2.678017 1.086644
H 109.583885 -4.522365 1.126090
H 111.179167 -0.846973 -0.185495
H 112.791580 -5.492641 1.889451
H 113.135430 -7.613525 2.478149
H 111.984161 -9.188654 -1.772639
H 111.421670 -6.689531 -3.434184
H 111.646375 -4.832543 -2.196782
H 114.838164 -4.465851 -0.412071
H 116.588437 -2.602633 -0.488388
H 116.323759 2.649944 1.119055
H 114.348539 4.498666 1.145040
H 112.754401 0.842237 -0.226113
H 112.203345 5.174548 -2.047411
H 112.005365 8.739055 -2.054617
H 111.243309 9.408052 0.900046
H 110.834086 7.211491 3.023382
H 111.144962 5.173232 2.123695
H 109.084753 4.451059 -0.393662
H 107.330995 2.585885 -0.453862
C 119.800657 -0.008572 -0.006037
C 120.585090 -1.355244 0.287449
C 120.050552 -2.524695 0.792034
C 121.087970 -3.490197 0.814625
C 122.228353 -2.877742 0.336042
N 121.929107 -1.560641 0.086016
C 123.629764 -3.569758 0.095701
C 123.637072 -5.033409 -0.131863
C 123.963740 -5.914513 0.916399
C 123.971986 -7.292402 0.691504
O 124.301232 -8.153618 1.707208
C 123.650253 -7.789513 -0.571936
O 123.650817 -9.136130 -0.826284
C 123.324777 -6.911080 -1.612530
O 123.022886 -7.446860 -2.844084
C 123.314034 -5.535954 -1.403046
C 124.765495 -2.826865 0.026397
C 126.056821 -3.421872 -0.251405
C 126.963763 -2.453541 -0.291156
N 124.973370 -1.481354 0.157896
C 126.299688 -1.191852 -0.028706
C 126.969038 -0.008572 -0.006037
C 126.186438 1.338524 0.285616
C 126.720164 2.502320 0.806705
C 125.685373 3.471027 0.822953
C 124.546165 2.865091 0.326777
N 124.847043 1.552191 0.058009
C 123.139825 3.554759 0.099873
C 123.097666 5.034208 0.045751
C 123.374107 5.727155 -1.144244
C 123.312639 7.115177 -1.151131
O 123.570404 7.804938 -2.305072
C 122.984392 7.811367 0.010909
O 122.921024 9.180879 -0.019141
C 122.719126 7.128066 1.193133
O 122.400646 7.859055 2.308449
C 122.774437 5.741238 1.220052
C 122.007573 2.807059 0.004653
C 120.709808 3.405235 -0.244687
C 119.802602 2.436185 -0.281891
C 120.472719 1.172319 -0.047887
N 121.805123 1.457947 0.101515
H 119.022248 -2.678017 1.086644
H 121.005185 -4.522365 1.126090
H 122.600467 -0.846973 -0.185495
H 124.212880 -5.492641 1.889451
H 124.556730 -7.613525 2.478149
H 123.405462 -9.188654 -1.772639
H 122.842971 -6.689531 -3.434184
H 123.067676 -4.832543 -2.196782
H 126.259464 -4.465851 -0.412071
H 128.009737 -2.602633 -0.488388
H 127.745059 2.649944 1.119055
H 125.769839 4.498666 1.145040
H 124.175701 0.842237 -0.226113
H 123.624645 5.174548 -2.047411
H 123.426665 8.739055 -2.054617
H 122.664609 9.408052 0.900046
H 122.255386 7.211491 3.023382
H 122.566262 5.173232 2.123695
H 120.506053 4.451059 -0.393662
H 118.752295 2.585885 -0.453862
C 131.221957 -0.008572 -0.006037
C 132.006390 -1.355244 0.287449
C 131.471853 -2.524695 0.792034
C 132.509270 -3.490197 0.814625
C 133.649653 -2.877742 0.336042
N 133.350408 -1.560641 0.086016
C 135.051064 -3.569758 0.095701
C 135.058372 -5.033409 -0.131863
C 135.385040 -5.914513 0.916399
C 135.393286 -7.292402 0.691504
O 135.722532 -8.153618 1.707208
C 135.071554 -7.789513 -0.571936
O 135.072118 -9.136130 -0.826284
C 134.746077 -6.911080 -1.612530
O 134.444186 -7.446860 -2.844084
C 134.735334 -5.535954 -1.403046
C 136.186796 -2.826865 0.026397
C 137.478121 -3.421872 -0.251405
C 138.385063 -2.453541 -0.291156
N 136.394670 -1.481354 0.157896
C 137.720988 -1.191852 -0.028706
C 138.390338 -0.008572 -0.006037
C 137.607738 1.338524 0.285616
C 138.141464 2.502320 0.806705
C 137.106674 3.471027 0.822953
C 135.967465 2.865091 0.326777
N 136.268343 1.552191 0.058009
C 134.561125 3.554759 0.099873
C 134.518966 5.034208 0.045751
C 134.795407 5.727155 -1.144244
C 134.733939 7.115177 -1.151131
O 134.991705 7.804938 -2.305072
C 134.405692 7.811367 0.010909
O 134.342324 9.180879 -0.019141
C 134.140426 7.128066 1.193133
O 133.821946 7.859055 2.308449
C 134.195737 5.741238 1.220052
C 133.428873 2.807059 0.004653
C 132.131108 3.405235 -0.244687
C 131.223902 2.436185 -0.281891
C 131.894019 1.172319 -0.047887
N 133.226423 1.457947 0.101515
H 130.443549 -2.678017 1.086644
H 132.426485 -4.522365 1.126090
H 134.021768 -0.846973 -0.185495
H 135.634180 -5.492641 1.889451
H 135.978031 -7.613525 2.478149
H 134.826762 -9.188654 -1.772639
H 134.264271 -6.689531 -3.434184
H 134.488976 -4.832543 -2.196782
H 137.680764 -4.465851 -0.412071
H 139.431038 -2.602633 -0.488388
H 139.166359 2.649944 1.119055
H 137.191139 4.498666 1.145040
H 135.597001 0.842237 -0.226113
H 135.045946 5.174548 -2.047411
H 134.847966 8.739055 -2.054617
H 134.085910 9.408052 0.900046
H 133.676686 7.211491 3.023382
H 133.987562 5.173232 2.123695
H 131.927354 4.451059 -0.393662
H 130.173596 2.585885 -0.453862
C 142.643257 -0.008572 -0.006037
C 143.427690 -1.355244 0.287449
C 142.893153 -2.524695 0.792034
C 143.930570 -3.490197 0.814625
C 145.070954 -2.877742 0.336042
N 144.771708 -1.560641 0.086016
C 146.472364 -3.569758 0.095701
C 146.479673 -5.033409 -0.131863
C 146.806340 -5.914513 0.916399
C 146.814587 -7.292402 0.691504
O 147.143832 -8.153618 1.707208
C 146.492854 -7.789513 -0.571936
O 146.493418 -9.136130 -0.826284
C 146.167377 -6.911080 -1.612530
O 145.865486 -7.446860 -2.844084
C 146.156635 -5.535954 -1.403046
C 147.608096 -2.826865 0.026397
C 148.899422 -3.421872 -0.251405
C 149.806363 -2.453541 -0.291156
N 147.815971 -1.481354 0.157896
C 149.142288 -1.191852 -0.028706
C 149.811638 -0.008572 -0.006037
C 149.029038 1.338524 0.285616
C 149.562764 2.502320 0.806705
C 148.527974 3.471027 0.822953
C 147.388766 2.865091 0.326777
N 147.689643 1.552191 0.058009
C 145.982425 3.554759 0.099873
C 145.940266 5.034208 0.045751
C 146.216707 5.727155 -1.144244
C 146.155240 7.115177 -1.151131
O 146.413005 7.804938 -2.305072
C 145.826992 7.811367 0.010909
O 145.763625 9.180879 -0.019141
C 145.561726 7.128066 1.193133
O 145.243246 7.859055 2.308449
C 145.617037 5.741238 1.220052
C 144.850173 2.807059 0.004653
C 143.552409 3.405235 -0.244687
C 142.645202 2.436185 -0.281891
C 143.315319 1.172319 -0.047887
N 144.647723 1.457947 0.101515
H 141.864849 -2.678017 1.086644
H 143.847786 -4.522365 1.126090
H 145.443068 -0.846973 -0.185495
H 147.055480 -5.492641 1.889451
H 147.399331 -7.613525 2.478149
H 146.248062 -9.188654 -1.772639
H 145.685571 -6.689531 -3.434184
H 145.910276 -4.832543 -2.196782
H 149.102065 -4.465851 -0.412071
H 150.852338 -2.602633 -0.488388
H 150.587660 2.649944 1.119055
H 148.612439 4.498666 1.145040
H 147.018301 0.842237 -0.226113
H 146.467246 5.174548 -2.047411
H 146.269266 8.739055 -2.054617
H 145.507210 9.408052 0.900046
H 145.097986 7.211491 3.023382
H 145.408863 5.173232 2.123695
H 143.348654 4.451059 -0.393662
H 141.594896 2.585885 -0.453862
C 154.064557 -0.008572 -0.006037
C 154.848990 -1.355244 0.287449
C 154.314453 -2.524695 0.792034
C 155.351870 -3.490197 0.814625
C 156.492254 -2.877742 0.336042
N 156.193008 -1.560641 0.086016
C 157.893664 -3.569758 0.095701
C 157.900973 -5.033409 -0.131863
C 158.227640 -5.914513 0.916399
C 158.235887 -7.292402 0.691504
O 158.565132 -8.153618 1.707208
C 157.914154 -7.789513 -0.571936
O 157.914718 -9.136130 -0.826284
C 157.588678 -6.911080 -1.612530
O 157.286786 -7.446860 -2.844084
C 157.577935 -5.535954 -1.403046
C 159.029396 -2.826865 0.026397
C 160.320722 -3.421872 -0.251405
C 161.227663 -2.453541 -0.291156
N 159.237271 -1.481354 0.157896
C 160.563588 -1.191852 -0.028706
C 161.232938 -0.008572 -0.006037
C 160.450338 1.338524 0.285616
C 160.984065 2.502320 0.806705
C 159.949274 3.471027 0.822953
C 158.810066 2.865091 0.326777
N 159.110943 1.552191 0.058009
C 157.403725 3.554759 0.099873
C 157.361566 5.034208 0.045751
C 157.638007 5.727155 -1.144244
C 157.576540 7.115177 -1.151131
O 157.834305 7.804938 -2.305072
C 157.248292 7.811367 0.010909
O 157.184925 9.180879 -0.019141
C 156.983027 7.128066 1.193133
O 156.664546 7.859055 2.308449
C 157.038337 5.741238 1.220052
C 156.271474 2.807059 0.004653
C 154.973709 3.405235 -0.244687
C 154.066503 2.436185 -0.281891
C 154.736619 1.172319 -0.047887
N 156.069023 1.457947 0.101515
H 153.286149 -2.678017 1.086644
H 155.269086 -4.522365 1.126090
H 156.864368 -0.846973 -0.185495
H 158.476781 -5.492641 1.889451
H 158.820631 -7.613525 2.478149
H 157.669362 -9.188654 -1.772639
H 157.106871 -6.689531 -3.434184
H 157.331576 -4.832543 -2.196782
H 160.523365 -4.465851 -0.412071
H 162.273638 -2.602633 -0.488388
H 162.008960 2.649944 1.119055
H 160.033740 4.498666 1.145040
H 158.439602 0.842237 -0.226113
H 157.888546 5.174548 -2.047411
H 157.690566 8.739055 -2.054617
H 156.928510 9.408052 0.900046
H 156.519287 7.211491 3.023382
H 156.830163 5.173232 2.123695
H 154.769954 4.451059 -0.393662
H 153.016196 2.585885 -0.453862
