 xtb: 6.5.1 (b24c23e)
          07302210263D

233262  0     0  0            999 V2000
   30.3746    0.0107   -0.0071 Zn  0  0  0  0  0  0  0  0  0  0  0  0
   26.9558    0.0732   -0.0155 C   0  0  0  0  0  0  0  0  0  0  0  0
   27.5970    1.2104    0.4625 C   0  0  0  0  0  0  0  0  0  0  0  0
   26.9387    2.3932    0.9451 C   0  0  0  0  0  0  0  0  0  0  0  0
   27.9096    3.2648    1.3176 C   0  0  0  0  0  0  0  0  0  0  0  0
   29.1730    2.6240    1.0664 C   0  0  0  0  0  0  0  0  0  0  0  0
   28.9486    1.3819    0.5490 N   0  0  0  0  0  0  0  0  0  0  0  0
   30.4275    3.1882    1.3145 C   0  0  0  0  0  0  0  0  0  0  0  0
   30.4478    4.5687    1.8822 C   0  0  0  0  0  0  0  0  0  0  0  0
   30.4572    5.6737    1.0260 C   0  0  0  0  0  0  0  0  0  0  0  0
   30.4554    5.4667   -0.4653 C   0  0  0  0  0  0  0  0  0  0  0  0
   30.4688    6.9553    1.5634 C   0  0  0  0  0  0  0  0  0  0  0  0
   30.4699    7.1525    2.9408 C   0  0  0  0  0  0  0  0  0  0  0  0
   30.4997    8.5461    3.5082 C   0  0  0  0  0  0  0  0  0  0  0  0
   30.4631    6.0461    3.7835 C   0  0  0  0  0  0  0  0  0  0  0  0
   30.4514    4.7554    3.2671 C   0  0  0  0  0  0  0  0  0  0  0  0
   30.4447    3.5619    4.1848 C   0  0  0  0  0  0  0  0  0  0  0  0
   31.6610    2.5796    1.0755 C   0  0  0  0  0  0  0  0  0  0  0  0
   32.9408    3.1782    1.3359 C   0  0  0  0  0  0  0  0  0  0  0  0
   33.8857    2.2756    0.9671 C   0  0  0  0  0  0  0  0  0  0  0  0
   31.8519    1.3270    0.5557 N   0  0  0  0  0  0  0  0  0  0  0  0
   33.1933    1.1180    0.4786 C   0  0  0  0  0  0  0  0  0  0  0  0
   33.8187   -0.0478   -0.0086 C   0  0  0  0  0  0  0  0  0  0  0  0
   33.1543   -1.1937   -0.4907 C   0  0  0  0  0  0  0  0  0  0  0  0
   33.8064   -2.3763   -0.9743 C   0  0  0  0  0  0  0  0  0  0  0  0
   32.8310   -3.2476   -1.3389 C   0  0  0  0  0  0  0  0  0  0  0  0
   31.5726   -2.6038   -1.0823 C   0  0  0  0  0  0  0  0  0  0  0  0
   31.8064   -1.3570   -0.5664 N   0  0  0  0  0  0  0  0  0  0  0  0
   30.3186   -3.1678   -1.3248 C   0  0  0  0  0  0  0  0  0  0  0  0
   30.2901   -4.5476   -1.8941 C   0  0  0  0  0  0  0  0  0  0  0  0
   30.3071   -4.7316   -3.2800 C   0  0  0  0  0  0  0  0  0  0  0  0
   30.3635   -3.5368   -4.1944 C   0  0  0  0  0  0  0  0  0  0  0  0
   30.2742   -6.0199   -3.7989 C   0  0  0  0  0  0  0  0  0  0  0  0
   30.2249   -7.1283   -2.9582 C   0  0  0  0  0  0  0  0  0  0  0  0
   30.1760   -8.5148   -3.5417 C   0  0  0  0  0  0  0  0  0  0  0  0
   30.2086   -6.9340   -1.5818 C   0  0  0  0  0  0  0  0  0  0  0  0
   30.2407   -5.6531   -1.0412 C   0  0  0  0  0  0  0  0  0  0  0  0
   30.2245   -5.4497    0.4505 C   0  0  0  0  0  0  0  0  0  0  0  0
   29.0844   -2.5578   -1.0833 C   0  0  0  0  0  0  0  0  0  0  0  0
   27.7998   -3.1517   -1.3423 C   0  0  0  0  0  0  0  0  0  0  0  0
   26.8595   -2.2447   -0.9761 C   0  0  0  0  0  0  0  0  0  0  0  0
   27.5578   -1.0868   -0.4894 C   0  0  0  0  0  0  0  0  0  0  0  0
   28.9027   -1.3081   -0.5675 N   0  0  0  0  0  0  0  0  0  0  0  0
   25.8703    0.0932   -0.0191 H   0  0  0  0  0  0  0  0  0  0  0  0
   25.8691    2.5276    0.9885 H   0  0  0  0  0  0  0  0  0  0  0  0
   27.7923    4.2556    1.7273 H   0  0  0  0  0  0  0  0  0  0  0  0
   29.5773    4.8927   -0.7674 H   0  0  0  0  0  0  0  0  0  0  0  0
   31.3412    4.9059   -0.7700 H   0  0  0  0  0  0  0  0  0  0  0  0
   30.4477    6.4208   -0.9916 H   0  0  0  0  0  0  0  0  0  0  0  0
   30.4746    7.8130    0.8986 H   0  0  0  0  0  0  0  0  0  0  0  0
   30.0768    8.5667    4.5128 H   0  0  0  0  0  0  0  0  0  0  0  0
   31.5308    8.9026    3.5653 H   0  0  0  0  0  0  0  0  0  0  0  0
   29.9389    9.2342    2.8749 H   0  0  0  0  0  0  0  0  0  0  0  0
   30.4642    6.1902    4.8591 H   0  0  0  0  0  0  0  0  0  0  0  0
   31.3451    2.9634    4.0322 H   0  0  0  0  0  0  0  0  0  0  0  0
   30.4051    3.8725    5.2285 H   0  0  0  0  0  0  0  0  0  0  0  0
   29.5824    2.9262    3.9749 H   0  0  0  0  0  0  0  0  0  0  0  0
   33.0882    4.1639    1.7478 H   0  0  0  0  0  0  0  0  0  0  0  0
   34.9582    2.3765    1.0177 H   0  0  0  0  0  0  0  0  0  0  0  0
   34.8750   -2.5144   -1.0235 H   0  0  0  0  0  0  0  0  0  0  0  0
   32.9445   -4.2402   -1.7452 H   0  0  0  0  0  0  0  0  0  0  0  0
   29.5314   -2.8611   -3.9881 H   0  0  0  0  0  0  0  0  0  0  0  0
   30.3160   -3.8426   -5.2392 H   0  0  0  0  0  0  0  0  0  0  0  0
   31.2906   -2.9826   -4.0344 H   0  0  0  0  0  0  0  0  0  0  0  0
   30.2872   -6.1635   -4.8745 H   0  0  0  0  0  0  0  0  0  0  0  0
   30.9345   -8.6314   -4.3172 H   0  0  0  0  0  0  0  0  0  0  0  0
   30.3418   -9.2688   -2.7723 H   0  0  0  0  0  0  0  0  0  0  0  0
   29.1996   -8.6954   -3.9965 H   0  0  0  0  0  0  0  0  0  0  0  0
   30.1706   -7.7916   -0.9180 H   0  0  0  0  0  0  0  0  0  0  0  0
   29.3617   -4.8473    0.7414 H   0  0  0  0  0  0  0  0  0  0  0  0
   31.1239   -4.9194    0.7697 H   0  0  0  0  0  0  0  0  0  0  0  0
   30.1770   -6.4041    0.9740 H   0  0  0  0  0  0  0  0  0  0  0  0
   27.6486   -4.1374   -1.7532 H   0  0  0  0  0  0  0  0  0  0  0  0
   25.7859   -2.3395   -1.0264 H   0  0  0  0  0  0  0  0  0  0  0  0
   62.5199   -0.0231   -0.0473 Zn  0  0  0  0  0  0  0  0  0  0  0  0
   65.9389   -0.0657   -0.0833 C   0  0  0  0  0  0  0  0  0  0  0  0
   65.2982   -1.2131   -0.5369 C   0  0  0  0  0  0  0  0  0  0  0  0
   65.9570   -2.3986   -1.0118 C   0  0  0  0  0  0  0  0  0  0  0  0
   64.9866   -3.2809   -1.3594 C   0  0  0  0  0  0  0  0  0  0  0  0
   63.7228   -2.6436   -1.1009 C   0  0  0  0  0  0  0  0  0  0  0  0
   63.9466   -1.3933   -0.6034 N   0  0  0  0  0  0  0  0  0  0  0  0
   62.4685   -3.2178   -1.3263 C   0  0  0  0  0  0  0  0  0  0  0  0
   62.4490   -4.6057   -1.8759 C   0  0  0  0  0  0  0  0  0  0  0  0
   62.4466   -4.8101   -3.2585 C   0  0  0  0  0  0  0  0  0  0  0  0
   62.4562   -3.6282   -4.1912 C   0  0  0  0  0  0  0  0  0  0  0  0
   62.4349   -6.1070   -3.7582 C   0  0  0  0  0  0  0  0  0  0  0  0
   62.4269   -7.2029   -2.9011 C   0  0  0  0  0  0  0  0  0  0  0  0
   62.3961   -8.6018   -3.4552 C   0  0  0  0  0  0  0  0  0  0  0  0
   62.4275   -6.9881   -1.5269 C   0  0  0  0  0  0  0  0  0  0  0  0
   62.4391   -5.6995   -1.0059 C   0  0  0  0  0  0  0  0  0  0  0  0
   62.4396   -5.4738    0.4827 C   0  0  0  0  0  0  0  0  0  0  0  0
   61.2346   -2.6120   -1.0821 C   0  0  0  0  0  0  0  0  0  0  0  0
   59.9551   -3.2189   -1.3240 C   0  0  0  0  0  0  0  0  0  0  0  0
   59.0098   -2.3152   -0.9591 C   0  0  0  0  0  0  0  0  0  0  0  0
   61.0431   -1.3539   -0.5761 N   0  0  0  0  0  0  0  0  0  0  0  0
   59.7016   -1.1490   -0.4906 C   0  0  0  0  0  0  0  0  0  0  0  0
   59.0758    0.0197   -0.0110 C   0  0  0  0  0  0  0  0  0  0  0  0
   59.7398    1.1712    0.4581 C   0  0  0  0  0  0  0  0  0  0  0  0
   59.0872    2.3519    0.9459 C   0  0  0  0  0  0  0  0  0  0  0  0
   60.0621    3.2314    1.2916 C   0  0  0  0  0  0  0  0  0  0  0  0
   61.3208    2.5951    1.0179 C   0  0  0  0  0  0  0  0  0  0  0  0
   61.0876    1.3433    0.5138 N   0  0  0  0  0  0  0  0  0  0  0  0
   62.5745    3.1707    1.2334 C   0  0  0  0  0  0  0  0  0  0  0  0
   62.6029    4.5562    1.7883 C   0  0  0  0  0  0  0  0  0  0  0  0
   62.5866    5.6552    0.9241 C   0  0  0  0  0  0  0  0  0  0  0  0
   62.5304    5.4378   -0.5646 C   0  0  0  0  0  0  0  0  0  0  0  0
   62.6209    6.9400    1.4515 C   0  0  0  0  0  0  0  0  0  0  0  0
   62.6711    7.1471    2.8272 C   0  0  0  0  0  0  0  0  0  0  0  0
   62.7209    8.5475    3.3764 C   0  0  0  0  0  0  0  0  0  0  0  0
   62.6863    6.0474    3.6774 C   0  0  0  0  0  0  0  0  0  0  0  0
   62.6526    4.7528    3.1707 C   0  0  0  0  0  0  0  0  0  0  0  0
   62.6682    3.5659    4.0969 C   0  0  0  0  0  0  0  0  0  0  0  0
   63.8090    2.5666    0.9785 C   0  0  0  0  0  0  0  0  0  0  0  0
   65.0933    3.1728    1.2087 C   0  0  0  0  0  0  0  0  0  0  0  0
   66.0341    2.2667    0.8418 C   0  0  0  0  0  0  0  0  0  0  0  0
   65.3364    1.0974    0.3824 C   0  0  0  0  0  0  0  0  0  0  0  0
   63.9913    1.3111    0.4771 N   0  0  0  0  0  0  0  0  0  0  0  0
   67.0244   -0.0793   -0.0941 H   0  0  0  0  0  0  0  0  0  0  0  0
   67.0268   -2.5275   -1.0673 H   0  0  0  0  0  0  0  0  0  0  0  0
   65.1043   -4.2767   -1.7566 H   0  0  0  0  0  0  0  0  0  0  0  0
   63.3329   -3.0049   -4.0046 H   0  0  0  0  0  0  0  0  0  0  0  0
   61.5691   -3.0125   -4.0301 H   0  0  0  0  0  0  0  0  0  0  0  0
   62.4723   -3.9523   -5.2314 H   0  0  0  0  0  0  0  0  0  0  0  0
   62.4345   -6.2654   -4.8318 H   0  0  0  0  0  0  0  0  0  0  0  0
   62.8452   -9.3073   -2.7558 H   0  0  0  0  0  0  0  0  0  0  0  0
   61.3626   -8.9091   -3.6318 H   0  0  0  0  0  0  0  0  0  0  0  0
   62.9316   -8.6555   -4.4035 H   0  0  0  0  0  0  0  0  0  0  0  0
   62.4214   -7.8369   -0.8507 H   0  0  0  0  0  0  0  0  0  0  0  0
   61.5411   -4.9306    0.7825 H   0  0  0  0  0  0  0  0  0  0  0  0
   62.4708   -6.4207    1.0209 H   0  0  0  0  0  0  0  0  0  0  0  0
   63.3042   -4.8751    0.7757 H   0  0  0  0  0  0  0  0  0  0  0  0
   59.8081   -4.2101   -1.7225 H   0  0  0  0  0  0  0  0  0  0  0  0
   57.9372   -2.4210   -0.9993 H   0  0  0  0  0  0  0  0  0  0  0  0
   58.0186    2.4824    1.0121 H   0  0  0  0  0  0  0  0  0  0  0  0
   59.9483    4.2242    1.6972 H   0  0  0  0  0  0  0  0  0  0  0  0
   63.3659    4.8148   -0.8892 H   0  0  0  0  0  0  0  0  0  0  0  0
   62.5721    6.3864   -1.0992 H   0  0  0  0  0  0  0  0  0  0  0  0
   61.6061    4.9239   -0.8364 H   0  0  0  0  0  0  0  0  0  0  0  0
   62.6090    7.7936    0.7815 H   0  0  0  0  0  0  0  0  0  0  0  0
   61.9449    9.1650    2.9217 H   0  0  0  0  0  0  0  0  0  0  0  0
   62.5817    8.5488    4.4574 H   0  0  0  0  0  0  0  0  0  0  0  0
   63.6876    9.0036    3.1525 H   0  0  0  0  0  0  0  0  0  0  0  0
   62.7248    6.1983    4.7512 H   0  0  0  0  0  0  0  0  0  0  0  0
   63.5288    2.9293    3.8826 H   0  0  0  0  0  0  0  0  0  0  0  0
   61.7669    2.9657    3.9575 H   0  0  0  0  0  0  0  0  0  0  0  0
   62.7190    3.8838    5.1378 H   0  0  0  0  0  0  0  0  0  0  0  0
   65.2440    4.1661    1.6011 H   0  0  0  0  0  0  0  0  0  0  0  0
   67.1076    2.3692    0.8746 H   0  0  0  0  0  0  0  0  0  0  0  0
   39.0225   -0.1004   -0.0225 C   0  0  0  0  0  0  0  0  0  0  0  0
   37.7944   -0.0913   -0.0212 C   0  0  0  0  0  0  0  0  0  0  0  0
   36.4488   -0.0816   -0.0207 C   0  0  0  0  0  0  0  0  0  0  0  0
   35.2251   -0.0668   -0.0152 C   0  0  0  0  0  0  0  0  0  0  0  0
   40.3680   -0.1015   -0.0220 C   0  0  0  0  0  0  0  0  0  0  0  0
   41.5918   -0.0962   -0.0079 C   0  0  0  0  0  0  0  0  0  0  0  0
   55.1000    0.0460    0.0072 C   0  0  0  0  0  0  0  0  0  0  0  0
   53.8719    0.0426   -0.0005 C   0  0  0  0  0  0  0  0  0  0  0  0
   52.5263    0.0368   -0.0008 C   0  0  0  0  0  0  0  0  0  0  0  0
   51.3025    0.0212    0.0029 C   0  0  0  0  0  0  0  0  0  0  0  0
   56.4456    0.0451    0.0061 C   0  0  0  0  0  0  0  0  0  0  0  0
   57.6693    0.0368   -0.0019 C   0  0  0  0  0  0  0  0  0  0  0  0
   46.4474   -0.0430   -0.0017 Zn  0  0  0  0  0  0  0  0  0  0  0  0
   42.9978   -0.0878   -0.0050 C   0  0  0  0  0  0  0  0  0  0  0  0
   43.6410    0.0782    1.2384 C   0  0  0  0  0  0  0  0  0  0  0  0
   42.9665    0.2262    2.4951 C   0  0  0  0  0  0  0  0  0  0  0  0
   43.9253    0.3539    3.4484 C   0  0  0  0  0  0  0  0  0  0  0  0
   45.1948    0.2858    2.7806 C   0  0  0  0  0  0  0  0  0  0  0  0
   44.9855    0.1181    1.4380 N   0  0  0  0  0  0  0  0  0  0  0  0
   46.4383    0.3766    3.4097 C   0  0  0  0  0  0  0  0  0  0  0  0
   46.4344    0.5518    4.8923 C   0  0  0  0  0  0  0  0  0  0  0  0
   46.4237    1.8353    5.4445 C   0  0  0  0  0  0  0  0  0  0  0  0
   46.4183    3.0404    4.5419 C   0  0  0  0  0  0  0  0  0  0  0  0
   46.4172    1.9854    6.8267 C   0  0  0  0  0  0  0  0  0  0  0  0
   46.4204    0.8762    7.6655 C   0  0  0  0  0  0  0  0  0  0  0  0
   46.4313    1.0464    9.1608 C   0  0  0  0  0  0  0  0  0  0  0  0
   46.4329   -0.3974    7.1050 C   0  0  0  0  0  0  0  0  0  0  0  0
   46.4394   -0.5703    5.7262 C   0  0  0  0  0  0  0  0  0  0  0  0
   46.4505   -1.9508    5.1255 C   0  0  0  0  0  0  0  0  0  0  0  0
   47.6851    0.3163    2.7833 C   0  0  0  0  0  0  0  0  0  0  0  0
   48.9511    0.4120    3.4543 C   0  0  0  0  0  0  0  0  0  0  0  0
   49.9148    0.3098    2.5030 C   0  0  0  0  0  0  0  0  0  0  0  0
   47.9013    0.1576    1.4407 N   0  0  0  0  0  0  0  0  0  0  0  0
   49.2469    0.1501    1.2442 C   0  0  0  0  0  0  0  0  0  0  0  0
   49.8965    0.0039    0.0017 C   0  0  0  0  0  0  0  0  0  0  0  0
   49.2535   -0.1596   -1.2422 C   0  0  0  0  0  0  0  0  0  0  0  0
   49.9277   -0.3032   -2.4996 C   0  0  0  0  0  0  0  0  0  0  0  0
   48.9687   -0.4316   -3.4526 C   0  0  0  0  0  0  0  0  0  0  0  0
   47.6994   -0.3687   -2.7840 C   0  0  0  0  0  0  0  0  0  0  0  0
   47.9089   -0.2025   -1.4413 N   0  0  0  0  0  0  0  0  0  0  0  0
   46.4560   -0.4642   -3.4125 C   0  0  0  0  0  0  0  0  0  0  0  0
   46.4595   -0.6387   -4.8951 C   0  0  0  0  0  0  0  0  0  0  0  0
   46.4163    0.4829   -5.7284 C   0  0  0  0  0  0  0  0  0  0  0  0
   46.3659    1.8625   -5.1276 C   0  0  0  0  0  0  0  0  0  0  0  0
   46.4187    0.3104   -7.1074 C   0  0  0  0  0  0  0  0  0  0  0  0
   46.4624   -0.9621   -7.6684 C   0  0  0  0  0  0  0  0  0  0  0  0
   46.4837   -1.1317   -9.1636 C   0  0  0  0  0  0  0  0  0  0  0  0
   46.5059   -2.0709   -6.8300 C   0  0  0  0  0  0  0  0  0  0  0  0
   46.5044   -1.9213   -5.4478 C   0  0  0  0  0  0  0  0  0  0  0  0
   46.5494   -3.1257   -4.5455 C   0  0  0  0  0  0  0  0  0  0  0  0
   45.2093   -0.4093   -2.7854 C   0  0  0  0  0  0  0  0  0  0  0  0
   43.9436   -0.5152   -3.4553 C   0  0  0  0  0  0  0  0  0  0  0  0
   42.9797   -0.4114   -2.5043 C   0  0  0  0  0  0  0  0  0  0  0  0
   43.6474   -0.2416   -1.2467 C   0  0  0  0  0  0  0  0  0  0  0  0
   44.9929   -0.2455   -1.4435 N   0  0  0  0  0  0  0  0  0  0  0  0
   41.8956    0.2294    2.6231 H   0  0  0  0  0  0  0  0  0  0  0  0
   43.7929    0.4831    4.5108 H   0  0  0  0  0  0  0  0  0  0  0  0
   47.3069    3.0418    3.9075 H   0  0  0  0  0  0  0  0  0  0  0  0
   46.4020    3.9623    5.1224 H   0  0  0  0  0  0  0  0  0  0  0  0
   45.5430    3.0213    3.8897 H   0  0  0  0  0  0  0  0  0  0  0  0
   46.4076    2.9825    7.2546 H   0  0  0  0  0  0  0  0  0  0  0  0
   47.4541    0.9688    9.5368 H   0  0  0  0  0  0  0  0  0  0  0  0
   45.8349    0.2709    9.6427 H   0  0  0  0  0  0  0  0  0  0  0  0
   46.0371    2.0222    9.4450 H   0  0  0  0  0  0  0  0  0  0  0  0
   46.4356   -1.2683    7.7523 H   0  0  0  0  0  0  0  0  0  0  0  0
   45.5673   -2.0990    4.5010 H   0  0  0  0  0  0  0  0  0  0  0  0
   47.3312   -2.0818    4.4939 H   0  0  0  0  0  0  0  0  0  0  0  0
   46.4609   -2.7142    5.9029 H   0  0  0  0  0  0  0  0  0  0  0  0
   49.0778    0.5403    4.5175 H   0  0  0  0  0  0  0  0  0  0  0  0
   50.9850    0.3379    2.6335 H   0  0  0  0  0  0  0  0  0  0  0  0
   50.9985   -0.3038   -2.6283 H   0  0  0  0  0  0  0  0  0  0  0  0
   49.1009   -0.5578   -4.5154 H   0  0  0  0  0  0  0  0  0  0  0  0
   45.4695    1.9757   -4.5148 H   0  0  0  0  0  0  0  0  0  0  0  0
   46.3563    2.6261   -5.9048 H   0  0  0  0  0  0  0  0  0  0  0  0
   47.2325    2.0275   -4.4845 H   0  0  0  0  0  0  0  0  0  0  0  0
   46.3843    1.1810   -7.7543 H   0  0  0  0  0  0  0  0  0  0  0  0
   46.1136   -2.1165   -9.4494 H   0  0  0  0  0  0  0  0  0  0  0  0
   47.5063   -1.0308   -9.5348 H   0  0  0  0  0  0  0  0  0  0  0  0
   45.8719   -0.3703   -9.6484 H   0  0  0  0  0  0  0  0  0  0  0  0
   46.5396   -3.0673   -7.2584 H   0  0  0  0  0  0  0  0  0  0  0  0
   46.5619   -4.0477   -5.1260 H   0  0  0  0  0  0  0  0  0  0  0  0
   45.6791   -3.1380   -3.8865 H   0  0  0  0  0  0  0  0  0  0  0  0
   47.4424   -3.0951   -3.9181 H   0  0  0  0  0  0  0  0  0  0  0  0
   43.8169   -0.6521   -4.5174 H   0  0  0  0  0  0  0  0  0  0  0  0
   41.9097   -0.4460   -2.6343 H   0  0  0  0  0  0  0  0  0  0  0  0
  2  3  4  0  0  0  0
  3  4  1  0  0  0  0
  4  5  2  0  0  0  0
  5  6  4  0  0  0  0
  1  7  1  0  0  0  0
  3  7  4  0  0  0  0
  6  7  4  0  0  0  0
  6  8  4  0  0  0  0
  8  9  1  0  0  0  0
  9 10  4  0  0  0  0
 10 11  1  0  0  0  0
 10 12  4  0  0  0  0
 12 13  4  0  0  0  0
 13 14  1  0  0  0  0
 13 15  4  0  0  0  0
  9 16  4  0  0  0  0
 15 16  4  0  0  0  0
 16 17  1  0  0  0  0
  8 18  4  0  0  0  0
 18 19  4  0  0  0  0
 19 20  2  0  0  0  0
  1 21  1  0  0  0  0
 18 21  4  0  0  0  0
 20 22  4  0  0  0  0
 21 22  4  0  0  0  0
 22 23  4  0  0  0  0
 23 24  4  0  0  0  0
 24 25  4  0  0  0  0
 25 26  2  0  0  0  0
 26 27  4  0  0  0  0
  1 28  1  0  0  0  0
 24 28  4  0  0  0  0
 27 28  4  0  0  0  0
 27 29  4  0  0  0  0
 29 30  1  0  0  0  0
 30 31  4  0  0  0  0
 31 32  1  0  0  0  0
 31 33  4  0  0  0  0
 33 34  4  0  0  0  0
 34 35  1  0  0  0  0
 34 36  4  0  0  0  0
 30 37  4  0  0  0  0
 36 37  4  0  0  0  0
 37 38  1  0  0  0  0
 29 39  4  0  0  0  0
 39 40  4  0  0  0  0
 40 41  2  0  0  0  0
  2 42  4  0  0  0  0
 41 42  1  0  0  0  0
  1 43  1  0  0  0  0
 39 43  4  0  0  0  0
 42 43  4  0  0  0  0
  2 44  1  0  0  0  0
  4 45  1  0  0  0  0
  5 46  1  0  0  0  0
 11 47  1  0  0  0  0
 11 48  1  0  0  0  0
 11 49  1  0  0  0  0
 12 50  1  0  0  0  0
 14 51  1  0  0  0  0
 14 52  1  0  0  0  0
 14 53  1  0  0  0  0
 15 54  1  0  0  0  0
 17 55  1  0  0  0  0
 17 56  1  0  0  0  0
 17 57  1  0  0  0  0
 19 58  1  0  0  0  0
 20 59  1  0  0  0  0
 25 60  1  0  0  0  0
 26 61  1  0  0  0  0
 32 62  1  0  0  0  0
 32 63  1  0  0  0  0
 32 64  1  0  0  0  0
 33 65  1  0  0  0  0
 35 66  1  0  0  0  0
 35 67  1  0  0  0  0
 35 68  1  0  0  0  0
 36 69  1  0  0  0  0
 38 70  1  0  0  0  0
 38 71  1  0  0  0  0
 38 72  1  0  0  0  0
 40 73  1  0  0  0  0
 41 74  1  0  0  0  0
 76 77  4  0  0  0  0
 77 78  1  0  0  0  0
 78 79  2  0  0  0  0
 79 80  4  0  0  0  0
 75 81  1  0  0  0  0
 77 81  4  0  0  0  0
 80 81  4  0  0  0  0
 80 82  4  0  0  0  0
 82 83  1  0  0  0  0
 83 84  4  0  0  0  0
 84 85  1  0  0  0  0
 84 86  4  0  0  0  0
 86 87  4  0  0  0  0
 87 88  1  0  0  0  0
 87 89  4  0  0  0  0
 83 90  4  0  0  0  0
 89 90  4  0  0  0  0
 90 91  1  0  0  0  0
 82 92  4  0  0  0  0
 92 93  4  0  0  0  0
 93 94  2  0  0  0  0
 75 95  1  0  0  0  0
 92 95  4  0  0  0  0
 94 96  4  0  0  0  0
 95 96  4  0  0  0  0
 96 97  4  0  0  0  0
 97 98  4  0  0  0  0
 98 99  4  0  0  0  0
 99100  2  0  0  0  0
100101  4  0  0  0  0
 75102  1  0  0  0  0
 98102  4  0  0  0  0
101102  4  0  0  0  0
101103  4  0  0  0  0
103104  1  0  0  0  0
104105  4  0  0  0  0
105106  1  0  0  0  0
105107  4  0  0  0  0
107108  4  0  0  0  0
108109  1  0  0  0  0
108110  4  0  0  0  0
104111  4  0  0  0  0
110111  4  0  0  0  0
111112  1  0  0  0  0
103113  4  0  0  0  0
113114  4  0  0  0  0
114115  2  0  0  0  0
 76116  4  0  0  0  0
115116  1  0  0  0  0
 75117  1  0  0  0  0
113117  4  0  0  0  0
116117  4  0  0  0  0
 76118  1  0  0  0  0
 78119  1  0  0  0  0
 79120  1  0  0  0  0
 85121  1  0  0  0  0
 85122  1  0  0  0  0
 85123  1  0  0  0  0
 86124  1  0  0  0  0
 88125  1  0  0  0  0
 88126  1  0  0  0  0
 88127  1  0  0  0  0
 89128  1  0  0  0  0
 91129  1  0  0  0  0
 91130  1  0  0  0  0
 91131  1  0  0  0  0
 93132  1  0  0  0  0
 94133  1  0  0  0  0
 99134  1  0  0  0  0
100135  1  0  0  0  0
106136  1  0  0  0  0
106137  1  0  0  0  0
106138  1  0  0  0  0
107139  1  0  0  0  0
109140  1  0  0  0  0
109141  1  0  0  0  0
109142  1  0  0  0  0
110143  1  0  0  0  0
112144  1  0  0  0  0
112145  1  0  0  0  0
112146  1  0  0  0  0
114147  1  0  0  0  0
115148  1  0  0  0  0
149150  3  0  0  0  0
150151  4  0  0  0  0
 23152  4  0  0  0  0
151152  3  0  0  0  0
149153  4  0  0  0  0
153154  3  0  0  0  0
155156  3  0  0  0  0
156157  4  0  0  0  0
157158  3  0  0  0  0
155159  4  0  0  0  0
 97160  4  0  0  0  0
159160  3  0  0  0  0
154162  4  0  0  0  0
162163  4  0  0  0  0
163164  4  0  0  0  0
164165  2  0  0  0  0
165166  4  0  0  0  0
161167  1  0  0  0  0
163167  4  0  0  0  0
166167  4  0  0  0  0
166168  4  0  0  0  0
168169  1  0  0  0  0
169170  4  0  0  0  0
170171  1  0  0  0  0
170172  4  0  0  0  0
172173  4  0  0  0  0
173174  1  0  0  0  0
173175  4  0  0  0  0
169176  4  0  0  0  0
175176  4  0  0  0  0
176177  1  0  0  0  0
168178  4  0  0  0  0
178179  4  0  0  0  0
179180  2  0  0  0  0
161181  1  0  0  0  0
178181  4  0  0  0  0
180182  4  0  0  0  0
181182  4  0  0  0  0
158183  4  0  0  0  0
182183  4  0  0  0  0
183184  4  0  0  0  0
184185  4  0  0  0  0
185186  2  0  0  0  0
186187  4  0  0  0  0
161188  1  0  0  0  0
184188  4  0  0  0  0
187188  4  0  0  0  0
187189  4  0  0  0  0
189190  1  0  0  0  0
190191  4  0  0  0  0
191192  1  0  0  0  0
191193  4  0  0  0  0
193194  4  0  0  0  0
194195  1  0  0  0  0
194196  4  0  0  0  0
190197  4  0  0  0  0
196197  4  0  0  0  0
197198  1  0  0  0  0
189199  4  0  0  0  0
199200  4  0  0  0  0
200201  2  0  0  0  0
162202  4  0  0  0  0
201202  4  0  0  0  0
161203  1  0  0  0  0
199203  4  0  0  0  0
202203  4  0  0  0  0
164204  1  0  0  0  0
165205  1  0  0  0  0
171206  1  0  0  0  0
171207  1  0  0  0  0
171208  1  0  0  0  0
172209  1  0  0  0  0
174210  1  0  0  0  0
174211  1  0  0  0  0
174212  1  0  0  0  0
175213  1  0  0  0  0
177214  1  0  0  0  0
177215  1  0  0  0  0
177216  1  0  0  0  0
179217  1  0  0  0  0
180218  1  0  0  0  0
185219  1  0  0  0  0
186220  1  0  0  0  0
192221  1  0  0  0  0
192222  1  0  0  0  0
192223  1  0  0  0  0
193224  1  0  0  0  0
195225  1  0  0  0  0
195226  1  0  0  0  0
195227  1  0  0  0  0
196228  1  0  0  0  0
198229  1  0  0  0  0
198230  1  0  0  0  0
198231  1  0  0  0  0
200232  1  0  0  0  0
201233  1  0  0  0  0
M  END
