 xtb: 6.5.1 (b24c23e)
          07302205033D

282321  0     0  0            999 V2000
   46.4778    0.0885   -0.3355 Ni  0  0  0  0  0  0  0  0  0  0  0  0
   43.1661    0.2988   -1.0185 C   0  0  0  0  0  0  0  0  0  0  0  0
   43.7879    1.4112   -0.4892 C   0  0  0  0  0  0  0  0  0  0  0  0
   43.0964    2.6183   -0.1538 C   0  0  0  0  0  0  0  0  0  0  0  0
   44.0104    3.4478    0.4024 C   0  0  0  0  0  0  0  0  0  0  0  0
   45.2697    2.7637    0.3647 C   0  0  0  0  0  0  0  0  0  0  0  0
   45.1160    1.5035   -0.1585 N   0  0  0  0  0  0  0  0  0  0  0  0
   46.4768    3.3365    0.7431 C   0  0  0  0  0  0  0  0  0  0  0  0
   47.6936    2.6843    0.5923 C   0  0  0  0  0  0  0  0  0  0  0  0
   48.9607    3.3184    0.7947 C   0  0  0  0  0  0  0  0  0  0  0  0
   49.9108    2.4033    0.4853 C   0  0  0  0  0  0  0  0  0  0  0  0
   47.8683    1.3870    0.1672 N   0  0  0  0  0  0  0  0  0  0  0  0
   49.2232    1.2061    0.1194 C   0  0  0  0  0  0  0  0  0  0  0  0
   49.8783    0.0020   -0.1550 C   0  0  0  0  0  0  0  0  0  0  0  0
   49.1899   -1.1960   -0.3683 C   0  0  0  0  0  0  0  0  0  0  0  0
   49.8412   -2.4610   -0.4909 C   0  0  0  0  0  0  0  0  0  0  0  0
   48.8650   -3.3881   -0.6432 C   0  0  0  0  0  0  0  0  0  0  0  0
   47.6194   -2.6825   -0.6389 C   0  0  0  0  0  0  0  0  0  0  0  0
   46.3979   -3.2839   -0.9108 C   0  0  0  0  0  0  0  0  0  0  0  0
   46.3630   -4.7564   -1.0954 C   0  0  0  0  0  0  0  0  0  0  0  0
   46.0592   -5.3075   -2.3374 C   0  0  0  0  0  0  0  0  0  0  0  0
   46.0302   -6.6892   -2.5093 C   0  0  0  0  0  0  0  0  0  0  0  0
   45.6930   -7.2697   -3.8563 C   0  0  0  0  0  0  0  0  0  0  0  0
   46.3043   -7.5158   -1.4263 C   0  0  0  0  0  0  0  0  0  0  0  0
   46.6131   -6.9786   -0.1781 C   0  0  0  0  0  0  0  0  0  0  0  0
   46.9092   -7.8939    0.9791 C   0  0  0  0  0  0  0  0  0  0  0  0
   46.6440   -5.5989   -0.0194 C   0  0  0  0  0  0  0  0  0  0  0  0
   45.2252   -2.5574   -1.0724 C   0  0  0  0  0  0  0  0  0  0  0  0
   43.9727   -3.1322   -1.4674 C   0  0  0  0  0  0  0  0  0  0  0  0
   43.0846   -2.1147   -1.5585 C   0  0  0  0  0  0  0  0  0  0  0  0
   43.7828   -0.9252   -1.1770 C   0  0  0  0  0  0  0  0  0  0  0  0
   45.0958   -1.2028   -0.8905 N   0  0  0  0  0  0  0  0  0  0  0  0
   47.8326   -1.3345   -0.4573 N   0  0  0  0  0  0  0  0  0  0  0  0
   46.4830    4.7246    1.2681 C   0  0  0  0  0  0  0  0  0  0  0  0
   46.0763    5.7876    0.4627 C   0  0  0  0  0  0  0  0  0  0  0  0
   46.0868    7.0885    0.9535 C   0  0  0  0  0  0  0  0  0  0  0  0
   45.6714    8.2377    0.0751 C   0  0  0  0  0  0  0  0  0  0  0  0
   46.5071    7.3214    2.2600 C   0  0  0  0  0  0  0  0  0  0  0  0
   46.9194    6.2714    3.0743 C   0  0  0  0  0  0  0  0  0  0  0  0
   47.3543    6.5307    4.4914 C   0  0  0  0  0  0  0  0  0  0  0  0
   46.9075    4.9741    2.5717 C   0  0  0  0  0  0  0  0  0  0  0  0
   42.1123    0.3723   -1.2611 H   0  0  0  0  0  0  0  0  0  0  0  0
   42.0420    2.7822   -0.3100 H   0  0  0  0  0  0  0  0  0  0  0  0
   43.8588    4.4380    0.8003 H   0  0  0  0  0  0  0  0  0  0  0  0
   49.0940    4.3397    1.1121 H   0  0  0  0  0  0  0  0  0  0  0  0
   50.9833    2.5101    0.5106 H   0  0  0  0  0  0  0  0  0  0  0  0
   50.9089   -2.6060   -0.4546 H   0  0  0  0  0  0  0  0  0  0  0  0
   48.9686   -4.4531   -0.7729 H   0  0  0  0  0  0  0  0  0  0  0  0
   45.8621   -4.6534   -3.1797 H   0  0  0  0  0  0  0  0  0  0  0  0
   45.9011   -8.3391   -3.8845 H   0  0  0  0  0  0  0  0  0  0  0  0
   44.6335   -7.1186   -4.0740 H   0  0  0  0  0  0  0  0  0  0  0  0
   46.2705   -6.7782   -4.6405 H   0  0  0  0  0  0  0  0  0  0  0  0
   46.2815   -8.5934   -1.5526 H   0  0  0  0  0  0  0  0  0  0  0  0
   47.1426   -7.3248    1.8787 H   0  0  0  0  0  0  0  0  0  0  0  0
   46.0492   -8.5338    1.1847 H   0  0  0  0  0  0  0  0  0  0  0  0
   47.7583   -8.5383    0.7439 H   0  0  0  0  0  0  0  0  0  0  0  0
   46.8753   -5.1665    0.9479 H   0  0  0  0  0  0  0  0  0  0  0  0
   43.8065   -4.1813   -1.6505 H   0  0  0  0  0  0  0  0  0  0  0  0
   42.0416   -2.1504   -1.8306 H   0  0  0  0  0  0  0  0  0  0  0  0
   45.7668    5.5952   -0.5587 H   0  0  0  0  0  0  0  0  0  0  0  0
   45.1512    9.0001    0.6558 H   0  0  0  0  0  0  0  0  0  0  0  0
   45.0174    7.8978   -0.7280 H   0  0  0  0  0  0  0  0  0  0  0  0
   46.5536    8.6986   -0.3751 H   0  0  0  0  0  0  0  0  0  0  0  0
   46.5156    8.3353    2.6467 H   0  0  0  0  0  0  0  0  0  0  0  0
   46.5026    6.4219    5.1669 H   0  0  0  0  0  0  0  0  0  0  0  0
   47.7459    7.5424    4.5989 H   0  0  0  0  0  0  0  0  0  0  0  0
   48.1221    5.8199    4.7976 H   0  0  0  0  0  0  0  0  0  0  0  0
   47.2182    4.1457    3.1989 H   0  0  0  0  0  0  0  0  0  0  0  0
   86.7435    0.2534   -0.2175 Ni  0  0  0  0  0  0  0  0  0  0  0  0
   90.0477    0.8729   -0.6329 C   0  0  0  0  0  0  0  0  0  0  0  0
   89.4212    0.0646   -1.5589 C   0  0  0  0  0  0  0  0  0  0  0  0
   90.1076   -0.5739   -2.6402 C   0  0  0  0  0  0  0  0  0  0  0  0
   89.2019   -1.3647   -3.2621 C   0  0  0  0  0  0  0  0  0  0  0  0
   87.9505   -1.1727   -2.5891 C   0  0  0  0  0  0  0  0  0  0  0  0
   88.1013   -0.3089   -1.5325 N   0  0  0  0  0  0  0  0  0  0  0  0
   86.7542   -1.7511   -2.9925 C   0  0  0  0  0  0  0  0  0  0  0  0
   85.5396   -1.4558   -2.3868 C   0  0  0  0  0  0  0  0  0  0  0  0
   84.2756   -1.8906   -2.8999 C   0  0  0  0  0  0  0  0  0  0  0  0
   83.3215   -1.3306   -2.1183 C   0  0  0  0  0  0  0  0  0  0  0  0
   85.3592   -0.6453   -1.2897 N   0  0  0  0  0  0  0  0  0  0  0  0
   84.0037   -0.5757   -1.1157 C   0  0  0  0  0  0  0  0  0  0  0  0
   83.3456    0.0832   -0.0752 C   0  0  0  0  0  0  0  0  0  0  0  0
   84.0276    0.6960    0.9780 C   0  0  0  0  0  0  0  0  0  0  0  0
   83.3705    1.2371    2.1252 C   0  0  0  0  0  0  0  0  0  0  0  0
   84.3436    1.6609    2.9669 C   0  0  0  0  0  0  0  0  0  0  0  0
   85.5939    1.4007    2.3197 C   0  0  0  0  0  0  0  0  0  0  0  0
   86.8208    1.7969    2.8367 C   0  0  0  0  0  0  0  0  0  0  0  0
   86.8518    2.3974    4.1934 C   0  0  0  0  0  0  0  0  0  0  0  0
   87.2310    3.7248    4.3758 C   0  0  0  0  0  0  0  0  0  0  0  0
   87.2592    4.2830    5.6515 C   0  0  0  0  0  0  0  0  0  0  0  0
   87.6807    5.7164    5.8320 C   0  0  0  0  0  0  0  0  0  0  0  0
   86.9033    3.5022    6.7445 C   0  0  0  0  0  0  0  0  0  0  0  0
   86.5154    2.1741    6.5771 C   0  0  0  0  0  0  0  0  0  0  0  0
   86.1276    1.3500    7.7751 C   0  0  0  0  0  0  0  0  0  0  0  0
   86.4903    1.6281    5.3002 C   0  0  0  0  0  0  0  0  0  0  0  0
   88.0022    1.7030    2.1125 C   0  0  0  0  0  0  0  0  0  0  0  0
   89.2644    2.2107    2.5650 C   0  0  0  0  0  0  0  0  0  0  0  0
   90.1502    2.0134    1.5607 C   0  0  0  0  0  0  0  0  0  0  0  0
   89.4416    1.3418    0.5145 C   0  0  0  0  0  0  0  0  0  0  0  0
   88.1268    1.1556    0.8593 N   0  0  0  0  0  0  0  0  0  0  0  0
   85.3864    0.8068    1.0960 N   0  0  0  0  0  0  0  0  0  0  0  0
   86.7538   -2.6710   -4.1569 C   0  0  0  0  0  0  0  0  0  0  0  0
   87.1184   -2.2128   -5.4221 C   0  0  0  0  0  0  0  0  0  0  0  0
   87.1138   -3.0750   -6.5132 C   0  0  0  0  0  0  0  0  0  0  0  0
   87.4857   -2.5719   -7.8819 C   0  0  0  0  0  0  0  0  0  0  0  0
   86.7393   -4.4032   -6.3315 C   0  0  0  0  0  0  0  0  0  0  0  0
   86.3678   -4.8739   -5.0759 C   0  0  0  0  0  0  0  0  0  0  0  0
   85.9807   -6.3158   -4.8870 C   0  0  0  0  0  0  0  0  0  0  0  0
   86.3760   -4.0024   -3.9917 C   0  0  0  0  0  0  0  0  0  0  0  0
   91.0989    1.0933   -0.7788 H   0  0  0  0  0  0  0  0  0  0  0  0
   91.1547   -0.4419   -2.8622 H   0  0  0  0  0  0  0  0  0  0  0  0
   89.3550   -2.0202   -4.1038 H   0  0  0  0  0  0  0  0  0  0  0  0
   84.1462   -2.5235   -3.7626 H   0  0  0  0  0  0  0  0  0  0  0  0
   82.2498   -1.4193   -2.1948 H   0  0  0  0  0  0  0  0  0  0  0  0
   82.3013    1.2704    2.2591 H   0  0  0  0  0  0  0  0  0  0  0  0
   84.2354    2.1305    3.9309 H   0  0  0  0  0  0  0  0  0  0  0  0
   87.4884    4.3317    3.5147 H   0  0  0  0  0  0  0  0  0  0  0  0
   87.5236    6.0441    6.8594 H   0  0  0  0  0  0  0  0  0  0  0  0
   88.7399    5.8287    5.5912 H   0  0  0  0  0  0  0  0  0  0  0  0
   87.1140    6.3681    5.1652 H   0  0  0  0  0  0  0  0  0  0  0  0
   86.9237    3.9304    7.7414 H   0  0  0  0  0  0  0  0  0  0  0  0
   85.8496    0.3382    7.4810 H   0  0  0  0  0  0  0  0  0  0  0  0
   86.9587    1.2925    8.4804 H   0  0  0  0  0  0  0  0  0  0  0  0
   85.2813    1.8082    8.2903 H   0  0  0  0  0  0  0  0  0  0  0  0
   86.2008    0.5930    5.1559 H   0  0  0  0  0  0  0  0  0  0  0  0
   89.4384    2.6617    3.5283 H   0  0  0  0  0  0  0  0  0  0  0  0
   91.1977    2.2676    1.5240 H   0  0  0  0  0  0  0  0  0  0  0  0
   87.3899   -1.1713   -5.5550 H   0  0  0  0  0  0  0  0  0  0  0  0
   87.9865   -3.3506   -8.4578 H   0  0  0  0  0  0  0  0  0  0  0  0
   88.1433   -1.7052   -7.8127 H   0  0  0  0  0  0  0  0  0  0  0  0
   86.5859   -2.2744   -8.4252 H   0  0  0  0  0  0  0  0  0  0  0  0
   86.7344   -5.0791   -7.1805 H   0  0  0  0  0  0  0  0  0  0  0  0
   86.8622   -6.9061   -4.6269 H   0  0  0  0  0  0  0  0  0  0  0  0
   85.5551   -6.7267   -5.8027 H   0  0  0  0  0  0  0  0  0  0  0  0
   85.2535   -6.4198   -4.0814 H   0  0  0  0  0  0  0  0  0  0  0  0
   86.0984   -4.3592   -3.0059 H   0  0  0  0  0  0  0  0  0  0  0  0
   52.5053   -0.0273   -0.1472 C   0  0  0  0  0  0  0  0  0  0  0  0
   51.2836   -0.0171   -0.1495 C   0  0  0  0  0  0  0  0  0  0  0  0
   53.8555   -0.0363   -0.1375 C   0  0  0  0  0  0  0  0  0  0  0  0
   55.0772   -0.0396   -0.1238 C   0  0  0  0  0  0  0  0  0  0  0  0
   65.9303   -0.0541    0.0150 C   0  0  0  0  0  0  0  0  0  0  0  0
   64.7086   -0.0470    0.0046 C   0  0  0  0  0  0  0  0  0  0  0  0
   67.2808   -0.0570    0.0231 C   0  0  0  0  0  0  0  0  0  0  0  0
   68.5026   -0.0593    0.0256 C   0  0  0  0  0  0  0  0  0  0  0  0
   79.3633    0.0301   -0.0253 C   0  0  0  0  0  0  0  0  0  0  0  0
   78.1429    0.0082   -0.0168 C   0  0  0  0  0  0  0  0  0  0  0  0
   80.7162    0.0524   -0.0407 C   0  0  0  0  0  0  0  0  0  0  0  0
   81.9366    0.0680   -0.0525 C   0  0  0  0  0  0  0  0  0  0  0  0
   59.8927   -0.0426   -0.0613 Ni  0  0  0  0  0  0  0  0  0  0  0  0
   56.4817   -0.0409   -0.1065 C   0  0  0  0  0  0  0  0  0  0  0  0
   57.1559    1.1799   -0.0023 C   0  0  0  0  0  0  0  0  0  0  0  0
   56.4936    2.4375    0.1323 C   0  0  0  0  0  0  0  0  0  0  0  0
   57.4513    3.3929    0.0431 C   0  0  0  0  0  0  0  0  0  0  0  0
   58.6952    2.7142   -0.1560 C   0  0  0  0  0  0  0  0  0  0  0  0
   58.5069    1.3510   -0.1300 N   0  0  0  0  0  0  0  0  0  0  0  0
   59.8980    3.3546   -0.4272 C   0  0  0  0  0  0  0  0  0  0  0  0
   61.1002    2.6692   -0.5472 C   0  0  0  0  0  0  0  0  0  0  0  0
   62.3479    3.2871   -0.8772 C   0  0  0  0  0  0  0  0  0  0  0  0
   63.3028    2.3330   -0.7522 C   0  0  0  0  0  0  0  0  0  0  0  0
   61.2840    1.3312   -0.2797 N   0  0  0  0  0  0  0  0  0  0  0  0
   62.6349    1.1336   -0.3600 C   0  0  0  0  0  0  0  0  0  0  0  0
   63.3037   -0.0443   -0.0121 C   0  0  0  0  0  0  0  0  0  0  0  0
   62.6237   -1.2214    0.3163 C   0  0  0  0  0  0  0  0  0  0  0  0
   63.2789   -2.4223    0.7251 C   0  0  0  0  0  0  0  0  0  0  0  0
   62.3201   -3.3761    0.8190 C   0  0  0  0  0  0  0  0  0  0  0  0
   61.0832   -2.7563    0.4537 C   0  0  0  0  0  0  0  0  0  0  0  0
   59.8848   -3.4408    0.2961 C   0  0  0  0  0  0  0  0  0  0  0  0
   59.8787   -4.9137    0.4594 C   0  0  0  0  0  0  0  0  0  0  0  0
   59.0810   -5.5077    1.4362 C   0  0  0  0  0  0  0  0  0  0  0  0
   59.0702   -6.8894    1.5958 C   0  0  0  0  0  0  0  0  0  0  0  0
   58.2237   -7.5215    2.6676 C   0  0  0  0  0  0  0  0  0  0  0  0
   59.8639   -7.6772    0.7682 C   0  0  0  0  0  0  0  0  0  0  0  0
   60.6638   -7.0992   -0.2141 C   0  0  0  0  0  0  0  0  0  0  0  0
   61.5257   -7.9652   -1.0926 C   0  0  0  0  0  0  0  0  0  0  0  0
   60.6692   -5.7171   -0.3622 C   0  0  0  0  0  0  0  0  0  0  0  0
   58.6902   -2.7988   -0.0055 C   0  0  0  0  0  0  0  0  0  0  0  0
   57.4513   -3.4756   -0.2388 C   0  0  0  0  0  0  0  0  0  0  0  0
   56.4970   -2.5188   -0.3491 C   0  0  0  0  0  0  0  0  0  0  0  0
   57.1570   -1.2624   -0.1944 C   0  0  0  0  0  0  0  0  0  0  0  0
   58.5040   -1.4352   -0.0321 N   0  0  0  0  0  0  0  0  0  0  0  0
   61.2757   -1.4177    0.1957 N   0  0  0  0  0  0  0  0  0  0  0  0
   59.8949    4.8267   -0.5988 C   0  0  0  0  0  0  0  0  0  0  0  0
   60.6587    5.6373    0.2388 C   0  0  0  0  0  0  0  0  0  0  0  0
   60.6520    7.0200    0.0825 C   0  0  0  0  0  0  0  0  0  0  0  0
   61.4905    7.8848    0.9846 C   0  0  0  0  0  0  0  0  0  0  0  0
   59.8784    7.5885   -0.9239 C   0  0  0  0  0  0  0  0  0  0  0  0
   59.1105    6.7921   -1.7696 C   0  0  0  0  0  0  0  0  0  0  0  0
   58.2918    7.4200   -2.8649 C   0  0  0  0  0  0  0  0  0  0  0  0
   59.1219    5.4125   -1.6017 C   0  0  0  0  0  0  0  0  0  0  0  0
   55.4315    2.5586    0.2722 H   0  0  0  0  0  0  0  0  0  0  0  0
   57.3355    4.4625    0.1079 H   0  0  0  0  0  0  0  0  0  0  0  0
   62.4682    4.3181   -1.1675 H   0  0  0  0  0  0  0  0  0  0  0  0
   64.3663    2.4192   -0.9066 H   0  0  0  0  0  0  0  0  0  0  0  0
   64.3373   -2.5097    0.9109 H   0  0  0  0  0  0  0  0  0  0  0  0
   62.4311   -4.4079    1.1101 H   0  0  0  0  0  0  0  0  0  0  0  0
   58.4765   -4.8822    2.0841 H   0  0  0  0  0  0  0  0  0  0  0  0
   57.9173   -8.5269    2.3783 H   0  0  0  0  0  0  0  0  0  0  0  0
   58.7943   -7.5940    3.5964 H   0  0  0  0  0  0  0  0  0  0  0  0
   57.3337   -6.9228    2.8626 H   0  0  0  0  0  0  0  0  0  0  0  0
   59.8574   -8.7559    0.8868 H   0  0  0  0  0  0  0  0  0  0  0  0
   61.8380   -7.4258   -1.9866 H   0  0  0  0  0  0  0  0  0  0  0  0
   60.9884   -8.8655   -1.3930 H   0  0  0  0  0  0  0  0  0  0  0  0
   62.4210   -8.2726   -0.5476 H   0  0  0  0  0  0  0  0  0  0  0  0
   61.2755   -5.2559   -1.1341 H   0  0  0  0  0  0  0  0  0  0  0  0
   57.3362   -4.5448   -0.3099 H   0  0  0  0  0  0  0  0  0  0  0  0
   55.4387   -2.6382   -0.5164 H   0  0  0  0  0  0  0  0  0  0  0  0
   61.2454    5.1844    1.0306 H   0  0  0  0  0  0  0  0  0  0  0  0
   61.1105    8.9060    1.0095 H   0  0  0  0  0  0  0  0  0  0  0  0
   62.5200    7.9121    0.6202 H   0  0  0  0  0  0  0  0  0  0  0  0
   61.5024    7.4871    1.9998 H   0  0  0  0  0  0  0  0  0  0  0  0
   59.8695    8.6663   -1.0501 H   0  0  0  0  0  0  0  0  0  0  0  0
   57.8555    8.3616   -2.5299 H   0  0  0  0  0  0  0  0  0  0  0  0
   57.4905    6.7532   -3.1835 H   0  0  0  0  0  0  0  0  0  0  0  0
   58.9258    7.6298   -3.7294 H   0  0  0  0  0  0  0  0  0  0  0  0
   58.5381    4.7803   -2.2617 H   0  0  0  0  0  0  0  0  0  0  0  0
   73.3216   -0.0299    0.0054 Ni  0  0  0  0  0  0  0  0  0  0  0  0
   69.9079   -0.0526    0.0237 C   0  0  0  0  0  0  0  0  0  0  0  0
   70.5735    1.1768    0.0506 C   0  0  0  0  0  0  0  0  0  0  0  0
   69.9002    2.4331    0.1341 C   0  0  0  0  0  0  0  0  0  0  0  0
   70.8494    3.3923    0.0073 C   0  0  0  0  0  0  0  0  0  0  0  0
   72.0990    2.7167   -0.1657 C   0  0  0  0  0  0  0  0  0  0  0  0
   71.9223    1.3534   -0.0903 N   0  0  0  0  0  0  0  0  0  0  0  0
   73.2967    3.3594   -0.4495 C   0  0  0  0  0  0  0  0  0  0  0  0
   74.5039    2.6809   -0.5577 C   0  0  0  0  0  0  0  0  0  0  0  0
   75.7437    3.3050   -0.9062 C   0  0  0  0  0  0  0  0  0  0  0  0
   76.7072    2.3608   -0.7769 C   0  0  0  0  0  0  0  0  0  0  0  0
   74.7000    1.3494   -0.2708 N   0  0  0  0  0  0  0  0  0  0  0  0
   76.0523    1.1614   -0.3623 C   0  0  0  0  0  0  0  0  0  0  0  0
   76.7345   -0.0056   -0.0106 C   0  0  0  0  0  0  0  0  0  0  0  0
   76.0726   -1.1830    0.3443 C   0  0  0  0  0  0  0  0  0  0  0  0
   76.7483   -2.3747    0.7476 C   0  0  0  0  0  0  0  0  0  0  0  0
   75.7998   -3.3335    0.8803 C   0  0  0  0  0  0  0  0  0  0  0  0
   74.5477   -2.7258    0.5468 C   0  0  0  0  0  0  0  0  0  0  0  0
   73.3483   -3.4204    0.4507 C   0  0  0  0  0  0  0  0  0  0  0  0
   73.3622   -4.8911    0.6362 C   0  0  0  0  0  0  0  0  0  0  0  0
   72.6172   -5.4800    1.6569 C   0  0  0  0  0  0  0  0  0  0  0  0
   72.6247   -6.8599    1.8311 C   0  0  0  0  0  0  0  0  0  0  0  0
   71.8346   -7.4882    2.9471 C   0  0  0  0  0  0  0  0  0  0  0  0
   73.3846   -7.6512    0.9749 C   0  0  0  0  0  0  0  0  0  0  0  0
   74.1323   -7.0786   -0.0498 C   0  0  0  0  0  0  0  0  0  0  0  0
   74.9630   -7.9433   -0.9591 C   0  0  0  0  0  0  0  0  0  0  0  0
   74.1192   -5.6977   -0.2129 C   0  0  0  0  0  0  0  0  0  0  0  0
   72.1382   -2.7928    0.1852 C   0  0  0  0  0  0  0  0  0  0  0  0
   70.8955   -3.4844    0.0255 C   0  0  0  0  0  0  0  0  0  0  0  0
   69.9321   -2.5378   -0.0876 C   0  0  0  0  0  0  0  0  0  0  0  0
   70.5894   -1.2728   -0.0096 C   0  0  0  0  0  0  0  0  0  0  0  0
   71.9422   -1.4318    0.1156 N   0  0  0  0  0  0  0  0  0  0  0  0
   74.7221   -1.3904    0.2642 N   0  0  0  0  0  0  0  0  0  0  0  0
   73.2888    4.8292   -0.6419 C   0  0  0  0  0  0  0  0  0  0  0  0
   74.0405    5.6500    0.1971 C   0  0  0  0  0  0  0  0  0  0  0  0
   74.0348    7.0307    0.0257 C   0  0  0  0  0  0  0  0  0  0  0  0
   74.8610    7.9058    0.9291 C   0  0  0  0  0  0  0  0  0  0  0  0
   73.2744    7.5870   -0.9976 C   0  0  0  0  0  0  0  0  0  0  0  0
   72.5192    6.7803   -1.8448 C   0  0  0  0  0  0  0  0  0  0  0  0
   71.7165    7.3943   -2.9597 C   0  0  0  0  0  0  0  0  0  0  0  0
   72.5293    5.4023   -1.6616 C   0  0  0  0  0  0  0  0  0  0  0  0
   68.8372    2.5504    0.2708 H   0  0  0  0  0  0  0  0  0  0  0  0
   70.7247    4.4625    0.0301 H   0  0  0  0  0  0  0  0  0  0  0  0
   75.8525    4.3327   -1.2119 H   0  0  0  0  0  0  0  0  0  0  0  0
   77.7685    2.4533   -0.9421 H   0  0  0  0  0  0  0  0  0  0  0  0
   77.8124   -2.4523    0.9026 H   0  0  0  0  0  0  0  0  0  0  0  0
   75.9266   -4.3612    1.1795 H   0  0  0  0  0  0  0  0  0  0  0  0
   72.0395   -4.8520    2.3263 H   0  0  0  0  0  0  0  0  0  0  0  0
   71.5036   -8.4899    2.6719 H   0  0  0  0  0  0  0  0  0  0  0  0
   72.4560   -7.5698    3.8418 H   0  0  0  0  0  0  0  0  0  0  0  0
   70.9622   -6.8830    3.1940 H   0  0  0  0  0  0  0  0  0  0  0  0
   73.3912   -8.7285    1.1054 H   0  0  0  0  0  0  0  0  0  0  0  0
   75.1082   -7.4633   -1.9270 H   0  0  0  0  0  0  0  0  0  0  0  0
   74.4888   -8.9130   -1.1126 H   0  0  0  0  0  0  0  0  0  0  0  0
   75.9455   -8.1133   -0.5127 H   0  0  0  0  0  0  0  0  0  0  0  0
   74.6847   -5.2410   -1.0179 H   0  0  0  0  0  0  0  0  0  0  0  0
   70.7843   -4.5562    0.0012 H   0  0  0  0  0  0  0  0  0  0  0  0
   68.8692   -2.6688   -0.2119 H   0  0  0  0  0  0  0  0  0  0  0  0
   74.6176    5.2059    1.0008 H   0  0  0  0  0  0  0  0  0  0  0  0
   74.4750    8.9250    0.9449 H   0  0  0  0  0  0  0  0  0  0  0  0
   75.8931    7.9368    0.5727 H   0  0  0  0  0  0  0  0  0  0  0  0
   74.8672    7.5143    1.9468 H   0  0  0  0  0  0  0  0  0  0  0  0
   73.2665    8.6633   -1.1361 H   0  0  0  0  0  0  0  0  0  0  0  0
   71.3085    8.3591   -2.6570 H   0  0  0  0  0  0  0  0  0  0  0  0
   70.8958    6.7404   -3.2545 H   0  0  0  0  0  0  0  0  0  0  0  0
   72.3546    7.5552   -3.8316 H   0  0  0  0  0  0  0  0  0  0  0  0
   71.9553    4.7623   -2.3227 H   0  0  0  0  0  0  0  0  0  0  0  0
  2  3  4  0  0  0  0
  3  4  4  0  0  0  0
  4  5  2  0  0  0  0
  5  6  4  0  0  0  0
  1  7  1  0  0  0  0
  3  7  4  0  0  0  0
  6  7  4  0  0  0  0
  6  8  4  0  0  0  0
  8  9  4  0  0  0  0
  9 10  4  0  0  0  0
 10 11  2  0  0  0  0
  1 12  1  0  0  0  0
  9 12  4  0  0  0  0
 11 13  4  0  0  0  0
 12 13  4  0  0  0  0
 13 14  4  0  0  0  0
 14 15  4  0  0  0  0
 15 16  4  0  0  0  0
 16 17  2  0  0  0  0
 17 18  4  0  0  0  0
 18 19  4  0  0  0  0
 19 20  1  0  0  0  0
 20 21  4  0  0  0  0
 21 22  4  0  0  0  0
 22 23  1  0  0  0  0
 22 24  4  0  0  0  0
 24 25  4  0  0  0  0
 25 26  1  0  0  0  0
 20 27  4  0  0  0  0
 25 27  4  0  0  0  0
 19 28  4  0  0  0  0
 28 29  4  0  0  0  0
 29 30  2  0  0  0  0
  2 31  4  0  0  0  0
 30 31  4  0  0  0  0
  1 32  1  0  0  0  0
 28 32  4  0  0  0  0
 31 32  4  0  0  0  0
  1 33  1  0  0  0  0
 15 33  4  0  0  0  0
 18 33  4  0  0  0  0
  8 34  1  0  0  0  0
 34 35  4  0  0  0  0
 35 36  4  0  0  0  0
 36 37  1  0  0  0  0
 36 38  4  0  0  0  0
 38 39  4  0  0  0  0
 39 40  1  0  0  0  0
 34 41  4  0  0  0  0
 39 41  4  0  0  0  0
  2 42  1  0  0  0  0
  4 43  1  0  0  0  0
  5 44  1  0  0  0  0
 10 45  1  0  0  0  0
 11 46  1  0  0  0  0
 16 47  1  0  0  0  0
 17 48  1  0  0  0  0
 21 49  1  0  0  0  0
 23 50  1  0  0  0  0
 23 51  1  0  0  0  0
 23 52  1  0  0  0  0
 24 53  1  0  0  0  0
 26 54  1  0  0  0  0
 26 55  1  0  0  0  0
 26 56  1  0  0  0  0
 27 57  1  0  0  0  0
 29 58  1  0  0  0  0
 30 59  1  0  0  0  0
 35 60  1  0  0  0  0
 37 61  1  0  0  0  0
 37 62  1  0  0  0  0
 37 63  1  0  0  0  0
 38 64  1  0  0  0  0
 40 65  1  0  0  0  0
 40 66  1  0  0  0  0
 40 67  1  0  0  0  0
 41 68  1  0  0  0  0
 70 71  4  0  0  0  0
 71 72  4  0  0  0  0
 72 73  2  0  0  0  0
 73 74  4  0  0  0  0
 69 75  1  0  0  0  0
 71 75  4  0  0  0  0
 74 75  4  0  0  0  0
 74 76  4  0  0  0  0
 76 77  4  0  0  0  0
 77 78  4  0  0  0  0
 78 79  2  0  0  0  0
 69 80  1  0  0  0  0
 77 80  4  0  0  0  0
 79 81  4  0  0  0  0
 80 81  4  0  0  0  0
 81 82  4  0  0  0  0
 82 83  4  0  0  0  0
 83 84  4  0  0  0  0
 84 85  2  0  0  0  0
 85 86  4  0  0  0  0
 86 87  4  0  0  0  0
 87 88  1  0  0  0  0
 88 89  4  0  0  0  0
 89 90  4  0  0  0  0
 90 91  1  0  0  0  0
 90 92  4  0  0  0  0
 92 93  4  0  0  0  0
 93 94  1  0  0  0  0
 88 95  4  0  0  0  0
 93 95  4  0  0  0  0
 87 96  4  0  0  0  0
 96 97  4  0  0  0  0
 97 98  2  0  0  0  0
 70 99  4  0  0  0  0
 98 99  4  0  0  0  0
 69100  1  0  0  0  0
 96100  4  0  0  0  0
 99100  4  0  0  0  0
 69101  1  0  0  0  0
 83101  4  0  0  0  0
 86101  4  0  0  0  0
 76102  1  0  0  0  0
102103  4  0  0  0  0
103104  4  0  0  0  0
104105  1  0  0  0  0
104106  4  0  0  0  0
106107  4  0  0  0  0
107108  1  0  0  0  0
102109  4  0  0  0  0
107109  4  0  0  0  0
 70110  1  0  0  0  0
 72111  1  0  0  0  0
 73112  1  0  0  0  0
 78113  1  0  0  0  0
 79114  1  0  0  0  0
 84115  1  0  0  0  0
 85116  1  0  0  0  0
 89117  1  0  0  0  0
 91118  1  0  0  0  0
 91119  1  0  0  0  0
 91120  1  0  0  0  0
 92121  1  0  0  0  0
 94122  1  0  0  0  0
 94123  1  0  0  0  0
 94124  1  0  0  0  0
 95125  1  0  0  0  0
 97126  1  0  0  0  0
 98127  1  0  0  0  0
103128  1  0  0  0  0
105129  1  0  0  0  0
105130  1  0  0  0  0
105131  1  0  0  0  0
106132  1  0  0  0  0
108133  1  0  0  0  0
108134  1  0  0  0  0
108135  1  0  0  0  0
109136  1  0  0  0  0
 14138  4  0  0  0  0
137138  3  0  0  0  0
137139  4  0  0  0  0
139140  3  0  0  0  0
141142  3  0  0  0  0
141143  4  0  0  0  0
143144  3  0  0  0  0
145146  3  0  0  0  0
145147  4  0  0  0  0
 82148  1  0  0  0  0
147148  3  0  0  0  0
140150  4  0  0  0  0
150151  4  0  0  0  0
151152  4  0  0  0  0
152153  2  0  0  0  0
153154  4  0  0  0  0
149155  1  0  0  0  0
151155  4  0  0  0  0
154155  4  0  0  0  0
154156  4  0  0  0  0
156157  4  0  0  0  0
157158  4  0  0  0  0
158159  2  0  0  0  0
149160  1  0  0  0  0
157160  4  0  0  0  0
159161  4  0  0  0  0
160161  4  0  0  0  0
142162  4  0  0  0  0
161162  4  0  0  0  0
162163  4  0  0  0  0
163164  4  0  0  0  0
164165  2  0  0  0  0
165166  4  0  0  0  0
166167  4  0  0  0  0
167168  1  0  0  0  0
168169  4  0  0  0  0
169170  4  0  0  0  0
170171  1  0  0  0  0
170172  4  0  0  0  0
172173  4  0  0  0  0
173174  1  0  0  0  0
168175  4  0  0  0  0
173175  4  0  0  0  0
167176  4  0  0  0  0
176177  4  0  0  0  0
177178  2  0  0  0  0
150179  4  0  0  0  0
178179  4  0  0  0  0
149180  1  0  0  0  0
176180  4  0  0  0  0
179180  4  0  0  0  0
149181  1  0  0  0  0
163181  4  0  0  0  0
166181  4  0  0  0  0
156182  1  0  0  0  0
182183  4  0  0  0  0
183184  4  0  0  0  0
184185  1  0  0  0  0
184186  4  0  0  0  0
186187  4  0  0  0  0
187188  1  0  0  0  0
182189  4  0  0  0  0
187189  4  0  0  0  0
152190  1  0  0  0  0
153191  1  0  0  0  0
158192  1  0  0  0  0
159193  1  0  0  0  0
164194  1  0  0  0  0
165195  1  0  0  0  0
169196  1  0  0  0  0
171197  1  0  0  0  0
171198  1  0  0  0  0
171199  1  0  0  0  0
172200  1  0  0  0  0
174201  1  0  0  0  0
174202  1  0  0  0  0
174203  1  0  0  0  0
175204  1  0  0  0  0
177205  1  0  0  0  0
178206  1  0  0  0  0
183207  1  0  0  0  0
185208  1  0  0  0  0
185209  1  0  0  0  0
185210  1  0  0  0  0
186211  1  0  0  0  0
188212  1  0  0  0  0
188213  1  0  0  0  0
188214  1  0  0  0  0
189215  1  0  0  0  0
144217  4  0  0  0  0
217218  4  0  0  0  0
218219  4  0  0  0  0
219220  2  0  0  0  0
220221  4  0  0  0  0
216222  1  0  0  0  0
218222  4  0  0  0  0
221222  4  0  0  0  0
221223  4  0  0  0  0
223224  4  0  0  0  0
224225  4  0  0  0  0
225226  2  0  0  0  0
216227  1  0  0  0  0
224227  4  0  0  0  0
226228  4  0  0  0  0
227228  4  0  0  0  0
146229  1  0  0  0  0
228229  4  0  0  0  0
229230  4  0  0  0  0
230231  4  0  0  0  0
231232  2  0  0  0  0
232233  4  0  0  0  0
233234  4  0  0  0  0
234235  1  0  0  0  0
235236  4  0  0  0  0
236237  4  0  0  0  0
237238  1  0  0  0  0
237239  4  0  0  0  0
239240  4  0  0  0  0
240241  1  0  0  0  0
235242  4  0  0  0  0
240242  4  0  0  0  0
234243  4  0  0  0  0
243244  4  0  0  0  0
244245  2  0  0  0  0
217246  4  0  0  0  0
245246  4  0  0  0  0
216247  1  0  0  0  0
243247  4  0  0  0  0
246247  4  0  0  0  0
216248  1  0  0  0  0
230248  4  0  0  0  0
233248  4  0  0  0  0
223249  1  0  0  0  0
249250  4  0  0  0  0
250251  4  0  0  0  0
251252  1  0  0  0  0
251253  4  0  0  0  0
253254  4  0  0  0  0
254255  1  0  0  0  0
249256  4  0  0  0  0
254256  4  0  0  0  0
219257  1  0  0  0  0
220258  1  0  0  0  0
225259  1  0  0  0  0
226260  1  0  0  0  0
231261  1  0  0  0  0
232262  1  0  0  0  0
236263  1  0  0  0  0
238264  1  0  0  0  0
238265  1  0  0  0  0
238266  1  0  0  0  0
239267  1  0  0  0  0
241268  1  0  0  0  0
241269  1  0  0  0  0
241270  1  0  0  0  0
242271  1  0  0  0  0
244272  1  0  0  0  0
245273  1  0  0  0  0
250274  1  0  0  0  0
252275  1  0  0  0  0
252276  1  0  0  0  0
252277  1  0  0  0  0
253278  1  0  0  0  0
255279  1  0  0  0  0
255280  1  0  0  0  0
255281  1  0  0  0  0
256282  1  0  0  0  0
M  END
