204

C 34.775866 1.171103 -0.176326
C 35.675468 1.560457 -1.385583
C 35.586440 2.712402 -2.141696
C 36.673635 2.689239 -3.055053
C 37.352215 1.501478 -2.855452
N 36.782112 0.857206 -1.783151
C 38.644318 0.977670 -3.618819
C 38.516264 0.653723 -5.067715
C 38.819107 -0.633546 -5.534394
C 38.585852 -1.008705 -6.861297
C 37.970682 -0.127156 -7.746548
N 37.624217 -0.513792 -9.065012
C 36.751740 -1.680007 -9.091456
C 37.707212 1.176275 -7.309626
C 37.979026 1.556338 -5.987107
C 39.748696 0.704075 -2.867433
C 41.024368 0.337510 -3.448636
C 41.881671 0.098310 -2.462027
N 39.921527 0.692022 -1.507449
C 41.190415 0.278231 -1.196105
C 41.782722 0.032338 -0.000455
C 40.956061 0.106667 1.367341
C 41.489278 0.003105 2.634578
C 40.413333 -0.019229 3.557732
C 39.249450 0.051133 2.825546
N 39.586815 0.195716 1.496623
C 37.777048 -0.054666 3.429788
C 37.642905 -0.519440 4.830274
C 37.406336 0.397286 5.861067
C 37.292452 -0.037451 7.185341
C 37.442842 -1.392441 7.518383
N 37.271688 -1.894564 8.822501
C 37.458241 -0.981985 9.936274
C 37.662750 -2.298220 6.471874
C 37.778319 -1.868194 5.145761
C 36.699027 0.231612 2.657699
C 35.328084 0.092595 3.121451
C 34.510281 0.431662 2.126920
C 35.330141 0.791886 0.990545
N 36.630466 0.656295 1.362730
H 33.702174 1.210231 -0.291481
H 34.856345 3.500052 -2.020437
H 36.930845 3.462722 -3.767479
H 37.213308 0.113654 -1.248691
H 39.210967 -1.371192 -4.832041
H 38.865805 -2.007810 -7.172163
H 37.198043 0.275360 -9.542737
H 35.888942 -1.555486 -8.425967
H 36.368835 -1.822123 -10.103684
H 37.288497 -2.595732 -8.814320
H 37.224817 1.887833 -7.969796
H 37.753381 2.567657 -5.664192
H 41.249073 0.300220 -4.494699
H 42.909811 -0.183639 -2.601287
H 42.536925 -0.082543 2.879037
H 40.487074 -0.130146 4.627916
H 38.923813 0.315888 0.731900
H 37.309496 1.456434 5.616075
H 37.098841 0.714624 7.949216
H 37.782253 -2.764990 8.931260
H 36.648797 -0.245621 9.983408
H 38.429276 -0.471932 9.884441
H 37.432703 -1.552968 10.873103
H 37.741088 -3.361703 6.673194
H 37.954132 -2.582356 4.344209
H 35.022100 -0.248075 4.093418
H 33.436722 0.411356 2.150246
C 65.858753 1.178584 0.117175
C 64.959151 1.629037 1.305026
C 65.048179 2.818006 2.001472
C 63.960984 2.841404 2.914823
C 63.282404 1.645016 2.775991
N 63.852507 0.946953 1.737904
C 61.990301 1.160777 3.565052
C 62.118355 0.911065 5.028570
C 61.815511 -0.350758 5.560222
C 62.048767 -0.657832 6.904514
C 62.663937 0.267670 7.743706
N 63.010402 -0.051295 9.080154
C 63.882879 -1.214649 9.165976
C 62.927407 1.547150 7.240948
C 62.655593 1.859345 5.900785
C 60.885923 0.849259 2.828579
C 59.610251 0.512779 3.427703
C 58.752948 0.223627 2.454561
N 60.713091 0.767938 1.470975
C 59.444204 0.338823 1.181116
C 58.851897 0.032338 -0.000455
C 59.678558 0.036889 -1.370261
C 59.145341 -0.131097 -2.630577
C 60.221286 -0.200431 -3.551394
C 61.385169 -0.092860 -2.823743
N 61.047804 0.119236 -1.503912
C 62.857571 -0.229304 -3.421811
C 62.991714 -0.764822 -4.796801
C 63.228283 0.098201 -5.872957
C 63.342166 -0.403436 -7.173364
C 63.191777 -1.773633 -7.436945
N 63.362931 -2.341541 -8.713789
C 63.176378 -1.486888 -9.872606
C 62.971869 -2.624923 -6.345650
C 62.856300 -2.127897 -5.043166
C 63.935592 0.095936 -2.665308
C 65.306535 -0.066526 -3.121376
C 66.124337 0.322766 -2.145410
C 65.304478 0.740414 -1.028862
N 64.004152 0.586038 -1.393656
H 66.932445 1.223528 0.230187
H 65.778274 3.598455 1.840245
H 63.703774 3.650176 3.586919
H 63.421311 0.177139 1.242018
H 61.423652 -1.123228 4.896360
H 61.768814 -1.639803 7.265875
H 63.436576 0.761170 9.517056
H 64.745676 -1.124192 8.495007
H 64.265784 -1.305013 10.184130
H 63.346122 -2.143303 8.935851
H 63.409801 2.291416 7.864011
H 62.881237 2.852900 5.526768
H 59.385545 0.528829 4.474307
H 57.724808 -0.050861 2.608003
H 58.097693 -0.229088 -2.870354
H 60.147545 -0.365724 -4.614538
H 61.710806 0.278211 -0.746304
H 63.325123 1.168455 -5.682241
H 63.535778 0.308747 -7.974561
H 62.852366 -3.216378 -8.778063
H 63.985821 -0.753881 -9.957193
H 62.205343 -0.974857 -9.846825
H 63.201916 -2.104855 -10.779131
H 62.893531 -3.697280 -6.492530
H 62.680487 -2.800297 -4.206273
H 65.612519 -0.456270 -4.074726
H 67.197897 0.301298 -2.167672
C 43.948051 0.032338 -0.000455
C 45.169969 0.032338 -0.000455
C 55.464650 0.032338 -0.000455
C 56.686568 0.032338 -0.000455
C 46.782576 -0.067616 0.000951
C 47.557746 -0.020350 1.387577
C 46.976639 -0.005981 2.640033
C 48.018729 0.031557 3.593938
C 49.212671 0.039928 2.902651
N 48.923599 0.009001 1.558946
C 50.652739 0.075619 3.564666
C 50.714315 0.143886 5.045948
C 50.779874 -1.023601 5.808985
C 50.811005 -0.951209 7.205929
C 50.744337 0.281537 7.874733
N 50.820218 0.284712 9.279017
C 50.340110 1.457044 9.985700
C 50.733887 1.445559 7.095791
C 50.702832 1.379500 5.697199
C 51.780451 0.046815 2.806896
C 53.094299 0.073881 3.416369
C 54.004263 0.030045 2.452505
N 51.975322 -0.008365 1.451651
C 53.320008 -0.021017 1.175646
C 54.003715 -0.067616 0.000951
C 53.228860 -0.108715 -1.386120
C 53.809687 -0.108461 -2.639151
C 52.767676 -0.147555 -3.593285
C 51.573953 -0.168994 -2.901635
N 51.863337 -0.144814 -1.557617
C 50.134615 -0.210740 -3.562314
C 50.066542 -0.279002 -5.043113
C 50.016972 0.890628 -5.805213
C 49.944012 0.825247 -7.202208
C 49.887898 -0.406698 -7.866357
N 49.856912 -0.535870 -9.266969
C 49.315677 0.568009 -10.037687
C 49.995472 -1.572354 -7.091316
C 50.067931 -1.513294 -5.695473
C 49.006326 -0.183226 -2.804610
C 47.692135 -0.213462 -3.413806
C 46.781853 -0.169915 -2.450323
C 47.466075 -0.115379 -1.173729
N 48.810772 -0.125979 -1.449597
H 45.919373 -0.023749 2.855034
H 47.908306 0.048235 4.668099
H 49.610961 -0.000717 0.809126
H 50.814673 -1.986155 5.304061
H 50.883676 -1.878237 7.766370
H 50.439097 -0.581994 9.648901
H 49.308999 1.699903 9.708080
H 50.356073 1.256588 11.062024
H 50.985364 2.323882 9.811253
H 50.748228 2.429829 7.549281
H 50.677811 2.290156 5.102789
H 53.310681 0.119867 4.469067
H 55.065627 0.036450 2.619891
H 54.866737 -0.081236 -2.854378
H 52.878208 -0.156500 -4.667921
H 51.176317 -0.142692 -0.807518
H 50.036906 1.852973 -5.298644
H 49.927956 1.762383 -7.746396
H 49.444529 -1.429992 -9.520787
H 49.970227 1.444479 -9.998644
H 49.243870 0.268084 -11.088358
H 48.310071 0.840158 -9.699906
H 50.015768 -2.548821 -7.565311
H 50.126211 -2.425067 -5.105727
H 47.475556 -0.261236 -4.466195
H 45.720487 -0.178192 -2.617278
