 xtb: 6.5.1 (b24c23e)
          07302206123D

126143  0     0  0            999 V2000
   12.5575   -0.1410   -0.0787 C   0  0  0  0  0  0  0  0  0  0  0  0
   13.1651   -1.3517    0.2271 C   0  0  0  0  0  0  0  0  0  0  0  0
   12.5111   -2.5841    0.5092 C   0  0  0  0  0  0  0  0  0  0  0  0
   13.4706   -3.5164    0.7851 C   0  0  0  0  0  0  0  0  0  0  0  0
   14.7420   -2.8812    0.6870 C   0  0  0  0  0  0  0  0  0  0  0  0
   14.5075   -1.5825    0.3376 N   0  0  0  0  0  0  0  0  0  0  0  0
   16.0046   -3.4564    0.8730 C   0  0  0  0  0  0  0  0  0  0  0  0
   16.0302   -4.8777    1.2901 C   0  0  0  0  0  0  0  0  0  0  0  0
   16.6509   -5.8421    0.4903 C   0  0  0  0  0  0  0  0  0  0  0  0
   16.6729   -7.1693    0.8787 C   0  0  0  0  0  0  0  0  0  0  0  0
   16.0730   -7.5355    2.0804 C   0  0  0  0  0  0  0  0  0  0  0  0
   16.0939   -8.9274    2.4939 N   0  0  0  0  0  0  0  0  0  0  0  0
   16.6510   -9.7150    1.7730 O   0  0  0  0  0  0  0  0  0  0  0  0
   15.5499   -9.2089    3.5310 O   0  0  0  0  0  0  0  0  0  0  0  0
   15.4519   -6.5908    2.8924 C   0  0  0  0  0  0  0  0  0  0  0  0
   15.4307   -5.2674    2.4920 C   0  0  0  0  0  0  0  0  0  0  0  0
   17.2232   -2.7934    0.7035 C   0  0  0  0  0  0  0  0  0  0  0  0
   18.5201   -3.3981    0.9501 C   0  0  0  0  0  0  0  0  0  0  0  0
   19.4407   -2.4498    0.6802 C   0  0  0  0  0  0  0  0  0  0  0  0
   17.3770   -1.4984    0.3149 N   0  0  0  0  0  0  0  0  0  0  0  0
   18.7047   -1.2645    0.2840 C   0  0  0  0  0  0  0  0  0  0  0  0
   19.3416   -0.0588   -0.0718 C   0  0  0  0  0  0  0  0  0  0  0  0
   18.7080    1.1527   -0.4077 C   0  0  0  0  0  0  0  0  0  0  0  0
   19.3553    2.3639   -0.7688 C   0  0  0  0  0  0  0  0  0  0  0  0
   18.3912    3.3078   -0.9907 C   0  0  0  0  0  0  0  0  0  0  0  0
   17.1244    2.7013   -0.7650 C   0  0  0  0  0  0  0  0  0  0  0  0
   17.3672    1.3971   -0.4264 N   0  0  0  0  0  0  0  0  0  0  0  0
   15.8618    3.2925   -0.8929 C   0  0  0  0  0  0  0  0  0  0  0  0
   15.8326    4.7355   -1.2223 C   0  0  0  0  0  0  0  0  0  0  0  0
   15.1973    5.1867   -2.3837 C   0  0  0  0  0  0  0  0  0  0  0  0
   15.1633    6.5352   -2.6882 C   0  0  0  0  0  0  0  0  0  0  0  0
   15.7660    7.4429   -1.8218 C   0  0  0  0  0  0  0  0  0  0  0  0
   15.7283    8.8606   -2.1334 N   0  0  0  0  0  0  0  0  0  0  0  0
   15.1717    9.1940   -3.1480 O   0  0  0  0  0  0  0  0  0  0  0  0
   16.2552    9.6162   -1.3574 O   0  0  0  0  0  0  0  0  0  0  0  0
   16.4039    7.0150   -0.6609 C   0  0  0  0  0  0  0  0  0  0  0  0
   16.4371    5.6640   -0.3686 C   0  0  0  0  0  0  0  0  0  0  0  0
   14.6429    2.6256   -0.7251 C   0  0  0  0  0  0  0  0  0  0  0  0
   13.3379    3.2631   -0.8165 C   0  0  0  0  0  0  0  0  0  0  0  0
   12.4248    2.2963   -0.5975 C   0  0  0  0  0  0  0  0  0  0  0  0
   13.1705    1.0736   -0.3546 C   0  0  0  0  0  0  0  0  0  0  0  0
   14.5031    1.3117   -0.4318 N   0  0  0  0  0  0  0  0  0  0  0  0
   11.4724   -0.1522   -0.0891 H   0  0  0  0  0  0  0  0  0  0  0  0
   11.4424   -2.7262    0.4956 H   0  0  0  0  0  0  0  0  0  0  0  0
   13.3177   -4.5560    1.0254 H   0  0  0  0  0  0  0  0  0  0  0  0
   15.2341   -0.8912    0.1846 H   0  0  0  0  0  0  0  0  0  0  0  0
   17.1028   -5.5468   -0.4493 H   0  0  0  0  0  0  0  0  0  0  0  0
   17.1456   -7.9247    0.2626 H   0  0  0  0  0  0  0  0  0  0  0  0
   14.9968   -6.9003    3.8256 H   0  0  0  0  0  0  0  0  0  0  0  0
   14.9624   -4.5204    3.1223 H   0  0  0  0  0  0  0  0  0  0  0  0
   18.6834   -4.4059    1.2959 H   0  0  0  0  0  0  0  0  0  0  0  0
   20.5147   -2.5169    0.7463 H   0  0  0  0  0  0  0  0  0  0  0  0
   20.4232    2.4872   -0.8497 H   0  0  0  0  0  0  0  0  0  0  0  0
   18.5418    4.3303   -1.2962 H   0  0  0  0  0  0  0  0  0  0  0  0
   16.6430    0.7161   -0.2226 H   0  0  0  0  0  0  0  0  0  0  0  0
   14.7434    4.4695   -3.0574 H   0  0  0  0  0  0  0  0  0  0  0  0
   14.6779    6.8934   -3.5881 H   0  0  0  0  0  0  0  0  0  0  0  0
   16.8620    7.7416   -0.0005 H   0  0  0  0  0  0  0  0  0  0  0  0
   16.9173    5.3205    0.5403 H   0  0  0  0  0  0  0  0  0  0  0  0
   13.1677    4.3101   -1.0084 H   0  0  0  0  0  0  0  0  0  0  0  0
   11.3492    2.3743   -0.5823 H   0  0  0  0  0  0  0  0  0  0  0  0
   32.7303    0.0850   -0.1299 C   0  0  0  0  0  0  0  0  0  0  0  0
   32.1225    1.2807   -0.4896 C   0  0  0  0  0  0  0  0  0  0  0  0
   32.7764    2.4833   -0.8799 C   0  0  0  0  0  0  0  0  0  0  0  0
   31.8167    3.4241   -1.1246 C   0  0  0  0  0  0  0  0  0  0  0  0
   30.5452    2.8279   -0.8846 C   0  0  0  0  0  0  0  0  0  0  0  0
   30.7800    1.5346   -0.5157 N   0  0  0  0  0  0  0  0  0  0  0  0
   29.2825    3.4159   -1.0233 C   0  0  0  0  0  0  0  0  0  0  0  0
   29.2568    4.8489   -1.3983 C   0  0  0  0  0  0  0  0  0  0  0  0
   28.6407    5.2622   -2.5835 C   0  0  0  0  0  0  0  0  0  0  0  0
   28.6196    6.5994   -2.9355 C   0  0  0  0  0  0  0  0  0  0  0  0
   29.2154    7.5333   -2.0925 C   0  0  0  0  0  0  0  0  0  0  0  0
   29.1960    8.9389   -2.4568 N   0  0  0  0  0  0  0  0  0  0  0  0
   28.6449    9.2412   -3.4840 O   0  0  0  0  0  0  0  0  0  0  0  0
   29.7334    9.7158   -1.7097 O   0  0  0  0  0  0  0  0  0  0  0  0
   29.8313    7.1433   -0.9067 C   0  0  0  0  0  0  0  0  0  0  0  0
   29.8519    5.8030   -0.5670 C   0  0  0  0  0  0  0  0  0  0  0  0
   28.0641    2.7592   -0.8297 C   0  0  0  0  0  0  0  0  0  0  0  0
   26.7668    3.4032   -0.9329 C   0  0  0  0  0  0  0  0  0  0  0  0
   25.8465    2.4505   -0.6779 C   0  0  0  0  0  0  0  0  0  0  0  0
   27.9107    1.4488   -0.4963 N   0  0  0  0  0  0  0  0  0  0  0  0
   26.5831    1.2311   -0.4055 C   0  0  0  0  0  0  0  0  0  0  0  0
   25.9470    0.0134   -0.0911 C   0  0  0  0  0  0  0  0  0  0  0  0
   26.5810   -1.1980    0.2435 C   0  0  0  0  0  0  0  0  0  0  0  0
   25.9338   -2.4235    0.5532 C   0  0  0  0  0  0  0  0  0  0  0  0
   26.8979   -3.3473    0.8476 C   0  0  0  0  0  0  0  0  0  0  0  0
   28.1646   -2.7102    0.7327 C   0  0  0  0  0  0  0  0  0  0  0  0
   27.9218   -1.4169    0.3551 N   0  0  0  0  0  0  0  0  0  0  0  0
   29.4272   -3.2833    0.9261 C   0  0  0  0  0  0  0  0  0  0  0  0
   29.4566   -4.6919    1.3805 C   0  0  0  0  0  0  0  0  0  0  0  0
   30.0922   -5.6732    0.6130 C   0  0  0  0  0  0  0  0  0  0  0  0
   30.1254   -6.9881    1.0399 C   0  0  0  0  0  0  0  0  0  0  0  0
   29.5218   -7.3258    2.2480 C   0  0  0  0  0  0  0  0  0  0  0  0
   29.5586   -8.7039    2.7039 N   0  0  0  0  0  0  0  0  0  0  0  0
   30.1131   -9.5094    2.0009 O   0  0  0  0  0  0  0  0  0  0  0  0
   29.0329   -8.9566    3.7576 O   0  0  0  0  0  0  0  0  0  0  0  0
   28.8838   -6.3648    3.0272 C   0  0  0  0  0  0  0  0  0  0  0  0
   28.8513   -5.0540    2.5884 C   0  0  0  0  0  0  0  0  0  0  0  0
   30.6459   -2.6239    0.7292 C   0  0  0  0  0  0  0  0  0  0  0  0
   31.9512   -3.2180    0.9767 C   0  0  0  0  0  0  0  0  0  0  0  0
   32.8638   -2.2746    0.6710 C   0  0  0  0  0  0  0  0  0  0  0  0
   32.1176   -1.1000    0.2545 C   0  0  0  0  0  0  0  0  0  0  0  0
   30.7851   -1.3448    0.3094 N   0  0  0  0  0  0  0  0  0  0  0  0
   33.8154    0.0900   -0.1432 H   0  0  0  0  0  0  0  0  0  0  0  0
   33.8451    2.5990   -0.9628 H   0  0  0  0  0  0  0  0  0  0  0  0
   31.9694    4.4393   -1.4530 H   0  0  0  0  0  0  0  0  0  0  0  0
   30.0535    0.8623   -0.2933 H   0  0  0  0  0  0  0  0  0  0  0  0
   28.1918    4.5241   -3.2379 H   0  0  0  0  0  0  0  0  0  0  0  0
   28.1508    6.9286   -3.8551 H   0  0  0  0  0  0  0  0  0  0  0  0
   30.2831    7.8901   -0.2650 H   0  0  0  0  0  0  0  0  0  0  0  0
   30.3166    5.4884    0.3602 H   0  0  0  0  0  0  0  0  0  0  0  0
   26.6031    4.4450   -1.1561 H   0  0  0  0  0  0  0  0  0  0  0  0
   24.7724    2.5411   -0.6589 H   0  0  0  0  0  0  0  0  0  0  0  0
   24.8660   -2.5711    0.5448 H   0  0  0  0  0  0  0  0  0  0  0  0
   26.7474   -4.3820    1.1087 H   0  0  0  0  0  0  0  0  0  0  0  0
   28.6461   -0.7274    0.1824 H   0  0  0  0  0  0  0  0  0  0  0  0
   30.5468   -5.4009   -0.3323 H   0  0  0  0  0  0  0  0  0  0  0  0
   30.6110   -7.7558    0.4495 H   0  0  0  0  0  0  0  0  0  0  0  0
   28.4251   -6.6521    3.9656 H   0  0  0  0  0  0  0  0  0  0  0  0
   28.3708   -4.2944    3.1940 H   0  0  0  0  0  0  0  0  0  0  0  0
   32.1219   -4.2160    1.3467 H   0  0  0  0  0  0  0  0  0  0  0  0
   33.9394   -2.3334    0.7240 H   0  0  0  0  0  0  0  0  0  0  0  0
   21.9696   -0.0311   -0.0922 C   0  0  0  0  0  0  0  0  0  0  0  0
   20.7477   -0.0472   -0.0835 C   0  0  0  0  0  0  0  0  0  0  0  0
   23.3189   -0.0182   -0.0968 C   0  0  0  0  0  0  0  0  0  0  0  0
   24.5408   -0.0037   -0.0953 C   0  0  0  0  0  0  0  0  0  0  0  0
  1  2  4  0  0  0  0
  2  3  4  0  0  0  0
  3  4  2  0  0  0  0
  4  5  4  0  0  0  0
  2  6  4  0  0  0  0
  5  6  4  0  0  0  0
  5  7  4  0  0  0  0
  7  8  1  0  0  0  0
  8  9  4  0  0  0  0
  9 10  4  0  0  0  0
 10 11  4  0  0  0  0
 11 12  1  0  0  0  0
 12 13  2  0  0  0  0
 12 14  2  0  0  0  0
 13 14  1  0  0  0  0
 11 15  4  0  0  0  0
  8 16  4  0  0  0  0
 15 16  4  0  0  0  0
  7 17  4  0  0  0  0
 17 18  1  0  0  0  0
 18 19  2  0  0  0  0
 17 20  4  0  0  0  0
 19 21  1  0  0  0  0
 20 21  4  0  0  0  0
 21 22  4  0  0  0  0
 22 23  4  0  0  0  0
 23 24  4  0  0  0  0
 24 25  2  0  0  0  0
 25 26  4  0  0  0  0
 23 27  4  0  0  0  0
 26 27  4  0  0  0  0
 26 28  4  0  0  0  0
 28 29  1  0  0  0  0
 29 30  4  0  0  0  0
 30 31  4  0  0  0  0
 31 32  4  0  0  0  0
 32 33  1  0  0  0  0
 33 34  2  0  0  0  0
 33 35  2  0  0  0  0
 34 35  1  0  0  0  0
 32 36  4  0  0  0  0
 29 37  4  0  0  0  0
 36 37  4  0  0  0  0
 28 38  4  0  0  0  0
 38 39  1  0  0  0  0
 39 40  2  0  0  0  0
  1 41  4  0  0  0  0
 40 41  1  0  0  0  0
 38 42  4  0  0  0  0
 41 42  4  0  0  0  0
  1 43  1  0  0  0  0
  3 44  1  0  0  0  0
  4 45  1  0  0  0  0
  6 46  1  0  0  0  0
  9 47  1  0  0  0  0
 10 48  1  0  0  0  0
 15 49  1  0  0  0  0
 16 50  1  0  0  0  0
 18 51  1  0  0  0  0
 19 52  1  0  0  0  0
 24 53  1  0  0  0  0
 25 54  1  0  0  0  0
 27 55  1  0  0  0  0
 30 56  1  0  0  0  0
 31 57  1  0  0  0  0
 36 58  1  0  0  0  0
 37 59  1  0  0  0  0
 39 60  1  0  0  0  0
 40 61  1  0  0  0  0
 62 63  4  0  0  0  0
 63 64  4  0  0  0  0
 64 65  2  0  0  0  0
 65 66  4  0  0  0  0
 63 67  4  0  0  0  0
 66 67  4  0  0  0  0
 66 68  4  0  0  0  0
 68 69  1  0  0  0  0
 69 70  4  0  0  0  0
 70 71  4  0  0  0  0
 71 72  4  0  0  0  0
 72 73  1  0  0  0  0
 73 74  2  0  0  0  0
 73 75  2  0  0  0  0
 74 75  1  0  0  0  0
 72 76  4  0  0  0  0
 69 77  4  0  0  0  0
 76 77  4  0  0  0  0
 68 78  4  0  0  0  0
 78 79  1  0  0  0  0
 79 80  2  0  0  0  0
 78 81  4  0  0  0  0
 80 82  1  0  0  0  0
 81 82  4  0  0  0  0
 82 83  4  0  0  0  0
 83 84  4  0  0  0  0
 84 85  4  0  0  0  0
 85 86  2  0  0  0  0
 86 87  4  0  0  0  0
 84 88  4  0  0  0  0
 87 88  4  0  0  0  0
 87 89  4  0  0  0  0
 89 90  1  0  0  0  0
 90 91  4  0  0  0  0
 91 92  4  0  0  0  0
 92 93  4  0  0  0  0
 93 94  1  0  0  0  0
 94 95  2  0  0  0  0
 94 96  2  0  0  0  0
 95 96  1  0  0  0  0
 93 97  4  0  0  0  0
 90 98  4  0  0  0  0
 97 98  4  0  0  0  0
 89 99  4  0  0  0  0
 99100  1  0  0  0  0
100101  2  0  0  0  0
 62102  4  0  0  0  0
101102  1  0  0  0  0
 99103  4  0  0  0  0
102103  4  0  0  0  0
 62104  1  0  0  0  0
 64105  1  0  0  0  0
 65106  1  0  0  0  0
 67107  1  0  0  0  0
 70108  1  0  0  0  0
 71109  1  0  0  0  0
 76110  1  0  0  0  0
 77111  1  0  0  0  0
 79112  1  0  0  0  0
 80113  1  0  0  0  0
 85114  1  0  0  0  0
 86115  1  0  0  0  0
 88116  1  0  0  0  0
 91117  1  0  0  0  0
 92118  1  0  0  0  0
 97119  1  0  0  0  0
 98120  1  0  0  0  0
100121  1  0  0  0  0
101122  1  0  0  0  0
 22124  4  0  0  0  0
123124  3  0  0  0  0
123125  4  0  0  0  0
 83126  4  0  0  0  0
125126  3  0  0  0  0
M  END
