608

C 122.014288 -0.040555 -0.038756
C 122.739476 -1.419326 0.004427
C 122.121832 -2.645222 0.098055
C 123.143756 -3.628125 0.069199
C 124.352137 -2.968331 -0.041294
N 124.095092 -1.620791 -0.049018
C 125.785859 -3.638415 -0.163020
C 125.837939 -5.124298 -0.310507
C 125.767297 -5.716554 -1.592664
C 125.657128 -4.870634 -2.834453
C 125.805666 -7.115756 -1.711973
C 125.920196 -7.934799 -0.583638
C 125.924347 -9.426220 -0.726046
C 125.973739 -7.344027 0.683243
C 125.939234 -5.948021 0.834918
C 126.008876 -5.351339 2.216512
C 126.912122 -2.873832 -0.160015
C 128.225032 -3.463262 -0.320772
C 129.126511 -2.489295 -0.305019
N 127.101698 -1.521415 -0.034511
C 128.438806 -1.226214 -0.116555
C 129.110482 -0.045154 -0.049822
C 128.338476 1.322787 0.199597
C 128.908883 2.513091 0.608849
C 127.881424 3.485082 0.667165
C 126.706787 2.861384 0.305344
N 126.987729 1.537603 0.055251
C 125.279364 3.553080 0.200647
C 125.221916 5.044218 0.194734
C 125.357089 5.754078 -1.020421
C 125.553273 5.027942 -2.325675
C 125.297618 7.157711 -1.013086
C 125.116178 7.867306 0.178628
C 125.012338 9.361980 0.167105
C 124.972221 7.159254 1.376564
C 125.032803 5.756085 1.402339
C 124.866908 5.033654 2.713721
C 124.159974 2.787859 0.108631
C 122.830641 3.363686 0.004358
C 121.948838 2.371070 -0.054324
C 122.679493 1.128759 0.002259
N 124.003315 1.429471 0.091367
H 120.933230 -0.039724 -0.113544
H 121.058527 -2.813381 0.167862
H 123.012978 -4.698768 0.110051
H 124.800555 -0.887706 -0.083969
H 124.755760 -4.251135 -2.802977
H 125.588846 -5.492357 -3.733933
H 126.540382 -4.234791 -2.947117
H 125.747134 -7.566143 -2.699708
H 124.899738 -9.808850 -0.692373
H 126.383009 -9.727516 -1.673600
H 126.503288 -9.894728 0.076781
H 126.045053 -7.972954 1.567056
H 125.107665 -4.768913 2.431242
H 126.079553 -6.131209 2.982655
H 126.893739 -4.715926 2.319955
H 128.441518 -4.509719 -0.441883
H 130.185540 -2.639631 -0.406714
H 129.952127 2.675259 0.832815
H 127.986685 4.524850 0.939292
H 126.293122 0.828369 -0.167069
H 125.637116 5.730505 -3.162121
H 126.475615 4.439309 -2.306472
H 124.700421 4.375028 -2.536020
H 125.390463 7.697688 -1.952000
H 125.455563 9.789095 1.072206
H 123.962118 9.663653 0.111641
H 125.545783 9.788073 -0.688528
H 124.808334 7.701267 2.304503
H 124.849284 5.737178 3.553546
H 123.923688 4.479455 2.730695
H 125.701510 4.349008 2.891463
H 122.597083 4.413054 -0.018760
H 120.881703 2.470574 -0.132990
C 205.490965 -0.049185 -0.038537
C 204.765778 1.329998 -0.065490
C 205.383421 2.559069 -0.034294
C 204.361497 3.539235 -0.113072
C 203.153116 2.874678 -0.189886
N 203.410161 1.528486 -0.129107
C 201.719395 3.537708 -0.345514
C 201.667315 5.014174 -0.568335
C 201.737957 5.540495 -1.878938
C 201.848126 4.632550 -3.076125
C 201.699587 6.931824 -2.069212
C 201.585058 7.807159 -0.983966
C 201.580907 9.289414 -1.201996
C 201.531515 7.281544 0.311305
C 201.566020 5.895053 0.533741
C 201.496378 5.369366 1.943877
C 200.593131 2.774266 -0.303650
C 199.280222 3.354764 -0.494158
C 198.378743 2.382856 -0.428921
N 200.403555 1.429977 -0.109567
C 199.066448 1.130987 -0.176500
C 198.394771 -0.045154 -0.049822
C 199.166777 -1.398650 0.268805
C 198.596371 -2.566614 0.738029
C 199.623830 -3.534384 0.845675
C 200.798466 -2.929883 0.452620
N 200.517525 -1.620525 0.135564
C 202.225889 -3.626006 0.383216
C 202.283338 -5.115518 0.453102
C 202.148164 -5.886225 -0.724400
C 201.951981 -5.227371 -2.064876
C 202.207636 -7.287670 -0.645731
C 202.389076 -7.935775 0.580511
C 202.492916 -9.429103 0.644974
C 202.533033 -7.167750 1.740909
C 202.472450 -5.765083 1.695329
C 202.638345 -4.976932 2.968297
C 203.345279 -2.866451 0.252424
C 204.674613 -3.446835 0.177554
C 205.556416 -2.458484 0.068495
C 204.825761 -1.214903 0.061859
N 203.501939 -1.510697 0.166137
H 206.572024 -0.053817 -0.113186
H 206.446727 2.730559 0.026876
H 204.492276 4.610570 -0.126691
H 202.704699 0.794573 -0.126750
H 202.749493 4.015451 -3.013201
H 201.916408 5.207750 -4.006043
H 200.964871 3.991802 -3.156325
H 201.758119 7.331424 -3.078563
H 202.605516 9.673261 -1.187816
H 201.122244 9.542158 -2.163641
H 201.001965 9.798123 -0.424021
H 201.460201 7.954581 1.162009
H 202.397589 4.798607 2.187934
H 201.425700 6.187169 2.669391
H 200.611514 4.740032 2.079484
H 199.063736 4.393712 -0.668303
H 197.319713 2.527828 -0.538126
H 197.553127 -2.717188 0.969949
H 199.518569 -4.558977 1.170299
H 201.212132 -0.923508 -0.122517
H 201.868138 -5.971542 -2.864531
H 201.029639 -4.638523 -2.075616
H 202.804833 -4.585992 -2.308135
H 202.114791 -7.874673 -1.555985
H 202.049691 -9.809661 1.570615
H 203.543136 -9.733205 0.604916
H 201.959470 -9.898136 -0.187895
H 202.696919 -7.661896 2.695198
H 202.655969 -5.636859 3.842795
H 203.581566 -4.422585 2.957079
H 201.803744 -4.284136 3.111010
H 204.908170 -4.496021 0.207803
H 206.623550 -2.561858 -0.005012
C 131.033411 -0.045154 -0.049822
C 132.255329 -0.045154 -0.049822
C 141.736164 -0.045154 -0.049822
C 142.958081 -0.045154 -0.049822
C 152.438916 -0.045154 -0.049822
C 153.660833 -0.045154 -0.049822
C 163.141668 -0.045154 -0.049822
C 164.363586 -0.045154 -0.049822
C 173.844420 -0.045154 -0.049822
C 175.066338 -0.045154 -0.049822
C 184.547172 -0.045154 -0.049822
C 185.769090 -0.045154 -0.049822
C 195.249925 -0.045154 -0.049822
C 196.471842 -0.045154 -0.049822
C 133.405307 0.016679 0.018403
C 134.193696 -0.768319 1.148413
C 133.666188 -1.266028 2.322707
C 134.701701 -1.969046 2.988346
C 135.833230 -1.868214 2.207858
N 135.531728 -1.078799 1.125512
C 137.232296 -2.559608 2.488066
C 137.239666 -3.791649 3.331540
C 136.979880 -5.052616 2.746180
C 136.697377 -5.181433 1.271856
C 136.999439 -6.206477 3.547743
C 137.262482 -6.130112 4.919385
C 137.323888 -7.374741 5.750688
C 137.529472 -4.881733 5.491321
C 137.511008 -3.708953 4.717492
C 137.810656 -2.386956 5.375266
C 138.364881 -2.061055 1.924298
C 139.656691 -2.687915 2.115913
C 140.565496 -1.988839 1.445800
N 138.571025 -0.977810 1.114453
C 139.898745 -0.881295 0.790260
C 140.565644 0.016679 0.018403
C 139.777204 1.205243 -0.673281
C 140.301702 2.419717 -1.066653
C 139.266550 3.137878 -1.716859
C 138.137296 2.346592 -1.688553
N 138.440801 1.202751 -0.992478
C 136.738322 2.679725 -2.357414
C 136.732533 3.627152 -3.511490
C 137.002061 3.155719 -4.817177
C 137.284205 1.698185 -5.076096
C 137.005266 4.058962 -5.893144
C 136.735207 5.417797 -5.697584
C 136.775240 6.372548 -6.851914
C 136.482749 5.881451 -4.402181
C 136.474051 5.002992 -3.305627
C 136.187622 5.543004 -1.928660
C 135.606280 2.075318 -1.907713
C 134.314564 2.318090 -2.515570
C 133.406252 1.594036 -1.871733
C 134.072937 0.852805 -0.819633
N 135.401233 1.179474 -0.894452
H 132.644895 -1.159380 2.654643
H 134.626074 -2.507228 3.921264
H 136.201526 -0.753572 0.433940
H 135.806557 -4.609911 0.996855
H 137.553542 -4.838074 0.684685
H 136.508772 -6.223059 0.993758
H 136.810606 -7.174059 3.089602
H 136.995685 -7.176013 6.776020
H 136.666036 -8.149535 5.344276
H 138.348272 -7.757486 5.775564
H 137.758177 -4.814351 6.551977
H 137.012156 -1.664009 5.181742
H 137.886101 -2.494637 6.463369
H 138.764887 -1.987520 5.018299
H 139.853232 -3.571139 2.697723
H 141.613915 -2.222559 1.408634
H 141.321710 2.746070 -0.927577
H 139.342079 4.113326 -2.173712
H 137.772993 0.483801 -0.728350
H 137.456115 1.511051 -6.140759
H 136.432642 1.081134 -4.774627
H 138.183509 1.377535 -4.542478
H 137.218593 3.691396 -6.893993
H 136.446658 5.883264 -7.774970
H 137.793513 6.747118 -6.991367
H 136.106764 7.222851 -6.680722
H 136.288455 6.938488 -4.237932
H 137.025712 5.347238 -1.251636
H 136.040600 6.629497 -1.951790
H 135.271849 5.102322 -1.523545
H 134.118382 2.970698 -3.347630
H 132.358092 1.576868 -2.107373
C 144.108059 0.016679 0.018403
C 144.896448 -0.768319 1.148413
C 144.368940 -1.266028 2.322707
C 145.404453 -1.969046 2.988346
C 146.535982 -1.868214 2.207858
N 146.234481 -1.078799 1.125512
C 147.935048 -2.559608 2.488066
C 147.942418 -3.791649 3.331540
C 147.682632 -5.052616 2.746180
C 147.400130 -5.181433 1.271856
C 147.702191 -6.206477 3.547743
C 147.965234 -6.130112 4.919385
C 148.026640 -7.374741 5.750688
C 148.232224 -4.881733 5.491321
C 148.213760 -3.708953 4.717492
C 148.513408 -2.386956 5.375266
C 149.067633 -2.061055 1.924298
C 150.359443 -2.687915 2.115913
C 151.268248 -1.988839 1.445800
N 149.273777 -0.977810 1.114453
C 150.601497 -0.881295 0.790260
C 151.268396 0.016679 0.018403
C 150.479957 1.205243 -0.673281
C 151.004454 2.419717 -1.066653
C 149.969302 3.137878 -1.716859
C 148.840048 2.346592 -1.688553
N 149.143553 1.202751 -0.992478
C 147.441074 2.679725 -2.357414
C 147.435285 3.627152 -3.511490
C 147.704813 3.155719 -4.817177
C 147.986957 1.698185 -5.076096
C 147.708018 4.058962 -5.893144
C 147.437959 5.417797 -5.697584
C 147.477992 6.372548 -6.851914
C 147.185501 5.881451 -4.402181
C 147.176803 5.002992 -3.305627
C 146.890374 5.543004 -1.928660
C 146.309033 2.075318 -1.907713
C 145.017317 2.318090 -2.515570
C 144.109004 1.594036 -1.871733
C 144.775689 0.852805 -0.819633
N 146.103985 1.179474 -0.894452
H 143.347647 -1.159380 2.654643
H 145.328826 -2.507228 3.921264
H 146.904278 -0.753572 0.433940
H 146.509309 -4.609911 0.996855
H 148.256294 -4.838074 0.684685
H 147.211524 -6.223059 0.993758
H 147.513358 -7.174059 3.089602
H 147.698438 -7.176013 6.776020
H 147.368789 -8.149535 5.344276
H 149.051024 -7.757486 5.775564
H 148.460929 -4.814351 6.551977
H 147.714908 -1.664009 5.181742
H 148.588853 -2.494637 6.463369
H 149.467639 -1.987520 5.018299
H 150.555984 -3.571139 2.697723
H 152.316667 -2.222559 1.408634
H 152.024462 2.746070 -0.927577
H 150.044831 4.113326 -2.173712
H 148.475746 0.483801 -0.728350
H 148.158867 1.511051 -6.140759
H 147.135394 1.081134 -4.774627
H 148.886261 1.377535 -4.542478
H 147.921345 3.691396 -6.893993
H 147.149410 5.883264 -7.774970
H 148.496265 6.747118 -6.991367
H 146.809516 7.222851 -6.680722
H 146.991207 6.938488 -4.237932
H 147.728464 5.347238 -1.251636
H 146.743352 6.629497 -1.951790
H 145.974601 5.102322 -1.523545
H 144.821135 2.970698 -3.347630
H 143.060844 1.576868 -2.107373
C 154.810812 0.016679 0.018403
C 155.599200 -0.768319 1.148413
C 155.071692 -1.266028 2.322707
C 156.107205 -1.969046 2.988346
C 157.238735 -1.868214 2.207858
N 156.937233 -1.078799 1.125512
C 158.637801 -2.559608 2.488066
C 158.645171 -3.791649 3.331540
C 158.385384 -5.052616 2.746180
C 158.102882 -5.181433 1.271856
C 158.404943 -6.206477 3.547743
C 158.667986 -6.130112 4.919385
C 158.729393 -7.374741 5.750688
C 158.934976 -4.881733 5.491321
C 158.916512 -3.708953 4.717492
C 159.216160 -2.386956 5.375266
C 159.770385 -2.061055 1.924298
C 161.062195 -2.687915 2.115913
C 161.971000 -1.988839 1.445800
N 159.976530 -0.977810 1.114453
C 161.304249 -0.881295 0.790260
C 161.971149 0.016679 0.018403
C 161.182709 1.205243 -0.673281
C 161.707206 2.419717 -1.066653
C 160.672054 3.137878 -1.716859
C 159.542800 2.346592 -1.688553
N 159.846305 1.202751 -0.992478
C 158.143827 2.679725 -2.357414
C 158.138037 3.627152 -3.511490
C 158.407565 3.155719 -4.817177
C 158.689709 1.698185 -5.076096
C 158.410770 4.058962 -5.893144
C 158.140711 5.417797 -5.697584
C 158.180744 6.372548 -6.851914
C 157.888253 5.881451 -4.402181
C 157.879555 5.002992 -3.305627
C 157.593126 5.543004 -1.928660
C 157.011785 2.075318 -1.907713
C 155.720069 2.318090 -2.515570
C 154.811756 1.594036 -1.871733
C 155.478441 0.852805 -0.819633
N 156.806737 1.179474 -0.894452
H 154.050399 -1.159380 2.654643
H 156.031579 -2.507228 3.921264
H 157.607031 -0.753572 0.433940
H 157.212061 -4.609911 0.996855
H 158.959046 -4.838074 0.684685
H 157.914277 -6.223059 0.993758
H 158.216110 -7.174059 3.089602
H 158.401190 -7.176013 6.776020
H 158.071541 -8.149535 5.344276
H 159.753777 -7.757486 5.775564
H 159.163681 -4.814351 6.551977
H 158.417660 -1.664009 5.181742
H 159.291605 -2.494637 6.463369
H 160.170391 -1.987520 5.018299
H 161.258736 -3.571139 2.697723
H 163.019419 -2.222559 1.408634
H 162.727215 2.746070 -0.927577
H 160.747583 4.113326 -2.173712
H 159.178498 0.483801 -0.728350
H 158.861619 1.511051 -6.140759
H 157.838147 1.081134 -4.774627
H 159.589013 1.377535 -4.542478
H 158.624097 3.691396 -6.893993
H 157.852163 5.883264 -7.774970
H 159.199018 6.747118 -6.991367
H 157.512268 7.222851 -6.680722
H 157.693959 6.938488 -4.237932
H 158.431216 5.347238 -1.251636
H 157.446104 6.629497 -1.951790
H 156.677354 5.102322 -1.523545
H 155.523887 2.970698 -3.347630
H 153.763596 1.576868 -2.107373
C 165.513564 0.016679 0.018403
C 166.301952 -0.768319 1.148413
C 165.774445 -1.266028 2.322707
C 166.809957 -1.969046 2.988346
C 167.941487 -1.868214 2.207858
N 167.639985 -1.078799 1.125512
C 169.340553 -2.559608 2.488066
C 169.347923 -3.791649 3.331540
C 169.088136 -5.052616 2.746180
C 168.805634 -5.181433 1.271856
C 169.107696 -6.206477 3.547743
C 169.370739 -6.130112 4.919385
C 169.432145 -7.374741 5.750688
C 169.637729 -4.881733 5.491321
C 169.619264 -3.708953 4.717492
C 169.918913 -2.386956 5.375266
C 170.473137 -2.061055 1.924298
C 171.764948 -2.687915 2.115913
C 172.673752 -1.988839 1.445800
N 170.679282 -0.977810 1.114453
C 172.007001 -0.881295 0.790260
C 172.673901 0.016679 0.018403
C 171.885461 1.205243 -0.673281
C 172.409959 2.419717 -1.066653
C 171.374807 3.137878 -1.716859
C 170.245552 2.346592 -1.688553
N 170.549057 1.202751 -0.992478
C 168.846579 2.679725 -2.357414
C 168.840789 3.627152 -3.511490
C 169.110317 3.155719 -4.817177
C 169.392462 1.698185 -5.076096
C 169.113523 4.058962 -5.893144
C 168.843463 5.417797 -5.697584
C 168.883497 6.372548 -6.851914
C 168.591005 5.881451 -4.402181
C 168.582307 5.002992 -3.305627
C 168.295879 5.543004 -1.928660
C 167.714537 2.075318 -1.907713
C 166.422821 2.318090 -2.515570
C 165.514508 1.594036 -1.871733
C 166.181194 0.852805 -0.819633
N 167.509490 1.179474 -0.894452
H 164.753151 -1.159380 2.654643
H 166.734331 -2.507228 3.921264
H 168.309783 -0.753572 0.433940
H 167.914813 -4.609911 0.996855
H 169.661798 -4.838074 0.684685
H 168.617029 -6.223059 0.993758
H 168.918863 -7.174059 3.089602
H 169.103942 -7.176013 6.776020
H 168.774293 -8.149535 5.344276
H 170.456529 -7.757486 5.775564
H 169.866434 -4.814351 6.551977
H 169.120412 -1.664009 5.181742
H 169.994357 -2.494637 6.463369
H 170.873144 -1.987520 5.018299
H 171.961488 -3.571139 2.697723
H 173.722172 -2.222559 1.408634
H 173.429967 2.746070 -0.927577
H 171.450335 4.113326 -2.173712
H 169.881250 0.483801 -0.728350
H 169.564371 1.511051 -6.140759
H 168.540899 1.081134 -4.774627
H 170.291766 1.377535 -4.542478
H 169.326850 3.691396 -6.893993
H 168.554915 5.883264 -7.774970
H 169.901770 6.747118 -6.991367
H 168.215020 7.222851 -6.680722
H 168.396712 6.938488 -4.237932
H 169.133969 5.347238 -1.251636
H 168.148856 6.629497 -1.951790
H 167.380106 5.102322 -1.523545
H 166.226639 2.970698 -3.347630
H 164.466349 1.576868 -2.107373
C 176.216316 0.016679 0.018403
C 177.004705 -0.768319 1.148413
C 176.477197 -1.266028 2.322707
C 177.512709 -1.969046 2.988346
C 178.644239 -1.868214 2.207858
N 178.342737 -1.078799 1.125512
C 180.043305 -2.559608 2.488066
C 180.050675 -3.791649 3.331540
C 179.790889 -5.052616 2.746180
C 179.508386 -5.181433 1.271856
C 179.810448 -6.206477 3.547743
C 180.073491 -6.130112 4.919385
C 180.134897 -7.374741 5.750688
C 180.340481 -4.881733 5.491321
C 180.322017 -3.708953 4.717492
C 180.621665 -2.386956 5.375266
C 181.175890 -2.061055 1.924298
C 182.467700 -2.687915 2.115913
C 183.376504 -1.988839 1.445800
N 181.382034 -0.977810 1.114453
C 182.709754 -0.881295 0.790260
C 183.376653 0.016679 0.018403
C 182.588213 1.205243 -0.673281
C 183.112711 2.419717 -1.066653
C 182.077559 3.137878 -1.716859
C 180.948304 2.346592 -1.688553
N 181.251810 1.202751 -0.992478
C 179.549331 2.679725 -2.357414
C 179.543542 3.627152 -3.511490
C 179.813069 3.155719 -4.817177
C 180.095214 1.698185 -5.076096
C 179.816275 4.058962 -5.893144
C 179.546216 5.417797 -5.697584
C 179.586249 6.372548 -6.851914
C 179.293758 5.881451 -4.402181
C 179.285059 5.002992 -3.305627
C 178.998631 5.543004 -1.928660
C 178.417289 2.075318 -1.907713
C 177.125573 2.318090 -2.515570
C 176.217261 1.594036 -1.871733
C 176.883946 0.852805 -0.819633
N 178.212242 1.179474 -0.894452
H 175.455903 -1.159380 2.654643
H 177.437083 -2.507228 3.921264
H 179.012535 -0.753572 0.433940
H 178.617566 -4.609911 0.996855
H 180.364550 -4.838074 0.684685
H 179.319781 -6.223059 0.993758
H 179.621615 -7.174059 3.089602
H 179.806694 -7.176013 6.776020
H 179.477045 -8.149535 5.344276
H 181.159281 -7.757486 5.775564
H 180.569186 -4.814351 6.551977
H 179.823165 -1.664009 5.181742
H 180.697109 -2.494637 6.463369
H 181.575896 -1.987520 5.018299
H 182.664240 -3.571139 2.697723
H 184.424924 -2.222559 1.408634
H 184.132719 2.746070 -0.927577
H 182.153088 4.113326 -2.173712
H 180.584002 0.483801 -0.728350
H 180.267123 1.511051 -6.140759
H 179.243651 1.081134 -4.774627
H 180.994518 1.377535 -4.542478
H 180.029602 3.691396 -6.893993
H 179.257667 5.883264 -7.774970
H 180.604522 6.747118 -6.991367
H 178.917772 7.222851 -6.680722
H 179.099464 6.938488 -4.237932
H 179.836721 5.347238 -1.251636
H 178.851609 6.629497 -1.951790
H 178.082858 5.102322 -1.523545
H 176.929391 2.970698 -3.347630
H 175.169101 1.576868 -2.107373
C 186.919068 0.016679 0.018403
C 187.707457 -0.768319 1.148413
C 187.179949 -1.266028 2.322707
C 188.215462 -1.969046 2.988346
C 189.346991 -1.868214 2.207858
N 189.045489 -1.078799 1.125512
C 190.746057 -2.559608 2.488066
C 190.753427 -3.791649 3.331540
C 190.493641 -5.052616 2.746180
C 190.211138 -5.181433 1.271856
C 190.513200 -6.206477 3.547743
C 190.776243 -6.130112 4.919385
C 190.837649 -7.374741 5.750688
C 191.043233 -4.881733 5.491321
C 191.024769 -3.708953 4.717492
C 191.324417 -2.386956 5.375266
C 191.878642 -2.061055 1.924298
C 193.170452 -2.687915 2.115913
C 194.079257 -1.988839 1.445800
N 192.084786 -0.977810 1.114453
C 193.412506 -0.881295 0.790260
C 194.079405 0.016679 0.018403
C 193.290965 1.205243 -0.673281
C 193.815463 2.419717 -1.066653
C 192.780311 3.137878 -1.716859
C 191.651057 2.346592 -1.688553
N 191.954562 1.202751 -0.992478
C 190.252083 2.679725 -2.357414
C 190.246294 3.627152 -3.511490
C 190.515822 3.155719 -4.817177
C 190.797966 1.698185 -5.076096
C 190.519027 4.058962 -5.893144
C 190.248968 5.417797 -5.697584
C 190.289001 6.372548 -6.851914
C 189.996510 5.881451 -4.402181
C 189.987812 5.002992 -3.305627
C 189.701383 5.543004 -1.928660
C 189.120042 2.075318 -1.907713
C 187.828326 2.318090 -2.515570
C 186.920013 1.594036 -1.871733
C 187.586698 0.852805 -0.819633
N 188.914994 1.179474 -0.894452
H 186.158656 -1.159380 2.654643
H 188.139835 -2.507228 3.921264
H 189.715287 -0.753572 0.433940
H 189.320318 -4.609911 0.996855
H 191.067303 -4.838074 0.684685
H 190.022533 -6.223059 0.993758
H 190.324367 -7.174059 3.089602
H 190.509447 -7.176013 6.776020
H 190.179798 -8.149535 5.344276
H 191.862033 -7.757486 5.775564
H 191.271938 -4.814351 6.551977
H 190.525917 -1.664009 5.181742
H 191.399862 -2.494637 6.463369
H 192.278648 -1.987520 5.018299
H 193.366993 -3.571139 2.697723
H 195.127676 -2.222559 1.408634
H 194.835471 2.746070 -0.927577
H 192.855840 4.113326 -2.173712
H 191.286755 0.483801 -0.728350
H 190.969876 1.511051 -6.140759
H 189.946403 1.081134 -4.774627
H 191.697270 1.377535 -4.542478
H 190.732354 3.691396 -6.893993
H 189.960419 5.883264 -7.774970
H 191.307274 6.747118 -6.991367
H 189.620525 7.222851 -6.680722
H 189.802216 6.938488 -4.237932
H 190.539473 5.347238 -1.251636
H 189.554361 6.629497 -1.951790
H 188.785610 5.102322 -1.523545
H 187.632143 2.970698 -3.347630
H 185.871853 1.576868 -2.107373
