484

C 79.063326 -0.170982 -0.336905
C 79.775118 1.180350 -0.644821
C 79.139745 2.372152 -0.909615
C 80.150603 3.344090 -1.118028
C 81.372259 2.711806 -0.975264
N 81.130438 1.393537 -0.677804
C 82.800399 3.390209 -1.100360
C 82.837485 4.808906 -1.531618
C 82.994856 5.843016 -0.600407
C 82.985861 7.173760 -1.030208
C 83.174502 8.247429 -0.027439
O 82.764212 9.452398 -0.477290
O 83.636755 8.139455 1.092098
C 82.819339 7.471589 -2.391671
C 82.668410 6.441630 -3.320965
C 82.677804 5.115280 -2.890772
C 83.934330 2.687507 -0.836858
C 85.243055 3.307317 -0.889655
C 86.149004 2.401270 -0.541468
N 84.134234 1.377453 -0.485140
C 85.472186 1.143560 -0.290108
C 86.154237 0.018288 0.054388
C 85.405744 -1.373958 0.228049
C 86.012213 -2.615773 0.249795
C 84.997066 -3.587030 0.420347
C 83.793558 -2.916832 0.484886
N 84.049170 -1.569678 0.351453
C 82.367966 -3.590868 0.657006
C 82.319223 -5.015064 1.057451
C 82.335197 -6.021885 0.082728
C 82.300486 -7.366251 0.452957
C 82.243812 -7.710439 1.804237
C 82.225528 -6.709208 2.787709
C 82.155695 -7.124908 4.207825
O 82.336114 -6.104751 5.065079
O 81.975049 -8.262131 4.610039
C 82.266279 -5.362488 2.413123
C 81.237806 -2.871186 0.438090
C 79.909663 -3.449227 0.555097
C 79.018319 -2.505662 0.272062
C 79.739799 -1.292244 -0.026000
N 81.068806 -1.561347 0.086150
H 77.979706 -0.191057 -0.369683
H 78.071479 2.526095 -0.944040
H 80.003020 4.389169 -1.344396
H 81.843475 0.687169 -0.513363
H 83.120264 5.593142 0.451476
H 82.939375 10.028524 0.294454
H 82.815960 8.501909 -2.735439
H 82.544963 6.663181 -4.376706
H 82.559087 4.301436 -3.605772
H 85.460947 4.328046 -1.146587
H 87.206266 2.586862 -0.488725
H 87.070047 -2.810413 0.152331
H 85.132259 -4.657118 0.478494
H 83.335952 -0.845540 0.297876
H 82.374284 -5.738090 -0.967284
H 82.317163 -8.137310 -0.312497
H 82.213988 -8.758983 2.090682
H 82.264354 -6.503461 5.953154
H 82.249525 -4.565773 3.155360
H 79.679802 -4.465922 0.820294
H 77.949686 -2.618833 0.268608
C 194.864303 0.030792 -0.380096
C 194.152511 -1.328175 -0.107848
C 194.787884 -2.523939 0.138440
C 193.777027 -3.496024 0.346163
C 192.555370 -2.860703 0.217585
N 192.797191 -1.536183 -0.050670
C 191.127230 -3.530869 0.381162
C 191.090145 -5.001789 0.568454
C 190.932773 -5.564081 1.841391
C 190.941768 -6.954159 1.994007
C 190.753127 -7.523250 3.348424
O 191.163417 -8.806781 3.431261
O 190.290874 -6.966442 4.325659
C 191.108290 -7.783220 0.873766
C 191.259220 -7.223931 -0.395722
C 191.249826 -5.837702 -0.546182
C 189.993299 -2.781876 0.333915
C 188.684574 -3.368986 0.539471
C 187.778625 -2.399799 0.486246
N 189.793396 -1.442639 0.118527
C 188.455444 -1.149403 0.200722
C 187.773392 0.018288 0.054388
C 188.521885 1.359625 -0.357100
C 187.915416 2.501524 -0.845610
C 188.930563 3.457489 -1.087599
C 190.134071 2.872439 -0.754362
N 189.878459 1.588711 -0.324630
C 191.559664 3.557870 -0.873249
C 191.608406 5.021194 -1.090905
C 191.592432 5.540775 -2.392369
C 191.627143 6.918895 -2.604914
C 191.683817 7.786085 -1.512941
C 191.702101 7.275185 -0.205783
C 191.771934 8.235798 0.919720
O 191.591516 7.655963 2.119468
O 191.952580 9.438020 0.821153
C 191.661350 5.893133 0.003750
C 192.689824 2.811637 -0.778372
C 194.017966 3.386924 -0.908246
C 194.909310 2.410177 -0.780220
C 194.187831 1.181073 -0.555437
N 192.858823 1.472505 -0.563274
H 195.947923 0.035690 -0.418220
H 195.856150 -2.678484 0.170050
H 193.924610 -4.542192 0.567446
H 192.084154 -0.824396 -0.189798
H 190.807366 -4.905503 2.698811
H 190.988254 -9.016501 4.371222
H 191.111670 -8.863980 0.981894
H 191.382666 -7.858248 -1.268256
H 191.368543 -5.387866 -1.531684
H 188.466682 -4.405449 0.722900
H 186.721363 -2.547538 0.610342
H 186.857583 2.639210 -1.014213
H 188.795370 4.457612 -1.472600
H 190.591677 0.906095 -0.077078
H 191.553346 4.852015 -3.234196
H 191.610467 7.309041 -3.618935
H 191.713641 8.860007 -1.680830
H 191.663275 8.383278 2.766507
H 191.678104 5.470077 1.007092
H 194.247827 4.423089 -1.082483
H 195.977943 2.512017 -0.829699
C 88.264419 0.032978 0.064663
C 89.722646 0.011141 0.046790
C 90.856574 -0.009612 0.045299
C 92.217956 -0.022202 0.043108
C 93.492174 -0.011896 0.038343
C 94.680637 0.006902 0.032187
C 96.032998 0.031687 0.048055
C 97.133265 0.032978 0.064663
C 105.945601 0.032978 0.064663
C 107.403827 0.011141 0.046790
C 108.537755 -0.009612 0.045299
C 109.899137 -0.022202 0.043108
C 111.173356 -0.011896 0.038343
C 112.361818 0.006902 0.032187
C 113.714179 0.031687 0.048055
C 114.814447 0.032978 0.064663
C 123.626783 0.032978 0.064663
C 125.085009 0.011141 0.046790
C 126.218937 -0.009612 0.045299
C 127.580319 -0.022202 0.043108
C 128.854538 -0.011896 0.038343
C 130.043000 0.006902 0.032187
C 131.395361 0.031687 0.048055
C 132.495628 0.032978 0.064663
C 141.307964 0.032978 0.064663
C 142.766191 0.011141 0.046790
C 143.900119 -0.009612 0.045299
C 145.261500 -0.022202 0.043108
C 146.535719 -0.011896 0.038343
C 147.724182 0.006902 0.032187
C 149.076542 0.031687 0.048055
C 150.176810 0.032978 0.064663
C 158.989146 0.032978 0.064663
C 160.447372 0.011141 0.046790
C 161.581300 -0.009612 0.045299
C 162.942682 -0.022202 0.043108
C 164.216901 -0.011896 0.038343
C 165.405363 0.006902 0.032187
C 166.757724 0.031687 0.048055
C 167.857991 0.032978 0.064663
C 176.670328 0.032978 0.064663
C 178.128554 0.011141 0.046790
C 179.262482 -0.009612 0.045299
C 180.623864 -0.022202 0.043108
C 181.898083 -0.011896 0.038343
C 183.086545 0.006902 0.032187
C 184.438906 0.031687 0.048055
C 185.539173 0.032978 0.064663
C 97.955084 -0.012539 -0.032118
C 98.750832 1.353991 -0.129564
C 98.250352 2.573498 -0.538284
C 99.289174 3.528407 -0.391047
C 100.392420 2.860473 0.097174
N 100.077845 1.527223 0.178054
C 101.778470 3.505710 0.504672
C 101.760114 4.896927 1.009092
C 102.139128 5.964784 0.185561
C 102.106486 7.273792 0.677951
C 102.511852 8.380483 -0.221751
O 102.483657 9.585386 0.384309
O 102.845601 8.297014 -1.388963
C 101.691749 7.513795 1.996890
C 101.311095 6.451196 2.817417
C 101.344518 5.148114 2.323078
C 102.915860 2.764236 0.459506
C 104.201124 3.289149 0.872360
C 105.110493 2.331373 0.726814
N 103.126699 1.469016 0.076527
C 104.450105 1.147016 0.215940
C 105.113538 -0.012539 -0.032118
C 104.318302 -1.270559 -0.575588
C 104.821331 -2.288517 -1.359939
C 103.783457 -3.239291 -1.536197
C 102.677520 -2.768692 -0.859617
N 102.990973 -1.536051 -0.343987
C 101.289017 -3.511061 -0.695937
C 101.297121 -4.990878 -0.741625
C 100.861010 -5.663205 -1.891736
C 100.880723 -7.056401 -1.947000
C 101.341489 -7.785936 -0.850342
C 101.783328 -7.123046 0.304414
C 102.264760 -7.944998 1.440005
O 102.655583 -7.212030 2.496096
O 102.321123 -9.162944 1.466054
C 101.761712 -5.725198 0.356366
C 100.153310 -2.796047 -0.483425
C 98.866202 -3.427435 -0.275697
C 97.957389 -2.475451 -0.093374
C 98.619398 -1.189183 -0.175570
N 99.944706 -1.447476 -0.402616
H 97.245099 2.761957 -0.883458
H 99.232127 4.586264 -0.598470
H 100.735392 0.781897 0.388154
H 102.460174 5.756536 -0.833676
H 102.776028 10.181813 -0.335100
H 101.660689 8.524269 2.393446
H 100.988570 6.630308 3.838415
H 101.050316 4.310901 2.953806
H 104.396650 4.280336 1.240063
H 106.155043 2.435807 0.957183
H 105.827862 -2.353028 -1.744617
H 103.842744 -4.170748 -2.078701
H 102.332421 -0.901760 0.098793
H 100.502750 -5.081073 -2.739175
H 100.537005 -7.564838 -2.842384
H 101.355669 -8.871791 -0.896870
H 102.947140 -7.865520 3.160114
H 102.100208 -5.186387 1.238902
H 98.669812 -4.484450 -0.260598
H 96.912293 -2.649992 0.086429
C 115.636266 -0.012539 -0.032118
C 116.432014 1.353991 -0.129564
C 115.931534 2.573498 -0.538284
C 116.970355 3.528407 -0.391047
C 118.073601 2.860473 0.097174
N 117.759027 1.527223 0.178054
C 119.459652 3.505710 0.504672
C 119.441295 4.896927 1.009092
C 119.820309 5.964784 0.185561
C 119.787668 7.273792 0.677951
C 120.193034 8.380483 -0.221751
O 120.164838 9.585386 0.384309
O 120.526782 8.297014 -1.388963
C 119.372931 7.513795 1.996890
C 118.992277 6.451196 2.817417
C 119.025700 5.148114 2.323078
C 120.597041 2.764236 0.459506
C 121.882306 3.289149 0.872360
C 122.791674 2.331373 0.726814
N 120.807881 1.469016 0.076527
C 122.131287 1.147016 0.215940
C 122.794720 -0.012539 -0.032118
C 121.999483 -1.270559 -0.575588
C 122.502513 -2.288517 -1.359939
C 121.464639 -3.239291 -1.536197
C 120.358702 -2.768692 -0.859617
N 120.672155 -1.536051 -0.343987
C 118.970199 -3.511061 -0.695937
C 118.978303 -4.990878 -0.741625
C 118.542191 -5.663205 -1.891736
C 118.561904 -7.056401 -1.947000
C 119.022671 -7.785936 -0.850342
C 119.464510 -7.123046 0.304414
C 119.945942 -7.944998 1.440005
O 120.336765 -7.212030 2.496096
O 120.002305 -9.162944 1.466054
C 119.442893 -5.725198 0.356366
C 117.834492 -2.796047 -0.483425
C 116.547384 -3.427435 -0.275697
C 115.638570 -2.475451 -0.093374
C 116.300579 -1.189183 -0.175570
N 117.625888 -1.447476 -0.402616
H 114.926280 2.761957 -0.883458
H 116.913309 4.586264 -0.598470
H 118.416573 0.781897 0.388154
H 120.141355 5.756536 -0.833676
H 120.457209 10.181813 -0.335100
H 119.341871 8.524269 2.393446
H 118.669752 6.630308 3.838415
H 118.731498 4.310901 2.953806
H 122.077831 4.280336 1.240063
H 123.836224 2.435807 0.957183
H 123.509043 -2.353028 -1.744617
H 121.523925 -4.170748 -2.078701
H 120.013602 -0.901760 0.098793
H 118.183931 -5.081073 -2.739175
H 118.218186 -7.564838 -2.842384
H 119.036850 -8.871791 -0.896870
H 120.628321 -7.865520 3.160114
H 119.781390 -5.186387 1.238902
H 116.350994 -4.484450 -0.260598
H 114.593474 -2.649992 0.086429
C 133.317447 -0.012539 -0.032118
C 134.113196 1.353991 -0.129564
C 133.612716 2.573498 -0.538284
C 134.651537 3.528407 -0.391047
C 135.754783 2.860473 0.097174
N 135.440208 1.527223 0.178054
C 137.140834 3.505710 0.504672
C 137.122477 4.896927 1.009092
C 137.501491 5.964784 0.185561
C 137.468850 7.273792 0.677951
C 137.874215 8.380483 -0.221751
O 137.846020 9.585386 0.384309
O 138.207964 8.297014 -1.388963
C 137.054112 7.513795 1.996890
C 136.673459 6.451196 2.817417
C 136.706882 5.148114 2.323078
C 138.278223 2.764236 0.459506
C 139.563487 3.289149 0.872360
C 140.472856 2.331373 0.726814
N 138.489063 1.469016 0.076527
C 139.812469 1.147016 0.215940
C 140.475902 -0.012539 -0.032118
C 139.680665 -1.270559 -0.575588
C 140.183695 -2.288517 -1.359939
C 139.145820 -3.239291 -1.536197
C 138.039884 -2.768692 -0.859617
N 138.353336 -1.536051 -0.343987
C 136.651381 -3.511061 -0.695937
C 136.659484 -4.990878 -0.741625
C 136.223373 -5.663205 -1.891736
C 136.243086 -7.056401 -1.947000
C 136.703853 -7.785936 -0.850342
C 137.145691 -7.123046 0.304414
C 137.627123 -7.944998 1.440005
O 138.017946 -7.212030 2.496096
O 137.683487 -9.162944 1.466054
C 137.124075 -5.725198 0.356366
C 135.515674 -2.796047 -0.483425
C 134.228565 -3.427435 -0.275697
C 133.319752 -2.475451 -0.093374
C 133.981761 -1.189183 -0.175570
N 135.307070 -1.447476 -0.402616
H 132.607462 2.761957 -0.883458
H 134.594490 4.586264 -0.598470
H 136.097755 0.781897 0.388154
H 137.822537 5.756536 -0.833676
H 138.138391 10.181813 -0.335100
H 137.023052 8.524269 2.393446
H 136.350933 6.630308 3.838415
H 136.412680 4.310901 2.953806
H 139.759013 4.280336 1.240063
H 141.517406 2.435807 0.957183
H 141.190225 -2.353028 -1.744617
H 139.205107 -4.170748 -2.078701
H 137.694784 -0.901760 0.098793
H 135.865113 -5.081073 -2.739175
H 135.899368 -7.564838 -2.842384
H 136.718032 -8.871791 -0.896870
H 138.309503 -7.865520 3.160114
H 137.462572 -5.186387 1.238902
H 134.032176 -4.484450 -0.260598
H 132.274656 -2.649992 0.086429
C 150.998629 -0.012539 -0.032118
C 151.794377 1.353991 -0.129564
C 151.293897 2.573498 -0.538284
C 152.332719 3.528407 -0.391047
C 153.435965 2.860473 0.097174
N 153.121390 1.527223 0.178054
C 154.822015 3.505710 0.504672
C 154.803659 4.896927 1.009092
C 155.182673 5.964784 0.185561
C 155.150031 7.273792 0.677951
C 155.555397 8.380483 -0.221751
O 155.527202 9.585386 0.384309
O 155.889146 8.297014 -1.388963
C 154.735294 7.513795 1.996890
C 154.354640 6.451196 2.817417
C 154.388063 5.148114 2.323078
C 155.959405 2.764236 0.459506
C 157.244669 3.289149 0.872360
C 158.154038 2.331373 0.726814
N 156.170244 1.469016 0.076527
C 157.493650 1.147016 0.215940
C 158.157083 -0.012539 -0.032118
C 157.361846 -1.270559 -0.575588
C 157.864876 -2.288517 -1.359939
C 156.827002 -3.239291 -1.536197
C 155.721065 -2.768692 -0.859617
N 156.034518 -1.536051 -0.343987
C 154.332562 -3.511061 -0.695937
C 154.340666 -4.990878 -0.741625
C 153.904555 -5.663205 -1.891736
C 153.924267 -7.056401 -1.947000
C 154.385034 -7.785936 -0.850342
C 154.826873 -7.123046 0.304414
C 155.308305 -7.944998 1.440005
O 155.699128 -7.212030 2.496096
O 155.364668 -9.162944 1.466054
C 154.805257 -5.725198 0.356366
C 153.196855 -2.796047 -0.483425
C 151.909747 -3.427435 -0.275697
C 151.000934 -2.475451 -0.093374
C 151.662942 -1.189183 -0.175570
N 152.988251 -1.447476 -0.402616
H 150.288644 2.761957 -0.883458
H 152.275672 4.586264 -0.598470
H 153.778937 0.781897 0.388154
H 155.503719 5.756536 -0.833676
H 155.819573 10.181813 -0.335100
H 154.704234 8.524269 2.393446
H 154.032115 6.630308 3.838415
H 154.093861 4.310901 2.953806
H 157.440195 4.280336 1.240063
H 159.198588 2.435807 0.957183
H 158.871407 -2.353028 -1.744617
H 156.886289 -4.170748 -2.078701
H 155.375966 -0.901760 0.098793
H 153.546294 -5.081073 -2.739175
H 153.580550 -7.564838 -2.842384
H 154.399214 -8.871791 -0.896870
H 155.990685 -7.865520 3.160114
H 155.143753 -5.186387 1.238902
H 151.713357 -4.484450 -0.260598
H 149.955838 -2.649992 0.086429
C 168.679811 -0.012539 -0.032118
C 169.475559 1.353991 -0.129564
C 168.975079 2.573498 -0.538284
C 170.013900 3.528407 -0.391047
C 171.117146 2.860473 0.097174
N 170.802572 1.527223 0.178054
C 172.503197 3.505710 0.504672
C 172.484840 4.896927 1.009092
C 172.863854 5.964784 0.185561
C 172.831213 7.273792 0.677951
C 173.236579 8.380483 -0.221751
O 173.208383 9.585386 0.384309
O 173.570327 8.297014 -1.388963
C 172.416476 7.513795 1.996890
C 172.035822 6.451196 2.817417
C 172.069245 5.148114 2.323078
C 173.640586 2.764236 0.459506
C 174.925851 3.289149 0.872360
C 175.835219 2.331373 0.726814
N 173.851426 1.469016 0.076527
C 175.174832 1.147016 0.215940
C 175.838265 -0.012539 -0.032118
C 175.043028 -1.270559 -0.575588
C 175.546058 -2.288517 -1.359939
C 174.508184 -3.239291 -1.536197
C 173.402247 -2.768692 -0.859617
N 173.715700 -1.536051 -0.343987
C 172.013744 -3.511061 -0.695937
C 172.021848 -4.990878 -0.741625
C 171.585736 -5.663205 -1.891736
C 171.605449 -7.056401 -1.947000
C 172.066216 -7.785936 -0.850342
C 172.508055 -7.123046 0.304414
C 172.989487 -7.944998 1.440005
O 173.380310 -7.212030 2.496096
O 173.045850 -9.162944 1.466054
C 172.486438 -5.725198 0.356366
C 170.878037 -2.796047 -0.483425
C 169.590929 -3.427435 -0.275697
C 168.682115 -2.475451 -0.093374
C 169.344124 -1.189183 -0.175570
N 170.669433 -1.447476 -0.402616
H 167.969825 2.761957 -0.883458
H 169.956854 4.586264 -0.598470
H 171.460118 0.781897 0.388154
H 173.184900 5.756536 -0.833676
H 173.500754 10.181813 -0.335100
H 172.385416 8.524269 2.393446
H 171.713297 6.630308 3.838415
H 171.775043 4.310901 2.953806
H 175.121376 4.280336 1.240063
H 176.879769 2.435807 0.957183
H 176.552588 -2.353028 -1.744617
H 174.567470 -4.170748 -2.078701
H 173.057147 -0.901760 0.098793
H 171.227476 -5.081073 -2.739175
H 171.261731 -7.564838 -2.842384
H 172.080395 -8.871791 -0.896870
H 173.671866 -7.865520 3.160114
H 172.824935 -5.186387 1.238902
H 169.394539 -4.484450 -0.260598
H 167.637019 -2.649992 0.086429
