512

C 128.316075 0.042878 0.107429
C 129.046473 -1.334715 0.078214
C 128.441187 -2.567320 0.168508
C 129.464152 -3.543100 0.045003
C 130.659977 -2.871550 -0.121274
N 130.399033 -1.526025 -0.046071
C 132.082040 -3.521452 -0.381078
C 133.211051 -2.764389 -0.332693
C 134.514999 -3.316089 -0.639066
C 135.415158 -2.345245 -0.539145
N 133.405799 -1.440380 -0.040373
C 134.735728 -1.126026 -0.147365
C 135.401998 0.043671 0.044461
C 134.624674 1.348030 0.505883
C 135.166807 2.422413 1.183256
C 134.141222 3.386727 1.346701
C 132.998513 2.869452 0.775306
C 131.587203 3.586353 0.686129
C 131.550590 5.061035 0.792143
C 131.860350 5.855065 -0.317892
C 131.833898 7.248331 -0.216774
C 131.498533 7.856424 0.999931
C 131.480664 9.337569 1.064374
O 131.153347 9.808526 2.282885
O 131.726043 10.105881 0.151643
C 131.190504 7.064631 2.113903
C 131.218163 5.672188 2.007566
C 130.462821 2.845373 0.508229
C 129.139763 3.435140 0.405046
C 128.255828 2.453557 0.251406
C 128.979444 1.206174 0.244500
N 130.300449 1.493572 0.388821
N 133.289652 1.607762 0.312400
C 132.120166 -4.960757 -0.728612
C 131.853362 -5.374349 -2.038991
C 131.871865 -6.731992 -2.368599
C 132.161054 -7.686108 -1.383970
C 132.192418 -9.137489 -1.684933
O 131.925776 -9.415373 -2.974887
O 132.427072 -10.035422 -0.895747
C 132.429837 -7.275411 -0.071928
C 132.406339 -5.917057 0.252927
H 127.238032 0.048150 0.001015
H 127.383799 -2.744290 0.291142
H 129.337560 -4.615465 0.051110
H 131.098612 -0.788642 -0.082054
H 134.728722 -4.332782 -0.916004
H 136.467743 -2.467803 -0.718214
H 136.190109 2.511420 1.514575
H 134.228685 4.350420 1.824597
H 132.118016 5.373348 -1.258992
H 132.074313 7.848646 -1.090389
H 131.184130 10.778383 2.162153
H 130.925694 7.512748 3.066557
H 130.977654 5.046153 2.864771
H 128.908005 4.483813 0.443694
H 127.191943 2.563165 0.145420
H 132.605683 0.954226 -0.059884
H 131.633160 -4.623980 -2.795435
H 131.659873 -7.025915 -3.392324
H 131.984963 -10.391103 -3.009062
H 132.659114 -8.002864 0.702663
H 132.613024 -5.586842 1.268412
C 215.503140 0.016148 0.101101
C 214.772742 1.260612 0.692645
C 215.378028 2.321895 1.326005
C 214.355063 3.249474 1.653110
C 213.159238 2.723760 1.203387
N 213.420182 1.487340 0.667327
C 211.737175 3.421162 1.262551
C 210.608164 2.722765 0.966363
C 209.304216 3.353269 0.939871
C 208.404057 2.440677 0.593898
N 210.413416 1.408231 0.634021
C 209.083487 1.175215 0.397442
C 208.417217 0.043671 0.044461
C 209.194541 -1.329117 -0.127918
C 208.652408 -2.593165 -0.004157
C 209.677993 -3.528402 -0.290420
C 210.820702 -2.809843 -0.569239
C 212.232012 -3.410664 -0.970379
C 212.268625 -4.776345 -1.536808
C 211.958865 -4.988396 -2.885027
C 211.985318 -6.279108 -3.419327
C 212.320682 -7.368176 -2.604416
C 212.338551 -8.720996 -3.210900
O 212.665868 -9.688293 -2.332888
O 212.093173 -8.998522 -4.371228
C 212.628711 -7.159890 -1.253681
C 212.601053 -5.867574 -0.724414
C 213.356394 -2.668573 -0.797170
C 214.679452 -3.149476 -1.153828
C 215.563387 -2.203198 -0.851057
C 214.839771 -1.085125 -0.297953
N 213.518766 -1.406724 -0.297810
N 210.529563 -1.474530 -0.417317
C 211.699049 4.863509 1.597233
C 211.965853 5.820721 0.611385
C 211.947350 7.182038 0.925477
C 211.658162 7.593409 2.233379
C 211.626797 9.025671 2.615103
O 211.893439 9.852422 1.586666
O 211.392143 9.474450 3.723117
C 211.389378 6.638039 3.222011
C 211.412876 5.278218 2.903352
H 216.581183 0.059147 0.003619
H 216.435416 2.425097 1.514968
H 214.481655 4.205272 2.139375
H 212.720603 0.844362 0.304551
H 209.090493 4.386211 1.148174
H 207.351472 2.630513 0.488787
H 207.629106 -2.821274 0.252087
H 209.590530 -4.604071 -0.295333
H 211.701199 -4.135860 -3.510249
H 211.744903 -6.424007 -4.469367
H 212.635085 -10.501072 -2.875651
H 212.893521 -7.987573 -0.603066
H 212.841561 -5.692327 0.322490
H 214.911210 -4.104163 -1.589466
H 216.627272 -2.253652 -0.994937
H 211.213533 -0.723447 -0.457065
H 212.186055 5.489161 -0.401201
H 212.159342 7.903759 0.142201
H 211.834252 10.739903 1.993597
H 211.160101 6.940979 4.240542
H 211.206191 4.527751 3.662990
C 137.591175 0.043671 0.044461
C 138.813093 0.043671 0.044461
C 148.827000 0.043671 0.044461
C 150.048917 0.043671 0.044461
C 160.062824 0.043671 0.044461
C 161.284742 0.043671 0.044461
C 171.298649 0.043671 0.044461
C 172.520566 0.043671 0.044461
C 182.534473 0.043671 0.044461
C 183.756391 0.043671 0.044461
C 193.770298 0.043671 0.044461
C 194.992215 0.043671 0.044461
C 205.006122 0.043671 0.044461
C 206.228040 0.043671 0.044461
C 140.229838 -0.016435 -0.016732
C 141.024219 0.776571 -1.134837
C 140.519916 1.239768 -2.333017
C 141.557483 1.959768 -2.978868
C 142.664494 1.907673 -2.157934
N 142.351936 1.122403 -1.076678
C 144.053034 2.626619 -2.404867
C 145.188529 2.125435 -1.851802
C 146.475141 2.774365 -1.999492
C 147.383538 2.056422 -1.347788
N 145.397076 1.014179 -1.083330
C 146.721772 0.913350 -0.752025
C 147.385967 -0.016435 -0.016732
C 146.591290 -1.236517 0.607586
C 147.094092 -2.490115 0.890972
C 146.056112 -3.232413 1.510459
C 144.950663 -2.410764 1.579864
C 143.563050 -2.756790 2.258280
C 143.575560 -3.717677 3.384428
C 143.137192 -5.035268 3.200823
C 143.163837 -5.941954 4.263205
C 143.633729 -5.535937 5.518840
C 143.645805 -6.529528 6.619242
O 144.109974 -6.027319 7.779385
O 143.287977 -7.692015 6.548419
C 144.076571 -4.220086 5.705403
C 144.047623 -3.316783 4.639830
C 142.427034 -2.139978 1.839718
C 141.141131 -2.376464 2.463100
C 140.232575 -1.629538 1.845058
C 140.893774 -0.878641 0.796949
N 142.217799 -1.223789 0.846850
N 145.263997 -1.227418 0.959609
C 144.044641 3.869082 -3.209896
C 143.574630 5.064231 -2.653202
C 143.551732 6.235537 -3.414566
C 143.997770 6.217467 -4.742354
C 143.956948 7.482309 -5.514917
O 144.404910 7.344355 -6.777604
O 143.570721 8.565233 -5.112101
C 144.465599 5.022636 -5.304421
C 144.486063 3.853979 -4.539303
H 139.512725 1.096380 -2.693843
H 141.497383 2.474814 -3.925715
H 143.011336 0.809916 -0.369852
H 146.671237 3.686544 -2.533803
H 148.428054 2.300738 -1.282025
H 148.100398 -2.827929 0.694996
H 146.114729 -4.244322 1.882018
H 142.772046 -5.340145 2.221882
H 142.816277 -6.958901 4.102628
H 144.054393 -6.788386 8.390945
H 144.446089 -3.882209 6.668772
H 144.390368 -2.292606 4.775040
H 140.945316 -3.034235 3.290744
H 139.188330 -1.598284 2.097301
H 144.605257 -0.482099 0.753197
H 143.229033 5.069352 -1.621200
H 143.184914 7.154009 -2.964224
H 144.316366 8.246637 -7.144443
H 144.817012 4.983874 -6.330886
H 144.849206 2.920360 -4.965136
C 151.465663 -0.016435 -0.016732
C 152.260043 0.776571 -1.134837
C 151.755740 1.239768 -2.333017
C 152.793308 1.959768 -2.978868
C 153.900318 1.907673 -2.157934
N 153.587760 1.122403 -1.076678
C 155.288858 2.626619 -2.404867
C 156.424353 2.125435 -1.851802
C 157.710966 2.774365 -1.999492
C 158.619363 2.056422 -1.347788
N 156.632901 1.014179 -1.083330
C 157.957597 0.913350 -0.752025
C 158.621791 -0.016435 -0.016732
C 157.827114 -1.236517 0.607586
C 158.329916 -2.490115 0.890972
C 157.291936 -3.232413 1.510459
C 156.186488 -2.410764 1.579864
C 154.798874 -2.756790 2.258280
C 154.811385 -3.717677 3.384428
C 154.373017 -5.035268 3.200823
C 154.399661 -5.941954 4.263205
C 154.869553 -5.535937 5.518840
C 154.881630 -6.529528 6.619242
O 155.345799 -6.027319 7.779385
O 154.523801 -7.692015 6.548419
C 155.312395 -4.220086 5.705403
C 155.283447 -3.316783 4.639830
C 153.662859 -2.139978 1.839718
C 152.376955 -2.376464 2.463100
C 151.468400 -1.629538 1.845058
C 152.129599 -0.878641 0.796949
N 153.453623 -1.223789 0.846850
N 156.499822 -1.227418 0.959609
C 155.280466 3.869082 -3.209896
C 154.810455 5.064231 -2.653202
C 154.787556 6.235537 -3.414566
C 155.233594 6.217467 -4.742354
C 155.192773 7.482309 -5.514917
O 155.640734 7.344355 -6.777604
O 154.806546 8.565233 -5.112101
C 155.701424 5.022636 -5.304421
C 155.721888 3.853979 -4.539303
H 150.748549 1.096380 -2.693843
H 152.733207 2.474814 -3.925715
H 154.247161 0.809916 -0.369852
H 157.907061 3.686544 -2.533803
H 159.663878 2.300738 -1.282025
H 159.336222 -2.827929 0.694996
H 157.350553 -4.244322 1.882018
H 154.007870 -5.340145 2.221882
H 154.052102 -6.958901 4.102628
H 155.290217 -6.788386 8.390945
H 155.681914 -3.882209 6.668772
H 155.626193 -2.292606 4.775040
H 152.181140 -3.034235 3.290744
H 150.424154 -1.598284 2.097301
H 155.841081 -0.482099 0.753197
H 154.464857 5.069352 -1.621200
H 154.420738 7.154009 -2.964224
H 155.552191 8.246637 -7.144443
H 156.052837 4.983874 -6.330886
H 156.085030 2.920360 -4.965136
C 162.701487 -0.016435 -0.016732
C 163.495868 0.776571 -1.134837
C 162.991565 1.239768 -2.333017
C 164.029132 1.959768 -2.978868
C 165.136142 1.907673 -2.157934
N 164.823585 1.122403 -1.076678
C 166.524683 2.626619 -2.404867
C 167.660178 2.125435 -1.851802
C 168.946790 2.774365 -1.999492
C 169.855187 2.056422 -1.347788
N 167.868725 1.014179 -1.083330
C 169.193421 0.913350 -0.752025
C 169.857616 -0.016435 -0.016732
C 169.062938 -1.236517 0.607586
C 169.565741 -2.490115 0.890972
C 168.527760 -3.232413 1.510459
C 167.422312 -2.410764 1.579864
C 166.034698 -2.756790 2.258280
C 166.047209 -3.717677 3.384428
C 165.608841 -5.035268 3.200823
C 165.635486 -5.941954 4.263205
C 166.105378 -5.535937 5.518840
C 166.117454 -6.529528 6.619242
O 166.581623 -6.027319 7.779385
O 165.759626 -7.692015 6.548419
C 166.548220 -4.220086 5.705403
C 166.519272 -3.316783 4.639830
C 164.898683 -2.139978 1.839718
C 163.612780 -2.376464 2.463100
C 162.704224 -1.629538 1.845058
C 163.365423 -0.878641 0.796949
N 164.689448 -1.223789 0.846850
N 167.735646 -1.227418 0.959609
C 166.516290 3.869082 -3.209896
C 166.046279 5.064231 -2.653202
C 166.023381 6.235537 -3.414566
C 166.469419 6.217467 -4.742354
C 166.428597 7.482309 -5.514917
O 166.876559 7.344355 -6.777604
O 166.042370 8.565233 -5.112101
C 166.937248 5.022636 -5.304421
C 166.957712 3.853979 -4.539303
H 161.984374 1.096380 -2.693843
H 163.969032 2.474814 -3.925715
H 165.482985 0.809916 -0.369852
H 169.142886 3.686544 -2.533803
H 170.899703 2.300738 -1.282025
H 170.572047 -2.827929 0.694996
H 168.586378 -4.244322 1.882018
H 165.243695 -5.340145 2.221882
H 165.287926 -6.958901 4.102628
H 166.526042 -6.788386 8.390945
H 166.917738 -3.882209 6.668772
H 166.862017 -2.292606 4.775040
H 163.416965 -3.034235 3.290744
H 161.659979 -1.598284 2.097301
H 167.076906 -0.482099 0.753197
H 165.700682 5.069352 -1.621200
H 165.656563 7.154009 -2.964224
H 166.788015 8.246637 -7.144443
H 167.288661 4.983874 -6.330886
H 167.320855 2.920360 -4.965136
C 173.937312 -0.016435 -0.016732
C 174.731692 0.776571 -1.134837
C 174.227389 1.239768 -2.333017
C 175.264957 1.959768 -2.978868
C 176.371967 1.907673 -2.157934
N 176.059409 1.122403 -1.076678
C 177.760507 2.626619 -2.404867
C 178.896002 2.125435 -1.851802
C 180.182615 2.774365 -1.999492
C 181.091012 2.056422 -1.347788
N 179.104550 1.014179 -1.083330
C 180.429246 0.913350 -0.752025
C 181.093440 -0.016435 -0.016732
C 180.298763 -1.236517 0.607586
C 180.801565 -2.490115 0.890972
C 179.763585 -3.232413 1.510459
C 178.658137 -2.410764 1.579864
C 177.270523 -2.756790 2.258280
C 177.283034 -3.717677 3.384428
C 176.844666 -5.035268 3.200823
C 176.871310 -5.941954 4.263205
C 177.341202 -5.535937 5.518840
C 177.353279 -6.529528 6.619242
O 177.817448 -6.027319 7.779385
O 176.995450 -7.692015 6.548419
C 177.784044 -4.220086 5.705403
C 177.755096 -3.316783 4.639830
C 176.134508 -2.139978 1.839718
C 174.848604 -2.376464 2.463100
C 173.940049 -1.629538 1.845058
C 174.601248 -0.878641 0.796949
N 175.925272 -1.223789 0.846850
N 178.971471 -1.227418 0.959609
C 177.752115 3.869082 -3.209896
C 177.282104 5.064231 -2.653202
C 177.259205 6.235537 -3.414566
C 177.705243 6.217467 -4.742354
C 177.664421 7.482309 -5.514917
O 178.112383 7.344355 -6.777604
O 177.278195 8.565233 -5.112101
C 178.173073 5.022636 -5.304421
C 178.193537 3.853979 -4.539303
H 173.220198 1.096380 -2.693843
H 175.204856 2.474814 -3.925715
H 176.718810 0.809916 -0.369852
H 180.378710 3.686544 -2.533803
H 182.135527 2.300738 -1.282025
H 181.807871 -2.827929 0.694996
H 179.822202 -4.244322 1.882018
H 176.479519 -5.340145 2.221882
H 176.523751 -6.958901 4.102628
H 177.761866 -6.788386 8.390945
H 178.153563 -3.882209 6.668772
H 178.097842 -2.292606 4.775040
H 174.652789 -3.034235 3.290744
H 172.895803 -1.598284 2.097301
H 178.312730 -0.482099 0.753197
H 176.936506 5.069352 -1.621200
H 176.892387 7.154009 -2.964224
H 178.023840 8.246637 -7.144443
H 178.524486 4.983874 -6.330886
H 178.556679 2.920360 -4.965136
C 185.173136 -0.016435 -0.016732
C 185.967517 0.776571 -1.134837
C 185.463214 1.239768 -2.333017
C 186.500781 1.959768 -2.978868
C 187.607791 1.907673 -2.157934
N 187.295233 1.122403 -1.076678
C 188.996332 2.626619 -2.404867
C 190.131827 2.125435 -1.851802
C 191.418439 2.774365 -1.999492
C 192.326836 2.056422 -1.347788
N 190.340374 1.014179 -1.083330
C 191.665070 0.913350 -0.752025
C 192.329265 -0.016435 -0.016732
C 191.534587 -1.236517 0.607586
C 192.037390 -2.490115 0.890972
C 190.999409 -3.232413 1.510459
C 189.893961 -2.410764 1.579864
C 188.506347 -2.756790 2.258280
C 188.518858 -3.717677 3.384428
C 188.080490 -5.035268 3.200823
C 188.107135 -5.941954 4.263205
C 188.577027 -5.535937 5.518840
C 188.589103 -6.529528 6.619242
O 189.053272 -6.027319 7.779385
O 188.231275 -7.692015 6.548419
C 189.019868 -4.220086 5.705403
C 188.990921 -3.316783 4.639830
C 187.370332 -2.139978 1.839718
C 186.084429 -2.376464 2.463100
C 185.175873 -1.629538 1.845058
C 185.837072 -0.878641 0.796949
N 187.161097 -1.223789 0.846850
N 190.207295 -1.227418 0.959609
C 188.987939 3.869082 -3.209896
C 188.517928 5.064231 -2.653202
C 188.495030 6.235537 -3.414566
C 188.941068 6.217467 -4.742354
C 188.900246 7.482309 -5.514917
O 189.348208 7.344355 -6.777604
O 188.514019 8.565233 -5.112101
C 189.408897 5.022636 -5.304421
C 189.429361 3.853979 -4.539303
H 184.456023 1.096380 -2.693843
H 186.440681 2.474814 -3.925715
H 187.954634 0.809916 -0.369852
H 191.614534 3.686544 -2.533803
H 193.371352 2.300738 -1.282025
H 193.043696 -2.827929 0.694996
H 191.058027 -4.244322 1.882018
H 187.715344 -5.340145 2.221882
H 187.759575 -6.958901 4.102628
H 188.997691 -6.788386 8.390945
H 189.389387 -3.882209 6.668772
H 189.333666 -2.292606 4.775040
H 185.888614 -3.034235 3.290744
H 184.131628 -1.598284 2.097301
H 189.548555 -0.482099 0.753197
H 188.172331 5.069352 -1.621200
H 188.128212 7.154009 -2.964224
H 189.259664 8.246637 -7.144443
H 189.760310 4.983874 -6.330886
H 189.792504 2.920360 -4.965136
C 196.408961 -0.016435 -0.016732
C 197.203341 0.776571 -1.134837
C 196.699038 1.239768 -2.333017
C 197.736606 1.959768 -2.978868
C 198.843616 1.907673 -2.157934
N 198.531058 1.122403 -1.076678
C 200.232156 2.626619 -2.404867
C 201.367651 2.125435 -1.851802
C 202.654264 2.774365 -1.999492
C 203.562661 2.056422 -1.347788
N 201.576199 1.014179 -1.083330
C 202.900895 0.913350 -0.752025
C 203.565089 -0.016435 -0.016732
C 202.770412 -1.236517 0.607586
C 203.273214 -2.490115 0.890972
C 202.235234 -3.232413 1.510459
C 201.129786 -2.410764 1.579864
C 199.742172 -2.756790 2.258280
C 199.754683 -3.717677 3.384428
C 199.316314 -5.035268 3.200823
C 199.342959 -5.941954 4.263205
C 199.812851 -5.535937 5.518840
C 199.824928 -6.529528 6.619242
O 200.289097 -6.027319 7.779385
O 199.467099 -7.692015 6.548419
C 200.255693 -4.220086 5.705403
C 200.226745 -3.316783 4.639830
C 198.606157 -2.139978 1.839718
C 197.320253 -2.376464 2.463100
C 196.411698 -1.629538 1.845058
C 197.072897 -0.878641 0.796949
N 198.396921 -1.223789 0.846850
N 201.443120 -1.227418 0.959609
C 200.223764 3.869082 -3.209896
C 199.753753 5.064231 -2.653202
C 199.730854 6.235537 -3.414566
C 200.176892 6.217467 -4.742354
C 200.136070 7.482309 -5.514917
O 200.584032 7.344355 -6.777604
O 199.749844 8.565233 -5.112101
C 200.644722 5.022636 -5.304421
C 200.665185 3.853979 -4.539303
H 195.691847 1.096380 -2.693843
H 197.676505 2.474814 -3.925715
H 199.190459 0.809916 -0.369852
H 202.850359 3.686544 -2.533803
H 204.607176 2.300738 -1.282025
H 204.279520 -2.827929 0.694996
H 202.293851 -4.244322 1.882018
H 198.951168 -5.340145 2.221882
H 198.995400 -6.958901 4.102628
H 200.233515 -6.788386 8.390945
H 200.625212 -3.882209 6.668772
H 200.569491 -2.292606 4.775040
H 197.124438 -3.034235 3.290744
H 195.367452 -1.598284 2.097301
H 200.784379 -0.482099 0.753197
H 199.408155 5.069352 -1.621200
H 199.364036 7.154009 -2.964224
H 200.495489 8.246637 -7.144443
H 200.996135 4.983874 -6.330886
H 201.028328 2.920360 -4.965136
