 xtb: 6.5.1 (b24c23e)
          07302209223D

213242  0     0  0            999 V2000
   30.8945    0.0336   -0.0331 Zn  0  0  0  0  0  0  0  0  0  0  0  0
   27.4851    0.0666   -0.0426 C   0  0  0  0  0  0  0  0  0  0  0  0
   28.1103    0.9913    0.7855 C   0  0  0  0  0  0  0  0  0  0  0  0
   27.4318    1.9137    1.6510 C   0  0  0  0  0  0  0  0  0  0  0  0
   28.3874    2.6364    2.2880 C   0  0  0  0  0  0  0  0  0  0  0  0
   29.6623    2.1730    1.8086 C   0  0  0  0  0  0  0  0  0  0  0  0
   29.4589    1.1688    0.9079 N   0  0  0  0  0  0  0  0  0  0  0  0
   30.9111    2.6608    2.2178 C   0  0  0  0  0  0  0  0  0  0  0  0
   30.9141    3.7841    3.1855 C   0  0  0  0  0  0  0  0  0  0  0  0
   30.3046    5.0015    2.8689 C   0  0  0  0  0  0  0  0  0  0  0  0
   30.3018    6.0477    3.7721 C   0  0  0  0  0  0  0  0  0  0  0  0
   30.9046    5.9051    5.0278 C   0  0  0  0  0  0  0  0  0  0  0  0
   30.8201    6.9603    5.9249 N   0  0  0  0  0  0  0  0  0  0  0  0
   31.7985    7.0735    6.9983 C   0  0  0  0  0  0  0  0  0  0  0  0
   31.5062    4.6864    5.3541 C   0  0  0  0  0  0  0  0  0  0  0  0
   31.5147    3.6478    4.4383 C   0  0  0  0  0  0  0  0  0  0  0  0
   32.1518    2.1748    1.7897 C   0  0  0  0  0  0  0  0  0  0  0  0
   33.4285    2.7169    2.1636 C   0  0  0  0  0  0  0  0  0  0  0  0
   34.3782    1.9764    1.5363 C   0  0  0  0  0  0  0  0  0  0  0  0
   32.3507    1.1262    0.9304 N   0  0  0  0  0  0  0  0  0  0  0  0
   33.6925    0.9815    0.7659 C   0  0  0  0  0  0  0  0  0  0  0  0
   34.3283    0.0071   -0.0312 C   0  0  0  0  0  0  0  0  0  0  0  0
   33.6783   -0.9601   -0.8256 C   0  0  0  0  0  0  0  0  0  0  0  0
   34.3494   -1.9695   -1.5901 C   0  0  0  0  0  0  0  0  0  0  0  0
   33.3889   -2.6990   -2.2139 C   0  0  0  0  0  0  0  0  0  0  0  0
   32.1204   -2.1344   -1.8454 C   0  0  0  0  0  0  0  0  0  0  0  0
   32.3346   -1.0848   -0.9910 N   0  0  0  0  0  0  0  0  0  0  0  0
   30.8728   -2.6006   -2.2755 C   0  0  0  0  0  0  0  0  0  0  0  0
   30.8596   -3.7305   -3.2354 C   0  0  0  0  0  0  0  0  0  0  0  0
   31.4706   -3.6157   -4.4852 C   0  0  0  0  0  0  0  0  0  0  0  0
   31.4506   -4.6623   -5.3917 C   0  0  0  0  0  0  0  0  0  0  0  0
   30.8262   -5.8676   -5.0587 C   0  0  0  0  0  0  0  0  0  0  0  0
   30.7321   -6.9301   -5.9463 N   0  0  0  0  0  0  0  0  0  0  0  0
   31.7223   -7.0721   -7.0055 C   0  0  0  0  0  0  0  0  0  0  0  0
   30.2108   -5.9879   -3.8067 C   0  0  0  0  0  0  0  0  0  0  0  0
   30.2256   -4.9338   -2.9129 C   0  0  0  0  0  0  0  0  0  0  0  0
   29.6314   -2.0872   -1.8751 C   0  0  0  0  0  0  0  0  0  0  0  0
   28.3506   -2.5271   -2.3608 C   0  0  0  0  0  0  0  0  0  0  0  0
   27.4056   -1.7829   -1.7328 C   0  0  0  0  0  0  0  0  0  0  0  0
   28.0969   -0.8713   -0.8657 C   0  0  0  0  0  0  0  0  0  0  0  0
   29.4425   -1.0758   -0.9793 N   0  0  0  0  0  0  0  0  0  0  0  0
   26.3994    0.0774   -0.0460 H   0  0  0  0  0  0  0  0  0  0  0  0
   26.3605    1.9840    1.7581 H   0  0  0  0  0  0  0  0  0  0  0  0
   28.2447    3.4070    3.0286 H   0  0  0  0  0  0  0  0  0  0  0  0
   29.8478    5.1324    1.8939 H   0  0  0  0  0  0  0  0  0  0  0  0
   29.8303    6.9892    3.5105 H   0  0  0  0  0  0  0  0  0  0  0  0
   30.6455    7.8476    5.4684 H   0  0  0  0  0  0  0  0  0  0  0  0
   32.8245    7.0260    6.6157 H   0  0  0  0  0  0  0  0  0  0  0  0
   31.6495    6.2745    7.7258 H   0  0  0  0  0  0  0  0  0  0  0  0
   31.6431    8.0309    7.4956 H   0  0  0  0  0  0  0  0  0  0  0  0
   31.9652    4.5399    6.3242 H   0  0  0  0  0  0  0  0  0  0  0  0
   31.9749    2.7034    4.7082 H   0  0  0  0  0  0  0  0  0  0  0  0
   33.5781    3.5659    2.8112 H   0  0  0  0  0  0  0  0  0  0  0  0
   35.4495    2.0932    1.5805 H   0  0  0  0  0  0  0  0  0  0  0  0
   35.4187   -2.1034   -1.6320 H   0  0  0  0  0  0  0  0  0  0  0  0
   33.5262   -3.5542   -2.8560 H   0  0  0  0  0  0  0  0  0  0  0  0
   31.9490   -2.6818   -4.7604 H   0  0  0  0  0  0  0  0  0  0  0  0
   31.9189   -4.5326   -6.3598 H   0  0  0  0  0  0  0  0  0  0  0  0
   30.5368   -7.8092   -5.4826 H   0  0  0  0  0  0  0  0  0  0  0  0
   31.5954   -6.2802   -7.7448 H   0  0  0  0  0  0  0  0  0  0  0  0
   31.5583   -8.0333   -7.4929 H   0  0  0  0  0  0  0  0  0  0  0  0
   32.7439   -7.0358   -6.6101 H   0  0  0  0  0  0  0  0  0  0  0  0
   29.7207   -6.9185   -3.5404 H   0  0  0  0  0  0  0  0  0  0  0  0
   29.7594   -5.0479   -1.9402 H   0  0  0  0  0  0  0  0  0  0  0  0
   28.1974   -3.2974   -3.0995 H   0  0  0  0  0  0  0  0  0  0  0  0
   26.3338   -1.8321   -1.8465 H   0  0  0  0  0  0  0  0  0  0  0  0
   68.1270    0.0134   -0.0174 Zn  0  0  0  0  0  0  0  0  0  0  0  0
   71.5355    0.0487   -0.0980 C   0  0  0  0  0  0  0  0  0  0  0  0
   70.9106   -0.9677   -0.8106 C   0  0  0  0  0  0  0  0  0  0  0  0
   71.5895   -2.0067   -1.5320 C   0  0  0  0  0  0  0  0  0  0  0  0
   70.6339   -2.7949   -2.0857 C   0  0  0  0  0  0  0  0  0  0  0  0
   69.3584   -2.2389   -1.7197 C   0  0  0  0  0  0  0  0  0  0  0  0
   69.5617   -1.1392   -0.9385 N   0  0  0  0  0  0  0  0  0  0  0  0
   68.1094   -2.7570   -2.0889 C   0  0  0  0  0  0  0  0  0  0  0  0
   68.1053   -3.9457   -2.9752 C   0  0  0  0  0  0  0  0  0  0  0  0
   68.6932   -3.8943   -4.2423 C   0  0  0  0  0  0  0  0  0  0  0  0
   68.6919   -5.0022   -5.0686 C   0  0  0  0  0  0  0  0  0  0  0  0
   68.1067   -6.2027   -4.6479 C   0  0  0  0  0  0  0  0  0  0  0  0
   68.1850   -7.3055   -5.4865 N   0  0  0  0  0  0  0  0  0  0  0  0
   67.2179   -8.3861   -5.3466 C   0  0  0  0  0  0  0  0  0  0  0  0
   67.5284   -6.2637   -3.3769 C   0  0  0  0  0  0  0  0  0  0  0  0
   67.5235   -5.1450   -2.5608 C   0  0  0  0  0  0  0  0  0  0  0  0
   66.8689   -2.2461   -1.6903 C   0  0  0  0  0  0  0  0  0  0  0  0
   65.5911   -2.7426   -2.1199 C   0  0  0  0  0  0  0  0  0  0  0  0
   64.6417   -1.9781   -1.5215 C   0  0  0  0  0  0  0  0  0  0  0  0
   66.6708   -1.1805   -0.8521 N   0  0  0  0  0  0  0  0  0  0  0  0
   65.3285   -1.0016   -0.7289 C   0  0  0  0  0  0  0  0  0  0  0  0
   64.6935   -0.0157    0.0546 C   0  0  0  0  0  0  0  0  0  0  0  0
   65.3444    0.9773    0.8159 C   0  0  0  0  0  0  0  0  0  0  0  0
   64.6752    1.9378    1.6422 C   0  0  0  0  0  0  0  0  0  0  0  0
   65.6358    2.7162    2.2036 C   0  0  0  0  0  0  0  0  0  0  0  0
   66.9025    2.2457    1.7158 C   0  0  0  0  0  0  0  0  0  0  0  0
   66.6873    1.1791    0.8828 N   0  0  0  0  0  0  0  0  0  0  0  0
   68.1497    2.7813    2.0575 C   0  0  0  0  0  0  0  0  0  0  0  0
   68.1627    3.9681    2.9460 C   0  0  0  0  0  0  0  0  0  0  0  0
   67.5285    5.1527    2.5674 C   0  0  0  0  0  0  0  0  0  0  0  0
   67.5465    6.2690    3.3866 C   0  0  0  0  0  0  0  0  0  0  0  0
   68.1929    6.2206    4.6248 C   0  0  0  0  0  0  0  0  0  0  0  0
   68.2851    7.3230    5.4627 N   0  0  0  0  0  0  0  0  0  0  0  0
   67.2763    8.3713    5.3850 C   0  0  0  0  0  0  0  0  0  0  0  0
   68.8324    5.0356    5.0088 C   0  0  0  0  0  0  0  0  0  0  0  0
   68.8188    3.9298    4.1797 C   0  0  0  0  0  0  0  0  0  0  0  0
   69.3903    2.2900    1.6279 C   0  0  0  0  0  0  0  0  0  0  0  0
   70.6697    2.8738    1.9315 C   0  0  0  0  0  0  0  0  0  0  0  0
   71.6142    2.1058    1.3321 C   0  0  0  0  0  0  0  0  0  0  0  0
   70.9238    1.0519    0.6443 C   0  0  0  0  0  0  0  0  0  0  0  0
   69.5793    1.1946    0.8372 N   0  0  0  0  0  0  0  0  0  0  0  0
   72.6209    0.0604   -0.1240 H   0  0  0  0  0  0  0  0  0  0  0  0
   72.6612   -2.1158   -1.5921 H   0  0  0  0  0  0  0  0  0  0  0  0
   70.7769   -3.6838   -2.6790 H   0  0  0  0  0  0  0  0  0  0  0  0
   69.1357   -2.9665   -4.5885 H   0  0  0  0  0  0  0  0  0  0  0  0
   69.1459   -4.9461   -6.0524 H   0  0  0  0  0  0  0  0  0  0  0  0
   68.3378   -7.0492   -6.4546 H   0  0  0  0  0  0  0  0  0  0  0  0
   66.1883   -8.0104   -5.3599 H   0  0  0  0  0  0  0  0  0  0  0  0
   67.3914   -8.9244   -4.4139 H   0  0  0  0  0  0  0  0  0  0  0  0
   67.3608   -9.0755   -6.1787 H   0  0  0  0  0  0  0  0  0  0  0  0
   67.0844   -7.1834   -3.0162 H   0  0  0  0  0  0  0  0  0  0  0  0
   67.0809   -5.2086   -1.5725 H   0  0  0  0  0  0  0  0  0  0  0  0
   65.4404   -3.5618   -2.8044 H   0  0  0  0  0  0  0  0  0  0  0  0
   63.5699   -2.0577   -1.6110 H   0  0  0  0  0  0  0  0  0  0  0  0
   63.6070    1.9972    1.7788 H   0  0  0  0  0  0  0  0  0  0  0  0
   65.4999    3.5287    2.8992 H   0  0  0  0  0  0  0  0  0  0  0  0
   67.0330    5.2071    1.6040 H   0  0  0  0  0  0  0  0  0  0  0  0
   67.0593    7.1773    3.0536 H   0  0  0  0  0  0  0  0  0  0  0  0
   68.5012    7.0683    6.4191 H   0  0  0  0  0  0  0  0  0  0  0  0
   67.3761    8.9175    4.4461 H   0  0  0  0  0  0  0  0  0  0  0  0
   67.4456    9.0631    6.2102 H   0  0  0  0  0  0  0  0  0  0  0  0
   66.2624    7.9615    5.4577 H   0  0  0  0  0  0  0  0  0  0  0  0
   69.3400    4.9895    5.9666 H   0  0  0  0  0  0  0  0  0  0  0  0
   69.3033    3.0134    4.4988 H   0  0  0  0  0  0  0  0  0  0  0  0
   70.8224    3.7665    2.5167 H   0  0  0  0  0  0  0  0  0  0  0  0
   72.6850    2.2382    1.3402 H   0  0  0  0  0  0  0  0  0  0  0  0
   35.7327   -0.0005   -0.0342 C   0  0  0  0  0  0  0  0  0  0  0  0
   36.9579   -0.0050   -0.0388 C   0  0  0  0  0  0  0  0  0  0  0  0
   38.3000   -0.0090   -0.0411 C   0  0  0  0  0  0  0  0  0  0  0  0
   39.5313   -0.0101   -0.0457 C   0  0  0  0  0  0  0  0  0  0  0  0
   40.8687   -0.0091   -0.0497 C   0  0  0  0  0  0  0  0  0  0  0  0
   42.1000   -0.0071   -0.0511 C   0  0  0  0  0  0  0  0  0  0  0  0
   43.4420   -0.0046   -0.0497 C   0  0  0  0  0  0  0  0  0  0  0  0
   44.6674    0.0007   -0.0467 C   0  0  0  0  0  0  0  0  0  0  0  0
   54.3544   -0.0037    0.0672 C   0  0  0  0  0  0  0  0  0  0  0  0
   55.5798   -0.0065    0.0801 C   0  0  0  0  0  0  0  0  0  0  0  0
   56.9218   -0.0098    0.0908 C   0  0  0  0  0  0  0  0  0  0  0  0
   58.1531   -0.0165    0.0971 C   0  0  0  0  0  0  0  0  0  0  0  0
   59.4906   -0.0174    0.0998 C   0  0  0  0  0  0  0  0  0  0  0  0
   60.7219   -0.0212    0.0968 C   0  0  0  0  0  0  0  0  0  0  0  0
   62.0641   -0.0225    0.0882 C   0  0  0  0  0  0  0  0  0  0  0  0
   63.2893   -0.0213    0.0760 C   0  0  0  0  0  0  0  0  0  0  0  0
   49.5105    0.0067   -0.0008 Zn  0  0  0  0  0  0  0  0  0  0  0  0
   46.0711    0.0049   -0.0384 C   0  0  0  0  0  0  0  0  0  0  0  0
   46.7238   -1.0059   -0.7742 C   0  0  0  0  0  0  0  0  0  0  0  0
   46.0552   -2.0476   -1.4948 C   0  0  0  0  0  0  0  0  0  0  0  0
   47.0182   -2.8108   -2.0733 C   0  0  0  0  0  0  0  0  0  0  0  0
   48.2848   -2.2353   -1.7185 C   0  0  0  0  0  0  0  0  0  0  0  0
   48.0687   -1.1444   -0.9188 N   0  0  0  0  0  0  0  0  0  0  0  0
   49.5351   -2.7275   -2.1117 C   0  0  0  0  0  0  0  0  0  0  0  0
   49.5472   -3.8994   -3.0203 C   0  0  0  0  0  0  0  0  0  0  0  0
   50.1546   -5.0972   -2.6332 C   0  0  0  0  0  0  0  0  0  0  0  0
   50.1689   -6.1889   -3.4806 C   0  0  0  0  0  0  0  0  0  0  0  0
   49.5861   -6.1110   -4.7514 C   0  0  0  0  0  0  0  0  0  0  0  0
   49.5863   -7.2468   -5.5489 N   0  0  0  0  0  0  0  0  0  0  0  0
   49.4637   -7.1103   -6.9942 C   0  0  0  0  0  0  0  0  0  0  0  0
   48.9705   -4.9181   -5.1406 C   0  0  0  0  0  0  0  0  0  0  0  0
   48.9533   -3.8322   -4.2817 C   0  0  0  0  0  0  0  0  0  0  0  0
   50.7762   -2.2098   -1.7217 C   0  0  0  0  0  0  0  0  0  0  0  0
   52.0523   -2.6853   -2.1764 C   0  0  0  0  0  0  0  0  0  0  0  0
   53.0019   -1.9258   -1.5712 C   0  0  0  0  0  0  0  0  0  0  0  0
   50.9732   -1.1600   -0.8643 N   0  0  0  0  0  0  0  0  0  0  0  0
   52.3154   -0.9731   -0.7513 C   0  0  0  0  0  0  0  0  0  0  0  0
   52.9508   -0.0005    0.0484 C   0  0  0  0  0  0  0  0  0  0  0  0
   52.2971    0.9759    0.8285 C   0  0  0  0  0  0  0  0  0  0  0  0
   52.9638    1.9269    1.6665 C   0  0  0  0  0  0  0  0  0  0  0  0
   52.0006    2.6944    2.2393 C   0  0  0  0  0  0  0  0  0  0  0  0
   50.7362    2.2250    1.7471 C   0  0  0  0  0  0  0  0  0  0  0  0
   50.9532    1.1705    0.9005 N   0  0  0  0  0  0  0  0  0  0  0  0
   49.4867    2.7526    2.0957 C   0  0  0  0  0  0  0  0  0  0  0  0
   49.4778    3.9358    2.9889 C   0  0  0  0  0  0  0  0  0  0  0  0
   48.8333    3.8951    4.2265 C   0  0  0  0  0  0  0  0  0  0  0  0
   48.8244    4.9956    5.0667 C   0  0  0  0  0  0  0  0  0  0  0  0
   49.4657    6.1768    4.6831 C   0  0  0  0  0  0  0  0  0  0  0  0
   49.4406    7.3271    5.4582 N   0  0  0  0  0  0  0  0  0  0  0  0
   49.2307    7.2236    6.8959 C   0  0  0  0  0  0  0  0  0  0  0  0
   50.1034    6.2270    3.4374 C   0  0  0  0  0  0  0  0  0  0  0  0
   50.1132    5.1214    2.6083 C   0  0  0  0  0  0  0  0  0  0  0  0
   48.2460    2.2605    1.6727 C   0  0  0  0  0  0  0  0  0  0  0  0
   46.9715    2.8408    1.9895 C   0  0  0  0  0  0  0  0  0  0  0  0
   46.0220    2.0699    1.3987 C   0  0  0  0  0  0  0  0  0  0  0  0
   46.7072    1.0209    0.7049 C   0  0  0  0  0  0  0  0  0  0  0  0
   48.0484    1.1615    0.8791 N   0  0  0  0  0  0  0  0  0  0  0  0
   44.9856   -2.1777   -1.5416 H   0  0  0  0  0  0  0  0  0  0  0  0
   46.8831   -3.6950   -2.6752 H   0  0  0  0  0  0  0  0  0  0  0  0
   50.6028   -5.1750   -1.6486 H   0  0  0  0  0  0  0  0  0  0  0  0
   50.6345   -7.1161   -3.1632 H   0  0  0  0  0  0  0  0  0  0  0  0
   50.3094   -7.9060   -5.2863 H   0  0  0  0  0  0  0  0  0  0  0  0
   48.4629   -6.7629   -7.2535 H   0  0  0  0  0  0  0  0  0  0  0  0
   50.2045   -6.4100   -7.3972 H   0  0  0  0  0  0  0  0  0  0  0  0
   49.6175   -8.0933   -7.4394 H   0  0  0  0  0  0  0  0  0  0  0  0
   48.5027   -4.8300   -6.1135 H   0  0  0  0  0  0  0  0  0  0  0  0
   48.4886   -2.9061   -4.6029 H   0  0  0  0  0  0  0  0  0  0  0  0
   52.2028   -3.4879   -2.8803 H   0  0  0  0  0  0  0  0  0  0  0  0
   54.0733   -1.9939   -1.6739 H   0  0  0  0  0  0  0  0  0  0  0  0
   54.0319    1.9886    1.8021 H   0  0  0  0  0  0  0  0  0  0  0  0
   52.1344    3.4978    2.9457 H   0  0  0  0  0  0  0  0  0  0  0  0
   48.3485    2.9784    4.5447 H   0  0  0  0  0  0  0  0  0  0  0  0
   48.3160    4.9280    6.0207 H   0  0  0  0  0  0  0  0  0  0  0  0
   50.1847    7.9729    5.2231 H   0  0  0  0  0  0  0  0  0  0  0  0
   49.9336    6.5202    7.3570 H   0  0  0  0  0  0  0  0  0  0  0  0
   49.3752    8.2134    7.3293 H   0  0  0  0  0  0  0  0  0  0  0  0
   48.2103    6.8984    7.1021 H   0  0  0  0  0  0  0  0  0  0  0  0
   50.5911    7.1443    3.1244 H   0  0  0  0  0  0  0  0  0  0  0  0
   50.6018    5.1789    1.6417 H   0  0  0  0  0  0  0  0  0  0  0  0
   46.8217    3.7329    2.5759 H   0  0  0  0  0  0  0  0  0  0  0  0
   44.9518    2.2008    1.4187 H   0  0  0  0  0  0  0  0  0  0  0  0
  2  3  4  0  0  0  0
  3  4  4  0  0  0  0
  4  5  2  0  0  0  0
  5  6  4  0  0  0  0
  1  7  1  0  0  0  0
  3  7  4  0  0  0  0
  6  7  4  0  0  0  0
  6  8  4  0  0  0  0
  8  9  1  0  0  0  0
  9 10  4  0  0  0  0
 10 11  4  0  0  0  0
 11 12  4  0  0  0  0
 12 13  1  0  0  0  0
 13 14  1  0  0  0  0
 12 15  4  0  0  0  0
  9 16  4  0  0  0  0
 15 16  4  0  0  0  0
  8 17  4  0  0  0  0
 17 18  4  0  0  0  0
 18 19  2  0  0  0  0
  1 20  1  0  0  0  0
 17 20  4  0  0  0  0
 19 21  4  0  0  0  0
 20 21  4  0  0  0  0
 21 22  4  0  0  0  0
 22 23  4  0  0  0  0
 23 24  4  0  0  0  0
 24 25  2  0  0  0  0
 25 26  4  0  0  0  0
  1 27  1  0  0  0  0
 23 27  4  0  0  0  0
 26 27  4  0  0  0  0
 26 28  4  0  0  0  0
 28 29  1  0  0  0  0
 29 30  4  0  0  0  0
 30 31  4  0  0  0  0
 31 32  4  0  0  0  0
 32 33  1  0  0  0  0
 33 34  1  0  0  0  0
 32 35  4  0  0  0  0
 29 36  4  0  0  0  0
 35 36  4  0  0  0  0
 28 37  4  0  0  0  0
 37 38  4  0  0  0  0
 38 39  2  0  0  0  0
  2 40  4  0  0  0  0
 39 40  4  0  0  0  0
  1 41  1  0  0  0  0
 37 41  4  0  0  0  0
 40 41  4  0  0  0  0
  2 42  1  0  0  0  0
  4 43  1  0  0  0  0
  5 44  1  0  0  0  0
 10 45  1  0  0  0  0
 11 46  1  0  0  0  0
 13 47  1  0  0  0  0
 14 48  1  0  0  0  0
 14 49  1  0  0  0  0
 14 50  1  0  0  0  0
 15 51  1  0  0  0  0
 16 52  1  0  0  0  0
 18 53  1  0  0  0  0
 19 54  1  0  0  0  0
 24 55  1  0  0  0  0
 25 56  1  0  0  0  0
 30 57  1  0  0  0  0
 31 58  1  0  0  0  0
 33 59  1  0  0  0  0
 34 60  1  0  0  0  0
 34 61  1  0  0  0  0
 34 62  1  0  0  0  0
 35 63  1  0  0  0  0
 36 64  1  0  0  0  0
 38 65  1  0  0  0  0
 39 66  1  0  0  0  0
 68 69  4  0  0  0  0
 69 70  4  0  0  0  0
 70 71  2  0  0  0  0
 71 72  4  0  0  0  0
 67 73  1  0  0  0  0
 69 73  4  0  0  0  0
 72 73  4  0  0  0  0
 72 74  4  0  0  0  0
 74 75  1  0  0  0  0
 75 76  4  0  0  0  0
 76 77  4  0  0  0  0
 77 78  4  0  0  0  0
 78 79  1  0  0  0  0
 79 80  1  0  0  0  0
 78 81  4  0  0  0  0
 75 82  4  0  0  0  0
 81 82  4  0  0  0  0
 74 83  4  0  0  0  0
 83 84  4  0  0  0  0
 84 85  2  0  0  0  0
 67 86  1  0  0  0  0
 83 86  4  0  0  0  0
 85 87  4  0  0  0  0
 86 87  4  0  0  0  0
 87 88  4  0  0  0  0
 88 89  4  0  0  0  0
 89 90  4  0  0  0  0
 90 91  2  0  0  0  0
 91 92  4  0  0  0  0
 67 93  1  0  0  0  0
 89 93  4  0  0  0  0
 92 93  4  0  0  0  0
 92 94  4  0  0  0  0
 94 95  1  0  0  0  0
 95 96  4  0  0  0  0
 96 97  4  0  0  0  0
 97 98  4  0  0  0  0
 98 99  1  0  0  0  0
 99100  1  0  0  0  0
 98101  4  0  0  0  0
 95102  4  0  0  0  0
101102  4  0  0  0  0
 94103  4  0  0  0  0
103104  4  0  0  0  0
104105  2  0  0  0  0
 68106  4  0  0  0  0
105106  4  0  0  0  0
 67107  1  0  0  0  0
103107  4  0  0  0  0
106107  4  0  0  0  0
 68108  1  0  0  0  0
 70109  1  0  0  0  0
 71110  1  0  0  0  0
 76111  1  0  0  0  0
 77112  1  0  0  0  0
 79113  1  0  0  0  0
 80114  1  0  0  0  0
 80115  1  0  0  0  0
 80116  1  0  0  0  0
 81117  1  0  0  0  0
 82118  1  0  0  0  0
 84119  1  0  0  0  0
 85120  1  0  0  0  0
 90121  1  0  0  0  0
 91122  1  0  0  0  0
 96123  1  0  0  0  0
 97124  1  0  0  0  0
 99125  1  0  0  0  0
100126  1  0  0  0  0
100127  1  0  0  0  0
100128  1  0  0  0  0
101129  1  0  0  0  0
102130  1  0  0  0  0
104131  1  0  0  0  0
105132  1  0  0  0  0
 22133  4  0  0  0  0
133134  3  0  0  0  0
134135  4  0  0  0  0
135136  3  0  0  0  0
136137  4  0  0  0  0
137138  3  0  0  0  0
138139  4  0  0  0  0
139140  3  0  0  0  0
141142  3  0  0  0  0
142143  4  0  0  0  0
143144  3  0  0  0  0
144145  4  0  0  0  0
145146  3  0  0  0  0
146147  4  0  0  0  0
 88148  4  0  0  0  0
147148  3  0  0  0  0
140150  4  0  0  0  0
150151  4  0  0  0  0
151152  4  0  0  0  0
152153  2  0  0  0  0
153154  4  0  0  0  0
149155  1  0  0  0  0
151155  4  0  0  0  0
154155  4  0  0  0  0
154156  4  0  0  0  0
156157  1  0  0  0  0
157158  4  0  0  0  0
158159  4  0  0  0  0
159160  4  0  0  0  0
160161  1  0  0  0  0
161162  1  0  0  0  0
160163  4  0  0  0  0
157164  4  0  0  0  0
163164  4  0  0  0  0
156165  4  0  0  0  0
165166  4  0  0  0  0
166167  2  0  0  0  0
149168  1  0  0  0  0
165168  4  0  0  0  0
167169  4  0  0  0  0
168169  4  0  0  0  0
141170  4  0  0  0  0
169170  4  0  0  0  0
170171  4  0  0  0  0
171172  4  0  0  0  0
172173  2  0  0  0  0
173174  4  0  0  0  0
149175  1  0  0  0  0
171175  4  0  0  0  0
174175  4  0  0  0  0
174176  4  0  0  0  0
176177  1  0  0  0  0
177178  4  0  0  0  0
178179  4  0  0  0  0
179180  4  0  0  0  0
180181  1  0  0  0  0
181182  1  0  0  0  0
180183  4  0  0  0  0
177184  4  0  0  0  0
183184  4  0  0  0  0
176185  4  0  0  0  0
185186  4  0  0  0  0
186187  2  0  0  0  0
150188  4  0  0  0  0
187188  4  0  0  0  0
149189  1  0  0  0  0
185189  4  0  0  0  0
188189  4  0  0  0  0
152190  1  0  0  0  0
153191  1  0  0  0  0
158192  1  0  0  0  0
159193  1  0  0  0  0
161194  1  0  0  0  0
162195  1  0  0  0  0
162196  1  0  0  0  0
162197  1  0  0  0  0
163198  1  0  0  0  0
164199  1  0  0  0  0
166200  1  0  0  0  0
167201  1  0  0  0  0
172202  1  0  0  0  0
173203  1  0  0  0  0
178204  1  0  0  0  0
179205  1  0  0  0  0
181206  1  0  0  0  0
182207  1  0  0  0  0
182208  1  0  0  0  0
182209  1  0  0  0  0
183210  1  0  0  0  0
184211  1  0  0  0  0
186212  1  0  0  0  0
187213  1  0  0  0  0
M  END
