 xtb: 6.5.1 (b24c23e)
          07272214053D

240267  0     0  0            999 V2000
   48.9976    0.0847   -0.0276 C   0  0  0  0  0  0  0  0  0  0  0  0
   49.6052    1.3306   -0.1114 C   0  0  0  0  0  0  0  0  0  0  0  0
   48.9527    2.5947   -0.1577 C   0  0  0  0  0  0  0  0  0  0  0  0
   49.9139    3.5620   -0.2404 C   0  0  0  0  0  0  0  0  0  0  0  0
   51.1850    2.9190   -0.2603 C   0  0  0  0  0  0  0  0  0  0  0  0
   50.9479    1.5769   -0.1708 N   0  0  0  0  0  0  0  0  0  0  0  0
   52.4478    3.5173   -0.3328 C   0  0  0  0  0  0  0  0  0  0  0  0
   52.4787    4.9962   -0.4315 C   0  0  0  0  0  0  0  0  0  0  0  0
   53.1027    5.7559    0.5611 C   0  0  0  0  0  0  0  0  0  0  0  0
   53.1276    7.1365    0.4811 C   0  0  0  0  0  0  0  0  0  0  0  0
   52.5298    7.7866   -0.6028 C   0  0  0  0  0  0  0  0  0  0  0  0
   52.5545    9.2073   -0.6893 C   0  0  0  0  0  0  0  0  0  0  0  0
   52.5722   10.3558   -0.7591 N   0  0  0  0  0  0  0  0  0  0  0  0
   51.9075    7.0310   -1.6008 C   0  0  0  0  0  0  0  0  0  0  0  0
   51.8814    5.6507   -1.5112 C   0  0  0  0  0  0  0  0  0  0  0  0
   53.6649    2.8303   -0.3147 C   0  0  0  0  0  0  0  0  0  0  0  0
   54.9588    3.4730   -0.4592 C   0  0  0  0  0  0  0  0  0  0  0  0
   55.8820    2.4918   -0.3905 C   0  0  0  0  0  0  0  0  0  0  0  0
   53.8233    1.4855   -0.1826 N   0  0  0  0  0  0  0  0  0  0  0  0
   55.1519    1.2514   -0.2130 C   0  0  0  0  0  0  0  0  0  0  0  0
   55.7909    0.0057   -0.0623 C   0  0  0  0  0  0  0  0  0  0  0  0
   55.1587   -1.2399    0.1027 C   0  0  0  0  0  0  0  0  0  0  0  0
   55.8032   -2.4947    0.2682 C   0  0  0  0  0  0  0  0  0  0  0  0
   54.8372   -3.4574    0.3628 C   0  0  0  0  0  0  0  0  0  0  0  0
   53.5707   -2.8204    0.2453 C   0  0  0  0  0  0  0  0  0  0  0  0
   53.8165   -1.4809    0.1010 N   0  0  0  0  0  0  0  0  0  0  0  0
   52.3090   -3.4238    0.2868 C   0  0  0  0  0  0  0  0  0  0  0  0
   52.2785   -4.8996    0.4195 C   0  0  0  0  0  0  0  0  0  0  0  0
   51.6622   -5.4993    1.5204 C   0  0  0  0  0  0  0  0  0  0  0  0
   51.6310   -6.8763    1.6473 C   0  0  0  0  0  0  0  0  0  0  0  0
   52.2139   -7.6842    0.6664 C   0  0  0  0  0  0  0  0  0  0  0  0
   52.1802   -9.1018    0.7909 C   0  0  0  0  0  0  0  0  0  0  0  0
   52.1534  -10.2479    0.8914 N   0  0  0  0  0  0  0  0  0  0  0  0
   52.8301   -7.0893   -0.4385 C   0  0  0  0  0  0  0  0  0  0  0  0
   52.8630   -5.7114   -0.5557 C   0  0  0  0  0  0  0  0  0  0  0  0
   51.0905   -2.7412    0.2068 C   0  0  0  0  0  0  0  0  0  0  0  0
   49.7881   -3.3899    0.1918 C   0  0  0  0  0  0  0  0  0  0  0  0
   48.8720   -2.4051    0.1042 C   0  0  0  0  0  0  0  0  0  0  0  0
   49.6135   -1.1570    0.0546 C   0  0  0  0  0  0  0  0  0  0  0  0
   50.9464   -1.3987    0.1087 N   0  0  0  0  0  0  0  0  0  0  0  0
   47.9123    0.0921   -0.0246 H   0  0  0  0  0  0  0  0  0  0  0  0
   47.8838    2.7325   -0.1232 H   0  0  0  0  0  0  0  0  0  0  0  0
   49.7619    4.6285   -0.2764 H   0  0  0  0  0  0  0  0  0  0  0  0
   51.6733    0.8681   -0.1459 H   0  0  0  0  0  0  0  0  0  0  0  0
   53.5561    5.2558    1.4094 H   0  0  0  0  0  0  0  0  0  0  0  0
   53.6080    7.7191    1.2584 H   0  0  0  0  0  0  0  0  0  0  0  0
   51.4472    7.5312   -2.4449 H   0  0  0  0  0  0  0  0  0  0  0  0
   51.4096    5.0684   -2.2947 H   0  0  0  0  0  0  0  0  0  0  0  0
   55.1177    4.5289   -0.6067 H   0  0  0  0  0  0  0  0  0  0  0  0
   56.9551    2.5752   -0.4520 H   0  0  0  0  0  0  0  0  0  0  0  0
   56.8711   -2.6350    0.3093 H   0  0  0  0  0  0  0  0  0  0  0  0
   54.9860   -4.5148    0.5088 H   0  0  0  0  0  0  0  0  0  0  0  0
   53.0939   -0.7746    0.0081 H   0  0  0  0  0  0  0  0  0  0  0  0
   51.2196   -4.8761    2.2892 H   0  0  0  0  0  0  0  0  0  0  0  0
   51.1561   -7.3339    2.5073 H   0  0  0  0  0  0  0  0  0  0  0  0
   53.2790   -7.7122   -1.2032 H   0  0  0  0  0  0  0  0  0  0  0  0
   53.3289   -5.2548   -1.4217 H   0  0  0  0  0  0  0  0  0  0  0  0
   49.6230   -4.4547    0.2293 H   0  0  0  0  0  0  0  0  0  0  0  0
   47.7969   -2.4838    0.0660 H   0  0  0  0  0  0  0  0  0  0  0  0
   88.4510   -0.0948    0.0240 C   0  0  0  0  0  0  0  0  0  0  0  0
   87.8469   -1.2929    0.3821 C   0  0  0  0  0  0  0  0  0  0  0  0
   88.5036   -2.4953    0.7678 C   0  0  0  0  0  0  0  0  0  0  0  0
   87.5452   -3.4333    1.0293 C   0  0  0  0  0  0  0  0  0  0  0  0
   86.2719   -2.8366    0.8018 C   0  0  0  0  0  0  0  0  0  0  0  0
   86.5047   -1.5452    0.4236 N   0  0  0  0  0  0  0  0  0  0  0  0
   85.0108   -3.4249    0.9504 C   0  0  0  0  0  0  0  0  0  0  0  0
   84.9862   -4.8540    1.3440 C   0  0  0  0  0  0  0  0  0  0  0  0
   84.3749   -5.2509    2.5357 C   0  0  0  0  0  0  0  0  0  0  0  0
   84.3538   -6.5832    2.9073 C   0  0  0  0  0  0  0  0  0  0  0  0
   84.9425   -7.5495    2.0861 C   0  0  0  0  0  0  0  0  0  0  0  0
   84.9204   -8.9220    2.4634 C   0  0  0  0  0  0  0  0  0  0  0  0
   84.9046  -10.0318    2.7673 N   0  0  0  0  0  0  0  0  0  0  0  0
   85.5530   -7.1580    0.8909 C   0  0  0  0  0  0  0  0  0  0  0  0
   85.5755   -5.8232    0.5286 C   0  0  0  0  0  0  0  0  0  0  0  0
   83.7913   -2.7726    0.7502 C   0  0  0  0  0  0  0  0  0  0  0  0
   82.4983   -3.4263    0.8439 C   0  0  0  0  0  0  0  0  0  0  0  0
   81.5730   -2.4816    0.5766 C   0  0  0  0  0  0  0  0  0  0  0  0
   83.6298   -1.4635    0.4148 N   0  0  0  0  0  0  0  0  0  0  0  0
   82.3010   -1.2555    0.3127 C   0  0  0  0  0  0  0  0  0  0  0  0
   81.6590   -0.0445   -0.0131 C   0  0  0  0  0  0  0  0  0  0  0  0
   82.2881    1.1712   -0.3384 C   0  0  0  0  0  0  0  0  0  0  0  0
   81.6397    2.4031   -0.6196 C   0  0  0  0  0  0  0  0  0  0  0  0
   82.6028    3.3396   -0.8738 C   0  0  0  0  0  0  0  0  0  0  0  0
   83.8712    2.7051   -0.7631 C   0  0  0  0  0  0  0  0  0  0  0  0
   83.6291    1.3986   -0.4311 N   0  0  0  0  0  0  0  0  0  0  0  0
   85.1318    3.2905   -0.9248 C   0  0  0  0  0  0  0  0  0  0  0  0
   85.1595    4.7230   -1.3028 C   0  0  0  0  0  0  0  0  0  0  0  0
   85.7725    5.6615   -0.4688 C   0  0  0  0  0  0  0  0  0  0  0  0
   85.7987    7.0007   -0.8138 C   0  0  0  0  0  0  0  0  0  0  0  0
   85.2137    7.4281   -2.0096 C   0  0  0  0  0  0  0  0  0  0  0  0
   85.2402    8.8054   -2.3684 C   0  0  0  0  0  0  0  0  0  0  0  0
   85.2621    9.9187   -2.6586 N   0  0  0  0  0  0  0  0  0  0  0  0
   84.6019    6.4928   -2.8495 C   0  0  0  0  0  0  0  0  0  0  0  0
   84.5742    5.1559   -2.4952 C   0  0  0  0  0  0  0  0  0  0  0  0
   86.3518    2.6275   -0.7532 C   0  0  0  0  0  0  0  0  0  0  0  0
   87.6532    3.2348   -0.9869 C   0  0  0  0  0  0  0  0  0  0  0  0
   88.5714    2.2845   -0.7207 C   0  0  0  0  0  0  0  0  0  0  0  0
   87.8323    1.0955   -0.3339 C   0  0  0  0  0  0  0  0  0  0  0  0
   86.4986    1.3362   -0.3743 N   0  0  0  0  0  0  0  0  0  0  0  0
   89.5363   -0.0986    0.0268 H   0  0  0  0  0  0  0  0  0  0  0  0
   89.5732   -2.6122    0.8382 H   0  0  0  0  0  0  0  0  0  0  0  0
   87.7005   -4.4474    1.3598 H   0  0  0  0  0  0  0  0  0  0  0  0
   85.7767   -0.8718    0.2092 H   0  0  0  0  0  0  0  0  0  0  0  0
   83.9282   -4.5031    3.1811 H   0  0  0  0  0  0  0  0  0  0  0  0
   83.8829   -6.8826    3.8363 H   0  0  0  0  0  0  0  0  0  0  0  0
   86.0062   -7.9047    0.2495 H   0  0  0  0  0  0  0  0  0  0  0  0
   86.0377   -5.5259   -0.4060 H   0  0  0  0  0  0  0  0  0  0  0  0
   82.3413   -4.4693    1.0663 H   0  0  0  0  0  0  0  0  0  0  0  0
   80.5004   -2.5850    0.5400 H   0  0  0  0  0  0  0  0  0  0  0  0
   80.5718    2.5493   -0.6143 H   0  0  0  0  0  0  0  0  0  0  0  0
   82.4509    4.3813   -1.1048 H   0  0  0  0  0  0  0  0  0  0  0  0
   84.3542    0.7084   -0.2650 H   0  0  0  0  0  0  0  0  0  0  0  0
   86.2156    5.3360    0.4655 H   0  0  0  0  0  0  0  0  0  0  0  0
   86.2705    7.7233   -0.1584 H   0  0  0  0  0  0  0  0  0  0  0  0
   84.1518    6.8195   -3.7796 H   0  0  0  0  0  0  0  0  0  0  0  0
   84.1114    4.4322   -3.1567 H   0  0  0  0  0  0  0  0  0  0  0  0
   87.8165    4.2458   -1.3236 H   0  0  0  0  0  0  0  0  0  0  0  0
   89.6466    2.3487   -0.7788 H   0  0  0  0  0  0  0  0  0  0  0  0
   57.2020   -0.0084   -0.0703 C   0  0  0  0  0  0  0  0  0  0  0  0
   58.4185   -0.0240   -0.0731 C   0  0  0  0  0  0  0  0  0  0  0  0
   68.1169   -0.0584   -0.0531 C   0  0  0  0  0  0  0  0  0  0  0  0
   69.3351   -0.0532   -0.0436 C   0  0  0  0  0  0  0  0  0  0  0  0
   79.0324   -0.0246   -0.0215 C   0  0  0  0  0  0  0  0  0  0  0  0
   80.2491   -0.0362   -0.0167 C   0  0  0  0  0  0  0  0  0  0  0  0
   59.8285   -0.0350   -0.0782 C   0  0  0  0  0  0  0  0  0  0  0  0
   60.4610    0.8827   -0.9369 C   0  0  0  0  0  0  0  0  0  0  0  0
   59.8249    1.8266   -1.7840 C   0  0  0  0  0  0  0  0  0  0  0  0
   60.7960    2.4748   -2.4969 C   0  0  0  0  0  0  0  0  0  0  0  0
   62.0544    1.9351   -2.1142 C   0  0  0  0  0  0  0  0  0  0  0  0
   61.8027    0.9912   -1.1558 N   0  0  0  0  0  0  0  0  0  0  0  0
   63.3146    2.2784   -2.6199 C   0  0  0  0  0  0  0  0  0  0  0  0
   63.3369    3.2777   -3.7149 C   0  0  0  0  0  0  0  0  0  0  0  0
   62.6720    3.0299   -4.9182 C   0  0  0  0  0  0  0  0  0  0  0  0
   62.6947    3.9612   -5.9409 C   0  0  0  0  0  0  0  0  0  0  0  0
   63.3816    5.1675   -5.7753 C   0  0  0  0  0  0  0  0  0  0  0  0
   63.4029    6.1300   -6.8240 C   0  0  0  0  0  0  0  0  0  0  0  0
   63.4216    6.9057   -7.6738 N   0  0  0  0  0  0  0  0  0  0  0  0
   64.0470    5.4215   -4.5723 C   0  0  0  0  0  0  0  0  0  0  0  0
   64.0254    4.4830   -3.5564 C   0  0  0  0  0  0  0  0  0  0  0  0
   64.5352    1.7585   -2.1845 C   0  0  0  0  0  0  0  0  0  0  0  0
   65.8101    2.0646   -2.8077 C   0  0  0  0  0  0  0  0  0  0  0  0
   66.7494    1.4074   -2.0964 C   0  0  0  0  0  0  0  0  0  0  0  0
   64.7193    0.9080   -1.1374 N   0  0  0  0  0  0  0  0  0  0  0  0
   66.0487    0.6994   -1.0444 C   0  0  0  0  0  0  0  0  0  0  0  0
   66.7092   -0.0643   -0.0601 C   0  0  0  0  0  0  0  0  0  0  0  0
   66.0728   -0.8420    0.9271 C   0  0  0  0  0  0  0  0  0  0  0  0
   66.7026   -1.5740    1.9658 C   0  0  0  0  0  0  0  0  0  0  0  0
   65.7305   -2.2298    2.6705 C   0  0  0  0  0  0  0  0  0  0  0  0
   64.4761   -1.9189    2.0789 C   0  0  0  0  0  0  0  0  0  0  0  0
   64.7320   -1.0630    1.0413 N   0  0  0  0  0  0  0  0  0  0  0  0
   63.2162   -2.3856    2.4741 C   0  0  0  0  0  0  0  0  0  0  0  0
   63.1974   -3.3731    3.5798 C   0  0  0  0  0  0  0  0  0  0  0  0
   63.8557   -4.5981    3.4484 C   0  0  0  0  0  0  0  0  0  0  0  0
   63.8362   -5.5229    4.4771 C   0  0  0  0  0  0  0  0  0  0  0  0
   63.1597   -5.2345    5.6661 C   0  0  0  0  0  0  0  0  0  0  0  0
   63.1387   -6.1832    6.7273 C   0  0  0  0  0  0  0  0  0  0  0  0
   63.1267   -6.9468    7.5879 N   0  0  0  0  0  0  0  0  0  0  0  0
   62.5027   -4.0082    5.8044 C   0  0  0  0  0  0  0  0  0  0  0  0
   62.5211   -3.0909    4.7694 C   0  0  0  0  0  0  0  0  0  0  0  0
   61.9938   -1.9957    1.9227 C   0  0  0  0  0  0  0  0  0  0  0  0
   60.7127   -2.5532    2.3187 C   0  0  0  0  0  0  0  0  0  0  0  0
   59.7741   -1.8969    1.6058 C   0  0  0  0  0  0  0  0  0  0  0  0
   60.4826   -0.9500    0.7681 C   0  0  0  0  0  0  0  0  0  0  0  0
   61.8144   -1.0462    0.9651 N   0  0  0  0  0  0  0  0  0  0  0  0
   58.7600    1.9843   -1.8372 H   0  0  0  0  0  0  0  0  0  0  0  0
   60.6546    3.2621   -3.2192 H   0  0  0  0  0  0  0  0  0  0  0  0
   62.5153    0.4470   -0.6812 H   0  0  0  0  0  0  0  0  0  0  0  0
   62.1499    2.0898   -5.0566 H   0  0  0  0  0  0  0  0  0  0  0  0
   62.1820    3.7586   -6.8739 H   0  0  0  0  0  0  0  0  0  0  0  0
   64.5778    6.3568   -4.4392 H   0  0  0  0  0  0  0  0  0  0  0  0
   64.5328    4.6881   -2.6206 H   0  0  0  0  0  0  0  0  0  0  0  0
   65.9452    2.6815   -3.6812 H   0  0  0  0  0  0  0  0  0  0  0  0
   67.8139    1.3744   -2.2615 H   0  0  0  0  0  0  0  0  0  0  0  0
   67.7633   -1.5843    2.1539 H   0  0  0  0  0  0  0  0  0  0  0  0
   65.8682   -2.8624    3.5320 H   0  0  0  0  0  0  0  0  0  0  0  0
   64.0214   -0.6492    0.4473 H   0  0  0  0  0  0  0  0  0  0  0  0
   64.3701   -4.8316    2.5230 H   0  0  0  0  0  0  0  0  0  0  0  0
   64.3431   -6.4741    4.3644 H   0  0  0  0  0  0  0  0  0  0  0  0
   61.9806   -3.7797    6.7261 H   0  0  0  0  0  0  0  0  0  0  0  0
   62.0208   -2.1362    4.8850 H   0  0  0  0  0  0  0  0  0  0  0  0
   60.5721   -3.3463    3.0349 H   0  0  0  0  0  0  0  0  0  0  0  0
   58.7038   -2.0249    1.6268 H   0  0  0  0  0  0  0  0  0  0  0  0
   70.7428   -0.0434   -0.0382 C   0  0  0  0  0  0  0  0  0  0  0  0
   71.3719    0.9641   -0.7960 C   0  0  0  0  0  0  0  0  0  0  0  0
   70.7323    2.0049   -1.5166 C   0  0  0  0  0  0  0  0  0  0  0  0
   71.6991    2.7354   -2.1516 C   0  0  0  0  0  0  0  0  0  0  0  0
   72.9598    2.1588   -1.8384 C   0  0  0  0  0  0  0  0  0  0  0  0
   72.7127    1.1037   -1.0016 N   0  0  0  0  0  0  0  0  0  0  0  0
   74.2170    2.5810   -2.2890 C   0  0  0  0  0  0  0  0  0  0  0  0
   74.2245    3.6924   -3.2702 C   0  0  0  0  0  0  0  0  0  0  0  0
   73.5755    3.5531   -4.4997 C   0  0  0  0  0  0  0  0  0  0  0  0
   73.5854    4.5828   -5.4231 C   0  0  0  0  0  0  0  0  0  0  0  0
   74.2430    5.7811   -5.1292 C   0  0  0  0  0  0  0  0  0  0  0  0
   74.2538    6.8438   -6.0765 C   0  0  0  0  0  0  0  0  0  0  0  0
   74.2616    7.6999   -6.8452 N   0  0  0  0  0  0  0  0  0  0  0  0
   74.8901    5.9275   -3.8987 C   0  0  0  0  0  0  0  0  0  0  0  0
   74.8813    4.8912   -2.9825 C   0  0  0  0  0  0  0  0  0  0  0  0
   75.4448    2.0422   -1.8991 C   0  0  0  0  0  0  0  0  0  0  0  0
   76.7232    2.4589   -2.4476 C   0  0  0  0  0  0  0  0  0  0  0  0
   77.6664    1.7348   -1.8103 C   0  0  0  0  0  0  0  0  0  0  0  0
   75.6310    1.0662   -0.9694 N   0  0  0  0  0  0  0  0  0  0  0  0
   76.9633    0.8723   -0.8817 C   0  0  0  0  0  0  0  0  0  0  0  0
   77.6234   -0.0234   -0.0188 C   0  0  0  0  0  0  0  0  0  0  0  0
   76.9979   -0.9306    0.8566 C   0  0  0  0  0  0  0  0  0  0  0  0
   77.6416   -1.7926    1.7815 C   0  0  0  0  0  0  0  0  0  0  0  0
   76.6756   -2.5160    2.4258 C   0  0  0  0  0  0  0  0  0  0  0  0
   75.4129   -2.1228    1.9045 C   0  0  0  0  0  0  0  0  0  0  0  0
   75.6575   -1.1520    0.9711 N   0  0  0  0  0  0  0  0  0  0  0  0
   74.1540   -2.6224    2.2607 C   0  0  0  0  0  0  0  0  0  0  0  0
   74.1368   -3.7166    3.2610 C   0  0  0  0  0  0  0  0  0  0  0  0
   74.7922   -4.9244    3.0106 C   0  0  0  0  0  0  0  0  0  0  0  0
   74.7779   -5.9415    3.9482 C   0  0  0  0  0  0  0  0  0  0  0  0
   74.1092   -5.7657    5.1632 C   0  0  0  0  0  0  0  0  0  0  0  0
   74.0973   -6.8077    6.1331 C   0  0  0  0  0  0  0  0  0  0  0  0
   74.0922   -7.6493    6.9179 N   0  0  0  0  0  0  0  0  0  0  0  0
   73.4516   -4.5588    5.4189 C   0  0  0  0  0  0  0  0  0  0  0  0
   73.4647   -3.5487    4.4743 C   0  0  0  0  0  0  0  0  0  0  0  0
   72.9297   -2.1773    1.7580 C   0  0  0  0  0  0  0  0  0  0  0  0
   71.6567   -2.8013    2.0702 C   0  0  0  0  0  0  0  0  0  0  0  0
   70.7134   -2.0878    1.4215 C   0  0  0  0  0  0  0  0  0  0  0  0
   71.4092   -1.0308    0.7160 C   0  0  0  0  0  0  0  0  0  0  0  0
   72.7400   -1.1241    0.9165 N   0  0  0  0  0  0  0  0  0  0  0  0
   69.6690    2.1765   -1.5337 H   0  0  0  0  0  0  0  0  0  0  0  0
   71.5535    3.6052   -2.7711 H   0  0  0  0  0  0  0  0  0  0  0  0
   73.4289    0.5129   -0.5928 H   0  0  0  0  0  0  0  0  0  0  0  0
   73.0760    2.6205   -4.7371 H   0  0  0  0  0  0  0  0  0  0  0  0
   73.0862    4.4639   -6.3776 H   0  0  0  0  0  0  0  0  0  0  0  0
   75.3974    6.8564   -3.6660 H   0  0  0  0  0  0  0  0  0  0  0  0
   75.3739    5.0132   -2.0245 H   0  0  0  0  0  0  0  0  0  0  0  0
   76.8589    3.1924   -3.2257 H   0  0  0  0  0  0  0  0  0  0  0  0
   78.7355    1.7541   -1.9485 H   0  0  0  0  0  0  0  0  0  0  0  0
   78.7070   -1.8398    1.9380 H   0  0  0  0  0  0  0  0  0  0  0  0
   76.8235   -3.2489    3.2019 H   0  0  0  0  0  0  0  0  0  0  0  0
   74.9397   -0.6624    0.4475 H   0  0  0  0  0  0  0  0  0  0  0  0
   75.3006   -5.0706    2.0642 H   0  0  0  0  0  0  0  0  0  0  0  0
   75.2837   -6.8779    3.7440 H   0  0  0  0  0  0  0  0  0  0  0  0
   72.9340   -4.4181    6.3605 H   0  0  0  0  0  0  0  0  0  0  0  0
   72.9640   -2.6096    4.6807 H   0  0  0  0  0  0  0  0  0  0  0  0
   71.5259   -3.6779    2.6837 H   0  0  0  0  0  0  0  0  0  0  0  0
   69.6487   -2.2525    1.3950 H   0  0  0  0  0  0  0  0  0  0  0  0
  1  2  4  0  0  0  0
  2  3  4  0  0  0  0
  3  4  2  0  0  0  0
  4  5  4  0  0  0  0
  2  6  4  0  0  0  0
  5  6  4  0  0  0  0
  5  7  4  0  0  0  0
  7  8  1  0  0  0  0
  8  9  4  0  0  0  0
  9 10  4  0  0  0  0
 10 11  4  0  0  0  0
 11 12  1  0  0  0  0
 12 13  3  0  0  0  0
 11 14  4  0  0  0  0
  8 15  4  0  0  0  0
 14 15  4  0  0  0  0
  7 16  4  0  0  0  0
 16 17  1  0  0  0  0
 17 18  2  0  0  0  0
 16 19  4  0  0  0  0
 18 20  1  0  0  0  0
 19 20  4  0  0  0  0
 20 21  4  0  0  0  0
 21 22  4  0  0  0  0
 22 23  4  0  0  0  0
 23 24  2  0  0  0  0
 24 25  4  0  0  0  0
 22 26  4  0  0  0  0
 25 26  4  0  0  0  0
 25 27  4  0  0  0  0
 27 28  1  0  0  0  0
 28 29  4  0  0  0  0
 29 30  4  0  0  0  0
 30 31  4  0  0  0  0
 31 32  1  0  0  0  0
 32 33  3  0  0  0  0
 31 34  4  0  0  0  0
 28 35  4  0  0  0  0
 34 35  4  0  0  0  0
 27 36  4  0  0  0  0
 36 37  1  0  0  0  0
 37 38  2  0  0  0  0
  1 39  4  0  0  0  0
 38 39  1  0  0  0  0
 36 40  4  0  0  0  0
 39 40  4  0  0  0  0
  1 41  1  0  0  0  0
  3 42  1  0  0  0  0
  4 43  1  0  0  0  0
  6 44  1  0  0  0  0
  9 45  1  0  0  0  0
 10 46  1  0  0  0  0
 14 47  1  0  0  0  0
 15 48  1  0  0  0  0
 17 49  1  0  0  0  0
 18 50  1  0  0  0  0
 23 51  1  0  0  0  0
 24 52  1  0  0  0  0
 26 53  1  0  0  0  0
 29 54  1  0  0  0  0
 30 55  1  0  0  0  0
 34 56  1  0  0  0  0
 35 57  1  0  0  0  0
 37 58  1  0  0  0  0
 38 59  1  0  0  0  0
 60 61  4  0  0  0  0
 61 62  4  0  0  0  0
 62 63  2  0  0  0  0
 63 64  4  0  0  0  0
 61 65  4  0  0  0  0
 64 65  4  0  0  0  0
 64 66  4  0  0  0  0
 66 67  1  0  0  0  0
 67 68  4  0  0  0  0
 68 69  4  0  0  0  0
 69 70  4  0  0  0  0
 70 71  1  0  0  0  0
 71 72  3  0  0  0  0
 70 73  4  0  0  0  0
 67 74  4  0  0  0  0
 73 74  4  0  0  0  0
 66 75  4  0  0  0  0
 75 76  1  0  0  0  0
 76 77  2  0  0  0  0
 75 78  4  0  0  0  0
 77 79  1  0  0  0  0
 78 79  4  0  0  0  0
 79 80  4  0  0  0  0
 80 81  4  0  0  0  0
 81 82  4  0  0  0  0
 82 83  2  0  0  0  0
 83 84  4  0  0  0  0
 81 85  4  0  0  0  0
 84 85  4  0  0  0  0
 84 86  4  0  0  0  0
 86 87  1  0  0  0  0
 87 88  4  0  0  0  0
 88 89  4  0  0  0  0
 89 90  4  0  0  0  0
 90 91  1  0  0  0  0
 91 92  3  0  0  0  0
 90 93  4  0  0  0  0
 87 94  4  0  0  0  0
 93 94  4  0  0  0  0
 86 95  4  0  0  0  0
 95 96  1  0  0  0  0
 96 97  2  0  0  0  0
 60 98  4  0  0  0  0
 97 98  1  0  0  0  0
 95 99  4  0  0  0  0
 98 99  4  0  0  0  0
 60100  1  0  0  0  0
 62101  1  0  0  0  0
 63102  1  0  0  0  0
 65103  1  0  0  0  0
 68104  1  0  0  0  0
 69105  1  0  0  0  0
 73106  1  0  0  0  0
 74107  1  0  0  0  0
 76108  1  0  0  0  0
 77109  1  0  0  0  0
 82110  1  0  0  0  0
 83111  1  0  0  0  0
 85112  1  0  0  0  0
 88113  1  0  0  0  0
 89114  1  0  0  0  0
 93115  1  0  0  0  0
 94116  1  0  0  0  0
 96117  1  0  0  0  0
 97118  1  0  0  0  0
 21119  4  0  0  0  0
119120  3  0  0  0  0
121122  3  0  0  0  0
 80124  4  0  0  0  0
123124  3  0  0  0  0
120125  4  0  0  0  0
125126  4  0  0  0  0
126127  4  0  0  0  0
127128  2  0  0  0  0
128129  4  0  0  0  0
126130  4  0  0  0  0
129130  4  0  0  0  0
129131  4  0  0  0  0
131132  1  0  0  0  0
132133  4  0  0  0  0
133134  4  0  0  0  0
134135  4  0  0  0  0
135136  1  0  0  0  0
136137  3  0  0  0  0
135138  4  0  0  0  0
132139  4  0  0  0  0
138139  4  0  0  0  0
131140  4  0  0  0  0
140141  1  0  0  0  0
141142  2  0  0  0  0
140143  4  0  0  0  0
142144  1  0  0  0  0
143144  4  0  0  0  0
121145  4  0  0  0  0
144145  4  0  0  0  0
145146  4  0  0  0  0
146147  4  0  0  0  0
147148  2  0  0  0  0
148149  4  0  0  0  0
146150  4  0  0  0  0
149150  4  0  0  0  0
149151  4  0  0  0  0
151152  1  0  0  0  0
152153  4  0  0  0  0
153154  4  0  0  0  0
154155  4  0  0  0  0
155156  1  0  0  0  0
156157  3  0  0  0  0
155158  4  0  0  0  0
152159  4  0  0  0  0
158159  4  0  0  0  0
151160  4  0  0  0  0
160161  1  0  0  0  0
161162  2  0  0  0  0
125163  4  0  0  0  0
162163  1  0  0  0  0
160164  4  0  0  0  0
163164  4  0  0  0  0
127165  1  0  0  0  0
128166  1  0  0  0  0
130167  1  0  0  0  0
133168  1  0  0  0  0
134169  1  0  0  0  0
138170  1  0  0  0  0
139171  1  0  0  0  0
141172  1  0  0  0  0
142173  1  0  0  0  0
147174  1  0  0  0  0
148175  1  0  0  0  0
150176  1  0  0  0  0
153177  1  0  0  0  0
154178  1  0  0  0  0
158179  1  0  0  0  0
159180  1  0  0  0  0
161181  1  0  0  0  0
162182  1  0  0  0  0
122183  4  0  0  0  0
183184  4  0  0  0  0
184185  4  0  0  0  0
185186  2  0  0  0  0
186187  4  0  0  0  0
184188  4  0  0  0  0
187188  4  0  0  0  0
187189  4  0  0  0  0
189190  1  0  0  0  0
190191  4  0  0  0  0
191192  4  0  0  0  0
192193  4  0  0  0  0
193194  1  0  0  0  0
194195  3  0  0  0  0
193196  4  0  0  0  0
190197  4  0  0  0  0
196197  4  0  0  0  0
189198  4  0  0  0  0
198199  1  0  0  0  0
199200  2  0  0  0  0
198201  4  0  0  0  0
200202  1  0  0  0  0
201202  4  0  0  0  0
123203  4  0  0  0  0
202203  4  0  0  0  0
203204  4  0  0  0  0
204205  4  0  0  0  0
205206  2  0  0  0  0
206207  4  0  0  0  0
204208  4  0  0  0  0
207208  4  0  0  0  0
207209  4  0  0  0  0
209210  1  0  0  0  0
210211  4  0  0  0  0
211212  4  0  0  0  0
212213  4  0  0  0  0
213214  1  0  0  0  0
214215  3  0  0  0  0
213216  4  0  0  0  0
210217  4  0  0  0  0
216217  4  0  0  0  0
209218  4  0  0  0  0
218219  1  0  0  0  0
219220  2  0  0  0  0
183221  4  0  0  0  0
220221  1  0  0  0  0
218222  4  0  0  0  0
221222  4  0  0  0  0
185223  1  0  0  0  0
186224  1  0  0  0  0
188225  1  0  0  0  0
191226  1  0  0  0  0
192227  1  0  0  0  0
196228  1  0  0  0  0
197229  1  0  0  0  0
199230  1  0  0  0  0
200231  1  0  0  0  0
205232  1  0  0  0  0
206233  1  0  0  0  0
208234  1  0  0  0  0
211235  1  0  0  0  0
212236  1  0  0  0  0
216237  1  0  0  0  0
217238  1  0  0  0  0
219239  1  0  0  0  0
220240  1  0  0  0  0
M  END
