 xtb: 6.5.1 (b24c23e)
          07302201453D

118137  0     0  0            999 V2000
   12.7920   -0.0299   -0.0015 Co  0  0  0  0  0  0  0  0  0  0  0  0
    9.4187   -0.0590   -0.0664 C   0  0  0  0  0  0  0  0  0  0  0  0
   10.0873   -1.2224   -0.3801 C   0  0  0  0  0  0  0  0  0  0  0  0
    9.4306   -2.4509   -0.7093 C   0  0  0  0  0  0  0  0  0  0  0  0
   10.3888   -3.4061   -0.7419 C   0  0  0  0  0  0  0  0  0  0  0  0
   11.6323   -2.7581   -0.4430 C   0  0  0  0  0  0  0  0  0  0  0  0
   11.4428   -1.4102   -0.2708 N   0  0  0  0  0  0  0  0  0  0  0  0
   12.8210   -3.4334   -0.2021 C   0  0  0  0  0  0  0  0  0  0  0  0
   13.9998   -2.7653    0.0906 C   0  0  0  0  0  0  0  0  0  0  0  0
   15.2544   -3.4187    0.3137 C   0  0  0  0  0  0  0  0  0  0  0  0
   16.1999   -2.4494    0.3476 C   0  0  0  0  0  0  0  0  0  0  0  0
   14.1743   -1.4008    0.0276 N   0  0  0  0  0  0  0  0  0  0  0  0
   15.5218   -1.2090    0.1418 C   0  0  0  0  0  0  0  0  0  0  0  0
   16.1857    0.0052   -0.0534 C   0  0  0  0  0  0  0  0  0  0  0  0
   15.4942    1.2072   -0.2220 C   0  0  0  0  0  0  0  0  0  0  0  0
   16.1398    2.4609   -0.4497 C   0  0  0  0  0  0  0  0  0  0  0  0
   15.1769    3.4115   -0.3788 C   0  0  0  0  0  0  0  0  0  0  0  0
   13.9475    2.7335   -0.0974 C   0  0  0  0  0  0  0  0  0  0  0  0
   12.7566    3.3759    0.2056 C   0  0  0  0  0  0  0  0  0  0  0  0
   12.7411    4.8531    0.3105 C   0  0  0  0  0  0  0  0  0  0  0  0
   11.9187    5.6130   -0.5228 C   0  0  0  0  0  0  0  0  0  0  0  0
   11.9066    6.9960   -0.4237 C   0  0  0  0  0  0  0  0  0  0  0  0
   12.7097    7.6361    0.5105 C   0  0  0  0  0  0  0  0  0  0  0  0
   13.5293    6.8872    1.3440 C   0  0  0  0  0  0  0  0  0  0  0  0
   13.5487    5.5043    1.2442 C   0  0  0  0  0  0  0  0  0  0  0  0
   11.5761    2.6717    0.4050 C   0  0  0  0  0  0  0  0  0  0  0  0
   10.3250    3.2794    0.7518 C   0  0  0  0  0  0  0  0  0  0  0  0
    9.3812    2.3129    0.6586 C   0  0  0  0  0  0  0  0  0  0  0  0
   10.0595    1.1133    0.2736 C   0  0  0  0  0  0  0  0  0  0  0  0
   11.4109    1.3297    0.1757 N   0  0  0  0  0  0  0  0  0  0  0  0
   14.1463    1.3715   -0.0697 N   0  0  0  0  0  0  0  0  0  0  0  0
   12.8322   -4.9157   -0.2593 C   0  0  0  0  0  0  0  0  0  0  0  0
   12.6154   -5.5784   -1.4673 C   0  0  0  0  0  0  0  0  0  0  0  0
   12.6311   -6.9644   -1.5171 C   0  0  0  0  0  0  0  0  0  0  0  0
   12.8588   -7.7021   -0.3634 C   0  0  0  0  0  0  0  0  0  0  0  0
   13.0733   -7.0485    0.8424 C   0  0  0  0  0  0  0  0  0  0  0  0
   13.0627   -5.6627    0.8960 C   0  0  0  0  0  0  0  0  0  0  0  0
    8.3352   -0.0699   -0.0745 H   0  0  0  0  0  0  0  0  0  0  0  0
    8.3686   -2.5521   -0.8673 H   0  0  0  0  0  0  0  0  0  0  0  0
   10.2752   -4.4615   -0.9292 H   0  0  0  0  0  0  0  0  0  0  0  0
   15.3864   -4.4842    0.4077 H   0  0  0  0  0  0  0  0  0  0  0  0
   17.2649   -2.5500    0.4811 H   0  0  0  0  0  0  0  0  0  0  0  0
   17.1956    2.5813   -0.6315 H   0  0  0  0  0  0  0  0  0  0  0  0
   15.2784    4.4773   -0.5028 H   0  0  0  0  0  0  0  0  0  0  0  0
   11.3008    5.1153   -1.2619 H   0  0  0  0  0  0  0  0  0  0  0  0
   11.2677    7.5766   -1.0798 H   0  0  0  0  0  0  0  0  0  0  0  0
   12.6971    8.7173    0.5885 H   0  0  0  0  0  0  0  0  0  0  0  0
   14.1564    7.3824    2.0771 H   0  0  0  0  0  0  0  0  0  0  0  0
   14.1799    4.9200    1.9044 H   0  0  0  0  0  0  0  0  0  0  0  0
   10.1985    4.3143    1.0256 H   0  0  0  0  0  0  0  0  0  0  0  0
    8.3188    2.3864    0.8285 H   0  0  0  0  0  0  0  0  0  0  0  0
   12.4498   -5.0027   -2.3711 H   0  0  0  0  0  0  0  0  0  0  0  0
   12.4663   -7.4705   -2.4618 H   0  0  0  0  0  0  0  0  0  0  0  0
   12.8697   -8.7853   -0.4040 H   0  0  0  0  0  0  0  0  0  0  0  0
   13.2496   -7.6204    1.7467 H   0  0  0  0  0  0  0  0  0  0  0  0
   13.2197   -5.1528    1.8400 H   0  0  0  0  0  0  0  0  0  0  0  0
   28.7468    0.0294   -0.0032 Co  0  0  0  0  0  0  0  0  0  0  0  0
   32.1201    0.0619   -0.0636 C   0  0  0  0  0  0  0  0  0  0  0  0
   31.4513    1.2378   -0.3263 C   0  0  0  0  0  0  0  0  0  0  0  0
   32.1079    2.4794   -0.6018 C   0  0  0  0  0  0  0  0  0  0  0  0
   31.1496    3.4351   -0.5926 C   0  0  0  0  0  0  0  0  0  0  0  0
   29.9062    2.7746   -0.3222 C   0  0  0  0  0  0  0  0  0  0  0  0
   30.0959    1.4206   -0.2085 N   0  0  0  0  0  0  0  0  0  0  0  0
   28.7172    3.4385   -0.0526 C   0  0  0  0  0  0  0  0  0  0  0  0
   27.5384    2.7581    0.2097 C   0  0  0  0  0  0  0  0  0  0  0  0
   26.2834    3.4010    0.4597 C   0  0  0  0  0  0  0  0  0  0  0  0
   25.3382    2.4310    0.4509 C   0  0  0  0  0  0  0  0  0  0  0  0
   27.3643    1.3975    0.0882 N   0  0  0  0  0  0  0  0  0  0  0  0
   26.0166    1.2007    0.1928 C   0  0  0  0  0  0  0  0  0  0  0  0
   25.3531   -0.0042   -0.0543 C   0  0  0  0  0  0  0  0  0  0  0  0
   26.0449   -1.1975   -0.2749 C   0  0  0  0  0  0  0  0  0  0  0  0
   25.3998   -2.4402   -0.5579 C   0  0  0  0  0  0  0  0  0  0  0  0
   26.3629   -3.3927   -0.5279 C   0  0  0  0  0  0  0  0  0  0  0  0
   27.5920   -2.7274   -0.2164 C   0  0  0  0  0  0  0  0  0  0  0  0
   28.7829   -3.3821    0.0590 C   0  0  0  0  0  0  0  0  0  0  0  0
   28.7985   -4.8625    0.0998 C   0  0  0  0  0  0  0  0  0  0  0  0
   29.6211   -5.5856   -0.7654 C   0  0  0  0  0  0  0  0  0  0  0  0
   29.6331   -6.9716   -0.7263 C   0  0  0  0  0  0  0  0  0  0  0  0
   28.8297   -7.6516    0.1791 C   0  0  0  0  0  0  0  0  0  0  0  0
   28.0099   -6.9394    1.0441 C   0  0  0  0  0  0  0  0  0  0  0  0
   27.9906   -5.5535    1.0041 C   0  0  0  0  0  0  0  0  0  0  0  0
   29.9631   -2.6870    0.2890 C   0  0  0  0  0  0  0  0  0  0  0  0
   31.2144   -3.3090    0.6089 C   0  0  0  0  0  0  0  0  0  0  0  0
   32.1580   -2.3392    0.5576 C   0  0  0  0  0  0  0  0  0  0  0  0
   31.4795   -1.1241    0.2252 C   0  0  0  0  0  0  0  0  0  0  0  0
   30.1281   -1.3361    0.1186 N   0  0  0  0  0  0  0  0  0  0  0  0
   27.3928   -1.3680   -0.1292 N   0  0  0  0  0  0  0  0  0  0  0  0
   28.7059    4.9220   -0.0452 C   0  0  0  0  0  0  0  0  0  0  0  0
   28.9239    5.6366   -1.2230 C   0  0  0  0  0  0  0  0  0  0  0  0
   28.9086    7.0235   -1.2125 C   0  0  0  0  0  0  0  0  0  0  0  0
   28.6802    7.7103   -0.0278 C   0  0  0  0  0  0  0  0  0  0  0  0
   28.4643    7.0049    1.1481 C   0  0  0  0  0  0  0  0  0  0  0  0
   28.4745    5.6180    1.1413 C   0  0  0  0  0  0  0  0  0  0  0  0
   33.2036    0.0732   -0.0713 H   0  0  0  0  0  0  0  0  0  0  0  0
   33.1698    2.5875   -0.7555 H   0  0  0  0  0  0  0  0  0  0  0  0
   31.2632    4.4977   -0.7338 H   0  0  0  0  0  0  0  0  0  0  0  0
   26.1512    4.4614    0.5993 H   0  0  0  0  0  0  0  0  0  0  0  0
   24.2730    2.5255    0.5877 H   0  0  0  0  0  0  0  0  0  0  0  0
   24.3442   -2.5529   -0.7455 H   0  0  0  0  0  0  0  0  0  0  0  0
   26.2618   -4.4522   -0.6985 H   0  0  0  0  0  0  0  0  0  0  0  0
   30.2392   -5.0564   -1.4821 H   0  0  0  0  0  0  0  0  0  0  0  0
   30.2721   -7.5234   -1.4067 H   0  0  0  0  0  0  0  0  0  0  0  0
   28.8423   -8.7351    0.2102 H   0  0  0  0  0  0  0  0  0  0  0  0
   27.3826   -7.4659    1.7548 H   0  0  0  0  0  0  0  0  0  0  0  0
   27.3591   -4.9983    1.6888 H   0  0  0  0  0  0  0  0  0  0  0  0
   31.3410   -4.3548    0.8374 H   0  0  0  0  0  0  0  0  0  0  0  0
   33.2205   -2.4199    0.7239 H   0  0  0  0  0  0  0  0  0  0  0  0
   29.0901    5.1008   -2.1509 H   0  0  0  0  0  0  0  0  0  0  0  0
   29.0745    7.5702   -2.1341 H   0  0  0  0  0  0  0  0  0  0  0  0
   28.6697    8.7943   -0.0212 H   0  0  0  0  0  0  0  0  0  0  0  0
   28.2874    7.5369    2.0763 H   0  0  0  0  0  0  0  0  0  0  0  0
   28.3166    5.0675    2.0620 H   0  0  0  0  0  0  0  0  0  0  0  0
   21.3838   -0.0071   -0.0897 C   0  0  0  0  0  0  0  0  0  0  0  0
   20.1550    0.0057   -0.0885 C   0  0  0  0  0  0  0  0  0  0  0  0
   18.8120    0.0079   -0.0840 C   0  0  0  0  0  0  0  0  0  0  0  0
   17.5878    0.0163   -0.0713 C   0  0  0  0  0  0  0  0  0  0  0  0
   22.7268   -0.0084   -0.0835 C   0  0  0  0  0  0  0  0  0  0  0  0
   23.9511   -0.0146   -0.0736 C   0  0  0  0  0  0  0  0  0  0  0  0
  2  3  4  0  0  0  0
  3  4  1  0  0  0  0
  4  5  2  0  0  0  0
  5  6  4  0  0  0  0
  1  7  1  0  0  0  0
  3  7  4  0  0  0  0
  6  7  4  0  0  0  0
  6  8  4  0  0  0  0
  8  9  4  0  0  0  0
  9 10  4  0  0  0  0
 10 11  2  0  0  0  0
  1 12  1  0  0  0  0
  9 12  4  0  0  0  0
 11 13  4  0  0  0  0
 12 13  4  0  0  0  0
 13 14  4  0  0  0  0
 14 15  4  0  0  0  0
 15 16  4  0  0  0  0
 16 17  2  0  0  0  0
 17 18  4  0  0  0  0
 18 19  4  0  0  0  0
 19 20  1  0  0  0  0
 20 21  4  0  0  0  0
 21 22  4  0  0  0  0
 22 23  4  0  0  0  0
 23 24  4  0  0  0  0
 20 25  4  0  0  0  0
 24 25  4  0  0  0  0
 19 26  4  0  0  0  0
 26 27  4  0  0  0  0
 27 28  2  0  0  0  0
  2 29  4  0  0  0  0
 28 29  1  0  0  0  0
  1 30  1  0  0  0  0
 26 30  4  0  0  0  0
 29 30  4  0  0  0  0
  1 31  1  0  0  0  0
 15 31  4  0  0  0  0
 18 31  4  0  0  0  0
  8 32  1  0  0  0  0
 32 33  4  0  0  0  0
 33 34  4  0  0  0  0
 34 35  4  0  0  0  0
 35 36  4  0  0  0  0
 32 37  4  0  0  0  0
 36 37  4  0  0  0  0
  2 38  1  0  0  0  0
  4 39  1  0  0  0  0
  5 40  1  0  0  0  0
 10 41  1  0  0  0  0
 11 42  1  0  0  0  0
 16 43  1  0  0  0  0
 17 44  1  0  0  0  0
 21 45  1  0  0  0  0
 22 46  1  0  0  0  0
 23 47  1  0  0  0  0
 24 48  1  0  0  0  0
 25 49  1  0  0  0  0
 27 50  1  0  0  0  0
 28 51  1  0  0  0  0
 33 52  1  0  0  0  0
 34 53  1  0  0  0  0
 35 54  1  0  0  0  0
 36 55  1  0  0  0  0
 37 56  1  0  0  0  0
 58 59  4  0  0  0  0
 59 60  1  0  0  0  0
 60 61  2  0  0  0  0
 61 62  4  0  0  0  0
 57 63  1  0  0  0  0
 59 63  4  0  0  0  0
 62 63  4  0  0  0  0
 62 64  4  0  0  0  0
 64 65  4  0  0  0  0
 65 66  4  0  0  0  0
 66 67  2  0  0  0  0
 57 68  1  0  0  0  0
 65 68  4  0  0  0  0
 67 69  4  0  0  0  0
 68 69  4  0  0  0  0
 69 70  4  0  0  0  0
 70 71  4  0  0  0  0
 71 72  4  0  0  0  0
 72 73  2  0  0  0  0
 73 74  4  0  0  0  0
 74 75  4  0  0  0  0
 75 76  1  0  0  0  0
 76 77  4  0  0  0  0
 77 78  4  0  0  0  0
 78 79  4  0  0  0  0
 79 80  4  0  0  0  0
 76 81  4  0  0  0  0
 80 81  4  0  0  0  0
 75 82  4  0  0  0  0
 82 83  4  0  0  0  0
 83 84  2  0  0  0  0
 58 85  4  0  0  0  0
 84 85  1  0  0  0  0
 57 86  1  0  0  0  0
 82 86  4  0  0  0  0
 85 86  4  0  0  0  0
 57 87  1  0  0  0  0
 71 87  4  0  0  0  0
 74 87  4  0  0  0  0
 64 88  1  0  0  0  0
 88 89  4  0  0  0  0
 89 90  4  0  0  0  0
 90 91  4  0  0  0  0
 91 92  4  0  0  0  0
 88 93  4  0  0  0  0
 92 93  4  0  0  0  0
 58 94  1  0  0  0  0
 60 95  1  0  0  0  0
 61 96  1  0  0  0  0
 66 97  1  0  0  0  0
 67 98  1  0  0  0  0
 72 99  1  0  0  0  0
 73100  1  0  0  0  0
 77101  1  0  0  0  0
 78102  1  0  0  0  0
 79103  1  0  0  0  0
 80104  1  0  0  0  0
 81105  1  0  0  0  0
 83106  1  0  0  0  0
 84107  1  0  0  0  0
 89108  1  0  0  0  0
 90109  1  0  0  0  0
 91110  1  0  0  0  0
 92111  1  0  0  0  0
 93112  1  0  0  0  0
113114  3  0  0  0  0
114115  4  0  0  0  0
 14116  4  0  0  0  0
115116  3  0  0  0  0
113117  4  0  0  0  0
 70118  4  0  0  0  0
117118  3  0  0  0  0
M  END
