 xtb: 6.5.1 (b24c23e)
          07302201273D

228267  0     0  0            999 V2000
   47.2318    0.0032    0.0138 Co  0  0  0  0  0  0  0  0  0  0  0  0
   43.8662   -0.0329    0.2144 C   0  0  0  0  0  0  0  0  0  0  0  0
   44.5100   -1.1838   -0.1885 C   0  0  0  0  0  0  0  0  0  0  0  0
   43.8362   -2.3971   -0.5384 C   0  0  0  0  0  0  0  0  0  0  0  0
   44.7938   -3.3405   -0.6987 C   0  0  0  0  0  0  0  0  0  0  0  0
   46.0521   -2.7030   -0.4404 C   0  0  0  0  0  0  0  0  0  0  0  0
   45.8694   -1.3687   -0.1808 N   0  0  0  0  0  0  0  0  0  0  0  0
   47.2485   -3.3870   -0.2709 C   0  0  0  0  0  0  0  0  0  0  0  0
   48.4302   -2.7346    0.0444 C   0  0  0  0  0  0  0  0  0  0  0  0
   49.6803   -3.3981    0.2624 C   0  0  0  0  0  0  0  0  0  0  0  0
   50.6247   -2.4318    0.3549 C   0  0  0  0  0  0  0  0  0  0  0  0
   48.6080   -1.3695    0.0377 N   0  0  0  0  0  0  0  0  0  0  0  0
   49.9546   -1.1821    0.1778 C   0  0  0  0  0  0  0  0  0  0  0  0
   50.6241    0.0291   -0.0202 C   0  0  0  0  0  0  0  0  0  0  0  0
   49.9321    1.2223   -0.2511 C   0  0  0  0  0  0  0  0  0  0  0  0
   50.5688    2.4639   -0.5560 C   0  0  0  0  0  0  0  0  0  0  0  0
   49.6029    3.4138   -0.5360 C   0  0  0  0  0  0  0  0  0  0  0  0
   48.3806    2.7509   -0.1938 C   0  0  0  0  0  0  0  0  0  0  0  0
   47.2028    3.4059    0.1321 C   0  0  0  0  0  0  0  0  0  0  0  0
   47.1833    4.8861    0.1687 C   0  0  0  0  0  0  0  0  0  0  0  0
   46.2993    5.6011   -0.6409 C   0  0  0  0  0  0  0  0  0  0  0  0
   46.2814    6.9871   -0.6060 C   0  0  0  0  0  0  0  0  0  0  0  0
   47.1398    7.6755    0.2406 C   0  0  0  0  0  0  0  0  0  0  0  0
   48.0193    6.9715    1.0520 C   0  0  0  0  0  0  0  0  0  0  0  0
   48.0442    5.5856    1.0160 C   0  0  0  0  0  0  0  0  0  0  0  0
   46.0408    2.7095    0.4426 C   0  0  0  0  0  0  0  0  0  0  0  0
   44.8198    3.3250    0.8732 C   0  0  0  0  0  0  0  0  0  0  0  0
   43.8803    2.3502    0.9061 C   0  0  0  0  0  0  0  0  0  0  0  0
   44.5297    1.1412    0.4996 C   0  0  0  0  0  0  0  0  0  0  0  0
   45.8672    1.3599    0.2811 N   0  0  0  0  0  0  0  0  0  0  0  0
   48.5860    1.3929   -0.0929 N   0  0  0  0  0  0  0  0  0  0  0  0
   47.2523   -4.8648   -0.4027 C   0  0  0  0  0  0  0  0  0  0  0  0
   47.0229   -5.4618   -1.6421 C   0  0  0  0  0  0  0  0  0  0  0  0
   47.0250   -6.8435   -1.7639 C   0  0  0  0  0  0  0  0  0  0  0  0
   47.2498   -7.6421   -0.6509 C   0  0  0  0  0  0  0  0  0  0  0  0
   47.4754   -7.0539    0.5862 C   0  0  0  0  0  0  0  0  0  0  0  0
   47.4792   -5.6726    0.7115 C   0  0  0  0  0  0  0  0  0  0  0  0
   42.7858   -0.0480    0.2966 H   0  0  0  0  0  0  0  0  0  0  0  0
   42.7664   -2.4974   -0.6301 H   0  0  0  0  0  0  0  0  0  0  0  0
   44.6720   -4.3833   -0.9431 H   0  0  0  0  0  0  0  0  0  0  0  0
   49.8103   -4.4666    0.3165 H   0  0  0  0  0  0  0  0  0  0  0  0
   51.6868   -2.5430    0.4998 H   0  0  0  0  0  0  0  0  0  0  0  0
   51.6213    2.5807   -0.7556 H   0  0  0  0  0  0  0  0  0  0  0  0
   49.6997    4.4700   -0.7282 H   0  0  0  0  0  0  0  0  0  0  0  0
   45.6366    5.0655   -1.3116 H   0  0  0  0  0  0  0  0  0  0  0  0
   45.5943    7.5325   -1.2434 H   0  0  0  0  0  0  0  0  0  0  0  0
   47.1230    8.7591    0.2686 H   0  0  0  0  0  0  0  0  0  0  0  0
   48.6888    7.5043    1.7182 H   0  0  0  0  0  0  0  0  0  0  0  0
   48.7214    5.0372    1.6613 H   0  0  0  0  0  0  0  0  0  0  0  0
   44.7098    4.3695    1.1162 H   0  0  0  0  0  0  0  0  0  0  0  0
   42.8366    2.4254    1.1671 H   0  0  0  0  0  0  0  0  0  0  0  0
   46.8563   -4.8383   -2.5134 H   0  0  0  0  0  0  0  0  0  0  0  0
   46.8504   -7.2984   -2.7327 H   0  0  0  0  0  0  0  0  0  0  0  0
   47.2485   -8.7219   -0.7472 H   0  0  0  0  0  0  0  0  0  0  0  0
   47.6477   -7.6737    1.4592 H   0  0  0  0  0  0  0  0  0  0  0  0
   47.6435   -5.2142    1.6802 H   0  0  0  0  0  0  0  0  0  0  0  0
   79.5714    0.0874    0.3535 Co  0  0  0  0  0  0  0  0  0  0  0  0
   82.5774    0.1284    1.7925 C   0  0  0  0  0  0  0  0  0  0  0  0
   82.0468    1.3317    1.3704 C   0  0  0  0  0  0  0  0  0  0  0  0
   82.7304    2.5863    1.4531 C   0  0  0  0  0  0  0  0  0  0  0  0
   81.9644    3.4907    0.7962 C   0  0  0  0  0  0  0  0  0  0  0  0
   80.7821    2.8016    0.3685 C   0  0  0  0  0  0  0  0  0  0  0  0
   80.8570    1.4771    0.7055 N   0  0  0  0  0  0  0  0  0  0  0  0
   79.6481    3.4422   -0.1204 C   0  0  0  0  0  0  0  0  0  0  0  0
   78.4249    2.7904   -0.1901 C   0  0  0  0  0  0  0  0  0  0  0  0
   77.1631    3.4365   -0.3897 C   0  0  0  0  0  0  0  0  0  0  0  0
   76.2075    2.4870   -0.2353 C   0  0  0  0  0  0  0  0  0  0  0  0
   78.2385    1.4422    0.0110 N   0  0  0  0  0  0  0  0  0  0  0  0
   76.8890    1.2483   -0.0244 C   0  0  0  0  0  0  0  0  0  0  0  0
   76.2510    0.0024   -0.0856 C   0  0  0  0  0  0  0  0  0  0  0  0
   76.9794   -1.1778   -0.2852 C   0  0  0  0  0  0  0  0  0  0  0  0
   76.4005   -2.3976   -0.7515 C   0  0  0  0  0  0  0  0  0  0  0  0
   77.4231   -3.2657   -0.9486 C   0  0  0  0  0  0  0  0  0  0  0  0
   78.6174   -2.6001   -0.5216 C   0  0  0  0  0  0  0  0  0  0  0  0
   79.8422   -3.2222   -0.3326 C   0  0  0  0  0  0  0  0  0  0  0  0
   80.0247   -4.6390   -0.7245 C   0  0  0  0  0  0  0  0  0  0  0  0
   81.0007   -4.9744   -1.6639 C   0  0  0  0  0  0  0  0  0  0  0  0
   81.1859   -6.2959   -2.0407 C   0  0  0  0  0  0  0  0  0  0  0  0
   80.4074   -7.2977   -1.4768 C   0  0  0  0  0  0  0  0  0  0  0  0
   79.4439   -6.9730   -0.5317 C   0  0  0  0  0  0  0  0  0  0  0  0
   79.2512   -5.6518   -0.1566 C   0  0  0  0  0  0  0  0  0  0  0  0
   80.8847   -2.5827    0.3332 C   0  0  0  0  0  0  0  0  0  0  0  0
   82.0326   -3.2576    0.8637 C   0  0  0  0  0  0  0  0  0  0  0  0
   82.7382   -2.3394    1.5676 C   0  0  0  0  0  0  0  0  0  0  0  0
   82.0525   -1.0918    1.4180 C   0  0  0  0  0  0  0  0  0  0  0  0
   80.9054   -1.2618    0.6837 N   0  0  0  0  0  0  0  0  0  0  0  0
   78.3316   -1.2996   -0.1688 N   0  0  0  0  0  0  0  0  0  0  0  0
   79.7411    4.8840   -0.4507 C   0  0  0  0  0  0  0  0  0  0  0  0
   80.5376    5.2919   -1.5214 C   0  0  0  0  0  0  0  0  0  0  0  0
   80.6359    6.6354   -1.8494 C   0  0  0  0  0  0  0  0  0  0  0  0
   79.9494    7.5866   -1.1068 C   0  0  0  0  0  0  0  0  0  0  0  0
   79.1659    7.1890   -0.0321 C   0  0  0  0  0  0  0  0  0  0  0  0
   79.0599    5.8453    0.2958 C   0  0  0  0  0  0  0  0  0  0  0  0
   83.5150    0.1409    2.3360 H   0  0  0  0  0  0  0  0  0  0  0  0
   83.6857    2.7325    1.9317 H   0  0  0  0  0  0  0  0  0  0  0  0
   82.1510    4.5415    0.6431 H   0  0  0  0  0  0  0  0  0  0  0  0
   77.0305    4.4845   -0.6031 H   0  0  0  0  0  0  0  0  0  0  0  0
   75.1373    2.5945   -0.3092 H   0  0  0  0  0  0  0  0  0  0  0  0
   75.3494   -2.5450   -0.9396 H   0  0  0  0  0  0  0  0  0  0  0  0
   77.3770   -4.2736   -1.3275 H   0  0  0  0  0  0  0  0  0  0  0  0
   81.6049   -4.1910   -2.1077 H   0  0  0  0  0  0  0  0  0  0  0  0
   81.9422   -6.5446   -2.7769 H   0  0  0  0  0  0  0  0  0  0  0  0
   80.5547   -8.3309   -1.7704 H   0  0  0  0  0  0  0  0  0  0  0  0
   78.8403   -7.7531   -0.0811 H   0  0  0  0  0  0  0  0  0  0  0  0
   78.5125   -5.4038    0.5974 H   0  0  0  0  0  0  0  0  0  0  0  0
   82.2423   -4.3071    0.7336 H   0  0  0  0  0  0  0  0  0  0  0  0
   83.6575   -2.4707    2.1161 H   0  0  0  0  0  0  0  0  0  0  0  0
   81.0695    4.5477   -2.1037 H   0  0  0  0  0  0  0  0  0  0  0  0
   81.2519    6.9410   -2.6879 H   0  0  0  0  0  0  0  0  0  0  0  0
   80.0285    8.6370   -1.3629 H   0  0  0  0  0  0  0  0  0  0  0  0
   78.6357    7.9293    0.5568 H   0  0  0  0  0  0  0  0  0  0  0  0
   78.4635    5.5399    1.1482 H   0  0  0  0  0  0  0  0  0  0  0  0
   52.0292    0.0446   -0.0080 C   0  0  0  0  0  0  0  0  0  0  0  0
   53.2471    0.0617    0.0133 C   0  0  0  0  0  0  0  0  0  0  0  0
   62.8305    0.0518    0.1215 C   0  0  0  0  0  0  0  0  0  0  0  0
   64.0494    0.0434    0.1353 C   0  0  0  0  0  0  0  0  0  0  0  0
   73.6320   -0.0697   -0.0398 C   0  0  0  0  0  0  0  0  0  0  0  0
   74.8496   -0.0429   -0.0829 C   0  0  0  0  0  0  0  0  0  0  0  0
   58.0407    0.0618    0.0627 Co  0  0  0  0  0  0  0  0  0  0  0  0
   54.6509    0.0671    0.0378 C   0  0  0  0  0  0  0  0  0  0  0  0
   55.3295   -1.0287    0.5834 C   0  0  0  0  0  0  0  0  0  0  0  0
   54.6871   -2.1495    1.1910 C   0  0  0  0  0  0  0  0  0  0  0  0
   55.6420   -3.0954    1.3735 C   0  0  0  0  0  0  0  0  0  0  0  0
   56.8637   -2.5490    0.8667 C   0  0  0  0  0  0  0  0  0  0  0  0
   56.6726   -1.2490    0.4617 N   0  0  0  0  0  0  0  0  0  0  0  0
   58.0291   -3.2773    0.6600 C   0  0  0  0  0  0  0  0  0  0  0  0
   59.2001   -2.6726    0.2226 C   0  0  0  0  0  0  0  0  0  0  0  0
   60.4158   -3.3655   -0.0775 C   0  0  0  0  0  0  0  0  0  0  0  0
   61.3762   -2.4196   -0.2305 C   0  0  0  0  0  0  0  0  0  0  0  0
   59.4023   -1.3131    0.1731 N   0  0  0  0  0  0  0  0  0  0  0  0
   60.7425   -1.1557   -0.0306 C   0  0  0  0  0  0  0  0  0  0  0  0
   61.4291    0.0570    0.1091 C   0  0  0  0  0  0  0  0  0  0  0  0
   60.7448    1.2714    0.2406 C   0  0  0  0  0  0  0  0  0  0  0  0
   61.3830    2.5317    0.4498 C   0  0  0  0  0  0  0  0  0  0  0  0
   60.4280    3.4824    0.2962 C   0  0  0  0  0  0  0  0  0  0  0  0
   59.2113    2.7967   -0.0176 C   0  0  0  0  0  0  0  0  0  0  0  0
   58.0503    3.4118   -0.4661 C   0  0  0  0  0  0  0  0  0  0  0  0
   58.0528    4.8718   -0.7045 C   0  0  0  0  0  0  0  0  0  0  0  0
   57.1369    5.6972   -0.0496 C   0  0  0  0  0  0  0  0  0  0  0  0
   57.1435    7.0658   -0.2711 C   0  0  0  0  0  0  0  0  0  0  0  0
   58.0576    7.6264   -1.1529 C   0  0  0  0  0  0  0  0  0  0  0  0
   58.9687    6.8119   -1.8118 C   0  0  0  0  0  0  0  0  0  0  0  0
   58.9702    5.4436   -1.5879 C   0  0  0  0  0  0  0  0  0  0  0  0
   56.8851    2.6911   -0.7016 C   0  0  0  0  0  0  0  0  0  0  0  0
   55.6785    3.2430   -1.2368 C   0  0  0  0  0  0  0  0  0  0  0  0
   54.7196    2.2937   -1.0954 C   0  0  0  0  0  0  0  0  0  0  0  0
   55.3441    1.1670   -0.4805 C   0  0  0  0  0  0  0  0  0  0  0  0
   56.6813    1.3898   -0.3096 N   0  0  0  0  0  0  0  0  0  0  0  0
   59.4055    1.4353    0.0321 N   0  0  0  0  0  0  0  0  0  0  0  0
   58.0201   -4.7358    0.9068 C   0  0  0  0  0  0  0  0  0  0  0  0
   57.1109   -5.5600    0.2410 C   0  0  0  0  0  0  0  0  0  0  0  0
   57.1064   -6.9274    0.4699 C   0  0  0  0  0  0  0  0  0  0  0  0
   58.0028   -7.4878    1.3699 C   0  0  0  0  0  0  0  0  0  0  0  0
   58.9080   -6.6747    2.0384 C   0  0  0  0  0  0  0  0  0  0  0  0
   58.9207   -5.3076    1.8071 C   0  0  0  0  0  0  0  0  0  0  0  0
   53.6393   -2.1964    1.4389 H   0  0  0  0  0  0  0  0  0  0  0  0
   55.5377   -4.0761    1.8083 H   0  0  0  0  0  0  0  0  0  0  0  0
   60.5129   -4.4359   -0.1587 H   0  0  0  0  0  0  0  0  0  0  0  0
   62.4220   -2.5536   -0.4549 H   0  0  0  0  0  0  0  0  0  0  0  0
   62.4282    2.6595    0.6800 H   0  0  0  0  0  0  0  0  0  0  0  0
   60.5296    4.5520    0.3826 H   0  0  0  0  0  0  0  0  0  0  0  0
   56.4312    5.2632    0.6500 H   0  0  0  0  0  0  0  0  0  0  0  0
   56.4319    7.6981    0.2483 H   0  0  0  0  0  0  0  0  0  0  0  0
   58.0599    8.6964   -1.3268 H   0  0  0  0  0  0  0  0  0  0  0  0
   59.6817    7.2441   -2.5050 H   0  0  0  0  0  0  0  0  0  0  0  0
   59.6729    4.8075   -2.1146 H   0  0  0  0  0  0  0  0  0  0  0  0
   55.5857    4.2284   -1.6637 H   0  0  0  0  0  0  0  0  0  0  0  0
   53.6797    2.3428   -1.3743 H   0  0  0  0  0  0  0  0  0  0  0  0
   56.4195   -5.1261   -0.4728 H   0  0  0  0  0  0  0  0  0  0  0  0
   56.4000   -7.5586   -0.0578 H   0  0  0  0  0  0  0  0  0  0  0  0
   57.9958   -8.5568    1.5500 H   0  0  0  0  0  0  0  0  0  0  0  0
   59.6076   -7.1070    2.7451 H   0  0  0  0  0  0  0  0  0  0  0  0
   59.6190   -4.6726    2.3408 H   0  0  0  0  0  0  0  0  0  0  0  0
   68.8422   -0.0322    0.1447 Co  0  0  0  0  0  0  0  0  0  0  0  0
   65.4508    0.0237    0.1547 C   0  0  0  0  0  0  0  0  0  0  0  0
   66.1138   -1.2020    0.2933 C   0  0  0  0  0  0  0  0  0  0  0  0
   65.4514   -2.4489    0.5057 C   0  0  0  0  0  0  0  0  0  0  0  0
   66.3950   -3.4160    0.3892 C   0  0  0  0  0  0  0  0  0  0  0  0
   67.6276   -2.7532    0.0893 C   0  0  0  0  0  0  0  0  0  0  0  0
   67.4536   -1.3883    0.1119 N   0  0  0  0  0  0  0  0  0  0  0  0
   68.7845   -3.3955   -0.3303 C   0  0  0  0  0  0  0  0  0  0  0  0
   69.9606   -2.6988   -0.5786 C   0  0  0  0  0  0  0  0  0  0  0  0
   71.1577   -3.2857   -1.0983 C   0  0  0  0  0  0  0  0  0  0  0  0
   72.1271   -2.3419   -1.0034 C   0  0  0  0  0  0  0  0  0  0  0  0
   70.1811   -1.3859   -0.2359 N   0  0  0  0  0  0  0  0  0  0  0  0
   71.5180   -1.1849   -0.4301 C   0  0  0  0  0  0  0  0  0  0  0  0
   72.2311   -0.0703    0.0237 C   0  0  0  0  0  0  0  0  0  0  0  0
   71.5808    1.0463    0.5629 C   0  0  0  0  0  0  0  0  0  0  0  0
   72.2589    2.1645    1.1365 C   0  0  0  0  0  0  0  0  0  0  0  0
   71.3164    3.1099    1.3757 C   0  0  0  0  0  0  0  0  0  0  0  0
   70.0691    2.5697    0.9272 C   0  0  0  0  0  0  0  0  0  0  0  0
   68.8995    3.3043    0.7836 C   0  0  0  0  0  0  0  0  0  0  0  0
   68.9166    4.7548    1.0761 C   0  0  0  0  0  0  0  0  0  0  0  0
   68.0533    5.2897    2.0340 C   0  0  0  0  0  0  0  0  0  0  0  0
   68.0715    6.6475    2.3138 C   0  0  0  0  0  0  0  0  0  0  0  0
   68.9443    7.4883    1.6365 C   0  0  0  0  0  0  0  0  0  0  0  0
   69.8018    6.9650    0.6782 C   0  0  0  0  0  0  0  0  0  0  0  0
   69.7919    5.6066    0.4003 C   0  0  0  0  0  0  0  0  0  0  0  0
   67.7138    2.7182    0.3590 C   0  0  0  0  0  0  0  0  0  0  0  0
   66.5046    3.4345    0.0900 C   0  0  0  0  0  0  0  0  0  0  0  0
   65.5354    2.5053   -0.1014 C   0  0  0  0  0  0  0  0  0  0  0  0
   66.1559    1.2286    0.0530 C   0  0  0  0  0  0  0  0  0  0  0  0
   67.4983    1.3638    0.2638 N   0  0  0  0  0  0  0  0  0  0  0  0
   70.2361    1.2720    0.5015 N   0  0  0  0  0  0  0  0  0  0  0  0
   68.7610   -4.8606   -0.5382 C   0  0  0  0  0  0  0  0  0  0  0  0
   67.8562   -5.4332   -1.4338 C   0  0  0  0  0  0  0  0  0  0  0  0
   67.8391   -6.8054   -1.6317 C   0  0  0  0  0  0  0  0  0  0  0  0
   68.7186   -7.6225   -0.9342 C   0  0  0  0  0  0  0  0  0  0  0  0
   69.6199   -7.0608   -0.0400 C   0  0  0  0  0  0  0  0  0  0  0  0
   69.6455   -5.6883    0.1553 C   0  0  0  0  0  0  0  0  0  0  0  0
   64.4001   -2.5573    0.7173 H   0  0  0  0  0  0  0  0  0  0  0  0
   66.2759   -4.4823    0.4913 H   0  0  0  0  0  0  0  0  0  0  0  0
   71.2363   -4.2890   -1.4843 H   0  0  0  0  0  0  0  0  0  0  0  0
   73.1654   -2.4132   -1.2842 H   0  0  0  0  0  0  0  0  0  0  0  0
   73.3189    2.2082    1.3277 H   0  0  0  0  0  0  0  0  0  0  0  0
   71.4457    4.0875    1.8108 H   0  0  0  0  0  0  0  0  0  0  0  0
   67.3801    4.6323    2.5728 H   0  0  0  0  0  0  0  0  0  0  0  0
   67.4016    7.0508    3.0650 H   0  0  0  0  0  0  0  0  0  0  0  0
   68.9558    8.5502    1.8547 H   0  0  0  0  0  0  0  0  0  0  0  0
   70.4819    7.6183    0.1430 H   0  0  0  0  0  0  0  0  0  0  0  0
   70.4521    5.2025   -0.3590 H   0  0  0  0  0  0  0  0  0  0  0  0
   66.4187    4.5083    0.0516 H   0  0  0  0  0  0  0  0  0  0  0  0
   64.4907    2.6576   -0.3190 H   0  0  0  0  0  0  0  0  0  0  0  0
   67.1782   -4.7954   -1.9899 H   0  0  0  0  0  0  0  0  0  0  0  0
   67.1364   -7.2386   -2.3348 H   0  0  0  0  0  0  0  0  0  0  0  0
   68.7019   -8.6955   -1.0879 H   0  0  0  0  0  0  0  0  0  0  0  0
   70.3068   -7.6951    0.5093 H   0  0  0  0  0  0  0  0  0  0  0  0
   70.3419   -5.2526    0.8631 H   0  0  0  0  0  0  0  0  0  0  0  0
  2  3  4  0  0  0  0
  3  4  1  0  0  0  0
  4  5  2  0  0  0  0
  5  6  4  0  0  0  0
  1  7  1  0  0  0  0
  3  7  4  0  0  0  0
  6  7  4  0  0  0  0
  6  8  4  0  0  0  0
  8  9  4  0  0  0  0
  9 10  4  0  0  0  0
 10 11  2  0  0  0  0
  1 12  1  0  0  0  0
  9 12  4  0  0  0  0
 11 13  4  0  0  0  0
 12 13  4  0  0  0  0
 13 14  4  0  0  0  0
 14 15  4  0  0  0  0
 15 16  4  0  0  0  0
 16 17  2  0  0  0  0
 17 18  4  0  0  0  0
 18 19  4  0  0  0  0
 19 20  1  0  0  0  0
 20 21  4  0  0  0  0
 21 22  4  0  0  0  0
 22 23  4  0  0  0  0
 23 24  4  0  0  0  0
 20 25  4  0  0  0  0
 24 25  4  0  0  0  0
 19 26  4  0  0  0  0
 26 27  4  0  0  0  0
 27 28  2  0  0  0  0
  2 29  4  0  0  0  0
 28 29  1  0  0  0  0
  1 30  1  0  0  0  0
 26 30  4  0  0  0  0
 29 30  4  0  0  0  0
  1 31  1  0  0  0  0
 15 31  4  0  0  0  0
 18 31  4  0  0  0  0
  8 32  1  0  0  0  0
 32 33  4  0  0  0  0
 33 34  4  0  0  0  0
 34 35  4  0  0  0  0
 35 36  4  0  0  0  0
 32 37  4  0  0  0  0
 36 37  4  0  0  0  0
  2 38  1  0  0  0  0
  4 39  1  0  0  0  0
  5 40  1  0  0  0  0
 10 41  1  0  0  0  0
 11 42  1  0  0  0  0
 16 43  1  0  0  0  0
 17 44  1  0  0  0  0
 21 45  1  0  0  0  0
 22 46  1  0  0  0  0
 23 47  1  0  0  0  0
 24 48  1  0  0  0  0
 25 49  1  0  0  0  0
 27 50  1  0  0  0  0
 28 51  1  0  0  0  0
 33 52  1  0  0  0  0
 34 53  1  0  0  0  0
 35 54  1  0  0  0  0
 36 55  1  0  0  0  0
 37 56  1  0  0  0  0
 58 59  4  0  0  0  0
 59 60  4  0  0  0  0
 60 61  2  0  0  0  0
 61 62  4  0  0  0  0
 57 63  1  0  0  0  0
 59 63  4  0  0  0  0
 62 63  4  0  0  0  0
 62 64  4  0  0  0  0
 64 65  4  0  0  0  0
 65 66  4  0  0  0  0
 66 67  2  0  0  0  0
 57 68  1  0  0  0  0
 65 68  4  0  0  0  0
 67 69  4  0  0  0  0
 68 69  4  0  0  0  0
 69 70  4  0  0  0  0
 70 71  4  0  0  0  0
 71 72  4  0  0  0  0
 72 73  2  0  0  0  0
 73 74  4  0  0  0  0
 74 75  4  0  0  0  0
 75 76  1  0  0  0  0
 76 77  4  0  0  0  0
 77 78  4  0  0  0  0
 78 79  4  0  0  0  0
 79 80  4  0  0  0  0
 76 81  4  0  0  0  0
 80 81  4  0  0  0  0
 75 82  4  0  0  0  0
 82 83  4  0  0  0  0
 83 84  2  0  0  0  0
 58 85  4  0  0  0  0
 84 85  1  0  0  0  0
 57 86  1  0  0  0  0
 82 86  4  0  0  0  0
 85 86  4  0  0  0  0
 57 87  1  0  0  0  0
 71 87  4  0  0  0  0
 74 87  4  0  0  0  0
 64 88  1  0  0  0  0
 88 89  4  0  0  0  0
 89 90  4  0  0  0  0
 90 91  4  0  0  0  0
 91 92  4  0  0  0  0
 88 93  4  0  0  0  0
 92 93  4  0  0  0  0
 58 94  1  0  0  0  0
 60 95  1  0  0  0  0
 61 96  1  0  0  0  0
 66 97  1  0  0  0  0
 67 98  1  0  0  0  0
 72 99  1  0  0  0  0
 73100  1  0  0  0  0
 77101  1  0  0  0  0
 78102  1  0  0  0  0
 79103  1  0  0  0  0
 80104  1  0  0  0  0
 81105  1  0  0  0  0
 83106  1  0  0  0  0
 84107  1  0  0  0  0
 89108  1  0  0  0  0
 90109  1  0  0  0  0
 91110  1  0  0  0  0
 92111  1  0  0  0  0
 93112  1  0  0  0  0
 14113  1  0  0  0  0
113114  3  0  0  0  0
115116  3  0  0  0  0
 70118  4  0  0  0  0
117118  3  0  0  0  0
114120  4  0  0  0  0
120121  4  0  0  0  0
121122  4  0  0  0  0
122123  2  0  0  0  0
123124  4  0  0  0  0
119125  1  0  0  0  0
121125  4  0  0  0  0
124125  4  0  0  0  0
124126  4  0  0  0  0
126127  4  0  0  0  0
127128  4  0  0  0  0
128129  2  0  0  0  0
119130  1  0  0  0  0
127130  4  0  0  0  0
129131  4  0  0  0  0
130131  4  0  0  0  0
115132  4  0  0  0  0
131132  4  0  0  0  0
132133  4  0  0  0  0
133134  4  0  0  0  0
134135  2  0  0  0  0
135136  4  0  0  0  0
136137  4  0  0  0  0
137138  1  0  0  0  0
138139  4  0  0  0  0
139140  4  0  0  0  0
140141  4  0  0  0  0
141142  4  0  0  0  0
138143  4  0  0  0  0
142143  4  0  0  0  0
137144  4  0  0  0  0
144145  4  0  0  0  0
145146  2  0  0  0  0
120147  4  0  0  0  0
146147  4  0  0  0  0
119148  1  0  0  0  0
144148  4  0  0  0  0
147148  4  0  0  0  0
119149  1  0  0  0  0
133149  4  0  0  0  0
136149  4  0  0  0  0
126150  1  0  0  0  0
150151  4  0  0  0  0
151152  4  0  0  0  0
152153  4  0  0  0  0
153154  4  0  0  0  0
150155  4  0  0  0  0
154155  4  0  0  0  0
122156  1  0  0  0  0
123157  1  0  0  0  0
128158  1  0  0  0  0
129159  1  0  0  0  0
134160  1  0  0  0  0
135161  1  0  0  0  0
139162  1  0  0  0  0
140163  1  0  0  0  0
141164  1  0  0  0  0
142165  1  0  0  0  0
143166  1  0  0  0  0
145167  1  0  0  0  0
146168  1  0  0  0  0
151169  1  0  0  0  0
152170  1  0  0  0  0
153171  1  0  0  0  0
154172  1  0  0  0  0
155173  1  0  0  0  0
116175  4  0  0  0  0
175176  4  0  0  0  0
176177  4  0  0  0  0
177178  2  0  0  0  0
178179  4  0  0  0  0
174180  1  0  0  0  0
176180  4  0  0  0  0
179180  4  0  0  0  0
179181  4  0  0  0  0
181182  4  0  0  0  0
182183  4  0  0  0  0
183184  2  0  0  0  0
174185  1  0  0  0  0
182185  4  0  0  0  0
184186  4  0  0  0  0
185186  4  0  0  0  0
117187  4  0  0  0  0
186187  4  0  0  0  0
187188  4  0  0  0  0
188189  4  0  0  0  0
189190  2  0  0  0  0
190191  4  0  0  0  0
191192  4  0  0  0  0
192193  1  0  0  0  0
193194  4  0  0  0  0
194195  4  0  0  0  0
195196  4  0  0  0  0
196197  4  0  0  0  0
193198  4  0  0  0  0
197198  4  0  0  0  0
192199  4  0  0  0  0
199200  4  0  0  0  0
200201  2  0  0  0  0
175202  4  0  0  0  0
201202  4  0  0  0  0
174203  1  0  0  0  0
199203  4  0  0  0  0
202203  4  0  0  0  0
174204  1  0  0  0  0
188204  4  0  0  0  0
191204  4  0  0  0  0
181205  1  0  0  0  0
205206  4  0  0  0  0
206207  4  0  0  0  0
207208  4  0  0  0  0
208209  4  0  0  0  0
205210  4  0  0  0  0
209210  4  0  0  0  0
177211  1  0  0  0  0
178212  1  0  0  0  0
183213  1  0  0  0  0
184214  1  0  0  0  0
189215  1  0  0  0  0
190216  1  0  0  0  0
194217  1  0  0  0  0
195218  1  0  0  0  0
196219  1  0  0  0  0
197220  1  0  0  0  0
198221  1  0  0  0  0
200222  1  0  0  0  0
201223  1  0  0  0  0
206224  1  0  0  0  0
207225  1  0  0  0  0
208226  1  0  0  0  0
209227  1  0  0  0  0
210228  1  0  0  0  0
M  END
