175

Fe 27.937094 0.063776 0.013770
C 24.600531 -0.092294 0.003358
C 25.264640 -1.244498 -0.124471
C 24.614962 -2.541239 -0.274861
C 25.556791 -3.464952 -0.322253
C 26.861620 -2.800531 -0.202785
N 26.683333 -1.388952 -0.082349
C 28.051823 -3.432258 -0.157605
C 29.345456 -2.716220 -0.007137
C 30.635999 -3.391018 0.177774
C 31.570715 -2.464542 0.235568
N 29.486074 -1.427165 -0.067105
C 30.885579 -1.187129 0.080167
C 31.480153 0.015299 0.009478
C 30.719139 1.272883 -0.169432
C 31.256107 2.417954 -0.571636
C 30.212372 3.422704 -0.529578
C 29.106354 2.826259 -0.100285
C 27.821246 3.528273 0.150918
C 27.840366 5.003074 0.308879
C 27.181102 5.829026 -0.617369
C 27.219805 7.219139 -0.472272
C 27.921360 7.793098 0.591704
C 28.587403 6.977865 1.511202
C 28.550609 5.587212 1.370279
C 26.656198 2.858270 0.239621
C 25.343839 3.439207 0.518404
C 24.482246 2.442134 0.465921
C 25.235228 1.225186 0.167637
N 26.503379 1.455294 0.034204
N 29.336113 1.437633 0.146739
C 28.090604 -4.907167 -0.249513
C 27.989615 -5.539319 -1.498408
C 28.027708 -6.934567 -1.583001
C 28.167624 -7.703100 -0.423401
C 28.269472 -7.077518 0.822850
C 28.231091 -5.682567 0.911702
H 23.517129 -0.120894 0.000369
H 23.550635 -2.730956 -0.329384
H 25.371357 -4.526818 -0.420038
H 30.813418 -4.455869 0.249879
H 32.629385 -2.649026 0.360420
H 32.285447 2.585636 -0.858797
H 30.325222 4.469347 -0.780997
H 26.642243 5.395714 -1.451050
H 26.708533 7.851578 -1.186425
H 27.951260 8.869367 0.701998
H 29.133204 7.423625 2.332674
H 29.071698 4.965318 2.087898
H 25.098994 4.471416 0.731342
H 23.414970 2.523603 0.624795
H 27.881541 -4.951769 -2.401868
H 27.949144 -7.420030 -2.547123
H 28.197262 -8.782919 -0.490539
H 28.378069 -7.673527 1.719707
H 28.310728 -5.206282 1.881212
Fe 56.686131 -0.033318 0.011661
C 60.022694 0.123057 0.008035
C 59.358584 1.279725 -0.069642
C 60.008263 2.581773 -0.163583
C 59.066434 3.506672 -0.170821
C 57.761605 2.837691 -0.080316
N 57.939891 1.422214 -0.021287
C 56.571402 3.466860 -0.007748
C 55.277769 2.744964 0.111486
C 53.987225 3.411096 0.325524
C 53.052510 2.482984 0.343034
N 55.137151 1.459729 -0.004399
C 53.737645 1.213524 0.132312
C 53.143072 0.015299 0.009478
C 53.904086 -1.233329 -0.223870
C 53.367118 -2.359856 -0.675416
C 54.410853 -3.365485 -0.677026
C 55.516871 -2.788243 -0.222238
C 56.801979 -3.500503 -0.001755
C 56.782859 -4.980771 0.092018
C 57.442122 -5.765725 -0.869221
C 57.403420 -7.160827 -0.784621
C 56.701865 -7.780445 0.253428
C 56.035822 -7.005907 1.207458
C 56.072616 -5.610446 1.127052
C 57.967027 -2.834983 0.115957
C 59.279386 -3.427477 0.369252
C 60.140979 -2.429066 0.360112
C 59.387997 -1.200314 0.114952
N 58.119846 -1.424410 -0.028346
N 55.287112 -1.411653 0.084849
C 56.532620 4.944369 -0.035526
C 56.633609 5.630154 -1.255794
C 56.595517 7.027759 -1.279722
C 56.455601 7.745216 -0.087845
C 56.353753 7.066109 1.130066
C 56.392134 5.668616 1.158263
H 61.106095 0.151760 0.006291
H 61.072589 2.773679 -0.209817
H 59.251867 4.571783 -0.222405
H 53.809806 4.471812 0.443799
H 51.993840 2.661873 0.475779
H 52.337778 -2.514911 -0.969587
H 54.298003 -4.400224 -0.973654
H 57.980982 -5.296622 -1.683300
H 57.914692 -7.761660 -1.525563
H 56.671965 -8.860488 0.316885
H 55.490020 -7.486917 2.008799
H 55.551526 -5.020300 1.870998
H 59.524231 -4.467959 0.537168
H 61.208255 -2.517357 0.515300
H 56.741684 5.082388 -2.183914
H 56.674081 7.554628 -2.221856
H 56.425963 8.826931 -0.108032
H 56.245155 7.622613 2.051957
H 56.312497 5.150682 2.106177
C 34.931714 0.028031 0.012003
C 33.679444 0.008850 0.007655
C 36.245383 0.027265 0.013936
C 37.748516 0.008850 0.007655
C 48.213049 0.028031 0.012003
C 46.960778 0.008850 0.007655
C 49.526717 0.027265 0.013936
C 51.029851 0.008850 0.007655
Fe 42.241082 0.064516 0.021142
C 38.866875 -0.032442 -0.020415
C 39.525695 -1.205514 -0.025223
C 38.880248 -2.520203 -0.013302
C 39.819994 -3.442886 -0.021581
C 41.123657 -2.772968 -0.042970
N 40.947722 -1.354447 -0.042051
C 42.310188 -3.412216 -0.061415
C 43.619311 -2.716125 -0.087093
C 44.904272 -3.419717 -0.185122
C 45.858919 -2.515522 -0.179418
N 43.780228 -1.429377 -0.023128
C 45.192780 -1.222153 -0.075628
C 45.814845 -0.032442 -0.020415
C 45.090517 1.255914 0.093718
C 45.691263 2.428330 0.248130
C 44.660695 3.441158 0.287724
C 43.491290 2.827572 0.147952
C 42.184480 3.536975 0.111889
C 42.193642 5.019144 0.134537
C 41.826009 5.711645 1.299593
C 41.850058 7.109451 1.323050
C 42.246774 7.821557 0.186945
C 42.617176 7.137196 -0.974615
C 42.592976 5.739088 -1.002603
C 41.002379 2.891917 0.059291
C 39.693721 3.535625 -0.006008
C 38.808033 2.564257 -0.047242
C 39.536330 1.291390 -0.010254
N 40.821095 1.474426 0.050695
N 43.670288 1.414613 0.023514
C 42.331969 -4.890861 -0.067522
C 42.191305 -5.594382 -1.273916
C 42.228965 -6.992073 -1.278244
C 42.408122 -7.691733 -0.081127
C 42.548529 -6.994506 1.122869
C 42.513092 -5.596904 1.131151
H 37.819970 -2.734236 0.003047
H 39.633686 -4.509207 -0.010805
H 45.060777 -4.487705 -0.255455
H 46.918061 -2.725687 -0.242208
H 46.754022 2.612241 0.325769
H 44.826450 4.503188 0.401922
H 41.525678 5.168863 2.186871
H 41.564438 7.641235 2.222260
H 42.267258 8.903212 0.208469
H 42.926607 7.689556 -1.852490
H 42.886655 5.217688 -1.905446
H 39.466474 4.594183 -0.024009
H 37.737896 2.709593 -0.101941
H 42.056041 -5.060316 -2.206110
H 42.121777 -7.533114 -2.209452
H 42.438913 -8.773205 -0.086001
H 42.687269 -7.537978 2.048779
H 42.626520 -5.064319 2.067102
