 xtb: 6.5.1 (b24c23e)
          07302205143D

197226  0     0  0            999 V2000
   29.1490    0.0747   -0.2613 Ni  0  0  0  0  0  0  0  0  0  0  0  0
   25.7620    0.0884   -0.1182 C   0  0  0  0  0  0  0  0  0  0  0  0
   26.4154    1.3032   -0.1355 C   0  0  0  0  0  0  0  0  0  0  0  0
   25.7437    2.5669   -0.1375 C   0  0  0  0  0  0  0  0  0  0  0  0
   26.7035    3.5171   -0.0493 C   0  0  0  0  0  0  0  0  0  0  0  0
   27.9610    2.8315    0.0243 C   0  0  0  0  0  0  0  0  0  0  0  0
   27.7759    1.4754   -0.0760 N   0  0  0  0  0  0  0  0  0  0  0  0
   29.1804    3.4610    0.2402 C   0  0  0  0  0  0  0  0  0  0  0  0
   29.1992    4.9291    0.4440 C   0  0  0  0  0  0  0  0  0  0  0  0
   28.5034    5.5079    1.5016 C   0  0  0  0  0  0  0  0  0  0  0  0
   28.5224    6.8895    1.6886 C   0  0  0  0  0  0  0  0  0  0  0  0
   27.7578    7.4468    2.8327 C   0  0  0  0  0  0  0  0  0  0  0  0
   27.8484    8.7804    2.9389 O   0  0  0  0  0  0  0  0  0  0  0  0
   27.1116    6.7859    3.6048 O   0  0  0  0  0  0  0  0  0  0  0  0
   29.2410    7.7039    0.8135 C   0  0  0  0  0  0  0  0  0  0  0  0
   29.9342    7.1300   -0.2407 C   0  0  0  0  0  0  0  0  0  0  0  0
   29.9160    5.7549   -0.4255 C   0  0  0  0  0  0  0  0  0  0  0  0
   30.3845    2.7694    0.2770 C   0  0  0  0  0  0  0  0  0  0  0  0
   31.6464    3.3771    0.5728 C   0  0  0  0  0  0  0  0  0  0  0  0
   32.5903    2.4190    0.4084 C   0  0  0  0  0  0  0  0  0  0  0  0
   30.5512    1.4355   -0.0183 N   0  0  0  0  0  0  0  0  0  0  0  0
   31.9029    1.2288    0.0210 C   0  0  0  0  0  0  0  0  0  0  0  0
   32.5577    0.0543   -0.3616 C   0  0  0  0  0  0  0  0  0  0  0  0
   31.8689   -1.1109   -0.7108 C   0  0  0  0  0  0  0  0  0  0  0  0
   32.5181   -2.3038   -1.1525 C   0  0  0  0  0  0  0  0  0  0  0  0
   31.5531   -3.2459   -1.2834 C   0  0  0  0  0  0  0  0  0  0  0  0
   30.3178   -2.6271   -0.9085 C   0  0  0  0  0  0  0  0  0  0  0  0
   30.5190   -1.3006   -0.6003 N   0  0  0  0  0  0  0  0  0  0  0  0
   29.1093   -3.3038   -0.8102 C   0  0  0  0  0  0  0  0  0  0  0  0
   29.0874   -4.7654   -1.0592 C   0  0  0  0  0  0  0  0  0  0  0  0
   29.8293   -5.6347   -0.2567 C   0  0  0  0  0  0  0  0  0  0  0  0
   29.8040   -7.0033   -0.4867 C   0  0  0  0  0  0  0  0  0  0  0  0
   29.0420   -7.5201   -1.5211 C   0  0  0  0  0  0  0  0  0  0  0  0
   28.2974   -6.6612   -2.3309 C   0  0  0  0  0  0  0  0  0  0  0  0
   27.4935   -7.2530   -3.4298 C   0  0  0  0  0  0  0  0  0  0  0  0
   26.7987   -6.3478   -4.1341 O   0  0  0  0  0  0  0  0  0  0  0  0
   27.4511   -8.4297   -3.6827 O   0  0  0  0  0  0  0  0  0  0  0  0
   28.3200   -5.2877   -2.0982 C   0  0  0  0  0  0  0  0  0  0  0  0
   27.9170   -2.6671   -0.4888 C   0  0  0  0  0  0  0  0  0  0  0  0
   26.6643   -3.3447   -0.3229 C   0  0  0  0  0  0  0  0  0  0  0  0
   25.7248   -2.3898   -0.1284 C   0  0  0  0  0  0  0  0  0  0  0  0
   26.4050   -1.1311   -0.1659 C   0  0  0  0  0  0  0  0  0  0  0  0
   27.7535   -1.3121   -0.3474 N   0  0  0  0  0  0  0  0  0  0  0  0
   24.6794    0.0925   -0.0703 H   0  0  0  0  0  0  0  0  0  0  0  0
   24.6743    2.6902   -0.1998 H   0  0  0  0  0  0  0  0  0  0  0  0
   26.5834    4.5881   -0.0343 H   0  0  0  0  0  0  0  0  0  0  0  0
   27.9511    4.8894    2.2007 H   0  0  0  0  0  0  0  0  0  0  0  0
   27.3254    9.0649    3.7059 H   0  0  0  0  0  0  0  0  0  0  0  0
   29.2534    8.7772    0.9597 H   0  0  0  0  0  0  0  0  0  0  0  0
   30.4924    7.7572   -0.9265 H   0  0  0  0  0  0  0  0  0  0  0  0
   30.4498    5.3137   -1.2598 H   0  0  0  0  0  0  0  0  0  0  0  0
   31.7825    4.4031    0.8737 H   0  0  0  0  0  0  0  0  0  0  0  0
   33.6584    2.4971    0.5319 H   0  0  0  0  0  0  0  0  0  0  0  0
   33.5770   -2.3934   -1.3338 H   0  0  0  0  0  0  0  0  0  0  0  0
   31.6580   -4.2686   -1.6070 H   0  0  0  0  0  0  0  0  0  0  0  0
   30.4165   -5.2331    0.5616 H   0  0  0  0  0  0  0  0  0  0  0  0
   30.3811   -7.6666    0.1474 H   0  0  0  0  0  0  0  0  0  0  0  0
   29.0115   -8.5864   -1.7147 H   0  0  0  0  0  0  0  0  0  0  0  0
   26.3036   -6.8116   -4.8288 H   0  0  0  0  0  0  0  0  0  0  0  0
   27.7511   -4.6213   -2.7358 H   0  0  0  0  0  0  0  0  0  0  0  0
   26.5343   -4.4144   -0.3503 H   0  0  0  0  0  0  0  0  0  0  0  0
   24.6640   -2.5068    0.0254 H   0  0  0  0  0  0  0  0  0  0  0  0
   61.0529    0.1377   -0.1623 Ni  0  0  0  0  0  0  0  0  0  0  0  0
   64.4436    0.0990   -0.2051 C   0  0  0  0  0  0  0  0  0  0  0  0
   63.7776   -1.0510   -0.5746 C   0  0  0  0  0  0  0  0  0  0  0  0
   64.4368   -2.2441   -1.0108 C   0  0  0  0  0  0  0  0  0  0  0  0
   63.4725   -3.1759   -1.1938 C   0  0  0  0  0  0  0  0  0  0  0  0
   62.2257   -2.5554   -0.8520 C   0  0  0  0  0  0  0  0  0  0  0  0
   62.4194   -1.2393   -0.5144 N   0  0  0  0  0  0  0  0  0  0  0  0
   61.0099   -3.2253   -0.8092 C   0  0  0  0  0  0  0  0  0  0  0  0
   60.9856   -4.6790   -1.0999 C   0  0  0  0  0  0  0  0  0  0  0  0
   61.6978   -5.5722   -0.3050 C   0  0  0  0  0  0  0  0  0  0  0  0
   61.6708   -6.9391   -0.5791 C   0  0  0  0  0  0  0  0  0  0  0  0
   62.4475   -7.8411    0.3082 C   0  0  0  0  0  0  0  0  0  0  0  0
   62.3524   -9.1357   -0.0277 O   0  0  0  0  0  0  0  0  0  0  0  0
   63.1109   -7.4696    1.2422 O   0  0  0  0  0  0  0  0  0  0  0  0
   60.9303   -7.4215   -1.6581 C   0  0  0  0  0  0  0  0  0  0  0  0
   60.2217   -6.5335   -2.4523 C   0  0  0  0  0  0  0  0  0  0  0  0
   60.2459   -5.1736   -2.1768 C   0  0  0  0  0  0  0  0  0  0  0  0
   59.8141   -2.5905   -0.4996 C   0  0  0  0  0  0  0  0  0  0  0  0
   58.5591   -3.2684   -0.3781 C   0  0  0  0  0  0  0  0  0  0  0  0
   57.6181   -2.3154   -0.1733 C   0  0  0  0  0  0  0  0  0  0  0  0
   59.6483   -1.2358   -0.3225 N   0  0  0  0  0  0  0  0  0  0  0  0
   58.3012   -1.0613   -0.1620 C   0  0  0  0  0  0  0  0  0  0  0  0
   57.6425    0.1693   -0.0900 C   0  0  0  0  0  0  0  0  0  0  0  0
   58.3259    1.3877   -0.0441 C   0  0  0  0  0  0  0  0  0  0  0  0
   57.6667    2.6541   -0.0125 C   0  0  0  0  0  0  0  0  0  0  0  0
   58.6333    3.5919    0.1343 C   0  0  0  0  0  0  0  0  0  0  0  0
   59.8806    2.8925    0.2025 C   0  0  0  0  0  0  0  0  0  0  0  0
   59.6819    1.5388    0.0515 N   0  0  0  0  0  0  0  0  0  0  0  0
   61.1014    3.5087    0.4433 C   0  0  0  0  0  0  0  0  0  0  0  0
   61.1218    4.9690    0.7008 C   0  0  0  0  0  0  0  0  0  0  0  0
   60.4438    5.5041    1.7983 C   0  0  0  0  0  0  0  0  0  0  0  0
   60.4626    6.8702    2.0431 C   0  0  0  0  0  0  0  0  0  0  0  0
   61.1549    7.7183    1.1950 C   0  0  0  0  0  0  0  0  0  0  0  0
   61.8356    7.1954    0.0945 C   0  0  0  0  0  0  0  0  0  0  0  0
   62.5658    8.1374   -0.7908 C   0  0  0  0  0  0  0  0  0  0  0  0
   63.2016    7.5360   -1.8068 O   0  0  0  0  0  0  0  0  0  0  0  0
   62.6004    9.3306   -0.6314 O   0  0  0  0  0  0  0  0  0  0  0  0
   61.8192    5.8238   -0.1499 C   0  0  0  0  0  0  0  0  0  0  0  0
   62.3038    2.8135    0.4537 C   0  0  0  0  0  0  0  0  0  0  0  0
   63.5731    3.4112    0.7502 C   0  0  0  0  0  0  0  0  0  0  0  0
   64.5102    2.4518    0.5679 C   0  0  0  0  0  0  0  0  0  0  0  0
   63.8129    1.2671    0.1698 C   0  0  0  0  0  0  0  0  0  0  0  0
   62.4584    1.4874    0.1364 N   0  0  0  0  0  0  0  0  0  0  0  0
   65.5271    0.0859   -0.2154 H   0  0  0  0  0  0  0  0  0  0  0  0
   65.5016   -2.3363   -1.1537 H   0  0  0  0  0  0  0  0  0  0  0  0
   63.5823   -4.1942   -1.5293 H   0  0  0  0  0  0  0  0  0  0  0  0
   62.2681   -5.2167    0.5462 H   0  0  0  0  0  0  0  0  0  0  0  0
   62.8857   -9.6557    0.5952 H   0  0  0  0  0  0  0  0  0  0  0  0
   60.9120   -8.4835   -1.8706 H   0  0  0  0  0  0  0  0  0  0  0  0
   59.6463   -6.9012   -3.2943 H   0  0  0  0  0  0  0  0  0  0  0  0
   59.6984   -4.4832   -2.8086 H   0  0  0  0  0  0  0  0  0  0  0  0
   58.4261   -4.3363   -0.4363 H   0  0  0  0  0  0  0  0  0  0  0  0
   56.5549   -2.4348   -0.0410 H   0  0  0  0  0  0  0  0  0  0  0  0
   56.6005    2.7918   -0.0925 H   0  0  0  0  0  0  0  0  0  0  0  0
   58.5219    4.6625    0.1874 H   0  0  0  0  0  0  0  0  0  0  0  0
   59.9114    4.8402    2.4701 H   0  0  0  0  0  0  0  0  0  0  0  0
   59.9350    7.2710    2.9011 H   0  0  0  0  0  0  0  0  0  0  0  0
   61.1793    8.7878    1.3711 H   0  0  0  0  0  0  0  0  0  0  0  0
   63.6508    8.2161   -2.3346 H   0  0  0  0  0  0  0  0  0  0  0  0
   62.3372    5.4216   -1.0125 H   0  0  0  0  0  0  0  0  0  0  0  0
   63.7149    4.4337    1.0603 H   0  0  0  0  0  0  0  0  0  0  0  0
   65.5799    2.5208    0.6851 H   0  0  0  0  0  0  0  0  0  0  0  0
   37.7535    0.1177   -0.5752 C   0  0  0  0  0  0  0  0  0  0  0  0
   36.5273    0.0859   -0.5164 C   0  0  0  0  0  0  0  0  0  0  0  0
   35.1841    0.0633   -0.4548 C   0  0  0  0  0  0  0  0  0  0  0  0
   33.9616    0.0517   -0.4084 C   0  0  0  0  0  0  0  0  0  0  0  0
   39.0946    0.1681   -0.6577 C   0  0  0  0  0  0  0  0  0  0  0  0
   40.3134    0.2292   -0.7474 C   0  0  0  0  0  0  0  0  0  0  0  0
   53.6716    0.2224   -0.1569 C   0  0  0  0  0  0  0  0  0  0  0  0
   52.4459    0.2486   -0.2269 C   0  0  0  0  0  0  0  0  0  0  0  0
   51.1067    0.2803   -0.3403 C   0  0  0  0  0  0  0  0  0  0  0  0
   49.8914    0.3136   -0.4777 C   0  0  0  0  0  0  0  0  0  0  0  0
   55.0150    0.2004   -0.1053 C   0  0  0  0  0  0  0  0  0  0  0  0
   56.2381    0.1838   -0.0854 C   0  0  0  0  0  0  0  0  0  0  0  0
   45.1117    0.4244   -1.0011 Ni  0  0  0  0  0  0  0  0  0  0  0  0
   41.7112    0.3027   -0.8552 C   0  0  0  0  0  0  0  0  0  0  0  0
   42.3898   -0.7216   -1.5248 C   0  0  0  0  0  0  0  0  0  0  0  0
   41.7295   -1.7762   -2.2253 C   0  0  0  0  0  0  0  0  0  0  0  0
   42.7001   -2.5684   -2.7422 C   0  0  0  0  0  0  0  0  0  0  0  0
   43.9512   -2.0191   -2.3161 C   0  0  0  0  0  0  0  0  0  0  0  0
   43.7469   -0.8561   -1.6068 N   0  0  0  0  0  0  0  0  0  0  0  0
   45.1790   -2.6428   -2.4912 C   0  0  0  0  0  0  0  0  0  0  0  0
   45.2371   -3.9385   -3.2096 C   0  0  0  0  0  0  0  0  0  0  0  0
   44.5554   -5.0547   -2.7344 C   0  0  0  0  0  0  0  0  0  0  0  0
   44.6270   -6.2688   -3.4166 C   0  0  0  0  0  0  0  0  0  0  0  0
   43.8828   -7.4256   -2.8571 C   0  0  0  0  0  0  0  0  0  0  0  0
   44.0430   -8.5559   -3.5602 O   0  0  0  0  0  0  0  0  0  0  0  0
   43.1949   -7.3777   -1.8700 O   0  0  0  0  0  0  0  0  0  0  0  0
   45.3813   -6.3716   -4.5852 C   0  0  0  0  0  0  0  0  0  0  0  0
   46.0619   -5.2612   -5.0595 C   0  0  0  0  0  0  0  0  0  0  0  0
   45.9953   -4.0549   -4.3772 C   0  0  0  0  0  0  0  0  0  0  0  0
   46.3623   -2.1291   -1.9736 C   0  0  0  0  0  0  0  0  0  0  0  0
   47.6013   -2.8443   -1.9524 C   0  0  0  0  0  0  0  0  0  0  0  0
   48.5165   -2.0253   -1.3787 C   0  0  0  0  0  0  0  0  0  0  0  0
   46.5146   -0.8874   -1.4036 N   0  0  0  0  0  0  0  0  0  0  0  0
   47.8399   -0.8050   -1.0746 C   0  0  0  0  0  0  0  0  0  0  0  0
   48.4996    0.3543   -0.6548 C   0  0  0  0  0  0  0  0  0  0  0  0
   47.8351    1.5754   -0.4954 C   0  0  0  0  0  0  0  0  0  0  0  0
   48.5085    2.8152   -0.2777 C   0  0  0  0  0  0  0  0  0  0  0  0
   47.5485    3.7656   -0.1667 C   0  0  0  0  0  0  0  0  0  0  0  0
   46.2889    3.0942   -0.2733 C   0  0  0  0  0  0  0  0  0  0  0  0
   46.4809    1.7536   -0.5232 N   0  0  0  0  0  0  0  0  0  0  0  0
   45.0603    3.6952   -0.0342 C   0  0  0  0  0  0  0  0  0  0  0  0
   45.0237    5.1348    0.3192 C   0  0  0  0  0  0  0  0  0  0  0  0
   44.3291    6.0372   -0.4892 C   0  0  0  0  0  0  0  0  0  0  0  0
   44.2983    7.3887   -0.1749 C   0  0  0  0  0  0  0  0  0  0  0  0
   44.9548    7.8546    0.9519 C   0  0  0  0  0  0  0  0  0  0  0  0
   45.6447    6.9611    1.7726 C   0  0  0  0  0  0  0  0  0  0  0  0
   46.3330    7.4991    2.9733 C   0  0  0  0  0  0  0  0  0  0  0  0
   46.9755    6.5640    3.6874 O   0  0  0  0  0  0  0  0  0  0  0  0
   46.3299    8.6598    3.2942 O   0  0  0  0  0  0  0  0  0  0  0  0
   45.6780    5.6046    1.4558 C   0  0  0  0  0  0  0  0  0  0  0  0
   43.8625    2.9908   -0.0586 C   0  0  0  0  0  0  0  0  0  0  0  0
   42.6104    3.5285    0.3772 C   0  0  0  0  0  0  0  0  0  0  0  0
   41.6837    2.5548    0.2019 C   0  0  0  0  0  0  0  0  0  0  0  0
   42.3676    1.4349   -0.3618 C   0  0  0  0  0  0  0  0  0  0  0  0
   43.7055    1.6926   -0.4842 N   0  0  0  0  0  0  0  0  0  0  0  0
   40.6599   -1.8754   -2.3161 H   0  0  0  0  0  0  0  0  0  0  0  0
   42.5866   -3.4517   -3.3490 H   0  0  0  0  0  0  0  0  0  0  0  0
   43.9774   -4.9987   -1.8185 H   0  0  0  0  0  0  0  0  0  0  0  0
   43.5288   -9.2604   -3.1333 H   0  0  0  0  0  0  0  0  0  0  0  0
   45.4330   -7.3151   -5.1148 H   0  0  0  0  0  0  0  0  0  0  0  0
   46.6498   -5.3337   -5.9675 H   0  0  0  0  0  0  0  0  0  0  0  0
   46.5248   -3.1877   -4.7558 H   0  0  0  0  0  0  0  0  0  0  0  0
   47.7390   -3.8501   -2.3144 H   0  0  0  0  0  0  0  0  0  0  0  0
   49.5615   -2.2101   -1.1893 H   0  0  0  0  0  0  0  0  0  0  0  0
   49.5794    2.9313   -0.2343 H   0  0  0  0  0  0  0  0  0  0  0  0
   47.6748    4.8255   -0.0183 H   0  0  0  0  0  0  0  0  0  0  0  0
   43.8232    5.6746   -1.3771 H   0  0  0  0  0  0  0  0  0  0  0  0
   43.7609    8.0787   -0.8153 H   0  0  0  0  0  0  0  0  0  0  0  0
   44.9426    8.9072    1.2112 H   0  0  0  0  0  0  0  0  0  0  0  0
   47.3956    6.9928    4.4507 H   0  0  0  0  0  0  0  0  0  0  0  0
   46.2008    4.9110    2.1036 H   0  0  0  0  0  0  0  0  0  0  0  0
   42.4718    4.5182    0.7811 H   0  0  0  0  0  0  0  0  0  0  0  0
   40.6271    2.5840    0.4137 H   0  0  0  0  0  0  0  0  0  0  0  0
  2  3  4  0  0  0  0
  3  4  4  0  0  0  0
  4  5  2  0  0  0  0
  5  6  4  0  0  0  0
  1  7  1  0  0  0  0
  3  7  4  0  0  0  0
  6  7  4  0  0  0  0
  6  8  4  0  0  0  0
  8  9  1  0  0  0  0
  9 10  4  0  0  0  0
 10 11  4  0  0  0  0
 11 12  1  0  0  0  0
 12 13  4  0  0  0  0
 12 14  2  0  0  0  0
 11 15  4  0  0  0  0
 15 16  4  0  0  0  0
  9 17  4  0  0  0  0
 16 17  4  0  0  0  0
  8 18  4  0  0  0  0
 18 19  4  0  0  0  0
 19 20  2  0  0  0  0
  1 21  1  0  0  0  0
 18 21  4  0  0  0  0
 20 22  4  0  0  0  0
 21 22  4  0  0  0  0
 22 23  4  0  0  0  0
 23 24  4  0  0  0  0
 24 25  4  0  0  0  0
 25 26  2  0  0  0  0
 26 27  4  0  0  0  0
  1 28  1  0  0  0  0
 24 28  4  0  0  0  0
 27 28  4  0  0  0  0
 27 29  4  0  0  0  0
 29 30  1  0  0  0  0
 30 31  4  0  0  0  0
 31 32  4  0  0  0  0
 32 33  4  0  0  0  0
 33 34  4  0  0  0  0
 34 35  1  0  0  0  0
 35 36  4  0  0  0  0
 35 37  2  0  0  0  0
 30 38  4  0  0  0  0
 34 38  4  0  0  0  0
 29 39  4  0  0  0  0
 39 40  4  0  0  0  0
 40 41  2  0  0  0  0
  2 42  4  0  0  0  0
 41 42  4  0  0  0  0
  1 43  1  0  0  0  0
 39 43  4  0  0  0  0
 42 43  4  0  0  0  0
  2 44  1  0  0  0  0
  4 45  1  0  0  0  0
  5 46  1  0  0  0  0
 10 47  1  0  0  0  0
 13 48  1  0  0  0  0
 15 49  1  0  0  0  0
 16 50  1  0  0  0  0
 17 51  1  0  0  0  0
 19 52  1  0  0  0  0
 20 53  1  0  0  0  0
 25 54  1  0  0  0  0
 26 55  1  0  0  0  0
 31 56  1  0  0  0  0
 32 57  1  0  0  0  0
 33 58  1  0  0  0  0
 36 59  1  0  0  0  0
 38 60  1  0  0  0  0
 40 61  1  0  0  0  0
 41 62  1  0  0  0  0
 64 65  4  0  0  0  0
 65 66  4  0  0  0  0
 66 67  2  0  0  0  0
 67 68  4  0  0  0  0
 63 69  1  0  0  0  0
 65 69  4  0  0  0  0
 68 69  4  0  0  0  0
 68 70  4  0  0  0  0
 70 71  1  0  0  0  0
 71 72  4  0  0  0  0
 72 73  4  0  0  0  0
 73 74  1  0  0  0  0
 74 75  4  0  0  0  0
 74 76  2  0  0  0  0
 73 77  4  0  0  0  0
 77 78  4  0  0  0  0
 71 79  4  0  0  0  0
 78 79  4  0  0  0  0
 70 80  4  0  0  0  0
 80 81  4  0  0  0  0
 81 82  2  0  0  0  0
 63 83  1  0  0  0  0
 80 83  4  0  0  0  0
 82 84  4  0  0  0  0
 83 84  4  0  0  0  0
 84 85  4  0  0  0  0
 85 86  4  0  0  0  0
 86 87  4  0  0  0  0
 87 88  2  0  0  0  0
 88 89  4  0  0  0  0
 63 90  1  0  0  0  0
 86 90  4  0  0  0  0
 89 90  4  0  0  0  0
 89 91  4  0  0  0  0
 91 92  1  0  0  0  0
 92 93  4  0  0  0  0
 93 94  4  0  0  0  0
 94 95  4  0  0  0  0
 95 96  4  0  0  0  0
 96 97  1  0  0  0  0
 97 98  4  0  0  0  0
 97 99  2  0  0  0  0
 92100  4  0  0  0  0
 96100  4  0  0  0  0
 91101  4  0  0  0  0
101102  4  0  0  0  0
102103  2  0  0  0  0
 64104  4  0  0  0  0
103104  4  0  0  0  0
 63105  1  0  0  0  0
101105  4  0  0  0  0
104105  4  0  0  0  0
 64106  1  0  0  0  0
 66107  1  0  0  0  0
 67108  1  0  0  0  0
 72109  1  0  0  0  0
 75110  1  0  0  0  0
 77111  1  0  0  0  0
 78112  1  0  0  0  0
 79113  1  0  0  0  0
 81114  1  0  0  0  0
 82115  1  0  0  0  0
 87116  1  0  0  0  0
 88117  1  0  0  0  0
 93118  1  0  0  0  0
 94119  1  0  0  0  0
 95120  1  0  0  0  0
 98121  1  0  0  0  0
100122  1  0  0  0  0
102123  1  0  0  0  0
103124  1  0  0  0  0
125126  3  0  0  0  0
126127  4  0  0  0  0
 23128  4  0  0  0  0
127128  3  0  0  0  0
125129  4  0  0  0  0
129130  3  0  0  0  0
131132  3  0  0  0  0
132133  4  0  0  0  0
133134  3  0  0  0  0
131135  4  0  0  0  0
 85136  4  0  0  0  0
135136  3  0  0  0  0
130138  4  0  0  0  0
138139  4  0  0  0  0
139140  4  0  0  0  0
140141  2  0  0  0  0
141142  4  0  0  0  0
137143  1  0  0  0  0
139143  4  0  0  0  0
142143  4  0  0  0  0
142144  4  0  0  0  0
144145  1  0  0  0  0
145146  4  0  0  0  0
146147  4  0  0  0  0
147148  1  0  0  0  0
148149  4  0  0  0  0
148150  2  0  0  0  0
147151  4  0  0  0  0
151152  4  0  0  0  0
145153  4  0  0  0  0
152153  4  0  0  0  0
144154  4  0  0  0  0
154155  4  0  0  0  0
155156  2  0  0  0  0
137157  1  0  0  0  0
154157  4  0  0  0  0
156158  4  0  0  0  0
157158  4  0  0  0  0
134159  4  0  0  0  0
158159  4  0  0  0  0
159160  4  0  0  0  0
160161  4  0  0  0  0
161162  2  0  0  0  0
162163  4  0  0  0  0
137164  1  0  0  0  0
160164  4  0  0  0  0
163164  4  0  0  0  0
163165  4  0  0  0  0
165166  1  0  0  0  0
166167  4  0  0  0  0
167168  4  0  0  0  0
168169  4  0  0  0  0
169170  4  0  0  0  0
170171  1  0  0  0  0
171172  4  0  0  0  0
171173  2  0  0  0  0
166174  4  0  0  0  0
170174  4  0  0  0  0
165175  4  0  0  0  0
175176  4  0  0  0  0
176177  2  0  0  0  0
138178  4  0  0  0  0
177178  4  0  0  0  0
137179  1  0  0  0  0
175179  4  0  0  0  0
178179  4  0  0  0  0
140180  1  0  0  0  0
141181  1  0  0  0  0
146182  1  0  0  0  0
149183  1  0  0  0  0
151184  1  0  0  0  0
152185  1  0  0  0  0
153186  1  0  0  0  0
155187  1  0  0  0  0
156188  1  0  0  0  0
161189  1  0  0  0  0
162190  1  0  0  0  0
167191  1  0  0  0  0
168192  1  0  0  0  0
169193  1  0  0  0  0
172194  1  0  0  0  0
174195  1  0  0  0  0
176196  1  0  0  0  0
177197  1  0  0  0  0
M  END
