 xtb: 6.5.1 (b24c23e)
          07272222193D

132145  0     0  0            999 V2000
   11.0802   -0.0968   -0.0876 C   0  0  0  0  0  0  0  0  0  0  0  0
   11.6614    1.1199   -0.4207 C   0  0  0  0  0  0  0  0  0  0  0  0
   10.9844    2.3483   -0.6623 C   0  0  0  0  0  0  0  0  0  0  0  0
   11.9232    3.2947   -0.9624 C   0  0  0  0  0  0  0  0  0  0  0  0
   13.2037    2.6723   -0.9229 C   0  0  0  0  0  0  0  0  0  0  0  0
   12.9954    1.3653   -0.5855 N   0  0  0  0  0  0  0  0  0  0  0  0
   14.4509    3.2633   -1.1536 C   0  0  0  0  0  0  0  0  0  0  0  0
   14.4459    4.7013   -1.5219 C   0  0  0  0  0  0  0  0  0  0  0  0
   15.0658    5.6418   -0.7041 C   0  0  0  0  0  0  0  0  0  0  0  0
   15.0537    6.9935   -1.0458 C   0  0  0  0  0  0  0  0  0  0  0  0
   15.7237    7.9493   -0.1278 C   0  0  0  0  0  0  0  0  0  0  0  0
   15.6578    9.2235   -0.5402 O   0  0  0  0  0  0  0  0  0  0  0  0
   16.2786    7.6353    0.8938 O   0  0  0  0  0  0  0  0  0  0  0  0
   14.4225    7.4133   -2.2167 C   0  0  0  0  0  0  0  0  0  0  0  0
   13.8069    6.4784   -3.0341 C   0  0  0  0  0  0  0  0  0  0  0  0
   13.8146    5.1337   -2.6905 C   0  0  0  0  0  0  0  0  0  0  0  0
   15.6808    2.6092   -1.0575 C   0  0  0  0  0  0  0  0  0  0  0  0
   16.9583    3.2362   -1.3466 C   0  0  0  0  0  0  0  0  0  0  0  0
   17.9016    2.2950   -1.1374 C   0  0  0  0  0  0  0  0  0  0  0  0
   15.8682    1.3080   -0.7026 N   0  0  0  0  0  0  0  0  0  0  0  0
   17.1986    1.0930   -0.7314 C   0  0  0  0  0  0  0  0  0  0  0  0
   17.8655   -0.1079   -0.4140 C   0  0  0  0  0  0  0  0  0  0  0  0
   17.2594   -1.3254   -0.0493 C   0  0  0  0  0  0  0  0  0  0  0  0
   17.9345   -2.5282    0.2889 C   0  0  0  0  0  0  0  0  0  0  0  0
   16.9912   -3.4746    0.5784 C   0  0  0  0  0  0  0  0  0  0  0  0
   15.7091   -2.8793    0.4181 C   0  0  0  0  0  0  0  0  0  0  0  0
   15.9237   -1.5792    0.0436 N   0  0  0  0  0  0  0  0  0  0  0  0
   14.4620   -3.4769    0.6282 C   0  0  0  0  0  0  0  0  0  0  0  0
   14.4633   -4.9085    1.0177 C   0  0  0  0  0  0  0  0  0  0  0  0
   15.0044   -5.8764    0.1686 C   0  0  0  0  0  0  0  0  0  0  0  0
   15.0014   -7.2166    0.5306 C   0  0  0  0  0  0  0  0  0  0  0  0
   14.4622   -7.6069    1.7449 C   0  0  0  0  0  0  0  0  0  0  0  0
   13.9210   -6.6487    2.6037 C   0  0  0  0  0  0  0  0  0  0  0  0
   13.3551   -7.1066    3.8979 C   0  0  0  0  0  0  0  0  0  0  0  0
   12.8495   -6.1142    4.6442 O   0  0  0  0  0  0  0  0  0  0  0  0
   13.3390   -8.2540    4.2639 O   0  0  0  0  0  0  0  0  0  0  0  0
   13.9212   -5.3042    2.2391 C   0  0  0  0  0  0  0  0  0  0  0  0
   13.2297   -2.8266    0.5048 C   0  0  0  0  0  0  0  0  0  0  0  0
   11.9397   -3.4755    0.6833 C   0  0  0  0  0  0  0  0  0  0  0  0
   11.0038   -2.5259    0.4846 C   0  0  0  0  0  0  0  0  0  0  0  0
   11.7201   -1.3010    0.1743 C   0  0  0  0  0  0  0  0  0  0  0  0
   13.0577   -1.5219    0.1868 N   0  0  0  0  0  0  0  0  0  0  0  0
    9.9966   -0.0970   -0.0270 H   0  0  0  0  0  0  0  0  0  0  0  0
    9.9157    2.4791   -0.6036 H   0  0  0  0  0  0  0  0  0  0  0  0
   11.7506    4.3356   -1.1832 H   0  0  0  0  0  0  0  0  0  0  0  0
   13.7343    0.6808   -0.4644 H   0  0  0  0  0  0  0  0  0  0  0  0
   15.5513    5.3351    0.2159 H   0  0  0  0  0  0  0  0  0  0  0  0
   16.1152    9.7817    0.1096 H   0  0  0  0  0  0  0  0  0  0  0  0
   14.4158    8.4636   -2.4817 H   0  0  0  0  0  0  0  0  0  0  0  0
   13.3174    6.7971   -3.9474 H   0  0  0  0  0  0  0  0  0  0  0  0
   13.3411    4.4066   -3.3410 H   0  0  0  0  0  0  0  0  0  0  0  0
   17.0921    4.2542   -1.6746 H   0  0  0  0  0  0  0  0  0  0  0  0
   18.9710    2.3777   -1.2471 H   0  0  0  0  0  0  0  0  0  0  0  0
   19.0061   -2.6432    0.3108 H   0  0  0  0  0  0  0  0  0  0  0  0
   17.1651   -4.4925    0.8872 H   0  0  0  0  0  0  0  0  0  0  0  0
   15.1850   -0.9036   -0.1228 H   0  0  0  0  0  0  0  0  0  0  0  0
   15.4142   -5.5758   -0.7894 H   0  0  0  0  0  0  0  0  0  0  0  0
   15.4211   -7.9568   -0.1415 H   0  0  0  0  0  0  0  0  0  0  0  0
   14.4522   -8.6491    2.0434 H   0  0  0  0  0  0  0  0  0  0  0  0
   12.5036   -6.4941    5.4684 H   0  0  0  0  0  0  0  0  0  0  0  0
   13.5131   -4.5609    2.9138 H   0  0  0  0  0  0  0  0  0  0  0  0
   11.7944   -4.5183    0.9157 H   0  0  0  0  0  0  0  0  0  0  0  0
    9.9298   -2.6164    0.5289 H   0  0  0  0  0  0  0  0  0  0  0  0
   33.8251    0.0489   -0.1542 C   0  0  0  0  0  0  0  0  0  0  0  0
   33.2451   -1.1963    0.0519 C   0  0  0  0  0  0  0  0  0  0  0  0
   33.9246   -2.4154    0.3300 C   0  0  0  0  0  0  0  0  0  0  0  0
   32.9866   -3.4005    0.4600 C   0  0  0  0  0  0  0  0  0  0  0  0
   31.7039   -2.8165    0.2549 C   0  0  0  0  0  0  0  0  0  0  0  0
   31.9103   -1.4868    0.0208 N   0  0  0  0  0  0  0  0  0  0  0  0
   30.4563   -3.4490    0.3006 C   0  0  0  0  0  0  0  0  0  0  0  0
   30.4597   -4.9115    0.5526 C   0  0  0  0  0  0  0  0  0  0  0  0
   29.8284   -5.4361    1.6770 C   0  0  0  0  0  0  0  0  0  0  0  0
   29.8308   -6.8102    1.9132 C   0  0  0  0  0  0  0  0  0  0  0  0
   29.1419   -7.3079    3.1308 C   0  0  0  0  0  0  0  0  0  0  0  0
   29.1910   -8.6410    3.2672 O   0  0  0  0  0  0  0  0  0  0  0  0
   28.5851   -6.6030    3.9329 O   0  0  0  0  0  0  0  0  0  0  0  0
   30.4668   -7.6723    1.0200 C   0  0  0  0  0  0  0  0  0  0  0  0
   31.0961   -7.1527   -0.1002 C   0  0  0  0  0  0  0  0  0  0  0  0
   31.0954   -5.7845   -0.3334 C   0  0  0  0  0  0  0  0  0  0  0  0
   29.2255   -2.8115    0.1293 C   0  0  0  0  0  0  0  0  0  0  0  0
   27.9472   -3.5007    0.1284 C   0  0  0  0  0  0  0  0  0  0  0  0
   27.0040   -2.5558   -0.0634 C   0  0  0  0  0  0  0  0  0  0  0  0
   29.0381   -1.4790   -0.0796 N   0  0  0  0  0  0  0  0  0  0  0  0
   27.7075   -1.2936   -0.1886 C   0  0  0  0  0  0  0  0  0  0  0  0
   27.0396   -0.0682   -0.3883 C   0  0  0  0  0  0  0  0  0  0  0  0
   27.6441    1.1930   -0.5514 C   0  0  0  0  0  0  0  0  0  0  0  0
   26.9677    2.4296   -0.7247 C   0  0  0  0  0  0  0  0  0  0  0  0
   27.9102    3.4121   -0.8514 C   0  0  0  0  0  0  0  0  0  0  0  0
   29.1929    2.8025   -0.7681 C   0  0  0  0  0  0  0  0  0  0  0  0
   28.9796    1.4626   -0.5795 N   0  0  0  0  0  0  0  0  0  0  0  0
   30.4399    3.4322   -0.8370 C   0  0  0  0  0  0  0  0  0  0  0  0
   30.4370    4.8976   -1.0693 C   0  0  0  0  0  0  0  0  0  0  0  0
   29.8800    5.4313   -2.2336 C   0  0  0  0  0  0  0  0  0  0  0  0
   29.8794    6.8018   -2.4538 C   0  0  0  0  0  0  0  0  0  0  0  0
   30.4313    7.6566   -1.5145 C   0  0  0  0  0  0  0  0  0  0  0  0
   30.9895    7.1357   -0.3460 C   0  0  0  0  0  0  0  0  0  0  0  0
   31.5690    8.0850    0.6373 C   0  0  0  0  0  0  0  0  0  0  0  0
   32.0861    7.4876    1.7207 O   0  0  0  0  0  0  0  0  0  0  0  0
   31.5868    9.2812    0.4971 O   0  0  0  0  0  0  0  0  0  0  0  0
   30.9926    5.7600   -0.1261 C   0  0  0  0  0  0  0  0  0  0  0  0
   31.6730    2.7860   -0.7017 C   0  0  0  0  0  0  0  0  0  0  0  0
   32.9627    3.4482   -0.8248 C   0  0  0  0  0  0  0  0  0  0  0  0
   33.8996    2.4984   -0.6313 C   0  0  0  0  0  0  0  0  0  0  0  0
   33.1840    1.2556   -0.4008 C   0  0  0  0  0  0  0  0  0  0  0  0
   31.8458    1.4652   -0.4597 N   0  0  0  0  0  0  0  0  0  0  0  0
   34.9095    0.0721   -0.1148 H   0  0  0  0  0  0  0  0  0  0  0  0
   34.9946   -2.5113    0.4233 H   0  0  0  0  0  0  0  0  0  0  0  0
   33.1616   -4.4396    0.6873 H   0  0  0  0  0  0  0  0  0  0  0  0
   31.1694   -0.8132   -0.1426 H   0  0  0  0  0  0  0  0  0  0  0  0
   29.3398   -4.7800    2.3891 H   0  0  0  0  0  0  0  0  0  0  0  0
   28.7205   -8.8846    4.0810 H   0  0  0  0  0  0  0  0  0  0  0  0
   30.4658   -8.7398    1.2041 H   0  0  0  0  0  0  0  0  0  0  0  0
   31.5897   -7.8169   -0.8006 H   0  0  0  0  0  0  0  0  0  0  0  0
   31.5769   -5.3871   -1.2200 H   0  0  0  0  0  0  0  0  0  0  0  0
   27.8120   -4.5635    0.2467 H   0  0  0  0  0  0  0  0  0  0  0  0
   25.9343   -2.6756   -0.1249 H   0  0  0  0  0  0  0  0  0  0  0  0
   25.8959    2.5439   -0.7422 H   0  0  0  0  0  0  0  0  0  0  0  0
   27.7354    4.4678   -0.9802 H   0  0  0  0  0  0  0  0  0  0  0  0
   29.7194    0.7777   -0.4642 H   0  0  0  0  0  0  0  0  0  0  0  0
   29.4606    4.7637   -2.9780 H   0  0  0  0  0  0  0  0  0  0  0  0
   29.4478    7.2006   -3.3648 H   0  0  0  0  0  0  0  0  0  0  0  0
   30.4386    8.7295   -1.6702 H   0  0  0  0  0  0  0  0  0  0  0  0
   32.4402    8.1728    2.3105 H   0  0  0  0  0  0  0  0  0  0  0  0
   31.4140    5.3596    0.7883 H   0  0  0  0  0  0  0  0  0  0  0  0
   33.1068    4.4942   -1.0427 H   0  0  0  0  0  0  0  0  0  0  0  0
   34.9737    2.5966   -0.6447 H   0  0  0  0  0  0  0  0  0  0  0  0
   23.0669   -0.1042   -0.4635 C   0  0  0  0  0  0  0  0  0  0  0  0
   21.8385   -0.1041   -0.4719 C   0  0  0  0  0  0  0  0  0  0  0  0
   20.4945   -0.1053   -0.4668 C   0  0  0  0  0  0  0  0  0  0  0  0
   19.2705   -0.1033   -0.4514 C   0  0  0  0  0  0  0  0  0  0  0  0
   24.4108   -0.0978   -0.4467 C   0  0  0  0  0  0  0  0  0  0  0  0
   25.6347   -0.0900   -0.4244 C   0  0  0  0  0  0  0  0  0  0  0  0
  1  2  4  0  0  0  0
  2  3  4  0  0  0  0
  3  4  2  0  0  0  0
  4  5  4  0  0  0  0
  2  6  4  0  0  0  0
  5  6  4  0  0  0  0
  5  7  4  0  0  0  0
  7  8  1  0  0  0  0
  8  9  4  0  0  0  0
  9 10  4  0  0  0  0
 10 11  1  0  0  0  0
 11 12  4  0  0  0  0
 11 13  2  0  0  0  0
 10 14  4  0  0  0  0
 14 15  4  0  0  0  0
  8 16  4  0  0  0  0
 15 16  4  0  0  0  0
  7 17  4  0  0  0  0
 17 18  1  0  0  0  0
 18 19  2  0  0  0  0
 17 20  4  0  0  0  0
 19 21  1  0  0  0  0
 20 21  4  0  0  0  0
 21 22  4  0  0  0  0
 22 23  4  0  0  0  0
 23 24  4  0  0  0  0
 24 25  2  0  0  0  0
 25 26  4  0  0  0  0
 23 27  4  0  0  0  0
 26 27  4  0  0  0  0
 26 28  4  0  0  0  0
 28 29  1  0  0  0  0
 29 30  4  0  0  0  0
 30 31  4  0  0  0  0
 31 32  4  0  0  0  0
 32 33  4  0  0  0  0
 33 34  1  0  0  0  0
 34 35  4  0  0  0  0
 34 36  2  0  0  0  0
 29 37  4  0  0  0  0
 33 37  4  0  0  0  0
 28 38  4  0  0  0  0
 38 39  1  0  0  0  0
 39 40  2  0  0  0  0
  1 41  4  0  0  0  0
 40 41  1  0  0  0  0
 38 42  4  0  0  0  0
 41 42  4  0  0  0  0
  1 43  1  0  0  0  0
  3 44  1  0  0  0  0
  4 45  1  0  0  0  0
  6 46  1  0  0  0  0
  9 47  1  0  0  0  0
 12 48  1  0  0  0  0
 14 49  1  0  0  0  0
 15 50  1  0  0  0  0
 16 51  1  0  0  0  0
 18 52  1  0  0  0  0
 19 53  1  0  0  0  0
 24 54  1  0  0  0  0
 25 55  1  0  0  0  0
 27 56  1  0  0  0  0
 30 57  1  0  0  0  0
 31 58  1  0  0  0  0
 32 59  1  0  0  0  0
 35 60  1  0  0  0  0
 37 61  1  0  0  0  0
 39 62  1  0  0  0  0
 40 63  1  0  0  0  0
 64 65  4  0  0  0  0
 65 66  4  0  0  0  0
 66 67  2  0  0  0  0
 67 68  4  0  0  0  0
 65 69  4  0  0  0  0
 68 69  4  0  0  0  0
 68 70  4  0  0  0  0
 70 71  1  0  0  0  0
 71 72  4  0  0  0  0
 72 73  4  0  0  0  0
 73 74  1  0  0  0  0
 74 75  4  0  0  0  0
 74 76  2  0  0  0  0
 73 77  4  0  0  0  0
 77 78  4  0  0  0  0
 71 79  4  0  0  0  0
 78 79  4  0  0  0  0
 70 80  4  0  0  0  0
 80 81  1  0  0  0  0
 81 82  2  0  0  0  0
 80 83  4  0  0  0  0
 82 84  1  0  0  0  0
 83 84  4  0  0  0  0
 84 85  4  0  0  0  0
 85 86  4  0  0  0  0
 86 87  4  0  0  0  0
 87 88  2  0  0  0  0
 88 89  4  0  0  0  0
 86 90  4  0  0  0  0
 89 90  4  0  0  0  0
 89 91  4  0  0  0  0
 91 92  1  0  0  0  0
 92 93  4  0  0  0  0
 93 94  4  0  0  0  0
 94 95  4  0  0  0  0
 95 96  4  0  0  0  0
 96 97  1  0  0  0  0
 97 98  4  0  0  0  0
 97 99  2  0  0  0  0
 92100  4  0  0  0  0
 96100  4  0  0  0  0
 91101  4  0  0  0  0
101102  1  0  0  0  0
102103  2  0  0  0  0
 64104  4  0  0  0  0
103104  1  0  0  0  0
101105  4  0  0  0  0
104105  4  0  0  0  0
 64106  1  0  0  0  0
 66107  1  0  0  0  0
 67108  1  0  0  0  0
 69109  1  0  0  0  0
 72110  1  0  0  0  0
 75111  1  0  0  0  0
 77112  1  0  0  0  0
 78113  1  0  0  0  0
 79114  1  0  0  0  0
 81115  1  0  0  0  0
 82116  1  0  0  0  0
 87117  1  0  0  0  0
 88118  1  0  0  0  0
 90119  1  0  0  0  0
 93120  1  0  0  0  0
 94121  1  0  0  0  0
 95122  1  0  0  0  0
 98123  1  0  0  0  0
100124  1  0  0  0  0
102125  1  0  0  0  0
103126  1  0  0  0  0
127128  3  0  0  0  0
128129  4  0  0  0  0
 22130  4  0  0  0  0
129130  3  0  0  0  0
127131  4  0  0  0  0
 85132  4  0  0  0  0
131132  3  0  0  0  0
M  END
