 xtb: 6.5.1 (b24c23e)
          07292216593D

138157  0     0  0            999 V2000
   16.3412    0.0512   -0.0252 Fe  0  0  0  0  0  0  0  0  0  0  0  0
   12.9621    0.1349   -0.1217 C   0  0  0  0  0  0  0  0  0  0  0  0
   13.5984    0.9039    0.8320 C   0  0  0  0  0  0  0  0  0  0  0  0
   12.9131    1.7086    1.7969 C   0  0  0  0  0  0  0  0  0  0  0  0
   13.8629    2.4083    2.4632 C   0  0  0  0  0  0  0  0  0  0  0  0
   15.1262    2.0431    1.8907 C   0  0  0  0  0  0  0  0  0  0  0  0
   14.9541    1.0784    0.9353 N   0  0  0  0  0  0  0  0  0  0  0  0
   16.3380    2.6493    2.2146 C   0  0  0  0  0  0  0  0  0  0  0  0
   16.3384    3.7827    3.1629 C   0  0  0  0  0  0  0  0  0  0  0  0
   15.5711    4.9251    2.9142 C   0  0  0  0  0  0  0  0  0  0  0  0
   15.5827    5.9901    3.7940 C   0  0  0  0  0  0  0  0  0  0  0  0
   16.3535    5.9403    4.9627 C   0  0  0  0  0  0  0  0  0  0  0  0
   16.3719    7.0525    5.7880 N   0  0  0  0  0  0  0  0  0  0  0  0
   16.7599    6.9161    7.1849 C   0  0  0  0  0  0  0  0  0  0  0  0
   17.1239    4.8012    5.2160 C   0  0  0  0  0  0  0  0  0  0  0  0
   17.1142    3.7433    4.3239 C   0  0  0  0  0  0  0  0  0  0  0  0
   17.5473    2.2370    1.6670 C   0  0  0  0  0  0  0  0  0  0  0  0
   18.8016    2.8874    1.9028 C   0  0  0  0  0  0  0  0  0  0  0  0
   19.7534    2.1346    1.2982 C   0  0  0  0  0  0  0  0  0  0  0  0
   17.7305    1.1249    0.8811 N   0  0  0  0  0  0  0  0  0  0  0  0
   19.0771    1.0343    0.6875 C   0  0  0  0  0  0  0  0  0  0  0  0
   19.7407   -0.0345    0.0714 C   0  0  0  0  0  0  0  0  0  0  0  0
   19.0634   -1.0875   -0.5572 C   0  0  0  0  0  0  0  0  0  0  0  0
   19.7232   -2.2206   -1.1245 C   0  0  0  0  0  0  0  0  0  0  0  0
   18.7674   -2.9561   -1.7437 C   0  0  0  0  0  0  0  0  0  0  0  0
   17.5290   -2.2578   -1.5676 C   0  0  0  0  0  0  0  0  0  0  0  0
   17.7207   -1.1431   -0.7860 N   0  0  0  0  0  0  0  0  0  0  0  0
   16.3332   -2.6229   -2.1739 C   0  0  0  0  0  0  0  0  0  0  0  0
   16.3277   -3.7660   -3.1106 C   0  0  0  0  0  0  0  0  0  0  0  0
   17.1632   -3.7780   -4.2299 C   0  0  0  0  0  0  0  0  0  0  0  0
   17.1567   -4.8398   -5.1174 C   0  0  0  0  0  0  0  0  0  0  0  0
   16.3084   -5.9304   -4.9015 C   0  0  0  0  0  0  0  0  0  0  0  0
   16.3003   -7.0432   -5.7269 N   0  0  0  0  0  0  0  0  0  0  0  0
   16.7501   -6.9257   -7.1071 C   0  0  0  0  0  0  0  0  0  0  0  0
   15.4796   -5.9305   -3.7722 C   0  0  0  0  0  0  0  0  0  0  0  0
   15.4848   -4.8614   -2.8974 C   0  0  0  0  0  0  0  0  0  0  0  0
   15.1393   -1.9434   -1.9399 C   0  0  0  0  0  0  0  0  0  0  0  0
   13.9016   -2.2351   -2.6032 C   0  0  0  0  0  0  0  0  0  0  0  0
   12.9538   -1.4580   -2.0257 C   0  0  0  0  0  0  0  0  0  0  0  0
   13.6157   -0.6844   -1.0198 C   0  0  0  0  0  0  0  0  0  0  0  0
   14.9585   -0.9599   -1.0067 N   0  0  0  0  0  0  0  0  0  0  0  0
   11.8793    0.1732   -0.1646 H   0  0  0  0  0  0  0  0  0  0  0  0
   11.8433    1.7234    1.9332 H   0  0  0  0  0  0  0  0  0  0  0  0
   13.7306    3.1071    3.2734 H   0  0  0  0  0  0  0  0  0  0  0  0
   14.9804    4.9851    2.0066 H   0  0  0  0  0  0  0  0  0  0  0  0
   14.9942    6.8764    3.5813 H   0  0  0  0  0  0  0  0  0  0  0  0
   15.5650    7.6512    5.6638 H   0  0  0  0  0  0  0  0  0  0  0  0
   17.8215    6.6761    7.2565 H   0  0  0  0  0  0  0  0  0  0  0  0
   16.1791    6.1360    7.6901 H   0  0  0  0  0  0  0  0  0  0  0  0
   16.5844    7.8721    7.6779 H   0  0  0  0  0  0  0  0  0  0  0  0
   17.7342    4.7348    6.1083 H   0  0  0  0  0  0  0  0  0  0  0  0
   17.7020    2.8580    4.5412 H   0  0  0  0  0  0  0  0  0  0  0  0
   18.9287    3.8071    2.4503 H   0  0  0  0  0  0  0  0  0  0  0  0
   20.8184    2.2978    1.2612 H   0  0  0  0  0  0  0  0  0  0  0  0
   20.7807   -2.4166   -1.0489 H   0  0  0  0  0  0  0  0  0  0  0  0
   18.8823   -3.8901   -2.2692 H   0  0  0  0  0  0  0  0  0  0  0  0
   17.8106   -2.9289   -4.4202 H   0  0  0  0  0  0  0  0  0  0  0  0
   17.8139   -4.8140   -5.9778 H   0  0  0  0  0  0  0  0  0  0  0  0
   15.4549   -7.5937   -5.6388 H   0  0  0  0  0  0  0  0  0  0  0  0
   16.2389   -6.1089   -7.6288 H   0  0  0  0  0  0  0  0  0  0  0  0
   16.5347   -7.8667   -7.6128 H   0  0  0  0  0  0  0  0  0  0  0  0
   17.8265   -6.7521   -7.1362 H   0  0  0  0  0  0  0  0  0  0  0  0
   14.8307   -6.7801   -3.5875 H   0  0  0  0  0  0  0  0  0  0  0  0
   14.8454   -4.8806   -2.0217 H   0  0  0  0  0  0  0  0  0  0  0  0
   13.7848   -2.9395   -3.4109 H   0  0  0  0  0  0  0  0  0  0  0  0
   11.8999   -1.4008   -2.2481 H   0  0  0  0  0  0  0  0  0  0  0  0
   32.3041    0.0131   -0.0557 Fe  0  0  0  0  0  0  0  0  0  0  0  0
   35.6832    0.0882   -0.1577 C   0  0  0  0  0  0  0  0  0  0  0  0
   35.0468   -1.0100   -0.7004 C   0  0  0  0  0  0  0  0  0  0  0  0
   35.7318   -2.1273   -1.2754 C   0  0  0  0  0  0  0  0  0  0  0  0
   34.7820   -2.9299   -1.8131 C   0  0  0  0  0  0  0  0  0  0  0  0
   33.5188   -2.2913   -1.5816 C   0  0  0  0  0  0  0  0  0  0  0  0
   33.6911   -1.1485   -0.8485 N   0  0  0  0  0  0  0  0  0  0  0  0
   32.3070   -2.7392   -2.1027 C   0  0  0  0  0  0  0  0  0  0  0  0
   32.3064   -3.9119   -3.0021 C   0  0  0  0  0  0  0  0  0  0  0  0
   33.0734   -3.9184   -4.1714 C   0  0  0  0  0  0  0  0  0  0  0  0
   33.0621   -5.0095   -5.0185 C   0  0  0  0  0  0  0  0  0  0  0  0
   32.2920   -6.1395   -4.7144 C   0  0  0  0  0  0  0  0  0  0  0  0
   32.2741   -7.1880   -5.6193 N   0  0  0  0  0  0  0  0  0  0  0  0
   31.8875   -8.5216   -5.1805 C   0  0  0  0  0  0  0  0  0  0  0  0
   31.5217   -6.1382   -3.5473 C   0  0  0  0  0  0  0  0  0  0  0  0
   31.5310   -5.0365   -2.7098 C   0  0  0  0  0  0  0  0  0  0  0  0
   31.0978   -2.1146   -1.8200 C   0  0  0  0  0  0  0  0  0  0  0  0
   29.8435   -2.4861   -2.4038 C   0  0  0  0  0  0  0  0  0  0  0  0
   28.8919   -1.7318   -1.8011 C   0  0  0  0  0  0  0  0  0  0  0  0
   30.9146   -1.1053   -0.9059 N   0  0  0  0  0  0  0  0  0  0  0  0
   29.5682   -0.8960   -0.8603 C   0  0  0  0  0  0  0  0  0  0  0  0
   28.9045   -0.0615    0.0483 C   0  0  0  0  0  0  0  0  0  0  0  0
   29.5818    0.7813    0.9391 C   0  0  0  0  0  0  0  0  0  0  0  0
   28.9221    1.5823    1.9211 C   0  0  0  0  0  0  0  0  0  0  0  0
   29.8779    2.3471    2.5036 C   0  0  0  0  0  0  0  0  0  0  0  0
   31.1163    2.0224    1.8608 C   0  0  0  0  0  0  0  0  0  0  0  0
   30.9246    1.0162    0.9439 N   0  0  0  0  0  0  0  0  0  0  0  0
   32.3122    2.6937    2.0849 C   0  0  0  0  0  0  0  0  0  0  0  0
   32.3177    3.8574    2.9959 C   0  0  0  0  0  0  0  0  0  0  0  0
   31.4827    4.9526    2.7628 C   0  0  0  0  0  0  0  0  0  0  0  0
   31.4888    6.0504    3.6054 C   0  0  0  0  0  0  0  0  0  0  0  0
   32.3362    6.0774    4.7174 C   0  0  0  0  0  0  0  0  0  0  0  0
   32.3437    7.1254    5.6237 N   0  0  0  0  0  0  0  0  0  0  0  0
   31.8927    8.4466    5.2089 C   0  0  0  0  0  0  0  0  0  0  0  0
   33.1648    4.9752    4.9644 C   0  0  0  0  0  0  0  0  0  0  0  0
   33.1599    3.8882    4.1118 C   0  0  0  0  0  0  0  0  0  0  0  0
   33.5062    2.3167    1.4733 C   0  0  0  0  0  0  0  0  0  0  0  0
   34.7441    3.0273    1.6135 C   0  0  0  0  0  0  0  0  0  0  0  0
   35.6918    2.2938    0.9814 C   0  0  0  0  0  0  0  0  0  0  0  0
   35.0298    1.1435    0.4458 C   0  0  0  0  0  0  0  0  0  0  0  0
   33.6869    1.1913    0.7171 N   0  0  0  0  0  0  0  0  0  0  0  0
   36.7661    0.1216   -0.2044 H   0  0  0  0  0  0  0  0  0  0  0  0
   36.8017   -2.2637   -1.2600 H   0  0  0  0  0  0  0  0  0  0  0  0
   34.9140   -3.8729   -2.3185 H   0  0  0  0  0  0  0  0  0  0  0  0
   33.6637   -3.0455   -4.4282 H   0  0  0  0  0  0  0  0  0  0  0  0
   33.6503   -4.9953   -5.9300 H   0  0  0  0  0  0  0  0  0  0  0  0
   33.0809   -7.1971   -6.2307 H   0  0  0  0  0  0  0  0  0  0  0  0
   30.8261   -8.5399   -4.9300 H   0  0  0  0  0  0  0  0  0  0  0  0
   32.4691   -8.8435   -4.3092 H   0  0  0  0  0  0  0  0  0  0  0  0
   32.0631   -9.2116   -6.0056 H   0  0  0  0  0  0  0  0  0  0  0  0
   30.9118   -6.9947   -3.2876 H   0  0  0  0  0  0  0  0  0  0  0  0
   30.9434   -5.0554   -1.7985 H   0  0  0  0  0  0  0  0  0  0  0  0
   29.7165   -3.2208   -3.1821 H   0  0  0  0  0  0  0  0  0  0  0  0
   27.8268   -1.7309   -1.9689 H   0  0  0  0  0  0  0  0  0  0  0  0
   27.8645    1.5515    2.1287 H   0  0  0  0  0  0  0  0  0  0  0  0
   29.7630    3.0640    3.3002 H   0  0  0  0  0  0  0  0  0  0  0  0
   30.8358    4.9531    1.8922 H   0  0  0  0  0  0  0  0  0  0  0  0
   30.8320    6.8846    3.3920 H   0  0  0  0  0  0  0  0  0  0  0  0
   33.1888    7.1600    6.1805 H   0  0  0  0  0  0  0  0  0  0  0  0
   32.4046    8.7791    4.2989 H   0  0  0  0  0  0  0  0  0  0  0  0
   32.1061    9.1447    6.0181 H   0  0  0  0  0  0  0  0  0  0  0  0
   30.8166    8.4358    5.0316 H   0  0  0  0  0  0  0  0  0  0  0  0
   33.8131    4.9802    5.8343 H   0  0  0  0  0  0  0  0  0  0  0  0
   33.7991    3.0377    4.3221 H   0  0  0  0  0  0  0  0  0  0  0  0
   34.8610    3.9691    2.1247 H   0  0  0  0  0  0  0  0  0  0  0  0
   36.7458    2.4981    0.8774 H   0  0  0  0  0  0  0  0  0  0  0  0
   24.9378   -0.0784    0.0918 C   0  0  0  0  0  0  0  0  0  0  0  0
   23.7074   -0.0762    0.0958 C   0  0  0  0  0  0  0  0  0  0  0  0
   22.3661   -0.0669    0.0948 C   0  0  0  0  0  0  0  0  0  0  0  0
   21.1406   -0.0550    0.0883 C   0  0  0  0  0  0  0  0  0  0  0  0
   26.2790   -0.0770    0.0819 C   0  0  0  0  0  0  0  0  0  0  0  0
   27.5046   -0.0712    0.0691 C   0  0  0  0  0  0  0  0  0  0  0  0
  2  3  4  0  0  0  0
  3  4  4  0  0  0  0
  4  5  2  0  0  0  0
  5  6  4  0  0  0  0
  1  7  1  0  0  0  0
  3  7  4  0  0  0  0
  6  7  4  0  0  0  0
  6  8  4  0  0  0  0
  8  9  1  0  0  0  0
  9 10  4  0  0  0  0
 10 11  4  0  0  0  0
 11 12  4  0  0  0  0
 12 13  1  0  0  0  0
 13 14  1  0  0  0  0
 12 15  4  0  0  0  0
  9 16  4  0  0  0  0
 15 16  4  0  0  0  0
  8 17  4  0  0  0  0
 17 18  4  0  0  0  0
 18 19  2  0  0  0  0
  1 20  1  0  0  0  0
 17 20  4  0  0  0  0
 19 21  4  0  0  0  0
 20 21  4  0  0  0  0
 21 22  4  0  0  0  0
 22 23  4  0  0  0  0
 23 24  4  0  0  0  0
 24 25  2  0  0  0  0
 25 26  4  0  0  0  0
  1 27  1  0  0  0  0
 23 27  4  0  0  0  0
 26 27  4  0  0  0  0
 26 28  4  0  0  0  0
 28 29  1  0  0  0  0
 29 30  4  0  0  0  0
 30 31  4  0  0  0  0
 31 32  4  0  0  0  0
 32 33  1  0  0  0  0
 33 34  1  0  0  0  0
 32 35  4  0  0  0  0
 29 36  4  0  0  0  0
 35 36  4  0  0  0  0
 28 37  4  0  0  0  0
 37 38  4  0  0  0  0
 38 39  2  0  0  0  0
  2 40  4  0  0  0  0
 39 40  4  0  0  0  0
  1 41  1  0  0  0  0
 37 41  4  0  0  0  0
 40 41  4  0  0  0  0
  2 42  1  0  0  0  0
  4 43  1  0  0  0  0
  5 44  1  0  0  0  0
 10 45  1  0  0  0  0
 11 46  1  0  0  0  0
 13 47  1  0  0  0  0
 14 48  1  0  0  0  0
 14 49  1  0  0  0  0
 14 50  1  0  0  0  0
 15 51  1  0  0  0  0
 16 52  1  0  0  0  0
 18 53  1  0  0  0  0
 19 54  1  0  0  0  0
 24 55  1  0  0  0  0
 25 56  1  0  0  0  0
 30 57  1  0  0  0  0
 31 58  1  0  0  0  0
 33 59  1  0  0  0  0
 34 60  1  0  0  0  0
 34 61  1  0  0  0  0
 34 62  1  0  0  0  0
 35 63  1  0  0  0  0
 36 64  1  0  0  0  0
 38 65  1  0  0  0  0
 39 66  1  0  0  0  0
 68 69  4  0  0  0  0
 69 70  4  0  0  0  0
 70 71  2  0  0  0  0
 71 72  4  0  0  0  0
 67 73  1  0  0  0  0
 69 73  4  0  0  0  0
 72 73  4  0  0  0  0
 72 74  4  0  0  0  0
 74 75  1  0  0  0  0
 75 76  4  0  0  0  0
 76 77  4  0  0  0  0
 77 78  4  0  0  0  0
 78 79  1  0  0  0  0
 79 80  1  0  0  0  0
 78 81  4  0  0  0  0
 75 82  4  0  0  0  0
 81 82  4  0  0  0  0
 74 83  4  0  0  0  0
 83 84  4  0  0  0  0
 84 85  2  0  0  0  0
 67 86  1  0  0  0  0
 83 86  4  0  0  0  0
 85 87  4  0  0  0  0
 86 87  4  0  0  0  0
 87 88  4  0  0  0  0
 88 89  4  0  0  0  0
 89 90  4  0  0  0  0
 90 91  2  0  0  0  0
 91 92  4  0  0  0  0
 67 93  1  0  0  0  0
 89 93  4  0  0  0  0
 92 93  4  0  0  0  0
 92 94  4  0  0  0  0
 94 95  1  0  0  0  0
 95 96  4  0  0  0  0
 96 97  4  0  0  0  0
 97 98  4  0  0  0  0
 98 99  1  0  0  0  0
 99100  1  0  0  0  0
 98101  4  0  0  0  0
 95102  4  0  0  0  0
101102  4  0  0  0  0
 94103  4  0  0  0  0
103104  4  0  0  0  0
104105  2  0  0  0  0
 68106  4  0  0  0  0
105106  4  0  0  0  0
 67107  1  0  0  0  0
103107  4  0  0  0  0
106107  4  0  0  0  0
 68108  1  0  0  0  0
 70109  1  0  0  0  0
 71110  1  0  0  0  0
 76111  1  0  0  0  0
 77112  1  0  0  0  0
 79113  1  0  0  0  0
 80114  1  0  0  0  0
 80115  1  0  0  0  0
 80116  1  0  0  0  0
 81117  1  0  0  0  0
 82118  1  0  0  0  0
 84119  1  0  0  0  0
 85120  1  0  0  0  0
 90121  1  0  0  0  0
 91122  1  0  0  0  0
 96123  1  0  0  0  0
 97124  1  0  0  0  0
 99125  1  0  0  0  0
100126  1  0  0  0  0
100127  1  0  0  0  0
100128  1  0  0  0  0
101129  1  0  0  0  0
102130  1  0  0  0  0
104131  1  0  0  0  0
105132  1  0  0  0  0
133134  3  0  0  0  0
134135  4  0  0  0  0
 22136  4  0  0  0  0
135136  3  0  0  0  0
133137  4  0  0  0  0
 88138  4  0  0  0  0
137138  3  0  0  0  0
M  END
