 xtb: 6.5.1 (b24c23e)
          07302206133D

248287  0     0  0            999 V2000
   42.8764   -0.0204   -0.0917 Ni  0  0  0  0  0  0  0  0  0  0  0  0
   39.4877   -0.0767   -0.3038 C   0  0  0  0  0  0  0  0  0  0  0  0
   40.1520   -1.2840   -0.2515 C   0  0  0  0  0  0  0  0  0  0  0  0
   39.4824   -2.5485   -0.2475 C   0  0  0  0  0  0  0  0  0  0  0  0
   40.4391   -3.4929   -0.0918 C   0  0  0  0  0  0  0  0  0  0  0  0
   41.6953   -2.8053   -0.0235 C   0  0  0  0  0  0  0  0  0  0  0  0
   41.5085   -1.4489   -0.1227 N   0  0  0  0  0  0  0  0  0  0  0  0
   42.9155   -3.4434    0.1559 C   0  0  0  0  0  0  0  0  0  0  0  0
   42.9351   -4.9215    0.2890 C   0  0  0  0  0  0  0  0  0  0  0  0
   42.5409   -5.7353   -0.7728 C   0  0  0  0  0  0  0  0  0  0  0  0
   42.5622   -7.1163   -0.6513 C   0  0  0  0  0  0  0  0  0  0  0  0
   42.9753   -7.6986    0.5447 C   0  0  0  0  0  0  0  0  0  0  0  0
   43.0082   -9.0463    0.7078 O   0  0  0  0  0  0  0  0  0  0  0  0
   43.3697   -6.8959    1.6135 C   0  0  0  0  0  0  0  0  0  0  0  0
   43.3519   -5.5187    1.4806 C   0  0  0  0  0  0  0  0  0  0  0  0
   44.1223   -2.7586    0.1952 C   0  0  0  0  0  0  0  0  0  0  0  0
   45.3942   -3.4081    0.2944 C   0  0  0  0  0  0  0  0  0  0  0  0
   46.3364   -2.4390    0.2102 C   0  0  0  0  0  0  0  0  0  0  0  0
   44.2855   -1.3980    0.0594 N   0  0  0  0  0  0  0  0  0  0  0  0
   45.6391   -1.2013    0.0638 C   0  0  0  0  0  0  0  0  0  0  0  0
   46.2915    0.0272   -0.0689 C   0  0  0  0  0  0  0  0  0  0  0  0
   45.6059    1.2409   -0.1616 C   0  0  0  0  0  0  0  0  0  0  0  0
   46.2688    2.5013   -0.2689 C   0  0  0  0  0  0  0  0  0  0  0  0
   45.3017    3.4495   -0.2730 C   0  0  0  0  0  0  0  0  0  0  0  0
   44.0493    2.7640   -0.1690 C   0  0  0  0  0  0  0  0  0  0  0  0
   44.2481    1.4024   -0.1212 N   0  0  0  0  0  0  0  0  0  0  0  0
   42.8213    3.4115   -0.1420 C   0  0  0  0  0  0  0  0  0  0  0  0
   42.8019    4.8946   -0.1444 C   0  0  0  0  0  0  0  0  0  0  0  0
   43.3633    5.6122    0.9144 C   0  0  0  0  0  0  0  0  0  0  0  0
   43.3456    6.9957    0.9203 C   0  0  0  0  0  0  0  0  0  0  0  0
   42.7687    7.6843   -0.1453 C   0  0  0  0  0  0  0  0  0  0  0  0
   42.7714    9.0416   -0.1091 O   0  0  0  0  0  0  0  0  0  0  0  0
   42.2100    6.9818   -1.2104 C   0  0  0  0  0  0  0  0  0  0  0  0
   42.2260    5.5955   -1.2041 C   0  0  0  0  0  0  0  0  0  0  0  0
   41.6128    2.7271   -0.1363 C   0  0  0  0  0  0  0  0  0  0  0  0
   40.3320    3.3711   -0.1202 C   0  0  0  0  0  0  0  0  0  0  0  0
   39.3999    2.3928   -0.1959 C   0  0  0  0  0  0  0  0  0  0  0  0
   40.1106    1.1517   -0.2324 C   0  0  0  0  0  0  0  0  0  0  0  0
   41.4656    1.3627   -0.1780 N   0  0  0  0  0  0  0  0  0  0  0  0
   38.4064   -0.0945   -0.3749 H   0  0  0  0  0  0  0  0  0  0  0  0
   38.4151   -2.6750   -0.3354 H   0  0  0  0  0  0  0  0  0  0  0  0
   40.3171   -4.5614   -0.0197 H   0  0  0  0  0  0  0  0  0  0  0  0
   42.2306   -5.2831   -1.7082 H   0  0  0  0  0  0  0  0  0  0  0  0
   42.2608   -7.7451   -1.4823 H   0  0  0  0  0  0  0  0  0  0  0  0
   42.7160   -9.5053   -0.0911 H   0  0  0  0  0  0  0  0  0  0  0  0
   43.6860   -7.3625    2.5383 H   0  0  0  0  0  0  0  0  0  0  0  0
   43.6502   -4.8934    2.3146 H   0  0  0  0  0  0  0  0  0  0  0  0
   45.5374   -4.4713    0.3965 H   0  0  0  0  0  0  0  0  0  0  0  0
   47.4095   -2.5375    0.2398 H   0  0  0  0  0  0  0  0  0  0  0  0
   47.3376    2.6276   -0.3311 H   0  0  0  0  0  0  0  0  0  0  0  0
   45.4152    4.5183   -0.3525 H   0  0  0  0  0  0  0  0  0  0  0  0
   43.8033    5.0761    1.7478 H   0  0  0  0  0  0  0  0  0  0  0  0
   43.7738    7.5550    1.7429 H   0  0  0  0  0  0  0  0  0  0  0  0
   42.3479    9.4160   -0.8932 H   0  0  0  0  0  0  0  0  0  0  0  0
   41.7667    7.5219   -2.0402 H   0  0  0  0  0  0  0  0  0  0  0  0
   41.8024    5.0501   -2.0401 H   0  0  0  0  0  0  0  0  0  0  0  0
   40.1784    4.4360   -0.0550 H   0  0  0  0  0  0  0  0  0  0  0  0
   38.3253    2.4823   -0.2138 H   0  0  0  0  0  0  0  0  0  0  0  0
   90.8770   -0.0081   -0.0484 Ni  0  0  0  0  0  0  0  0  0  0  0  0
   94.2630    0.0292   -0.2840 C   0  0  0  0  0  0  0  0  0  0  0  0
   93.5910    1.2240   -0.4351 C   0  0  0  0  0  0  0  0  0  0  0  0
   94.2503    2.4740   -0.6592 C   0  0  0  0  0  0  0  0  0  0  0  0
   93.2899    3.4273   -0.6419 C   0  0  0  0  0  0  0  0  0  0  0  0
   92.0416    2.7565   -0.4248 C   0  0  0  0  0  0  0  0  0  0  0  0
   92.2360    1.4027   -0.3085 N   0  0  0  0  0  0  0  0  0  0  0  0
   90.8256    3.4134   -0.2871 C   0  0  0  0  0  0  0  0  0  0  0  0
   90.8020    4.8949   -0.3768 C   0  0  0  0  0  0  0  0  0  0  0  0
   91.1310    5.5368   -1.5703 C   0  0  0  0  0  0  0  0  0  0  0  0
   91.1053    6.9202   -1.6599 C   0  0  0  0  0  0  0  0  0  0  0  0
   90.7538    7.6783   -0.5456 C   0  0  0  0  0  0  0  0  0  0  0  0
   90.7187    9.0352   -0.5884 O   0  0  0  0  0  0  0  0  0  0  0  0
   90.4257    7.0484    0.6535 C   0  0  0  0  0  0  0  0  0  0  0  0
   90.4474    5.6669    0.7314 C   0  0  0  0  0  0  0  0  0  0  0  0
   89.6277    2.7414   -0.0873 C   0  0  0  0  0  0  0  0  0  0  0  0
   88.3576    3.3971   -0.0075 C   0  0  0  0  0  0  0  0  0  0  0  0
   87.4184    2.4242    0.0679 C   0  0  0  0  0  0  0  0  0  0  0  0
   89.4667    1.3741   -0.0449 N   0  0  0  0  0  0  0  0  0  0  0  0
   88.1156    1.1782    0.0350 C   0  0  0  0  0  0  0  0  0  0  0  0
   87.4642   -0.0585    0.0326 C   0  0  0  0  0  0  0  0  0  0  0  0
   88.1530   -1.2744    0.0427 C   0  0  0  0  0  0  0  0  0  0  0  0
   87.4951   -2.5417    0.0607 C   0  0  0  0  0  0  0  0  0  0  0  0
   88.4652   -3.4815    0.1632 C   0  0  0  0  0  0  0  0  0  0  0  0
   89.7144   -2.7840    0.2074 C   0  0  0  0  0  0  0  0  0  0  0  0
   89.5111   -1.4261    0.1042 N   0  0  0  0  0  0  0  0  0  0  0  0
   90.9434   -3.4163    0.3411 C   0  0  0  0  0  0  0  0  0  0  0  0
   90.9683   -4.8875    0.5250 C   0  0  0  0  0  0  0  0  0  0  0  0
   90.3755   -5.4719    1.6468 C   0  0  0  0  0  0  0  0  0  0  0  0
   90.3989   -6.8435    1.8266 C   0  0  0  0  0  0  0  0  0  0  0  0
   91.0130   -7.6552    0.8744 C   0  0  0  0  0  0  0  0  0  0  0  0
   91.0148   -8.9973    1.0801 O   0  0  0  0  0  0  0  0  0  0  0  0
   91.6032   -7.0868   -0.2520 C   0  0  0  0  0  0  0  0  0  0  0  0
   91.5816   -5.7108   -0.4196 C   0  0  0  0  0  0  0  0  0  0  0  0
   92.1491   -2.7284    0.2890 C   0  0  0  0  0  0  0  0  0  0  0  0
   93.4319   -3.3544    0.4231 C   0  0  0  0  0  0  0  0  0  0  0  0
   94.3614   -2.3913    0.2217 C   0  0  0  0  0  0  0  0  0  0  0  0
   93.6466   -1.1743   -0.0120 C   0  0  0  0  0  0  0  0  0  0  0  0
   92.2919   -1.3831    0.0560 N   0  0  0  0  0  0  0  0  0  0  0  0
   95.3441    0.0410   -0.3600 H   0  0  0  0  0  0  0  0  0  0  0  0
   95.3144    2.5883   -0.7923 H   0  0  0  0  0  0  0  0  0  0  0  0
   93.4050    4.4933   -0.7530 H   0  0  0  0  0  0  0  0  0  0  0  0
   91.3935    4.9468   -2.4414 H   0  0  0  0  0  0  0  0  0  0  0  0
   91.3556    7.4146   -2.5925 H   0  0  0  0  0  0  0  0  0  0  0  0
   90.9611    9.3665   -1.4635 H   0  0  0  0  0  0  0  0  0  0  0  0
   90.1573    7.6508    1.5125 H   0  0  0  0  0  0  0  0  0  0  0  0
   90.2011    5.1765    1.6665 H   0  0  0  0  0  0  0  0  0  0  0  0
   88.2124    4.4648   -0.0267 H   0  0  0  0  0  0  0  0  0  0  0  0
   86.3471    2.5250    0.1332 H   0  0  0  0  0  0  0  0  0  0  0  0
   86.4271   -2.6779    0.0050 H   0  0  0  0  0  0  0  0  0  0  0  0
   88.3557   -4.5532    0.1956 H   0  0  0  0  0  0  0  0  0  0  0  0
   89.9066   -4.8395    2.3924 H   0  0  0  0  0  0  0  0  0  0  0  0
   89.9467   -7.2991    2.6988 H   0  0  0  0  0  0  0  0  0  0  0  0
   91.4644   -9.4633    0.3623 H   0  0  0  0  0  0  0  0  0  0  0  0
   92.0754   -7.7227   -0.9933 H   0  0  0  0  0  0  0  0  0  0  0  0
   92.0302   -5.2706   -1.3032 H   0  0  0  0  0  0  0  0  0  0  0  0
   93.5884   -4.3974    0.6459 H   0  0  0  0  0  0  0  0  0  0  0  0
   95.4365   -2.4757    0.2350 H   0  0  0  0  0  0  0  0  0  0  0  0
   51.4941    0.0593   -0.0967 C   0  0  0  0  0  0  0  0  0  0  0  0
   50.2663    0.0586   -0.0977 C   0  0  0  0  0  0  0  0  0  0  0  0
   48.9206    0.0514   -0.0937 C   0  0  0  0  0  0  0  0  0  0  0  0
   47.6974    0.0433   -0.0850 C   0  0  0  0  0  0  0  0  0  0  0  0
   52.8396    0.0578   -0.0944 C   0  0  0  0  0  0  0  0  0  0  0  0
   54.0630    0.0543   -0.0893 C   0  0  0  0  0  0  0  0  0  0  0  0
   67.4963   -0.0465    0.0272 C   0  0  0  0  0  0  0  0  0  0  0  0
   66.2680   -0.0408    0.0167 C   0  0  0  0  0  0  0  0  0  0  0  0
   64.9234   -0.0290    0.0039 C   0  0  0  0  0  0  0  0  0  0  0  0
   63.6999   -0.0166   -0.0123 C   0  0  0  0  0  0  0  0  0  0  0  0
   68.8410   -0.0560    0.0281 C   0  0  0  0  0  0  0  0  0  0  0  0
   70.0648   -0.0583    0.0251 C   0  0  0  0  0  0  0  0  0  0  0  0
   83.4906   -0.0936    0.0245 C   0  0  0  0  0  0  0  0  0  0  0  0
   82.2626   -0.0930    0.0169 C   0  0  0  0  0  0  0  0  0  0  0  0
   80.9178   -0.0870    0.0087 C   0  0  0  0  0  0  0  0  0  0  0  0
   79.6941   -0.0790   -0.0023 C   0  0  0  0  0  0  0  0  0  0  0  0
   84.8357   -0.0876    0.0294 C   0  0  0  0  0  0  0  0  0  0  0  0
   86.0591   -0.0779    0.0336 C   0  0  0  0  0  0  0  0  0  0  0  0
   58.8821    0.0289   -0.0678 Ni  0  0  0  0  0  0  0  0  0  0  0  0
   55.4679    0.0482   -0.0840 C   0  0  0  0  0  0  0  0  0  0  0  0
   56.1430    0.9849    0.7043 C   0  0  0  0  0  0  0  0  0  0  0  0
   55.4782    1.9257    1.5474 C   0  0  0  0  0  0  0  0  0  0  0  0
   56.4363    2.7425    2.0496 C   0  0  0  0  0  0  0  0  0  0  0  0
   57.6829    2.3034    1.5013 C   0  0  0  0  0  0  0  0  0  0  0  0
   57.4950    1.1925    0.7104 N   0  0  0  0  0  0  0  0  0  0  0  0
   58.8905    2.9632    1.6919 C   0  0  0  0  0  0  0  0  0  0  0  0
   58.8947    4.2340    2.4539 C   0  0  0  0  0  0  0  0  0  0  0  0
   59.6433    4.3561    3.6274 C   0  0  0  0  0  0  0  0  0  0  0  0
   59.6481    5.5388    4.3448 C   0  0  0  0  0  0  0  0  0  0  0  0
   58.9049    6.6266    3.8895 C   0  0  0  0  0  0  0  0  0  0  0  0
   58.9360    7.7735    4.6152 O   0  0  0  0  0  0  0  0  0  0  0  0
   58.1568    6.5208    2.7192 C   0  0  0  0  0  0  0  0  0  0  0  0
   58.1513    5.3289    2.0117 C   0  0  0  0  0  0  0  0  0  0  0  0
   60.0951    2.4772    1.1996 C   0  0  0  0  0  0  0  0  0  0  0  0
   61.3461    3.1593    1.3301 C   0  0  0  0  0  0  0  0  0  0  0  0
   62.2999    2.3227    0.8529 C   0  0  0  0  0  0  0  0  0  0  0  0
   60.2761    1.2535    0.5952 N   0  0  0  0  0  0  0  0  0  0  0  0
   61.6277    1.1398    0.4208 C   0  0  0  0  0  0  0  0  0  0  0  0
   62.2960   -0.0026   -0.0309 C   0  0  0  0  0  0  0  0  0  0  0  0
   61.6170   -1.1296   -0.5043 C   0  0  0  0  0  0  0  0  0  0  0  0
   62.2772   -2.3199   -0.9349 C   0  0  0  0  0  0  0  0  0  0  0  0
   61.3197   -3.1328   -1.4443 C   0  0  0  0  0  0  0  0  0  0  0  0
   60.0782   -2.4305   -1.3310 C   0  0  0  0  0  0  0  0  0  0  0  0
   60.2678   -1.2166   -0.7101 N   0  0  0  0  0  0  0  0  0  0  0  0
   58.8743   -2.8946   -1.8456 C   0  0  0  0  0  0  0  0  0  0  0  0
   58.8726   -4.1593   -2.6181 C   0  0  0  0  0  0  0  0  0  0  0  0
   58.1176   -5.2514   -2.1892 C   0  0  0  0  0  0  0  0  0  0  0  0
   58.1186   -6.4380   -2.9059 C   0  0  0  0  0  0  0  0  0  0  0  0
   58.8735   -6.5405   -4.0721 C   0  0  0  0  0  0  0  0  0  0  0  0
   58.9003   -7.6821   -4.8064 O   0  0  0  0  0  0  0  0  0  0  0  0
   59.6282   -5.4552   -4.5141 C   0  0  0  0  0  0  0  0  0  0  0  0
   59.6283   -4.2781   -3.7873 C   0  0  0  0  0  0  0  0  0  0  0  0
   57.6725   -2.2224   -1.6625 C   0  0  0  0  0  0  0  0  0  0  0  0
   56.4259   -2.6460   -2.2230 C   0  0  0  0  0  0  0  0  0  0  0  0
   55.4719   -1.8238   -1.7221 C   0  0  0  0  0  0  0  0  0  0  0  0
   56.1395   -0.8939   -0.8690 C   0  0  0  0  0  0  0  0  0  0  0  0
   57.4893   -1.1147   -0.8659 N   0  0  0  0  0  0  0  0  0  0  0  0
   54.4146    1.9470    1.7221 H   0  0  0  0  0  0  0  0  0  0  0  0
   56.3190    3.5668    2.7339 H   0  0  0  0  0  0  0  0  0  0  0  0
   60.2117    3.5061    3.9882 H   0  0  0  0  0  0  0  0  0  0  0  0
   60.2212    5.6339    5.2588 H   0  0  0  0  0  0  0  0  0  0  0  0
   58.3857    8.4598    4.2144 H   0  0  0  0  0  0  0  0  0  0  0  0
   57.5835    7.3713    2.3662 H   0  0  0  0  0  0  0  0  0  0  0  0
   57.5784    5.2518    1.0943 H   0  0  0  0  0  0  0  0  0  0  0  0
   61.4694    4.1516    1.7321 H   0  0  0  0  0  0  0  0  0  0  0  0
   63.3649    2.4787    0.7928 H   0  0  0  0  0  0  0  0  0  0  0  0
   63.3378   -2.4957   -0.8538 H   0  0  0  0  0  0  0  0  0  0  0  0
   61.4340   -4.1217   -1.8571 H   0  0  0  0  0  0  0  0  0  0  0  0
   57.5392   -5.1767   -1.2751 H   0  0  0  0  0  0  0  0  0  0  0  0
   57.5366   -7.2867   -2.5631 H   0  0  0  0  0  0  0  0  0  0  0  0
   58.3425   -8.3671   -4.4140 H   0  0  0  0  0  0  0  0  0  0  0  0
   60.2066   -5.5477   -5.4250 H   0  0  0  0  0  0  0  0  0  0  0  0
   60.2065   -3.4302   -4.1369 H   0  0  0  0  0  0  0  0  0  0  0  0
   56.3059   -3.4651   -2.9131 H   0  0  0  0  0  0  0  0  0  0  0  0
   54.4094   -1.8341   -1.9044 H   0  0  0  0  0  0  0  0  0  0  0  0
   74.8793   -0.0454   -0.0314 Ni  0  0  0  0  0  0  0  0  0  0  0  0
   71.4685   -0.0563    0.0109 C   0  0  0  0  0  0  0  0  0  0  0  0
   72.1504    0.8766    0.7990 C   0  0  0  0  0  0  0  0  0  0  0  0
   71.4961    1.8042    1.6646 C   0  0  0  0  0  0  0  0  0  0  0  0
   72.4548    2.6391    2.1356 C   0  0  0  0  0  0  0  0  0  0  0  0
   73.6911    2.2228    1.5478 C   0  0  0  0  0  0  0  0  0  0  0  0
   73.4982    1.1059    0.7667 N   0  0  0  0  0  0  0  0  0  0  0  0
   74.8913    2.9090    1.6885 C   0  0  0  0  0  0  0  0  0  0  0  0
   74.8930    4.1941    2.4251 C   0  0  0  0  0  0  0  0  0  0  0  0
   75.6856    4.3617    3.5635 C   0  0  0  0  0  0  0  0  0  0  0  0
   75.6867    5.5593    4.2560 C   0  0  0  0  0  0  0  0  0  0  0  0
   74.8949    6.6164    3.8106 C   0  0  0  0  0  0  0  0  0  0  0  0
   74.9236    7.7788    4.5110 O   0  0  0  0  0  0  0  0  0  0  0  0
   74.1017    6.4650    2.6754 C   0  0  0  0  0  0  0  0  0  0  0  0
   74.1008    5.2586    1.9929 C   0  0  0  0  0  0  0  0  0  0  0  0
   76.0892    2.4331    1.1696 C   0  0  0  0  0  0  0  0  0  0  0  0
   77.3351    3.1316    1.2542 C   0  0  0  0  0  0  0  0  0  0  0  0
   78.2889    2.2895    0.7861 C   0  0  0  0  0  0  0  0  0  0  0  0
   76.2719    1.1956    0.5947 N   0  0  0  0  0  0  0  0  0  0  0  0
   77.6214    1.0876    0.4020 C   0  0  0  0  0  0  0  0  0  0  0  0
   78.2902   -0.0677   -0.0160 C   0  0  0  0  0  0  0  0  0  0  0  0
   77.6098   -1.2065   -0.4587 C   0  0  0  0  0  0  0  0  0  0  0  0
   78.2661   -2.4049   -0.8722 C   0  0  0  0  0  0  0  0  0  0  0  0
   77.3084   -3.2150   -1.3866 C   0  0  0  0  0  0  0  0  0  0  0  0
   76.0702   -2.5045   -1.2902 C   0  0  0  0  0  0  0  0  0  0  0  0
   76.2613   -1.2894   -0.6729 N   0  0  0  0  0  0  0  0  0  0  0  0
   74.8683   -2.9586   -1.8199 C   0  0  0  0  0  0  0  0  0  0  0  0
   74.8689   -4.2126   -2.6087 C   0  0  0  0  0  0  0  0  0  0  0  0
   74.0947   -5.3034   -2.2116 C   0  0  0  0  0  0  0  0  0  0  0  0
   74.0970   -6.4784   -2.9470 C   0  0  0  0  0  0  0  0  0  0  0  0
   74.8731   -6.5709   -4.1001 C   0  0  0  0  0  0  0  0  0  0  0  0
   74.9016   -7.7006   -4.8522 O   0  0  0  0  0  0  0  0  0  0  0  0
   75.6483   -5.4872   -4.5097 C   0  0  0  0  0  0  0  0  0  0  0  0
   75.6466   -4.3219   -3.7644 C   0  0  0  0  0  0  0  0  0  0  0  0
   73.6677   -2.2849   -1.6341 C   0  0  0  0  0  0  0  0  0  0  0  0
   72.4189   -2.6990   -2.1969 C   0  0  0  0  0  0  0  0  0  0  0  0
   71.4653   -1.8914   -1.6713 C   0  0  0  0  0  0  0  0  0  0  0  0
   72.1355   -0.9773   -0.8035 C   0  0  0  0  0  0  0  0  0  0  0  0
   73.4858   -1.1921   -0.8165 N   0  0  0  0  0  0  0  0  0  0  0  0
   70.4384    1.8065    1.8729 H   0  0  0  0  0  0  0  0  0  0  0  0
   72.3443    3.4614    2.8236 H   0  0  0  0  0  0  0  0  0  0  0  0
   76.2915    3.5354    3.9181 H   0  0  0  0  0  0  0  0  0  0  0  0
   76.2941    5.6894    5.1432 H   0  0  0  0  0  0  0  0  0  0  0  0
   74.3390    8.4416    4.1192 H   0  0  0  0  0  0  0  0  0  0  0  0
   73.4902    7.2916    2.3298 H   0  0  0  0  0  0  0  0  0  0  0  0
   73.4926    5.1463    1.1022 H   0  0  0  0  0  0  0  0  0  0  0  0
   77.4558    4.1371    1.6231 H   0  0  0  0  0  0  0  0  0  0  0  0
   79.3511    2.4538    0.7026 H   0  0  0  0  0  0  0  0  0  0  0  0
   79.3247   -2.5866   -0.7801 H   0  0  0  0  0  0  0  0  0  0  0  0
   77.4205   -4.2073   -1.7918 H   0  0  0  0  0  0  0  0  0  0  0  0
   73.5001   -5.2375   -1.3072 H   0  0  0  0  0  0  0  0  0  0  0  0
   73.4995   -7.3261   -2.6291 H   0  0  0  0  0  0  0  0  0  0  0  0
   74.3301   -8.3862   -4.4811 H   0  0  0  0  0  0  0  0  0  0  0  0
   76.2435   -5.5718   -5.4105 H   0  0  0  0  0  0  0  0  0  0  0  0
   76.2405   -3.4749   -4.0894 H   0  0  0  0  0  0  0  0  0  0  0  0
   72.2965   -3.5030   -2.9041 H   0  0  0  0  0  0  0  0  0  0  0  0
   70.4016   -1.9019   -1.8464 H   0  0  0  0  0  0  0  0  0  0  0  0
  2  3  4  0  0  0  0
  3  4  4  0  0  0  0
  4  5  2  0  0  0  0
  5  6  4  0  0  0  0
  1  7  1  0  0  0  0
  3  7  4  0  0  0  0
  6  7  4  0  0  0  0
  6  8  4  0  0  0  0
  8  9  1  0  0  0  0
  9 10  4  0  0  0  0
 10 11  4  0  0  0  0
 11 12  4  0  0  0  0
 12 13  1  0  0  0  0
 12 14  4  0  0  0  0
  9 15  4  0  0  0  0
 14 15  4  0  0  0  0
  8 16  4  0  0  0  0
 16 17  4  0  0  0  0
 17 18  2  0  0  0  0
  1 19  1  0  0  0  0
 16 19  4  0  0  0  0
 18 20  4  0  0  0  0
 19 20  4  0  0  0  0
 20 21  4  0  0  0  0
 21 22  4  0  0  0  0
 22 23  4  0  0  0  0
 23 24  2  0  0  0  0
 24 25  4  0  0  0  0
  1 26  1  0  0  0  0
 22 26  4  0  0  0  0
 25 26  4  0  0  0  0
 25 27  4  0  0  0  0
 27 28  1  0  0  0  0
 28 29  4  0  0  0  0
 29 30  4  0  0  0  0
 30 31  4  0  0  0  0
 31 32  1  0  0  0  0
 31 33  4  0  0  0  0
 28 34  4  0  0  0  0
 33 34  4  0  0  0  0
 27 35  4  0  0  0  0
 35 36  4  0  0  0  0
 36 37  2  0  0  0  0
  2 38  4  0  0  0  0
 37 38  4  0  0  0  0
  1 39  1  0  0  0  0
 35 39  4  0  0  0  0
 38 39  4  0  0  0  0
  2 40  1  0  0  0  0
  4 41  1  0  0  0  0
  5 42  1  0  0  0  0
 10 43  1  0  0  0  0
 11 44  1  0  0  0  0
 13 45  1  0  0  0  0
 14 46  1  0  0  0  0
 15 47  1  0  0  0  0
 17 48  1  0  0  0  0
 18 49  1  0  0  0  0
 23 50  1  0  0  0  0
 24 51  1  0  0  0  0
 29 52  1  0  0  0  0
 30 53  1  0  0  0  0
 32 54  1  0  0  0  0
 33 55  1  0  0  0  0
 34 56  1  0  0  0  0
 36 57  1  0  0  0  0
 37 58  1  0  0  0  0
 60 61  4  0  0  0  0
 61 62  4  0  0  0  0
 62 63  2  0  0  0  0
 63 64  4  0  0  0  0
 59 65  1  0  0  0  0
 61 65  4  0  0  0  0
 64 65  4  0  0  0  0
 64 66  4  0  0  0  0
 66 67  1  0  0  0  0
 67 68  4  0  0  0  0
 68 69  4  0  0  0  0
 69 70  4  0  0  0  0
 70 71  1  0  0  0  0
 70 72  4  0  0  0  0
 67 73  4  0  0  0  0
 72 73  4  0  0  0  0
 66 74  4  0  0  0  0
 74 75  4  0  0  0  0
 75 76  2  0  0  0  0
 59 77  1  0  0  0  0
 74 77  4  0  0  0  0
 76 78  4  0  0  0  0
 77 78  4  0  0  0  0
 78 79  4  0  0  0  0
 79 80  4  0  0  0  0
 80 81  4  0  0  0  0
 81 82  2  0  0  0  0
 82 83  4  0  0  0  0
 59 84  1  0  0  0  0
 80 84  4  0  0  0  0
 83 84  4  0  0  0  0
 83 85  4  0  0  0  0
 85 86  1  0  0  0  0
 86 87  4  0  0  0  0
 87 88  4  0  0  0  0
 88 89  4  0  0  0  0
 89 90  1  0  0  0  0
 89 91  4  0  0  0  0
 86 92  4  0  0  0  0
 91 92  4  0  0  0  0
 85 93  4  0  0  0  0
 93 94  4  0  0  0  0
 94 95  2  0  0  0  0
 60 96  4  0  0  0  0
 95 96  4  0  0  0  0
 59 97  1  0  0  0  0
 93 97  4  0  0  0  0
 96 97  4  0  0  0  0
 60 98  1  0  0  0  0
 62 99  1  0  0  0  0
 63100  1  0  0  0  0
 68101  1  0  0  0  0
 69102  1  0  0  0  0
 71103  1  0  0  0  0
 72104  1  0  0  0  0
 73105  1  0  0  0  0
 75106  1  0  0  0  0
 76107  1  0  0  0  0
 81108  1  0  0  0  0
 82109  1  0  0  0  0
 87110  1  0  0  0  0
 88111  1  0  0  0  0
 90112  1  0  0  0  0
 91113  1  0  0  0  0
 92114  1  0  0  0  0
 94115  1  0  0  0  0
 95116  1  0  0  0  0
117118  3  0  0  0  0
118119  4  0  0  0  0
 21120  4  0  0  0  0
119120  3  0  0  0  0
117121  4  0  0  0  0
121122  3  0  0  0  0
123124  3  0  0  0  0
124125  4  0  0  0  0
125126  3  0  0  0  0
123127  4  0  0  0  0
127128  3  0  0  0  0
129130  3  0  0  0  0
130131  4  0  0  0  0
131132  3  0  0  0  0
129133  4  0  0  0  0
 79134  4  0  0  0  0
133134  3  0  0  0  0
122136  4  0  0  0  0
136137  4  0  0  0  0
137138  4  0  0  0  0
138139  2  0  0  0  0
139140  4  0  0  0  0
135141  1  0  0  0  0
137141  4  0  0  0  0
140141  4  0  0  0  0
140142  4  0  0  0  0
142143  1  0  0  0  0
143144  4  0  0  0  0
144145  4  0  0  0  0
145146  4  0  0  0  0
146147  1  0  0  0  0
146148  4  0  0  0  0
143149  4  0  0  0  0
148149  4  0  0  0  0
142150  4  0  0  0  0
150151  4  0  0  0  0
151152  2  0  0  0  0
135153  1  0  0  0  0
150153  4  0  0  0  0
152154  4  0  0  0  0
153154  4  0  0  0  0
126155  4  0  0  0  0
154155  4  0  0  0  0
155156  4  0  0  0  0
156157  4  0  0  0  0
157158  2  0  0  0  0
158159  4  0  0  0  0
135160  1  0  0  0  0
156160  4  0  0  0  0
159160  4  0  0  0  0
159161  4  0  0  0  0
161162  1  0  0  0  0
162163  4  0  0  0  0
163164  4  0  0  0  0
164165  4  0  0  0  0
165166  1  0  0  0  0
165167  4  0  0  0  0
162168  4  0  0  0  0
167168  4  0  0  0  0
161169  4  0  0  0  0
169170  4  0  0  0  0
170171  2  0  0  0  0
136172  4  0  0  0  0
171172  4  0  0  0  0
135173  1  0  0  0  0
169173  4  0  0  0  0
172173  4  0  0  0  0
138174  1  0  0  0  0
139175  1  0  0  0  0
144176  1  0  0  0  0
145177  1  0  0  0  0
147178  1  0  0  0  0
148179  1  0  0  0  0
149180  1  0  0  0  0
151181  1  0  0  0  0
152182  1  0  0  0  0
157183  1  0  0  0  0
158184  1  0  0  0  0
163185  1  0  0  0  0
164186  1  0  0  0  0
166187  1  0  0  0  0
167188  1  0  0  0  0
168189  1  0  0  0  0
170190  1  0  0  0  0
171191  1  0  0  0  0
128193  4  0  0  0  0
193194  4  0  0  0  0
194195  4  0  0  0  0
195196  2  0  0  0  0
196197  4  0  0  0  0
192198  1  0  0  0  0
194198  4  0  0  0  0
197198  4  0  0  0  0
197199  4  0  0  0  0
199200  1  0  0  0  0
200201  4  0  0  0  0
201202  4  0  0  0  0
202203  4  0  0  0  0
203204  1  0  0  0  0
203205  4  0  0  0  0
200206  4  0  0  0  0
205206  4  0  0  0  0
199207  4  0  0  0  0
207208  4  0  0  0  0
208209  2  0  0  0  0
192210  1  0  0  0  0
207210  4  0  0  0  0
209211  4  0  0  0  0
210211  4  0  0  0  0
132212  4  0  0  0  0
211212  4  0  0  0  0
212213  4  0  0  0  0
213214  4  0  0  0  0
214215  2  0  0  0  0
215216  4  0  0  0  0
192217  1  0  0  0  0
213217  4  0  0  0  0
216217  4  0  0  0  0
216218  4  0  0  0  0
218219  1  0  0  0  0
219220  4  0  0  0  0
220221  4  0  0  0  0
221222  4  0  0  0  0
222223  1  0  0  0  0
222224  4  0  0  0  0
219225  4  0  0  0  0
224225  4  0  0  0  0
218226  4  0  0  0  0
226227  4  0  0  0  0
227228  2  0  0  0  0
193229  4  0  0  0  0
228229  4  0  0  0  0
192230  1  0  0  0  0
226230  4  0  0  0  0
229230  4  0  0  0  0
195231  1  0  0  0  0
196232  1  0  0  0  0
201233  1  0  0  0  0
202234  1  0  0  0  0
204235  1  0  0  0  0
205236  1  0  0  0  0
206237  1  0  0  0  0
208238  1  0  0  0  0
209239  1  0  0  0  0
214240  1  0  0  0  0
215241  1  0  0  0  0
220242  1  0  0  0  0
221243  1  0  0  0  0
223244  1  0  0  0  0
224245  1  0  0  0  0
225246  1  0  0  0  0
227247  1  0  0  0  0
228248  1  0  0  0  0
M  END
