 xtb: 6.5.1 (b24c23e)
          07302216253D

120139  0     0  0            999 V2000
   16.8753    0.0313   -0.0009 Zn  0  0  0  0  0  0  0  0  0  0  0  0
   13.4693    0.0465    0.1441 C   0  0  0  0  0  0  0  0  0  0  0  0
   14.1019    1.2684    0.3381 C   0  0  0  0  0  0  0  0  0  0  0  0
   13.4313    2.5184    0.5631 C   0  0  0  0  0  0  0  0  0  0  0  0
   14.3925    3.4648    0.7047 C   0  0  0  0  0  0  0  0  0  0  0  0
   15.6637    2.8018    0.5777 C   0  0  0  0  0  0  0  0  0  0  0  0
   15.4518    1.4744    0.3470 N   0  0  0  0  0  0  0  0  0  0  0  0
   16.9165    3.4237    0.6499 C   0  0  0  0  0  0  0  0  0  0  0  0
   16.9340    4.8773    0.9441 C   0  0  0  0  0  0  0  0  0  0  0  0
   16.4115    5.3607    2.1462 C   0  0  0  0  0  0  0  0  0  0  0  0
   16.4310    6.7142    2.4305 C   0  0  0  0  0  0  0  0  0  0  0  0
   16.9719    7.6161    1.5092 C   0  0  0  0  0  0  0  0  0  0  0  0
   16.9913    9.0096    1.7984 C   0  0  0  0  0  0  0  0  0  0  0  0
   17.0058   10.1362    2.0327 N   0  0  0  0  0  0  0  0  0  0  0  0
   17.4928    7.1385    0.3029 C   0  0  0  0  0  0  0  0  0  0  0  0
   17.4746    5.7828    0.0280 C   0  0  0  0  0  0  0  0  0  0  0  0
   18.1533    2.7919    0.4766 C   0  0  0  0  0  0  0  0  0  0  0  0
   19.4359    3.4280    0.6018 C   0  0  0  0  0  0  0  0  0  0  0  0
   20.3779    2.4760    0.3806 C   0  0  0  0  0  0  0  0  0  0  0  0
   18.3411    1.4653    0.1954 N   0  0  0  0  0  0  0  0  0  0  0  0
   19.6821    1.2483    0.1287 C   0  0  0  0  0  0  0  0  0  0  0  0
   20.3083    0.0136   -0.1334 C   0  0  0  0  0  0  0  0  0  0  0  0
   19.6515   -1.2133   -0.3533 C   0  0  0  0  0  0  0  0  0  0  0  0
   20.3130   -2.4474   -0.6602 C   0  0  0  0  0  0  0  0  0  0  0  0
   19.3469   -3.3892   -0.8095 C   0  0  0  0  0  0  0  0  0  0  0  0
   18.0846   -2.7407   -0.5830 C   0  0  0  0  0  0  0  0  0  0  0  0
   18.3070   -1.4164   -0.3172 N   0  0  0  0  0  0  0  0  0  0  0  0
   16.8317   -3.3605   -0.6532 C   0  0  0  0  0  0  0  0  0  0  0  0
   16.8099   -4.8147   -0.9445 C   0  0  0  0  0  0  0  0  0  0  0  0
   16.1832   -5.2946   -2.0971 C   0  0  0  0  0  0  0  0  0  0  0  0
   16.1615   -6.6490   -2.3769 C   0  0  0  0  0  0  0  0  0  0  0  0
   16.7656   -7.5554   -1.5003 C   0  0  0  0  0  0  0  0  0  0  0  0
   16.7417   -8.9501   -1.7833 C   0  0  0  0  0  0  0  0  0  0  0  0
   16.7215  -10.0778   -2.0126 N   0  0  0  0  0  0  0  0  0  0  0  0
   17.3923   -7.0811   -0.3440 C   0  0  0  0  0  0  0  0  0  0  0  0
   17.4144   -5.7246   -0.0737 C   0  0  0  0  0  0  0  0  0  0  0  0
   15.5951   -2.7272   -0.4760 C   0  0  0  0  0  0  0  0  0  0  0  0
   14.3118   -3.3786   -0.4952 C   0  0  0  0  0  0  0  0  0  0  0  0
   13.3746   -2.4241   -0.2716 C   0  0  0  0  0  0  0  0  0  0  0  0
   14.0730   -1.1804   -0.1036 C   0  0  0  0  0  0  0  0  0  0  0  0
   15.4154   -1.3982   -0.2271 N   0  0  0  0  0  0  0  0  0  0  0  0
   12.3847    0.0508    0.1907 H   0  0  0  0  0  0  0  0  0  0  0  0
   12.3606    2.6452    0.5977 H   0  0  0  0  0  0  0  0  0  0  0  0
   14.2572    4.5220    0.8679 H   0  0  0  0  0  0  0  0  0  0  0  0
   16.0029    4.6633    2.8689 H   0  0  0  0  0  0  0  0  0  0  0  0
   16.0297    7.0804    3.3683 H   0  0  0  0  0  0  0  0  0  0  0  0
   17.9096    7.8349   -0.4153 H   0  0  0  0  0  0  0  0  0  0  0  0
   17.8684    5.4179   -0.9139 H   0  0  0  0  0  0  0  0  0  0  0  0
   19.5949    4.4669    0.8418 H   0  0  0  0  0  0  0  0  0  0  0  0
   21.4505    2.5866    0.3934 H   0  0  0  0  0  0  0  0  0  0  0  0
   21.3802   -2.5682   -0.7570 H   0  0  0  0  0  0  0  0  0  0  0  0
   19.4759   -4.4291   -1.0632 H   0  0  0  0  0  0  0  0  0  0  0  0
   15.7243   -4.5939   -2.7856 H   0  0  0  0  0  0  0  0  0  0  0  0
   15.6782   -7.0124   -3.2763 H   0  0  0  0  0  0  0  0  0  0  0  0
   17.8588   -7.7810    0.3395 H   0  0  0  0  0  0  0  0  0  0  0  0
   17.8904   -5.3623    0.8306 H   0  0  0  0  0  0  0  0  0  0  0  0
   14.1535   -4.4343   -0.6474 H   0  0  0  0  0  0  0  0  0  0  0  0
   12.3037   -2.5412   -0.2155 H   0  0  0  0  0  0  0  0  0  0  0  0
   30.3476   -0.0306    0.0014 Zn  0  0  0  0  0  0  0  0  0  0  0  0
   33.7536   -0.0379    0.1466 C   0  0  0  0  0  0  0  0  0  0  0  0
   33.1210   -1.2485    0.4024 C   0  0  0  0  0  0  0  0  0  0  0  0
   33.7918   -2.4857    0.6886 C   0  0  0  0  0  0  0  0  0  0  0  0
   32.8306   -3.4231    0.8809 C   0  0  0  0  0  0  0  0  0  0  0  0
   31.5593   -2.7667    0.7245 C   0  0  0  0  0  0  0  0  0  0  0  0
   31.7710   -1.4531    0.4249 N   0  0  0  0  0  0  0  0  0  0  0  0
   30.3064   -3.3828    0.8349 C   0  0  0  0  0  0  0  0  0  0  0  0
   30.2896   -4.8184    1.2071 C   0  0  0  0  0  0  0  0  0  0  0  0
   30.8208   -5.2370    2.4296 C   0  0  0  0  0  0  0  0  0  0  0  0
   30.8027   -6.5733    2.7866 C   0  0  0  0  0  0  0  0  0  0  0  0
   30.2540   -7.5228    1.9194 C   0  0  0  0  0  0  0  0  0  0  0  0
   30.2345   -8.8989    2.2826 C   0  0  0  0  0  0  0  0  0  0  0  0
   30.2190  -10.0112    2.5772 N   0  0  0  0  0  0  0  0  0  0  0  0
   29.7245   -7.1102    0.6929 C   0  0  0  0  0  0  0  0  0  0  0  0
   29.7417   -5.7714    0.3451 C   0  0  0  0  0  0  0  0  0  0  0  0
   29.0693   -2.7604    0.6321 C   0  0  0  0  0  0  0  0  0  0  0  0
   27.7867   -3.3871    0.7969 C   0  0  0  0  0  0  0  0  0  0  0  0
   26.8448   -2.4485    0.5245 C   0  0  0  0  0  0  0  0  0  0  0  0
   28.8817   -1.4515    0.2771 N   0  0  0  0  0  0  0  0  0  0  0  0
   27.5406   -1.2377    0.2011 C   0  0  0  0  0  0  0  0  0  0  0  0
   26.9147   -0.0201   -0.1320 C   0  0  0  0  0  0  0  0  0  0  0  0
   27.5718    1.1919   -0.4226 C   0  0  0  0  0  0  0  0  0  0  0  0
   26.9106    2.4059   -0.8019 C   0  0  0  0  0  0  0  0  0  0  0  0
   27.8767    3.3381   -1.0025 C   0  0  0  0  0  0  0  0  0  0  0  0
   29.1386    2.7046   -0.7352 C   0  0  0  0  0  0  0  0  0  0  0  0
   28.9161    1.3974   -0.3950 N   0  0  0  0  0  0  0  0  0  0  0  0
   30.3913    3.3209   -0.8346 C   0  0  0  0  0  0  0  0  0  0  0  0
   30.4133    4.7572   -1.2041 C   0  0  0  0  0  0  0  0  0  0  0  0
   31.0481    5.1751   -2.3764 C   0  0  0  0  0  0  0  0  0  0  0  0
   31.0706    6.5126   -2.7285 C   0  0  0  0  0  0  0  0  0  0  0  0
   30.4590    7.4640   -1.9066 C   0  0  0  0  0  0  0  0  0  0  0  0
   30.4840    8.8413   -2.2648 C   0  0  0  0  0  0  0  0  0  0  0  0
   30.5056    9.9545   -2.5557 N   0  0  0  0  0  0  0  0  0  0  0  0
   29.8243    7.0519   -0.7310 C   0  0  0  0  0  0  0  0  0  0  0  0
   29.8016    5.7119   -0.3881 C   0  0  0  0  0  0  0  0  0  0  0  0
   31.6276    2.6991   -0.6188 C   0  0  0  0  0  0  0  0  0  0  0  0
   32.9107    3.3497   -0.6678 C   0  0  0  0  0  0  0  0  0  0  0  0
   33.8478    2.4086   -0.3929 C   0  0  0  0  0  0  0  0  0  0  0  0
   33.1497    1.1747   -0.1630 C   0  0  0  0  0  0  0  0  0  0  0  0
   31.8074    1.3851   -0.3004 N   0  0  0  0  0  0  0  0  0  0  0  0
   34.8382   -0.0398    0.1933 H   0  0  0  0  0  0  0  0  0  0  0  0
   34.8625   -2.6114    0.7263 H   0  0  0  0  0  0  0  0  0  0  0  0
   32.9661   -4.4709    1.0968 H   0  0  0  0  0  0  0  0  0  0  0  0
   31.2352   -4.5022    3.1107 H   0  0  0  0  0  0  0  0  0  0  0  0
   31.2111   -6.8886    3.7396 H   0  0  0  0  0  0  0  0  0  0  0  0
   29.3022   -7.8440    0.0164 H   0  0  0  0  0  0  0  0  0  0  0  0
   29.3412   -5.4574   -0.6122 H   0  0  0  0  0  0  0  0  0  0  0  0
   27.6276   -4.4105    1.0962 H   0  0  0  0  0  0  0  0  0  0  0  0
   25.7721   -2.5571    0.5465 H   0  0  0  0  0  0  0  0  0  0  0  0
   25.8436    2.5202   -0.9087 H   0  0  0  0  0  0  0  0  0  0  0  0
   27.7479    4.3614   -1.3164 H   0  0  0  0  0  0  0  0  0  0  0  0
   31.5126    4.4391   -3.0228 H   0  0  0  0  0  0  0  0  0  0  0  0
   31.5603    6.8277   -3.6425 H   0  0  0  0  0  0  0  0  0  0  0  0
   29.3521    7.7869   -0.0896 H   0  0  0  0  0  0  0  0  0  0  0  0
   29.3196    5.3982    0.5310 H   0  0  0  0  0  0  0  0  0  0  0  0
   33.0688    4.3963   -0.8735 H   0  0  0  0  0  0  0  0  0  0  0  0
   34.9185    2.5292   -0.3400 H   0  0  0  0  0  0  0  0  0  0  0  0
   22.9364   -0.0014   -0.1832 C   0  0  0  0  0  0  0  0  0  0  0  0
   21.7146    0.0045   -0.1693 C   0  0  0  0  0  0  0  0  0  0  0  0
   24.2867   -0.0086   -0.1825 C   0  0  0  0  0  0  0  0  0  0  0  0
   25.5084   -0.0123   -0.1675 C   0  0  0  0  0  0  0  0  0  0  0  0
  2  3  4  0  0  0  0
  3  4  4  0  0  0  0
  4  5  2  0  0  0  0
  5  6  4  0  0  0  0
  1  7  1  0  0  0  0
  3  7  4  0  0  0  0
  6  7  4  0  0  0  0
  6  8  4  0  0  0  0
  8  9  1  0  0  0  0
  9 10  4  0  0  0  0
 10 11  4  0  0  0  0
 11 12  4  0  0  0  0
 12 13  1  0  0  0  0
 13 14  3  0  0  0  0
 12 15  4  0  0  0  0
  9 16  4  0  0  0  0
 15 16  4  0  0  0  0
  8 17  4  0  0  0  0
 17 18  4  0  0  0  0
 18 19  2  0  0  0  0
  1 20  1  0  0  0  0
 17 20  4  0  0  0  0
 19 21  4  0  0  0  0
 20 21  4  0  0  0  0
 21 22  4  0  0  0  0
 22 23  4  0  0  0  0
 23 24  4  0  0  0  0
 24 25  2  0  0  0  0
 25 26  4  0  0  0  0
  1 27  1  0  0  0  0
 23 27  4  0  0  0  0
 26 27  4  0  0  0  0
 26 28  4  0  0  0  0
 28 29  1  0  0  0  0
 29 30  4  0  0  0  0
 30 31  4  0  0  0  0
 31 32  4  0  0  0  0
 32 33  1  0  0  0  0
 33 34  3  0  0  0  0
 32 35  4  0  0  0  0
 29 36  4  0  0  0  0
 35 36  4  0  0  0  0
 28 37  4  0  0  0  0
 37 38  4  0  0  0  0
 38 39  2  0  0  0  0
  2 40  4  0  0  0  0
 39 40  4  0  0  0  0
  1 41  1  0  0  0  0
 37 41  4  0  0  0  0
 40 41  4  0  0  0  0
  2 42  1  0  0  0  0
  4 43  1  0  0  0  0
  5 44  1  0  0  0  0
 10 45  1  0  0  0  0
 11 46  1  0  0  0  0
 15 47  1  0  0  0  0
 16 48  1  0  0  0  0
 18 49  1  0  0  0  0
 19 50  1  0  0  0  0
 24 51  1  0  0  0  0
 25 52  1  0  0  0  0
 30 53  1  0  0  0  0
 31 54  1  0  0  0  0
 35 55  1  0  0  0  0
 36 56  1  0  0  0  0
 38 57  1  0  0  0  0
 39 58  1  0  0  0  0
 60 61  4  0  0  0  0
 61 62  4  0  0  0  0
 62 63  2  0  0  0  0
 63 64  4  0  0  0  0
 59 65  1  0  0  0  0
 61 65  4  0  0  0  0
 64 65  4  0  0  0  0
 64 66  4  0  0  0  0
 66 67  1  0  0  0  0
 67 68  4  0  0  0  0
 68 69  4  0  0  0  0
 69 70  4  0  0  0  0
 70 71  1  0  0  0  0
 71 72  3  0  0  0  0
 70 73  4  0  0  0  0
 67 74  4  0  0  0  0
 73 74  4  0  0  0  0
 66 75  4  0  0  0  0
 75 76  4  0  0  0  0
 76 77  2  0  0  0  0
 59 78  1  0  0  0  0
 75 78  4  0  0  0  0
 77 79  4  0  0  0  0
 78 79  4  0  0  0  0
 79 80  4  0  0  0  0
 80 81  4  0  0  0  0
 81 82  4  0  0  0  0
 82 83  2  0  0  0  0
 83 84  4  0  0  0  0
 59 85  1  0  0  0  0
 81 85  4  0  0  0  0
 84 85  4  0  0  0  0
 84 86  4  0  0  0  0
 86 87  1  0  0  0  0
 87 88  4  0  0  0  0
 88 89  4  0  0  0  0
 89 90  4  0  0  0  0
 90 91  1  0  0  0  0
 91 92  3  0  0  0  0
 90 93  4  0  0  0  0
 87 94  4  0  0  0  0
 93 94  4  0  0  0  0
 86 95  4  0  0  0  0
 95 96  4  0  0  0  0
 96 97  2  0  0  0  0
 60 98  4  0  0  0  0
 97 98  4  0  0  0  0
 59 99  1  0  0  0  0
 95 99  4  0  0  0  0
 98 99  4  0  0  0  0
 60100  1  0  0  0  0
 62101  1  0  0  0  0
 63102  1  0  0  0  0
 68103  1  0  0  0  0
 69104  1  0  0  0  0
 73105  1  0  0  0  0
 74106  1  0  0  0  0
 76107  1  0  0  0  0
 77108  1  0  0  0  0
 82109  1  0  0  0  0
 83110  1  0  0  0  0
 88111  1  0  0  0  0
 89112  1  0  0  0  0
 93113  1  0  0  0  0
 94114  1  0  0  0  0
 96115  1  0  0  0  0
 97116  1  0  0  0  0
 22118  4  0  0  0  0
117118  3  0  0  0  0
117119  4  0  0  0  0
 80120  4  0  0  0  0
119120  3  0  0  0  0
M  END
