 xtb: 6.5.1 (b24c23e)
          07302200403D

189218  0     0  0            999 V2000
   27.2942    0.0071   -0.0307 Co  0  0  0  0  0  0  0  0  0  0  0  0
   23.9119    0.0546   -0.2023 C   0  0  0  0  0  0  0  0  0  0  0  0
   24.5242    0.7336    0.8288 C   0  0  0  0  0  0  0  0  0  0  0  0
   23.8143    1.4358    1.8540 C   0  0  0  0  0  0  0  0  0  0  0  0
   24.7449    2.0810    2.5971 C   0  0  0  0  0  0  0  0  0  0  0  0
   26.0166    1.7785    2.0148 C   0  0  0  0  0  0  0  0  0  0  0  0
   25.8791    0.9188    0.9610 N   0  0  0  0  0  0  0  0  0  0  0  0
   27.2034    2.4074    2.3890 C   0  0  0  0  0  0  0  0  0  0  0  0
   27.1708    3.3847    3.4069 C   0  0  0  0  0  0  0  0  0  0  0  0
   27.1474    4.2274    4.2794 C   0  0  0  0  0  0  0  0  0  0  0  0
   27.1266    5.2109    5.2950 C   0  0  0  0  0  0  0  0  0  0  0  0
   28.2843    5.9166    5.6429 C   0  0  0  0  0  0  0  0  0  0  0  0
   28.2123    6.8714    6.6416 C   0  0  0  0  0  0  0  0  0  0  0  0
   27.0891    7.1563    7.2957 N   0  0  0  0  0  0  0  0  0  0  0  0
   25.9845    6.4892    6.9712 C   0  0  0  0  0  0  0  0  0  0  0  0
   25.9496    5.5166    5.9878 C   0  0  0  0  0  0  0  0  0  0  0  0
   28.4194    2.1178    1.7732 C   0  0  0  0  0  0  0  0  0  0  0  0
   29.6418    2.7870    2.0886 C   0  0  0  0  0  0  0  0  0  0  0  0
   30.6213    2.1492    1.4026 C   0  0  0  0  0  0  0  0  0  0  0  0
   28.6347    1.1061    0.8733 N   0  0  0  0  0  0  0  0  0  0  0  0
   29.9905    1.0898    0.6810 C   0  0  0  0  0  0  0  0  0  0  0  0
   30.6992    0.0961    0.0037 C   0  0  0  0  0  0  0  0  0  0  0  0
   30.0561   -0.9464   -0.6667 C   0  0  0  0  0  0  0  0  0  0  0  0
   30.7513   -2.0097   -1.3199 C   0  0  0  0  0  0  0  0  0  0  0  0
   29.8160   -2.7376   -1.9777 C   0  0  0  0  0  0  0  0  0  0  0  0
   28.5577   -2.1089   -1.7268 C   0  0  0  0  0  0  0  0  0  0  0  0
   28.7080   -1.0353   -0.8866 N   0  0  0  0  0  0  0  0  0  0  0  0
   27.3776   -2.4672   -2.3750 C   0  0  0  0  0  0  0  0  0  0  0  0
   27.4065   -3.5072   -3.3289 C   0  0  0  0  0  0  0  0  0  0  0  0
   27.4243   -4.3972   -4.1532 C   0  0  0  0  0  0  0  0  0  0  0  0
   27.4411   -5.4317   -5.1170 C   0  0  0  0  0  0  0  0  0  0  0  0
   28.6143   -6.1384   -5.4054 C   0  0  0  0  0  0  0  0  0  0  0  0
   28.5757   -7.1399   -6.3593 C   0  0  0  0  0  0  0  0  0  0  0  0
   27.4710   -7.4697   -7.0236 N   0  0  0  0  0  0  0  0  0  0  0  0
   26.3515   -6.8025   -6.7551 C   0  0  0  0  0  0  0  0  0  0  0  0
   26.2834   -5.7851   -5.8200 C   0  0  0  0  0  0  0  0  0  0  0  0
   26.1690   -1.8182   -2.1237 C   0  0  0  0  0  0  0  0  0  0  0  0
   24.9487   -2.1276   -2.8041 C   0  0  0  0  0  0  0  0  0  0  0  0
   23.9742   -1.4050   -2.2025 C   0  0  0  0  0  0  0  0  0  0  0  0
   24.6039   -0.6644   -1.1518 C   0  0  0  0  0  0  0  0  0  0  0  0
   25.9603   -0.8886   -1.1442 N   0  0  0  0  0  0  0  0  0  0  0  0
   22.8298    0.0719   -0.2583 H   0  0  0  0  0  0  0  0  0  0  0  0
   22.7421    1.4286    1.9684 H   0  0  0  0  0  0  0  0  0  0  0  0
   24.6024    2.7220    3.4523 H   0  0  0  0  0  0  0  0  0  0  0  0
   29.2201    5.7162    5.1353 H   0  0  0  0  0  0  0  0  0  0  0  0
   29.0947    7.4346    6.9314 H   0  0  0  0  0  0  0  0  0  0  0  0
   25.0861    6.7467    7.5247 H   0  0  0  0  0  0  0  0  0  0  0  0
   25.0276    4.9976    5.7552 H   0  0  0  0  0  0  0  0  0  0  0  0
   29.7236    3.6284    2.7577 H   0  0  0  0  0  0  0  0  0  0  0  0
   31.6799    2.3524    1.3896 H   0  0  0  0  0  0  0  0  0  0  0  0
   31.8181   -2.1596   -1.2780 H   0  0  0  0  0  0  0  0  0  0  0  0
   29.9506   -3.6124   -2.5934 H   0  0  0  0  0  0  0  0  0  0  0  0
   29.5363   -5.9022   -4.8881 H   0  0  0  0  0  0  0  0  0  0  0  0
   29.4711   -7.7044   -6.6033 H   0  0  0  0  0  0  0  0  0  0  0  0
   25.4688   -7.0971   -7.3153 H   0  0  0  0  0  0  0  0  0  0  0  0
   25.3505   -5.2673   -5.6325 H   0  0  0  0  0  0  0  0  0  0  0  0
   24.8675   -2.8192   -3.6273 H   0  0  0  0  0  0  0  0  0  0  0  0
   22.9188   -1.3761   -2.4217 H   0  0  0  0  0  0  0  0  0  0  0  0
   64.2558   -0.0727   -0.0200 Co  0  0  0  0  0  0  0  0  0  0  0  0
   67.6383   -0.2055   -0.1475 C   0  0  0  0  0  0  0  0  0  0  0  0
   66.9332   -1.3869   -0.2186 C   0  0  0  0  0  0  0  0  0  0  0  0
   67.5485   -2.6747   -0.3269 C   0  0  0  0  0  0  0  0  0  0  0  0
   66.5501   -3.5633   -0.5450 C   0  0  0  0  0  0  0  0  0  0  0  0
   65.3313   -2.8140   -0.5674 C   0  0  0  0  0  0  0  0  0  0  0  0
   65.5670   -1.4896   -0.3266 N   0  0  0  0  0  0  0  0  0  0  0  0
   64.0964   -3.3623   -0.9126 C   0  0  0  0  0  0  0  0  0  0  0  0
   64.0337   -4.7246   -1.2771 C   0  0  0  0  0  0  0  0  0  0  0  0
   63.9846   -5.8964   -1.5878 C   0  0  0  0  0  0  0  0  0  0  0  0
   63.9311   -7.2623   -1.9492 C   0  0  0  0  0  0  0  0  0  0  0  0
   62.7276   -7.8672   -2.3294 C   0  0  0  0  0  0  0  0  0  0  0  0
   62.7305   -9.2077   -2.6722 C   0  0  0  0  0  0  0  0  0  0  0  0
   63.8283   -9.9595   -2.6590 N   0  0  0  0  0  0  0  0  0  0  0  0
   64.9764   -9.3917   -2.2986 C   0  0  0  0  0  0  0  0  0  0  0  0
   65.0812   -8.0601   -1.9382 C   0  0  0  0  0  0  0  0  0  0  0  0
   62.9246   -2.6092   -0.9032 C   0  0  0  0  0  0  0  0  0  0  0  0
   61.6451   -3.1417   -1.2512 C   0  0  0  0  0  0  0  0  0  0  0  0
   60.7338   -2.1813   -0.9616 C   0  0  0  0  0  0  0  0  0  0  0  0
   62.8102   -1.3196   -0.4504 N   0  0  0  0  0  0  0  0  0  0  0  0
   61.4640   -1.0691   -0.4413 C   0  0  0  0  0  0  0  0  0  0  0  0
   60.8538    0.0624    0.1031 C   0  0  0  0  0  0  0  0  0  0  0  0
   61.5928    1.1457    0.5813 C   0  0  0  0  0  0  0  0  0  0  0  0
   60.9960    2.3135    1.1475 C   0  0  0  0  0  0  0  0  0  0  0  0
   61.9966    3.2090    1.3317 C   0  0  0  0  0  0  0  0  0  0  0  0
   63.1969    2.5797    0.8791 C   0  0  0  0  0  0  0  0  0  0  0  0
   62.9478    1.2992    0.4570 N   0  0  0  0  0  0  0  0  0  0  0  0
   64.4195    3.2404    0.7788 C   0  0  0  0  0  0  0  0  0  0  0  0
   64.4866    4.6088    1.1186 C   0  0  0  0  0  0  0  0  0  0  0  0
   64.5434    5.7849    1.4112 C   0  0  0  0  0  0  0  0  0  0  0  0
   64.6079    7.1551    1.7539 C   0  0  0  0  0  0  0  0  0  0  0  0
   63.4835    7.8361    2.2346 C   0  0  0  0  0  0  0  0  0  0  0  0
   63.5993    9.1765    2.5573 C   0  0  0  0  0  0  0  0  0  0  0  0
   64.7346    9.8591    2.4327 N   0  0  0  0  0  0  0  0  0  0  0  0
   65.8079    9.2189    1.9760 C   0  0  0  0  0  0  0  0  0  0  0  0
   65.7982    7.8804    1.6261 C   0  0  0  0  0  0  0  0  0  0  0  0
   65.5806    2.5895    0.3642 C   0  0  0  0  0  0  0  0  0  0  0  0
   66.8536    3.2351    0.2621 C   0  0  0  0  0  0  0  0  0  0  0  0
   67.7624    2.2637    0.0086 C   0  0  0  0  0  0  0  0  0  0  0  0
   67.0382    1.0304   -0.0462 C   0  0  0  0  0  0  0  0  0  0  0  0
   65.6922    1.2479    0.1274 N   0  0  0  0  0  0  0  0  0  0  0  0
   68.7206   -0.2503   -0.1770 H   0  0  0  0  0  0  0  0  0  0  0  0
   68.6098   -2.8519   -0.2559 H   0  0  0  0  0  0  0  0  0  0  0  0
   66.6138   -4.6296   -0.6919 H   0  0  0  0  0  0  0  0  0  0  0  0
   61.8100   -7.2918   -2.3538 H   0  0  0  0  0  0  0  0  0  0  0  0
   61.8111   -9.7029   -2.9711 H   0  0  0  0  0  0  0  0  0  0  0  0
   65.8525  -10.0339   -2.2988 H   0  0  0  0  0  0  0  0  0  0  0  0
   66.0366   -7.6380   -1.6509 H   0  0  0  0  0  0  0  0  0  0  0  0
   61.4819   -4.1300   -1.6498 H   0  0  0  0  0  0  0  0  0  0  0  0
   59.6619   -2.2113   -1.0725 H   0  0  0  0  0  0  0  0  0  0  0  0
   59.9442    2.4221    1.3574 H   0  0  0  0  0  0  0  0  0  0  0  0
   61.9426    4.2108    1.7265 H   0  0  0  0  0  0  0  0  0  0  0  0
   62.5392    7.3182    2.3515 H   0  0  0  0  0  0  0  0  0  0  0  0
   62.7432    9.7296    2.9329 H   0  0  0  0  0  0  0  0  0  0  0  0
   66.7174    9.8060    1.8868 H   0  0  0  0  0  0  0  0  0  0  0  0
   66.6957    7.3979    1.2583 H   0  0  0  0  0  0  0  0  0  0  0  0
   67.0124    4.2942    0.3876 H   0  0  0  0  0  0  0  0  0  0  0  0
   68.8295    2.3510   -0.1202 H   0  0  0  0  0  0  0  0  0  0  0  0
   32.1028    0.1321    0.0180 C   0  0  0  0  0  0  0  0  0  0  0  0
   33.3267    0.1607    0.0361 C   0  0  0  0  0  0  0  0  0  0  0  0
   34.6693    0.1768    0.0522 C   0  0  0  0  0  0  0  0  0  0  0  0
   35.9000    0.1799    0.0635 C   0  0  0  0  0  0  0  0  0  0  0  0
   37.2374    0.1563    0.0619 C   0  0  0  0  0  0  0  0  0  0  0  0
   38.4675    0.1147    0.0456 C   0  0  0  0  0  0  0  0  0  0  0  0
   39.8063    0.0305   -0.0006 C   0  0  0  0  0  0  0  0  0  0  0  0
   41.0248   -0.0764   -0.0647 C   0  0  0  0  0  0  0  0  0  0  0  0
   50.5336   -0.0740    0.0516 C   0  0  0  0  0  0  0  0  0  0  0  0
   51.7504    0.0380    0.1357 C   0  0  0  0  0  0  0  0  0  0  0  0
   53.0883    0.1240    0.2039 C   0  0  0  0  0  0  0  0  0  0  0  0
   54.3180    0.1670    0.2343 C   0  0  0  0  0  0  0  0  0  0  0  0
   55.6557    0.1859    0.2471 C   0  0  0  0  0  0  0  0  0  0  0  0
   56.8863    0.1792    0.2347 C   0  0  0  0  0  0  0  0  0  0  0  0
   58.2286    0.1539    0.2023 C   0  0  0  0  0  0  0  0  0  0  0  0
   59.4515    0.1140    0.1619 C   0  0  0  0  0  0  0  0  0  0  0  0
   45.7832   -0.5335   -0.3382 Co  0  0  0  0  0  0  0  0  0  0  0  0
   42.4139   -0.2411   -0.1707 C   0  0  0  0  0  0  0  0  0  0  0  0
   43.1031    0.4453   -1.1745 C   0  0  0  0  0  0  0  0  0  0  0  0
   42.4525    1.2402   -2.1675 C   0  0  0  0  0  0  0  0  0  0  0  0
   43.3856    1.5216   -3.1108 C   0  0  0  0  0  0  0  0  0  0  0  0
   44.6088    0.9367   -2.6623 C   0  0  0  0  0  0  0  0  0  0  0  0
   44.4309    0.2901   -1.4697 N   0  0  0  0  0  0  0  0  0  0  0  0
   45.8204    1.0533   -3.3454 C   0  0  0  0  0  0  0  0  0  0  0  0
   45.8262    1.6422   -4.6272 C   0  0  0  0  0  0  0  0  0  0  0  0
   45.8259    2.1453   -5.7315 C   0  0  0  0  0  0  0  0  0  0  0  0
   45.8259    2.7422   -7.0132 C   0  0  0  0  0  0  0  0  0  0  0  0
   47.0180    2.9540   -7.7154 C   0  0  0  0  0  0  0  0  0  0  0  0
   46.9631    3.5474   -8.9641 C   0  0  0  0  0  0  0  0  0  0  0  0
   45.8254    3.9305   -9.5376 N   0  0  0  0  0  0  0  0  0  0  0  0
   44.6878    3.7321   -8.8767 C   0  0  0  0  0  0  0  0  0  0  0  0
   44.6335    3.1478   -7.6237 C   0  0  0  0  0  0  0  0  0  0  0  0
   47.0339    0.7078   -2.7519 C   0  0  0  0  0  0  0  0  0  0  0  0
   48.3057    1.0439   -3.3093 C   0  0  0  0  0  0  0  0  0  0  0  0
   49.2304    0.7711   -2.3555 C   0  0  0  0  0  0  0  0  0  0  0  0
   47.1787    0.1740   -1.4979 N   0  0  0  0  0  0  0  0  0  0  0  0
   48.5208    0.2263   -1.2421 C   0  0  0  0  0  0  0  0  0  0  0  0
   49.1472   -0.2425   -0.0826 C   0  0  0  0  0  0  0  0  0  0  0  0
   48.4596   -0.9970    0.8722 C   0  0  0  0  0  0  0  0  0  0  0  0
   49.1095   -1.6884    1.9401 C   0  0  0  0  0  0  0  0  0  0  0  0
   48.1803   -2.5067    2.4939 C   0  0  0  0  0  0  0  0  0  0  0  0
   46.9598   -2.2741    1.7898 C   0  0  0  0  0  0  0  0  0  0  0  0
   47.1356   -1.3394    0.8062 N   0  0  0  0  0  0  0  0  0  0  0  0
   45.7525   -2.9006    2.1031 C   0  0  0  0  0  0  0  0  0  0  0  0
   45.7502   -3.9345    3.0630 C   0  0  0  0  0  0  0  0  0  0  0  0
   45.7531   -4.8252    3.8870 C   0  0  0  0  0  0  0  0  0  0  0  0
   45.7555   -5.8546    4.8562 C   0  0  0  0  0  0  0  0  0  0  0  0
   44.5672   -6.4733    5.2612 C   0  0  0  0  0  0  0  0  0  0  0  0
   44.6242   -7.4717    6.2174 C   0  0  0  0  0  0  0  0  0  0  0  0
   45.7608   -7.8782    6.7772 N   0  0  0  0  0  0  0  0  0  0  0  0
   46.8948   -7.2953    6.3971 C   0  0  0  0  0  0  0  0  0  0  0  0
   46.9467   -6.2884    5.4497 C   0  0  0  0  0  0  0  0  0  0  0  0
   44.5383   -2.4601    1.5781 C   0  0  0  0  0  0  0  0  0  0  0  0
   43.2671   -2.9031    2.0567 C   0  0  0  0  0  0  0  0  0  0  0  0
   42.3373   -2.0940    1.4912 C   0  0  0  0  0  0  0  0  0  0  0  0
   43.0440   -1.1944    0.6362 C   0  0  0  0  0  0  0  0  0  0  0  0
   44.3890   -1.4356    0.6799 N   0  0  0  0  0  0  0  0  0  0  0  0
   41.4098    1.5130   -2.1471 H   0  0  0  0  0  0  0  0  0  0  0  0
   43.2749    2.0871   -4.0220 H   0  0  0  0  0  0  0  0  0  0  0  0
   47.9667    2.6576   -7.2845 H   0  0  0  0  0  0  0  0  0  0  0  0
   47.8723    3.7248   -9.5314 H   0  0  0  0  0  0  0  0  0  0  0  0
   43.7785    4.0567   -9.3742 H   0  0  0  0  0  0  0  0  0  0  0  0
   43.6852    3.0054   -7.1199 H   0  0  0  0  0  0  0  0  0  0  0  0
   48.4521    1.4648   -4.2909 H   0  0  0  0  0  0  0  0  0  0  0  0
   50.2992    0.9063   -2.3940 H   0  0  0  0  0  0  0  0  0  0  0  0
   50.1493   -1.5740    2.2005 H   0  0  0  0  0  0  0  0  0  0  0  0
   48.2919   -3.1962    3.3151 H   0  0  0  0  0  0  0  0  0  0  0  0
   43.6196   -6.1721    4.8312 H   0  0  0  0  0  0  0  0  0  0  0  0
   43.7180   -7.9687    6.5512 H   0  0  0  0  0  0  0  0  0  0  0  0
   47.8032   -7.6515    6.8744 H   0  0  0  0  0  0  0  0  0  0  0  0
   47.8922   -5.8399    5.1696 H   0  0  0  0  0  0  0  0  0  0  0  0
   43.1240   -3.7078    2.7597 H   0  0  0  0  0  0  0  0  0  0  0  0
   41.2670   -2.1031    1.6200 H   0  0  0  0  0  0  0  0  0  0  0  0
  2  3  4  0  0  0  0
  3  4  1  0  0  0  0
  4  5  2  0  0  0  0
  5  6  4  0  0  0  0
  1  7  1  0  0  0  0
  3  7  4  0  0  0  0
  6  7  4  0  0  0  0
  6  8  4  0  0  0  0
  8  9  1  0  0  0  0
  9 10  3  0  0  0  0
 10 11  1  0  0  0  0
 11 12  4  0  0  0  0
 12 13  4  0  0  0  0
 13 14  4  0  0  0  0
 14 15  4  0  0  0  0
 11 16  4  0  0  0  0
 15 16  4  0  0  0  0
  8 17  4  0  0  0  0
 17 18  4  0  0  0  0
 18 19  2  0  0  0  0
  1 20  1  0  0  0  0
 17 20  4  0  0  0  0
 19 21  4  0  0  0  0
 20 21  4  0  0  0  0
 21 22  4  0  0  0  0
 22 23  4  0  0  0  0
 23 24  4  0  0  0  0
 24 25  2  0  0  0  0
 25 26  4  0  0  0  0
  1 27  1  0  0  0  0
 23 27  4  0  0  0  0
 26 27  4  0  0  0  0
 26 28  4  0  0  0  0
 28 29  1  0  0  0  0
 29 30  3  0  0  0  0
 30 31  1  0  0  0  0
 31 32  4  0  0  0  0
 32 33  4  0  0  0  0
 33 34  4  0  0  0  0
 34 35  4  0  0  0  0
 31 36  4  0  0  0  0
 35 36  4  0  0  0  0
 28 37  4  0  0  0  0
 37 38  4  0  0  0  0
 38 39  2  0  0  0  0
  2 40  4  0  0  0  0
 39 40  1  0  0  0  0
  1 41  1  0  0  0  0
 37 41  4  0  0  0  0
 40 41  4  0  0  0  0
  2 42  1  0  0  0  0
  4 43  1  0  0  0  0
  5 44  1  0  0  0  0
 12 45  1  0  0  0  0
 13 46  1  0  0  0  0
 15 47  1  0  0  0  0
 16 48  1  0  0  0  0
 18 49  1  0  0  0  0
 19 50  1  0  0  0  0
 24 51  1  0  0  0  0
 25 52  1  0  0  0  0
 32 53  1  0  0  0  0
 33 54  1  0  0  0  0
 35 55  1  0  0  0  0
 36 56  1  0  0  0  0
 38 57  1  0  0  0  0
 39 58  1  0  0  0  0
 60 61  4  0  0  0  0
 61 62  1  0  0  0  0
 62 63  2  0  0  0  0
 63 64  4  0  0  0  0
 59 65  1  0  0  0  0
 61 65  4  0  0  0  0
 64 65  4  0  0  0  0
 64 66  4  0  0  0  0
 66 67  1  0  0  0  0
 67 68  3  0  0  0  0
 68 69  1  0  0  0  0
 69 70  4  0  0  0  0
 70 71  4  0  0  0  0
 71 72  4  0  0  0  0
 72 73  4  0  0  0  0
 69 74  4  0  0  0  0
 73 74  4  0  0  0  0
 66 75  4  0  0  0  0
 75 76  4  0  0  0  0
 76 77  2  0  0  0  0
 59 78  1  0  0  0  0
 75 78  4  0  0  0  0
 77 79  4  0  0  0  0
 78 79  4  0  0  0  0
 79 80  4  0  0  0  0
 80 81  4  0  0  0  0
 81 82  4  0  0  0  0
 82 83  2  0  0  0  0
 83 84  4  0  0  0  0
 59 85  1  0  0  0  0
 81 85  4  0  0  0  0
 84 85  4  0  0  0  0
 84 86  4  0  0  0  0
 86 87  1  0  0  0  0
 87 88  3  0  0  0  0
 88 89  1  0  0  0  0
 89 90  4  0  0  0  0
 90 91  4  0  0  0  0
 91 92  4  0  0  0  0
 92 93  4  0  0  0  0
 89 94  4  0  0  0  0
 93 94  4  0  0  0  0
 86 95  4  0  0  0  0
 95 96  4  0  0  0  0
 96 97  2  0  0  0  0
 60 98  4  0  0  0  0
 97 98  1  0  0  0  0
 59 99  1  0  0  0  0
 95 99  4  0  0  0  0
 98 99  4  0  0  0  0
 60100  1  0  0  0  0
 62101  1  0  0  0  0
 63102  1  0  0  0  0
 70103  1  0  0  0  0
 71104  1  0  0  0  0
 73105  1  0  0  0  0
 74106  1  0  0  0  0
 76107  1  0  0  0  0
 77108  1  0  0  0  0
 82109  1  0  0  0  0
 83110  1  0  0  0  0
 90111  1  0  0  0  0
 91112  1  0  0  0  0
 93113  1  0  0  0  0
 94114  1  0  0  0  0
 96115  1  0  0  0  0
 97116  1  0  0  0  0
 22117  4  0  0  0  0
117118  3  0  0  0  0
118119  4  0  0  0  0
119120  3  0  0  0  0
120121  4  0  0  0  0
121122  3  0  0  0  0
122123  4  0  0  0  0
123124  3  0  0  0  0
125126  3  0  0  0  0
126127  4  0  0  0  0
127128  3  0  0  0  0
128129  4  0  0  0  0
129130  3  0  0  0  0
130131  4  0  0  0  0
 80132  4  0  0  0  0
131132  3  0  0  0  0
124134  4  0  0  0  0
134135  4  0  0  0  0
135136  4  0  0  0  0
136137  2  0  0  0  0
137138  4  0  0  0  0
133139  1  0  0  0  0
135139  4  0  0  0  0
138139  4  0  0  0  0
138140  4  0  0  0  0
140141  1  0  0  0  0
141142  3  0  0  0  0
142143  1  0  0  0  0
143144  4  0  0  0  0
144145  4  0  0  0  0
145146  4  0  0  0  0
146147  4  0  0  0  0
143148  4  0  0  0  0
147148  4  0  0  0  0
140149  4  0  0  0  0
149150  4  0  0  0  0
150151  2  0  0  0  0
133152  1  0  0  0  0
149152  4  0  0  0  0
151153  4  0  0  0  0
152153  4  0  0  0  0
125154  4  0  0  0  0
153154  4  0  0  0  0
154155  4  0  0  0  0
155156  4  0  0  0  0
156157  2  0  0  0  0
157158  4  0  0  0  0
133159  1  0  0  0  0
155159  4  0  0  0  0
158159  4  0  0  0  0
158160  4  0  0  0  0
160161  1  0  0  0  0
161162  3  0  0  0  0
162163  1  0  0  0  0
163164  4  0  0  0  0
164165  4  0  0  0  0
165166  4  0  0  0  0
166167  4  0  0  0  0
163168  4  0  0  0  0
167168  4  0  0  0  0
160169  4  0  0  0  0
169170  4  0  0  0  0
170171  2  0  0  0  0
134172  4  0  0  0  0
171172  4  0  0  0  0
133173  1  0  0  0  0
169173  4  0  0  0  0
172173  4  0  0  0  0
136174  1  0  0  0  0
137175  1  0  0  0  0
144176  1  0  0  0  0
145177  1  0  0  0  0
147178  1  0  0  0  0
148179  1  0  0  0  0
150180  1  0  0  0  0
151181  1  0  0  0  0
156182  1  0  0  0  0
157183  1  0  0  0  0
164184  1  0  0  0  0
165185  1  0  0  0  0
167186  1  0  0  0  0
168187  1  0  0  0  0
170188  1  0  0  0  0
171189  1  0  0  0  0
M  END
