 xtb: 6.5.1 (b24c23e)
          07302209333D

140159  0     0  0            999 V2000
   15.4703    0.0120   -0.0202 Zn  0  0  0  0  0  0  0  0  0  0  0  0
   12.0709    0.1679   -0.2673 C   0  0  0  0  0  0  0  0  0  0  0  0
   12.7195    1.3421    0.0965 C   0  0  0  0  0  0  0  0  0  0  0  0
   12.0678    2.5858    0.3995 C   0  0  0  0  0  0  0  0  0  0  0  0
   13.0390    3.4728    0.7315 C   0  0  0  0  0  0  0  0  0  0  0  0
   14.2980    2.7838    0.6275 C   0  0  0  0  0  0  0  0  0  0  0  0
   14.0683    1.4944    0.2445 N   0  0  0  0  0  0  0  0  0  0  0  0
   15.5528    3.3370    0.9075 C   0  0  0  0  0  0  0  0  0  0  0  0
   16.7759    2.6612    0.8408 C   0  0  0  0  0  0  0  0  0  0  0  0
   18.0635    3.2518    1.0821 C   0  0  0  0  0  0  0  0  0  0  0  0
   18.9923    2.2820    0.8840 C   0  0  0  0  0  0  0  0  0  0  0  0
   16.9479    1.3474    0.4956 N   0  0  0  0  0  0  0  0  0  0  0  0
   18.2839    1.0919    0.5139 C   0  0  0  0  0  0  0  0  0  0  0  0
   18.8952   -0.1356    0.1908 C   0  0  0  0  0  0  0  0  0  0  0  0
   18.2252   -1.3138   -0.1917 C   0  0  0  0  0  0  0  0  0  0  0  0
   18.8722   -2.5491   -0.5244 C   0  0  0  0  0  0  0  0  0  0  0  0
   17.8942   -3.4399   -0.8294 C   0  0  0  0  0  0  0  0  0  0  0  0
   16.6382   -2.7574   -0.6824 C   0  0  0  0  0  0  0  0  0  0  0  0
   15.3803   -3.3208   -0.9218 C   0  0  0  0  0  0  0  0  0  0  0  0
   15.3434   -4.7588   -1.2927 C   0  0  0  0  0  0  0  0  0  0  0  0
   14.8677   -5.1553   -2.5406 C   0  0  0  0  0  0  0  0  0  0  0  0
   14.8381   -6.5022   -2.8907 C   0  0  0  0  0  0  0  0  0  0  0  0
   14.3130   -6.9181   -4.2386 C   0  0  0  0  0  0  0  0  0  0  0  0
   15.2814   -7.4536   -1.9787 C   0  0  0  0  0  0  0  0  0  0  0  0
   15.7560   -7.0732   -0.7256 C   0  0  0  0  0  0  0  0  0  0  0  0
   16.2456   -8.1147    0.2443 C   0  0  0  0  0  0  0  0  0  0  0  0
   15.7880   -5.7251   -0.3901 C   0  0  0  0  0  0  0  0  0  0  0  0
   14.1556   -2.6482   -0.8403 C   0  0  0  0  0  0  0  0  0  0  0  0
   12.8616   -3.2393   -1.0561 C   0  0  0  0  0  0  0  0  0  0  0  0
   11.9390   -2.2608   -0.8779 C   0  0  0  0  0  0  0  0  0  0  0  0
   12.6561   -1.0627   -0.5414 C   0  0  0  0  0  0  0  0  0  0  0  0
   13.9946   -1.3309   -0.5225 N   0  0  0  0  0  0  0  0  0  0  0  0
   16.8777   -1.4645   -0.3008 N   0  0  0  0  0  0  0  0  0  0  0  0
   15.5933    4.7679    1.3043 C   0  0  0  0  0  0  0  0  0  0  0  0
   15.1806    5.7568    0.4123 C   0  0  0  0  0  0  0  0  0  0  0  0
   15.2283    7.0987    0.7736 C   0  0  0  0  0  0  0  0  0  0  0  0
   14.8103    8.1650   -0.2030 C   0  0  0  0  0  0  0  0  0  0  0  0
   15.6898    7.4487    2.0393 C   0  0  0  0  0  0  0  0  0  0  0  0
   16.1023    6.4733    2.9418 C   0  0  0  0  0  0  0  0  0  0  0  0
   16.5788    6.8596    4.3162 C   0  0  0  0  0  0  0  0  0  0  0  0
   16.0525    5.1344    2.5683 C   0  0  0  0  0  0  0  0  0  0  0  0
   10.9882    0.2139   -0.3336 H   0  0  0  0  0  0  0  0  0  0  0  0
   11.0014    2.7463    0.3659 H   0  0  0  0  0  0  0  0  0  0  0  0
   12.9182    4.5014    1.0319 H   0  0  0  0  0  0  0  0  0  0  0  0
   18.2341    4.2808    1.3548 H   0  0  0  0  0  0  0  0  0  0  0  0
   20.0643    2.3599    0.9724 H   0  0  0  0  0  0  0  0  0  0  0  0
   19.9393   -2.7059   -0.5257 H   0  0  0  0  0  0  0  0  0  0  0  0
   18.0108   -4.4660   -1.1395 H   0  0  0  0  0  0  0  0  0  0  0  0
   14.5354   -4.4041   -3.2488 H   0  0  0  0  0  0  0  0  0  0  0  0
   14.6554   -7.9197   -4.4989 H   0  0  0  0  0  0  0  0  0  0  0  0
   13.2207   -6.9217   -4.2275 H   0  0  0  0  0  0  0  0  0  0  0  0
   14.6398   -6.2215   -5.0115 H   0  0  0  0  0  0  0  0  0  0  0  0
   15.2586   -8.5053   -2.2453 H   0  0  0  0  0  0  0  0  0  0  0  0
   16.3148   -7.7069    1.2527 H   0  0  0  0  0  0  0  0  0  0  0  0
   15.5751   -8.9749    0.2572 H   0  0  0  0  0  0  0  0  0  0  0  0
   17.2368   -8.4641   -0.0533 H   0  0  0  0  0  0  0  0  0  0  0  0
   16.1459   -5.4161    0.5860 H   0  0  0  0  0  0  0  0  0  0  0  0
   12.6864   -4.2745   -1.3022 H   0  0  0  0  0  0  0  0  0  0  0  0
   10.8655   -2.3342   -0.9573 H   0  0  0  0  0  0  0  0  0  0  0  0
   14.8374    5.4726   -0.5765 H   0  0  0  0  0  0  0  0  0  0  0  0
   14.3309    8.9971    0.3134 H   0  0  0  0  0  0  0  0  0  0  0  0
   14.1194    7.7642   -0.9449 H   0  0  0  0  0  0  0  0  0  0  0  0
   15.6870    8.5520   -0.7275 H   0  0  0  0  0  0  0  0  0  0  0  0
   15.7294    8.4950    2.3249 H   0  0  0  0  0  0  0  0  0  0  0  0
   15.7330    6.8935    5.0068 H   0  0  0  0  0  0  0  0  0  0  0  0
   17.0455    7.8448    4.3029 H   0  0  0  0  0  0  0  0  0  0  0  0
   17.2977    6.1332    4.6960 H   0  0  0  0  0  0  0  0  0  0  0  0
   16.3605    4.3644    3.2673 H   0  0  0  0  0  0  0  0  0  0  0  0
   28.9267    0.0165   -0.0172 Zn  0  0  0  0  0  0  0  0  0  0  0  0
   32.3258    0.2151   -0.2355 C   0  0  0  0  0  0  0  0  0  0  0  0
   31.6782   -0.4636   -1.2611 C   0  0  0  0  0  0  0  0  0  0  0  0
   32.3311   -1.1015   -2.3702 C   0  0  0  0  0  0  0  0  0  0  0  0
   31.3607   -1.6690   -3.1295 C   0  0  0  0  0  0  0  0  0  0  0  0
   30.1011   -1.3773   -2.4978 C   0  0  0  0  0  0  0  0  0  0  0  0
   30.3297   -0.6495   -1.3664 N   0  0  0  0  0  0  0  0  0  0  0  0
   28.8468   -1.8002   -2.9524 C   0  0  0  0  0  0  0  0  0  0  0  0
   27.6230   -1.5474   -2.3235 C   0  0  0  0  0  0  0  0  0  0  0  0
   26.3358   -1.9423   -2.8254 C   0  0  0  0  0  0  0  0  0  0  0  0
   25.4062   -1.4822   -1.9499 C   0  0  0  0  0  0  0  0  0  0  0  0
   27.4500   -0.8507   -1.1575 N   0  0  0  0  0  0  0  0  0  0  0  0
   26.1138   -0.7968   -0.9084 C   0  0  0  0  0  0  0  0  0  0  0  0
   25.5017   -0.1464    0.1810 C   0  0  0  0  0  0  0  0  0  0  0  0
   26.1709    0.5478    1.2076 C   0  0  0  0  0  0  0  0  0  0  0  0
   25.5230    1.2094    2.3019 C   0  0  0  0  0  0  0  0  0  0  0  0
   26.5003    1.7505    3.0735 C   0  0  0  0  0  0  0  0  0  0  0  0
   27.7567    1.4211    2.4589 C   0  0  0  0  0  0  0  0  0  0  0  0
   29.0140    1.8096    2.9335 C   0  0  0  0  0  0  0  0  0  0  0  0
   29.0501    2.5662    4.2113 C   0  0  0  0  0  0  0  0  0  0  0  0
   29.5280    3.8743    4.2448 C   0  0  0  0  0  0  0  0  0  0  0  0
   29.5582    4.5858    5.4408 C   0  0  0  0  0  0  0  0  0  0  0  0
   30.0866    5.9949    5.4650 C   0  0  0  0  0  0  0  0  0  0  0  0
   29.1128    3.9758    6.6083 C   0  0  0  0  0  0  0  0  0  0  0  0
   28.6356    2.6673    6.5917 C   0  0  0  0  0  0  0  0  0  0  0  0
   28.1436    2.0272    7.8619 C   0  0  0  0  0  0  0  0  0  0  0  0
   28.6035    1.9694    5.3905 C   0  0  0  0  0  0  0  0  0  0  0  0
   30.2391    1.5465    2.3098 C   0  0  0  0  0  0  0  0  0  0  0  0
   31.5326    1.9210    2.8170 C   0  0  0  0  0  0  0  0  0  0  0  0
   32.4558    1.4796    1.9263 C   0  0  0  0  0  0  0  0  0  0  0  0
   31.7396    0.8209    0.8698 C   0  0  0  0  0  0  0  0  0  0  0  0
   30.4011    0.8746    1.1331 N   0  0  0  0  0  0  0  0  0  0  0  0
   27.5182    0.6954    1.3227 N   0  0  0  0  0  0  0  0  0  0  0  0
   28.8071   -2.5798   -4.2163 C   0  0  0  0  0  0  0  0  0  0  0  0
   29.2189   -1.9982   -5.4146 C   0  0  0  0  0  0  0  0  0  0  0  0
   29.1700   -2.7185   -6.6030 C   0  0  0  0  0  0  0  0  0  0  0  0
   29.5856   -2.0769   -7.8995 C   0  0  0  0  0  0  0  0  0  0  0  0
   28.7090   -4.0318   -6.5866 C   0  0  0  0  0  0  0  0  0  0  0  0
   28.2980   -4.6275   -5.3981 C   0  0  0  0  0  0  0  0  0  0  0  0
   27.8220   -6.0553   -5.3862 C   0  0  0  0  0  0  0  0  0  0  0  0
   28.3484   -3.8960   -4.2162 C   0  0  0  0  0  0  0  0  0  0  0  0
   33.4084    0.2678   -0.2983 H   0  0  0  0  0  0  0  0  0  0  0  0
   33.3975   -1.1132   -2.5331 H   0  0  0  0  0  0  0  0  0  0  0  0
   31.4823   -2.2449   -4.0332 H   0  0  0  0  0  0  0  0  0  0  0  0
   26.1660   -2.4899   -3.7385 H   0  0  0  0  0  0  0  0  0  0  0  0
   24.3341   -1.5878   -2.0013 H   0  0  0  0  0  0  0  0  0  0  0  0
   24.4559    1.2532    2.4519 H   0  0  0  0  0  0  0  0  0  0  0  0
   26.3828    2.3331    3.9731 H   0  0  0  0  0  0  0  0  0  0  0  0
   29.8616    4.3446    3.3261 H   0  0  0  0  0  0  0  0  0  0  0  0
   29.7484    6.5236    6.3562 H   0  0  0  0  0  0  0  0  0  0  0  0
   31.1789    5.9827    5.4677 H   0  0  0  0  0  0  0  0  0  0  0  0
   29.7581    6.5450    4.5824 H   0  0  0  0  0  0  0  0  0  0  0  0
   29.1361    4.5248    7.5442 H   0  0  0  0  0  0  0  0  0  0  0  0
   28.0716    0.9453    7.7511 H   0  0  0  0  0  0  0  0  0  0  0  0
   28.8144    2.2527    8.6919 H   0  0  0  0  0  0  0  0  0  0  0  0
   27.1534    2.4130    8.1142 H   0  0  0  0  0  0  0  0  0  0  0  0
   28.2439    0.9464    5.3655 H   0  0  0  0  0  0  0  0  0  0  0  0
   31.7073    2.4457    3.7427 H   0  0  0  0  0  0  0  0  0  0  0  0
   33.5290    1.5788    1.9741 H   0  0  0  0  0  0  0  0  0  0  0  0
   29.5620   -0.9693   -5.4172 H   0  0  0  0  0  0  0  0  0  0  0  0
   30.0667   -2.8036   -8.5549 H   0  0  0  0  0  0  0  0  0  0  0  0
   30.2743   -1.2508   -7.7220 H   0  0  0  0  0  0  0  0  0  0  0  0
   28.7075   -1.6837   -8.4170 H   0  0  0  0  0  0  0  0  0  0  0  0
   28.6685   -4.5971   -7.5121 H   0  0  0  0  0  0  0  0  0  0  0  0
   28.6680   -6.7276   -5.2256 H   0  0  0  0  0  0  0  0  0  0  0  0
   27.3560   -6.3175   -6.3363 H   0  0  0  0  0  0  0  0  0  0  0  0
   27.1028   -6.2176   -4.5831 H   0  0  0  0  0  0  0  0  0  0  0  0
   28.0409   -4.3531   -3.2819 H   0  0  0  0  0  0  0  0  0  0  0  0
   21.5229   -0.1900    0.2540 C   0  0  0  0  0  0  0  0  0  0  0  0
   20.3016   -0.1774    0.2332 C   0  0  0  0  0  0  0  0  0  0  0  0
   22.8740   -0.1918    0.2519 C   0  0  0  0  0  0  0  0  0  0  0  0
   24.0953   -0.1763    0.2330 C   0  0  0  0  0  0  0  0  0  0  0  0
  2  3  4  0  0  0  0
  3  4  4  0  0  0  0
  4  5  2  0  0  0  0
  5  6  4  0  0  0  0
  1  7  1  0  0  0  0
  3  7  4  0  0  0  0
  6  7  4  0  0  0  0
  6  8  4  0  0  0  0
  8  9  4  0  0  0  0
  9 10  4  0  0  0  0
 10 11  2  0  0  0  0
  1 12  1  0  0  0  0
  9 12  4  0  0  0  0
 11 13  4  0  0  0  0
 12 13  4  0  0  0  0
 13 14  4  0  0  0  0
 14 15  4  0  0  0  0
 15 16  4  0  0  0  0
 16 17  2  0  0  0  0
 17 18  4  0  0  0  0
 18 19  4  0  0  0  0
 19 20  1  0  0  0  0
 20 21  4  0  0  0  0
 21 22  4  0  0  0  0
 22 23  1  0  0  0  0
 22 24  4  0  0  0  0
 24 25  4  0  0  0  0
 25 26  1  0  0  0  0
 20 27  4  0  0  0  0
 25 27  4  0  0  0  0
 19 28  4  0  0  0  0
 28 29  4  0  0  0  0
 29 30  2  0  0  0  0
  2 31  4  0  0  0  0
 30 31  4  0  0  0  0
  1 32  1  0  0  0  0
 28 32  4  0  0  0  0
 31 32  4  0  0  0  0
  1 33  1  0  0  0  0
 15 33  4  0  0  0  0
 18 33  4  0  0  0  0
  8 34  1  0  0  0  0
 34 35  4  0  0  0  0
 35 36  4  0  0  0  0
 36 37  1  0  0  0  0
 36 38  4  0  0  0  0
 38 39  4  0  0  0  0
 39 40  1  0  0  0  0
 34 41  4  0  0  0  0
 39 41  4  0  0  0  0
  2 42  1  0  0  0  0
  4 43  1  0  0  0  0
  5 44  1  0  0  0  0
 10 45  1  0  0  0  0
 11 46  1  0  0  0  0
 16 47  1  0  0  0  0
 17 48  1  0  0  0  0
 21 49  1  0  0  0  0
 23 50  1  0  0  0  0
 23 51  1  0  0  0  0
 23 52  1  0  0  0  0
 24 53  1  0  0  0  0
 26 54  1  0  0  0  0
 26 55  1  0  0  0  0
 26 56  1  0  0  0  0
 27 57  1  0  0  0  0
 29 58  1  0  0  0  0
 30 59  1  0  0  0  0
 35 60  1  0  0  0  0
 37 61  1  0  0  0  0
 37 62  1  0  0  0  0
 37 63  1  0  0  0  0
 38 64  1  0  0  0  0
 40 65  1  0  0  0  0
 40 66  1  0  0  0  0
 40 67  1  0  0  0  0
 41 68  1  0  0  0  0
 70 71  4  0  0  0  0
 71 72  4  0  0  0  0
 72 73  2  0  0  0  0
 73 74  4  0  0  0  0
 69 75  1  0  0  0  0
 71 75  4  0  0  0  0
 74 75  4  0  0  0  0
 74 76  4  0  0  0  0
 76 77  4  0  0  0  0
 77 78  4  0  0  0  0
 78 79  2  0  0  0  0
 69 80  1  0  0  0  0
 77 80  4  0  0  0  0
 79 81  4  0  0  0  0
 80 81  4  0  0  0  0
 81 82  4  0  0  0  0
 82 83  4  0  0  0  0
 83 84  4  0  0  0  0
 84 85  2  0  0  0  0
 85 86  4  0  0  0  0
 86 87  4  0  0  0  0
 87 88  1  0  0  0  0
 88 89  4  0  0  0  0
 89 90  4  0  0  0  0
 90 91  1  0  0  0  0
 90 92  4  0  0  0  0
 92 93  4  0  0  0  0
 93 94  1  0  0  0  0
 88 95  4  0  0  0  0
 93 95  4  0  0  0  0
 87 96  4  0  0  0  0
 96 97  4  0  0  0  0
 97 98  2  0  0  0  0
 70 99  4  0  0  0  0
 98 99  4  0  0  0  0
 69100  1  0  0  0  0
 96100  4  0  0  0  0
 99100  4  0  0  0  0
 69101  1  0  0  0  0
 83101  4  0  0  0  0
 86101  4  0  0  0  0
 76102  1  0  0  0  0
102103  4  0  0  0  0
103104  4  0  0  0  0
104105  1  0  0  0  0
104106  4  0  0  0  0
106107  4  0  0  0  0
107108  1  0  0  0  0
102109  4  0  0  0  0
107109  4  0  0  0  0
 70110  1  0  0  0  0
 72111  1  0  0  0  0
 73112  1  0  0  0  0
 78113  1  0  0  0  0
 79114  1  0  0  0  0
 84115  1  0  0  0  0
 85116  1  0  0  0  0
 89117  1  0  0  0  0
 91118  1  0  0  0  0
 91119  1  0  0  0  0
 91120  1  0  0  0  0
 92121  1  0  0  0  0
 94122  1  0  0  0  0
 94123  1  0  0  0  0
 94124  1  0  0  0  0
 95125  1  0  0  0  0
 97126  1  0  0  0  0
 98127  1  0  0  0  0
103128  1  0  0  0  0
105129  1  0  0  0  0
105130  1  0  0  0  0
105131  1  0  0  0  0
106132  1  0  0  0  0
108133  1  0  0  0  0
108134  1  0  0  0  0
108135  1  0  0  0  0
109136  1  0  0  0  0
 14138  4  0  0  0  0
137138  3  0  0  0  0
137139  4  0  0  0  0
 82140  4  0  0  0  0
139140  3  0  0  0  0
M  END
