372

C 84.299509 0.016232 -0.123135
C 85.034265 -1.266005 -0.620623
C 84.439181 -2.358976 -1.207428
C 85.464640 -3.309368 -1.451737
C 86.650807 -2.764960 -0.998741
N 86.384318 -1.496984 -0.547031
C 88.068609 -3.471960 -0.974313
C 88.097798 -4.942779 -1.142700
C 88.391683 -5.513874 -2.388220
C 88.407287 -6.901918 -2.539756
C 88.127238 -7.717588 -1.440113
C 88.138467 -9.187842 -1.576645
O 88.376484 -9.761357 -2.633338
C 87.832555 -7.158514 -0.192674
C 87.817913 -5.770958 -0.048193
C 89.198539 -2.754855 -0.732040
C 90.499345 -3.385360 -0.636869
C 91.400607 -2.448445 -0.366412
N 89.396112 -1.416721 -0.516513
C 90.723984 -1.169222 -0.282826
C 91.389679 -0.015126 -0.011538
C 90.611575 1.366242 0.054563
C 91.153676 2.618817 -0.156642
C 90.127113 3.571156 0.060923
C 88.983880 2.872835 0.386884
N 89.275356 1.530185 0.328089
C 87.571506 3.498989 0.742934
C 87.531344 4.904926 1.199696
C 87.828199 5.228429 2.529465
C 87.799739 6.559058 2.953332
C 87.475791 7.566317 2.040303
C 87.441618 8.980012 2.465307
O 87.680939 9.342355 3.611533
C 87.178541 7.255325 0.709459
C 87.207903 5.924186 0.292894
C 86.446742 2.748718 0.614978
C 85.122091 3.256353 0.926761
C 84.237551 2.295144 0.678121
C 84.962271 1.139844 0.209213
N 86.284766 1.455897 0.202948
H 83.220029 -0.017725 -0.036283
H 83.386698 -2.467247 -1.420376
H 85.345505 -4.290273 -1.886433
H 87.078540 -0.833305 -0.211810
H 88.611337 -4.862035 -3.231638
H 88.638802 -7.334907 -3.508787
H 87.915667 -9.759681 -0.660469
H 87.614315 -7.778183 0.670805
H 87.592678 -5.314802 0.914092
H 90.711911 -4.432799 -0.754146
H 92.451879 -2.630823 -0.238219
H 92.178125 2.828938 -0.424058
H 90.215114 4.644745 -0.007990
H 88.592146 0.782499 0.418149
H 88.078055 4.430960 3.226636
H 88.029734 6.798912 3.987420
H 87.184611 9.713634 1.682535
H 86.923474 8.025863 -0.011319
H 86.976895 5.658783 -0.737719
H 84.889997 4.238076 1.298140
H 83.172676 2.358461 0.807729
C 145.390771 0.020687 -0.121787
C 144.656016 1.363524 0.175555
C 145.251099 2.598431 0.293593
C 144.225640 3.524718 0.617511
C 143.039473 2.820465 0.692433
N 143.305962 1.514886 0.364913
C 141.621672 3.395169 1.104940
C 141.592483 4.712359 1.780716
C 141.298597 5.878439 1.061184
C 141.282993 7.117409 1.705064
C 141.563042 7.186096 3.072476
C 141.551813 8.485146 3.774443
O 141.313796 9.548495 3.213365
C 141.857725 6.028953 3.800272
C 141.872367 4.794302 3.150793
C 140.491742 2.664116 0.908734
C 139.190935 3.135930 1.337669
C 138.289673 2.206351 1.042983
N 140.294168 1.431176 0.345783
C 138.966296 1.095617 0.402930
C 138.300602 -0.015126 -0.011538
C 139.078705 -1.201150 -0.722801
C 138.536604 -2.126188 -1.593351
C 139.563167 -3.039260 -1.940602
C 140.706401 -2.639042 -1.282022
N 140.414924 -1.489286 -0.586157
C 142.118774 -3.357534 -1.333107
C 142.158936 -4.780705 -1.732953
C 141.862081 -5.787512 -0.805980
C 141.890541 -7.129775 -1.191420
C 142.214489 -7.461390 -2.509838
C 142.248663 -8.873399 -2.940411
O 142.009341 -9.810708 -2.187698
C 142.511739 -6.464395 -3.444645
C 142.482377 -5.125758 -3.052846
C 143.243538 -2.662298 -1.023388
C 144.568190 -3.257622 -1.045562
C 145.452729 -2.319932 -0.719247
C 144.728009 -1.098563 -0.468540
N 143.405514 -1.358058 -0.649071
H 146.470252 0.000762 -0.030685
H 146.303582 2.806642 0.176470
H 144.344775 4.582004 0.799946
H 142.611740 0.776726 0.275681
H 141.078943 5.803935 -0.002159
H 141.051479 8.015208 1.138973
H 141.774614 8.452726 4.853946
H 142.075965 6.065562 4.862462
H 142.097603 3.880970 3.698420
H 138.978369 4.072498 1.821118
H 137.238401 2.286987 1.250812
H 137.512156 -2.152679 -1.932409
H 139.475166 -3.894305 -2.593473
H 141.098134 -0.917137 -0.096473
H 141.612226 -5.510713 0.216463
H 141.660547 -7.902965 -0.464065
H 142.505669 -9.049590 -3.998659
H 142.766806 -6.705692 -4.471790
H 142.713386 -4.333237 -3.763137
H 144.800283 -4.280465 -1.281134
H 146.517604 -2.444509 -0.646530
C 93.215260 -0.015126 -0.011538
C 94.437177 -0.015126 -0.011538
C 103.724721 -0.015126 -0.011538
C 104.946638 -0.015126 -0.011538
C 114.234181 -0.015126 -0.011538
C 115.456099 -0.015126 -0.011538
C 124.743642 -0.015126 -0.011538
C 125.965560 -0.015126 -0.011538
C 135.253103 -0.015126 -0.011538
C 136.475021 -0.015126 -0.011538
C 95.484011 0.008319 0.006346
C 96.268719 0.877711 -1.060549
C 95.727186 1.474547 -2.173891
C 96.766234 2.172019 -2.836297
C 97.917418 1.976469 -2.112385
N 97.615660 1.150236 -1.055878
C 99.335769 2.592972 -2.448391
C 99.373443 3.773504 -3.347421
C 99.598431 3.618223 -4.720416
C 99.641125 4.732772 -5.561767
C 99.453550 6.007987 -5.025620
C 99.496559 7.201274 -5.895499
O 99.657855 7.139309 -7.108763
C 99.221816 6.176707 -3.657943
C 99.182230 5.058198 -2.822580
C 100.466608 2.072784 -1.901559
C 101.772826 2.622614 -2.196066
C 102.684325 1.920292 -1.533580
N 100.665780 1.029994 -1.035130
C 102.006197 0.887275 -0.776068
C 102.688290 0.008319 0.006346
C 101.912191 -1.100664 0.841832
C 102.491335 -2.112846 1.585312
C 101.450139 -2.837656 2.209652
C 100.257861 -2.249615 1.832369
N 100.547017 -1.214280 0.973241
C 98.823868 -2.683222 2.340040
C 98.760998 -3.779484 3.334191
C 98.636775 -5.101788 2.887239
C 98.603963 -6.150707 3.804796
C 98.681553 -5.870382 5.173960
C 98.635162 -6.994786 6.128542
O 98.703491 -6.844684 7.342347
C 98.795841 -4.554696 5.631582
C 98.840557 -3.509237 4.707229
C 97.695045 -2.090034 1.875227
C 96.387043 -2.454439 2.378151
C 95.479812 -1.707178 1.763696
C 96.159567 -0.848420 0.816096
N 97.498867 -1.113925 0.938204
H 94.695923 1.421077 -2.478482
H 96.680496 2.754350 -3.739023
H 98.288315 0.762684 -0.404828
H 99.747173 2.620015 -5.121059
H 99.823752 4.599110 -6.623010
H 99.368279 8.175390 -5.392269
H 99.071473 7.160668 -3.227444
H 99.008901 5.170027 -1.752983
H 101.985290 3.454222 -2.842212
H 103.741255 2.106843 -1.571379
H 103.547505 -2.304722 1.689531
H 101.562119 -3.682326 2.877053
H 99.858152 -0.616503 0.520168
H 98.566027 -5.291959 1.816418
H 98.518579 -7.167566 3.435391
H 98.533971 -8.000133 5.686873
H 98.851327 -4.338161 6.695173
H 98.933655 -2.478491 5.039942
H 96.174510 -3.193767 3.128965
H 94.422532 -1.759100 1.945993
C 105.993472 0.008319 0.006346
C 106.778180 0.877711 -1.060549
C 106.236647 1.474547 -2.173891
C 107.275694 2.172019 -2.836297
C 108.426879 1.976469 -2.112385
N 108.125121 1.150236 -1.055878
C 109.845230 2.592972 -2.448391
C 109.882904 3.773504 -3.347421
C 110.107892 3.618223 -4.720416
C 110.150586 4.732772 -5.561767
C 109.963011 6.007987 -5.025620
C 110.006020 7.201274 -5.895499
O 110.167316 7.139309 -7.108763
C 109.731277 6.176707 -3.657943
C 109.691691 5.058198 -2.822580
C 110.976069 2.072784 -1.901559
C 112.282287 2.622614 -2.196066
C 113.193785 1.920292 -1.533580
N 111.175241 1.029994 -1.035130
C 112.515658 0.887275 -0.776068
C 113.197751 0.008319 0.006346
C 112.421652 -1.100664 0.841832
C 113.000796 -2.112846 1.585312
C 111.959600 -2.837656 2.209652
C 110.767322 -2.249615 1.832369
N 111.056478 -1.214280 0.973241
C 109.333329 -2.683222 2.340040
C 109.270459 -3.779484 3.334191
C 109.146236 -5.101788 2.887239
C 109.113424 -6.150707 3.804796
C 109.191014 -5.870382 5.173960
C 109.144623 -6.994786 6.128542
O 109.212952 -6.844684 7.342347
C 109.305302 -4.554696 5.631582
C 109.350018 -3.509237 4.707229
C 108.204506 -2.090034 1.875227
C 106.896504 -2.454439 2.378151
C 105.989273 -1.707178 1.763696
C 106.669028 -0.848420 0.816096
N 108.008328 -1.113925 0.938204
H 105.205384 1.421077 -2.478482
H 107.189957 2.754350 -3.739023
H 108.797775 0.762684 -0.404828
H 110.256634 2.620015 -5.121059
H 110.333212 4.599110 -6.623010
H 109.877740 8.175390 -5.392269
H 109.580934 7.160668 -3.227444
H 109.518362 5.170027 -1.752983
H 112.494751 3.454222 -2.842212
H 114.250716 2.106843 -1.571379
H 114.056966 -2.304722 1.689531
H 112.071580 -3.682326 2.877053
H 110.367613 -0.616503 0.520168
H 109.075488 -5.291959 1.816418
H 109.028040 -7.167566 3.435391
H 109.043432 -8.000133 5.686873
H 109.360788 -4.338161 6.695173
H 109.443115 -2.478491 5.039942
H 106.683971 -3.193767 3.128965
H 104.931992 -1.759100 1.945993
C 116.502933 0.008319 0.006346
C 117.287641 0.877711 -1.060549
C 116.746108 1.474547 -2.173891
C 117.785155 2.172019 -2.836297
C 118.936339 1.976469 -2.112385
N 118.634581 1.150236 -1.055878
C 120.354691 2.592972 -2.448391
C 120.392365 3.773504 -3.347421
C 120.617352 3.618223 -4.720416
C 120.660047 4.732772 -5.561767
C 120.472471 6.007987 -5.025620
C 120.515481 7.201274 -5.895499
O 120.676776 7.139309 -7.108763
C 120.240738 6.176707 -3.657943
C 120.201152 5.058198 -2.822580
C 121.485530 2.072784 -1.901559
C 122.791748 2.622614 -2.196066
C 123.703246 1.920292 -1.533580
N 121.684702 1.029994 -1.035130
C 123.025119 0.887275 -0.776068
C 123.707212 0.008319 0.006346
C 122.931113 -1.100664 0.841832
C 123.510257 -2.112846 1.585312
C 122.469061 -2.837656 2.209652
C 121.276783 -2.249615 1.832369
N 121.565939 -1.214280 0.973241
C 119.842790 -2.683222 2.340040
C 119.779920 -3.779484 3.334191
C 119.655697 -5.101788 2.887239
C 119.622885 -6.150707 3.804796
C 119.700475 -5.870382 5.173960
C 119.654084 -6.994786 6.128542
O 119.722412 -6.844684 7.342347
C 119.814763 -4.554696 5.631582
C 119.859479 -3.509237 4.707229
C 118.713967 -2.090034 1.875227
C 117.405965 -2.454439 2.378151
C 116.498733 -1.707178 1.763696
C 117.178489 -0.848420 0.816096
N 118.517789 -1.113925 0.938204
H 115.714845 1.421077 -2.478482
H 117.699418 2.754350 -3.739023
H 119.307236 0.762684 -0.404828
H 120.766095 2.620015 -5.121059
H 120.842673 4.599110 -6.623010
H 120.387200 8.175390 -5.392269
H 120.090395 7.160668 -3.227444
H 120.027823 5.170027 -1.752983
H 123.004212 3.454222 -2.842212
H 124.760177 2.106843 -1.571379
H 124.566427 -2.304722 1.689531
H 122.581041 -3.682326 2.877053
H 120.877074 -0.616503 0.520168
H 119.584949 -5.291959 1.816418
H 119.537501 -7.167566 3.435391
H 119.552893 -8.000133 5.686873
H 119.870249 -4.338161 6.695173
H 119.952576 -2.478491 5.039942
H 117.193432 -3.193767 3.128965
H 115.441453 -1.759100 1.945993
C 127.012393 0.008319 0.006346
C 127.797102 0.877711 -1.060549
C 127.255568 1.474547 -2.173891
C 128.294616 2.172019 -2.836297
C 129.445800 1.976469 -2.112385
N 129.144042 1.150236 -1.055878
C 130.864152 2.592972 -2.448391
C 130.901826 3.773504 -3.347421
C 131.126813 3.618223 -4.720416
C 131.169508 4.732772 -5.561767
C 130.981932 6.007987 -5.025620
C 131.024942 7.201274 -5.895499
O 131.186237 7.139309 -7.108763
C 130.750199 6.176707 -3.657943
C 130.710613 5.058198 -2.822580
C 131.994991 2.072784 -1.901559
C 133.301209 2.622614 -2.196066
C 134.212707 1.920292 -1.533580
N 132.194162 1.029994 -1.035130
C 133.534579 0.887275 -0.776068
C 134.216673 0.008319 0.006346
C 133.440574 -1.100664 0.841832
C 134.019718 -2.112846 1.585312
C 132.978522 -2.837656 2.209652
C 131.786243 -2.249615 1.832369
N 132.075400 -1.214280 0.973241
C 130.352251 -2.683222 2.340040
C 130.289380 -3.779484 3.334191
C 130.165157 -5.101788 2.887239
C 130.132346 -6.150707 3.804796
C 130.209936 -5.870382 5.173960
C 130.163544 -6.994786 6.128542
O 130.231873 -6.844684 7.342347
C 130.324224 -4.554696 5.631582
C 130.368940 -3.509237 4.707229
C 129.223428 -2.090034 1.875227
C 127.915426 -2.454439 2.378151
C 127.008194 -1.707178 1.763696
C 127.687950 -0.848420 0.816096
N 129.027250 -1.113925 0.938204
H 126.224306 1.421077 -2.478482
H 128.208879 2.754350 -3.739023
H 129.816697 0.762684 -0.404828
H 131.275556 2.620015 -5.121059
H 131.352134 4.599110 -6.623010
H 130.896661 8.175390 -5.392269
H 130.599856 7.160668 -3.227444
H 130.537283 5.170027 -1.752983
H 133.513673 3.454222 -2.842212
H 135.269638 2.106843 -1.571379
H 135.075888 -2.304722 1.689531
H 133.090502 -3.682326 2.877053
H 131.386535 -0.616503 0.520168
H 130.094410 -5.291959 1.816418
H 130.046962 -7.167566 3.435391
H 130.062354 -8.000133 5.686873
H 130.379709 -4.338161 6.695173
H 130.462037 -2.478491 5.039942
H 127.702893 -3.193767 3.128965
H 125.950914 -1.759100 1.945993
