 xtb: 6.5.1 (b24c23e)
          07302203473D

372413  0     0  0            999 V2000
   84.2070   -0.0044   -0.0714 C   0  0  0  0  0  0  0  0  0  0  0  0
   84.8106   -1.2452   -0.2293 C   0  0  0  0  0  0  0  0  0  0  0  0
   84.1532   -2.4946   -0.4106 C   0  0  0  0  0  0  0  0  0  0  0  0
   85.1111   -3.4620   -0.5249 C   0  0  0  0  0  0  0  0  0  0  0  0
   86.3849   -2.8362   -0.4032 C   0  0  0  0  0  0  0  0  0  0  0  0
   86.1528   -1.5007   -0.2366 N   0  0  0  0  0  0  0  0  0  0  0  0
   87.6468   -3.4384   -0.4615 C   0  0  0  0  0  0  0  0  0  0  0  0
   87.6783   -4.9087   -0.6425 C   0  0  0  0  0  0  0  0  0  0  0  0
   88.2978   -5.4663   -1.7655 C   0  0  0  0  0  0  0  0  0  0  0  0
   88.3284   -6.8365   -1.9376 C   0  0  0  0  0  0  0  0  0  0  0  0
   87.7450   -7.6822   -0.9882 C   0  0  0  0  0  0  0  0  0  0  0  0
   87.7957   -9.1415   -1.1923 C   0  0  0  0  0  0  0  0  0  0  0  0
   88.3176   -9.6661   -2.1426 O   0  0  0  0  0  0  0  0  0  0  0  0
   87.1272   -7.1267    0.1348 C   0  0  0  0  0  0  0  0  0  0  0  0
   87.0917   -5.7538    0.3035 C   0  0  0  0  0  0  0  0  0  0  0  0
   88.8653   -2.7609   -0.3629 C   0  0  0  0  0  0  0  0  0  0  0  0
   90.1588   -3.4207   -0.3515 C   0  0  0  0  0  0  0  0  0  0  0  0
   91.0835   -2.4455   -0.2381 C   0  0  0  0  0  0  0  0  0  0  0  0
   89.0257   -1.4154   -0.2392 N   0  0  0  0  0  0  0  0  0  0  0  0
   90.3549   -1.1932   -0.1729 C   0  0  0  0  0  0  0  0  0  0  0  0
   90.9962    0.0578   -0.0894 C   0  0  0  0  0  0  0  0  0  0  0  0
   90.3665    1.3141   -0.0210 C   0  0  0  0  0  0  0  0  0  0  0  0
   91.0147    2.5763    0.0344 C   0  0  0  0  0  0  0  0  0  0  0  0
   90.0518    3.5431    0.1222 C   0  0  0  0  0  0  0  0  0  0  0  0
   88.7840    2.8982    0.1376 C   0  0  0  0  0  0  0  0  0  0  0  0
   89.0256    1.5541    0.0360 N   0  0  0  0  0  0  0  0  0  0  0  0
   87.5237    3.5016    0.2180 C   0  0  0  0  0  0  0  0  0  0  0  0
   87.4989    4.9762    0.3516 C   0  0  0  0  0  0  0  0  0  0  0  0
   88.1154    5.6003    1.4409 C   0  0  0  0  0  0  0  0  0  0  0  0
   88.0930    6.9762    1.5618 C   0  0  0  0  0  0  0  0  0  0  0  0
   87.4579    7.7617    0.5941 C   0  0  0  0  0  0  0  0  0  0  0  0
   87.4542    9.2284    0.7424 C   0  0  0  0  0  0  0  0  0  0  0  0
   87.9805    9.8095    1.6568 O   0  0  0  0  0  0  0  0  0  0  0  0
   86.8416    7.1398   -0.4946 C   0  0  0  0  0  0  0  0  0  0  0  0
   86.8604    5.7616   -0.6126 C   0  0  0  0  0  0  0  0  0  0  0  0
   86.3040    2.8166    0.1864 C   0  0  0  0  0  0  0  0  0  0  0  0
   85.0035    3.4517    0.3365 C   0  0  0  0  0  0  0  0  0  0  0  0
   84.0864    2.4672    0.2559 C   0  0  0  0  0  0  0  0  0  0  0  0
   84.8254    1.2310    0.0675 C   0  0  0  0  0  0  0  0  0  0  0  0
   86.1582    1.4787    0.0408 N   0  0  0  0  0  0  0  0  0  0  0  0
   83.1218   -0.0101   -0.0601 H   0  0  0  0  0  0  0  0  0  0  0  0
   83.0833   -2.6216   -0.4543 H   0  0  0  0  0  0  0  0  0  0  0  0
   84.9550   -4.5160   -0.6875 H   0  0  0  0  0  0  0  0  0  0  0  0
   86.8816   -0.8018   -0.1388 H   0  0  0  0  0  0  0  0  0  0  0  0
   88.7405   -4.8129   -2.5087 H   0  0  0  0  0  0  0  0  0  0  0  0
   88.8024   -7.2764   -2.8085 H   0  0  0  0  0  0  0  0  0  0  0  0
   87.3090   -9.7319   -0.3870 H   0  0  0  0  0  0  0  0  0  0  0  0
   86.6763   -7.7756    0.8786 H   0  0  0  0  0  0  0  0  0  0  0  0
   86.6251   -5.3272    1.1843 H   0  0  0  0  0  0  0  0  0  0  0  0
   90.3162   -4.4855   -0.4078 H   0  0  0  0  0  0  0  0  0  0  0  0
   92.1566   -2.5406   -0.2008 H   0  0  0  0  0  0  0  0  0  0  0  0
   92.0828    2.7189    0.0075 H   0  0  0  0  0  0  0  0  0  0  0  0
   90.2042    4.6091    0.1648 H   0  0  0  0  0  0  0  0  0  0  0  0
   88.3006    0.8447    0.0087 H   0  0  0  0  0  0  0  0  0  0  0  0
   88.5953    4.9945    2.2013 H   0  0  0  0  0  0  0  0  0  0  0  0
   88.5640    7.4670    2.4068 H   0  0  0  0  0  0  0  0  0  0  0  0
   86.9202    9.7675   -0.0689 H   0  0  0  0  0  0  0  0  0  0  0  0
   86.3497    7.7416   -1.2518 H   0  0  0  0  0  0  0  0  0  0  0  0
   86.3946    5.2831   -1.4667 H   0  0  0  0  0  0  0  0  0  0  0  0
   84.8402    4.5053    0.4963 H   0  0  0  0  0  0  0  0  0  0  0  0
   83.0120    2.5376    0.3218 H   0  0  0  0  0  0  0  0  0  0  0  0
  145.4662    0.0827    0.0013 C   0  0  0  0  0  0  0  0  0  0  0  0
  144.8628    1.3149    0.2168 C   0  0  0  0  0  0  0  0  0  0  0  0
  145.5224    2.5604    0.4168 C   0  0  0  0  0  0  0  0  0  0  0  0
  144.5663    3.5200    0.5933 C   0  0  0  0  0  0  0  0  0  0  0  0
  143.2911    2.8898    0.5161 C   0  0  0  0  0  0  0  0  0  0  0  0
  143.5210    1.5643    0.2807 N   0  0  0  0  0  0  0  0  0  0  0  0
  142.0306    3.4890    0.6207 C   0  0  0  0  0  0  0  0  0  0  0  0
  142.0060    4.9437    0.9007 C   0  0  0  0  0  0  0  0  0  0  0  0
  141.4106    5.8309   -0.0012 C   0  0  0  0  0  0  0  0  0  0  0  0
  141.3895    7.1865    0.2644 C   0  0  0  0  0  0  0  0  0  0  0  0
  141.9584    7.6865    1.4405 C   0  0  0  0  0  0  0  0  0  0  0  0
  141.9186    9.1365    1.7042 C   0  0  0  0  0  0  0  0  0  0  0  0
  141.4222    9.9395    0.9564 O   0  0  0  0  0  0  0  0  0  0  0  0
  142.5526    6.8012    2.3430 C   0  0  0  0  0  0  0  0  0  0  0  0
  142.5788    5.4445    2.0734 C   0  0  0  0  0  0  0  0  0  0  0  0
  140.8112    2.8184    0.4896 C   0  0  0  0  0  0  0  0  0  0  0  0
  139.5143    3.4506    0.6560 C   0  0  0  0  0  0  0  0  0  0  0  0
  138.5920    2.4832    0.4749 C   0  0  0  0  0  0  0  0  0  0  0  0
  140.6552    1.4924    0.2300 N   0  0  0  0  0  0  0  0  0  0  0  0
  139.3260    1.2604    0.2095 C   0  0  0  0  0  0  0  0  0  0  0  0
  138.6898    0.0240   -0.0055 C   0  0  0  0  0  0  0  0  0  0  0  0
  139.3161   -1.2150   -0.2254 C   0  0  0  0  0  0  0  0  0  0  0  0
  138.6626   -2.4474   -0.4945 C   0  0  0  0  0  0  0  0  0  0  0  0
  139.6223   -3.4022   -0.6839 C   0  0  0  0  0  0  0  0  0  0  0  0
  140.8936   -2.7836   -0.5240 C   0  0  0  0  0  0  0  0  0  0  0  0
  140.6566   -1.4625   -0.2530 N   0  0  0  0  0  0  0  0  0  0  0  0
  142.1538   -3.3785   -0.6540 C   0  0  0  0  0  0  0  0  0  0  0  0
  142.1786   -4.8272   -0.9586 C   0  0  0  0  0  0  0  0  0  0  0  0
  141.5866   -5.7491   -0.0893 C   0  0  0  0  0  0  0  0  0  0  0  0
  141.6014   -7.0981   -0.3864 C   0  0  0  0  0  0  0  0  0  0  0  0
  142.2047   -7.5577   -1.5619 C   0  0  0  0  0  0  0  0  0  0  0  0
  142.1964   -9.0008   -1.8624 C   0  0  0  0  0  0  0  0  0  0  0  0
  141.6894   -9.8296   -1.1505 O   0  0  0  0  0  0  0  0  0  0  0  0
  142.7996   -6.6386   -2.4296 C   0  0  0  0  0  0  0  0  0  0  0  0
  142.7883   -5.2884   -2.1293 C   0  0  0  0  0  0  0  0  0  0  0  0
  143.3732   -2.7042   -0.5244 C   0  0  0  0  0  0  0  0  0  0  0  0
  144.6764   -3.3477   -0.5934 C   0  0  0  0  0  0  0  0  0  0  0  0
  145.5920   -2.3762   -0.4067 C   0  0  0  0  0  0  0  0  0  0  0  0
  144.8497   -1.1423   -0.2158 C   0  0  0  0  0  0  0  0  0  0  0  0
  143.5166   -1.3798   -0.2848 N   0  0  0  0  0  0  0  0  0  0  0  0
  146.5515    0.0874    0.0044 H   0  0  0  0  0  0  0  0  0  0  0  0
  146.5926    2.6920    0.4165 H   0  0  0  0  0  0  0  0  0  0  0  0
  144.7241    4.5743    0.7526 H   0  0  0  0  0  0  0  0  0  0  0  0
  142.7901    0.8705    0.1633 H   0  0  0  0  0  0  0  0  0  0  0  0
  140.9801    5.4481   -0.9195 H   0  0  0  0  0  0  0  0  0  0  0  0
  140.9343    7.8818   -0.4327 H   0  0  0  0  0  0  0  0  0  0  0  0
  142.3895    9.4380    2.6642 H   0  0  0  0  0  0  0  0  0  0  0  0
  142.9928    7.1799    3.2598 H   0  0  0  0  0  0  0  0  0  0  0  0
  143.0276    4.7587    2.7833 H   0  0  0  0  0  0  0  0  0  0  0  0
  139.3527    4.4893    0.8945 H   0  0  0  0  0  0  0  0  0  0  0  0
  137.5178    2.5617    0.5238 H   0  0  0  0  0  0  0  0  0  0  0  0
  137.5934   -2.5751   -0.5477 H   0  0  0  0  0  0  0  0  0  0  0  0
  139.4656   -4.4406   -0.9259 H   0  0  0  0  0  0  0  0  0  0  0  0
  141.3854   -0.7702   -0.1140 H   0  0  0  0  0  0  0  0  0  0  0  0
  141.1309   -5.3988    0.8301 H   0  0  0  0  0  0  0  0  0  0  0  0
  141.1476   -7.8194    0.2848 H   0  0  0  0  0  0  0  0  0  0  0  0
  142.7009   -9.2711   -2.8145 H   0  0  0  0  0  0  0  0  0  0  0  0
  143.2679   -6.9860   -3.3447 H   0  0  0  0  0  0  0  0  0  0  0  0
  143.2359   -4.5761   -2.8132 H   0  0  0  0  0  0  0  0  0  0  0  0
  144.8425   -4.4018   -0.7467 H   0  0  0  0  0  0  0  0  0  0  0  0
  146.6675   -2.4563   -0.3870 H   0  0  0  0  0  0  0  0  0  0  0  0
   92.4064    0.0677   -0.0773 C   0  0  0  0  0  0  0  0  0  0  0  0
   93.6230    0.0718   -0.0615 C   0  0  0  0  0  0  0  0  0  0  0  0
  103.3054    0.0287    0.0073 C   0  0  0  0  0  0  0  0  0  0  0  0
  104.5228    0.0279    0.0320 C   0  0  0  0  0  0  0  0  0  0  0  0
  114.2279   -0.1316    0.1087 C   0  0  0  0  0  0  0  0  0  0  0  0
  115.4461   -0.1603    0.0851 C   0  0  0  0  0  0  0  0  0  0  0  0
  125.1626   -0.0749    0.0521 C   0  0  0  0  0  0  0  0  0  0  0  0
  126.3810   -0.0579    0.0552 C   0  0  0  0  0  0  0  0  0  0  0  0
  136.0619   -0.0063   -0.0037 C   0  0  0  0  0  0  0  0  0  0  0  0
  137.2776    0.0103   -0.0035 C   0  0  0  0  0  0  0  0  0  0  0  0
   95.0324    0.0704   -0.0481 C   0  0  0  0  0  0  0  0  0  0  0  0
   95.6655    1.1861   -0.6262 C   0  0  0  0  0  0  0  0  0  0  0  0
   95.0277    2.2819   -1.2631 C   0  0  0  0  0  0  0  0  0  0  0  0
   95.9986    3.1505   -1.6810 C   0  0  0  0  0  0  0  0  0  0  0  0
   97.2589    2.6131   -1.3024 C   0  0  0  0  0  0  0  0  0  0  0  0
   97.0077    1.4203   -0.6798 N   0  0  0  0  0  0  0  0  0  0  0  0
   98.5230    3.1748   -1.5225 C   0  0  0  0  0  0  0  0  0  0  0  0
   98.5524    4.5028   -2.1791 C   0  0  0  0  0  0  0  0  0  0  0  0
   99.2152    4.6692   -3.3994 C   0  0  0  0  0  0  0  0  0  0  0  0
   99.2434    5.9049   -4.0158 C   0  0  0  0  0  0  0  0  0  0  0  0
   98.6145    7.0055   -3.4240 C   0  0  0  0  0  0  0  0  0  0  0  0
   98.6639    8.3152   -4.0994 C   0  0  0  0  0  0  0  0  0  0  0  0
   99.2224    8.5052   -5.1493 O   0  0  0  0  0  0  0  0  0  0  0  0
   97.9543    6.8416   -2.2039 C   0  0  0  0  0  0  0  0  0  0  0  0
   97.9212    5.6021   -1.5900 C   0  0  0  0  0  0  0  0  0  0  0  0
   99.7431    2.5896   -1.1777 C   0  0  0  0  0  0  0  0  0  0  0  0
  101.0266    3.2513   -1.3297 C   0  0  0  0  0  0  0  0  0  0  0  0
  101.9596    2.3763   -0.9014 C   0  0  0  0  0  0  0  0  0  0  0  0
   99.9166    1.3488   -0.6459 N   0  0  0  0  0  0  0  0  0  0  0  0
  101.2462    1.1842   -0.4884 C   0  0  0  0  0  0  0  0  0  0  0  0
  101.8978    0.0296   -0.0113 C   0  0  0  0  0  0  0  0  0  0  0  0
  101.2623   -1.1365    0.4574 C   0  0  0  0  0  0  0  0  0  0  0  0
  101.8974   -2.3326    0.8798 C   0  0  0  0  0  0  0  0  0  0  0  0
  100.9261   -3.2058    1.2863 C   0  0  0  0  0  0  0  0  0  0  0  0
   99.6676   -2.5645    1.1277 C   0  0  0  0  0  0  0  0  0  0  0  0
   99.9203   -1.3235    0.6081 N   0  0  0  0  0  0  0  0  0  0  0  0
   98.4050   -3.0904    1.4289 C   0  0  0  0  0  0  0  0  0  0  0  0
   98.3828   -4.4338    2.0538 C   0  0  0  0  0  0  0  0  0  0  0  0
   97.7239   -5.4942    1.4249 C   0  0  0  0  0  0  0  0  0  0  0  0
   97.7039   -6.7500    2.0050 C   0  0  0  0  0  0  0  0  0  0  0  0
   98.3385   -6.9697    3.2299 C   0  0  0  0  0  0  0  0  0  0  0  0
   98.3297   -8.2979    3.8707 C   0  0  0  0  0  0  0  0  0  0  0  0
   98.8630   -8.5352    4.9239 O   0  0  0  0  0  0  0  0  0  0  0  0
   98.9954   -5.9084    3.8612 C   0  0  0  0  0  0  0  0  0  0  0  0
   99.0203   -4.6560    3.2786 C   0  0  0  0  0  0  0  0  0  0  0  0
   97.1837   -2.4560    1.1921 C   0  0  0  0  0  0  0  0  0  0  0  0
   95.8982   -3.0006    1.5915 C   0  0  0  0  0  0  0  0  0  0  0  0
   94.9651   -2.1195    1.1765 C   0  0  0  0  0  0  0  0  0  0  0  0
   95.6813   -1.0362    0.5322 C   0  0  0  0  0  0  0  0  0  0  0  0
   97.0118   -1.2565    0.5732 N   0  0  0  0  0  0  0  0  0  0  0  0
   93.9623    2.3814   -1.3923 H   0  0  0  0  0  0  0  0  0  0  0  0
   95.8555    4.0754   -2.2152 H   0  0  0  0  0  0  0  0  0  0  0  0
   97.7235    0.7962   -0.3229 H   0  0  0  0  0  0  0  0  0  0  0  0
   99.6933    3.8154   -3.8660 H   0  0  0  0  0  0  0  0  0  0  0  0
   99.7504    6.0405   -4.9651 H   0  0  0  0  0  0  0  0  0  0  0  0
   98.1385    9.1290   -3.5556 H   0  0  0  0  0  0  0  0  0  0  0  0
   97.4680    7.6910   -1.7354 H   0  0  0  0  0  0  0  0  0  0  0  0
   97.4212    5.4824   -0.6354 H   0  0  0  0  0  0  0  0  0  0  0  0
  101.1713    4.2553   -1.6944 H   0  0  0  0  0  0  0  0  0  0  0  0
  103.0281    2.5080   -0.8474 H   0  0  0  0  0  0  0  0  0  0  0  0
  102.9610   -2.5033    0.8600 H   0  0  0  0  0  0  0  0  0  0  0  0
  101.0672   -4.2100    1.6511 H   0  0  0  0  0  0  0  0  0  0  0  0
   99.2057   -0.6449    0.3672 H   0  0  0  0  0  0  0  0  0  0  0  0
   97.2417   -5.3296    0.4680 H   0  0  0  0  0  0  0  0  0  0  0  0
   97.1951   -7.5686    1.5065 H   0  0  0  0  0  0  0  0  0  0  0  0
   97.7838   -9.0772    3.2974 H   0  0  0  0  0  0  0  0  0  0  0  0
   99.4815   -6.0870    4.8143 H   0  0  0  0  0  0  0  0  0  0  0  0
   99.5182   -3.8325    3.7779 H   0  0  0  0  0  0  0  0  0  0  0  0
   95.7518   -3.9219    2.1315 H   0  0  0  0  0  0  0  0  0  0  0  0
   93.8951   -2.1684    1.2976 H   0  0  0  0  0  0  0  0  0  0  0  0
  105.9299    0.0294    0.0663 C   0  0  0  0  0  0  0  0  0  0  0  0
  106.5823    0.9414   -0.7854 C   0  0  0  0  0  0  0  0  0  0  0  0
  105.9691    1.8172   -1.7173 C   0  0  0  0  0  0  0  0  0  0  0  0
  106.9557    2.5473   -2.3221 C   0  0  0  0  0  0  0  0  0  0  0  0
  108.2013    2.1403   -1.7716 C   0  0  0  0  0  0  0  0  0  0  0  0
  107.9264    1.1570   -0.8601 N   0  0  0  0  0  0  0  0  0  0  0  0
  109.4722    2.6361   -2.0905 C   0  0  0  0  0  0  0  0  0  0  0  0
  109.5192    3.7673   -3.0457 C   0  0  0  0  0  0  0  0  0  0  0  0
  110.2321    3.6483   -4.2433 C   0  0  0  0  0  0  0  0  0  0  0  0
  110.2787    4.7012   -5.1360 C   0  0  0  0  0  0  0  0  0  0  0  0
  109.6171    5.9004   -4.8514 C   0  0  0  0  0  0  0  0  0  0  0  0
  109.6892    7.0116   -5.8183 C   0  0  0  0  0  0  0  0  0  0  0  0
  110.3016    6.9568   -6.8537 O   0  0  0  0  0  0  0  0  0  0  0  0
  108.9048    6.0213   -3.6559 C   0  0  0  0  0  0  0  0  0  0  0  0
  108.8547    4.9647   -2.7641 C   0  0  0  0  0  0  0  0  0  0  0  0
  110.6838    2.1521   -1.5922 C   0  0  0  0  0  0  0  0  0  0  0  0
  111.9695    2.7687   -1.8642 C   0  0  0  0  0  0  0  0  0  0  0  0
  112.8956    2.0053   -1.2483 C   0  0  0  0  0  0  0  0  0  0  0  0
  110.8490    1.0572   -0.7997 N   0  0  0  0  0  0  0  0  0  0  0  0
  112.1768    0.9280   -0.5995 C   0  0  0  0  0  0  0  0  0  0  0  0
  112.8206   -0.1019    0.1180 C   0  0  0  0  0  0  0  0  0  0  0  0
  112.1644   -1.1007    0.8645 C   0  0  0  0  0  0  0  0  0  0  0  0
  112.7771   -2.1241    1.6312 C   0  0  0  0  0  0  0  0  0  0  0  0
  111.7906   -2.8247    2.2686 C   0  0  0  0  0  0  0  0  0  0  0  0
  110.5420   -2.2586    1.8951 C   0  0  0  0  0  0  0  0  0  0  0  0
  110.8178   -1.2254    1.0399 N   0  0  0  0  0  0  0  0  0  0  0  0
  109.2748   -2.6319    2.3591 C   0  0  0  0  0  0  0  0  0  0  0  0
  109.2368   -3.7401    3.3456 C   0  0  0  0  0  0  0  0  0  0  0  0
  109.6487   -5.0254    2.9852 C   0  0  0  0  0  0  0  0  0  0  0  0
  109.6125   -6.0566    3.9075 C   0  0  0  0  0  0  0  0  0  0  0  0
  109.1701   -5.8196    5.2108 C   0  0  0  0  0  0  0  0  0  0  0  0
  109.1266   -6.8991    6.2153 C   0  0  0  0  0  0  0  0  0  0  0  0
  108.7621   -6.7392    7.3515 O   0  0  0  0  0  0  0  0  0  0  0  0
  108.7603   -4.5320    5.5721 C   0  0  0  0  0  0  0  0  0  0  0  0
  108.7902   -3.5044    4.6491 C   0  0  0  0  0  0  0  0  0  0  0  0
  108.0622   -2.0569    1.9783 C   0  0  0  0  0  0  0  0  0  0  0  0
  106.7694   -2.5088    2.4605 C   0  0  0  0  0  0  0  0  0  0  0  0
  105.8430   -1.7696    1.8168 C   0  0  0  0  0  0  0  0  0  0  0  0
  106.5692   -0.8743    0.9383 C   0  0  0  0  0  0  0  0  0  0  0  0
  107.8988   -1.0612    1.0641 N   0  0  0  0  0  0  0  0  0  0  0  0
  104.9095    1.8690   -1.9065 H   0  0  0  0  0  0  0  0  0  0  0  0
  106.8331    3.2908   -3.0925 H   0  0  0  0  0  0  0  0  0  0  0  0
  108.6258    0.6563   -0.3223 H   0  0  0  0  0  0  0  0  0  0  0  0
  110.7348    2.7156   -4.4728 H   0  0  0  0  0  0  0  0  0  0  0  0
  110.8257    4.6145   -6.0687 H   0  0  0  0  0  0  0  0  0  0  0  0
  109.1278    7.9199   -5.5127 H   0  0  0  0  0  0  0  0  0  0  0  0
  108.3921    6.9494   -3.4250 H   0  0  0  0  0  0  0  0  0  0  0  0
  108.3148    5.0688   -1.8296 H   0  0  0  0  0  0  0  0  0  0  0  0
  112.1207    3.6739   -2.4294 H   0  0  0  0  0  0  0  0  0  0  0  0
  113.9620    2.1517   -1.2046 H   0  0  0  0  0  0  0  0  0  0  0  0
  113.8385   -2.2944    1.6912 H   0  0  0  0  0  0  0  0  0  0  0  0
  111.9169   -3.6543    2.9447 H   0  0  0  0  0  0  0  0  0  0  0  0
  110.1179   -0.6292    0.6108 H   0  0  0  0  0  0  0  0  0  0  0  0
  109.9817   -5.2149    1.9709 H   0  0  0  0  0  0  0  0  0  0  0  0
  109.9280   -7.0536    3.6176 H   0  0  0  0  0  0  0  0  0  0  0  0
  109.4630   -7.8879    5.8373 H   0  0  0  0  0  0  0  0  0  0  0  0
  108.4213   -4.3567    6.5874 H   0  0  0  0  0  0  0  0  0  0  0  0
  108.4819   -2.5049    4.9340 H   0  0  0  0  0  0  0  0  0  0  0  0
  106.6127   -3.2936    3.1825 H   0  0  0  0  0  0  0  0  0  0  0  0
  104.7702   -1.8064    1.9136 H   0  0  0  0  0  0  0  0  0  0  0  0
  116.8535   -0.1645    0.0660 C   0  0  0  0  0  0  0  0  0  0  0  0
  117.4766    0.7076   -0.8497 C   0  0  0  0  0  0  0  0  0  0  0  0
  116.8364    1.5097   -1.8277 C   0  0  0  0  0  0  0  0  0  0  0  0
  117.7988    2.2325   -2.4784 C   0  0  0  0  0  0  0  0  0  0  0  0
  119.0568    1.8968   -1.9094 C   0  0  0  0  0  0  0  0  0  0  0  0
  118.8141    0.9540   -0.9467 N   0  0  0  0  0  0  0  0  0  0  0  0
  120.3078    2.4316   -2.2439 C   0  0  0  0  0  0  0  0  0  0  0  0
  120.3127    3.5256   -3.2424 C   0  0  0  0  0  0  0  0  0  0  0  0
  121.0468    3.3946   -4.4259 C   0  0  0  0  0  0  0  0  0  0  0  0
  121.0507    4.4108   -5.3614 C   0  0  0  0  0  0  0  0  0  0  0  0
  120.3248    5.5848   -5.1345 C   0  0  0  0  0  0  0  0  0  0  0  0
  120.3498    6.6565   -6.1476 C   0  0  0  0  0  0  0  0  0  0  0  0
  120.9752    6.5899   -7.1744 O   0  0  0  0  0  0  0  0  0  0  0  0
  119.5935    5.7188   -3.9519 C   0  0  0  0  0  0  0  0  0  0  0  0
  119.5861    4.6986   -3.0174 C   0  0  0  0  0  0  0  0  0  0  0  0
  121.5353    2.0218   -1.7186 C   0  0  0  0  0  0  0  0  0  0  0  0
  122.7932    2.6931   -1.9913 C   0  0  0  0  0  0  0  0  0  0  0  0
  123.7472    1.9904   -1.3461 C   0  0  0  0  0  0  0  0  0  0  0  0
  121.7428    0.9551   -0.8989 N   0  0  0  0  0  0  0  0  0  0  0  0
  123.0733    0.8929   -0.6837 C   0  0  0  0  0  0  0  0  0  0  0  0
  123.7556   -0.1046    0.0430 C   0  0  0  0  0  0  0  0  0  0  0  0
  123.1359   -1.1395    0.7713 C   0  0  0  0  0  0  0  0  0  0  0  0
  123.7834   -2.1642    1.5069 C   0  0  0  0  0  0  0  0  0  0  0  0
  122.8214   -2.9089    2.1324 C   0  0  0  0  0  0  0  0  0  0  0  0
  121.5546   -2.3667    1.7849 C   0  0  0  0  0  0  0  0  0  0  0  0
  121.7947   -1.3072    0.9519 N   0  0  0  0  0  0  0  0  0  0  0  0
  120.3032   -2.7734    2.2637 C   0  0  0  0  0  0  0  0  0  0  0  0
  120.3056   -3.9078    3.2209 C   0  0  0  0  0  0  0  0  0  0  0  0
  120.7272   -5.1753    2.8113 C   0  0  0  0  0  0  0  0  0  0  0  0
  120.7245   -6.2356    3.7005 C   0  0  0  0  0  0  0  0  0  0  0  0
  120.3060   -6.0465    5.0195 C   0  0  0  0  0  0  0  0  0  0  0  0
  120.2941   -7.1594    5.9873 C   0  0  0  0  0  0  0  0  0  0  0  0
  119.9427   -7.0447    7.1332 O   0  0  0  0  0  0  0  0  0  0  0  0
  119.8891   -4.7763    5.4308 C   0  0  0  0  0  0  0  0  0  0  0  0
  119.8866   -3.7193    4.5411 C   0  0  0  0  0  0  0  0  0  0  0  0
  119.0732   -2.2092    1.9248 C   0  0  0  0  0  0  0  0  0  0  0  0
  117.8023   -2.6754    2.4491 C   0  0  0  0  0  0  0  0  0  0  0  0
  116.8484   -1.9388    1.8442 C   0  0  0  0  0  0  0  0  0  0  0  0
  117.5329   -1.0379    0.9399 C   0  0  0  0  0  0  0  0  0  0  0  0
  118.8682   -1.2116    1.0203 N   0  0  0  0  0  0  0  0  0  0  0  0
  115.7767    1.5157   -2.0197 H   0  0  0  0  0  0  0  0  0  0  0  0
  117.6514    2.9254   -3.2905 H   0  0  0  0  0  0  0  0  0  0  0  0
  119.5298    0.5033   -0.3867 H   0  0  0  0  0  0  0  0  0  0  0  0
  121.5994    2.4805   -4.6109 H   0  0  0  0  0  0  0  0  0  0  0  0
  121.6128    4.3139   -6.2840 H   0  0  0  0  0  0  0  0  0  0  0  0
  119.7382    7.5461   -5.8861 H   0  0  0  0  0  0  0  0  0  0  0  0
  119.0317    6.6282   -3.7652 H   0  0  0  0  0  0  0  0  0  0  0  0
  119.0306    4.8138   -2.0933 H   0  0  0  0  0  0  0  0  0  0  0  0
  122.9067    3.5915   -2.5759 H   0  0  0  0  0  0  0  0  0  0  0  0
  124.8053    2.1874   -1.2951 H   0  0  0  0  0  0  0  0  0  0  0  0
  124.8497   -2.3086    1.5512 H   0  0  0  0  0  0  0  0  0  0  0  0
  122.9754   -3.7524    2.7851 H   0  0  0  0  0  0  0  0  0  0  0  0
  121.0754   -0.7213    0.5411 H   0  0  0  0  0  0  0  0  0  0  0  0
  121.0408   -5.3277    1.7847 H   0  0  0  0  0  0  0  0  0  0  0  0
  121.0466   -7.2186    3.3722 H   0  0  0  0  0  0  0  0  0  0  0  0
  120.6401   -8.1294    5.5709 H   0  0  0  0  0  0  0  0  0  0  0  0
  119.5698   -4.6380    6.4582 H   0  0  0  0  0  0  0  0  0  0  0  0
  119.5732   -2.7334    4.8652 H   0  0  0  0  0  0  0  0  0  0  0  0
  117.6765   -3.4651    3.1716 H   0  0  0  0  0  0  0  0  0  0  0  0
  115.7807   -1.9877    1.9772 H   0  0  0  0  0  0  0  0  0  0  0  0
  127.7884   -0.0420    0.0481 C   0  0  0  0  0  0  0  0  0  0  0  0
  128.4090    0.8381   -0.8608 C   0  0  0  0  0  0  0  0  0  0  0  0
  127.7648    1.6624   -1.8183 C   0  0  0  0  0  0  0  0  0  0  0  0
  128.7235    2.4055   -2.4509 C   0  0  0  0  0  0  0  0  0  0  0  0
  129.9838    2.0594   -1.8924 C   0  0  0  0  0  0  0  0  0  0  0  0
  129.7453    1.0931   -0.9522 N   0  0  0  0  0  0  0  0  0  0  0  0
  131.2341    2.5976   -2.2218 C   0  0  0  0  0  0  0  0  0  0  0  0
  131.2410    3.7016   -3.2094 C   0  0  0  0  0  0  0  0  0  0  0  0
  131.9540    3.5716   -4.4056 C   0  0  0  0  0  0  0  0  0  0  0  0
  131.9587    4.5974   -5.3305 C   0  0  0  0  0  0  0  0  0  0  0  0
  131.2561    5.7805   -5.0790 C   0  0  0  0  0  0  0  0  0  0  0  0
  131.2806    6.8619   -6.0817 C   0  0  0  0  0  0  0  0  0  0  0  0
  131.8757    6.7905   -7.1261 O   0  0  0  0  0  0  0  0  0  0  0  0
  130.5463    5.9135   -3.8833 C   0  0  0  0  0  0  0  0  0  0  0  0
  130.5362    4.8829   -2.9602 C   0  0  0  0  0  0  0  0  0  0  0  0
  132.4604    2.1727   -1.7047 C   0  0  0  0  0  0  0  0  0  0  0  0
  133.7307    2.8137   -1.9965 C   0  0  0  0  0  0  0  0  0  0  0  0
  134.6777    2.0891   -1.3658 C   0  0  0  0  0  0  0  0  0  0  0  0
  132.6521    1.1048   -0.8855 N   0  0  0  0  0  0  0  0  0  0  0  0
  133.9844    1.0120   -0.6870 C   0  0  0  0  0  0  0  0  0  0  0  0
  134.6511   -0.0172    0.0015 C   0  0  0  0  0  0  0  0  0  0  0  0
  134.0360   -1.0745    0.6953 C   0  0  0  0  0  0  0  0  0  0  0  0
  134.6886   -2.1486    1.3543 C   0  0  0  0  0  0  0  0  0  0  0  0
  133.7318   -2.9078    1.9709 C   0  0  0  0  0  0  0  0  0  0  0  0
  132.4673   -2.3091    1.7175 C   0  0  0  0  0  0  0  0  0  0  0  0
  132.6994   -1.2210    0.9213 N   0  0  0  0  0  0  0  0  0  0  0  0
  131.2173   -2.7155    2.2023 C   0  0  0  0  0  0  0  0  0  0  0  0
  131.2088   -3.8668    3.1336 C   0  0  0  0  0  0  0  0  0  0  0  0
  130.4659   -5.0117    2.8291 C   0  0  0  0  0  0  0  0  0  0  0  0
  130.4575   -6.0930    3.6918 C   0  0  0  0  0  0  0  0  0  0  0  0
  131.1883   -6.0498    4.8816 C   0  0  0  0  0  0  0  0  0  0  0  0
  131.1944   -7.1871    5.8202 C   0  0  0  0  0  0  0  0  0  0  0  0
  131.8100   -7.1961    6.8552 O   0  0  0  0  0  0  0  0  0  0  0  0
  131.9279   -4.9032    5.1895 C   0  0  0  0  0  0  0  0  0  0  0  0
  131.9403   -3.8258    4.3250 C   0  0  0  0  0  0  0  0  0  0  0  0
  129.9945   -2.1194    1.8848 C   0  0  0  0  0  0  0  0  0  0  0  0
  128.7345   -2.4800    2.5086 C   0  0  0  0  0  0  0  0  0  0  0  0
  127.7867   -1.7247    1.9157 C   0  0  0  0  0  0  0  0  0  0  0  0
  128.4665   -0.9065    0.9326 C   0  0  0  0  0  0  0  0  0  0  0  0
  129.7948   -1.1403    0.9603 N   0  0  0  0  0  0  0  0  0  0  0  0
  126.7042    1.6722   -2.0058 H   0  0  0  0  0  0  0  0  0  0  0  0
  128.5730    3.1207   -3.2428 H   0  0  0  0  0  0  0  0  0  0  0  0
  130.4655    0.6309   -0.4076 H   0  0  0  0  0  0  0  0  0  0  0  0
  132.4891    2.6509   -4.6089 H   0  0  0  0  0  0  0  0  0  0  0  0
  132.5038    4.5013   -6.2634 H   0  0  0  0  0  0  0  0  0  0  0  0
  130.6989    7.7635   -5.7948 H   0  0  0  0  0  0  0  0  0  0  0  0
  130.0026    6.8298   -3.6777 H   0  0  0  0  0  0  0  0  0  0  0  0
  129.9960    4.9955   -2.0268 H   0  0  0  0  0  0  0  0  0  0  0  0
  133.8572    3.7040   -2.5907 H   0  0  0  0  0  0  0  0  0  0  0  0
  135.7441    2.2475   -1.3461 H   0  0  0  0  0  0  0  0  0  0  0  0
  135.7540   -2.3134    1.3514 H   0  0  0  0  0  0  0  0  0  0  0  0
  133.8869   -3.8065    2.5451 H   0  0  0  0  0  0  0  0  0  0  0  0
  131.9774   -0.6056    0.5618 H   0  0  0  0  0  0  0  0  0  0  0  0
  129.9083   -5.0533    1.9002 H   0  0  0  0  0  0  0  0  0  0  0  0
  129.8833   -6.9797    3.4434 H   0  0  0  0  0  0  0  0  0  0  0  0
  130.5781   -8.0516    5.4933 H   0  0  0  0  0  0  0  0  0  0  0  0
  132.4878   -4.8760    6.1182 H   0  0  0  0  0  0  0  0  0  0  0  0
  132.5015   -2.9328    4.5761 H   0  0  0  0  0  0  0  0  0  0  0  0
  128.6153   -3.1958    3.3057 H   0  0  0  0  0  0  0  0  0  0  0  0
  126.7297   -1.6931    2.1219 H   0  0  0  0  0  0  0  0  0  0  0  0
  1  2  4  0  0  0  0
  2  3  4  0  0  0  0
  3  4  2  0  0  0  0
  4  5  4  0  0  0  0
  2  6  4  0  0  0  0
  5  6  4  0  0  0  0
  5  7  4  0  0  0  0
  7  8  1  0  0  0  0
  8  9  4  0  0  0  0
  9 10  4  0  0  0  0
 10 11  4  0  0  0  0
 11 12  1  0  0  0  0
 12 13  2  0  0  0  0
 11 14  4  0  0  0  0
  8 15  4  0  0  0  0
 14 15  4  0  0  0  0
  7 16  4  0  0  0  0
 16 17  1  0  0  0  0
 17 18  2  0  0  0  0
 16 19  4  0  0  0  0
 18 20  1  0  0  0  0
 19 20  4  0  0  0  0
 20 21  4  0  0  0  0
 21 22  4  0  0  0  0
 22 23  4  0  0  0  0
 23 24  2  0  0  0  0
 24 25  4  0  0  0  0
 22 26  4  0  0  0  0
 25 26  4  0  0  0  0
 25 27  4  0  0  0  0
 27 28  1  0  0  0  0
 28 29  4  0  0  0  0
 29 30  4  0  0  0  0
 30 31  4  0  0  0  0
 31 32  1  0  0  0  0
 32 33  2  0  0  0  0
 31 34  4  0  0  0  0
 28 35  4  0  0  0  0
 34 35  4  0  0  0  0
 27 36  4  0  0  0  0
 36 37  1  0  0  0  0
 37 38  2  0  0  0  0
  1 39  4  0  0  0  0
 38 39  1  0  0  0  0
 36 40  4  0  0  0  0
 39 40  4  0  0  0  0
  1 41  1  0  0  0  0
  3 42  1  0  0  0  0
  4 43  1  0  0  0  0
  6 44  1  0  0  0  0
  9 45  1  0  0  0  0
 10 46  1  0  0  0  0
 12 47  1  0  0  0  0
 14 48  1  0  0  0  0
 15 49  1  0  0  0  0
 17 50  1  0  0  0  0
 18 51  1  0  0  0  0
 23 52  1  0  0  0  0
 24 53  1  0  0  0  0
 26 54  1  0  0  0  0
 29 55  1  0  0  0  0
 30 56  1  0  0  0  0
 32 57  1  0  0  0  0
 34 58  1  0  0  0  0
 35 59  1  0  0  0  0
 37 60  1  0  0  0  0
 38 61  1  0  0  0  0
 62 63  4  0  0  0  0
 63 64  4  0  0  0  0
 64 65  2  0  0  0  0
 65 66  4  0  0  0  0
 63 67  4  0  0  0  0
 66 67  4  0  0  0  0
 66 68  4  0  0  0  0
 68 69  1  0  0  0  0
 69 70  4  0  0  0  0
 70 71  4  0  0  0  0
 71 72  4  0  0  0  0
 72 73  1  0  0  0  0
 73 74  2  0  0  0  0
 72 75  4  0  0  0  0
 69 76  4  0  0  0  0
 75 76  4  0  0  0  0
 68 77  4  0  0  0  0
 77 78  1  0  0  0  0
 78 79  2  0  0  0  0
 77 80  4  0  0  0  0
 79 81  1  0  0  0  0
 80 81  4  0  0  0  0
 81 82  4  0  0  0  0
 82 83  4  0  0  0  0
 83 84  4  0  0  0  0
 84 85  2  0  0  0  0
 85 86  4  0  0  0  0
 83 87  4  0  0  0  0
 86 87  4  0  0  0  0
 86 88  4  0  0  0  0
 88 89  1  0  0  0  0
 89 90  4  0  0  0  0
 90 91  4  0  0  0  0
 91 92  4  0  0  0  0
 92 93  1  0  0  0  0
 93 94  2  0  0  0  0
 92 95  4  0  0  0  0
 89 96  4  0  0  0  0
 95 96  4  0  0  0  0
 88 97  4  0  0  0  0
 97 98  1  0  0  0  0
 98 99  2  0  0  0  0
 62100  4  0  0  0  0
 99100  1  0  0  0  0
 97101  4  0  0  0  0
100101  4  0  0  0  0
 62102  1  0  0  0  0
 64103  1  0  0  0  0
 65104  1  0  0  0  0
 67105  1  0  0  0  0
 70106  1  0  0  0  0
 71107  1  0  0  0  0
 73108  1  0  0  0  0
 75109  1  0  0  0  0
 76110  1  0  0  0  0
 78111  1  0  0  0  0
 79112  1  0  0  0  0
 84113  1  0  0  0  0
 85114  1  0  0  0  0
 87115  1  0  0  0  0
 90116  1  0  0  0  0
 91117  1  0  0  0  0
 93118  1  0  0  0  0
 95119  1  0  0  0  0
 96120  1  0  0  0  0
 98121  1  0  0  0  0
 99122  1  0  0  0  0
 21123  4  0  0  0  0
123124  3  0  0  0  0
125126  3  0  0  0  0
127128  3  0  0  0  0
129130  3  0  0  0  0
 82132  1  0  0  0  0
131132  3  0  0  0  0
124133  4  0  0  0  0
133134  4  0  0  0  0
134135  4  0  0  0  0
135136  2  0  0  0  0
136137  4  0  0  0  0
134138  4  0  0  0  0
137138  4  0  0  0  0
137139  4  0  0  0  0
139140  1  0  0  0  0
140141  4  0  0  0  0
141142  4  0  0  0  0
142143  4  0  0  0  0
143144  1  0  0  0  0
144145  2  0  0  0  0
143146  4  0  0  0  0
140147  4  0  0  0  0
146147  4  0  0  0  0
139148  4  0  0  0  0
148149  1  0  0  0  0
149150  2  0  0  0  0
148151  4  0  0  0  0
150152  1  0  0  0  0
151152  4  0  0  0  0
125153  4  0  0  0  0
152153  4  0  0  0  0
153154  4  0  0  0  0
154155  4  0  0  0  0
155156  2  0  0  0  0
156157  4  0  0  0  0
154158  4  0  0  0  0
157158  4  0  0  0  0
157159  4  0  0  0  0
159160  1  0  0  0  0
160161  4  0  0  0  0
161162  4  0  0  0  0
162163  4  0  0  0  0
163164  1  0  0  0  0
164165  2  0  0  0  0
163166  4  0  0  0  0
160167  4  0  0  0  0
166167  4  0  0  0  0
159168  4  0  0  0  0
168169  1  0  0  0  0
169170  2  0  0  0  0
133171  4  0  0  0  0
170171  1  0  0  0  0
168172  4  0  0  0  0
171172  4  0  0  0  0
135173  1  0  0  0  0
136174  1  0  0  0  0
138175  1  0  0  0  0
141176  1  0  0  0  0
142177  1  0  0  0  0
144178  1  0  0  0  0
146179  1  0  0  0  0
147180  1  0  0  0  0
149181  1  0  0  0  0
150182  1  0  0  0  0
155183  1  0  0  0  0
156184  1  0  0  0  0
158185  1  0  0  0  0
161186  1  0  0  0  0
162187  1  0  0  0  0
164188  1  0  0  0  0
166189  1  0  0  0  0
167190  1  0  0  0  0
169191  1  0  0  0  0
170192  1  0  0  0  0
126193  4  0  0  0  0
193194  4  0  0  0  0
194195  4  0  0  0  0
195196  2  0  0  0  0
196197  4  0  0  0  0
194198  4  0  0  0  0
197198  4  0  0  0  0
197199  4  0  0  0  0
199200  1  0  0  0  0
200201  4  0  0  0  0
201202  4  0  0  0  0
202203  4  0  0  0  0
203204  1  0  0  0  0
204205  2  0  0  0  0
203206  4  0  0  0  0
200207  4  0  0  0  0
206207  4  0  0  0  0
199208  4  0  0  0  0
208209  1  0  0  0  0
209210  2  0  0  0  0
208211  4  0  0  0  0
210212  1  0  0  0  0
211212  4  0  0  0  0
127213  4  0  0  0  0
212213  4  0  0  0  0
213214  4  0  0  0  0
214215  4  0  0  0  0
215216  2  0  0  0  0
216217  4  0  0  0  0
214218  4  0  0  0  0
217218  4  0  0  0  0
217219  4  0  0  0  0
219220  1  0  0  0  0
220221  4  0  0  0  0
221222  4  0  0  0  0
222223  4  0  0  0  0
223224  1  0  0  0  0
224225  2  0  0  0  0
223226  4  0  0  0  0
220227  4  0  0  0  0
226227  4  0  0  0  0
219228  4  0  0  0  0
228229  1  0  0  0  0
229230  2  0  0  0  0
193231  4  0  0  0  0
230231  1  0  0  0  0
228232  4  0  0  0  0
231232  4  0  0  0  0
195233  1  0  0  0  0
196234  1  0  0  0  0
198235  1  0  0  0  0
201236  1  0  0  0  0
202237  1  0  0  0  0
204238  1  0  0  0  0
206239  1  0  0  0  0
207240  1  0  0  0  0
209241  1  0  0  0  0
210242  1  0  0  0  0
215243  1  0  0  0  0
216244  1  0  0  0  0
218245  1  0  0  0  0
221246  1  0  0  0  0
222247  1  0  0  0  0
224248  1  0  0  0  0
226249  1  0  0  0  0
227250  1  0  0  0  0
229251  1  0  0  0  0
230252  1  0  0  0  0
128253  4  0  0  0  0
253254  4  0  0  0  0
254255  4  0  0  0  0
255256  2  0  0  0  0
256257  4  0  0  0  0
254258  4  0  0  0  0
257258  4  0  0  0  0
257259  4  0  0  0  0
259260  1  0  0  0  0
260261  4  0  0  0  0
261262  4  0  0  0  0
262263  4  0  0  0  0
263264  1  0  0  0  0
264265  2  0  0  0  0
263266  4  0  0  0  0
260267  4  0  0  0  0
266267  4  0  0  0  0
259268  4  0  0  0  0
268269  1  0  0  0  0
269270  2  0  0  0  0
268271  4  0  0  0  0
270272  1  0  0  0  0
271272  4  0  0  0  0
129273  4  0  0  0  0
272273  4  0  0  0  0
273274  4  0  0  0  0
274275  4  0  0  0  0
275276  2  0  0  0  0
276277  4  0  0  0  0
274278  4  0  0  0  0
277278  4  0  0  0  0
277279  4  0  0  0  0
279280  1  0  0  0  0
280281  4  0  0  0  0
281282  4  0  0  0  0
282283  4  0  0  0  0
283284  1  0  0  0  0
284285  2  0  0  0  0
283286  4  0  0  0  0
280287  4  0  0  0  0
286287  4  0  0  0  0
279288  4  0  0  0  0
288289  1  0  0  0  0
289290  2  0  0  0  0
253291  4  0  0  0  0
290291  1  0  0  0  0
288292  4  0  0  0  0
291292  4  0  0  0  0
255293  1  0  0  0  0
256294  1  0  0  0  0
258295  1  0  0  0  0
261296  1  0  0  0  0
262297  1  0  0  0  0
264298  1  0  0  0  0
266299  1  0  0  0  0
267300  1  0  0  0  0
269301  1  0  0  0  0
270302  1  0  0  0  0
275303  1  0  0  0  0
276304  1  0  0  0  0
278305  1  0  0  0  0
281306  1  0  0  0  0
282307  1  0  0  0  0
284308  1  0  0  0  0
286309  1  0  0  0  0
287310  1  0  0  0  0
289311  1  0  0  0  0
290312  1  0  0  0  0
130313  4  0  0  0  0
313314  4  0  0  0  0
314315  4  0  0  0  0
315316  2  0  0  0  0
316317  4  0  0  0  0
314318  4  0  0  0  0
317318  4  0  0  0  0
317319  4  0  0  0  0
319320  1  0  0  0  0
320321  4  0  0  0  0
321322  4  0  0  0  0
322323  4  0  0  0  0
323324  1  0  0  0  0
324325  2  0  0  0  0
323326  4  0  0  0  0
320327  4  0  0  0  0
326327  4  0  0  0  0
319328  4  0  0  0  0
328329  1  0  0  0  0
329330  2  0  0  0  0
328331  4  0  0  0  0
330332  1  0  0  0  0
331332  4  0  0  0  0
131333  1  0  0  0  0
332333  4  0  0  0  0
333334  4  0  0  0  0
334335  4  0  0  0  0
335336  2  0  0  0  0
336337  4  0  0  0  0
334338  4  0  0  0  0
337338  4  0  0  0  0
337339  4  0  0  0  0
339340  1  0  0  0  0
340341  4  0  0  0  0
341342  4  0  0  0  0
342343  4  0  0  0  0
343344  1  0  0  0  0
344345  2  0  0  0  0
343346  4  0  0  0  0
340347  4  0  0  0  0
346347  4  0  0  0  0
339348  4  0  0  0  0
348349  1  0  0  0  0
349350  2  0  0  0  0
313351  4  0  0  0  0
350351  1  0  0  0  0
348352  4  0  0  0  0
351352  4  0  0  0  0
315353  1  0  0  0  0
316354  1  0  0  0  0
318355  1  0  0  0  0
321356  1  0  0  0  0
322357  1  0  0  0  0
324358  1  0  0  0  0
326359  1  0  0  0  0
327360  1  0  0  0  0
329361  1  0  0  0  0
330362  1  0  0  0  0
335363  1  0  0  0  0
336364  1  0  0  0  0
338365  1  0  0  0  0
341366  1  0  0  0  0
342367  1  0  0  0  0
344368  1  0  0  0  0
346369  1  0  0  0  0
347370  1  0  0  0  0
349371  1  0  0  0  0
350372  1  0  0  0  0
M  END
