444

C 72.862149 -0.027986 0.078125
C 73.596025 1.195073 0.709287
C 73.001955 2.215577 1.416308
C 74.027040 3.137199 1.755592
C 75.211458 2.652353 1.234677
N 74.944247 1.439802 0.649512
C 76.631600 3.357277 1.272372
C 76.623334 4.791906 1.592941
C 76.313756 5.683853 0.627331
C 76.244825 7.164800 0.833413
N 76.691622 7.554013 2.169025
C 76.930272 6.624065 3.154202
C 76.924125 5.305564 2.923818
C 77.757600 2.657881 0.968860
C 79.057018 3.295662 0.939417
C 79.959855 2.389006 0.583709
N 77.955462 1.345266 0.629407
C 79.284478 1.121812 0.377730
C 79.950794 -0.001902 0.000904
C 79.172954 -1.371750 -0.196115
C 79.712806 -2.639213 -0.096749
C 78.686789 -3.566536 -0.407028
C 77.545453 -2.840758 -0.677135
N 77.838251 -1.509442 -0.491329
C 76.132232 -3.423520 -1.101155
C 76.142114 -4.757869 -1.714433
C 75.750570 -5.828988 -0.989817
C 75.679969 -7.228154 -1.517416
N 76.237670 -7.338006 -2.864598
C 76.541624 -6.219867 -3.609208
C 76.523520 -4.980884 -3.103095
C 75.010866 -2.681479 -0.904935
C 73.690512 -3.145549 -1.292138
C 72.804344 -2.212348 -0.956052
C 73.525137 -1.116675 -0.355110
N 74.846222 -1.439434 -0.357934
H 71.784965 0.022981 -0.023577
H 71.951505 2.294963 1.649473
H 73.910764 4.063296 2.297960
H 75.639150 0.817458 0.244589
H 76.086535 5.314703 -0.369241
H 75.213107 7.502892 0.685376
H 76.873378 7.668917 0.091952
H 76.389439 8.464680 2.490137
H 77.136215 7.029450 4.138597
H 77.131703 4.578967 3.702117
H 79.260245 4.329459 1.156938
H 81.011260 2.584033 0.475712
H 80.735581 -2.874475 0.156816
H 78.771685 -4.642607 -0.438267
H 77.155423 -0.756681 -0.515147
H 75.441864 -5.674260 0.041474
H 74.634991 -7.556834 -1.530043
H 76.235504 -7.898730 -0.853717
H 75.912806 -8.130969 -3.403190
H 76.804152 -6.407188 -4.644623
H 76.774497 -4.108083 -3.696908
H 73.466804 -4.080203 -1.773492
H 71.741644 -2.254736 -1.111982
C 180.802755 -0.020441 0.080275
C 180.068879 -1.392484 -0.028056
C 180.662949 -2.632383 0.034846
C 179.637864 -3.594414 -0.162631
C 178.453446 -2.907813 -0.349734
N 178.720657 -1.568945 -0.207853
C 177.033304 -3.526724 -0.689275
C 177.041570 -4.914841 -1.173069
C 177.351148 -5.163827 -2.463796
C 177.420079 -6.530958 -3.069295
N 176.973282 -7.565727 -2.139457
C 176.734632 -7.294762 -0.812071
C 176.740779 -6.052867 -0.312852
C 175.907304 -2.772395 -0.578538
C 174.607886 -3.298858 -0.939741
C 173.705049 -2.340888 -0.764110
N 175.709443 -1.478011 -0.175107
C 174.380426 -1.155459 -0.271195
C 173.714111 -0.001902 0.000904
C 174.491950 1.266040 0.555543
C 173.952098 2.290747 1.308079
C 174.978115 3.242333 1.533210
C 176.119451 2.767947 0.921108
N 175.826653 1.538661 0.377251
C 177.532672 3.486682 0.867958
C 177.522790 4.943873 1.050150
C 177.914334 5.472149 2.230527
C 177.984935 6.939258 2.519694
N 177.427235 7.742727 1.432769
C 177.123280 7.185032 0.210618
C 177.141385 5.865371 -0.012374
C 178.654038 2.752670 0.643566
C 179.974392 3.351134 0.559140
C 180.860560 2.380949 0.352842
C 180.139767 1.133086 0.285976
N 178.818682 1.408854 0.453706
H 181.879939 -0.010143 -0.033017
H 181.713399 -2.822748 0.191143
H 179.754140 -4.667296 -0.189888
H 178.025754 -0.826640 -0.223909
H 177.578369 -4.324820 -3.116095
H 178.451797 -6.740234 -3.373309
H 176.791526 -6.568520 -3.965112
H 177.275465 -8.508870 -2.346603
H 176.528689 -8.158143 -0.189221
H 176.533201 -5.845660 0.731542
H 174.404659 -4.292032 -1.299820
H 172.653644 -2.449695 -0.958686
H 172.929323 2.357014 1.647568
H 174.893219 4.173239 2.073875
H 176.509481 0.911523 -0.039780
H 178.223040 4.797056 3.025354
H 179.029913 7.225225 2.682215
H 177.429400 7.159267 3.437172
H 177.752098 8.700483 1.393057
H 176.860753 7.889997 -0.570533
H 176.890407 5.436676 -0.977058
H 180.198100 4.399126 0.642756
H 181.923260 2.499162 0.242677
C 86.488677 -0.001032 0.009458
C 85.279738 -0.014487 0.001011
C 83.858209 -0.005668 -0.010972
C 82.646539 0.001771 -0.000109
C 87.905281 -0.007707 0.009991
C 89.125977 0.001771 -0.000109
C 102.867691 -0.001032 0.009458
C 101.658751 -0.014487 0.001011
C 100.237223 -0.005668 -0.010972
C 99.025553 0.001771 -0.000109
C 104.284295 -0.007707 0.009991
C 105.504991 0.001771 -0.000109
C 119.246704 -0.001032 0.009458
C 118.037765 -0.014487 0.001011
C 116.616236 -0.005668 -0.010972
C 115.404567 0.001771 -0.000109
C 120.663309 -0.007707 0.009991
C 121.884005 0.001771 -0.000109
C 135.625718 -0.001032 0.009458
C 134.416779 -0.014487 0.001011
C 132.995250 -0.005668 -0.010972
C 131.783580 0.001771 -0.000109
C 137.042322 -0.007707 0.009991
C 138.263018 0.001771 -0.000109
C 152.004732 -0.001032 0.009458
C 150.795792 -0.014487 0.001011
C 149.374263 -0.005668 -0.010972
C 148.162594 0.001771 -0.000109
C 153.421336 -0.007707 0.009991
C 154.642032 0.001771 -0.000109
C 168.383745 -0.001032 0.009458
C 167.174806 -0.014487 0.001011
C 165.753277 -0.005668 -0.010972
C 164.541607 0.001771 -0.000109
C 169.800350 -0.007707 0.009991
C 171.021045 0.001771 -0.000109
C 90.462965 0.000554 -0.000354
C 91.238657 -0.147012 1.378743
C 90.665480 -0.127797 2.634603
C 91.705978 -0.267593 3.580747
C 92.891996 -0.366473 2.882302
N 92.598830 -0.286825 1.540738
C 94.331598 -0.513896 3.527801
C 94.355206 -0.763908 4.978325
C 94.294291 -2.035221 5.429817
C 94.353552 -2.422864 6.874534
N 94.316589 -1.258081 7.758313
C 94.487933 0.018404 7.271443
C 94.500425 0.301600 5.963318
C 95.457511 -0.405134 2.774731
C 96.769616 -0.484176 3.382695
C 97.681536 -0.323509 2.432738
N 95.654301 -0.213770 1.432930
C 96.999136 -0.159663 1.164299
C 97.681997 0.000554 -0.000354
C 96.904946 0.105848 -1.381186
C 97.471418 0.017279 -2.637222
C 96.430987 0.152209 -3.584398
C 95.252527 0.316944 -2.885368
N 95.548413 0.272539 -1.543234
C 93.816549 0.496354 -3.528423
C 93.797323 0.764741 -4.975483
C 93.901554 2.038297 -5.412535
C 93.850277 2.444366 -6.852393
N 93.845440 1.289354 -7.749986
C 93.629516 0.014291 -7.276986
C 93.610735 -0.283315 -5.972211
C 92.690040 0.399867 -2.774579
C 91.378908 0.515554 -3.378281
C 90.465952 0.361182 -2.428506
C 91.147181 0.163802 -1.163936
N 92.492095 0.193930 -1.434930
H 89.615454 -0.016160 2.856513
H 91.601669 -0.283847 4.655596
H 93.283559 -0.287295 0.788258
H 94.213048 -2.841667 4.705845
H 95.272852 -2.988956 7.059546
H 93.505223 -3.071368 7.116054
H 94.681850 -1.411626 8.689933
H 94.609752 0.791073 8.022735
H 94.630288 1.311389 5.588693
H 96.979666 -0.634683 4.426633
H 98.742780 -0.332711 2.600599
H 98.516939 -0.134130 -2.857192
H 96.529953 0.125839 -4.659812
H 94.866406 0.310017 -0.789425
H 94.013767 2.833100 -4.679850
H 92.949186 3.042198 -7.027358
H 94.718433 3.067786 -7.089799
H 93.480420 1.466602 -8.677419
H 93.476206 -0.744459 -8.036428
H 93.444029 -1.291671 -5.608702
H 91.170121 0.686018 -4.419425
H 89.404881 0.395717 -2.594119
C 106.841978 0.000554 -0.000354
C 107.617671 -0.147012 1.378743
C 107.044494 -0.127797 2.634603
C 108.084992 -0.267593 3.580747
C 109.271009 -0.366473 2.882302
N 108.977843 -0.286825 1.540738
C 110.710612 -0.513896 3.527801
C 110.734220 -0.763908 4.978325
C 110.673304 -2.035221 5.429817
C 110.732565 -2.422864 6.874534
N 110.695602 -1.258081 7.758313
C 110.866946 0.018404 7.271443
C 110.879439 0.301600 5.963318
C 111.836525 -0.405134 2.774731
C 113.148630 -0.484176 3.382695
C 114.060550 -0.323509 2.432738
N 112.033315 -0.213770 1.432930
C 113.378150 -0.159663 1.164299
C 114.061011 0.000554 -0.000354
C 113.283959 0.105848 -1.381186
C 113.850431 0.017279 -2.637222
C 112.810001 0.152209 -3.584398
C 111.631541 0.316944 -2.885368
N 111.927427 0.272539 -1.543234
C 110.195563 0.496354 -3.528423
C 110.176337 0.764741 -4.975483
C 110.280568 2.038297 -5.412535
C 110.229290 2.444366 -6.852393
N 110.224453 1.289354 -7.749986
C 110.008529 0.014291 -7.276986
C 109.989749 -0.283315 -5.972211
C 109.069053 0.399867 -2.774579
C 107.757921 0.515554 -3.378281
C 106.844966 0.361182 -2.428506
C 107.526194 0.163802 -1.163936
N 108.871108 0.193930 -1.434930
H 105.994468 -0.016160 2.856513
H 107.980683 -0.283847 4.655596
H 109.662573 -0.287295 0.788258
H 110.592062 -2.841667 4.705845
H 111.651866 -2.988956 7.059546
H 109.884237 -3.071368 7.116054
H 111.060863 -1.411626 8.689933
H 110.988765 0.791073 8.022735
H 111.009302 1.311389 5.588693
H 113.358679 -0.634683 4.426633
H 115.121794 -0.332711 2.600599
H 114.895953 -0.134130 -2.857192
H 112.908966 0.125839 -4.659812
H 111.245420 0.310017 -0.789425
H 110.392781 2.833100 -4.679850
H 109.328199 3.042198 -7.027358
H 111.097447 3.067786 -7.089799
H 109.859433 1.466602 -8.677419
H 109.855219 -0.744459 -8.036428
H 109.823043 -1.291671 -5.608702
H 107.549135 0.686018 -4.419425
H 105.783894 0.395717 -2.594119
C 123.220992 0.000554 -0.000354
C 123.996684 -0.147012 1.378743
C 123.423507 -0.127797 2.634603
C 124.464006 -0.267593 3.580747
C 125.650023 -0.366473 2.882302
N 125.356857 -0.286825 1.540738
C 127.089625 -0.513896 3.527801
C 127.113234 -0.763908 4.978325
C 127.052318 -2.035221 5.429817
C 127.111579 -2.422864 6.874534
N 127.074616 -1.258081 7.758313
C 127.245960 0.018404 7.271443
C 127.258452 0.301600 5.963318
C 128.215538 -0.405134 2.774731
C 129.527643 -0.484176 3.382695
C 130.439563 -0.323509 2.432738
N 128.412328 -0.213770 1.432930
C 129.757163 -0.159663 1.164299
C 130.440025 0.000554 -0.000354
C 129.662973 0.105848 -1.381186
C 130.229445 0.017279 -2.637222
C 129.189014 0.152209 -3.584398
C 128.010554 0.316944 -2.885368
N 128.306441 0.272539 -1.543234
C 126.574577 0.496354 -3.528423
C 126.555351 0.764741 -4.975483
C 126.659581 2.038297 -5.412535
C 126.608304 2.444366 -6.852393
N 126.603467 1.289354 -7.749986
C 126.387543 0.014291 -7.276986
C 126.368762 -0.283315 -5.972211
C 125.448067 0.399867 -2.774579
C 124.136935 0.515554 -3.378281
C 123.223979 0.361182 -2.428506
C 123.905208 0.163802 -1.163936
N 125.250122 0.193930 -1.434930
H 122.373481 -0.016160 2.856513
H 124.359696 -0.283847 4.655596
H 126.041586 -0.287295 0.788258
H 126.971075 -2.841667 4.705845
H 128.030879 -2.988956 7.059546
H 126.263250 -3.071368 7.116054
H 127.439877 -1.411626 8.689933
H 127.367779 0.791073 8.022735
H 127.388316 1.311389 5.588693
H 129.737693 -0.634683 4.426633
H 131.500807 -0.332711 2.600599
H 131.274966 -0.134130 -2.857192
H 129.287980 0.125839 -4.659812
H 127.624433 0.310017 -0.789425
H 126.771795 2.833100 -4.679850
H 125.707213 3.042198 -7.027358
H 127.476460 3.067786 -7.089799
H 126.238447 1.466602 -8.677419
H 126.234233 -0.744459 -8.036428
H 126.202056 -1.291671 -5.608702
H 123.928149 0.686018 -4.419425
H 122.162908 0.395717 -2.594119
C 139.600005 0.000554 -0.000354
C 140.375698 -0.147012 1.378743
C 139.802521 -0.127797 2.634603
C 140.843019 -0.267593 3.580747
C 142.029037 -0.366473 2.882302
N 141.735870 -0.286825 1.540738
C 143.468639 -0.513896 3.527801
C 143.492247 -0.763908 4.978325
C 143.431332 -2.035221 5.429817
C 143.490593 -2.422864 6.874534
N 143.453630 -1.258081 7.758313
C 143.624973 0.018404 7.271443
C 143.637466 0.301600 5.963318
C 144.594552 -0.405134 2.774731
C 145.906657 -0.484176 3.382695
C 146.818577 -0.323509 2.432738
N 144.791342 -0.213770 1.432930
C 146.136177 -0.159663 1.164299
C 146.819038 0.000554 -0.000354
C 146.041986 0.105848 -1.381186
C 146.608459 0.017279 -2.637222
C 145.568028 0.152209 -3.584398
C 144.389568 0.316944 -2.885368
N 144.685454 0.272539 -1.543234
C 142.953590 0.496354 -3.528423
C 142.934364 0.764741 -4.975483
C 143.038595 2.038297 -5.412535
C 142.987318 2.444366 -6.852393
N 142.982480 1.289354 -7.749986
C 142.766556 0.014291 -7.276986
C 142.747776 -0.283315 -5.972211
C 141.827080 0.399867 -2.774579
C 140.515948 0.515554 -3.378281
C 139.602993 0.361182 -2.428506
C 140.284221 0.163802 -1.163936
N 141.629135 0.193930 -1.434930
H 138.752495 -0.016160 2.856513
H 140.738710 -0.283847 4.655596
H 142.420600 -0.287295 0.788258
H 143.350089 -2.841667 4.705845
H 144.409893 -2.988956 7.059546
H 142.642264 -3.071368 7.116054
H 143.818891 -1.411626 8.689933
H 143.746792 0.791073 8.022735
H 143.767329 1.311389 5.588693
H 146.116706 -0.634683 4.426633
H 147.879821 -0.332711 2.600599
H 147.653980 -0.134130 -2.857192
H 145.666993 0.125839 -4.659812
H 144.003447 0.310017 -0.789425
H 143.150808 2.833100 -4.679850
H 142.086227 3.042198 -7.027358
H 143.855474 3.067786 -7.089799
H 142.617461 1.466602 -8.677419
H 142.613247 -0.744459 -8.036428
H 142.581070 -1.291671 -5.608702
H 140.307162 0.686018 -4.419425
H 138.541922 0.395717 -2.594119
C 155.979019 0.000554 -0.000354
C 156.754712 -0.147012 1.378743
C 156.181534 -0.127797 2.634603
C 157.222033 -0.267593 3.580747
C 158.408050 -0.366473 2.882302
N 158.114884 -0.286825 1.540738
C 159.847652 -0.513896 3.527801
C 159.871261 -0.763908 4.978325
C 159.810345 -2.035221 5.429817
C 159.869606 -2.422864 6.874534
N 159.832643 -1.258081 7.758313
C 160.003987 0.018404 7.271443
C 160.016480 0.301600 5.963318
C 160.973565 -0.405134 2.774731
C 162.285670 -0.484176 3.382695
C 163.197591 -0.323509 2.432738
N 161.170356 -0.213770 1.432930
C 162.515191 -0.159663 1.164299
C 163.198052 0.000554 -0.000354
C 162.421000 0.105848 -1.381186
C 162.987472 0.017279 -2.637222
C 161.947042 0.152209 -3.584398
C 160.768582 0.316944 -2.885368
N 161.064468 0.272539 -1.543234
C 159.332604 0.496354 -3.528423
C 159.313378 0.764741 -4.975483
C 159.417609 2.038297 -5.412535
C 159.366331 2.444366 -6.852393
N 159.361494 1.289354 -7.749986
C 159.145570 0.014291 -7.276986
C 159.126790 -0.283315 -5.972211
C 158.206094 0.399867 -2.774579
C 156.894962 0.515554 -3.378281
C 155.982006 0.361182 -2.428506
C 156.663235 0.163802 -1.163936
N 158.008149 0.193930 -1.434930
H 155.131508 -0.016160 2.856513
H 157.117724 -0.283847 4.655596
H 158.799614 -0.287295 0.788258
H 159.729103 -2.841667 4.705845
H 160.788907 -2.988956 7.059546
H 159.021277 -3.071368 7.116054
H 160.197904 -1.411626 8.689933
H 160.125806 0.791073 8.022735
H 160.146343 1.311389 5.588693
H 162.495720 -0.634683 4.426633
H 164.258835 -0.332711 2.600599
H 164.032994 -0.134130 -2.857192
H 162.046007 0.125839 -4.659812
H 160.382461 0.310017 -0.789425
H 159.529822 2.833100 -4.679850
H 158.465240 3.042198 -7.027358
H 160.234488 3.067786 -7.089799
H 158.996474 1.466602 -8.677419
H 158.992260 -0.744459 -8.036428
H 158.960083 -1.291671 -5.608702
H 156.686176 0.686018 -4.419425
H 154.920935 0.395717 -2.594119
