 xtb: 6.5.1 (b24c23e)
          07302213313D

260299  0     0  0            999 V2000
   54.8560    0.0354   -0.0436 Cu  0  0  0  0  0  0  0  0  0  0  0  0
   51.4517    0.0349   -0.0406 C   0  0  0  0  0  0  0  0  0  0  0  0
   52.0770   -0.0265    1.1955 C   0  0  0  0  0  0  0  0  0  0  0  0
   51.3929   -0.1343    2.4527 C   0  0  0  0  0  0  0  0  0  0  0  0
   52.3433   -0.1576    3.4190 C   0  0  0  0  0  0  0  0  0  0  0  0
   53.6178   -0.0499    2.7610 C   0  0  0  0  0  0  0  0  0  0  0  0
   53.4252    0.0154    1.4111 N   0  0  0  0  0  0  0  0  0  0  0  0
   54.8575   -0.0276    3.4038 C   0  0  0  0  0  0  0  0  0  0  0  0
   54.8636   -0.0815    4.8861 C   0  0  0  0  0  0  0  0  0  0  0  0
   54.2593    0.9303    5.6362 C   0  0  0  0  0  0  0  0  0  0  0  0
   54.2681    0.8805    7.0206 C   0  0  0  0  0  0  0  0  0  0  0  0
   54.8821   -0.1938    7.6438 C   0  0  0  0  0  0  0  0  0  0  0  0
   54.9067   -0.2592    9.3955 S   0  0  0  0  0  0  0  0  0  0  0  0
   54.7473    1.0514    9.9521 O   0  0  0  0  0  0  0  0  0  0  0  0
   53.5272   -1.0864    9.6217 O   0  0  0  0  0  0  0  0  0  0  0  0
   55.9894   -1.0747    9.8631 O   0  0  0  0  0  0  0  0  0  0  0  0
   55.4908   -1.2118    6.9276 C   0  0  0  0  0  0  0  0  0  0  0  0
   55.4799   -1.1492    5.5442 C   0  0  0  0  0  0  0  0  0  0  0  0
   56.0957    0.0330    2.7596 C   0  0  0  0  0  0  0  0  0  0  0  0
   57.3652    0.1311    3.4238 C   0  0  0  0  0  0  0  0  0  0  0  0
   58.3182    0.1573    2.4582 C   0  0  0  0  0  0  0  0  0  0  0  0
   56.2939    0.0210    1.4057 N   0  0  0  0  0  0  0  0  0  0  0  0
   57.6391    0.0824    1.1991 C   0  0  0  0  0  0  0  0  0  0  0  0
   58.2820    0.0331   -0.0470 C   0  0  0  0  0  0  0  0  0  0  0  0
   57.6372   -0.0148   -1.2920 C   0  0  0  0  0  0  0  0  0  0  0  0
   58.3137   -0.0888   -2.5527 C   0  0  0  0  0  0  0  0  0  0  0  0
   57.3588   -0.0610   -3.5163 C   0  0  0  0  0  0  0  0  0  0  0  0
   56.0908    0.0361   -2.8492 C   0  0  0  0  0  0  0  0  0  0  0  0
   56.2917    0.0476   -1.4958 N   0  0  0  0  0  0  0  0  0  0  0  0
   54.8514    0.0950   -3.4906 C   0  0  0  0  0  0  0  0  0  0  0  0
   54.8529    0.1439   -4.9735 C   0  0  0  0  0  0  0  0  0  0  0  0
   54.2553   -0.8770   -5.7165 C   0  0  0  0  0  0  0  0  0  0  0  0
   54.2528   -0.8304   -7.1010 C   0  0  0  0  0  0  0  0  0  0  0  0
   54.8494    0.2495   -7.7311 C   0  0  0  0  0  0  0  0  0  0  0  0
   54.8343    0.3266   -9.4824 S   0  0  0  0  0  0  0  0  0  0  0  0
   54.9077    1.6861   -9.9291 O   0  0  0  0  0  0  0  0  0  0  0  0
   56.2690   -0.3822   -9.7632 O   0  0  0  0  0  0  0  0  0  0  0  0
   53.8105   -0.5182  -10.0241 O   0  0  0  0  0  0  0  0  0  0  0  0
   55.4456    1.2797   -7.0218 C   0  0  0  0  0  0  0  0  0  0  0  0
   55.4480    1.2193   -5.6381 C   0  0  0  0  0  0  0  0  0  0  0  0
   53.6130    0.1180   -2.8457 C   0  0  0  0  0  0  0  0  0  0  0  0
   52.3374    0.2236   -3.5020 C   0  0  0  0  0  0  0  0  0  0  0  0
   51.3885    0.2013   -2.5341 C   0  0  0  0  0  0  0  0  0  0  0  0
   52.0748    0.0962   -1.2778 C   0  0  0  0  0  0  0  0  0  0  0  0
   53.4227    0.0549   -1.4954 N   0  0  0  0  0  0  0  0  0  0  0  0
   50.3667    0.0344   -0.0397 H   0  0  0  0  0  0  0  0  0  0  0  0
   50.3219   -0.1935    2.5657 H   0  0  0  0  0  0  0  0  0  0  0  0
   52.2016   -0.2499    4.4838 H   0  0  0  0  0  0  0  0  0  0  0  0
   53.7960    1.7689    5.1297 H   0  0  0  0  0  0  0  0  0  0  0  0
   53.8127    1.6649    7.6119 H   0  0  0  0  0  0  0  0  0  0  0  0
   53.4377   -1.3391   10.5486 H   0  0  0  0  0  0  0  0  0  0  0  0
   55.9667   -2.0340    7.4472 H   0  0  0  0  0  0  0  0  0  0  0  0
   55.9414   -1.9403    4.9647 H   0  0  0  0  0  0  0  0  0  0  0  0
   57.5050    0.1871    4.4912 H   0  0  0  0  0  0  0  0  0  0  0  0
   59.3876    0.2243    2.5786 H   0  0  0  0  0  0  0  0  0  0  0  0
   59.3830   -0.1562   -2.6750 H   0  0  0  0  0  0  0  0  0  0  0  0
   57.4957   -0.1144   -4.5842 H   0  0  0  0  0  0  0  0  0  0  0  0
   53.8022   -1.7176   -5.2041 H   0  0  0  0  0  0  0  0  0  0  0  0
   53.7921   -1.6160   -7.6866 H   0  0  0  0  0  0  0  0  0  0  0  0
   56.3931   -0.5170  -10.7106 H   0  0  0  0  0  0  0  0  0  0  0  0
   55.8922    2.1148   -7.5467 H   0  0  0  0  0  0  0  0  0  0  0  0
   55.8991    2.0200   -5.0637 H   0  0  0  0  0  0  0  0  0  0  0  0
   52.1942    0.3134   -4.5667 H   0  0  0  0  0  0  0  0  0  0  0  0
   50.3174    0.2595   -2.6456 H   0  0  0  0  0  0  0  0  0  0  0  0
   87.5604    0.0286   -0.0805 Cu  0  0  0  0  0  0  0  0  0  0  0  0
   90.9668    0.0380   -0.1191 C   0  0  0  0  0  0  0  0  0  0  0  0
   90.3287   -0.0927   -1.3429 C   0  0  0  0  0  0  0  0  0  0  0  0
   91.0010   -0.2548   -2.6003 C   0  0  0  0  0  0  0  0  0  0  0  0
   90.0406   -0.3534   -3.5519 C   0  0  0  0  0  0  0  0  0  0  0  0
   88.7717   -0.2445   -2.8840 C   0  0  0  0  0  0  0  0  0  0  0  0
   88.9772   -0.0901   -1.5434 N   0  0  0  0  0  0  0  0  0  0  0  0
   87.5258   -0.3226   -3.5098 C   0  0  0  0  0  0  0  0  0  0  0  0
   87.5113   -0.4535   -4.9879 C   0  0  0  0  0  0  0  0  0  0  0  0
   88.0373    0.5651   -5.7863 C   0  0  0  0  0  0  0  0  0  0  0  0
   88.0205    0.4565   -7.1671 C   0  0  0  0  0  0  0  0  0  0  0  0
   87.4785   -0.6835   -7.7376 C   0  0  0  0  0  0  0  0  0  0  0  0
   87.4435   -0.8226   -9.4854 S   0  0  0  0  0  0  0  0  0  0  0  0
   87.5494    0.4710  -10.0909 O   0  0  0  0  0  0  0  0  0  0  0  0
   88.8479   -1.6115   -9.6941 O   0  0  0  0  0  0  0  0  0  0  0  0
   86.3899   -1.6967   -9.9118 O   0  0  0  0  0  0  0  0  0  0  0  0
   86.9502   -1.7108   -6.9726 C   0  0  0  0  0  0  0  0  0  0  0  0
   86.9676   -1.5893   -5.5928 C   0  0  0  0  0  0  0  0  0  0  0  0
   86.2933   -0.2819   -2.8550 C   0  0  0  0  0  0  0  0  0  0  0  0
   85.0145   -0.3136   -3.5069 C   0  0  0  0  0  0  0  0  0  0  0  0
   84.0711   -0.2287   -2.5355 C   0  0  0  0  0  0  0  0  0  0  0  0
   86.1090   -0.1697   -1.5027 N   0  0  0  0  0  0  0  0  0  0  0  0
   84.7648   -0.1351   -1.2859 C   0  0  0  0  0  0  0  0  0  0  0  0
   84.1333    0.0011   -0.0394 C   0  0  0  0  0  0  0  0  0  0  0  0
   84.7921    0.1520    1.1912 C   0  0  0  0  0  0  0  0  0  0  0  0
   84.1272    0.2432    2.4565 C   0  0  0  0  0  0  0  0  0  0  0  0
   85.0922    0.3539    3.4039 C   0  0  0  0  0  0  0  0  0  0  0  0
   86.3551    0.3373    2.7214 C   0  0  0  0  0  0  0  0  0  0  0  0
   86.1402    0.2110    1.3749 N   0  0  0  0  0  0  0  0  0  0  0  0
   87.6019    0.3990    3.3467 C   0  0  0  0  0  0  0  0  0  0  0  0
   87.6190    0.5443    4.8235 C   0  0  0  0  0  0  0  0  0  0  0  0
   88.1690   -0.4628    5.6201 C   0  0  0  0  0  0  0  0  0  0  0  0
   88.1841   -0.3392    6.9997 C   0  0  0  0  0  0  0  0  0  0  0  0
   87.6483    0.8035    7.5705 C   0  0  0  0  0  0  0  0  0  0  0  0
   87.6760    0.9738    9.3157 S   0  0  0  0  0  0  0  0  0  0  0  0
   87.7106    2.3551    9.6986 O   0  0  0  0  0  0  0  0  0  0  0  0
   86.1850    0.4163    9.6381 O   0  0  0  0  0  0  0  0  0  0  0  0
   88.6359    0.0782    9.8884 O   0  0  0  0  0  0  0  0  0  0  0  0
   87.1028    1.8228    6.8066 C   0  0  0  0  0  0  0  0  0  0  0  0
   87.0874    1.6859    5.4283 C   0  0  0  0  0  0  0  0  0  0  0  0
   88.8336    0.3259    2.6932 C   0  0  0  0  0  0  0  0  0  0  0  0
   90.1168    0.4452    3.3314 C   0  0  0  0  0  0  0  0  0  0  0  0
   91.0559    0.3423    2.3593 C   0  0  0  0  0  0  0  0  0  0  0  0
   90.3560    0.1695    1.1184 C   0  0  0  0  0  0  0  0  0  0  0  0
   89.0095    0.1627    1.3493 N   0  0  0  0  0  0  0  0  0  0  0  0
   92.0518    0.0395   -0.1313 H   0  0  0  0  0  0  0  0  0  0  0  0
   92.0717   -0.2954   -2.7231 H   0  0  0  0  0  0  0  0  0  0  0  0
   90.1714   -0.5007   -4.6118 H   0  0  0  0  0  0  0  0  0  0  0  0
   88.4457    1.4541   -5.3198 H   0  0  0  0  0  0  0  0  0  0  0  0
   88.4146    1.2452   -7.7956 H   0  0  0  0  0  0  0  0  0  0  0  0
   88.8826   -1.9997  -10.5769 H   0  0  0  0  0  0  0  0  0  0  0  0
   86.5295   -2.5858   -7.4520 H   0  0  0  0  0  0  0  0  0  0  0  0
   86.5681   -2.3857   -4.9757 H   0  0  0  0  0  0  0  0  0  0  0  0
   84.8616   -0.3765   -4.5720 H   0  0  0  0  0  0  0  0  0  0  0  0
   82.9989   -0.2165   -2.6477 H   0  0  0  0  0  0  0  0  0  0  0  0
   83.0584    0.2129    2.5949 H   0  0  0  0  0  0  0  0  0  0  0  0
   84.9644    0.4249    4.4719 H   0  0  0  0  0  0  0  0  0  0  0  0
   88.5742   -1.3531    5.1534 H   0  0  0  0  0  0  0  0  0  0  0  0
   88.6068   -1.1143    7.6265 H   0  0  0  0  0  0  0  0  0  0  0  0
   85.9168    0.6823   10.5262 H   0  0  0  0  0  0  0  0  0  0  0  0
   86.7041    2.7083    7.2856 H   0  0  0  0  0  0  0  0  0  0  0  0
   86.6749    2.4760    4.8118 H   0  0  0  0  0  0  0  0  0  0  0  0
   90.2708    0.6014    4.3869 H   0  0  0  0  0  0  0  0  0  0  0  0
   92.1289    0.3875    2.4577 H   0  0  0  0  0  0  0  0  0  0  0  0
   59.6954    0.0306   -0.0470 C   0  0  0  0  0  0  0  0  0  0  0  0
   60.9105    0.0263   -0.0465 C   0  0  0  0  0  0  0  0  0  0  0  0
   70.5979   -0.0449    0.0315 C   0  0  0  0  0  0  0  0  0  0  0  0
   71.8147   -0.0464    0.0388 C   0  0  0  0  0  0  0  0  0  0  0  0
   81.5067   -0.0209   -0.0054 C   0  0  0  0  0  0  0  0  0  0  0  0
   82.7223   -0.0118   -0.0224 C   0  0  0  0  0  0  0  0  0  0  0  0
   65.7549   -0.0092   -0.0083 Cu  0  0  0  0  0  0  0  0  0  0  0  0
   62.3233    0.0185   -0.0382 C   0  0  0  0  0  0  0  0  0  0  0  0
   62.9691    0.9815    0.7528 C   0  0  0  0  0  0  0  0  0  0  0  0
   62.2953    1.9432    1.5739 C   0  0  0  0  0  0  0  0  0  0  0  0
   63.2520    2.7350    2.1214 C   0  0  0  0  0  0  0  0  0  0  0  0
   64.5172    2.2647    1.6316 C   0  0  0  0  0  0  0  0  0  0  0  0
   64.3137    1.1865    0.8151 N   0  0  0  0  0  0  0  0  0  0  0  0
   65.7579    2.8282    1.9393 C   0  0  0  0  0  0  0  0  0  0  0  0
   65.7595    4.0645    2.7589 C   0  0  0  0  0  0  0  0  0  0  0  0
   66.3954    4.0880    4.0027 C   0  0  0  0  0  0  0  0  0  0  0  0
   66.4036    5.2434    4.7665 C   0  0  0  0  0  0  0  0  0  0  0  0
   65.7742    6.3735    4.2701 C   0  0  0  0  0  0  0  0  0  0  0  0
   65.7983    7.8457    5.2222 S   0  0  0  0  0  0  0  0  0  0  0  0
   65.6034    8.9895    4.3820 O   0  0  0  0  0  0  0  0  0  0  0  0
   64.4428    7.5970    6.0809 O   0  0  0  0  0  0  0  0  0  0  0  0
   66.9015    7.8478    6.1381 O   0  0  0  0  0  0  0  0  0  0  0  0
   65.1394    6.3827    3.0388 C   0  0  0  0  0  0  0  0  0  0  0  0
   65.1316    5.2198    2.2864 C   0  0  0  0  0  0  0  0  0  0  0  0
   66.9967    2.3291    1.5310 C   0  0  0  0  0  0  0  0  0  0  0  0
   68.2625    2.9580    1.7819 C   0  0  0  0  0  0  0  0  0  0  0  0
   69.2167    2.1568    1.2440 C   0  0  0  0  0  0  0  0  0  0  0  0
   67.1989    1.1711    0.8294 N   0  0  0  0  0  0  0  0  0  0  0  0
   68.5422    1.0379    0.6572 C   0  0  0  0  0  0  0  0  0  0  0  0
   69.1886   -0.0374    0.0223 C   0  0  0  0  0  0  0  0  0  0  0  0
   68.5365   -1.1028   -0.6233 C   0  0  0  0  0  0  0  0  0  0  0  0
   69.2026   -2.2329   -1.1979 C   0  0  0  0  0  0  0  0  0  0  0  0
   68.2451   -3.0178   -1.7539 C   0  0  0  0  0  0  0  0  0  0  0  0
   66.9856   -2.3675   -1.5266 C   0  0  0  0  0  0  0  0  0  0  0  0
   67.1943   -1.2136   -0.8201 N   0  0  0  0  0  0  0  0  0  0  0  0
   65.7463   -2.8443   -1.9597 C   0  0  0  0  0  0  0  0  0  0  0  0
   65.7404   -4.0784   -2.7823 C   0  0  0  0  0  0  0  0  0  0  0  0
   66.4038   -4.1130   -4.0116 C   0  0  0  0  0  0  0  0  0  0  0  0
   66.4023   -5.2658   -4.7795 C   0  0  0  0  0  0  0  0  0  0  0  0
   65.7348   -6.3822   -4.3023 C   0  0  0  0  0  0  0  0  0  0  0  0
   65.7469   -7.8515   -5.2587 S   0  0  0  0  0  0  0  0  0  0  0  0
   65.5111   -8.9953   -4.4287 O   0  0  0  0  0  0  0  0  0  0  0  0
   64.4121   -7.5729   -6.1418 O   0  0  0  0  0  0  0  0  0  0  0  0
   66.8682   -7.8727   -6.1519 O   0  0  0  0  0  0  0  0  0  0  0  0
   65.0721   -6.3805   -3.0857 C   0  0  0  0  0  0  0  0  0  0  0  0
   65.0751   -5.2205   -2.3289 C   0  0  0  0  0  0  0  0  0  0  0  0
   64.5099   -2.2595   -1.6747 C   0  0  0  0  0  0  0  0  0  0  0  0
   63.2461   -2.7064   -2.1895 C   0  0  0  0  0  0  0  0  0  0  0  0
   62.2929   -1.9006   -1.6565 C   0  0  0  0  0  0  0  0  0  0  0  0
   62.9675   -0.9528   -0.8203 C   0  0  0  0  0  0  0  0  0  0  0  0
   64.3095   -1.1799   -0.8591 N   0  0  0  0  0  0  0  0  0  0  0  0
   61.2271    1.9962    1.7110 H   0  0  0  0  0  0  0  0  0  0  0  0
   63.1179    3.5563    2.8066 H   0  0  0  0  0  0  0  0  0  0  0  0
   66.8743    3.1905    4.3763 H   0  0  0  0  0  0  0  0  0  0  0  0
   66.8944    5.2732    5.7313 H   0  0  0  0  0  0  0  0  0  0  0  0
   64.3850    8.2311    6.8060 H   0  0  0  0  0  0  0  0  0  0  0  0
   64.6675    7.2873    2.6763 H   0  0  0  0  0  0  0  0  0  0  0  0
   64.6512    5.2087    1.3150 H   0  0  0  0  0  0  0  0  0  0  0  0
   68.3996    3.8995    2.2886 H   0  0  0  0  0  0  0  0  0  0  0  0
   70.2833    2.3114    1.2293 H   0  0  0  0  0  0  0  0  0  0  0  0
   70.2659   -2.4058   -1.1630 H   0  0  0  0  0  0  0  0  0  0  0  0
   68.3757   -3.9616   -2.2581 H   0  0  0  0  0  0  0  0  0  0  0  0
   66.9120   -3.2259   -4.3710 H   0  0  0  0  0  0  0  0  0  0  0  0
   66.9143   -5.3039   -5.7329 H   0  0  0  0  0  0  0  0  0  0  0  0
   64.3269   -8.2399   -6.8339 H   0  0  0  0  0  0  0  0  0  0  0  0
   64.5705   -7.2748   -2.7377 H   0  0  0  0  0  0  0  0  0  0  0  0
   64.5732   -5.2017   -1.3685 H   0  0  0  0  0  0  0  0  0  0  0  0
   63.1105   -3.5226   -2.8806 H   0  0  0  0  0  0  0  0  0  0  0  0
   61.2267   -1.9348   -1.8137 H   0  0  0  0  0  0  0  0  0  0  0  0
   76.6619   -0.0459    0.0288 Cu  0  0  0  0  0  0  0  0  0  0  0  0
   73.2241   -0.0484    0.0395 C   0  0  0  0  0  0  0  0  0  0  0  0
   73.8751    0.7142    1.0251 C   0  0  0  0  0  0  0  0  0  0  0  0
   73.2037    1.4337    2.0655 C   0  0  0  0  0  0  0  0  0  0  0  0
   74.1617    2.0448    2.8075 C   0  0  0  0  0  0  0  0  0  0  0  0
   75.4268    1.7030    2.2218 C   0  0  0  0  0  0  0  0  0  0  0  0
   75.2201    0.8856    1.1432 N   0  0  0  0  0  0  0  0  0  0  0  0
   76.6689    2.1230    2.7020 C   0  0  0  0  0  0  0  0  0  0  0  0
   76.6705    3.0640    3.8494 C   0  0  0  0  0  0  0  0  0  0  0  0
   77.2498    2.6934    5.0652 C   0  0  0  0  0  0  0  0  0  0  0  0
   77.2532    3.5692    6.1386 C   0  0  0  0  0  0  0  0  0  0  0  0
   76.6762    4.8184    5.9793 C   0  0  0  0  0  0  0  0  0  0  0  0
   76.6901    5.9386    7.3287 S   0  0  0  0  0  0  0  0  0  0  0  0
   76.6509    7.2969    6.8711 O   0  0  0  0  0  0  0  0  0  0  0  0
   75.2304    5.5898    7.9480 O   0  0  0  0  0  0  0  0  0  0  0  0
   77.6948    5.5626    8.2777 O   0  0  0  0  0  0  0  0  0  0  0  0
   76.0997    5.2171    4.7842 C   0  0  0  0  0  0  0  0  0  0  0  0
   76.0962    4.3311    3.7196 C   0  0  0  0  0  0  0  0  0  0  0  0
   77.9092    1.7340    2.1918 C   0  0  0  0  0  0  0  0  0  0  0  0
   79.1785    2.2250    2.6489 C   0  0  0  0  0  0  0  0  0  0  0  0
   80.1320    1.6198    1.8965 C   0  0  0  0  0  0  0  0  0  0  0  0
   78.1085    0.8490    1.1669 N   0  0  0  0  0  0  0  0  0  0  0  0
   79.4527    0.7624    0.9717 C   0  0  0  0  0  0  0  0  0  0  0  0
   80.0961   -0.0307    0.0074 C   0  0  0  0  0  0  0  0  0  0  0  0
   79.4479   -0.8344   -0.9450 C   0  0  0  0  0  0  0  0  0  0  0  0
   80.1237   -1.6934   -1.8710 C   0  0  0  0  0  0  0  0  0  0  0  0
   79.1665   -2.3156   -2.6045 C   0  0  0  0  0  0  0  0  0  0  0  0
   77.8985   -1.8314   -2.1367 C   0  0  0  0  0  0  0  0  0  0  0  0
   78.1023   -0.9351   -1.1224 N   0  0  0  0  0  0  0  0  0  0  0  0
   76.6555   -2.2335   -2.6294 C   0  0  0  0  0  0  0  0  0  0  0  0
   76.6497   -3.1981   -3.7570 C   0  0  0  0  0  0  0  0  0  0  0  0
   77.2208   -2.8584   -4.9856 C   0  0  0  0  0  0  0  0  0  0  0  0
   77.2236   -3.7641   -6.0340 C   0  0  0  0  0  0  0  0  0  0  0  0
   76.6533   -5.0111   -5.8371 C   0  0  0  0  0  0  0  0  0  0  0  0
   76.6741   -6.1730   -7.1505 S   0  0  0  0  0  0  0  0  0  0  0  0
   76.6268   -7.5156   -6.6490 O   0  0  0  0  0  0  0  0  0  0  0  0
   75.2210   -5.8379   -7.7926 O   0  0  0  0  0  0  0  0  0  0  0  0
   77.6876   -5.8322   -8.1032 O   0  0  0  0  0  0  0  0  0  0  0  0
   76.0809   -5.3776   -4.6297 C   0  0  0  0  0  0  0  0  0  0  0  0
   76.0784   -4.4623   -3.5904 C   0  0  0  0  0  0  0  0  0  0  0  0
   75.4161   -1.8112   -2.1442 C   0  0  0  0  0  0  0  0  0  0  0  0
   74.1482   -2.1580   -2.7204 C   0  0  0  0  0  0  0  0  0  0  0  0
   73.1941   -1.5405   -1.9788 C   0  0  0  0  0  0  0  0  0  0  0  0
   73.8707   -0.8139   -0.9467 C   0  0  0  0  0  0  0  0  0  0  0  0
   75.2151   -0.9855   -1.0710 N   0  0  0  0  0  0  0  0  0  0  0  0
   72.1361    1.4522    2.2131 H   0  0  0  0  0  0  0  0  0  0  0  0
   74.0281    2.6573    3.6843 H   0  0  0  0  0  0  0  0  0  0  0  0
   77.6877    1.7078    5.1714 H   0  0  0  0  0  0  0  0  0  0  0  0
   77.6990    3.2922    7.0856 H   0  0  0  0  0  0  0  0  0  0  0  0
   74.9422    6.2945    8.5411 H   0  0  0  0  0  0  0  0  0  0  0  0
   75.6687    6.2060    4.6908 H   0  0  0  0  0  0  0  0  0  0  0  0
   75.6601    4.6267    2.7725 H   0  0  0  0  0  0  0  0  0  0  0  0
   79.3181    2.9518    3.4326 H   0  0  0  0  0  0  0  0  0  0  0  0
   81.2014    1.7472    1.9482 H   0  0  0  0  0  0  0  0  0  0  0  0
   81.1935   -1.8114   -1.9351 H   0  0  0  0  0  0  0  0  0  0  0  0
   79.3034   -3.0487   -3.3827 H   0  0  0  0  0  0  0  0  0  0  0  0
   77.6539   -1.8743   -5.1214 H   0  0  0  0  0  0  0  0  0  0  0  0
   77.6652   -3.5123   -6.9900 H   0  0  0  0  0  0  0  0  0  0  0  0
   74.9506   -6.5435   -8.3928 H   0  0  0  0  0  0  0  0  0  0  0  0
   75.6537   -6.3650   -4.5071 H   0  0  0  0  0  0  0  0  0  0  0  0
   75.6468   -4.7325   -2.6337 H   0  0  0  0  0  0  0  0  0  0  0  0
   74.0103   -2.7772   -3.5919 H   0  0  0  0  0  0  0  0  0  0  0  0
   72.1258   -1.5600   -2.1210 H   0  0  0  0  0  0  0  0  0  0  0  0
  2  3  4  0  0  0  0
  3  4  1  0  0  0  0
  4  5  2  0  0  0  0
  5  6  4  0  0  0  0
  1  7  1  0  0  0  0
  3  7  4  0  0  0  0
  6  7  4  0  0  0  0
  6  8  4  0  0  0  0
  8  9  1  0  0  0  0
  9 10  4  0  0  0  0
 10 11  4  0  0  0  0
 11 12  4  0  0  0  0
 12 13  1  0  0  0  0
 13 14  2  0  0  0  0
 13 15  1  0  0  0  0
 13 16  2  0  0  0  0
 12 17  4  0  0  0  0
  9 18  4  0  0  0  0
 17 18  4  0  0  0  0
  8 19  4  0  0  0  0
 19 20  4  0  0  0  0
 20 21  2  0  0  0  0
  1 22  1  0  0  0  0
 19 22  4  0  0  0  0
 21 23  4  0  0  0  0
 22 23  4  0  0  0  0
 23 24  4  0  0  0  0
 24 25  4  0  0  0  0
 25 26  4  0  0  0  0
 26 27  2  0  0  0  0
 27 28  4  0  0  0  0
  1 29  1  0  0  0  0
 25 29  4  0  0  0  0
 28 29  4  0  0  0  0
 28 30  4  0  0  0  0
 30 31  1  0  0  0  0
 31 32  4  0  0  0  0
 32 33  4  0  0  0  0
 33 34  4  0  0  0  0
 34 35  1  0  0  0  0
 35 36  2  0  0  0  0
 35 37  1  0  0  0  0
 35 38  2  0  0  0  0
 34 39  4  0  0  0  0
 31 40  4  0  0  0  0
 39 40  4  0  0  0  0
 30 41  4  0  0  0  0
 41 42  4  0  0  0  0
 42 43  2  0  0  0  0
  2 44  4  0  0  0  0
 43 44  1  0  0  0  0
  1 45  1  0  0  0  0
 41 45  4  0  0  0  0
 44 45  4  0  0  0  0
  2 46  1  0  0  0  0
  4 47  1  0  0  0  0
  5 48  1  0  0  0  0
 10 49  1  0  0  0  0
 11 50  1  0  0  0  0
 15 51  1  0  0  0  0
 17 52  1  0  0  0  0
 18 53  1  0  0  0  0
 20 54  1  0  0  0  0
 21 55  1  0  0  0  0
 26 56  1  0  0  0  0
 27 57  1  0  0  0  0
 32 58  1  0  0  0  0
 33 59  1  0  0  0  0
 37 60  1  0  0  0  0
 39 61  1  0  0  0  0
 40 62  1  0  0  0  0
 42 63  1  0  0  0  0
 43 64  1  0  0  0  0
 66 67  4  0  0  0  0
 67 68  1  0  0  0  0
 68 69  2  0  0  0  0
 69 70  4  0  0  0  0
 65 71  1  0  0  0  0
 67 71  4  0  0  0  0
 70 71  4  0  0  0  0
 70 72  4  0  0  0  0
 72 73  1  0  0  0  0
 73 74  4  0  0  0  0
 74 75  4  0  0  0  0
 75 76  4  0  0  0  0
 76 77  1  0  0  0  0
 77 78  2  0  0  0  0
 77 79  1  0  0  0  0
 77 80  2  0  0  0  0
 76 81  4  0  0  0  0
 73 82  4  0  0  0  0
 81 82  4  0  0  0  0
 72 83  4  0  0  0  0
 83 84  4  0  0  0  0
 84 85  2  0  0  0  0
 65 86  1  0  0  0  0
 83 86  4  0  0  0  0
 85 87  4  0  0  0  0
 86 87  4  0  0  0  0
 87 88  4  0  0  0  0
 88 89  4  0  0  0  0
 89 90  4  0  0  0  0
 90 91  2  0  0  0  0
 91 92  4  0  0  0  0
 65 93  1  0  0  0  0
 89 93  4  0  0  0  0
 92 93  4  0  0  0  0
 92 94  4  0  0  0  0
 94 95  1  0  0  0  0
 95 96  4  0  0  0  0
 96 97  4  0  0  0  0
 97 98  4  0  0  0  0
 98 99  1  0  0  0  0
 99100  2  0  0  0  0
 99101  1  0  0  0  0
 99102  2  0  0  0  0
 98103  4  0  0  0  0
 95104  4  0  0  0  0
103104  4  0  0  0  0
 94105  4  0  0  0  0
105106  4  0  0  0  0
106107  2  0  0  0  0
 66108  4  0  0  0  0
107108  1  0  0  0  0
 65109  1  0  0  0  0
105109  4  0  0  0  0
108109  4  0  0  0  0
 66110  1  0  0  0  0
 68111  1  0  0  0  0
 69112  1  0  0  0  0
 74113  1  0  0  0  0
 75114  1  0  0  0  0
 79115  1  0  0  0  0
 81116  1  0  0  0  0
 82117  1  0  0  0  0
 84118  1  0  0  0  0
 85119  1  0  0  0  0
 90120  1  0  0  0  0
 91121  1  0  0  0  0
 96122  1  0  0  0  0
 97123  1  0  0  0  0
101124  1  0  0  0  0
103125  1  0  0  0  0
104126  1  0  0  0  0
106127  1  0  0  0  0
107128  1  0  0  0  0
 24129  1  0  0  0  0
129130  3  0  0  0  0
131132  3  0  0  0  0
 88134  4  0  0  0  0
133134  3  0  0  0  0
130136  1  0  0  0  0
136137  4  0  0  0  0
137138  4  0  0  0  0
138139  2  0  0  0  0
139140  4  0  0  0  0
135141  1  0  0  0  0
137141  4  0  0  0  0
140141  4  0  0  0  0
140142  4  0  0  0  0
142143  1  0  0  0  0
143144  4  0  0  0  0
144145  4  0  0  0  0
145146  4  0  0  0  0
146147  1  0  0  0  0
147148  2  0  0  0  0
147149  1  0  0  0  0
147150  2  0  0  0  0
146151  4  0  0  0  0
143152  4  0  0  0  0
151152  4  0  0  0  0
142153  4  0  0  0  0
153154  4  0  0  0  0
154155  2  0  0  0  0
135156  1  0  0  0  0
153156  4  0  0  0  0
155157  4  0  0  0  0
156157  4  0  0  0  0
131158  4  0  0  0  0
157158  4  0  0  0  0
158159  4  0  0  0  0
159160  4  0  0  0  0
160161  2  0  0  0  0
161162  4  0  0  0  0
135163  1  0  0  0  0
159163  4  0  0  0  0
162163  4  0  0  0  0
162164  4  0  0  0  0
164165  1  0  0  0  0
165166  4  0  0  0  0
166167  4  0  0  0  0
167168  4  0  0  0  0
168169  1  0  0  0  0
169170  2  0  0  0  0
169171  1  0  0  0  0
169172  2  0  0  0  0
168173  4  0  0  0  0
165174  4  0  0  0  0
173174  4  0  0  0  0
164175  4  0  0  0  0
175176  4  0  0  0  0
176177  2  0  0  0  0
136178  4  0  0  0  0
177178  4  0  0  0  0
135179  1  0  0  0  0
175179  4  0  0  0  0
178179  4  0  0  0  0
138180  1  0  0  0  0
139181  1  0  0  0  0
144182  1  0  0  0  0
145183  1  0  0  0  0
149184  1  0  0  0  0
151185  1  0  0  0  0
152186  1  0  0  0  0
154187  1  0  0  0  0
155188  1  0  0  0  0
160189  1  0  0  0  0
161190  1  0  0  0  0
166191  1  0  0  0  0
167192  1  0  0  0  0
171193  1  0  0  0  0
173194  1  0  0  0  0
174195  1  0  0  0  0
176196  1  0  0  0  0
177197  1  0  0  0  0
132199  4  0  0  0  0
199200  4  0  0  0  0
200201  4  0  0  0  0
201202  2  0  0  0  0
202203  4  0  0  0  0
198204  1  0  0  0  0
200204  4  0  0  0  0
203204  4  0  0  0  0
203205  4  0  0  0  0
205206  1  0  0  0  0
206207  4  0  0  0  0
207208  4  0  0  0  0
208209  4  0  0  0  0
209210  1  0  0  0  0
210211  2  0  0  0  0
210212  1  0  0  0  0
210213  2  0  0  0  0
209214  4  0  0  0  0
206215  4  0  0  0  0
214215  4  0  0  0  0
205216  4  0  0  0  0
216217  4  0  0  0  0
217218  2  0  0  0  0
198219  1  0  0  0  0
216219  4  0  0  0  0
218220  4  0  0  0  0
219220  4  0  0  0  0
133221  4  0  0  0  0
220221  4  0  0  0  0
221222  4  0  0  0  0
222223  4  0  0  0  0
223224  2  0  0  0  0
224225  4  0  0  0  0
198226  1  0  0  0  0
222226  4  0  0  0  0
225226  4  0  0  0  0
225227  4  0  0  0  0
227228  1  0  0  0  0
228229  4  0  0  0  0
229230  4  0  0  0  0
230231  4  0  0  0  0
231232  1  0  0  0  0
232233  2  0  0  0  0
232234  1  0  0  0  0
232235  2  0  0  0  0
231236  4  0  0  0  0
228237  4  0  0  0  0
236237  4  0  0  0  0
227238  4  0  0  0  0
238239  4  0  0  0  0
239240  2  0  0  0  0
199241  4  0  0  0  0
240241  4  0  0  0  0
198242  1  0  0  0  0
238242  4  0  0  0  0
241242  4  0  0  0  0
201243  1  0  0  0  0
202244  1  0  0  0  0
207245  1  0  0  0  0
208246  1  0  0  0  0
212247  1  0  0  0  0
214248  1  0  0  0  0
215249  1  0  0  0  0
217250  1  0  0  0  0
218251  1  0  0  0  0
223252  1  0  0  0  0
224253  1  0  0  0  0
229254  1  0  0  0  0
230255  1  0  0  0  0
234256  1  0  0  0  0
236257  1  0  0  0  0
237258  1  0  0  0  0
239259  1  0  0  0  0
240260  1  0  0  0  0
M  END
