 xtb: 6.5.1 (b24c23e)
          07302209093D

250289  0     0  0            999 V2000
   47.9986    0.0047   -0.0139 Zn  0  0  0  0  0  0  0  0  0  0  0  0
   44.5912    0.0617   -0.1118 C   0  0  0  0  0  0  0  0  0  0  0  0
   45.2256    1.2874    0.0501 C   0  0  0  0  0  0  0  0  0  0  0  0
   44.5557    2.5472    0.2148 C   0  0  0  0  0  0  0  0  0  0  0  0
   45.5175    3.4918    0.3637 C   0  0  0  0  0  0  0  0  0  0  0  0
   46.7883    2.8209    0.2812 C   0  0  0  0  0  0  0  0  0  0  0  0
   46.5757    1.4863    0.0979 N   0  0  0  0  0  0  0  0  0  0  0  0
   48.0417    3.4333    0.4058 C   0  0  0  0  0  0  0  0  0  0  0  0
   48.0613    4.9036    0.5961 C   0  0  0  0  0  0  0  0  0  0  0  0
   48.5964    5.4585    1.7628 C   0  0  0  0  0  0  0  0  0  0  0  0
   48.6129    6.8282    1.9411 C   0  0  0  0  0  0  0  0  0  0  0  0
   48.1008    7.6766    0.9536 C   0  0  0  0  0  0  0  0  0  0  0  0
   48.1339    9.1347    1.1651 C   0  0  0  0  0  0  0  0  0  0  0  0
   48.5799    9.6582    2.1541 O   0  0  0  0  0  0  0  0  0  0  0  0
   47.5684    7.1240   -0.2139 C   0  0  0  0  0  0  0  0  0  0  0  0
   47.5462    5.7518   -0.3883 C   0  0  0  0  0  0  0  0  0  0  0  0
   49.2783    2.7792    0.3672 C   0  0  0  0  0  0  0  0  0  0  0  0
   50.5608    3.4237    0.4377 C   0  0  0  0  0  0  0  0  0  0  0  0
   51.5028    2.4516    0.3377 C   0  0  0  0  0  0  0  0  0  0  0  0
   49.4659    1.4317    0.2151 N   0  0  0  0  0  0  0  0  0  0  0  0
   50.8068    1.2061    0.1988 C   0  0  0  0  0  0  0  0  0  0  0  0
   51.4325   -0.0485    0.0534 C   0  0  0  0  0  0  0  0  0  0  0  0
   50.7742   -1.2846   -0.1034 C   0  0  0  0  0  0  0  0  0  0  0  0
   51.4371   -2.5454   -0.2648 C   0  0  0  0  0  0  0  0  0  0  0  0
   50.4697   -3.4896   -0.3875 C   0  0  0  0  0  0  0  0  0  0  0  0
   49.2046   -2.8140   -0.2960 C   0  0  0  0  0  0  0  0  0  0  0  0
   49.4276   -1.4734   -0.1316 N   0  0  0  0  0  0  0  0  0  0  0  0
   47.9509   -3.4276   -0.3996 C   0  0  0  0  0  0  0  0  0  0  0  0
   47.9308   -4.9026   -0.5475 C   0  0  0  0  0  0  0  0  0  0  0  0
   47.3822   -5.4937   -1.6893 C   0  0  0  0  0  0  0  0  0  0  0  0
   47.3636   -6.8702   -1.8268 C   0  0  0  0  0  0  0  0  0  0  0  0
   47.8882   -7.6854   -0.8208 C   0  0  0  0  0  0  0  0  0  0  0  0
   47.8756   -9.1543   -0.9402 C   0  0  0  0  0  0  0  0  0  0  0  0
   48.3110   -9.8984   -0.0988 O   0  0  0  0  0  0  0  0  0  0  0  0
   48.4354   -7.0947    0.3233 C   0  0  0  0  0  0  0  0  0  0  0  0
   48.4593   -5.7201    0.4566 C   0  0  0  0  0  0  0  0  0  0  0  0
   46.7140   -2.7707   -0.3717 C   0  0  0  0  0  0  0  0  0  0  0  0
   45.4256   -3.4091   -0.4376 C   0  0  0  0  0  0  0  0  0  0  0  0
   44.4895   -2.4306   -0.3620 C   0  0  0  0  0  0  0  0  0  0  0  0
   45.1929   -1.1846   -0.2374 C   0  0  0  0  0  0  0  0  0  0  0  0
   46.5372   -1.4245   -0.2432 N   0  0  0  0  0  0  0  0  0  0  0  0
   43.5059    0.0779   -0.1283 H   0  0  0  0  0  0  0  0  0  0  0  0
   43.4851    2.6788    0.2224 H   0  0  0  0  0  0  0  0  0  0  0  0
   45.3831    4.5489    0.5283 H   0  0  0  0  0  0  0  0  0  0  0  0
   48.9839    4.8031    2.5348 H   0  0  0  0  0  0  0  0  0  0  0  0
   49.0203    7.2656    2.8463 H   0  0  0  0  0  0  0  0  0  0  0  0
   47.7082    9.7267    0.3268 H   0  0  0  0  0  0  0  0  0  0  0  0
   47.1731    7.7751   -0.9869 H   0  0  0  0  0  0  0  0  0  0  0  0
   47.1437    5.3266   -1.3010 H   0  0  0  0  0  0  0  0  0  0  0  0
   50.7190    4.4856    0.5360 H   0  0  0  0  0  0  0  0  0  0  0  0
   52.5755    2.5615    0.3499 H   0  0  0  0  0  0  0  0  0  0  0  0
   52.5065   -2.6821   -0.2859 H   0  0  0  0  0  0  0  0  0  0  0  0
   50.6000   -4.5487   -0.5409 H   0  0  0  0  0  0  0  0  0  0  0  0
   46.9857   -4.8637   -2.4776 H   0  0  0  0  0  0  0  0  0  0  0  0
   46.9414   -7.3199   -2.7197 H   0  0  0  0  0  0  0  0  0  0  0  0
   47.4252   -9.5312   -1.8833 H   0  0  0  0  0  0  0  0  0  0  0  0
   48.8372   -7.7353    1.1010 H   0  0  0  0  0  0  0  0  0  0  0  0
   48.8729   -5.2658    1.3500 H   0  0  0  0  0  0  0  0  0  0  0  0
   45.2623   -4.4718   -0.5180 H   0  0  0  0  0  0  0  0  0  0  0  0
   43.4158   -2.5324   -0.3794 H   0  0  0  0  0  0  0  0  0  0  0  0
   88.4378   -0.0399   -0.0526 Zn  0  0  0  0  0  0  0  0  0  0  0  0
   91.8462   -0.0847   -0.0937 C   0  0  0  0  0  0  0  0  0  0  0  0
   91.2116   -1.3205   -0.1227 C   0  0  0  0  0  0  0  0  0  0  0  0
   91.8810   -2.5912   -0.1247 C   0  0  0  0  0  0  0  0  0  0  0  0
   90.9187   -3.5469   -0.1330 C   0  0  0  0  0  0  0  0  0  0  0  0
   89.6483   -2.8706   -0.1483 C   0  0  0  0  0  0  0  0  0  0  0  0
   89.8613   -1.5235   -0.1339 N   0  0  0  0  0  0  0  0  0  0  0  0
   88.3937   -3.4933   -0.1443 C   0  0  0  0  0  0  0  0  0  0  0  0
   88.3721   -4.9756   -0.1604 C   0  0  0  0  0  0  0  0  0  0  0  0
   87.8004   -5.6836    0.9016 C   0  0  0  0  0  0  0  0  0  0  0  0
   87.7822   -7.0647    0.8914 C   0  0  0  0  0  0  0  0  0  0  0  0
   88.3300   -7.7717   -0.1844 C   0  0  0  0  0  0  0  0  0  0  0  0
   88.2949   -9.2449   -0.1740 C   0  0  0  0  0  0  0  0  0  0  0  0
   87.8124   -9.8972    0.7165 O   0  0  0  0  0  0  0  0  0  0  0  0
   88.8990   -7.0660   -1.2475 C   0  0  0  0  0  0  0  0  0  0  0  0
   88.9220   -5.6828   -1.2334 C   0  0  0  0  0  0  0  0  0  0  0  0
   87.1568   -2.8388   -0.1200 C   0  0  0  0  0  0  0  0  0  0  0  0
   85.8746   -3.4851   -0.1797 C   0  0  0  0  0  0  0  0  0  0  0  0
   84.9328   -2.5080   -0.1531 C   0  0  0  0  0  0  0  0  0  0  0  0
   86.9695   -1.4836   -0.0721 N   0  0  0  0  0  0  0  0  0  0  0  0
   85.6287   -1.2567   -0.0835 C   0  0  0  0  0  0  0  0  0  0  0  0
   85.0033    0.0054   -0.0348 C   0  0  0  0  0  0  0  0  0  0  0  0
   85.6617    1.2501    0.0166 C   0  0  0  0  0  0  0  0  0  0  0  0
   84.9993    2.5211    0.0424 C   0  0  0  0  0  0  0  0  0  0  0  0
   85.9668    3.4725    0.0742 C   0  0  0  0  0  0  0  0  0  0  0  0
   87.2317    2.7902    0.0759 C   0  0  0  0  0  0  0  0  0  0  0  0
   87.0084    1.4403    0.0328 N   0  0  0  0  0  0  0  0  0  0  0  0
   88.4859    3.4116    0.0801 C   0  0  0  0  0  0  0  0  0  0  0  0
   88.5068    4.8923    0.1525 C   0  0  0  0  0  0  0  0  0  0  0  0
   89.0723    5.6447   -0.8810 C   0  0  0  0  0  0  0  0  0  0  0  0
   89.0929    7.0264   -0.8131 C   0  0  0  0  0  0  0  0  0  0  0  0
   88.5529    7.6849    0.2945 C   0  0  0  0  0  0  0  0  0  0  0  0
   88.5676    9.1553    0.3940 C   0  0  0  0  0  0  0  0  0  0  0  0
   88.1201    9.7676    1.3299 O   0  0  0  0  0  0  0  0  0  0  0  0
   87.9883    6.9326    1.3300 C   0  0  0  0  0  0  0  0  0  0  0  0
   87.9629    5.5533    1.2584 C   0  0  0  0  0  0  0  0  0  0  0  0
   89.7232    2.7569    0.0269 C   0  0  0  0  0  0  0  0  0  0  0  0
   91.0115    3.3970    0.0765 C   0  0  0  0  0  0  0  0  0  0  0  0
   91.9478    2.4173    0.0230 C   0  0  0  0  0  0  0  0  0  0  0  0
   91.2446    1.1671   -0.0484 C   0  0  0  0  0  0  0  0  0  0  0  0
   89.9001    1.4063   -0.0419 N   0  0  0  0  0  0  0  0  0  0  0  0
   92.9317   -0.0991   -0.0912 H   0  0  0  0  0  0  0  0  0  0  0  0
   92.9516   -2.7232   -0.1120 H   0  0  0  0  0  0  0  0  0  0  0  0
   91.0527   -4.6167   -0.1172 H   0  0  0  0  0  0  0  0  0  0  0  0
   87.3856   -5.1388    1.7423 H   0  0  0  0  0  0  0  0  0  0  0  0
   87.3459   -7.6205    1.7145 H   0  0  0  0  0  0  0  0  0  0  0  0
   88.7560   -9.7184   -1.0670 H   0  0  0  0  0  0  0  0  0  0  0  0
   89.3222   -7.6065   -2.0881 H   0  0  0  0  0  0  0  0  0  0  0  0
   89.3523   -5.1383   -2.0664 H   0  0  0  0  0  0  0  0  0  0  0  0
   85.7168   -4.5493   -0.2485 H   0  0  0  0  0  0  0  0  0  0  0  0
   83.8604   -2.6174   -0.1832 H   0  0  0  0  0  0  0  0  0  0  0  0
   83.9299    2.6600    0.0303 H   0  0  0  0  0  0  0  0  0  0  0  0
   85.8369    4.5427    0.0811 H   0  0  0  0  0  0  0  0  0  0  0  0
   89.4809    5.1376   -1.7479 H   0  0  0  0  0  0  0  0  0  0  0  0
   89.5287    7.6023   -1.6231 H   0  0  0  0  0  0  0  0  0  0  0  0
   89.0328    9.6665   -0.4758 H   0  0  0  0  0  0  0  0  0  0  0  0
   87.5744    7.4518    2.1878 H   0  0  0  0  0  0  0  0  0  0  0  0
   87.5363    4.9729    2.0687 H   0  0  0  0  0  0  0  0  0  0  0  0
   91.1745    4.4598    0.1563 H   0  0  0  0  0  0  0  0  0  0  0  0
   93.0216    2.5197    0.0390 H   0  0  0  0  0  0  0  0  0  0  0  0
   54.0604   -0.0714    0.0548 C   0  0  0  0  0  0  0  0  0  0  0  0
   52.8382   -0.0655    0.0565 C   0  0  0  0  0  0  0  0  0  0  0  0
   55.4097   -0.0759    0.0507 C   0  0  0  0  0  0  0  0  0  0  0  0
   56.6320   -0.0754    0.0485 C   0  0  0  0  0  0  0  0  0  0  0  0
   67.5429   -0.0302   -0.0153 C   0  0  0  0  0  0  0  0  0  0  0  0
   66.3204   -0.0347   -0.0123 C   0  0  0  0  0  0  0  0  0  0  0  0
   68.8918   -0.0241   -0.0128 C   0  0  0  0  0  0  0  0  0  0  0  0
   70.1143   -0.0189   -0.0105 C   0  0  0  0  0  0  0  0  0  0  0  0
   81.0256    0.0240   -0.0474 C   0  0  0  0  0  0  0  0  0  0  0  0
   79.8033    0.0223   -0.0472 C   0  0  0  0  0  0  0  0  0  0  0  0
   82.3752    0.0222   -0.0455 C   0  0  0  0  0  0  0  0  0  0  0  0
   83.5973    0.0215   -0.0411 C   0  0  0  0  0  0  0  0  0  0  0  0
   61.4766   -0.0545    0.0131 Zn  0  0  0  0  0  0  0  0  0  0  0  0
   58.0373   -0.0709    0.0409 C   0  0  0  0  0  0  0  0  0  0  0  0
   58.6779    1.1372    0.3828 C   0  0  0  0  0  0  0  0  0  0  0  0
   57.9970    2.3561    0.7052 C   0  0  0  0  0  0  0  0  0  0  0  0
   58.9505    3.2802    0.9884 C   0  0  0  0  0  0  0  0  0  0  0  0
   60.2236    2.6298    0.8503 C   0  0  0  0  0  0  0  0  0  0  0  0
   60.0212    1.3305    0.4702 N   0  0  0  0  0  0  0  0  0  0  0  0
   61.4689    3.2375    1.0482 C   0  0  0  0  0  0  0  0  0  0  0  0
   61.4655    4.6505    1.4975 C   0  0  0  0  0  0  0  0  0  0  0  0
   62.0478    5.6473    0.7083 C   0  0  0  0  0  0  0  0  0  0  0  0
   62.0438    6.9629    1.1297 C   0  0  0  0  0  0  0  0  0  0  0  0
   61.4619    7.3127    2.3528 C   0  0  0  0  0  0  0  0  0  0  0  0
   61.4754    8.7224    2.7831 C   0  0  0  0  0  0  0  0  0  0  0  0
   61.9678    9.6139    2.1399 O   0  0  0  0  0  0  0  0  0  0  0  0
   60.8806    6.3179    3.1429 C   0  0  0  0  0  0  0  0  0  0  0  0
   60.8806    5.0015    2.7176 C   0  0  0  0  0  0  0  0  0  0  0  0
   62.7171    2.6322    0.8622 C   0  0  0  0  0  0  0  0  0  0  0  0
   63.9876    3.2508    1.1195 C   0  0  0  0  0  0  0  0  0  0  0  0
   64.9451    2.3348    0.8238 C   0  0  0  0  0  0  0  0  0  0  0  0
   62.9253    1.3491    0.4325 N   0  0  0  0  0  0  0  0  0  0  0  0
   64.2693    1.1466    0.3938 C   0  0  0  0  0  0  0  0  0  0  0  0
   64.9156   -0.0399   -0.0084 C   0  0  0  0  0  0  0  0  0  0  0  0
   64.2746   -1.2316   -0.4039 C   0  0  0  0  0  0  0  0  0  0  0  0
   64.9545   -2.4135   -0.8441 C   0  0  0  0  0  0  0  0  0  0  0  0
   64.0008   -3.3381   -1.1257 C   0  0  0  0  0  0  0  0  0  0  0  0
   62.7289   -2.7310   -0.8491 C   0  0  0  0  0  0  0  0  0  0  0  0
   62.9319   -1.4461   -0.4226 N   0  0  0  0  0  0  0  0  0  0  0  0
   61.4837   -3.3486   -1.0139 C   0  0  0  0  0  0  0  0  0  0  0  0
   61.4853   -4.7630   -1.4588 C   0  0  0  0  0  0  0  0  0  0  0  0
   62.0856   -5.7511   -0.6733 C   0  0  0  0  0  0  0  0  0  0  0  0
   62.0830   -7.0721   -1.0845 C   0  0  0  0  0  0  0  0  0  0  0  0
   61.4840   -7.4314   -2.2943 C   0  0  0  0  0  0  0  0  0  0  0  0
   61.4684   -8.8312   -2.7561 C   0  0  0  0  0  0  0  0  0  0  0  0
   60.9630   -9.1895   -3.7891 O   0  0  0  0  0  0  0  0  0  0  0  0
   60.8863   -6.4425   -3.0828 C   0  0  0  0  0  0  0  0  0  0  0  0
   60.8845   -5.1246   -2.6688 C   0  0  0  0  0  0  0  0  0  0  0  0
   60.2359   -2.7523   -0.7977 C   0  0  0  0  0  0  0  0  0  0  0  0
   58.9669   -3.4146   -0.9160 C   0  0  0  0  0  0  0  0  0  0  0  0
   58.0092   -2.4988   -0.6202 C   0  0  0  0  0  0  0  0  0  0  0  0
   58.6837   -1.2735   -0.3089 C   0  0  0  0  0  0  0  0  0  0  0  0
   60.0273   -1.4546   -0.4154 N   0  0  0  0  0  0  0  0  0  0  0  0
   56.9262    2.4834    0.7058 H   0  0  0  0  0  0  0  0  0  0  0  0
   58.8055    4.3149    1.2541 H   0  0  0  0  0  0  0  0  0  0  0  0
   62.4883    5.3815   -0.2461 H   0  0  0  0  0  0  0  0  0  0  0  0
   62.4888    7.7424    0.5207 H   0  0  0  0  0  0  0  0  0  0  0  0
   60.9888    8.9040    3.7651 H   0  0  0  0  0  0  0  0  0  0  0  0
   60.4297    6.5798    4.0947 H   0  0  0  0  0  0  0  0  0  0  0  0
   60.4406    4.2297    3.3392 H   0  0  0  0  0  0  0  0  0  0  0  0
   64.1287    4.2529    1.4911 H   0  0  0  0  0  0  0  0  0  0  0  0
   66.0154    2.4449    0.8950 H   0  0  0  0  0  0  0  0  0  0  0  0
   66.0245   -2.5136   -0.9323 H   0  0  0  0  0  0  0  0  0  0  0  0
   64.1451   -4.3386   -1.5004 H   0  0  0  0  0  0  0  0  0  0  0  0
   62.5397   -5.4773    0.2724 H   0  0  0  0  0  0  0  0  0  0  0  0
   62.5459   -7.8333   -0.4648 H   0  0  0  0  0  0  0  0  0  0  0  0
   61.9674   -9.5446   -2.0660 H   0  0  0  0  0  0  0  0  0  0  0  0
   60.4270   -6.7299   -4.0226 H   0  0  0  0  0  0  0  0  0  0  0  0
   60.4312   -4.3588   -3.2880 H   0  0  0  0  0  0  0  0  0  0  0  0
   58.8274   -4.4507   -1.1789 H   0  0  0  0  0  0  0  0  0  0  0  0
   56.9397   -2.6357   -0.6050 H   0  0  0  0  0  0  0  0  0  0  0  0
   74.9585   -0.0002   -0.0211 Zn  0  0  0  0  0  0  0  0  0  0  0  0
   71.5191   -0.0144   -0.0089 C   0  0  0  0  0  0  0  0  0  0  0  0
   72.1591    1.1897    0.3486 C   0  0  0  0  0  0  0  0  0  0  0  0
   71.4775    2.4049    0.6832 C   0  0  0  0  0  0  0  0  0  0  0  0
   72.4306    3.3270    0.9744 C   0  0  0  0  0  0  0  0  0  0  0  0
   73.7041    2.6794    0.8274 C   0  0  0  0  0  0  0  0  0  0  0  0
   73.5022    1.3828    0.4372 N   0  0  0  0  0  0  0  0  0  0  0  0
   74.9490    3.2889    1.0215 C   0  0  0  0  0  0  0  0  0  0  0  0
   74.9445    4.6989    1.4804 C   0  0  0  0  0  0  0  0  0  0  0  0
   75.5123    5.7045    0.6921 C   0  0  0  0  0  0  0  0  0  0  0  0
   75.5066    7.0168    1.1238 C   0  0  0  0  0  0  0  0  0  0  0  0
   74.9379    7.3541    2.3566 C   0  0  0  0  0  0  0  0  0  0  0  0
   74.9476    8.7610    2.7968 C   0  0  0  0  0  0  0  0  0  0  0  0
   75.4233    9.6606    2.1526 O   0  0  0  0  0  0  0  0  0  0  0  0
   74.3718    6.3503    3.1462 C   0  0  0  0  0  0  0  0  0  0  0  0
   74.3729    5.0373    2.7104 C   0  0  0  0  0  0  0  0  0  0  0  0
   76.1977    2.6881    0.8241 C   0  0  0  0  0  0  0  0  0  0  0  0
   77.4681    3.3113    1.0709 C   0  0  0  0  0  0  0  0  0  0  0  0
   78.4262    2.3976    0.7705 C   0  0  0  0  0  0  0  0  0  0  0  0
   76.4065    1.4051    0.3949 N   0  0  0  0  0  0  0  0  0  0  0  0
   77.7511    1.2059    0.3492 C   0  0  0  0  0  0  0  0  0  0  0  0
   78.3979    0.0163   -0.0418 C   0  0  0  0  0  0  0  0  0  0  0  0
   77.7579   -1.1803   -0.4227 C   0  0  0  0  0  0  0  0  0  0  0  0
   78.4390   -2.3673   -0.8473 C   0  0  0  0  0  0  0  0  0  0  0  0
   77.4861   -3.2936   -1.1253 C   0  0  0  0  0  0  0  0  0  0  0  0
   76.2132   -2.6823   -0.8627 C   0  0  0  0  0  0  0  0  0  0  0  0
   76.4150   -1.3941   -0.4464 N   0  0  0  0  0  0  0  0  0  0  0  0
   74.9682   -3.2987   -1.0353 C   0  0  0  0  0  0  0  0  0  0  0  0
   74.9724   -4.7168   -1.4683 C   0  0  0  0  0  0  0  0  0  0  0  0
   75.5624   -5.6981   -0.6663 C   0  0  0  0  0  0  0  0  0  0  0  0
   75.5634   -7.0228   -1.0648 C   0  0  0  0  0  0  0  0  0  0  0  0
   74.9785   -7.3932   -2.2783 C   0  0  0  0  0  0  0  0  0  0  0  0
   74.9673   -8.7973   -2.7262 C   0  0  0  0  0  0  0  0  0  0  0  0
   74.4753   -9.1657   -3.7622 O   0  0  0  0  0  0  0  0  0  0  0  0
   74.3912   -6.4112   -3.0833 C   0  0  0  0  0  0  0  0  0  0  0  0
   74.3859   -5.0894   -2.6818 C   0  0  0  0  0  0  0  0  0  0  0  0
   73.7197   -2.6984   -0.8364 C   0  0  0  0  0  0  0  0  0  0  0  0
   72.4502   -3.3572   -0.9683 C   0  0  0  0  0  0  0  0  0  0  0  0
   71.4920   -2.4387   -0.6829 C   0  0  0  0  0  0  0  0  0  0  0  0
   72.1664   -1.2154   -0.3636 C   0  0  0  0  0  0  0  0  0  0  0  0
   73.5104   -1.3997   -0.4572 N   0  0  0  0  0  0  0  0  0  0  0  0
   70.4066    2.5313    0.6861 H   0  0  0  0  0  0  0  0  0  0  0  0
   72.2850    4.3589    1.2505 H   0  0  0  0  0  0  0  0  0  0  0  0
   75.9426    5.4484   -0.2695 H   0  0  0  0  0  0  0  0  0  0  0  0
   75.9402    7.8033    0.5155 H   0  0  0  0  0  0  0  0  0  0  0  0
   74.4745    8.9319    3.7873 H   0  0  0  0  0  0  0  0  0  0  0  0
   73.9317    6.6024    4.1056 H   0  0  0  0  0  0  0  0  0  0  0  0
   73.9441    4.2584    3.3310 H   0  0  0  0  0  0  0  0  0  0  0  0
   77.6086    4.3147    1.4389 H   0  0  0  0  0  0  0  0  0  0  0  0
   79.4967    2.5108    0.8340 H   0  0  0  0  0  0  0  0  0  0  0  0
   79.5095   -2.4694   -0.9283 H   0  0  0  0  0  0  0  0  0  0  0  0
   77.6313   -4.2979   -1.4893 H   0  0  0  0  0  0  0  0  0  0  0  0
   76.0057   -5.4156    0.2820 H   0  0  0  0  0  0  0  0  0  0  0  0
   76.0183   -7.7785   -0.4326 H   0  0  0  0  0  0  0  0  0  0  0  0
   75.4566   -9.5042   -2.0226 H   0  0  0  0  0  0  0  0  0  0  0  0
   73.9430   -6.7071   -4.0257 H   0  0  0  0  0  0  0  0  0  0  0  0
   73.9409   -4.3291   -3.3138 H   0  0  0  0  0  0  0  0  0  0  0  0
   72.3103   -4.3929   -1.2327 H   0  0  0  0  0  0  0  0  0  0  0  0
   70.4221   -2.5731   -0.6790 H   0  0  0  0  0  0  0  0  0  0  0  0
  2  3  4  0  0  0  0
  3  4  1  0  0  0  0
  4  5  2  0  0  0  0
  5  6  4  0  0  0  0
  1  7  1  0  0  0  0
  3  7  4  0  0  0  0
  6  7  4  0  0  0  0
  6  8  4  0  0  0  0
  8  9  1  0  0  0  0
  9 10  4  0  0  0  0
 10 11  4  0  0  0  0
 11 12  4  0  0  0  0
 12 13  1  0  0  0  0
 13 14  2  0  0  0  0
 12 15  4  0  0  0  0
  9 16  4  0  0  0  0
 15 16  4  0  0  0  0
  8 17  4  0  0  0  0
 17 18  4  0  0  0  0
 18 19  2  0  0  0  0
  1 20  1  0  0  0  0
 17 20  4  0  0  0  0
 19 21  4  0  0  0  0
 20 21  4  0  0  0  0
 21 22  4  0  0  0  0
 22 23  4  0  0  0  0
 23 24  4  0  0  0  0
 24 25  2  0  0  0  0
 25 26  4  0  0  0  0
  1 27  1  0  0  0  0
 23 27  4  0  0  0  0
 26 27  4  0  0  0  0
 26 28  4  0  0  0  0
 28 29  1  0  0  0  0
 29 30  4  0  0  0  0
 30 31  4  0  0  0  0
 31 32  4  0  0  0  0
 32 33  1  0  0  0  0
 33 34  2  0  0  0  0
 32 35  4  0  0  0  0
 29 36  4  0  0  0  0
 35 36  4  0  0  0  0
 28 37  4  0  0  0  0
 37 38  4  0  0  0  0
 38 39  2  0  0  0  0
  2 40  4  0  0  0  0
 39 40  1  0  0  0  0
  1 41  1  0  0  0  0
 37 41  4  0  0  0  0
 40 41  4  0  0  0  0
  2 42  1  0  0  0  0
  4 43  1  0  0  0  0
  5 44  1  0  0  0  0
 10 45  1  0  0  0  0
 11 46  1  0  0  0  0
 13 47  1  0  0  0  0
 15 48  1  0  0  0  0
 16 49  1  0  0  0  0
 18 50  1  0  0  0  0
 19 51  1  0  0  0  0
 24 52  1  0  0  0  0
 25 53  1  0  0  0  0
 30 54  1  0  0  0  0
 31 55  1  0  0  0  0
 33 56  1  0  0  0  0
 35 57  1  0  0  0  0
 36 58  1  0  0  0  0
 38 59  1  0  0  0  0
 39 60  1  0  0  0  0
 62 63  4  0  0  0  0
 63 64  1  0  0  0  0
 64 65  2  0  0  0  0
 65 66  4  0  0  0  0
 61 67  1  0  0  0  0
 63 67  4  0  0  0  0
 66 67  4  0  0  0  0
 66 68  4  0  0  0  0
 68 69  1  0  0  0  0
 69 70  4  0  0  0  0
 70 71  4  0  0  0  0
 71 72  4  0  0  0  0
 72 73  1  0  0  0  0
 73 74  2  0  0  0  0
 72 75  4  0  0  0  0
 69 76  4  0  0  0  0
 75 76  4  0  0  0  0
 68 77  4  0  0  0  0
 77 78  4  0  0  0  0
 78 79  2  0  0  0  0
 61 80  1  0  0  0  0
 77 80  4  0  0  0  0
 79 81  4  0  0  0  0
 80 81  4  0  0  0  0
 81 82  4  0  0  0  0
 82 83  4  0  0  0  0
 83 84  4  0  0  0  0
 84 85  2  0  0  0  0
 85 86  4  0  0  0  0
 61 87  1  0  0  0  0
 83 87  4  0  0  0  0
 86 87  4  0  0  0  0
 86 88  4  0  0  0  0
 88 89  1  0  0  0  0
 89 90  4  0  0  0  0
 90 91  4  0  0  0  0
 91 92  4  0  0  0  0
 92 93  1  0  0  0  0
 93 94  2  0  0  0  0
 92 95  4  0  0  0  0
 89 96  4  0  0  0  0
 95 96  4  0  0  0  0
 88 97  4  0  0  0  0
 97 98  4  0  0  0  0
 98 99  2  0  0  0  0
 62100  4  0  0  0  0
 99100  1  0  0  0  0
 61101  1  0  0  0  0
 97101  4  0  0  0  0
100101  4  0  0  0  0
 62102  1  0  0  0  0
 64103  1  0  0  0  0
 65104  1  0  0  0  0
 70105  1  0  0  0  0
 71106  1  0  0  0  0
 73107  1  0  0  0  0
 75108  1  0  0  0  0
 76109  1  0  0  0  0
 78110  1  0  0  0  0
 79111  1  0  0  0  0
 84112  1  0  0  0  0
 85113  1  0  0  0  0
 90114  1  0  0  0  0
 91115  1  0  0  0  0
 93116  1  0  0  0  0
 95117  1  0  0  0  0
 96118  1  0  0  0  0
 98119  1  0  0  0  0
 99120  1  0  0  0  0
 22122  4  0  0  0  0
121122  3  0  0  0  0
121123  4  0  0  0  0
123124  3  0  0  0  0
125126  3  0  0  0  0
125127  4  0  0  0  0
127128  3  0  0  0  0
129130  3  0  0  0  0
129131  4  0  0  0  0
 82132  4  0  0  0  0
131132  3  0  0  0  0
124134  4  0  0  0  0
134135  4  0  0  0  0
135136  4  0  0  0  0
136137  2  0  0  0  0
137138  4  0  0  0  0
133139  1  0  0  0  0
135139  4  0  0  0  0
138139  4  0  0  0  0
138140  4  0  0  0  0
140141  1  0  0  0  0
141142  4  0  0  0  0
142143  4  0  0  0  0
143144  4  0  0  0  0
144145  1  0  0  0  0
145146  2  0  0  0  0
144147  4  0  0  0  0
141148  4  0  0  0  0
147148  4  0  0  0  0
140149  4  0  0  0  0
149150  4  0  0  0  0
150151  2  0  0  0  0
133152  1  0  0  0  0
149152  4  0  0  0  0
151153  4  0  0  0  0
152153  4  0  0  0  0
126154  4  0  0  0  0
153154  4  0  0  0  0
154155  4  0  0  0  0
155156  4  0  0  0  0
156157  2  0  0  0  0
157158  4  0  0  0  0
133159  1  0  0  0  0
155159  4  0  0  0  0
158159  4  0  0  0  0
158160  4  0  0  0  0
160161  1  0  0  0  0
161162  4  0  0  0  0
162163  4  0  0  0  0
163164  4  0  0  0  0
164165  1  0  0  0  0
165166  2  0  0  0  0
164167  4  0  0  0  0
161168  4  0  0  0  0
167168  4  0  0  0  0
160169  4  0  0  0  0
169170  4  0  0  0  0
170171  2  0  0  0  0
134172  4  0  0  0  0
171172  4  0  0  0  0
133173  1  0  0  0  0
169173  4  0  0  0  0
172173  4  0  0  0  0
136174  1  0  0  0  0
137175  1  0  0  0  0
142176  1  0  0  0  0
143177  1  0  0  0  0
145178  1  0  0  0  0
147179  1  0  0  0  0
148180  1  0  0  0  0
150181  1  0  0  0  0
151182  1  0  0  0  0
156183  1  0  0  0  0
157184  1  0  0  0  0
162185  1  0  0  0  0
163186  1  0  0  0  0
165187  1  0  0  0  0
167188  1  0  0  0  0
168189  1  0  0  0  0
170190  1  0  0  0  0
171191  1  0  0  0  0
128193  4  0  0  0  0
193194  4  0  0  0  0
194195  4  0  0  0  0
195196  2  0  0  0  0
196197  4  0  0  0  0
192198  1  0  0  0  0
194198  4  0  0  0  0
197198  4  0  0  0  0
197199  4  0  0  0  0
199200  1  0  0  0  0
200201  4  0  0  0  0
201202  4  0  0  0  0
202203  4  0  0  0  0
203204  1  0  0  0  0
204205  2  0  0  0  0
203206  4  0  0  0  0
200207  4  0  0  0  0
206207  4  0  0  0  0
199208  4  0  0  0  0
208209  4  0  0  0  0
209210  2  0  0  0  0
192211  1  0  0  0  0
208211  4  0  0  0  0
210212  4  0  0  0  0
211212  4  0  0  0  0
130213  4  0  0  0  0
212213  4  0  0  0  0
213214  4  0  0  0  0
214215  4  0  0  0  0
215216  2  0  0  0  0
216217  4  0  0  0  0
192218  1  0  0  0  0
214218  4  0  0  0  0
217218  4  0  0  0  0
217219  4  0  0  0  0
219220  1  0  0  0  0
220221  4  0  0  0  0
221222  4  0  0  0  0
222223  4  0  0  0  0
223224  1  0  0  0  0
224225  2  0  0  0  0
223226  4  0  0  0  0
220227  4  0  0  0  0
226227  4  0  0  0  0
219228  4  0  0  0  0
228229  4  0  0  0  0
229230  2  0  0  0  0
193231  4  0  0  0  0
230231  4  0  0  0  0
192232  1  0  0  0  0
228232  4  0  0  0  0
231232  4  0  0  0  0
195233  1  0  0  0  0
196234  1  0  0  0  0
201235  1  0  0  0  0
202236  1  0  0  0  0
204237  1  0  0  0  0
206238  1  0  0  0  0
207239  1  0  0  0  0
209240  1  0  0  0  0
210241  1  0  0  0  0
215242  1  0  0  0  0
216243  1  0  0  0  0
221244  1  0  0  0  0
222245  1  0  0  0  0
224246  1  0  0  0  0
226247  1  0  0  0  0
227248  1  0  0  0  0
229249  1  0  0  0  0
230250  1  0  0  0  0
M  END
