464

C 105.432845 -0.005794 -0.060974
C 106.161337 -1.263972 0.503630
C 105.552728 -2.428491 0.913344
C 106.574517 -3.279753 1.408191
C 107.772585 -2.602358 1.290339
N 107.513979 -1.395229 0.690651
C 109.195074 -3.104472 1.779870
C 110.324906 -2.429245 1.435028
C 111.629544 -2.825484 1.924219
C 112.531910 -1.975226 1.448917
N 110.521182 -1.322981 0.650560
C 111.852735 -0.998190 0.620569
C 112.520380 0.004315 -0.010525
C 111.742729 1.037190 -0.931219
C 112.283120 1.772577 -1.968185
C 111.258328 2.606210 -2.481035
C 110.118083 2.348854 -1.750359
C 108.708783 3.054571 -1.933772
C 108.681538 4.392886 -2.566649
C 108.308861 4.538064 -3.908948
C 108.297917 5.800075 -4.505885
C 108.662675 6.924515 -3.764353
C 109.038059 6.787830 -2.427153
C 109.048340 5.525398 -1.830679
C 107.583156 2.433277 -1.494552
C 106.261276 3.022031 -1.617632
C 105.375460 2.169913 -1.110208
C 106.097084 1.015142 -0.634204
N 107.418176 1.222956 -0.880255
N 110.408747 1.354886 -0.845727
C 109.232540 -4.296304 2.660720
C 108.980183 -4.167835 4.031657
C 109.004748 -5.290749 4.860893
C 109.280804 -6.548737 4.323231
C 109.532566 -6.685054 2.957324
C 109.507583 -5.561998 2.128370
H 104.355010 0.042574 0.037152
H 104.494364 -2.635240 0.876275
H 106.447329 -4.266529 1.827343
H 108.215192 -0.705838 0.430872
H 111.840620 -3.656944 2.572822
H 113.585444 -2.025534 1.654278
H 113.305035 1.726646 -2.312415
H 111.342840 3.317918 -3.288432
H 108.024628 3.654218 -4.476131
H 108.003632 5.898188 -5.545781
H 108.653883 7.906078 -4.227309
H 109.323091 7.657438 -1.843719
H 109.339366 5.408095 -0.789037
H 106.033428 3.982611 -2.043358
H 104.311957 2.314237 -1.052412
H 109.725451 0.893486 -0.250781
H 108.767863 -3.182052 4.439866
H 108.809501 -5.176459 5.922298
H 109.301463 -7.421304 4.968307
H 109.750367 -7.659573 2.532366
H 109.705529 -5.654868 1.062696
C 189.010746 -0.036991 -0.041203
C 188.282253 1.010692 -0.937947
C 188.890862 1.878325 -1.816117
C 187.869074 2.689217 -2.374666
C 186.671005 2.293466 -1.812408
N 186.929612 1.235848 -0.976804
C 185.248516 2.950500 -2.057490
C 184.118684 2.350407 -1.594094
C 182.814046 2.961936 -1.743580
C 181.911681 2.169147 -1.177595
N 183.922408 1.168753 -0.928585
C 182.590856 1.002980 -0.647680
C 181.923211 0.004315 -0.010525
C 182.700861 -1.269200 0.530463
C 182.160470 -2.520862 0.752798
C 183.185262 -3.340508 1.287719
C 184.325507 -2.569893 1.366915
C 185.734807 -3.037021 1.926796
C 185.762053 -4.180654 2.866863
C 186.134729 -5.456471 2.425126
C 186.145673 -6.535030 3.311532
C 185.780915 -6.344480 4.644922
C 185.405532 -5.076900 5.092163
C 185.395250 -3.998581 4.205177
C 186.860435 -2.374607 1.552462
C 188.182314 -2.737244 2.032330
C 189.068130 -1.914615 1.478377
C 188.346506 -0.991197 0.637321
N 187.025415 -1.302415 0.720208
N 184.034843 -1.327513 0.854253
C 185.211051 4.255841 -2.759233
C 185.463407 5.440738 -2.057811
C 185.438843 6.669984 -2.719265
C 185.162786 6.720806 -4.086391
C 184.911024 5.543808 -4.792763
C 184.936008 4.314756 -4.131060
H 190.088581 0.031097 0.044426
H 189.949226 1.933065 -2.018905
H 187.996261 3.489507 -3.088073
H 186.228398 0.706632 -0.464286
H 182.602970 3.903415 -2.218583
H 180.858146 2.376332 -1.135420
H 181.138555 -2.812542 0.564312
H 183.100750 -4.374463 1.586643
H 186.418963 -5.592065 1.383734
H 186.439958 -7.517292 2.956329
H 185.789707 -7.182158 5.334916
H 185.120499 -4.920532 6.127615
H 185.104224 -3.006547 4.543773
H 188.410162 -3.532297 2.719242
H 190.131633 -1.923961 1.633562
H 184.718140 -0.592533 0.690988
H 185.675728 5.389054 -0.992104
H 185.634089 7.581023 -2.162803
H 185.142127 7.676644 -4.600073
H 184.693224 5.575537 -5.855434
H 184.738062 3.390713 -4.669974
C 114.534992 0.004315 -0.010525
C 115.756910 0.004315 -0.010525
C 125.226940 0.004315 -0.010525
C 126.448858 0.004315 -0.010525
C 135.918888 0.004315 -0.010525
C 137.140806 0.004315 -0.010525
C 146.610836 0.004315 -0.010525
C 147.832754 0.004315 -0.010525
C 157.302784 0.004315 -0.010525
C 158.524702 0.004315 -0.010525
C 167.994732 0.004315 -0.010525
C 169.216650 0.004315 -0.010525
C 178.686680 0.004315 -0.010525
C 179.908598 0.004315 -0.010525
C 116.914977 -0.001644 0.004009
C 117.708629 1.108179 0.809969
C 117.201903 1.932921 1.793863
C 118.238802 2.821620 2.177102
C 119.348243 2.506818 1.420858
N 119.037291 1.416044 0.648058
C 120.737869 3.266931 1.429502
C 121.872677 2.613089 1.065850
C 123.159608 3.274405 0.999911
C 124.067570 2.386118 0.610232
N 122.080708 1.314435 0.690922
C 123.405216 1.113183 0.407745
C 124.069014 -0.001644 0.004009
C 123.275378 -1.357567 -0.202870
C 123.782145 -2.635778 -0.082909
C 122.745243 -3.537275 -0.434987
C 121.635761 -2.781798 -0.751475
C 120.246108 -3.328520 -1.279548
C 120.255234 -4.606740 -2.029376
C 120.733296 -4.646994 -3.344261
C 120.758301 -5.851986 -4.049281
C 120.307512 -7.024908 -3.442253
C 119.832570 -6.994404 -2.130570
C 119.808513 -5.789356 -1.425975
C 119.111310 -2.607821 -1.078634
C 117.824373 -3.031857 -1.590373
C 116.916415 -2.126124 -1.243171
C 117.578775 -1.078379 -0.492453
N 118.903287 -1.420560 -0.432509
N 121.946696 -1.462750 -0.534358
C 120.728623 4.703200 1.794506
C 120.250360 5.655915 0.887485
C 120.225040 7.008585 1.232924
C 120.675717 7.416358 2.489128
C 121.150890 6.472837 3.400713
C 121.175266 5.120422 3.054931
H 116.193471 1.914729 2.178244
H 118.178197 3.615260 2.906572
H 119.698395 0.893433 0.080725
H 123.354245 4.309483 1.217020
H 125.112012 2.596911 0.470520
H 124.790605 -2.893024 0.203184
H 122.805874 -4.614521 -0.474074
H 121.083611 -3.727770 -3.808775
H 121.130043 -5.867599 -5.068806
H 120.326294 -7.961082 -3.991002
H 119.479589 -7.902100 -1.651877
H 119.439011 -5.753341 -0.403315
H 117.629730 -3.920693 -2.163518
H 115.871972 -2.177848 -1.490710
H 121.285570 -0.692258 -0.570455
H 119.900092 5.328455 -0.089017
H 119.853112 7.736186 0.518692
H 120.656654 8.467969 2.756806
H 121.503768 6.782137 4.379217
H 121.544901 4.376101 3.757080
C 127.606925 -0.001644 0.004009
C 128.400577 1.108179 0.809969
C 127.893851 1.932921 1.793863
C 128.930750 2.821620 2.177102
C 130.040191 2.506818 1.420858
N 129.729239 1.416044 0.648058
C 131.429817 3.266931 1.429502
C 132.564625 2.613089 1.065850
C 133.851556 3.274405 0.999911
C 134.759518 2.386118 0.610232
N 132.772656 1.314435 0.690922
C 134.097164 1.113183 0.407745
C 134.760962 -0.001644 0.004009
C 133.967326 -1.357567 -0.202870
C 134.474093 -2.635778 -0.082909
C 133.437191 -3.537275 -0.434987
C 132.327709 -2.781798 -0.751475
C 130.938056 -3.328520 -1.279548
C 130.947182 -4.606740 -2.029376
C 131.425244 -4.646994 -3.344261
C 131.450249 -5.851986 -4.049281
C 130.999460 -7.024908 -3.442253
C 130.524518 -6.994404 -2.130570
C 130.500461 -5.789356 -1.425975
C 129.803258 -2.607821 -1.078634
C 128.516321 -3.031857 -1.590373
C 127.608363 -2.126124 -1.243171
C 128.270723 -1.078379 -0.492453
N 129.595235 -1.420560 -0.432509
N 132.638644 -1.462750 -0.534358
C 131.420571 4.703200 1.794506
C 130.942308 5.655915 0.887485
C 130.916988 7.008585 1.232924
C 131.367665 7.416358 2.489128
C 131.842838 6.472837 3.400713
C 131.867214 5.120422 3.054931
H 126.885419 1.914729 2.178244
H 128.870145 3.615260 2.906572
H 130.390343 0.893433 0.080725
H 134.046193 4.309483 1.217020
H 135.803960 2.596911 0.470520
H 135.482553 -2.893024 0.203184
H 133.497822 -4.614521 -0.474074
H 131.775559 -3.727770 -3.808775
H 131.821991 -5.867599 -5.068806
H 131.018242 -7.961082 -3.991002
H 130.171537 -7.902100 -1.651877
H 130.130959 -5.753341 -0.403315
H 128.321678 -3.920693 -2.163518
H 126.563920 -2.177848 -1.490710
H 131.977518 -0.692258 -0.570455
H 130.592040 5.328455 -0.089017
H 130.545060 7.736186 0.518692
H 131.348602 8.467969 2.756806
H 132.195716 6.782137 4.379217
H 132.236849 4.376101 3.757080
C 138.298873 -0.001644 0.004009
C 139.092525 1.108179 0.809969
C 138.585799 1.932921 1.793863
C 139.622698 2.821620 2.177102
C 140.732139 2.506818 1.420858
N 140.421187 1.416044 0.648058
C 142.121765 3.266931 1.429502
C 143.256573 2.613089 1.065850
C 144.543504 3.274405 0.999911
C 145.451466 2.386118 0.610232
N 143.464604 1.314435 0.690922
C 144.789112 1.113183 0.407745
C 145.452910 -0.001644 0.004009
C 144.659274 -1.357567 -0.202870
C 145.166041 -2.635778 -0.082909
C 144.129139 -3.537275 -0.434987
C 143.019657 -2.781798 -0.751475
C 141.630004 -3.328520 -1.279548
C 141.639130 -4.606740 -2.029376
C 142.117192 -4.646994 -3.344261
C 142.142197 -5.851986 -4.049281
C 141.691408 -7.024908 -3.442253
C 141.216466 -6.994404 -2.130570
C 141.192409 -5.789356 -1.425975
C 140.495206 -2.607821 -1.078634
C 139.208269 -3.031857 -1.590373
C 138.300311 -2.126124 -1.243171
C 138.962671 -1.078379 -0.492453
N 140.287183 -1.420560 -0.432509
N 143.330592 -1.462750 -0.534358
C 142.112519 4.703200 1.794506
C 141.634256 5.655915 0.887485
C 141.608936 7.008585 1.232924
C 142.059613 7.416358 2.489128
C 142.534786 6.472837 3.400713
C 142.559162 5.120422 3.054931
H 137.577367 1.914729 2.178244
H 139.562093 3.615260 2.906572
H 141.082291 0.893433 0.080725
H 144.738141 4.309483 1.217020
H 146.495908 2.596911 0.470520
H 146.174501 -2.893024 0.203184
H 144.189770 -4.614521 -0.474074
H 142.467507 -3.727770 -3.808775
H 142.513939 -5.867599 -5.068806
H 141.710190 -7.961082 -3.991002
H 140.863485 -7.902100 -1.651877
H 140.822907 -5.753341 -0.403315
H 139.013626 -3.920693 -2.163518
H 137.255868 -2.177848 -1.490710
H 142.669466 -0.692258 -0.570455
H 141.283988 5.328455 -0.089017
H 141.237008 7.736186 0.518692
H 142.040550 8.467969 2.756806
H 142.887664 6.782137 4.379217
H 142.928797 4.376101 3.757080
C 148.990821 -0.001644 0.004009
C 149.784473 1.108179 0.809969
C 149.277747 1.932921 1.793863
C 150.314646 2.821620 2.177102
C 151.424087 2.506818 1.420858
N 151.113135 1.416044 0.648058
C 152.813713 3.266931 1.429502
C 153.948521 2.613089 1.065850
C 155.235452 3.274405 0.999911
C 156.143414 2.386118 0.610232
N 154.156552 1.314435 0.690922
C 155.481060 1.113183 0.407745
C 156.144858 -0.001644 0.004009
C 155.351222 -1.357567 -0.202870
C 155.857989 -2.635778 -0.082909
C 154.821087 -3.537275 -0.434987
C 153.711605 -2.781798 -0.751475
C 152.321952 -3.328520 -1.279548
C 152.331078 -4.606740 -2.029376
C 152.809140 -4.646994 -3.344261
C 152.834145 -5.851986 -4.049281
C 152.383356 -7.024908 -3.442253
C 151.908414 -6.994404 -2.130570
C 151.884357 -5.789356 -1.425975
C 151.187154 -2.607821 -1.078634
C 149.900217 -3.031857 -1.590373
C 148.992259 -2.126124 -1.243171
C 149.654619 -1.078379 -0.492453
N 150.979131 -1.420560 -0.432509
N 154.022540 -1.462750 -0.534358
C 152.804467 4.703200 1.794506
C 152.326204 5.655915 0.887485
C 152.300884 7.008585 1.232924
C 152.751561 7.416358 2.489128
C 153.226734 6.472837 3.400713
C 153.251110 5.120422 3.054931
H 148.269315 1.914729 2.178244
H 150.254041 3.615260 2.906572
H 151.774239 0.893433 0.080725
H 155.430089 4.309483 1.217020
H 157.187856 2.596911 0.470520
H 156.866449 -2.893024 0.203184
H 154.881718 -4.614521 -0.474074
H 153.159455 -3.727770 -3.808775
H 153.205887 -5.867599 -5.068806
H 152.402138 -7.961082 -3.991002
H 151.555433 -7.902100 -1.651877
H 151.514855 -5.753341 -0.403315
H 149.705574 -3.920693 -2.163518
H 147.947816 -2.177848 -1.490710
H 153.361414 -0.692258 -0.570455
H 151.975936 5.328455 -0.089017
H 151.928956 7.736186 0.518692
H 152.732498 8.467969 2.756806
H 153.579612 6.782137 4.379217
H 153.620745 4.376101 3.757080
C 159.682769 -0.001644 0.004009
C 160.476421 1.108179 0.809969
C 159.969695 1.932921 1.793863
C 161.006593 2.821620 2.177102
C 162.116035 2.506818 1.420858
N 161.805083 1.416044 0.648058
C 163.505661 3.266931 1.429502
C 164.640469 2.613089 1.065850
C 165.927400 3.274405 0.999911
C 166.835362 2.386118 0.610232
N 164.848500 1.314435 0.690922
C 166.173008 1.113183 0.407745
C 166.836806 -0.001644 0.004009
C 166.043170 -1.357567 -0.202870
C 166.549937 -2.635778 -0.082909
C 165.513035 -3.537275 -0.434987
C 164.403553 -2.781798 -0.751475
C 163.013900 -3.328520 -1.279548
C 163.023026 -4.606740 -2.029376
C 163.501088 -4.646994 -3.344261
C 163.526093 -5.851986 -4.049281
C 163.075304 -7.024908 -3.442253
C 162.600362 -6.994404 -2.130570
C 162.576305 -5.789356 -1.425975
C 161.879102 -2.607821 -1.078634
C 160.592165 -3.031857 -1.590373
C 159.684207 -2.126124 -1.243171
C 160.346567 -1.078379 -0.492453
N 161.671079 -1.420560 -0.432509
N 164.714488 -1.462750 -0.534358
C 163.496415 4.703200 1.794506
C 163.018152 5.655915 0.887485
C 162.992832 7.008585 1.232924
C 163.443509 7.416358 2.489128
C 163.918682 6.472837 3.400713
C 163.943058 5.120422 3.054931
H 158.961263 1.914729 2.178244
H 160.945989 3.615260 2.906572
H 162.466187 0.893433 0.080725
H 166.122037 4.309483 1.217020
H 167.879804 2.596911 0.470520
H 167.558397 -2.893024 0.203184
H 165.573666 -4.614521 -0.474074
H 163.851403 -3.727770 -3.808775
H 163.897835 -5.867599 -5.068806
H 163.094086 -7.961082 -3.991002
H 162.247381 -7.902100 -1.651877
H 162.206803 -5.753341 -0.403315
H 160.397522 -3.920693 -2.163518
H 158.639764 -2.177848 -1.490710
H 164.053362 -0.692258 -0.570455
H 162.667884 5.328455 -0.089017
H 162.620904 7.736186 0.518692
H 163.424446 8.467969 2.756806
H 164.271560 6.782137 4.379217
H 164.312693 4.376101 3.757080
C 170.374717 -0.001644 0.004009
C 171.168369 1.108179 0.809969
C 170.661643 1.932921 1.793863
C 171.698541 2.821620 2.177102
C 172.807983 2.506818 1.420858
N 172.497031 1.416044 0.648058
C 174.197609 3.266931 1.429502
C 175.332417 2.613089 1.065850
C 176.619348 3.274405 0.999911
C 177.527310 2.386118 0.610232
N 175.540448 1.314435 0.690922
C 176.864956 1.113183 0.407745
C 177.528754 -0.001644 0.004009
C 176.735118 -1.357567 -0.202870
C 177.241885 -2.635778 -0.082909
C 176.204983 -3.537275 -0.434987
C 175.095500 -2.781798 -0.751475
C 173.705848 -3.328520 -1.279548
C 173.714974 -4.606740 -2.029376
C 174.193036 -4.646994 -3.344261
C 174.218041 -5.851986 -4.049281
C 173.767252 -7.024908 -3.442253
C 173.292310 -6.994404 -2.130570
C 173.268253 -5.789356 -1.425975
C 172.571050 -2.607821 -1.078634
C 171.284113 -3.031857 -1.590373
C 170.376155 -2.126124 -1.243171
C 171.038515 -1.078379 -0.492453
N 172.363027 -1.420560 -0.432509
N 175.406436 -1.462750 -0.534358
C 174.188363 4.703200 1.794506
C 173.710100 5.655915 0.887485
C 173.684780 7.008585 1.232924
C 174.135457 7.416358 2.489128
C 174.610630 6.472837 3.400713
C 174.635006 5.120422 3.054931
H 169.653211 1.914729 2.178244
H 171.637937 3.615260 2.906572
H 173.158135 0.893433 0.080725
H 176.813985 4.309483 1.217020
H 178.571752 2.596911 0.470520
H 178.250345 -2.893024 0.203184
H 176.265614 -4.614521 -0.474074
H 174.543351 -3.727770 -3.808775
H 174.589783 -5.867599 -5.068806
H 173.786034 -7.961082 -3.991002
H 172.939329 -7.902100 -1.651877
H 172.898751 -5.753341 -0.403315
H 171.089470 -3.920693 -2.163518
H 169.331712 -2.177848 -1.490710
H 174.745310 -0.692258 -0.570455
H 173.359832 5.328455 -0.089017
H 173.312852 7.736186 0.518692
H 174.116394 8.467969 2.756806
H 174.963508 6.782137 4.379217
H 175.004641 4.376101 3.757080
