122

Co 17.231234 -0.008756 -0.001082
C 13.869481 0.126350 -0.120106
C 14.535540 1.280043 -0.019674
C 13.885715 2.581642 0.074258
C 14.825819 3.495861 0.219481
C 16.131154 2.820794 0.220442
N 15.953783 1.412228 0.065608
C 17.320568 3.433131 0.393495
C 17.356900 4.900073 0.586033
C 17.611762 5.437788 1.855681
C 17.650505 6.822981 2.038827
C 17.430161 7.688470 0.953184
C 17.463486 9.151995 1.127045
O 17.697835 9.668296 2.252296
C 17.174075 7.146564 -0.316016
C 17.140059 5.761324 -0.499549
C 18.616311 2.702214 0.410181
C 19.911094 3.344054 0.668883
C 20.845248 2.420752 0.576047
N 18.755007 1.435805 0.159032
C 20.156944 1.178695 0.247323
C 20.753056 0.000000 0.000000
C 19.998169 -1.223454 -0.358444
C 20.551791 -2.311896 -0.878441
C 19.507824 -3.306845 -1.012162
C 18.383119 -2.763176 -0.563184
N 18.601640 -1.418724 -0.129020
C 17.086418 -3.483361 -0.476910
C 17.095907 -4.963388 -0.552410
C 16.533575 -5.622588 -1.656875
C 16.563073 -7.017852 -1.733972
C 17.159941 -7.772451 -0.711664
C 17.187665 -9.243032 -0.813025
O 17.763709 -9.944395 0.059514
C 17.727640 -7.109930 0.391304
C 17.698257 -5.714559 0.467355
C 15.918176 -2.830009 -0.333232
C 14.596474 -3.443666 -0.216064
C 13.736028 -2.448072 -0.130605
C 14.498944 -1.202069 -0.180554
N 15.772406 -1.411839 -0.298710
H 12.786210 0.159165 -0.136945
H 12.821876 2.779408 0.046985
H 14.637303 4.555803 0.329761
H 17.781200 4.783115 2.701920
H 17.851122 7.215571 3.027804
H 17.285996 9.801888 0.279793
H 17.001152 7.795901 -1.165657
H 16.943035 5.358490 -1.485756
H 20.093645 4.387419 0.887901
H 21.906210 2.588148 0.706035
H 21.591904 -2.448797 -1.141627
H 19.631784 -4.311942 -1.393382
H 16.077202 -5.054692 -2.459219
H 16.125204 -7.508443 -2.595554
H 16.716124 -9.735901 -1.653240
H 18.193886 -7.669005 1.193647
H 18.141405 -5.218792 1.322771
H 14.345364 -4.496194 -0.197058
H 12.663020 -2.550144 -0.032469
Co 27.906526 0.008821 0.000176
C 31.268279 -0.107959 -0.136875
C 30.602219 -1.264195 -0.201760
C 31.252045 -2.565905 -0.294143
C 30.311941 -3.491487 -0.280591
C 29.006605 -2.823438 -0.183506
N 29.183977 -1.407178 -0.136172
C 27.817192 -3.454178 -0.099418
C 27.780860 -4.933588 -0.117745
C 27.525998 -5.646629 1.062389
C 27.487255 -7.043786 1.046407
C 27.707599 -7.745850 -0.151423
C 27.674274 -9.219218 -0.187750
O 27.439925 -9.890502 0.852508
C 27.963685 -7.028725 -1.330516
C 27.997701 -5.631466 -1.314911
C 26.521449 -2.733087 0.021186
C 25.226666 -3.405225 0.185849
C 24.292512 -2.478113 0.225444
N 26.382753 -1.443819 -0.047057
C 24.980815 -1.201903 0.076948
C 24.384703 -0.000000 -0.000000
C 25.139590 1.262030 -0.180563
C 24.585969 2.413430 -0.540258
C 25.629936 3.417281 -0.530928
C 26.754640 2.815215 -0.163949
N 26.536120 1.422638 0.074331
C 28.051342 3.515774 0.024006
C 28.041853 4.991469 0.160041
C 28.604184 5.801234 -0.839293
C 28.574687 7.193257 -0.716908
C 27.977819 7.794581 0.402441
C 27.950094 9.264609 0.511534
O 27.374051 9.834569 1.475059
C 27.410119 6.981742 1.399820
C 27.439503 5.589762 1.276385
C 29.219584 2.848620 0.073178
C 30.541285 3.439338 0.276540
C 31.401732 2.441720 0.219349
C 30.638816 1.215530 -0.007531
N 29.365354 1.439988 -0.094610
H 32.351550 -0.138041 -0.158215
H 32.315884 -2.757772 -0.349301
H 30.500457 -4.556332 -0.322378
H 27.356560 -5.119139 1.993234
H 27.286638 -7.573212 1.969397
H 27.851764 -9.741833 -1.118916
H 28.136608 -7.550449 -2.263968
H 28.194725 -5.092295 -2.233700
H 25.044115 -4.469146 0.254052
H 23.231550 -2.662314 0.330269
H 23.545856 2.586415 -0.781266
H 25.505976 4.466423 -0.765130
H 29.060558 5.353386 -1.714332
H 29.012555 7.801543 -1.499845
H 28.421636 9.872107 -0.249930
H 26.943874 7.420860 2.273601
H 26.996355 4.977231 2.052482
H 30.792396 4.478432 0.445240
H 32.474740 2.528777 0.331020
C 21.957921 0.000000 0.000000
C 23.179839 0.000000 0.000000
