 xtb: 6.5.1 (b24c23e)
          07292222053D

122141  0     0  0            999 V2000
   17.1576    0.0653   -0.0685 Co  0  0  0  0  0  0  0  0  0  0  0  0
   13.7890    0.1287   -0.2960 C   0  0  0  0  0  0  0  0  0  0  0  0
   14.4709    1.3238   -0.3658 C   0  0  0  0  0  0  0  0  0  0  0  0
   13.8265    2.5954   -0.4951 C   0  0  0  0  0  0  0  0  0  0  0  0
   14.7796    3.5348   -0.2956 C   0  0  0  0  0  0  0  0  0  0  0  0
   16.0101    2.8358   -0.0639 C   0  0  0  0  0  0  0  0  0  0  0  0
   15.8183    1.4807   -0.1542 N   0  0  0  0  0  0  0  0  0  0  0  0
   17.1883    3.4477    0.3423 C   0  0  0  0  0  0  0  0  0  0  0  0
   17.1919    4.9111    0.5750 C   0  0  0  0  0  0  0  0  0  0  0  0
   17.3844    5.4159    1.8639 C   0  0  0  0  0  0  0  0  0  0  0  0
   17.3708    6.7794    2.0867 C   0  0  0  0  0  0  0  0  0  0  0  0
   17.1713    7.6678    1.0250 C   0  0  0  0  0  0  0  0  0  0  0  0
   17.1538    9.1186    1.2905 C   0  0  0  0  0  0  0  0  0  0  0  0
   17.2946    9.5994    2.3853 O   0  0  0  0  0  0  0  0  0  0  0  0
   16.9883    7.1636   -0.2646 C   0  0  0  0  0  0  0  0  0  0  0  0
   16.9961    5.7976   -0.4866 C   0  0  0  0  0  0  0  0  0  0  0  0
   18.3624    2.7351    0.5312 C   0  0  0  0  0  0  0  0  0  0  0  0
   19.6130    3.3384    0.8820 C   0  0  0  0  0  0  0  0  0  0  0  0
   20.5611    2.3814    0.7424 C   0  0  0  0  0  0  0  0  0  0  0  0
   18.5410    1.4058    0.2214 N   0  0  0  0  0  0  0  0  0  0  0  0
   19.8887    1.1971    0.3108 C   0  0  0  0  0  0  0  0  0  0  0  0
   20.5532    0.0266   -0.0599 C   0  0  0  0  0  0  0  0  0  0  0  0
   19.8651   -1.1383   -0.4009 C   0  0  0  0  0  0  0  0  0  0  0  0
   20.5136   -2.3523   -0.7843 C   0  0  0  0  0  0  0  0  0  0  0  0
   19.5500   -3.3012   -0.8583 C   0  0  0  0  0  0  0  0  0  0  0  0
   18.3148   -2.6620   -0.5178 C   0  0  0  0  0  0  0  0  0  0  0  0
   18.5129   -1.3182   -0.3004 N   0  0  0  0  0  0  0  0  0  0  0  0
   17.1104   -3.3327   -0.3614 C   0  0  0  0  0  0  0  0  0  0  0  0
   17.0923   -4.8075   -0.4761 C   0  0  0  0  0  0  0  0  0  0  0  0
   16.3115   -5.4289   -1.4549 C   0  0  0  0  0  0  0  0  0  0  0  0
   16.2984   -6.8074   -1.5701 C   0  0  0  0  0  0  0  0  0  0  0  0
   17.0622   -7.5931   -0.7039 C   0  0  0  0  0  0  0  0  0  0  0  0
   17.0642   -9.0642   -0.8054 C   0  0  0  0  0  0  0  0  0  0  0  0
   17.7059   -9.7836   -0.0839 O   0  0  0  0  0  0  0  0  0  0  0  0
   17.8415   -6.9718    0.2776 C   0  0  0  0  0  0  0  0  0  0  0  0
   17.8593   -5.5948    0.3881 C   0  0  0  0  0  0  0  0  0  0  0  0
   15.9199   -2.6579   -0.1261 C   0  0  0  0  0  0  0  0  0  0  0  0
   14.6516   -3.3018    0.0552 C   0  0  0  0  0  0  0  0  0  0  0  0
   13.7135   -2.3258    0.0484 C   0  0  0  0  0  0  0  0  0  0  0  0
   14.4117   -1.0871   -0.1129 C   0  0  0  0  0  0  0  0  0  0  0  0
   15.7667   -1.2955   -0.1639 N   0  0  0  0  0  0  0  0  0  0  0  0
   12.7077    0.1486   -0.3630 H   0  0  0  0  0  0  0  0  0  0  0  0
   12.7737    2.7297   -0.6856 H   0  0  0  0  0  0  0  0  0  0  0  0
   14.6691    4.6069   -0.2858 H   0  0  0  0  0  0  0  0  0  0  0  0
   17.5275    4.7283    2.6897 H   0  0  0  0  0  0  0  0  0  0  0  0
   17.5109    7.1805    3.0848 H   0  0  0  0  0  0  0  0  0  0  0  0
   16.9958    9.7454    0.3871 H   0  0  0  0  0  0  0  0  0  0  0  0
   16.8388    7.8464   -1.0946 H   0  0  0  0  0  0  0  0  0  0  0  0
   16.8638    5.4088   -1.4900 H   0  0  0  0  0  0  0  0  0  0  0  0
   19.7405    4.3683    1.1727 H   0  0  0  0  0  0  0  0  0  0  0  0
   21.6239    2.4572    0.9059 H   0  0  0  0  0  0  0  0  0  0  0  0
   21.5718   -2.4514   -0.9640 H   0  0  0  0  0  0  0  0  0  0  0  0
   19.6542   -4.3411   -1.1216 H   0  0  0  0  0  0  0  0  0  0  0  0
   15.7286   -4.8210   -2.1376 H   0  0  0  0  0  0  0  0  0  0  0  0
   15.6945   -7.2811   -2.3373 H   0  0  0  0  0  0  0  0  0  0  0  0
   16.4169   -9.4660   -1.6139 H   0  0  0  0  0  0  0  0  0  0  0  0
   18.4289   -7.5903    0.9477 H   0  0  0  0  0  0  0  0  0  0  0  0
   18.4558   -5.1164    1.1566 H   0  0  0  0  0  0  0  0  0  0  0  0
   14.5113   -4.3645    0.1681 H   0  0  0  0  0  0  0  0  0  0  0  0
   12.6432   -2.4157    0.1436 H   0  0  0  0  0  0  0  0  0  0  0  0
   27.9802   -0.0549   -0.0771 Co  0  0  0  0  0  0  0  0  0  0  0  0
   31.3488   -0.0852   -0.3113 C   0  0  0  0  0  0  0  0  0  0  0  0
   30.6669   -1.2582   -0.5506 C   0  0  0  0  0  0  0  0  0  0  0  0
   31.3113   -2.4984   -0.8597 C   0  0  0  0  0  0  0  0  0  0  0  0
   30.3581   -3.4567   -0.7959 C   0  0  0  0  0  0  0  0  0  0  0  0
   29.1277   -2.7978   -0.4671 C   0  0  0  0  0  0  0  0  0  0  0  0
   29.3195   -1.4437   -0.3636 N   0  0  0  0  0  0  0  0  0  0  0  0
   27.9495   -3.4613   -0.1522 C   0  0  0  0  0  0  0  0  0  0  0  0
   27.9459   -4.9429   -0.1302 C   0  0  0  0  0  0  0  0  0  0  0  0
   27.7532   -5.6261    1.0736 C   0  0  0  0  0  0  0  0  0  0  0  0
   27.7668   -7.0075    1.1000 C   0  0  0  0  0  0  0  0  0  0  0  0
   27.9664   -7.7356   -0.0773 C   0  0  0  0  0  0  0  0  0  0  0  0
   27.9837   -9.2094   -0.0213 C   0  0  0  0  0  0  0  0  0  0  0  0
   27.8430   -9.8413    0.9939 O   0  0  0  0  0  0  0  0  0  0  0  0
   28.1496   -7.0529   -1.2820 C   0  0  0  0  0  0  0  0  0  0  0  0
   28.1418   -5.6693   -1.3072 C   0  0  0  0  0  0  0  0  0  0  0  0
   26.7754   -2.7828    0.1362 C   0  0  0  0  0  0  0  0  0  0  0  0
   25.5247   -3.4300    0.3976 C   0  0  0  0  0  0  0  0  0  0  0  0
   24.5767   -2.4628    0.3957 C   0  0  0  0  0  0  0  0  0  0  0  0
   26.5968   -1.4230    0.0189 N   0  0  0  0  0  0  0  0  0  0  0  0
   25.2491   -1.2291    0.1371 C   0  0  0  0  0  0  0  0  0  0  0  0
   24.5845   -0.0178   -0.0631 C   0  0  0  0  0  0  0  0  0  0  0  0
   25.2727    1.1838   -0.2347 C   0  0  0  0  0  0  0  0  0  0  0  0
   24.6242    2.4400   -0.4413 C   0  0  0  0  0  0  0  0  0  0  0  0
   25.5878    3.3898   -0.3794 C   0  0  0  0  0  0  0  0  0  0  0  0
   26.8230    2.7086   -0.1335 C   0  0  0  0  0  0  0  0  0  0  0  0
   26.6249    1.3475   -0.1097 N   0  0  0  0  0  0  0  0  0  0  0  0
   28.0273    3.3502    0.1169 C   0  0  0  0  0  0  0  0  0  0  0  0
   28.0454    4.8263    0.2134 C   0  0  0  0  0  0  0  0  0  0  0  0
   28.8262    5.5807   -0.6669 C   0  0  0  0  0  0  0  0  0  0  0  0
   28.8394    6.9616   -0.5847 C   0  0  0  0  0  0  0  0  0  0  0  0
   28.0756    7.6159    0.3846 C   0  0  0  0  0  0  0  0  0  0  0  0
   28.0736    9.0865    0.4937 C   0  0  0  0  0  0  0  0  0  0  0  0
   27.4318    9.6958    1.3102 O   0  0  0  0  0  0  0  0  0  0  0  0
   27.2963    6.8612    1.2676 C   0  0  0  0  0  0  0  0  0  0  0  0
   27.2785    5.4825    1.1809 C   0  0  0  0  0  0  0  0  0  0  0  0
   29.2179    2.6488    0.2536 C   0  0  0  0  0  0  0  0  0  0  0  0
   30.4862    3.2602    0.5248 C   0  0  0  0  0  0  0  0  0  0  0  0
   31.4242    2.2952    0.3790 C   0  0  0  0  0  0  0  0  0  0  0  0
   30.7261    1.0922    0.0431 C   0  0  0  0  0  0  0  0  0  0  0  0
   29.3710    1.3057    0.0223 N   0  0  0  0  0  0  0  0  0  0  0  0
   32.4301   -0.0954   -0.3805 H   0  0  0  0  0  0  0  0  0  0  0  0
   32.3641   -2.6043   -1.0674 H   0  0  0  0  0  0  0  0  0  0  0  0
   30.4687   -4.5192   -0.9389 H   0  0  0  0  0  0  0  0  0  0  0  0
   27.6102   -5.0631    1.9890 H   0  0  0  0  0  0  0  0  0  0  0  0
   27.6269   -7.5466    2.0309 H   0  0  0  0  0  0  0  0  0  0  0  0
   28.1423   -9.7012   -1.0045 H   0  0  0  0  0  0  0  0  0  0  0  0
   28.2989   -7.6106   -2.2008 H   0  0  0  0  0  0  0  0  0  0  0  0
   28.2739   -5.1416   -2.2450 H   0  0  0  0  0  0  0  0  0  0  0  0
   25.3973   -4.4908    0.5387 H   0  0  0  0  0  0  0  0  0  0  0  0
   23.5139   -2.5611    0.5467 H   0  0  0  0  0  0  0  0  0  0  0  0
   23.5659    2.5637   -0.6050 H   0  0  0  0  0  0  0  0  0  0  0  0
   25.4836    4.4566   -0.4919 H   0  0  0  0  0  0  0  0  0  0  0  0
   29.4091    5.0763   -1.4293 H   0  0  0  0  0  0  0  0  0  0  0  0
   29.4432    7.5398   -1.2766 H   0  0  0  0  0  0  0  0  0  0  0  0
   28.7209    9.5994   -0.2493 H   0  0  0  0  0  0  0  0  0  0  0  0
   26.7090    7.3780    2.0190 H   0  0  0  0  0  0  0  0  0  0  0  0
   26.6820    4.8995    1.8735 H   0  0  0  0  0  0  0  0  0  0  0  0
   30.6265    4.2961    0.7879 H   0  0  0  0  0  0  0  0  0  0  0  0
   32.4946    2.3707    0.4860 H   0  0  0  0  0  0  0  0  0  0  0  0
   21.9608    0.0134   -0.0669 C   0  0  0  0  0  0  0  0  0  0  0  0
   23.1770   -0.0037   -0.0682 C   0  0  0  0  0  0  0  0  0  0  0  0
  2  3  4  0  0  0  0
  3  4  1  0  0  0  0
  4  5  2  0  0  0  0
  5  6  4  0  0  0  0
  1  7  1  0  0  0  0
  3  7  4  0  0  0  0
  6  7  4  0  0  0  0
  6  8  4  0  0  0  0
  8  9  1  0  0  0  0
  9 10  4  0  0  0  0
 10 11  4  0  0  0  0
 11 12  4  0  0  0  0
 12 13  1  0  0  0  0
 13 14  2  0  0  0  0
 12 15  4  0  0  0  0
  9 16  4  0  0  0  0
 15 16  4  0  0  0  0
  8 17  4  0  0  0  0
 17 18  4  0  0  0  0
 18 19  2  0  0  0  0
  1 20  1  0  0  0  0
 17 20  4  0  0  0  0
 19 21  4  0  0  0  0
 20 21  4  0  0  0  0
 21 22  4  0  0  0  0
 22 23  4  0  0  0  0
 23 24  4  0  0  0  0
 24 25  2  0  0  0  0
 25 26  4  0  0  0  0
  1 27  1  0  0  0  0
 23 27  4  0  0  0  0
 26 27  4  0  0  0  0
 26 28  4  0  0  0  0
 28 29  1  0  0  0  0
 29 30  4  0  0  0  0
 30 31  4  0  0  0  0
 31 32  4  0  0  0  0
 32 33  1  0  0  0  0
 33 34  2  0  0  0  0
 32 35  4  0  0  0  0
 29 36  4  0  0  0  0
 35 36  4  0  0  0  0
 28 37  4  0  0  0  0
 37 38  4  0  0  0  0
 38 39  2  0  0  0  0
  2 40  4  0  0  0  0
 39 40  1  0  0  0  0
  1 41  1  0  0  0  0
 37 41  4  0  0  0  0
 40 41  4  0  0  0  0
  2 42  1  0  0  0  0
  4 43  1  0  0  0  0
  5 44  1  0  0  0  0
 10 45  1  0  0  0  0
 11 46  1  0  0  0  0
 13 47  1  0  0  0  0
 15 48  1  0  0  0  0
 16 49  1  0  0  0  0
 18 50  1  0  0  0  0
 19 51  1  0  0  0  0
 24 52  1  0  0  0  0
 25 53  1  0  0  0  0
 30 54  1  0  0  0  0
 31 55  1  0  0  0  0
 33 56  1  0  0  0  0
 35 57  1  0  0  0  0
 36 58  1  0  0  0  0
 38 59  1  0  0  0  0
 39 60  1  0  0  0  0
 62 63  4  0  0  0  0
 63 64  1  0  0  0  0
 64 65  2  0  0  0  0
 65 66  4  0  0  0  0
 61 67  1  0  0  0  0
 63 67  4  0  0  0  0
 66 67  4  0  0  0  0
 66 68  4  0  0  0  0
 68 69  1  0  0  0  0
 69 70  4  0  0  0  0
 70 71  4  0  0  0  0
 71 72  4  0  0  0  0
 72 73  1  0  0  0  0
 73 74  2  0  0  0  0
 72 75  4  0  0  0  0
 69 76  4  0  0  0  0
 75 76  4  0  0  0  0
 68 77  4  0  0  0  0
 77 78  4  0  0  0  0
 78 79  2  0  0  0  0
 61 80  1  0  0  0  0
 77 80  4  0  0  0  0
 79 81  4  0  0  0  0
 80 81  4  0  0  0  0
 81 82  4  0  0  0  0
 82 83  4  0  0  0  0
 83 84  4  0  0  0  0
 84 85  2  0  0  0  0
 85 86  4  0  0  0  0
 61 87  1  0  0  0  0
 83 87  4  0  0  0  0
 86 87  4  0  0  0  0
 86 88  4  0  0  0  0
 88 89  1  0  0  0  0
 89 90  4  0  0  0  0
 90 91  4  0  0  0  0
 91 92  4  0  0  0  0
 92 93  1  0  0  0  0
 93 94  2  0  0  0  0
 92 95  4  0  0  0  0
 89 96  4  0  0  0  0
 95 96  4  0  0  0  0
 88 97  4  0  0  0  0
 97 98  4  0  0  0  0
 98 99  2  0  0  0  0
 62100  4  0  0  0  0
 99100  1  0  0  0  0
 61101  1  0  0  0  0
 97101  4  0  0  0  0
100101  4  0  0  0  0
 62102  1  0  0  0  0
 64103  1  0  0  0  0
 65104  1  0  0  0  0
 70105  1  0  0  0  0
 71106  1  0  0  0  0
 73107  1  0  0  0  0
 75108  1  0  0  0  0
 76109  1  0  0  0  0
 78110  1  0  0  0  0
 79111  1  0  0  0  0
 84112  1  0  0  0  0
 85113  1  0  0  0  0
 90114  1  0  0  0  0
 91115  1  0  0  0  0
 93116  1  0  0  0  0
 95117  1  0  0  0  0
 96118  1  0  0  0  0
 98119  1  0  0  0  0
 99120  1  0  0  0  0
 22121  1  0  0  0  0
 82122  1  0  0  0  0
121122  3  0  0  0  0
M  END
