 xtb: 6.5.1 (b24c23e)
          07272221463D

218238  0     0  0            999 V2000
   24.2516    0.0977    0.0040 C   0  0  0  0  0  0  0  0  0  0  0  0
   24.8663    1.2943    0.3502 C   0  0  0  0  0  0  0  0  0  0  0  0
   24.2205    2.5073    0.7204 C   0  0  0  0  0  0  0  0  0  0  0  0
   25.1875    3.4390    0.9747 C   0  0  0  0  0  0  0  0  0  0  0  0
   26.4555    2.8279    0.7582 C   0  0  0  0  0  0  0  0  0  0  0  0
   26.2107    1.5344    0.3928 N   0  0  0  0  0  0  0  0  0  0  0  0
   27.7210    3.4078    0.9012 C   0  0  0  0  0  0  0  0  0  0  0  0
   28.9333    2.7420    0.7080 C   0  0  0  0  0  0  0  0  0  0  0  0
   30.2329    3.3829    0.8008 C   0  0  0  0  0  0  0  0  0  0  0  0
   31.1503    2.4250    0.5542 C   0  0  0  0  0  0  0  0  0  0  0  0
   29.0834    1.4259    0.3920 N   0  0  0  0  0  0  0  0  0  0  0  0
   30.4100    1.2036    0.3033 C   0  0  0  0  0  0  0  0  0  0  0  0
   31.0422   -0.0243    0.0205 C   0  0  0  0  0  0  0  0  0  0  0  0
   30.4009   -1.2428   -0.2722 C   0  0  0  0  0  0  0  0  0  0  0  0
   31.0388   -2.4833   -0.5387 C   0  0  0  0  0  0  0  0  0  0  0  0
   30.0673   -3.4098   -0.7988 C   0  0  0  0  0  0  0  0  0  0  0  0
   28.8053   -2.7601   -0.7062 C   0  0  0  0  0  0  0  0  0  0  0  0
   27.5419   -3.3305   -0.8908 C   0  0  0  0  0  0  0  0  0  0  0  0
   27.5086   -4.7612   -1.2830 C   0  0  0  0  0  0  0  0  0  0  0  0
   26.9051   -5.7059   -0.4540 C   0  0  0  0  0  0  0  0  0  0  0  0
   26.8817   -7.0489   -0.8140 C   0  0  0  0  0  0  0  0  0  0  0  0
   26.2220   -8.0646    0.0792 C   0  0  0  0  0  0  0  0  0  0  0  0
   27.4601   -7.4432   -2.0171 C   0  0  0  0  0  0  0  0  0  0  0  0
   28.0639   -6.5121   -2.8566 C   0  0  0  0  0  0  0  0  0  0  0  0
   28.6673   -6.9454   -4.1653 C   0  0  0  0  0  0  0  0  0  0  0  0
   28.0874   -5.1726   -2.4829 C   0  0  0  0  0  0  0  0  0  0  0  0
   26.3283   -2.6532   -0.7364 C   0  0  0  0  0  0  0  0  0  0  0  0
   25.0229   -3.2489   -0.9749 C   0  0  0  0  0  0  0  0  0  0  0  0
   24.1120   -2.2880   -0.7199 C   0  0  0  0  0  0  0  0  0  0  0  0
   24.8599   -1.1032   -0.3373 C   0  0  0  0  0  0  0  0  0  0  0  0
   26.1910   -1.3579   -0.3657 N   0  0  0  0  0  0  0  0  0  0  0  0
   29.0589   -1.4548   -0.3760 N   0  0  0  0  0  0  0  0  0  0  0  0
   27.7598    4.8406    1.2864 C   0  0  0  0  0  0  0  0  0  0  0  0
   28.3667    5.2303    2.4789 C   0  0  0  0  0  0  0  0  0  0  0  0
   28.4049    6.5714    2.8480 C   0  0  0  0  0  0  0  0  0  0  0  0
   29.0755    6.9795    4.1319 C   0  0  0  0  0  0  0  0  0  0  0  0
   27.8343    7.5249    2.0114 C   0  0  0  0  0  0  0  0  0  0  0  0
   27.2243    7.1517    0.8167 C   0  0  0  0  0  0  0  0  0  0  0  0
   26.6303    8.1955   -0.0902 C   0  0  0  0  0  0  0  0  0  0  0  0
   27.1885    5.8084    0.4603 C   0  0  0  0  0  0  0  0  0  0  0  0
   23.1663    0.1127    0.0012 H   0  0  0  0  0  0  0  0  0  0  0  0
   23.1518    2.6356    0.7857 H   0  0  0  0  0  0  0  0  0  0  0  0
   25.0418    4.4588    1.2921 H   0  0  0  0  0  0  0  0  0  0  0  0
   26.9324    0.8515    0.1879 H   0  0  0  0  0  0  0  0  0  0  0  0
   30.3982    4.4270    1.0117 H   0  0  0  0  0  0  0  0  0  0  0  0
   32.2248    2.5119    0.5312 H   0  0  0  0  0  0  0  0  0  0  0  0
   32.1056   -2.6381   -0.5261 H   0  0  0  0  0  0  0  0  0  0  0  0
   30.2080   -4.4539   -1.0262 H   0  0  0  0  0  0  0  0  0  0  0  0
   26.4710   -5.3886    0.4878 H   0  0  0  0  0  0  0  0  0  0  0  0
   25.1895   -8.2243   -0.2400 H   0  0  0  0  0  0  0  0  0  0  0  0
   26.7431   -9.0211    0.0292 H   0  0  0  0  0  0  0  0  0  0  0  0
   26.2090   -7.7228    1.1142 H   0  0  0  0  0  0  0  0  0  0  0  0
   27.4433   -8.4902   -2.3019 H   0  0  0  0  0  0  0  0  0  0  0  0
   29.4776   -6.2782   -4.4596 H   0  0  0  0  0  0  0  0  0  0  0  0
   29.0537   -7.9625   -4.0970 H   0  0  0  0  0  0  0  0  0  0  0  0
   27.9070   -6.9232   -4.9495 H   0  0  0  0  0  0  0  0  0  0  0  0
   28.5452   -4.4361   -3.1343 H   0  0  0  0  0  0  0  0  0  0  0  0
   24.8531   -4.2618   -1.3030 H   0  0  0  0  0  0  0  0  0  0  0  0
   23.0364   -2.3426   -0.7839 H   0  0  0  0  0  0  0  0  0  0  0  0
   28.3410   -0.7531   -0.2279 H   0  0  0  0  0  0  0  0  0  0  0  0
   28.7958    4.4768    3.1302 H   0  0  0  0  0  0  0  0  0  0  0  0
   28.8535    6.2665    4.9267 H   0  0  0  0  0  0  0  0  0  0  0  0
   28.7488    7.9709    4.4455 H   0  0  0  0  0  0  0  0  0  0  0  0
   30.1588    7.0037    3.9934 H   0  0  0  0  0  0  0  0  0  0  0  0
   27.8620    8.5724    2.2936 H   0  0  0  0  0  0  0  0  0  0  0  0
   26.2076    9.0168    0.4890 H   0  0  0  0  0  0  0  0  0  0  0  0
   27.4053    8.6046   -0.7424 H   0  0  0  0  0  0  0  0  0  0  0  0
   25.8491    7.7668   -0.7180 H   0  0  0  0  0  0  0  0  0  0  0  0
   26.7294    5.5077   -0.4753 H   0  0  0  0  0  0  0  0  0  0  0  0
   63.0312   -0.0881   -0.0320 C   0  0  0  0  0  0  0  0  0  0  0  0
   62.4094   -1.2951   -0.3251 C   0  0  0  0  0  0  0  0  0  0  0  0
   63.0480   -2.5351   -0.6081 C   0  0  0  0  0  0  0  0  0  0  0  0
   62.0755   -3.4645   -0.8497 C   0  0  0  0  0  0  0  0  0  0  0  0
   60.8113   -2.8200   -0.7309 C   0  0  0  0  0  0  0  0  0  0  0  0
   61.0636   -1.5174   -0.4053 N   0  0  0  0  0  0  0  0  0  0  0  0
   59.5422   -3.3879   -0.8900 C   0  0  0  0  0  0  0  0  0  0  0  0
   58.3342   -2.7082   -0.7200 C   0  0  0  0  0  0  0  0  0  0  0  0
   57.0302   -3.3052   -0.9465 C   0  0  0  0  0  0  0  0  0  0  0  0
   56.1192   -2.3461   -0.6820 C   0  0  0  0  0  0  0  0  0  0  0  0
   58.1928   -1.4065   -0.3452 N   0  0  0  0  0  0  0  0  0  0  0  0
   56.8678   -1.1625   -0.3056 C   0  0  0  0  0  0  0  0  0  0  0  0
   56.2427    0.0531    0.0406 C   0  0  0  0  0  0  0  0  0  0  0  0
   56.8903    1.2585    0.3703 C   0  0  0  0  0  0  0  0  0  0  0  0
   56.2592    2.4756    0.7405 C   0  0  0  0  0  0  0  0  0  0  0  0
   57.2363    3.4038    0.9726 C   0  0  0  0  0  0  0  0  0  0  0  0
   58.4952    2.7826    0.7428 C   0  0  0  0  0  0  0  0  0  0  0  0
   59.7626    3.3593    0.8720 C   0  0  0  0  0  0  0  0  0  0  0  0
   59.8071    4.7959    1.2407 C   0  0  0  0  0  0  0  0  0  0  0  0
   60.4113    5.1989    2.4310 C   0  0  0  0  0  0  0  0  0  0  0  0
   60.4468    6.5431    2.7851 C   0  0  0  0  0  0  0  0  0  0  0  0
   61.1083    6.9758    4.0658 C   0  0  0  0  0  0  0  0  0  0  0  0
   59.8792    7.4880    1.9351 C   0  0  0  0  0  0  0  0  0  0  0  0
   59.2744    7.1020    0.7428 C   0  0  0  0  0  0  0  0  0  0  0  0
   58.6826    8.1336   -0.1793 C   0  0  0  0  0  0  0  0  0  0  0  0
   59.2393    5.7540    0.4019 C   0  0  0  0  0  0  0  0  0  0  0  0
   60.9720    2.6840    0.6786 C   0  0  0  0  0  0  0  0  0  0  0  0
   62.2818    3.3098    0.7705 C   0  0  0  0  0  0  0  0  0  0  0  0
   63.1864    2.3418    0.5204 C   0  0  0  0  0  0  0  0  0  0  0  0
   62.4303    1.1283    0.2650 C   0  0  0  0  0  0  0  0  0  0  0  0
   61.1006    1.3736    0.3617 N   0  0  0  0  0  0  0  0  0  0  0  0
   58.2339    1.4850    0.3891 N   0  0  0  0  0  0  0  0  0  0  0  0
   59.4940   -4.8208   -1.2733 C   0  0  0  0  0  0  0  0  0  0  0  0
   58.8817   -5.7524   -0.4369 C   0  0  0  0  0  0  0  0  0  0  0  0
   58.8308   -7.0966   -0.7925 C   0  0  0  0  0  0  0  0  0  0  0  0
   58.1516   -8.0893    0.1119 C   0  0  0  0  0  0  0  0  0  0  0  0
   59.3955   -7.5050   -1.9963 C   0  0  0  0  0  0  0  0  0  0  0  0
   60.0120   -6.5869   -2.8422 C   0  0  0  0  0  0  0  0  0  0  0  0
   60.5997   -7.0378   -4.1522 C   0  0  0  0  0  0  0  0  0  0  0  0
   60.0596   -5.2469   -2.4750 C   0  0  0  0  0  0  0  0  0  0  0  0
   64.1164   -0.1065   -0.0407 H   0  0  0  0  0  0  0  0  0  0  0  0
   64.1159   -2.6847   -0.6170 H   0  0  0  0  0  0  0  0  0  0  0  0
   62.2151   -4.5079   -1.0820 H   0  0  0  0  0  0  0  0  0  0  0  0
   60.3458   -0.8191   -0.2424 H   0  0  0  0  0  0  0  0  0  0  0  0
   56.8573   -4.3166   -1.2768 H   0  0  0  0  0  0  0  0  0  0  0  0
   55.0441   -2.4057   -0.7380 H   0  0  0  0  0  0  0  0  0  0  0  0
   55.1929    2.6118    0.8219 H   0  0  0  0  0  0  0  0  0  0  0  0
   57.1011    4.4265    1.2848 H   0  0  0  0  0  0  0  0  0  0  0  0
   60.8367    4.4519    3.0921 H   0  0  0  0  0  0  0  0  0  0  0  0
   62.1404    7.2740    3.8679 H   0  0  0  0  0  0  0  0  0  0  0  0
   60.5876    7.8289    4.5016 H   0  0  0  0  0  0  0  0  0  0  0  0
   61.1224    6.1621    4.7910 H   0  0  0  0  0  0  0  0  0  0  0  0
   59.9053    8.5381    2.2076 H   0  0  0  0  0  0  0  0  0  0  0  0
   57.8714    7.7074   -0.7699 H   0  0  0  0  0  0  0  0  0  0  0  0
   58.3001    8.9847    0.3846 H   0  0  0  0  0  0  0  0  0  0  0  0
   59.4484    8.4989   -0.8674 H   0  0  0  0  0  0  0  0  0  0  0  0
   58.7814    5.4425   -0.5306 H   0  0  0  0  0  0  0  0  0  0  0  0
   62.4587    4.3514    0.9860 H   0  0  0  0  0  0  0  0  0  0  0  0
   64.2626    2.4129    0.4954 H   0  0  0  0  0  0  0  0  0  0  0  0
   58.9481    0.7949    0.1808 H   0  0  0  0  0  0  0  0  0  0  0  0
   58.4577   -5.4251    0.5062 H   0  0  0  0  0  0  0  0  0  0  0  0
   58.3654   -7.8680    1.1581 H   0  0  0  0  0  0  0  0  0  0  0  0
   58.4784   -9.1056   -0.1081 H   0  0  0  0  0  0  0  0  0  0  0  0
   57.0696   -8.0396   -0.0292 H   0  0  0  0  0  0  0  0  0  0  0  0
   59.3576   -8.5519   -2.2793 H   0  0  0  0  0  0  0  0  0  0  0  0
   61.0119   -8.0436   -4.0664 H   0  0  0  0  0  0  0  0  0  0  0  0
   59.8236   -7.0542   -4.9209 H   0  0  0  0  0  0  0  0  0  0  0  0
   61.3879   -6.3595   -4.4794 H   0  0  0  0  0  0  0  0  0  0  0  0
   60.5230   -4.5203   -3.1337 H   0  0  0  0  0  0  0  0  0  0  0  0
   36.2436   -0.1009    0.0069 C   0  0  0  0  0  0  0  0  0  0  0  0
   35.0153   -0.0880    0.0159 C   0  0  0  0  0  0  0  0  0  0  0  0
   33.6713   -0.0711    0.0195 C   0  0  0  0  0  0  0  0  0  0  0  0
   32.4476   -0.0478    0.0220 C   0  0  0  0  0  0  0  0  0  0  0  0
   37.5875   -0.1065   -0.0035 C   0  0  0  0  0  0  0  0  0  0  0  0
   38.8115   -0.1038   -0.0160 C   0  0  0  0  0  0  0  0  0  0  0  0
   52.2696    0.0876    0.0637 C   0  0  0  0  0  0  0  0  0  0  0  0
   51.0412    0.0773    0.0582 C   0  0  0  0  0  0  0  0  0  0  0  0
   49.6975    0.0614    0.0458 C   0  0  0  0  0  0  0  0  0  0  0  0
   48.4737    0.0372    0.0311 C   0  0  0  0  0  0  0  0  0  0  0  0
   53.6137    0.0878    0.0609 C   0  0  0  0  0  0  0  0  0  0  0  0
   54.8374    0.0761    0.0556 C   0  0  0  0  0  0  0  0  0  0  0  0
   40.2161   -0.0933   -0.0267 C   0  0  0  0  0  0  0  0  0  0  0  0
   40.8557   -1.2650    0.4214 C   0  0  0  0  0  0  0  0  0  0  0  0
   40.2200   -2.4396    0.9005 C   0  0  0  0  0  0  0  0  0  0  0  0
   41.1948   -3.3451    1.2199 C   0  0  0  0  0  0  0  0  0  0  0  0
   42.4547   -2.7510    0.9373 C   0  0  0  0  0  0  0  0  0  0  0  0
   42.1988   -1.4911    0.4654 N   0  0  0  0  0  0  0  0  0  0  0  0
   43.7203   -3.3217    1.1175 C   0  0  0  0  0  0  0  0  0  0  0  0
   44.9374   -2.6835    0.8748 C   0  0  0  0  0  0  0  0  0  0  0  0
   46.2311   -3.3263    1.0208 C   0  0  0  0  0  0  0  0  0  0  0  0
   47.1578   -2.3949    0.7146 C   0  0  0  0  0  0  0  0  0  0  0  0
   45.0995   -1.3947    0.4658 N   0  0  0  0  0  0  0  0  0  0  0  0
   46.4287   -1.1897    0.3723 C   0  0  0  0  0  0  0  0  0  0  0  0
   47.0695    0.0124    0.0104 C   0  0  0  0  0  0  0  0  0  0  0  0
   46.4287    1.2037   -0.3811 C   0  0  0  0  0  0  0  0  0  0  0  0
   47.0628    2.4223   -0.7363 C   0  0  0  0  0  0  0  0  0  0  0  0
   46.0884    3.3181   -1.0829 C   0  0  0  0  0  0  0  0  0  0  0  0
   44.8305    2.6688   -0.9550 C   0  0  0  0  0  0  0  0  0  0  0  0
   43.5662    3.2146   -1.2074 C   0  0  0  0  0  0  0  0  0  0  0  0
   43.5397    4.6060   -1.7244 C   0  0  0  0  0  0  0  0  0  0  0  0
   42.9183    5.6178   -0.9930 C   0  0  0  0  0  0  0  0  0  0  0  0
   42.8896    6.9215   -1.4749 C   0  0  0  0  0  0  0  0  0  0  0  0
   42.2367    8.0156   -0.6741 C   0  0  0  0  0  0  0  0  0  0  0  0
   43.4869    7.2101   -2.6990 C   0  0  0  0  0  0  0  0  0  0  0  0
   44.1088    6.2115   -3.4414 C   0  0  0  0  0  0  0  0  0  0  0  0
   44.7645    6.5326   -4.7574 C   0  0  0  0  0  0  0  0  0  0  0  0
   44.1354    4.9113   -2.9470 C   0  0  0  0  0  0  0  0  0  0  0  0
   42.3494    2.5597   -1.0134 C   0  0  0  0  0  0  0  0  0  0  0  0
   41.0574    3.1420   -1.3293 C   0  0  0  0  0  0  0  0  0  0  0  0
   40.1304    2.2219   -0.9912 C   0  0  0  0  0  0  0  0  0  0  0  0
   40.8580    1.0756   -0.4833 C   0  0  0  0  0  0  0  0  0  0  0  0
   42.1865    1.3018   -0.5175 N   0  0  0  0  0  0  0  0  0  0  0  0
   45.0867    1.3967   -0.5175 N   0  0  0  0  0  0  0  0  0  0  0  0
   43.7497   -4.7208    1.6132 C   0  0  0  0  0  0  0  0  0  0  0  0
   43.1796   -5.7468    0.8614 C   0  0  0  0  0  0  0  0  0  0  0  0
   43.2090   -7.0598    1.3207 C   0  0  0  0  0  0  0  0  0  0  0  0
   42.5811   -8.1591    0.5070 C   0  0  0  0  0  0  0  0  0  0  0  0
   43.8074   -7.3405    2.5448 C   0  0  0  0  0  0  0  0  0  0  0  0
   44.3792   -6.3265    3.3083 C   0  0  0  0  0  0  0  0  0  0  0  0
   45.0060   -6.6402    4.6399 C   0  0  0  0  0  0  0  0  0  0  0  0
   44.3484   -5.0189    2.8369 C   0  0  0  0  0  0  0  0  0  0  0  0
   39.1530   -2.5653    0.9906 H   0  0  0  0  0  0  0  0  0  0  0  0
   41.0559   -4.3344    1.6243 H   0  0  0  0  0  0  0  0  0  0  0  0
   42.9125   -0.8220    0.1965 H   0  0  0  0  0  0  0  0  0  0  0  0
   46.3865   -4.3542    1.3060 H   0  0  0  0  0  0  0  0  0  0  0  0
   48.2318   -2.4905    0.7051 H   0  0  0  0  0  0  0  0  0  0  0  0
   48.1284    2.5851   -0.7226 H   0  0  0  0  0  0  0  0  0  0  0  0
   46.2258    4.3416   -1.3915 H   0  0  0  0  0  0  0  0  0  0  0  0
   42.4669    5.3825   -0.0354 H   0  0  0  0  0  0  0  0  0  0  0  0
   42.9915    8.5545   -0.0969 H   0  0  0  0  0  0  0  0  0  0  0  0
   41.7393    8.7306   -1.3302 H   0  0  0  0  0  0  0  0  0  0  0  0
   41.5044    7.6054    0.0213 H   0  0  0  0  0  0  0  0  0  0  0  0
   43.4632    8.2260   -3.0799 H   0  0  0  0  0  0  0  0  0  0  0  0
   44.6653    5.6990   -5.4530 H   0  0  0  0  0  0  0  0  0  0  0  0
   45.8297    6.7212   -4.6048 H   0  0  0  0  0  0  0  0  0  0  0  0
   44.3223    7.4221   -5.2063 H   0  0  0  0  0  0  0  0  0  0  0  0
   44.6036    4.1217   -3.5246 H   0  0  0  0  0  0  0  0  0  0  0  0
   40.9032    4.1172   -1.7617 H   0  0  0  0  0  0  0  0  0  0  0  0
   39.0573    2.2838   -1.0772 H   0  0  0  0  0  0  0  0  0  0  0  0
   44.3741    0.7016   -0.3218 H   0  0  0  0  0  0  0  0  0  0  0  0
   42.7298   -5.5188   -0.0988 H   0  0  0  0  0  0  0  0  0  0  0  0
   43.0290   -9.1241    0.7446 H   0  0  0  0  0  0  0  0  0  0  0  0
   42.6995   -7.9674   -0.5598 H   0  0  0  0  0  0  0  0  0  0  0  0
   41.5119   -8.2167    0.7239 H   0  0  0  0  0  0  0  0  0  0  0  0
   43.8324   -8.3630    2.9077 H   0  0  0  0  0  0  0  0  0  0  0  0
   45.7617   -5.8984    4.8985 H   0  0  0  0  0  0  0  0  0  0  0  0
   45.4691   -7.6272    4.6273 H   0  0  0  0  0  0  0  0  0  0  0  0
   44.2417   -6.6344    5.4204 H   0  0  0  0  0  0  0  0  0  0  0  0
   44.7803   -4.2185    3.4275 H   0  0  0  0  0  0  0  0  0  0  0  0
  1  2  4  0  0  0  0
  2  3  4  0  0  0  0
  3  4  2  0  0  0  0
  4  5  4  0  0  0  0
  2  6  4  0  0  0  0
  5  6  4  0  0  0  0
  5  7  4  0  0  0  0
  7  8  4  0  0  0  0
  8  9  1  0  0  0  0
  9 10  2  0  0  0  0
  8 11  4  0  0  0  0
 10 12  1  0  0  0  0
 11 12  4  0  0  0  0
 12 13  4  0  0  0  0
 13 14  4  0  0  0  0
 14 15  4  0  0  0  0
 15 16  2  0  0  0  0
 16 17  4  0  0  0  0
 17 18  4  0  0  0  0
 18 19  1  0  0  0  0
 19 20  4  0  0  0  0
 20 21  4  0  0  0  0
 21 22  1  0  0  0  0
 21 23  4  0  0  0  0
 23 24  4  0  0  0  0
 24 25  1  0  0  0  0
 19 26  4  0  0  0  0
 24 26  4  0  0  0  0
 18 27  4  0  0  0  0
 27 28  1  0  0  0  0
 28 29  2  0  0  0  0
  1 30  4  0  0  0  0
 29 30  1  0  0  0  0
 27 31  4  0  0  0  0
 30 31  4  0  0  0  0
 14 32  4  0  0  0  0
 17 32  4  0  0  0  0
  7 33  1  0  0  0  0
 33 34  4  0  0  0  0
 34 35  4  0  0  0  0
 35 36  1  0  0  0  0
 35 37  4  0  0  0  0
 37 38  4  0  0  0  0
 38 39  1  0  0  0  0
 33 40  4  0  0  0  0
 38 40  4  0  0  0  0
  1 41  1  0  0  0  0
  3 42  1  0  0  0  0
  4 43  1  0  0  0  0
  6 44  1  0  0  0  0
  9 45  1  0  0  0  0
 10 46  1  0  0  0  0
 15 47  1  0  0  0  0
 16 48  1  0  0  0  0
 20 49  1  0  0  0  0
 22 50  1  0  0  0  0
 22 51  1  0  0  0  0
 22 52  1  0  0  0  0
 23 53  1  0  0  0  0
 25 54  1  0  0  0  0
 25 55  1  0  0  0  0
 25 56  1  0  0  0  0
 26 57  1  0  0  0  0
 28 58  1  0  0  0  0
 29 59  1  0  0  0  0
 32 60  1  0  0  0  0
 34 61  1  0  0  0  0
 36 62  1  0  0  0  0
 36 63  1  0  0  0  0
 36 64  1  0  0  0  0
 37 65  1  0  0  0  0
 39 66  1  0  0  0  0
 39 67  1  0  0  0  0
 39 68  1  0  0  0  0
 40 69  1  0  0  0  0
 70 71  4  0  0  0  0
 71 72  4  0  0  0  0
 72 73  2  0  0  0  0
 73 74  4  0  0  0  0
 71 75  4  0  0  0  0
 74 75  4  0  0  0  0
 74 76  4  0  0  0  0
 76 77  4  0  0  0  0
 77 78  1  0  0  0  0
 78 79  2  0  0  0  0
 77 80  4  0  0  0  0
 79 81  1  0  0  0  0
 80 81  4  0  0  0  0
 81 82  4  0  0  0  0
 82 83  4  0  0  0  0
 83 84  4  0  0  0  0
 84 85  2  0  0  0  0
 85 86  4  0  0  0  0
 86 87  4  0  0  0  0
 87 88  1  0  0  0  0
 88 89  4  0  0  0  0
 89 90  4  0  0  0  0
 90 91  1  0  0  0  0
 90 92  4  0  0  0  0
 92 93  4  0  0  0  0
 93 94  1  0  0  0  0
 88 95  4  0  0  0  0
 93 95  4  0  0  0  0
 87 96  4  0  0  0  0
 96 97  1  0  0  0  0
 97 98  2  0  0  0  0
 70 99  4  0  0  0  0
 98 99  1  0  0  0  0
 96100  4  0  0  0  0
 99100  4  0  0  0  0
 83101  4  0  0  0  0
 86101  4  0  0  0  0
 76102  1  0  0  0  0
102103  4  0  0  0  0
103104  4  0  0  0  0
104105  1  0  0  0  0
104106  4  0  0  0  0
106107  4  0  0  0  0
107108  1  0  0  0  0
102109  4  0  0  0  0
107109  4  0  0  0  0
 70110  1  0  0  0  0
 72111  1  0  0  0  0
 73112  1  0  0  0  0
 75113  1  0  0  0  0
 78114  1  0  0  0  0
 79115  1  0  0  0  0
 84116  1  0  0  0  0
 85117  1  0  0  0  0
 89118  1  0  0  0  0
 91119  1  0  0  0  0
 91120  1  0  0  0  0
 91121  1  0  0  0  0
 92122  1  0  0  0  0
 94123  1  0  0  0  0
 94124  1  0  0  0  0
 94125  1  0  0  0  0
 95126  1  0  0  0  0
 97127  1  0  0  0  0
 98128  1  0  0  0  0
101129  1  0  0  0  0
103130  1  0  0  0  0
105131  1  0  0  0  0
105132  1  0  0  0  0
105133  1  0  0  0  0
106134  1  0  0  0  0
108135  1  0  0  0  0
108136  1  0  0  0  0
108137  1  0  0  0  0
109138  1  0  0  0  0
139140  3  0  0  0  0
140141  4  0  0  0  0
 13142  4  0  0  0  0
141142  3  0  0  0  0
139143  4  0  0  0  0
143144  3  0  0  0  0
145146  3  0  0  0  0
146147  4  0  0  0  0
147148  3  0  0  0  0
145149  4  0  0  0  0
 82150  4  0  0  0  0
149150  3  0  0  0  0
144151  4  0  0  0  0
151152  4  0  0  0  0
152153  4  0  0  0  0
153154  2  0  0  0  0
154155  4  0  0  0  0
152156  4  0  0  0  0
155156  4  0  0  0  0
155157  4  0  0  0  0
157158  4  0  0  0  0
158159  1  0  0  0  0
159160  2  0  0  0  0
158161  4  0  0  0  0
160162  1  0  0  0  0
161162  4  0  0  0  0
148163  4  0  0  0  0
162163  4  0  0  0  0
163164  4  0  0  0  0
164165  4  0  0  0  0
165166  2  0  0  0  0
166167  4  0  0  0  0
167168  4  0  0  0  0
168169  1  0  0  0  0
169170  4  0  0  0  0
170171  4  0  0  0  0
171172  1  0  0  0  0
171173  4  0  0  0  0
173174  4  0  0  0  0
174175  1  0  0  0  0
169176  4  0  0  0  0
174176  4  0  0  0  0
168177  4  0  0  0  0
177178  1  0  0  0  0
178179  2  0  0  0  0
151180  4  0  0  0  0
179180  1  0  0  0  0
177181  4  0  0  0  0
180181  4  0  0  0  0
164182  4  0  0  0  0
167182  4  0  0  0  0
157183  1  0  0  0  0
183184  4  0  0  0  0
184185  4  0  0  0  0
185186  1  0  0  0  0
185187  4  0  0  0  0
187188  4  0  0  0  0
188189  1  0  0  0  0
183190  4  0  0  0  0
188190  4  0  0  0  0
153191  1  0  0  0  0
154192  1  0  0  0  0
156193  1  0  0  0  0
159194  1  0  0  0  0
160195  1  0  0  0  0
165196  1  0  0  0  0
166197  1  0  0  0  0
170198  1  0  0  0  0
172199  1  0  0  0  0
172200  1  0  0  0  0
172201  1  0  0  0  0
173202  1  0  0  0  0
175203  1  0  0  0  0
175204  1  0  0  0  0
175205  1  0  0  0  0
176206  1  0  0  0  0
178207  1  0  0  0  0
179208  1  0  0  0  0
182209  1  0  0  0  0
184210  1  0  0  0  0
186211  1  0  0  0  0
186212  1  0  0  0  0
186213  1  0  0  0  0
187214  1  0  0  0  0
189215  1  0  0  0  0
189216  1  0  0  0  0
189217  1  0  0  0  0
190218  1  0  0  0  0
M  END
