320

C 71.496283 0.034143 0.098536
C 72.226680 -1.343449 0.069322
C 71.621394 -2.576054 0.159616
C 72.644360 -3.551834 0.036111
C 73.840184 -2.880285 -0.130166
N 73.579240 -1.534759 -0.054964
C 75.262247 -3.530187 -0.389970
C 76.391258 -2.773124 -0.341585
C 77.695206 -3.324823 -0.647958
C 78.595366 -2.353980 -0.548037
N 76.586006 -1.449114 -0.049265
C 77.915935 -1.134760 -0.156257
C 78.582206 0.034937 0.035568
C 77.804881 1.339295 0.496991
C 78.347014 2.413679 1.174364
C 77.321429 3.377993 1.337809
C 76.178721 2.860718 0.766414
C 74.767410 3.577619 0.677237
C 74.730798 5.052301 0.783250
C 75.040558 5.846331 -0.326784
C 75.014105 7.239597 -0.225666
C 74.678741 7.847689 0.991039
C 74.660871 9.328835 1.055482
O 74.333554 9.799791 2.273993
O 74.906250 10.097147 0.142751
C 74.370712 7.055897 2.105010
C 74.398370 5.663454 1.998674
C 73.643028 2.836638 0.499337
C 72.319970 3.426406 0.396154
C 71.436036 2.444823 0.242514
C 72.159651 1.197440 0.235608
N 73.480656 1.484838 0.379929
N 76.469859 1.599028 0.303508
C 75.300373 -4.969491 -0.737504
C 75.033570 -5.383083 -2.047883
C 75.052072 -6.740727 -2.377491
C 75.341261 -7.694842 -1.392862
C 75.372625 -9.146224 -1.693826
O 75.105984 -9.424108 -2.983779
O 75.607280 -10.044156 -0.904639
C 75.610044 -7.284145 -0.080820
C 75.586546 -5.925792 0.244035
H 70.418239 0.039415 -0.007877
H 70.564006 -2.753024 0.282250
H 72.517767 -4.624199 0.042218
H 74.278819 -0.797377 -0.090946
H 77.908929 -4.341517 -0.924896
H 79.647950 -2.476537 -0.727106
H 79.370316 2.502686 1.505683
H 77.408893 4.341686 1.815705
H 75.298224 5.364614 -1.267885
H 75.254520 7.839911 -1.099281
H 74.364338 10.769649 2.153261
H 74.105901 7.504014 3.057665
H 74.157861 5.037419 2.855879
H 72.088213 4.475079 0.434802
H 70.372150 2.554431 0.136528
H 75.785890 0.945492 -0.068776
H 74.813367 -4.632714 -2.804328
H 74.840081 -7.034649 -3.401216
H 75.165170 -10.399837 -3.017954
H 75.839321 -8.011598 0.693771
H 75.793231 -5.595576 1.259519
C 124.975874 0.007414 0.092208
C 124.245476 1.251878 0.683753
C 124.850762 2.313161 1.317113
C 123.827797 3.240740 1.644218
C 122.631972 2.715025 1.194495
N 122.892916 1.478605 0.658435
C 121.209909 3.412428 1.253659
C 120.080898 2.714031 0.957471
C 118.776950 3.344535 0.930979
C 117.876791 2.431943 0.585006
N 119.886150 1.399496 0.625129
C 118.556221 1.166481 0.388550
C 117.889951 0.034937 0.035568
C 118.667275 -1.337851 -0.136810
C 118.125142 -2.601899 -0.013049
C 119.150727 -3.537136 -0.299312
C 120.293436 -2.818577 -0.578131
C 121.704746 -3.419399 -0.979272
C 121.741359 -4.785079 -1.545700
C 121.431599 -4.997130 -2.893919
C 121.458052 -6.287843 -3.428219
C 121.793416 -7.376910 -2.613308
C 121.811285 -8.729731 -3.219792
O 122.138602 -9.697028 -2.341780
O 121.565906 -9.007256 -4.380120
C 122.101445 -7.168624 -1.262573
C 122.073787 -5.876308 -0.733306
C 122.829128 -2.677308 -0.806062
C 124.152186 -3.158210 -1.162720
C 125.036121 -2.211933 -0.859950
C 124.312505 -1.093860 -0.306846
N 122.991500 -1.415458 -0.306702
N 120.002297 -1.483264 -0.426209
C 121.171783 4.854775 1.588341
C 121.438587 5.811987 0.602493
C 121.420084 7.173304 0.916585
C 121.130895 7.584675 2.224487
C 121.099531 9.016936 2.606211
O 121.366173 9.843687 1.577774
O 120.864877 9.465716 3.714225
C 120.862112 6.629305 3.213119
C 120.885610 5.269484 2.894460
H 126.053917 0.050413 -0.005273
H 125.908150 2.416362 1.506076
H 123.954389 4.196538 2.130483
H 122.193337 0.835627 0.295659
H 118.563227 4.377477 1.139282
H 116.824206 2.621779 0.479895
H 117.101840 -2.830008 0.243195
H 119.063264 -4.612806 -0.304225
H 121.173933 -4.144594 -3.519142
H 121.217636 -6.432742 -4.478259
H 122.107819 -10.509806 -2.884543
H 122.366255 -7.996307 -0.611958
H 122.314295 -5.701061 0.313598
H 124.383944 -4.112898 -1.598358
H 126.100006 -2.262386 -1.003829
H 120.686267 -0.732182 -0.465957
H 121.658789 5.480427 -0.410093
H 121.632076 7.895025 0.133309
H 121.306986 10.731169 1.984705
H 120.632835 6.932245 4.231650
H 120.678925 4.519017 3.654098
C 80.771383 0.034937 0.035568
C 81.993300 0.034937 0.035568
C 92.007207 0.034937 0.035568
C 93.229125 0.034937 0.035568
C 103.243032 0.034937 0.035568
C 104.464949 0.034937 0.035568
C 114.478856 0.034937 0.035568
C 115.700774 0.034937 0.035568
C 83.410046 -0.025170 -0.025625
C 84.204426 0.767837 -1.143729
C 83.700123 1.231034 -2.341909
C 84.737691 1.951033 -2.987760
C 85.844701 1.898939 -2.166826
N 85.532143 1.113668 -1.085570
C 87.233241 2.617885 -2.413759
C 88.368736 2.116701 -1.860694
C 89.655349 2.765631 -2.008384
C 90.563746 2.047687 -1.356680
N 88.577284 1.005445 -1.092222
C 89.901980 0.904616 -0.760917
C 90.566174 -0.025170 -0.025625
C 89.771497 -1.245251 0.598693
C 90.274299 -2.498849 0.882080
C 89.236319 -3.241147 1.501567
C 88.130871 -2.419498 1.570972
C 86.743257 -2.765524 2.249387
C 86.755768 -3.726411 3.375536
C 86.317399 -5.044002 3.191931
C 86.344044 -5.950688 4.254312
C 86.813936 -5.544671 5.509948
C 86.826013 -6.538262 6.610350
O 87.290182 -6.036054 7.770493
O 86.468184 -7.700749 6.539527
C 87.256778 -4.228820 5.696510
C 87.227830 -3.325517 4.630938
C 85.607242 -2.148713 1.830826
C 84.321338 -2.385198 2.454208
C 83.412783 -1.638272 1.836166
C 84.073982 -0.887376 0.788057
N 85.398006 -1.232524 0.837958
N 88.444205 -1.236152 0.950716
C 87.224849 3.860347 -3.218788
C 86.754838 5.055497 -2.662094
C 86.731939 6.226802 -3.423458
C 87.177977 6.208732 -4.751246
C 87.137155 7.473575 -5.523809
O 87.585117 7.335620 -6.786496
O 86.750929 8.556499 -5.120993
C 87.645807 5.013902 -5.313313
C 87.666270 3.845245 -4.548195
H 82.692932 1.087645 -2.702735
H 84.677590 2.466079 -3.934607
H 86.191544 0.801182 -0.378745
H 89.851444 3.677810 -2.542696
H 91.608261 2.292004 -1.290917
H 91.280605 -2.836663 0.686104
H 89.294936 -4.253056 1.873126
H 85.952253 -5.348879 2.212990
H 85.996485 -6.967635 4.093736
H 87.234600 -6.797120 8.382053
H 87.626297 -3.890943 6.659880
H 87.570576 -2.301340 4.766148
H 84.125523 -3.042969 3.281852
H 82.368537 -1.607018 2.088409
H 87.785464 -0.490833 0.744305
H 86.409240 5.060617 -1.630093
H 86.365121 7.145275 -2.973116
H 87.496574 8.237903 -7.153335
H 87.997220 4.975140 -6.339778
H 88.029413 2.911626 -4.974028
C 94.645870 -0.025170 -0.025625
C 95.440251 0.767837 -1.143729
C 94.935948 1.231034 -2.341909
C 95.973515 1.951033 -2.987760
C 97.080525 1.898939 -2.166826
N 96.767967 1.113668 -1.085570
C 98.469066 2.617885 -2.413759
C 99.604561 2.116701 -1.860694
C 100.891173 2.765631 -2.008384
C 101.799570 2.047687 -1.356680
N 99.813108 1.005445 -1.092222
C 101.137804 0.904616 -0.760917
C 101.801999 -0.025170 -0.025625
C 101.007321 -1.245251 0.598693
C 101.510124 -2.498849 0.882080
C 100.472143 -3.241147 1.501567
C 99.366695 -2.419498 1.570972
C 97.979081 -2.765524 2.249387
C 97.991592 -3.726411 3.375536
C 97.553224 -5.044002 3.191931
C 97.579869 -5.950688 4.254312
C 98.049761 -5.544671 5.509948
C 98.061837 -6.538262 6.610350
O 98.526006 -6.036054 7.770493
O 97.704008 -7.700749 6.539527
C 98.492602 -4.228820 5.696510
C 98.463655 -3.325517 4.630938
C 96.843066 -2.148713 1.830826
C 95.557163 -2.385198 2.454208
C 94.648607 -1.638272 1.836166
C 95.309806 -0.887376 0.788057
N 96.633831 -1.232524 0.837958
N 99.680029 -1.236152 0.950716
C 98.460673 3.860347 -3.218788
C 97.990662 5.055497 -2.662094
C 97.967764 6.226802 -3.423458
C 98.413802 6.208732 -4.751246
C 98.372980 7.473575 -5.523809
O 98.820942 7.335620 -6.786496
O 97.986753 8.556499 -5.120993
C 98.881631 5.013902 -5.313313
C 98.902095 3.845245 -4.548195
H 93.928757 1.087645 -2.702735
H 95.913415 2.466079 -3.934607
H 97.427368 0.801182 -0.378745
H 101.087268 3.677810 -2.542696
H 102.844086 2.292004 -1.290917
H 102.516430 -2.836663 0.686104
H 100.530761 -4.253056 1.873126
H 97.188078 -5.348879 2.212990
H 97.232309 -6.967635 4.093736
H 98.470425 -6.797120 8.382053
H 98.862121 -3.890943 6.659880
H 98.806400 -2.301340 4.766148
H 95.361348 -3.042969 3.281852
H 93.604362 -1.607018 2.088409
H 99.021289 -0.490833 0.744305
H 97.645065 5.060617 -1.630093
H 97.600946 7.145275 -2.973116
H 98.732398 8.237903 -7.153335
H 99.233044 4.975140 -6.339778
H 99.265238 2.911626 -4.974028
C 105.881694 -0.025170 -0.025625
C 106.676075 0.767837 -1.143729
C 106.171772 1.231034 -2.341909
C 107.209340 1.951033 -2.987760
C 108.316350 1.898939 -2.166826
N 108.003792 1.113668 -1.085570
C 109.704890 2.617885 -2.413759
C 110.840385 2.116701 -1.860694
C 112.126998 2.765631 -2.008384
C 113.035394 2.047687 -1.356680
N 111.048933 1.005445 -1.092222
C 112.373629 0.904616 -0.760917
C 113.037823 -0.025170 -0.025625
C 112.243146 -1.245251 0.598693
C 112.745948 -2.498849 0.882080
C 111.707968 -3.241147 1.501567
C 110.602520 -2.419498 1.570972
C 109.214906 -2.765524 2.249387
C 109.227417 -3.726411 3.375536
C 108.789048 -5.044002 3.191931
C 108.815693 -5.950688 4.254312
C 109.285585 -5.544671 5.509948
C 109.297662 -6.538262 6.610350
O 109.761831 -6.036054 7.770493
O 108.939833 -7.700749 6.539527
C 109.728427 -4.228820 5.696510
C 109.699479 -3.325517 4.630938
C 108.078891 -2.148713 1.830826
C 106.792987 -2.385198 2.454208
C 105.884432 -1.638272 1.836166
C 106.545631 -0.887376 0.788057
N 107.869655 -1.232524 0.837958
N 110.915854 -1.236152 0.950716
C 109.696498 3.860347 -3.218788
C 109.226487 5.055497 -2.662094
C 109.203588 6.226802 -3.423458
C 109.649626 6.208732 -4.751246
C 109.608804 7.473575 -5.523809
O 110.056766 7.335620 -6.786496
O 109.222578 8.556499 -5.120993
C 110.117456 5.013902 -5.313313
C 110.137919 3.845245 -4.548195
H 105.164581 1.087645 -2.702735
H 107.149239 2.466079 -3.934607
H 108.663193 0.801182 -0.378745
H 112.323093 3.677810 -2.542696
H 114.079910 2.292004 -1.290917
H 113.752254 -2.836663 0.686104
H 111.766585 -4.253056 1.873126
H 108.423902 -5.348879 2.212990
H 108.468134 -6.967635 4.093736
H 109.706249 -6.797120 8.382053
H 110.097946 -3.890943 6.659880
H 110.042225 -2.301340 4.766148
H 106.597172 -3.042969 3.281852
H 104.840186 -1.607018 2.088409
H 110.257113 -0.490833 0.744305
H 108.880889 5.060617 -1.630093
H 108.836770 7.145275 -2.973116
H 109.968223 8.237903 -7.153335
H 110.468869 4.975140 -6.339778
H 110.501062 2.911626 -4.974028
