572

C 114.646430 -0.034792 0.087314
C 115.374649 1.341172 0.166067
C 114.767341 2.562832 0.344435
C 115.789961 3.545666 0.297363
C 116.987430 2.889909 0.082287
N 116.726686 1.542643 0.050922
C 118.410272 3.558712 -0.120664
C 118.449669 5.024687 -0.324393
C 118.754018 5.875996 0.744868
C 118.782951 7.259700 0.557842
C 118.506450 7.799524 -0.702813
C 118.537244 9.219279 -0.898701
N 118.560969 10.368763 -1.062989
C 118.199755 6.952116 -1.773285
C 118.171530 5.568145 -1.582599
C 119.540545 2.802227 -0.144147
C 120.843638 3.383121 -0.396233
C 121.747064 2.410503 -0.380074
N 119.738662 1.456731 0.023634
C 121.070624 1.157781 -0.105582
C 121.741990 -0.021872 -0.020261
C 120.968844 -1.369868 0.306663
C 121.522543 -2.521294 0.833867
C 120.495229 -3.494450 0.906478
C 119.341536 -2.908360 0.430917
N 119.626978 -1.599776 0.124444
C 117.928455 -3.611208 0.276399
C 117.896075 -5.086986 0.189657
C 117.553716 -5.857597 1.307940
C 117.532316 -7.250772 1.222585
C 117.857591 -7.882140 0.016943
C 117.833926 -9.312441 -0.073275
N 117.815732 -10.471431 -0.146995
C 118.204245 -7.115560 -1.101690
C 118.222593 -5.722524 -1.013499
C 116.801110 -2.858707 0.192041
C 115.477713 -3.437343 0.036552
C 114.590384 -2.447162 -0.000860
C 115.312683 -1.204404 0.112348
N 116.635080 -1.502123 0.221814
H 113.567583 -0.033347 -0.013705
H 113.709381 2.728760 0.477486
H 115.661686 4.613784 0.386217
H 117.426086 0.810032 -0.039501
H 118.972536 5.442168 1.719445
H 119.022769 7.901717 1.400964
H 117.984025 7.352249 -2.759625
H 117.936140 4.898979 -2.407024
H 121.056569 4.420689 -0.581924
H 122.799589 2.553078 -0.543933
H 122.555655 -2.655374 1.116667
H 120.593495 -4.512002 1.248700
H 118.939074 -0.904173 -0.155107
H 117.299243 -5.353860 2.238253
H 117.260931 -7.829636 2.101116
H 118.462458 -7.586777 -2.046492
H 118.486211 -5.114151 -1.877837
H 115.246177 -4.484199 -0.036321
H 113.525096 -2.547060 -0.108081
C 251.885740 0.020413 0.079495
C 251.157520 -1.279566 0.537242
C 251.764828 -2.403649 1.047837
C 250.742209 -3.360900 1.275540
C 249.544739 -2.790658 0.886826
N 249.805484 -1.505088 0.482572
C 248.121898 -3.489514 0.877577
C 248.082500 -4.954407 1.088946
C 247.778151 -5.475312 2.352554
C 247.749218 -6.856531 2.557124
C 248.025719 -7.725196 1.495954
C 247.994925 -9.143509 1.702021
N 247.971200 -10.293406 1.863395
C 248.332415 -7.208375 0.232266
C 248.360639 -5.825882 0.031138
C 246.991624 -2.769302 0.644949
C 245.688532 -3.397353 0.564085
C 244.785105 -2.458499 0.309523
N 246.793507 -1.430133 0.432500
C 245.461545 -1.178822 0.225351
C 244.790180 -0.021872 -0.020261
C 245.563326 1.363893 -0.080520
C 245.009626 2.616433 0.106211
C 246.036940 3.571479 -0.094269
C 247.190634 2.876381 -0.388376
N 246.905191 1.534158 -0.319416
C 248.603714 3.508678 -0.731991
C 248.636094 4.902327 -1.225130
C 248.978454 5.953167 -0.364819
C 248.999853 7.267847 -0.833687
C 248.674579 7.539589 -2.167237
C 248.698243 8.888586 -2.651087
N 248.716437 9.981522 -3.043747
C 248.327924 6.492525 -3.029003
C 248.309576 5.178766 -2.557449
C 249.731059 2.762347 -0.604069
C 251.054457 3.275048 -0.914124
C 251.941785 2.313421 -0.675101
C 251.219486 1.150977 -0.221245
N 249.897089 1.467384 -0.198757
H 252.964586 -0.009027 -0.017149
H 252.822789 -2.526104 1.221732
H 250.870483 -4.362335 1.657505
H 249.106083 -0.826400 0.192267
H 247.559634 -4.787916 3.168332
H 247.509400 -7.239172 3.545369
H 248.548144 -7.866668 -0.604169
H 248.596030 -5.411969 -0.946684
H 245.475601 -4.445678 0.673820
H 243.732580 -2.640969 0.191700
H 243.976514 2.823770 0.340656
H 245.938674 4.644043 -0.048071
H 247.593095 0.788284 -0.394810
H 249.232926 5.727580 0.668788
H 249.271239 8.067904 -0.150453
H 248.069711 6.682848 -4.067499
H 248.045958 4.354302 -3.218855
H 251.285992 4.260496 -1.274833
H 253.007073 2.379616 -0.805846
C 127.956592 -0.020769 -0.011771
C 126.747653 -0.034224 -0.020218
C 125.326124 -0.025405 -0.032201
C 124.114455 -0.017966 -0.021338
C 129.373197 -0.027444 -0.011238
C 130.593893 -0.017966 -0.021338
C 143.931831 -0.020769 -0.011771
C 142.722892 -0.034224 -0.020218
C 141.301363 -0.025405 -0.032201
C 140.089693 -0.017966 -0.021338
C 145.348436 -0.027444 -0.011238
C 146.569131 -0.017966 -0.021338
C 159.907070 -0.020769 -0.011771
C 158.698131 -0.034224 -0.020218
C 157.276602 -0.025405 -0.032201
C 156.064932 -0.017966 -0.021338
C 161.323675 -0.027444 -0.011238
C 162.544370 -0.017966 -0.021338
C 175.882309 -0.020769 -0.011771
C 174.673370 -0.034224 -0.020218
C 173.251841 -0.025405 -0.032201
C 172.040171 -0.017966 -0.021338
C 177.298913 -0.027444 -0.011238
C 178.519609 -0.017966 -0.021338
C 191.857548 -0.020769 -0.011771
C 190.648609 -0.034224 -0.020218
C 189.227080 -0.025405 -0.032201
C 188.015410 -0.017966 -0.021338
C 193.274152 -0.027444 -0.011238
C 194.494848 -0.017966 -0.021338
C 207.832787 -0.020769 -0.011771
C 206.623848 -0.034224 -0.020218
C 205.202319 -0.025405 -0.032201
C 203.990649 -0.017966 -0.021338
C 209.249391 -0.027444 -0.011238
C 210.470087 -0.017966 -0.021338
C 223.808026 -0.020769 -0.011771
C 222.599087 -0.034224 -0.020218
C 221.177558 -0.025405 -0.032201
C 219.965888 -0.017966 -0.021338
C 225.224630 -0.027444 -0.011238
C 226.445326 -0.017966 -0.021338
C 239.783265 -0.020769 -0.011771
C 238.574325 -0.034224 -0.020218
C 237.152797 -0.025405 -0.032201
C 235.941127 -0.017966 -0.021338
C 241.199869 -0.027444 -0.011238
C 242.420565 -0.017966 -0.021338
C 131.761316 0.008481 0.008411
C 132.556550 1.160212 -0.733325
C 132.055384 2.380579 -1.138086
C 133.093946 3.056305 -1.828804
C 134.197724 2.229449 -1.818779
N 133.883320 1.114018 -1.084022
C 135.584554 2.503179 -2.530026
C 135.572421 3.348564 -3.744390
C 135.095759 2.829728 -4.953826
C 135.069139 3.626413 -6.100666
C 135.518363 4.950567 -6.042186
C 135.492286 5.769653 -7.218159
N 135.470997 6.435634 -8.170190
C 135.992469 5.475077 -4.834346
C 136.016834 4.675684 -3.689605
C 136.720930 1.930920 -2.053686
C 138.006351 2.102099 -2.699310
C 138.915432 1.422039 -2.009056
N 136.930769 1.119898 -0.973729
C 138.254945 0.782342 -0.889357
C 138.919270 0.008481 0.008411
C 138.124053 -0.664951 1.201379
C 138.625305 -0.998174 2.443148
C 137.586750 -1.648378 3.157946
C 136.482869 -1.686205 2.332036
N 136.797219 -1.017508 1.175779
C 135.096044 -2.380333 2.646727
C 135.108363 -3.543778 3.560937
C 135.586666 -4.780690 3.113260
C 135.613495 -5.879611 3.974817
C 135.162860 -5.745246 5.292949
C 135.189100 -6.872014 6.178498
N 135.210464 -7.784136 6.898147
C 134.687164 -4.509587 5.746419
C 134.662622 -3.412896 4.882270
C 133.959637 -1.938051 2.047802
C 132.674267 -2.572790 2.256059
C 131.765176 -1.923307 1.536976
C 132.425612 -0.842606 0.833354
N 133.749746 -0.907003 1.175457
H 131.049791 2.737692 -0.974911
H 133.036048 4.026988 -2.297504
H 134.540857 0.391577 -0.805171
H 134.748330 1.798596 -4.987891
H 134.696454 3.201921 -7.029163
H 136.345930 6.500721 -4.769892
H 136.385184 5.071049 -2.744504
H 138.202117 2.671210 -3.590150
H 139.959528 1.364563 -2.257491
H 139.630948 -0.814688 2.790070
H 137.644691 -2.059977 4.154196
H 136.139607 -0.780867 0.438532
H 135.935226 -4.873882 2.086167
H 135.987451 -6.830701 3.604975
H 134.332592 -4.386395 6.766292
H 134.293075 -2.446888 5.222090
H 132.478549 -3.429138 2.875870
H 130.721125 -2.174830 1.493872
C 147.736555 0.008481 0.008411
C 148.531788 1.160212 -0.733325
C 148.030623 2.380579 -1.138086
C 149.069185 3.056305 -1.828804
C 150.172963 2.229449 -1.818779
N 149.858559 1.114018 -1.084022
C 151.559793 2.503179 -2.530026
C 151.547660 3.348564 -3.744390
C 151.070998 2.829728 -4.953826
C 151.044378 3.626413 -6.100666
C 151.493602 4.950567 -6.042186
C 151.467525 5.769653 -7.218159
N 151.446236 6.435634 -8.170190
C 151.967708 5.475077 -4.834346
C 151.992073 4.675684 -3.689605
C 152.696169 1.930920 -2.053686
C 153.981589 2.102099 -2.699310
C 154.890671 1.422039 -2.009056
N 152.906008 1.119898 -0.973729
C 154.230184 0.782342 -0.889357
C 154.894509 0.008481 0.008411
C 154.099292 -0.664951 1.201379
C 154.600544 -0.998174 2.443148
C 153.561989 -1.648378 3.157946
C 152.458108 -1.686205 2.332036
N 152.772458 -1.017508 1.175779
C 151.071283 -2.380333 2.646727
C 151.083602 -3.543778 3.560937
C 151.561905 -4.780690 3.113260
C 151.588734 -5.879611 3.974817
C 151.138099 -5.745246 5.292949
C 151.164339 -6.872014 6.178498
N 151.185703 -7.784136 6.898147
C 150.662403 -4.509587 5.746419
C 150.637861 -3.412896 4.882270
C 149.934876 -1.938051 2.047802
C 148.649506 -2.572790 2.256059
C 147.740415 -1.923307 1.536976
C 148.400851 -0.842606 0.833354
N 149.724985 -0.907003 1.175457
H 147.025030 2.737692 -0.974911
H 149.011287 4.026988 -2.297504
H 150.516096 0.391577 -0.805171
H 150.723569 1.798596 -4.987891
H 150.671693 3.201921 -7.029163
H 152.321169 6.500721 -4.769892
H 152.360423 5.071049 -2.744504
H 154.177356 2.671210 -3.590150
H 155.934767 1.364563 -2.257491
H 155.606186 -0.814688 2.790070
H 153.619930 -2.059977 4.154196
H 152.114846 -0.780867 0.438532
H 151.910465 -4.873882 2.086167
H 151.962690 -6.830701 3.604975
H 150.307831 -4.386395 6.766292
H 150.268314 -2.446888 5.222090
H 148.453787 -3.429138 2.875870
H 146.696364 -2.174830 1.493872
C 163.711793 0.008481 0.008411
C 164.507027 1.160212 -0.733325
C 164.005862 2.380579 -1.138086
C 165.044424 3.056305 -1.828804
C 166.148202 2.229449 -1.818779
N 165.833798 1.114018 -1.084022
C 167.535031 2.503179 -2.530026
C 167.522899 3.348564 -3.744390
C 167.046237 2.829728 -4.953826
C 167.019617 3.626413 -6.100666
C 167.468841 4.950567 -6.042186
C 167.442764 5.769653 -7.218159
N 167.421475 6.435634 -8.170190
C 167.942947 5.475077 -4.834346
C 167.967312 4.675684 -3.689605
C 168.671408 1.930920 -2.053686
C 169.956828 2.102099 -2.699310
C 170.865910 1.422039 -2.009056
N 168.881247 1.119898 -0.973729
C 170.205423 0.782342 -0.889357
C 170.869748 0.008481 0.008411
C 170.074531 -0.664951 1.201379
C 170.575783 -0.998174 2.443148
C 169.537228 -1.648378 3.157946
C 168.433347 -1.686205 2.332036
N 168.747697 -1.017508 1.175779
C 167.046522 -2.380333 2.646727
C 167.058841 -3.543778 3.560937
C 167.537144 -4.780690 3.113260
C 167.563973 -5.879611 3.974817
C 167.113338 -5.745246 5.292949
C 167.139577 -6.872014 6.178498
N 167.160941 -7.784136 6.898147
C 166.637642 -4.509587 5.746419
C 166.613099 -3.412896 4.882270
C 165.910115 -1.938051 2.047802
C 164.624745 -2.572790 2.256059
C 163.715654 -1.923307 1.536976
C 164.376090 -0.842606 0.833354
N 165.700223 -0.907003 1.175457
H 163.000269 2.737692 -0.974911
H 164.986526 4.026988 -2.297504
H 166.491335 0.391577 -0.805171
H 166.698808 1.798596 -4.987891
H 166.646932 3.201921 -7.029163
H 168.296408 6.500721 -4.769892
H 168.335662 5.071049 -2.744504
H 170.152595 2.671210 -3.590150
H 171.910006 1.364563 -2.257491
H 171.581425 -0.814688 2.790070
H 169.595169 -2.059977 4.154196
H 168.090084 -0.780867 0.438532
H 167.885704 -4.873882 2.086167
H 167.937929 -6.830701 3.604975
H 166.283069 -4.386395 6.766292
H 166.243553 -2.446888 5.222090
H 164.429026 -3.429138 2.875870
H 162.671602 -2.174830 1.493872
C 179.687032 0.008481 0.008411
C 180.482266 1.160212 -0.733325
C 179.981101 2.380579 -1.138086
C 181.019662 3.056305 -1.828804
C 182.123441 2.229449 -1.818779
N 181.809037 1.114018 -1.084022
C 183.510270 2.503179 -2.530026
C 183.498138 3.348564 -3.744390
C 183.021476 2.829728 -4.953826
C 182.994856 3.626413 -6.100666
C 183.444080 4.950567 -6.042186
C 183.418002 5.769653 -7.218159
N 183.396714 6.435634 -8.170190
C 183.918186 5.475077 -4.834346
C 183.942551 4.675684 -3.689605
C 184.646647 1.930920 -2.053686
C 185.932067 2.102099 -2.699310
C 186.841149 1.422039 -2.009056
N 184.856486 1.119898 -0.973729
C 186.180662 0.782342 -0.889357
C 186.844987 0.008481 0.008411
C 186.049770 -0.664951 1.201379
C 186.551022 -0.998174 2.443148
C 185.512467 -1.648378 3.157946
C 184.408586 -1.686205 2.332036
N 184.722936 -1.017508 1.175779
C 183.021761 -2.380333 2.646727
C 183.034079 -3.543778 3.560937
C 183.512383 -4.780690 3.113260
C 183.539212 -5.879611 3.974817
C 183.088576 -5.745246 5.292949
C 183.114816 -6.872014 6.178498
N 183.136180 -7.784136 6.898147
C 182.612881 -4.509587 5.746419
C 182.588338 -3.412896 4.882270
C 181.885354 -1.938051 2.047802
C 180.599983 -2.572790 2.256059
C 179.690893 -1.923307 1.536976
C 180.351329 -0.842606 0.833354
N 181.675462 -0.907003 1.175457
H 178.975507 2.737692 -0.974911
H 180.961765 4.026988 -2.297504
H 182.466574 0.391577 -0.805171
H 182.674046 1.798596 -4.987891
H 182.622171 3.201921 -7.029163
H 184.271647 6.500721 -4.769892
H 184.310901 5.071049 -2.744504
H 186.127834 2.671210 -3.590150
H 187.885245 1.364563 -2.257491
H 187.556664 -0.814688 2.790070
H 185.570408 -2.059977 4.154196
H 184.065323 -0.780867 0.438532
H 183.860943 -4.873882 2.086167
H 183.913168 -6.830701 3.604975
H 182.258308 -4.386395 6.766292
H 182.218792 -2.446888 5.222090
H 180.404265 -3.429138 2.875870
H 178.646841 -2.174830 1.493872
C 195.662271 0.008481 0.008411
C 196.457505 1.160212 -0.733325
C 195.956340 2.380579 -1.138086
C 196.994901 3.056305 -1.828804
C 198.098680 2.229449 -1.818779
N 197.784276 1.114018 -1.084022
C 199.485509 2.503179 -2.530026
C 199.473377 3.348564 -3.744390
C 198.996715 2.829728 -4.953826
C 198.970095 3.626413 -6.100666
C 199.419319 4.950567 -6.042186
C 199.393241 5.769653 -7.218159
N 199.371953 6.435634 -8.170190
C 199.893425 5.475077 -4.834346
C 199.917790 4.675684 -3.689605
C 200.621886 1.930920 -2.053686
C 201.907306 2.102099 -2.699310
C 202.816388 1.422039 -2.009056
N 200.831725 1.119898 -0.973729
C 202.155901 0.782342 -0.889357
C 202.820226 0.008481 0.008411
C 202.025009 -0.664951 1.201379
C 202.526261 -0.998174 2.443148
C 201.487705 -1.648378 3.157946
C 200.383824 -1.686205 2.332036
N 200.698175 -1.017508 1.175779
C 198.996999 -2.380333 2.646727
C 199.009318 -3.543778 3.560937
C 199.487622 -4.780690 3.113260
C 199.514451 -5.879611 3.974817
C 199.063815 -5.745246 5.292949
C 199.090055 -6.872014 6.178498
N 199.111419 -7.784136 6.898147
C 198.588120 -4.509587 5.746419
C 198.563577 -3.412896 4.882270
C 197.860593 -1.938051 2.047802
C 196.575222 -2.572790 2.256059
C 195.666132 -1.923307 1.536976
C 196.326568 -0.842606 0.833354
N 197.650701 -0.907003 1.175457
H 194.950746 2.737692 -0.974911
H 196.937004 4.026988 -2.297504
H 198.441812 0.391577 -0.805171
H 198.649285 1.798596 -4.987891
H 198.597409 3.201921 -7.029163
H 200.246886 6.500721 -4.769892
H 200.286140 5.071049 -2.744504
H 202.103073 2.671210 -3.590150
H 203.860484 1.364563 -2.257491
H 203.531903 -0.814688 2.790070
H 201.545647 -2.059977 4.154196
H 200.040562 -0.780867 0.438532
H 199.836181 -4.873882 2.086167
H 199.888407 -6.830701 3.604975
H 198.233547 -4.386395 6.766292
H 198.194031 -2.446888 5.222090
H 196.379504 -3.429138 2.875870
H 194.622080 -2.174830 1.493872
C 211.637510 0.008481 0.008411
C 212.432744 1.160212 -0.733325
C 211.931579 2.380579 -1.138086
C 212.970140 3.056305 -1.828804
C 214.073919 2.229449 -1.818779
N 213.759515 1.114018 -1.084022
C 215.460748 2.503179 -2.530026
C 215.448616 3.348564 -3.744390
C 214.971954 2.829728 -4.953826
C 214.945333 3.626413 -6.100666
C 215.394557 4.950567 -6.042186
C 215.368480 5.769653 -7.218159
N 215.347192 6.435634 -8.170190
C 215.868664 5.475077 -4.834346
C 215.893029 4.675684 -3.689605
C 216.597125 1.930920 -2.053686
C 217.882545 2.102099 -2.699310
C 218.791627 1.422039 -2.009056
N 216.806963 1.119898 -0.973729
C 218.131139 0.782342 -0.889357
C 218.795465 0.008481 0.008411
C 218.000248 -0.664951 1.201379
C 218.501500 -0.998174 2.443148
C 217.462944 -1.648378 3.157946
C 216.359063 -1.686205 2.332036
N 216.673414 -1.017508 1.175779
C 214.972238 -2.380333 2.646727
C 214.984557 -3.543778 3.560937
C 215.462861 -4.780690 3.113260
C 215.489690 -5.879611 3.974817
C 215.039054 -5.745246 5.292949
C 215.065294 -6.872014 6.178498
N 215.086658 -7.784136 6.898147
C 214.563359 -4.509587 5.746419
C 214.538816 -3.412896 4.882270
C 213.835832 -1.938051 2.047802
C 212.550461 -2.572790 2.256059
C 211.641371 -1.923307 1.536976
C 212.301807 -0.842606 0.833354
N 213.625940 -0.907003 1.175457
H 210.925985 2.737692 -0.974911
H 212.912243 4.026988 -2.297504
H 214.417051 0.391577 -0.805171
H 214.624524 1.798596 -4.987891
H 214.572648 3.201921 -7.029163
H 216.222124 6.500721 -4.769892
H 216.261379 5.071049 -2.744504
H 218.078311 2.671210 -3.590150
H 219.835723 1.364563 -2.257491
H 219.507142 -0.814688 2.790070
H 217.520886 -2.059977 4.154196
H 216.015801 -0.780867 0.438532
H 215.811420 -4.873882 2.086167
H 215.863646 -6.830701 3.604975
H 214.208786 -4.386395 6.766292
H 214.169270 -2.446888 5.222090
H 212.354743 -3.429138 2.875870
H 210.597319 -2.174830 1.493872
C 227.612749 0.008481 0.008411
C 228.407983 1.160212 -0.733325
C 227.906818 2.380579 -1.138086
C 228.945379 3.056305 -1.828804
C 230.049158 2.229449 -1.818779
N 229.734754 1.114018 -1.084022
C 231.435987 2.503179 -2.530026
C 231.423854 3.348564 -3.744390
C 230.947193 2.829728 -4.953826
C 230.920572 3.626413 -6.100666
C 231.369796 4.950567 -6.042186
C 231.343719 5.769653 -7.218159
N 231.322431 6.435634 -8.170190
C 231.843902 5.475077 -4.834346
C 231.868267 4.675684 -3.689605
C 232.572364 1.930920 -2.053686
C 233.857784 2.102099 -2.699310
C 234.766865 1.422039 -2.009056
N 232.782202 1.119898 -0.973729
C 234.106378 0.782342 -0.889357
C 234.770704 0.008481 0.008411
C 233.975487 -0.664951 1.201379
C 234.476739 -0.998174 2.443148
C 233.438183 -1.648378 3.157946
C 232.334302 -1.686205 2.332036
N 232.648653 -1.017508 1.175779
C 230.947477 -2.380333 2.646727
C 230.959796 -3.543778 3.560937
C 231.438100 -4.780690 3.113260
C 231.464929 -5.879611 3.974817
C 231.014293 -5.745246 5.292949
C 231.040533 -6.872014 6.178498
N 231.061897 -7.784136 6.898147
C 230.538598 -4.509587 5.746419
C 230.514055 -3.412896 4.882270
C 229.811071 -1.938051 2.047802
C 228.525700 -2.572790 2.256059
C 227.616610 -1.923307 1.536976
C 228.277046 -0.842606 0.833354
N 229.601179 -0.907003 1.175457
H 226.901224 2.737692 -0.974911
H 228.887482 4.026988 -2.297504
H 230.392290 0.391577 -0.805171
H 230.599763 1.798596 -4.987891
H 230.547887 3.201921 -7.029163
H 232.197363 6.500721 -4.769892
H 232.236618 5.071049 -2.744504
H 234.053550 2.671210 -3.590150
H 235.810962 1.364563 -2.257491
H 235.482381 -0.814688 2.790070
H 233.496124 -2.059977 4.154196
H 231.991040 -0.780867 0.438532
H 231.786659 -4.873882 2.086167
H 231.838885 -6.830701 3.604975
H 230.184025 -4.386395 6.766292
H 230.144508 -2.446888 5.222090
H 228.329982 -3.429138 2.875870
H 226.572558 -2.174830 1.493872
