388

C 62.670963 -0.028040 -0.025175
C 63.396151 -1.406810 0.018008
C 62.778507 -2.632707 0.111636
C 63.800431 -3.615609 0.082780
C 65.008812 -2.955816 -0.027713
N 64.751767 -1.608275 -0.035437
C 66.442533 -3.625899 -0.149439
C 66.494613 -5.111782 -0.296926
C 66.423972 -5.704039 -1.579083
C 66.313803 -4.858119 -2.820872
C 66.462341 -7.103241 -1.698392
C 66.576871 -7.922283 -0.570057
C 66.581021 -9.413705 -0.712465
C 66.630414 -7.331511 0.696824
C 66.595908 -5.935506 0.848499
C 66.665550 -5.338824 2.230093
C 67.568797 -2.861316 -0.146434
C 68.881706 -3.450747 -0.307191
C 69.783185 -2.476779 -0.291438
N 67.758373 -1.508900 -0.020930
C 69.095480 -1.213699 -0.102974
C 69.767157 -0.032639 -0.036241
C 68.995151 1.335302 0.213178
C 69.565557 2.525607 0.622430
C 68.538098 3.497597 0.680746
C 67.363462 2.873900 0.318925
N 67.644404 1.550118 0.068832
C 65.936039 3.565595 0.214228
C 65.878590 5.056734 0.208315
C 66.013764 5.766594 -1.006840
C 66.209948 5.040457 -2.312094
C 65.954292 7.170226 -0.999505
C 65.772852 7.879822 0.192209
C 65.669012 9.374495 0.180686
C 65.628895 7.171770 1.390145
C 65.689478 5.768600 1.415920
C 65.523583 5.046170 2.727302
C 64.816649 2.800374 0.122212
C 63.487316 3.376202 0.017939
C 62.605512 2.383585 -0.040743
C 63.336167 1.141275 0.015840
N 64.659990 1.441986 0.104948
H 61.589904 -0.027208 -0.099963
H 61.715201 -2.800866 0.181443
H 63.669652 -4.686252 0.123632
H 65.457229 -0.875191 -0.070388
H 65.412435 -4.238620 -2.789396
H 66.245520 -5.479842 -3.720352
H 67.197057 -4.222276 -2.933536
H 66.403809 -7.553628 -2.686127
H 65.556412 -9.796335 -0.678792
H 67.039684 -9.715001 -1.660019
H 67.159963 -9.882213 0.090362
H 66.701728 -7.960438 1.580637
H 65.764339 -4.756398 2.444823
H 66.736228 -6.118693 2.996236
H 67.550414 -4.703411 2.333536
H 69.098192 -4.497204 -0.428302
H 70.842215 -2.627115 -0.393133
H 70.608802 2.687774 0.846396
H 68.643359 4.537366 0.952873
H 66.949796 0.840884 -0.153488
H 66.293791 5.743021 -3.148540
H 67.132289 4.451824 -2.292891
H 65.357096 4.387543 -2.522439
H 66.047137 7.710204 -1.938419
H 66.112237 9.801611 1.085787
H 64.618792 9.676168 0.125222
H 66.202458 9.800589 -0.674947
H 65.465009 7.713783 2.318084
H 65.505959 5.749693 3.567127
H 64.580362 4.491970 2.744276
H 66.358184 4.361523 2.905044
H 63.253758 4.425569 -0.005179
H 61.538378 2.483090 -0.119409
C 124.473548 -0.036669 -0.024956
C 123.748360 1.342514 -0.051909
C 124.366004 2.571585 -0.020713
C 123.344080 3.551750 -0.099491
C 122.135699 2.887193 -0.176305
N 122.392744 1.541002 -0.115526
C 120.701978 3.550223 -0.331933
C 120.649898 5.026689 -0.554754
C 120.720539 5.553010 -1.865357
C 120.830709 4.645065 -3.062544
C 120.682170 6.944339 -2.055631
C 120.567641 7.819674 -0.970385
C 120.563490 9.301930 -1.188415
C 120.514098 7.294060 0.324886
C 120.548603 5.907568 0.547322
C 120.478961 5.381882 1.957458
C 119.575714 2.786781 -0.290069
C 118.262805 3.367279 -0.480577
C 117.361326 2.395371 -0.415340
N 119.386138 1.442492 -0.095986
C 118.049031 1.143503 -0.162919
C 117.377354 -0.032639 -0.036241
C 118.149360 -1.386134 0.282386
C 117.578954 -2.554098 0.751610
C 118.606413 -3.521869 0.859256
C 119.781049 -2.917368 0.466201
N 119.500107 -1.608010 0.149145
C 121.208472 -3.613491 0.396797
C 121.265921 -5.103003 0.466683
C 121.130747 -5.873709 -0.710819
C 120.934563 -5.214856 -2.051295
C 121.190219 -7.275155 -0.632150
C 121.371659 -7.923260 0.594092
C 121.475499 -9.416588 0.658555
C 121.515616 -7.155234 1.754490
C 121.455033 -5.752568 1.708910
C 121.620928 -4.964416 2.981878
C 122.327862 -2.853936 0.266005
C 123.657196 -3.434319 0.191135
C 124.538999 -2.445969 0.082076
C 123.808344 -1.202388 0.075440
N 122.484521 -1.498182 0.179718
H 125.554607 -0.041301 -0.099605
H 125.429310 2.743075 0.040457
H 123.474859 4.623085 -0.113110
H 121.687282 0.807088 -0.113169
H 121.732076 4.027967 -2.999620
H 120.898991 5.220266 -3.992462
H 119.947454 4.004318 -3.142744
H 120.740702 7.343939 -3.064982
H 121.588099 9.685776 -1.174235
H 120.104827 9.554673 -2.150060
H 119.984548 9.810639 -0.410440
H 120.442783 7.967097 1.175590
H 121.380172 4.811123 2.201515
H 120.408283 6.199685 2.682972
H 119.594097 4.752547 2.093065
H 118.046319 4.406228 -0.654722
H 116.302296 2.540344 -0.524545
H 116.535709 -2.704673 0.983530
H 118.501152 -4.546461 1.183880
H 120.194715 -0.910992 -0.108936
H 120.850721 -5.959026 -2.850950
H 120.012222 -4.626007 -2.062036
H 121.787415 -4.573477 -2.294554
H 121.097374 -7.862158 -1.542404
H 121.032274 -9.797146 1.584196
H 122.525719 -9.720690 0.618497
H 120.942053 -9.885621 -0.174314
H 121.679502 -7.649381 2.708779
H 121.638552 -5.624343 3.856376
H 122.564149 -4.410070 2.970660
H 120.786327 -4.271620 3.124591
H 123.890753 -4.483506 0.221384
H 125.606133 -2.549343 0.008569
C 73.015081 -0.020202 -0.033800
C 71.762811 -0.039383 -0.038148
C 74.328750 -0.020968 -0.031867
C 75.831883 -0.039383 -0.038148
C 86.228356 -0.020202 -0.033800
C 84.976085 -0.039383 -0.038148
C 87.542024 -0.020968 -0.031867
C 89.045158 -0.039383 -0.038148
C 99.441630 -0.020202 -0.033800
C 98.189360 -0.039383 -0.038148
C 100.755298 -0.020968 -0.031867
C 102.258432 -0.039383 -0.038148
C 112.654904 -0.020202 -0.033800
C 111.402634 -0.039383 -0.038148
C 113.968573 -0.020968 -0.031867
C 115.471706 -0.039383 -0.038148
C 76.769257 0.024892 0.027237
C 77.557645 -0.760106 1.157247
C 77.030137 -1.257814 2.331541
C 78.065650 -1.960833 2.997180
C 79.197180 -1.860001 2.216692
N 78.895678 -1.070586 1.134346
C 80.596246 -2.551395 2.496900
C 80.603616 -3.783435 3.340374
C 80.343829 -5.044403 2.755014
C 80.061327 -5.173220 1.280690
C 80.363388 -6.198264 3.556577
C 80.626431 -6.121898 4.928219
C 80.687838 -7.366527 5.759521
C 80.893422 -4.873520 5.500155
C 80.874957 -3.700739 4.726326
C 81.174606 -2.378743 5.384100
C 81.728830 -2.052842 1.933132
C 83.020640 -2.679702 2.124747
C 83.929445 -1.980626 1.454634
N 81.934975 -0.969597 1.123287
C 83.262694 -0.873082 0.799094
C 83.929594 0.024892 0.027237
C 83.141154 1.213456 -0.664447
C 83.665651 2.427930 -1.057819
C 82.630499 3.146091 -1.708025
C 81.501245 2.354805 -1.679719
N 81.804750 1.210964 -0.983645
C 80.102272 2.687938 -2.348580
C 80.096482 3.635365 -3.502656
C 80.366010 3.163932 -4.808343
C 80.648154 1.706398 -5.067262
C 80.369215 4.067175 -5.884310
C 80.099156 5.426010 -5.688750
C 80.139190 6.380761 -6.843080
C 79.846698 5.889664 -4.393347
C 79.838000 5.011205 -3.296793
C 79.551571 5.551217 -1.919826
C 78.970230 2.083531 -1.898879
C 77.678514 2.326303 -2.506736
C 76.770201 1.602249 -1.862899
C 77.436886 0.861018 -0.810799
N 78.765183 1.187688 -0.885618
H 76.008844 -1.151167 2.663477
H 77.990024 -2.499015 3.930098
H 79.565476 -0.745359 0.442774
H 79.170506 -4.601698 1.005689
H 80.917491 -4.829861 0.693519
H 79.872722 -6.214846 1.002592
H 80.174555 -7.165845 3.098435
H 80.359635 -7.167800 6.784854
H 80.029986 -8.141322 5.353110
H 81.712222 -7.749273 5.784398
H 81.122126 -4.806137 6.560811
H 80.376105 -1.655795 5.190576
H 81.250050 -2.486424 6.472203
H 82.128836 -1.979307 5.027133
H 83.217181 -3.562926 2.706557
H 84.977865 -2.214346 1.417468
H 84.685660 2.754283 -0.918743
H 82.706028 4.121539 -2.164878
H 81.136943 0.492014 -0.719516
H 80.820064 1.519264 -6.131925
H 79.796592 1.089347 -4.765793
H 81.547459 1.385748 -4.533644
H 80.582543 3.699609 -6.885159
H 79.810608 5.891477 -7.766136
H 81.157463 6.755331 -6.982533
H 79.470713 7.231065 -6.671888
H 79.652405 6.946701 -4.229098
H 80.389661 5.355451 -1.242802
H 79.404549 6.637710 -1.942956
H 78.635799 5.110535 -1.514711
H 77.482332 2.978911 -3.338796
H 75.722042 1.585082 -2.098539
C 89.982531 0.024892 0.027237
C 90.770920 -0.760106 1.157247
C 90.243412 -1.257814 2.331541
C 91.278924 -1.960833 2.997180
C 92.410454 -1.860001 2.216692
N 92.108952 -1.070586 1.134346
C 93.809520 -2.551395 2.496900
C 93.816890 -3.783435 3.340374
C 93.557104 -5.044403 2.755014
C 93.274601 -5.173220 1.280690
C 93.576663 -6.198264 3.556577
C 93.839706 -6.121898 4.928219
C 93.901112 -7.366527 5.759521
C 94.106696 -4.873520 5.500155
C 94.088232 -3.700739 4.726326
C 94.387880 -2.378743 5.384100
C 94.942105 -2.052842 1.933132
C 96.233915 -2.679702 2.124747
C 97.142719 -1.980626 1.454634
N 95.148249 -0.969597 1.123287
C 96.475969 -0.873082 0.799094
C 97.142868 0.024892 0.027237
C 96.354428 1.213456 -0.664447
C 96.878926 2.427930 -1.057819
C 95.843774 3.146091 -1.708025
C 94.714519 2.354805 -1.679719
N 95.018025 1.210964 -0.983645
C 93.315546 2.687938 -2.348580
C 93.309757 3.635365 -3.502656
C 93.579285 3.163932 -4.808343
C 93.861429 1.706398 -5.067262
C 93.582490 4.067175 -5.884310
C 93.312431 5.426010 -5.688750
C 93.352464 6.380761 -6.843080
C 93.059973 5.889664 -4.393347
C 93.051274 5.011205 -3.296793
C 92.764846 5.551217 -1.919826
C 92.183504 2.083531 -1.898879
C 90.891788 2.326303 -2.506736
C 89.983476 1.602249 -1.862899
C 90.650161 0.861018 -0.810799
N 91.978457 1.187688 -0.885618
H 89.222118 -1.151167 2.663477
H 91.203298 -2.499015 3.930098
H 92.778750 -0.745359 0.442774
H 92.383781 -4.601698 1.005689
H 94.130765 -4.829861 0.693519
H 93.085996 -6.214846 1.002592
H 93.387830 -7.165845 3.098435
H 93.572909 -7.167800 6.784854
H 93.243260 -8.141322 5.353110
H 94.925496 -7.749273 5.784398
H 94.335401 -4.806137 6.560811
H 93.589380 -1.655795 5.190576
H 94.463324 -2.486424 6.472203
H 95.342111 -1.979307 5.027133
H 96.430456 -3.562926 2.706557
H 98.191139 -2.214346 1.417468
H 97.898934 2.754283 -0.918743
H 95.919303 4.121539 -2.164878
H 94.350217 0.492014 -0.719516
H 94.033339 1.519264 -6.131925
H 93.009866 1.089347 -4.765793
H 94.760733 1.385748 -4.533644
H 93.795817 3.699609 -6.885159
H 93.023882 5.891477 -7.766136
H 94.370737 6.755331 -6.982533
H 92.683988 7.231065 -6.671888
H 92.865679 6.946701 -4.229098
H 93.602936 5.355451 -1.242802
H 92.617824 6.637710 -1.942956
H 91.849073 5.110535 -1.514711
H 90.695606 2.978911 -3.338796
H 88.935316 1.585082 -2.098539
C 103.195805 0.024892 0.027237
C 103.984194 -0.760106 1.157247
C 103.456686 -1.257814 2.331541
C 104.492199 -1.960833 2.997180
C 105.623728 -1.860001 2.216692
N 105.322227 -1.070586 1.134346
C 107.022794 -2.551395 2.496900
C 107.030164 -3.783435 3.340374
C 106.770378 -5.044403 2.755014
C 106.487876 -5.173220 1.280690
C 106.789937 -6.198264 3.556577
C 107.052980 -6.121898 4.928219
C 107.114386 -7.366527 5.759521
C 107.319970 -4.873520 5.500155
C 107.301506 -3.700739 4.726326
C 107.601154 -2.378743 5.384100
C 108.155379 -2.052842 1.933132
C 109.447189 -2.679702 2.124747
C 110.355994 -1.980626 1.454634
N 108.361523 -0.969597 1.123287
C 109.689243 -0.873082 0.799094
C 110.356142 0.024892 0.027237
C 109.567703 1.213456 -0.664447
C 110.092200 2.427930 -1.057819
C 109.057048 3.146091 -1.708025
C 107.927794 2.354805 -1.679719
N 108.231299 1.210964 -0.983645
C 106.528820 2.687938 -2.348580
C 106.523031 3.635365 -3.502656
C 106.792559 3.163932 -4.808343
C 107.074703 1.706398 -5.067262
C 106.795764 4.067175 -5.884310
C 106.525705 5.426010 -5.688750
C 106.565738 6.380761 -6.843080
C 106.273247 5.889664 -4.393347
C 106.264549 5.011205 -3.296793
C 105.978120 5.551217 -1.919826
C 105.396779 2.083531 -1.898879
C 104.105063 2.326303 -2.506736
C 103.196750 1.602249 -1.862899
C 103.863435 0.861018 -0.810799
N 105.191731 1.187688 -0.885618
H 102.435393 -1.151167 2.663477
H 104.416572 -2.499015 3.930098
H 105.992024 -0.745359 0.442774
H 105.597055 -4.601698 1.005689
H 107.344040 -4.829861 0.693519
H 106.299270 -6.214846 1.002592
H 106.601104 -7.165845 3.098435
H 106.786184 -7.167800 6.784854
H 106.456535 -8.141322 5.353110
H 108.138770 -7.749273 5.784398
H 107.548675 -4.806137 6.560811
H 106.802654 -1.655795 5.190576
H 107.676599 -2.486424 6.472203
H 108.555385 -1.979307 5.027133
H 109.643730 -3.562926 2.706557
H 111.404413 -2.214346 1.417468
H 111.112208 2.754283 -0.918743
H 109.132577 4.121539 -2.164878
H 107.563492 0.492014 -0.719516
H 107.246613 1.519264 -6.131925
H 106.223140 1.089347 -4.765793
H 107.974007 1.385748 -4.533644
H 107.009091 3.699609 -6.885159
H 106.237156 5.891477 -7.766136
H 107.584011 6.755331 -6.982533
H 105.897262 7.231065 -6.671888
H 106.078953 6.946701 -4.229098
H 106.816210 5.355451 -1.242802
H 105.831098 6.637710 -1.942956
H 105.062348 5.110535 -1.514711
H 103.908881 2.978911 -3.338796
H 102.148590 1.585082 -2.098539
