 xtb: 6.5.1 (b24c23e)
          07282219203D

388422  0     0  0            999 V2000
   63.1544   -0.1627   -0.0347 C   0  0  0  0  0  0  0  0  0  0  0  0
   63.7793   -1.4025   -0.0771 C   0  0  0  0  0  0  0  0  0  0  0  0
   63.1536   -2.6801   -0.1356 C   0  0  0  0  0  0  0  0  0  0  0  0
   64.1363   -3.6294   -0.1616 C   0  0  0  0  0  0  0  0  0  0  0  0
   65.3938   -2.9619   -0.1184 C   0  0  0  0  0  0  0  0  0  0  0  0
   65.1277   -1.6228   -0.0689 N   0  0  0  0  0  0  0  0  0  0  0  0
   66.6618   -3.5473   -0.1199 C   0  0  0  0  0  0  0  0  0  0  0  0
   66.7043   -5.0380   -0.1852 C   0  0  0  0  0  0  0  0  0  0  0  0
   66.7423   -5.6785   -1.4271 C   0  0  0  0  0  0  0  0  0  0  0  0
   66.7442   -4.8643   -2.6935 C   0  0  0  0  0  0  0  0  0  0  0  0
   66.7807   -7.0670   -1.4794 C   0  0  0  0  0  0  0  0  0  0  0  0
   66.7831   -7.8262   -0.3140 C   0  0  0  0  0  0  0  0  0  0  0  0
   66.8051   -9.3294   -0.3829 C   0  0  0  0  0  0  0  0  0  0  0  0
   66.7452   -7.1783    0.9165 C   0  0  0  0  0  0  0  0  0  0  0  0
   66.7063   -5.7910    0.9924 C   0  0  0  0  0  0  0  0  0  0  0  0
   66.6707   -5.0974    2.3282 C   0  0  0  0  0  0  0  0  0  0  0  0
   67.8736   -2.8597   -0.0720 C   0  0  0  0  0  0  0  0  0  0  0  0
   69.1676   -3.5181   -0.0669 C   0  0  0  0  0  0  0  0  0  0  0  0
   70.0941   -2.5381   -0.0237 C   0  0  0  0  0  0  0  0  0  0  0  0
   68.0348   -1.5084   -0.0306 N   0  0  0  0  0  0  0  0  0  0  0  0
   69.3640   -1.2847   -0.0049 C   0  0  0  0  0  0  0  0  0  0  0  0
   69.9999   -0.0269    0.0168 C   0  0  0  0  0  0  0  0  0  0  0  0
   69.3506    1.2212    0.0315 C   0  0  0  0  0  0  0  0  0  0  0  0
   69.9709    2.4989    0.0638 C   0  0  0  0  0  0  0  0  0  0  0  0
   68.9843    3.4456    0.0916 C   0  0  0  0  0  0  0  0  0  0  0  0
   67.7307    2.7729    0.0754 C   0  0  0  0  0  0  0  0  0  0  0  0
   68.0041    1.4311    0.0369 N   0  0  0  0  0  0  0  0  0  0  0  0
   66.4636    3.3581    0.0990 C   0  0  0  0  0  0  0  0  0  0  0  0
   66.4189    4.8488    0.1560 C   0  0  0  0  0  0  0  0  0  0  0  0
   66.4200    5.5947   -1.0261 C   0  0  0  0  0  0  0  0  0  0  0  0
   66.4675    4.8937   -2.3577 C   0  0  0  0  0  0  0  0  0  0  0  0
   66.3777    6.9824   -0.9587 C   0  0  0  0  0  0  0  0  0  0  0  0
   66.3352    7.6377    0.2676 C   0  0  0  0  0  0  0  0  0  0  0  0
   66.2687    9.1399    0.3272 C   0  0  0  0  0  0  0  0  0  0  0  0
   66.3333    6.8854    1.4376 C   0  0  0  0  0  0  0  0  0  0  0  0
   66.3751    5.4967    1.3939 C   0  0  0  0  0  0  0  0  0  0  0  0
   66.3746    4.6903    2.6652 C   0  0  0  0  0  0  0  0  0  0  0  0
   65.2507    2.6672    0.0771 C   0  0  0  0  0  0  0  0  0  0  0  0
   63.9503    3.3185    0.0984 C   0  0  0  0  0  0  0  0  0  0  0  0
   63.0298    2.3339    0.0601 C   0  0  0  0  0  0  0  0  0  0  0  0
   63.7675    1.0830    0.0162 C   0  0  0  0  0  0  0  0  0  0  0  0
   65.1015    1.3219    0.0286 N   0  0  0  0  0  0  0  0  0  0  0  0
   62.0694   -0.1782   -0.0437 H   0  0  0  0  0  0  0  0  0  0  0  0
   62.0869   -2.8377   -0.1553 H   0  0  0  0  0  0  0  0  0  0  0  0
   64.0139   -4.6998   -0.2058 H   0  0  0  0  0  0  0  0  0  0  0  0
   65.8341   -0.8958   -0.0322 H   0  0  0  0  0  0  0  0  0  0  0  0
   65.8347   -4.2639   -2.7596 H   0  0  0  0  0  0  0  0  0  0  0  0
   66.8014   -5.5085   -3.5704 H   0  0  0  0  0  0  0  0  0  0  0  0
   67.5959   -4.1817   -2.7039 H   0  0  0  0  0  0  0  0  0  0  0  0
   66.8116   -7.5635   -2.4438 H   0  0  0  0  0  0  0  0  0  0  0  0
   65.7834   -9.7164   -0.3825 H   0  0  0  0  0  0  0  0  0  0  0  0
   67.2963   -9.6697   -1.2947 H   0  0  0  0  0  0  0  0  0  0  0  0
   67.3266   -9.7499    0.4774 H   0  0  0  0  0  0  0  0  0  0  0  0
   66.7482   -7.7626    1.8309 H   0  0  0  0  0  0  0  0  0  0  0  0
   65.7702   -4.4864    2.4147 H   0  0  0  0  0  0  0  0  0  0  0  0
   66.6816   -5.8209    3.1428 H   0  0  0  0  0  0  0  0  0  0  0  0
   67.5334   -4.4370    2.4347 H   0  0  0  0  0  0  0  0  0  0  0  0
   69.3172   -4.5856   -0.0932 H   0  0  0  0  0  0  0  0  0  0  0  0
   71.1687   -2.6269   -0.0073 H   0  0  0  0  0  0  0  0  0  0  0  0
   71.0368    2.6611    0.0675 H   0  0  0  0  0  0  0  0  0  0  0  0
   69.1040    4.5166    0.1220 H   0  0  0  0  0  0  0  0  0  0  0  0
   67.3003    0.7005    0.0196 H   0  0  0  0  0  0  0  0  0  0  0  0
   66.4129    5.6102   -3.1767 H   0  0  0  0  0  0  0  0  0  0  0  0
   67.3942    4.3244   -2.4530 H   0  0  0  0  0  0  0  0  0  0  0  0
   65.6350    4.1935   -2.4477 H   0  0  0  0  0  0  0  0  0  0  0  0
   66.3789    7.5611   -1.8767 H   0  0  0  0  0  0  0  0  0  0  0  0
   66.7271    9.5133    1.2432 H   0  0  0  0  0  0  0  0  0  0  0  0
   65.2261    9.4664    0.3118 H   0  0  0  0  0  0  0  0  0  0  0  0
   66.7758    9.5857   -0.5288 H   0  0  0  0  0  0  0  0  0  0  0  0
   66.3000    7.3878    2.3988 H   0  0  0  0  0  0  0  0  0  0  0  0
   66.3240    5.3401    3.5383 H   0  0  0  0  0  0  0  0  0  0  0  0
   65.5195    4.0120    2.6834 H   0  0  0  0  0  0  0  0  0  0  0  0
   67.2813    4.0858    2.7310 H   0  0  0  0  0  0  0  0  0  0  0  0
   63.7958    4.3852    0.1359 H   0  0  0  0  0  0  0  0  0  0  0  0
   61.9539    2.4137    0.0605 H   0  0  0  0  0  0  0  0  0  0  0  0
  123.9910    0.1169   -0.0599 C   0  0  0  0  0  0  0  0  0  0  0  0
  123.3690    1.3512   -0.1984 C   0  0  0  0  0  0  0  0  0  0  0  0
  123.9979    2.6211   -0.3354 C   0  0  0  0  0  0  0  0  0  0  0  0
  123.0175    3.5666   -0.4475 C   0  0  0  0  0  0  0  0  0  0  0  0
  121.7583    2.9041   -0.3834 C   0  0  0  0  0  0  0  0  0  0  0  0
  122.0210    1.5720   -0.2318 N   0  0  0  0  0  0  0  0  0  0  0  0
  120.4915    3.4872   -0.4632 C   0  0  0  0  0  0  0  0  0  0  0  0
  120.4538    4.9700   -0.6314 C   0  0  0  0  0  0  0  0  0  0  0  0
  120.4754    5.5287   -1.9125 C   0  0  0  0  0  0  0  0  0  0  0  0
  120.5318    4.6341   -3.1221 C   0  0  0  0  0  0  0  0  0  0  0  0
  120.4418    6.9109   -2.0562 C   0  0  0  0  0  0  0  0  0  0  0  0
  120.3861    7.7440   -0.9437 C   0  0  0  0  0  0  0  0  0  0  0  0
  120.3705    9.2396   -1.1105 C   0  0  0  0  0  0  0  0  0  0  0  0
  120.3651    7.1771    0.3265 C   0  0  0  0  0  0  0  0  0  0  0  0
  120.3978    5.7977    0.4937 C   0  0  0  0  0  0  0  0  0  0  0  0
  120.3698    5.1926    1.8719 C   0  0  0  0  0  0  0  0  0  0  0  0
  119.2779    2.8046   -0.3976 C   0  0  0  0  0  0  0  0  0  0  0  0
  117.9853    3.4586   -0.4942 C   0  0  0  0  0  0  0  0  0  0  0  0
  117.0563    2.4862   -0.3829 C   0  0  0  0  0  0  0  0  0  0  0  0
  119.1132    1.4629   -0.2333 N   0  0  0  0  0  0  0  0  0  0  0  0
  117.7837    1.2421   -0.2176 C   0  0  0  0  0  0  0  0  0  0  0  0
  117.1447   -0.0034   -0.0493 C   0  0  0  0  0  0  0  0  0  0  0  0
  117.7919   -1.2418    0.1185 C   0  0  0  0  0  0  0  0  0  0  0  0
  117.1688   -2.5076    0.2842 C   0  0  0  0  0  0  0  0  0  0  0  0
  118.1531   -3.4512    0.3902 C   0  0  0  0  0  0  0  0  0  0  0  0
  119.4080   -2.7880    0.2931 C   0  0  0  0  0  0  0  0  0  0  0  0
  119.1378   -1.4546    0.1329 N   0  0  0  0  0  0  0  0  0  0  0  0
  120.6735   -3.3749    0.3456 C   0  0  0  0  0  0  0  0  0  0  0  0
  120.7128   -4.8577    0.5099 C   0  0  0  0  0  0  0  0  0  0  0  0
  120.6947   -5.6842   -0.6173 C   0  0  0  0  0  0  0  0  0  0  0  0
  120.6366   -5.0776   -1.9940 C   0  0  0  0  0  0  0  0  0  0  0  0
  120.7291   -7.0640   -0.4538 C   0  0  0  0  0  0  0  0  0  0  0  0
  120.7800   -7.6325    0.8148 C   0  0  0  0  0  0  0  0  0  0  0  0
  120.8364   -9.1275    0.9779 C   0  0  0  0  0  0  0  0  0  0  0  0
  120.7993   -6.8005    1.9294 C   0  0  0  0  0  0  0  0  0  0  0  0
  120.7658   -5.4180    1.7894 C   0  0  0  0  0  0  0  0  0  0  0  0
  120.7842   -4.5246    3.0010 C   0  0  0  0  0  0  0  0  0  0  0  0
  121.8881   -2.6925    0.2567 C   0  0  0  0  0  0  0  0  0  0  0  0
  123.1868   -3.3442    0.3209 C   0  0  0  0  0  0  0  0  0  0  0  0
  124.1098   -2.3673    0.2103 C   0  0  0  0  0  0  0  0  0  0  0  0
  123.3750   -1.1210    0.0764 C   0  0  0  0  0  0  0  0  0  0  0  0
  122.0404   -1.3550    0.1074 N   0  0  0  0  0  0  0  0  0  0  0  0
  125.0760    0.1303   -0.0594 H   0  0  0  0  0  0  0  0  0  0  0  0
  125.0650    2.7766   -0.3452 H   0  0  0  0  0  0  0  0  0  0  0  0
  123.1427    4.6311   -0.5644 H   0  0  0  0  0  0  0  0  0  0  0  0
  121.3127    0.8499   -0.1557 H   0  0  0  0  0  0  0  0  0  0  0  0
  121.4500    4.0435   -3.1140 H   0  0  0  0  0  0  0  0  0  0  0  0
  120.5020    5.2193   -4.0408 H   0  0  0  0  0  0  0  0  0  0  0  0
  119.6890    3.9406   -3.1204 H   0  0  0  0  0  0  0  0  0  0  0  0
  120.4570    7.3440   -3.0510 H   0  0  0  0  0  0  0  0  0  0  0  0
  121.3927    9.6253   -1.1000 H   0  0  0  0  0  0  0  0  0  0  0  0
  119.9119    9.5203   -2.0589 H   0  0  0  0  0  0  0  0  0  0  0  0
  119.8209    9.7152   -0.2978 H   0  0  0  0  0  0  0  0  0  0  0  0
  120.3206    7.8193    1.2001 H   0  0  0  0  0  0  0  0  0  0  0  0
  121.2565    4.5769    2.0345 H   0  0  0  0  0  0  0  0  0  0  0  0
  120.3376    5.9679    2.6368 H   0  0  0  0  0  0  0  0  0  0  0  0
  119.4934    4.5519    1.9860 H   0  0  0  0  0  0  0  0  0  0  0  0
  117.8383    4.5182   -0.6296 H   0  0  0  0  0  0  0  0  0  0  0  0
  115.9818    2.5746   -0.4057 H   0  0  0  0  0  0  0  0  0  0  0  0
  116.1026   -2.6649    0.3154 H   0  0  0  0  0  0  0  0  0  0  0  0
  118.0309   -4.5139    0.5241 H   0  0  0  0  0  0  0  0  0  0  0  0
  119.8431   -0.7321    0.0343 H   0  0  0  0  0  0  0  0  0  0  0  0
  120.6795   -5.8498   -2.7616 H   0  0  0  0  0  0  0  0  0  0  0  0
  119.7113   -4.5118   -2.1196 H   0  0  0  0  0  0  0  0  0  0  0  0
  121.4710   -4.3896   -2.1412 H   0  0  0  0  0  0  0  0  0  0  0  0
  120.7144   -7.7053   -1.3291 H   0  0  0  0  0  0  0  0  0  0  0  0
  120.3876   -9.4326    1.9235 H   0  0  0  0  0  0  0  0  0  0  0  0
  121.8761   -9.4630    0.9714 H   0  0  0  0  0  0  0  0  0  0  0  0
  120.3143   -9.6272    0.1615 H   0  0  0  0  0  0  0  0  0  0  0  0
  120.8393   -7.2350    2.9230 H   0  0  0  0  0  0  0  0  0  0  0  0
  120.8444   -5.1118    3.9168 H   0  0  0  0  0  0  0  0  0  0  0  0
  121.6408   -3.8492    2.9609 H   0  0  0  0  0  0  0  0  0  0  0  0
  119.8796   -3.9143    3.0356 H   0  0  0  0  0  0  0  0  0  0  0  0
  123.3387   -4.4057    0.4357 H   0  0  0  0  0  0  0  0  0  0  0  0
  125.1854   -2.4496    0.2145 H   0  0  0  0  0  0  0  0  0  0  0  0
   72.6283    0.0078    0.0208 C   0  0  0  0  0  0  0  0  0  0  0  0
   71.4065   -0.0050    0.0215 C   0  0  0  0  0  0  0  0  0  0  0  0
   73.9785    0.0118    0.0185 C   0  0  0  0  0  0  0  0  0  0  0  0
   75.2005    0.0105    0.0117 C   0  0  0  0  0  0  0  0  0  0  0  0
   86.1424   -0.0254   -0.0259 C   0  0  0  0  0  0  0  0  0  0  0  0
   84.9195   -0.0280   -0.0216 C   0  0  0  0  0  0  0  0  0  0  0  0
   87.4903   -0.0281   -0.0278 C   0  0  0  0  0  0  0  0  0  0  0  0
   88.7133   -0.0271   -0.0334 C   0  0  0  0  0  0  0  0  0  0  0  0
   99.6564   -0.0508   -0.0478 C   0  0  0  0  0  0  0  0  0  0  0  0
   98.4333   -0.0511   -0.0435 C   0  0  0  0  0  0  0  0  0  0  0  0
  101.0043   -0.0561   -0.0504 C   0  0  0  0  0  0  0  0  0  0  0  0
  102.2272   -0.0585   -0.0577 C   0  0  0  0  0  0  0  0  0  0  0  0
  113.1676   -0.0648   -0.0513 C   0  0  0  0  0  0  0  0  0  0  0  0
  111.9454   -0.0789   -0.0538 C   0  0  0  0  0  0  0  0  0  0  0  0
  114.5171   -0.0483   -0.0471 C   0  0  0  0  0  0  0  0  0  0  0  0
  115.7390   -0.0249   -0.0473 C   0  0  0  0  0  0  0  0  0  0  0  0
   76.6063    0.0015    0.0049 C   0  0  0  0  0  0  0  0  0  0  0  0
   77.2349   -0.9588    0.8199 C   0  0  0  0  0  0  0  0  0  0  0  0
   76.5969   -1.9144    1.6533 C   0  0  0  0  0  0  0  0  0  0  0  0
   77.5713   -2.6408    2.2822 C   0  0  0  0  0  0  0  0  0  0  0  0
   78.8327   -2.1482    1.8494 C   0  0  0  0  0  0  0  0  0  0  0  0
   78.5786   -1.1342    0.9652 N   0  0  0  0  0  0  0  0  0  0  0  0
   80.0918   -2.6024    2.2521 C   0  0  0  0  0  0  0  0  0  0  0  0
   80.1019   -3.7215    3.2402 C   0  0  0  0  0  0  0  0  0  0  0  0
   80.0930   -5.0466    2.7947 C   0  0  0  0  0  0  0  0  0  0  0  0
   80.0725   -5.3437    1.3190 C   0  0  0  0  0  0  0  0  0  0  0  0
   80.1019   -6.0797    3.7241 C   0  0  0  0  0  0  0  0  0  0  0  0
   80.1184   -5.8132    5.0897 C   0  0  0  0  0  0  0  0  0  0  0  0
   80.1478   -6.9434    6.0828 C   0  0  0  0  0  0  0  0  0  0  0  0
   80.1277   -4.4913    5.5214 C   0  0  0  0  0  0  0  0  0  0  0  0
   80.1191   -3.4419    4.6095 C   0  0  0  0  0  0  0  0  0  0  0  0
   80.1282   -2.0137    5.0856 C   0  0  0  0  0  0  0  0  0  0  0  0
   81.3197   -2.1059    1.8210 C   0  0  0  0  0  0  0  0  0  0  0  0
   82.5965   -2.6198    2.2829 C   0  0  0  0  0  0  0  0  0  0  0  0
   83.5483   -1.9010    1.6515 C   0  0  0  0  0  0  0  0  0  0  0  0
   81.5162   -1.0961    0.9280 N   0  0  0  0  0  0  0  0  0  0  0  0
   82.8503   -0.9526    0.8056 C   0  0  0  0  0  0  0  0  0  0  0  0
   83.5163   -0.0260   -0.0233 C   0  0  0  0  0  0  0  0  0  0  0  0
   82.8865    0.9104   -0.8664 C   0  0  0  0  0  0  0  0  0  0  0  0
   83.5241    1.8467   -1.7212 C   0  0  0  0  0  0  0  0  0  0  0  0
   82.5493    2.5596   -2.3650 C   0  0  0  0  0  0  0  0  0  0  0  0
   81.2882    2.0792   -1.9182 C   0  0  0  0  0  0  0  0  0  0  0  0
   81.5432    1.0832   -1.0135 N   0  0  0  0  0  0  0  0  0  0  0  0
   80.0292    2.5367   -2.3162 C   0  0  0  0  0  0  0  0  0  0  0  0
   80.0187    3.6324   -3.3302 C   0  0  0  0  0  0  0  0  0  0  0  0
   80.0143    3.3185   -4.6922 C   0  0  0  0  0  0  0  0  0  0  0  0
   80.0182    1.8789   -5.1328 C   0  0  0  0  0  0  0  0  0  0  0  0
   80.0048    4.3446   -5.6301 C   0  0  0  0  0  0  0  0  0  0  0  0
   79.9985    5.6770   -5.2315 C   0  0  0  0  0  0  0  0  0  0  0  0
   80.0076    6.7809   -6.2542 C   0  0  0  0  0  0  0  0  0  0  0  0
   80.0032    5.9777   -3.8731 C   0  0  0  0  0  0  0  0  0  0  0  0
   80.0128    4.9681   -2.9180 C   0  0  0  0  0  0  0  0  0  0  0  0
   80.0132    5.3018   -1.4500 C   0  0  0  0  0  0  0  0  0  0  0  0
   78.8014    2.0640   -1.8578 C   0  0  0  0  0  0  0  0  0  0  0  0
   77.5246    2.5945   -2.3011 C   0  0  0  0  0  0  0  0  0  0  0  0
   76.5731    1.8946   -1.6485 C   0  0  0  0  0  0  0  0  0  0  0  0
   77.2710    0.9368   -0.8130 C   0  0  0  0  0  0  0  0  0  0  0  0
   78.6057    1.0631   -0.9557 N   0  0  0  0  0  0  0  0  0  0  0  0
   75.5290   -2.0233    1.7534 H   0  0  0  0  0  0  0  0  0  0  0  0
   77.4367   -3.4465    2.9856 H   0  0  0  0  0  0  0  0  0  0  0  0
   79.2896   -0.5889    0.4895 H   0  0  0  0  0  0  0  0  0  0  0  0
   79.1596   -4.9508    0.8666 H   0  0  0  0  0  0  0  0  0  0  0  0
   80.9215   -4.8684    0.8243 H   0  0  0  0  0  0  0  0  0  0  0  0
   80.1171   -6.4173    1.1377 H   0  0  0  0  0  0  0  0  0  0  0  0
   80.0946   -7.1083    3.3785 H   0  0  0  0  0  0  0  0  0  0  0  0
   79.7724   -6.6192    7.0536 H   0  0  0  0  0  0  0  0  0  0  0  0
   79.5446   -7.7819    5.7331 H   0  0  0  0  0  0  0  0  0  0  0  0
   81.1733   -7.2964    6.2141 H   0  0  0  0  0  0  0  0  0  0  0  0
   80.1406   -4.2734    6.5843 H   0  0  0  0  0  0  0  0  0  0  0  0
   79.2398   -1.4892    4.7285 H   0  0  0  0  0  0  0  0  0  0  0  0
   80.1478   -1.9663    6.1739 H   0  0  0  0  0  0  0  0  0  0  0  0
   81.0036   -1.4903    4.6964 H   0  0  0  0  0  0  0  0  0  0  0  0
   82.7187   -3.4219    2.9930 H   0  0  0  0  0  0  0  0  0  0  0  0
   84.6205   -1.9845    1.7310 H   0  0  0  0  0  0  0  0  0  0  0  0
   84.5920    1.9532   -1.8245 H   0  0  0  0  0  0  0  0  0  0  0  0
   82.6837    3.3506   -3.0850 H   0  0  0  0  0  0  0  0  0  0  0  0
   80.8324    0.5490   -0.5250 H   0  0  0  0  0  0  0  0  0  0  0  0
   79.9716    1.8041   -6.2188 H   0  0  0  0  0  0  0  0  0  0  0  0
   79.1634    1.3497   -4.7076 H   0  0  0  0  0  0  0  0  0  0  0  0
   80.9254    1.3795   -4.7870 H   0  0  0  0  0  0  0  0  0  0  0  0
   79.9998    4.1001   -6.6873 H   0  0  0  0  0  0  0  0  0  0  0  0
   79.5844    6.4398   -7.1992 H   0  0  0  0  0  0  0  0  0  0  0  0
   81.0335    7.1081   -6.4389 H   0  0  0  0  0  0  0  0  0  0  0  0
   79.4371    7.6406   -5.9016 H   0  0  0  0  0  0  0  0  0  0  0  0
   79.9974    7.0146   -3.5532 H   0  0  0  0  0  0  0  0  0  0  0  0
   80.8947    4.8785   -0.9648 H   0  0  0  0  0  0  0  0  0  0  0  0
   80.0135    6.3804   -1.2960 H   0  0  0  0  0  0  0  0  0  0  0  0
   79.1307    4.8794   -0.9658 H   0  0  0  0  0  0  0  0  0  0  0  0
   77.4023    3.3935   -3.0146 H   0  0  0  0  0  0  0  0  0  0  0  0
   75.5011    1.9938   -1.7100 H   0  0  0  0  0  0  0  0  0  0  0  0
   90.1164   -0.0328   -0.0352 C   0  0  0  0  0  0  0  0  0  0  0  0
   90.7462   -0.9605    0.8178 C   0  0  0  0  0  0  0  0  0  0  0  0
   90.1085   -1.8902    1.6794 C   0  0  0  0  0  0  0  0  0  0  0  0
   91.0834   -2.6027    2.3238 C   0  0  0  0  0  0  0  0  0  0  0  0
   92.3443   -2.1264    1.8726 C   0  0  0  0  0  0  0  0  0  0  0  0
   92.0895   -1.1337    0.9644 N   0  0  0  0  0  0  0  0  0  0  0  0
   93.6036   -2.5804    2.2753 C   0  0  0  0  0  0  0  0  0  0  0  0
   93.6121   -3.6856    3.2789 C   0  0  0  0  0  0  0  0  0  0  0  0
   93.5798   -5.0161    2.8507 C   0  0  0  0  0  0  0  0  0  0  0  0
   93.5398   -5.3318    1.3792 C   0  0  0  0  0  0  0  0  0  0  0  0
   93.5837   -6.0372    3.7932 C   0  0  0  0  0  0  0  0  0  0  0  0
   93.6182   -5.7533    5.1550 C   0  0  0  0  0  0  0  0  0  0  0  0
   93.6399   -6.8713    6.1620 C   0  0  0  0  0  0  0  0  0  0  0  0
   93.6520   -4.4263    5.5693 C   0  0  0  0  0  0  0  0  0  0  0  0
   93.6489   -3.3886    4.6440 C   0  0  0  0  0  0  0  0  0  0  0  0
   93.6849   -1.9546    5.1010 C   0  0  0  0  0  0  0  0  0  0  0  0
   94.8318   -2.0993    1.8285 C   0  0  0  0  0  0  0  0  0  0  0  0
   96.1080   -2.6153    2.2894 C   0  0  0  0  0  0  0  0  0  0  0  0
   97.0606   -1.9091    1.6450 C   0  0  0  0  0  0  0  0  0  0  0  0
   95.0293   -1.1018    0.9218 N   0  0  0  0  0  0  0  0  0  0  0  0
   96.3635   -0.9658    0.7928 C   0  0  0  0  0  0  0  0  0  0  0  0
   97.0303   -0.0469   -0.0442 C   0  0  0  0  0  0  0  0  0  0  0  0
   96.4006    0.8835   -0.8942 C   0  0  0  0  0  0  0  0  0  0  0  0
   97.0382    1.8188   -1.7498 C   0  0  0  0  0  0  0  0  0  0  0  0
   96.0632    2.5243   -2.4019 C   0  0  0  0  0  0  0  0  0  0  0  0
   94.8024    2.0380   -1.9613 C   0  0  0  0  0  0  0  0  0  0  0  0
   95.0572    1.0484   -1.0498 N   0  0  0  0  0  0  0  0  0  0  0  0
   93.5431    2.4810   -2.3760 C   0  0  0  0  0  0  0  0  0  0  0  0
   93.5341    3.5735   -3.3934 C   0  0  0  0  0  0  0  0  0  0  0  0
   93.5635    3.2580   -4.7546 C   0  0  0  0  0  0  0  0  0  0  0  0
   93.6025    1.8181   -5.1925 C   0  0  0  0  0  0  0  0  0  0  0  0
   93.5551    4.2827   -5.6940 C   0  0  0  0  0  0  0  0  0  0  0  0
   93.5172    5.6152   -5.2975 C   0  0  0  0  0  0  0  0  0  0  0  0
   93.5280    6.7181   -6.3213 C   0  0  0  0  0  0  0  0  0  0  0  0
   93.4887    5.9175   -3.9397 C   0  0  0  0  0  0  0  0  0  0  0  0
   93.4962    4.9094   -2.9832 C   0  0  0  0  0  0  0  0  0  0  0  0
   93.4607    5.2446   -1.5160 C   0  0  0  0  0  0  0  0  0  0  0  0
   92.3148    1.9990   -1.9302 C   0  0  0  0  0  0  0  0  0  0  0  0
   91.0385    2.5052   -2.4018 C   0  0  0  0  0  0  0  0  0  0  0  0
   90.0859    1.8070   -1.7487 C   0  0  0  0  0  0  0  0  0  0  0  0
   90.7830    0.8767   -0.8824 C   0  0  0  0  0  0  0  0  0  0  0  0
   92.1173    1.0127   -1.0113 N   0  0  0  0  0  0  0  0  0  0  0  0
   89.0407   -1.9936    1.7860 H   0  0  0  0  0  0  0  0  0  0  0  0
   90.9490   -3.3889    3.0490 H   0  0  0  0  0  0  0  0  0  0  0  0
   92.8002   -0.6045    0.4704 H   0  0  0  0  0  0  0  0  0  0  0  0
   92.6250   -4.9373    0.9322 H   0  0  0  0  0  0  0  0  0  0  0  0
   94.3868   -4.8698    0.8687 H   0  0  0  0  0  0  0  0  0  0  0  0
   93.5736   -6.4078    1.2110 H   0  0  0  0  0  0  0  0  0  0  0  0
   93.5580   -7.0699    3.4611 H   0  0  0  0  0  0  0  0  0  0  0  0
   93.2857   -6.5275    7.1340 H   0  0  0  0  0  0  0  0  0  0  0  0
   93.0146   -7.7015    5.8318 H   0  0  0  0  0  0  0  0  0  0  0  0
   94.6599   -7.2436    6.2825 H   0  0  0  0  0  0  0  0  0  0  0  0
   93.6795   -4.1949    6.6291 H   0  0  0  0  0  0  0  0  0  0  0  0
   92.8062   -1.4183    4.7377 H   0  0  0  0  0  0  0  0  0  0  0  0
   93.7068   -1.8931    6.1886 H   0  0  0  0  0  0  0  0  0  0  0  0
   94.5695   -1.4531    4.7042 H   0  0  0  0  0  0  0  0  0  0  0  0
   96.2294   -3.4101    3.0078 H   0  0  0  0  0  0  0  0  0  0  0  0
   98.1327   -1.9976    1.7201 H   0  0  0  0  0  0  0  0  0  0  0  0
   98.1061    1.9305   -1.8475 H   0  0  0  0  0  0  0  0  0  0  0  0
   96.1976    3.3132   -3.1241 H   0  0  0  0  0  0  0  0  0  0  0  0
   94.3466    0.5136   -0.5619 H   0  0  0  0  0  0  0  0  0  0  0  0
   93.5650    1.7406   -6.2787 H   0  0  0  0  0  0  0  0  0  0  0  0
   92.7572    1.2704   -4.7720 H   0  0  0  0  0  0  0  0  0  0  0  0
   94.5187    1.3400   -4.8399 H   0  0  0  0  0  0  0  0  0  0  0  0
   93.5763    4.0371   -6.7507 H   0  0  0  0  0  0  0  0  0  0  0  0
   93.1264    6.3699   -7.2731 H   0  0  0  0  0  0  0  0  0  0  0  0
   94.5520    7.0602   -6.4884 H   0  0  0  0  0  0  0  0  0  0  0  0
   92.9388    7.5697   -5.9798 H   0  0  0  0  0  0  0  0  0  0  0  0
   93.4581    6.9545   -3.6215 H   0  0  0  0  0  0  0  0  0  0  0  0
   94.3356    4.8310   -1.0108 H   0  0  0  0  0  0  0  0  0  0  0  0
   93.4463    6.3234   -1.3634 H   0  0  0  0  0  0  0  0  0  0  0  0
   92.5722    4.8136   -1.0509 H   0  0  0  0  0  0  0  0  0  0  0  0
   90.9171    3.2876   -3.1337 H   0  0  0  0  0  0  0  0  0  0  0  0
   89.0138    1.8924   -1.8273 H   0  0  0  0  0  0  0  0  0  0  0  0
  103.6303   -0.0685   -0.0627 C   0  0  0  0  0  0  0  0  0  0  0  0
  104.2588   -1.0073    0.7788 C   0  0  0  0  0  0  0  0  0  0  0  0
  103.6195   -1.9417    1.6344 C   0  0  0  0  0  0  0  0  0  0  0  0
  104.5929   -2.6680    2.2653 C   0  0  0  0  0  0  0  0  0  0  0  0
  105.8547   -2.1962    1.8115 C   0  0  0  0  0  0  0  0  0  0  0  0
  105.6017   -1.1912    0.9162 N   0  0  0  0  0  0  0  0  0  0  0  0
  107.1128   -2.6665    2.1980 C   0  0  0  0  0  0  0  0  0  0  0  0
  107.1198   -3.7825    3.1897 C   0  0  0  0  0  0  0  0  0  0  0  0
  107.0536   -5.1081    2.7507 C   0  0  0  0  0  0  0  0  0  0  0  0
  106.9809   -5.4099    1.2775 C   0  0  0  0  0  0  0  0  0  0  0  0
  107.0547   -6.1377    3.6841 C   0  0  0  0  0  0  0  0  0  0  0  0
  107.1194   -5.8671    5.0473 C   0  0  0  0  0  0  0  0  0  0  0  0
  107.1370   -6.9937    6.0449 C   0  0  0  0  0  0  0  0  0  0  0  0
  107.1876   -4.5448    5.4725 C   0  0  0  0  0  0  0  0  0  0  0  0
  107.1882   -3.4990    4.5566 C   0  0  0  0  0  0  0  0  0  0  0  0
  107.2615   -2.0704    5.0260 C   0  0  0  0  0  0  0  0  0  0  0  0
  108.3416   -2.1877    1.7490 C   0  0  0  0  0  0  0  0  0  0  0  0
  109.6175   -2.7240    2.1875 C   0  0  0  0  0  0  0  0  0  0  0  0
  110.5705   -2.0058    1.5574 C   0  0  0  0  0  0  0  0  0  0  0  0
  108.5393   -1.1690    0.8671 N   0  0  0  0  0  0  0  0  0  0  0  0
  109.8743   -1.0347    0.7361 C   0  0  0  0  0  0  0  0  0  0  0  0
  110.5404   -0.0843   -0.0636 C   0  0  0  0  0  0  0  0  0  0  0  0
  109.9124    0.8731   -0.8832 C   0  0  0  0  0  0  0  0  0  0  0  0
  110.5519    1.8325   -1.7109 C   0  0  0  0  0  0  0  0  0  0  0  0
  109.5787    2.5447   -2.3578 C   0  0  0  0  0  0  0  0  0  0  0  0
  108.3168    2.0407   -1.9403 C   0  0  0  0  0  0  0  0  0  0  0  0
  108.5692    1.0342   -1.0470 N   0  0  0  0  0  0  0  0  0  0  0  0
  107.0588    2.4814   -2.3610 C   0  0  0  0  0  0  0  0  0  0  0  0
  107.0523    3.5848   -3.3667 C   0  0  0  0  0  0  0  0  0  0  0  0
  107.0776    3.2822   -4.7310 C   0  0  0  0  0  0  0  0  0  0  0  0
  107.1104    1.8464   -5.1828 C   0  0  0  0  0  0  0  0  0  0  0  0
  107.0718    4.3158   -5.6606 C   0  0  0  0  0  0  0  0  0  0  0  0
  107.0405    5.6446   -5.2515 C   0  0  0  0  0  0  0  0  0  0  0  0
  107.0541    6.7570   -6.2650 C   0  0  0  0  0  0  0  0  0  0  0  0
  107.0164    5.9341   -3.8908 C   0  0  0  0  0  0  0  0  0  0  0  0
  107.0214    4.9169   -2.9439 C   0  0  0  0  0  0  0  0  0  0  0  0
  106.9919    5.2384   -1.4734 C   0  0  0  0  0  0  0  0  0  0  0  0
  105.8300    1.9868   -1.9307 C   0  0  0  0  0  0  0  0  0  0  0  0
  104.5541    2.4947   -2.4015 C   0  0  0  0  0  0  0  0  0  0  0  0
  103.6010    1.7879   -1.7585 C   0  0  0  0  0  0  0  0  0  0  0  0
  104.2975    0.8490   -0.9007 C   0  0  0  0  0  0  0  0  0  0  0  0
  105.6318    0.9892   -1.0243 N   0  0  0  0  0  0  0  0  0  0  0  0
  102.5516   -2.0387    1.7461 H   0  0  0  0  0  0  0  0  0  0  0  0
  104.4569   -3.4607    2.9832 H   0  0  0  0  0  0  0  0  0  0  0  0
  106.3134   -0.6606    0.4251 H   0  0  0  0  0  0  0  0  0  0  0  0
  106.0618   -5.0015    0.8524 H   0  0  0  0  0  0  0  0  0  0  0  0
  107.8225   -4.9526    0.7543 H   0  0  0  0  0  0  0  0  0  0  0  0
  106.9992   -6.4847    1.0992 H   0  0  0  0  0  0  0  0  0  0  0  0
  107.0027   -7.1667    3.3433 H   0  0  0  0  0  0  0  0  0  0  0  0
  106.7830   -6.6567    7.0194 H   0  0  0  0  0  0  0  0  0  0  0  0
  106.5098   -7.8195    5.7076 H   0  0  0  0  0  0  0  0  0  0  0  0
  108.1560   -7.3694    6.1637 H   0  0  0  0  0  0  0  0  0  0  0  0
  107.2390   -4.3238    6.5336 H   0  0  0  0  0  0  0  0  0  0  0  0
  106.3949   -1.5091    4.6716 H   0  0  0  0  0  0  0  0  0  0  0  0
  107.2902   -2.0193    6.1140 H   0  0  0  0  0  0  0  0  0  0  0  0
  108.1567   -1.5876    4.6295 H   0  0  0  0  0  0  0  0  0  0  0  0
  109.7382   -3.5396    2.8824 H   0  0  0  0  0  0  0  0  0  0  0  0
  111.6425   -2.1024    1.6235 H   0  0  0  0  0  0  0  0  0  0  0  0
  111.6199    1.9527   -1.7961 H   0  0  0  0  0  0  0  0  0  0  0  0
  109.7146    3.3491   -3.0625 H   0  0  0  0  0  0  0  0  0  0  0  0
  107.8574    0.4838   -0.5786 H   0  0  0  0  0  0  0  0  0  0  0  0
  107.0801    1.7798   -6.2700 H   0  0  0  0  0  0  0  0  0  0  0  0
  106.2585    1.3001   -4.7736 H   0  0  0  0  0  0  0  0  0  0  0  0
  108.0210    1.3590   -4.8283 H   0  0  0  0  0  0  0  0  0  0  0  0
  107.0899    4.0801   -6.7197 H   0  0  0  0  0  0  0  0  0  0  0  0
  106.6468    6.4200   -7.2184 H   0  0  0  0  0  0  0  0  0  0  0  0
  108.0795    7.0944   -6.4329 H   0  0  0  0  0  0  0  0  0  0  0  0
  106.4713    7.6089   -5.9134 H   0  0  0  0  0  0  0  0  0  0  0  0
  106.9914    6.9681   -3.5627 H   0  0  0  0  0  0  0  0  0  0  0  0
  107.8769    4.8334   -0.9789 H   0  0  0  0  0  0  0  0  0  0  0  0
  106.9633    6.3154   -1.3110 H   0  0  0  0  0  0  0  0  0  0  0  0
  106.1136    4.7901   -1.0053 H   0  0  0  0  0  0  0  0  0  0  0  0
  104.4332    3.2854   -3.1245 H   0  0  0  0  0  0  0  0  0  0  0  0
  102.5290    1.8719   -1.8393 H   0  0  0  0  0  0  0  0  0  0  0  0
  1  2  4  0  0  0  0
  2  3  4  0  0  0  0
  3  4  2  0  0  0  0
  4  5  4  0  0  0  0
  2  6  4  0  0  0  0
  5  6  4  0  0  0  0
  5  7  4  0  0  0  0
  7  8  1  0  0  0  0
  8  9  4  0  0  0  0
  9 10  1  0  0  0  0
  9 11  4  0  0  0  0
 11 12  4  0  0  0  0
 12 13  1  0  0  0  0
 12 14  4  0  0  0  0
  8 15  4  0  0  0  0
 14 15  4  0  0  0  0
 15 16  1  0  0  0  0
  7 17  4  0  0  0  0
 17 18  1  0  0  0  0
 18 19  2  0  0  0  0
 17 20  4  0  0  0  0
 19 21  1  0  0  0  0
 20 21  4  0  0  0  0
 21 22  4  0  0  0  0
 22 23  4  0  0  0  0
 23 24  4  0  0  0  0
 24 25  2  0  0  0  0
 25 26  4  0  0  0  0
 23 27  4  0  0  0  0
 26 27  4  0  0  0  0
 26 28  4  0  0  0  0
 28 29  1  0  0  0  0
 29 30  4  0  0  0  0
 30 31  1  0  0  0  0
 30 32  4  0  0  0  0
 32 33  4  0  0  0  0
 33 34  1  0  0  0  0
 33 35  4  0  0  0  0
 29 36  4  0  0  0  0
 35 36  4  0  0  0  0
 36 37  1  0  0  0  0
 28 38  4  0  0  0  0
 38 39  1  0  0  0  0
 39 40  2  0  0  0  0
  1 41  4  0  0  0  0
 40 41  1  0  0  0  0
 38 42  4  0  0  0  0
 41 42  4  0  0  0  0
  1 43  1  0  0  0  0
  3 44  1  0  0  0  0
  4 45  1  0  0  0  0
  6 46  1  0  0  0  0
 10 47  1  0  0  0  0
 10 48  1  0  0  0  0
 10 49  1  0  0  0  0
 11 50  1  0  0  0  0
 13 51  1  0  0  0  0
 13 52  1  0  0  0  0
 13 53  1  0  0  0  0
 14 54  1  0  0  0  0
 16 55  1  0  0  0  0
 16 56  1  0  0  0  0
 16 57  1  0  0  0  0
 18 58  1  0  0  0  0
 19 59  1  0  0  0  0
 24 60  1  0  0  0  0
 25 61  1  0  0  0  0
 27 62  1  0  0  0  0
 31 63  1  0  0  0  0
 31 64  1  0  0  0  0
 31 65  1  0  0  0  0
 32 66  1  0  0  0  0
 34 67  1  0  0  0  0
 34 68  1  0  0  0  0
 34 69  1  0  0  0  0
 35 70  1  0  0  0  0
 37 71  1  0  0  0  0
 37 72  1  0  0  0  0
 37 73  1  0  0  0  0
 39 74  1  0  0  0  0
 40 75  1  0  0  0  0
 76 77  4  0  0  0  0
 77 78  4  0  0  0  0
 78 79  2  0  0  0  0
 79 80  4  0  0  0  0
 77 81  4  0  0  0  0
 80 81  4  0  0  0  0
 80 82  4  0  0  0  0
 82 83  1  0  0  0  0
 83 84  4  0  0  0  0
 84 85  1  0  0  0  0
 84 86  4  0  0  0  0
 86 87  4  0  0  0  0
 87 88  1  0  0  0  0
 87 89  4  0  0  0  0
 83 90  4  0  0  0  0
 89 90  4  0  0  0  0
 90 91  1  0  0  0  0
 82 92  4  0  0  0  0
 92 93  1  0  0  0  0
 93 94  2  0  0  0  0
 92 95  4  0  0  0  0
 94 96  1  0  0  0  0
 95 96  4  0  0  0  0
 96 97  4  0  0  0  0
 97 98  4  0  0  0  0
 98 99  4  0  0  0  0
 99100  2  0  0  0  0
100101  4  0  0  0  0
 98102  4  0  0  0  0
101102  4  0  0  0  0
101103  4  0  0  0  0
103104  1  0  0  0  0
104105  4  0  0  0  0
105106  1  0  0  0  0
105107  4  0  0  0  0
107108  4  0  0  0  0
108109  1  0  0  0  0
108110  4  0  0  0  0
104111  4  0  0  0  0
110111  4  0  0  0  0
111112  1  0  0  0  0
103113  4  0  0  0  0
113114  1  0  0  0  0
114115  2  0  0  0  0
 76116  4  0  0  0  0
115116  1  0  0  0  0
113117  4  0  0  0  0
116117  4  0  0  0  0
 76118  1  0  0  0  0
 78119  1  0  0  0  0
 79120  1  0  0  0  0
 81121  1  0  0  0  0
 85122  1  0  0  0  0
 85123  1  0  0  0  0
 85124  1  0  0  0  0
 86125  1  0  0  0  0
 88126  1  0  0  0  0
 88127  1  0  0  0  0
 88128  1  0  0  0  0
 89129  1  0  0  0  0
 91130  1  0  0  0  0
 91131  1  0  0  0  0
 91132  1  0  0  0  0
 93133  1  0  0  0  0
 94134  1  0  0  0  0
 99135  1  0  0  0  0
100136  1  0  0  0  0
102137  1  0  0  0  0
106138  1  0  0  0  0
106139  1  0  0  0  0
106140  1  0  0  0  0
107141  1  0  0  0  0
109142  1  0  0  0  0
109143  1  0  0  0  0
109144  1  0  0  0  0
110145  1  0  0  0  0
112146  1  0  0  0  0
112147  1  0  0  0  0
112148  1  0  0  0  0
114149  1  0  0  0  0
115150  1  0  0  0  0
 22152  4  0  0  0  0
151152  3  0  0  0  0
151153  4  0  0  0  0
153154  3  0  0  0  0
155156  3  0  0  0  0
155157  4  0  0  0  0
157158  3  0  0  0  0
159160  3  0  0  0  0
159161  4  0  0  0  0
161162  3  0  0  0  0
163164  3  0  0  0  0
163165  4  0  0  0  0
 97166  4  0  0  0  0
165166  3  0  0  0  0
154167  4  0  0  0  0
167168  4  0  0  0  0
168169  4  0  0  0  0
169170  2  0  0  0  0
170171  4  0  0  0  0
168172  4  0  0  0  0
171172  4  0  0  0  0
171173  4  0  0  0  0
173174  1  0  0  0  0
174175  4  0  0  0  0
175176  1  0  0  0  0
175177  4  0  0  0  0
177178  4  0  0  0  0
178179  1  0  0  0  0
178180  4  0  0  0  0
174181  4  0  0  0  0
180181  4  0  0  0  0
181182  1  0  0  0  0
173183  4  0  0  0  0
183184  1  0  0  0  0
184185  2  0  0  0  0
183186  4  0  0  0  0
185187  1  0  0  0  0
186187  4  0  0  0  0
156188  4  0  0  0  0
187188  4  0  0  0  0
188189  4  0  0  0  0
189190  4  0  0  0  0
190191  2  0  0  0  0
191192  4  0  0  0  0
189193  4  0  0  0  0
192193  4  0  0  0  0
192194  4  0  0  0  0
194195  1  0  0  0  0
195196  4  0  0  0  0
196197  1  0  0  0  0
196198  4  0  0  0  0
198199  4  0  0  0  0
199200  1  0  0  0  0
199201  4  0  0  0  0
195202  4  0  0  0  0
201202  4  0  0  0  0
202203  1  0  0  0  0
194204  4  0  0  0  0
204205  1  0  0  0  0
205206  2  0  0  0  0
167207  4  0  0  0  0
206207  1  0  0  0  0
204208  4  0  0  0  0
207208  4  0  0  0  0
169209  1  0  0  0  0
170210  1  0  0  0  0
172211  1  0  0  0  0
176212  1  0  0  0  0
176213  1  0  0  0  0
176214  1  0  0  0  0
177215  1  0  0  0  0
179216  1  0  0  0  0
179217  1  0  0  0  0
179218  1  0  0  0  0
180219  1  0  0  0  0
182220  1  0  0  0  0
182221  1  0  0  0  0
182222  1  0  0  0  0
184223  1  0  0  0  0
185224  1  0  0  0  0
190225  1  0  0  0  0
191226  1  0  0  0  0
193227  1  0  0  0  0
197228  1  0  0  0  0
197229  1  0  0  0  0
197230  1  0  0  0  0
198231  1  0  0  0  0
200232  1  0  0  0  0
200233  1  0  0  0  0
200234  1  0  0  0  0
201235  1  0  0  0  0
203236  1  0  0  0  0
203237  1  0  0  0  0
203238  1  0  0  0  0
205239  1  0  0  0  0
206240  1  0  0  0  0
158241  4  0  0  0  0
241242  4  0  0  0  0
242243  4  0  0  0  0
243244  2  0  0  0  0
244245  4  0  0  0  0
242246  4  0  0  0  0
245246  4  0  0  0  0
245247  4  0  0  0  0
247248  1  0  0  0  0
248249  4  0  0  0  0
249250  1  0  0  0  0
249251  4  0  0  0  0
251252  4  0  0  0  0
252253  1  0  0  0  0
252254  4  0  0  0  0
248255  4  0  0  0  0
254255  4  0  0  0  0
255256  1  0  0  0  0
247257  4  0  0  0  0
257258  1  0  0  0  0
258259  2  0  0  0  0
257260  4  0  0  0  0
259261  1  0  0  0  0
260261  4  0  0  0  0
160262  4  0  0  0  0
261262  4  0  0  0  0
262263  4  0  0  0  0
263264  4  0  0  0  0
264265  2  0  0  0  0
265266  4  0  0  0  0
263267  4  0  0  0  0
266267  4  0  0  0  0
266268  4  0  0  0  0
268269  1  0  0  0  0
269270  4  0  0  0  0
270271  1  0  0  0  0
270272  4  0  0  0  0
272273  4  0  0  0  0
273274  1  0  0  0  0
273275  4  0  0  0  0
269276  4  0  0  0  0
275276  4  0  0  0  0
276277  1  0  0  0  0
268278  4  0  0  0  0
278279  1  0  0  0  0
279280  2  0  0  0  0
241281  4  0  0  0  0
280281  1  0  0  0  0
278282  4  0  0  0  0
281282  4  0  0  0  0
243283  1  0  0  0  0
244284  1  0  0  0  0
246285  1  0  0  0  0
250286  1  0  0  0  0
250287  1  0  0  0  0
250288  1  0  0  0  0
251289  1  0  0  0  0
253290  1  0  0  0  0
253291  1  0  0  0  0
253292  1  0  0  0  0
254293  1  0  0  0  0
256294  1  0  0  0  0
256295  1  0  0  0  0
256296  1  0  0  0  0
258297  1  0  0  0  0
259298  1  0  0  0  0
264299  1  0  0  0  0
265300  1  0  0  0  0
267301  1  0  0  0  0
271302  1  0  0  0  0
271303  1  0  0  0  0
271304  1  0  0  0  0
272305  1  0  0  0  0
274306  1  0  0  0  0
274307  1  0  0  0  0
274308  1  0  0  0  0
275309  1  0  0  0  0
277310  1  0  0  0  0
277311  1  0  0  0  0
277312  1  0  0  0  0
279313  1  0  0  0  0
280314  1  0  0  0  0
162315  4  0  0  0  0
315316  4  0  0  0  0
316317  4  0  0  0  0
317318  2  0  0  0  0
318319  4  0  0  0  0
316320  4  0  0  0  0
319320  4  0  0  0  0
319321  4  0  0  0  0
321322  1  0  0  0  0
322323  4  0  0  0  0
323324  1  0  0  0  0
323325  4  0  0  0  0
325326  4  0  0  0  0
326327  1  0  0  0  0
326328  4  0  0  0  0
322329  4  0  0  0  0
328329  4  0  0  0  0
329330  1  0  0  0  0
321331  4  0  0  0  0
331332  1  0  0  0  0
332333  2  0  0  0  0
331334  4  0  0  0  0
333335  1  0  0  0  0
334335  4  0  0  0  0
164336  4  0  0  0  0
335336  4  0  0  0  0
336337  4  0  0  0  0
337338  4  0  0  0  0
338339  2  0  0  0  0
339340  4  0  0  0  0
337341  4  0  0  0  0
340341  4  0  0  0  0
340342  4  0  0  0  0
342343  1  0  0  0  0
343344  4  0  0  0  0
344345  1  0  0  0  0
344346  4  0  0  0  0
346347  4  0  0  0  0
347348  1  0  0  0  0
347349  4  0  0  0  0
343350  4  0  0  0  0
349350  4  0  0  0  0
350351  1  0  0  0  0
342352  4  0  0  0  0
352353  1  0  0  0  0
353354  2  0  0  0  0
315355  4  0  0  0  0
354355  1  0  0  0  0
352356  4  0  0  0  0
355356  4  0  0  0  0
317357  1  0  0  0  0
318358  1  0  0  0  0
320359  1  0  0  0  0
324360  1  0  0  0  0
324361  1  0  0  0  0
324362  1  0  0  0  0
325363  1  0  0  0  0
327364  1  0  0  0  0
327365  1  0  0  0  0
327366  1  0  0  0  0
328367  1  0  0  0  0
330368  1  0  0  0  0
330369  1  0  0  0  0
330370  1  0  0  0  0
332371  1  0  0  0  0
333372  1  0  0  0  0
338373  1  0  0  0  0
339374  1  0  0  0  0
341375  1  0  0  0  0
345376  1  0  0  0  0
345377  1  0  0  0  0
345378  1  0  0  0  0
346379  1  0  0  0  0
348380  1  0  0  0  0
348381  1  0  0  0  0
348382  1  0  0  0  0
349383  1  0  0  0  0
351384  1  0  0  0  0
351385  1  0  0  0  0
351386  1  0  0  0  0
353387  1  0  0  0  0
354388  1  0  0  0  0
M  END
