644

C 133.773978 1.202258 -0.176684
C 134.673580 1.591611 -1.385941
C 134.584552 2.743556 -2.142054
C 135.671747 2.720394 -3.055411
C 136.350327 1.532632 -2.855810
N 135.780224 0.888360 -1.783509
C 137.642430 1.008824 -3.619177
C 137.514376 0.684878 -5.068073
C 137.817220 -0.602391 -5.534752
C 137.583964 -0.977550 -6.861655
C 136.968794 -0.096002 -7.746906
N 136.622329 -0.482637 -9.065370
C 135.749852 -1.648852 -9.091814
C 136.705324 1.207429 -7.309983
C 136.977138 1.587493 -5.987465
C 138.746808 0.735229 -2.867791
C 140.022480 0.368665 -3.448994
C 140.879783 0.129464 -2.462385
N 138.919640 0.723176 -1.507806
C 140.188527 0.309385 -1.196463
C 140.780834 0.063493 -0.000812
C 139.954173 0.137821 1.366983
C 140.487390 0.034260 2.634221
C 139.411445 0.011926 3.557374
C 138.247562 0.082287 2.825188
N 138.584927 0.226870 1.496265
C 136.775160 -0.023511 3.429430
C 136.641017 -0.488286 4.829917
C 136.404448 0.428440 5.860709
C 136.290565 -0.006297 7.184983
C 136.440954 -1.361287 7.518025
N 136.269800 -1.863409 8.822143
C 136.456353 -0.950830 9.935916
C 136.660862 -2.267066 6.471516
C 136.776431 -1.837040 5.145403
C 135.697139 0.262767 2.657341
C 134.326196 0.123750 3.121093
C 133.508393 0.462817 2.126562
C 134.328253 0.823041 0.990187
N 135.628578 0.687449 1.362372
H 132.700286 1.241386 -0.291839
H 133.854457 3.531206 -2.020795
H 135.928957 3.493877 -3.767837
H 136.211420 0.144809 -1.249049
H 138.209079 -1.340037 -4.832399
H 137.863917 -1.976656 -7.172521
H 136.196155 0.306515 -9.543095
H 134.887054 -1.524331 -8.426324
H 135.366947 -1.790969 -10.104042
H 136.286609 -2.564577 -8.814678
H 136.222930 1.918987 -7.970153
H 136.751494 2.598811 -5.664550
H 140.247185 0.331375 -4.495057
H 141.907923 -0.152485 -2.601645
H 141.535037 -0.051389 2.878679
H 139.485186 -0.098992 4.627559
H 137.921925 0.347043 0.731542
H 136.307608 1.487589 5.615717
H 136.096953 0.745778 7.948858
H 136.780365 -2.733836 8.930902
H 135.646910 -0.214467 9.983051
H 137.427388 -0.440778 9.884083
H 136.430815 -1.521813 10.872745
H 136.739200 -3.330548 6.672836
H 136.952244 -2.551202 4.343851
H 134.020212 -0.216920 4.093061
H 132.434834 0.442510 2.149889
C 268.863745 1.209739 0.116817
C 267.964143 1.660191 1.304669
C 268.053171 2.849160 2.001114
C 266.965976 2.872558 2.914465
C 266.287396 1.676170 2.775633
N 266.857499 0.978107 1.737547
C 264.995293 1.191932 3.564694
C 265.123347 0.942219 5.028212
C 264.820504 -0.319604 5.559864
C 265.053759 -0.626677 6.904156
C 265.668929 0.298825 7.743348
N 266.015394 -0.020140 9.079796
C 266.887871 -1.183494 9.165618
C 265.932399 1.578305 7.240590
C 265.660585 1.890500 5.900427
C 263.890915 0.880413 2.828222
C 262.615243 0.543934 3.427345
C 261.757940 0.254782 2.454203
N 263.718084 0.799092 1.470617
C 262.449196 0.369978 1.180758
C 261.856889 0.063493 -0.000812
C 262.683550 0.068043 -1.370619
C 262.150333 -0.099942 -2.630935
C 263.226278 -0.169277 -3.551751
C 264.390161 -0.061706 -2.824101
N 264.052796 0.150390 -1.504269
C 265.862563 -0.198149 -3.422169
C 265.996706 -0.733667 -4.797159
C 266.233275 0.129355 -5.873315
C 266.347159 -0.372282 -7.173722
C 266.196769 -1.742479 -7.437302
N 266.367923 -2.310387 -8.714147
C 266.181370 -1.455733 -9.872964
C 265.976861 -2.593768 -6.346008
C 265.861292 -2.096742 -5.043524
C 266.940584 0.127090 -2.665666
C 268.311527 -0.035372 -3.121734
C 269.129330 0.353921 -2.145768
C 268.309470 0.771569 -1.029220
N 267.009145 0.617193 -1.394014
H 269.937437 1.254682 0.229829
H 268.783266 3.629610 1.839887
H 266.708766 3.681331 3.586562
H 266.426303 0.208294 1.241661
H 264.428644 -1.092073 4.896002
H 264.773806 -1.608649 7.265518
H 266.441568 0.792324 9.516698
H 267.750669 -1.093037 8.494649
H 267.270776 -1.273858 10.183772
H 266.351114 -2.112149 8.935493
H 266.414794 2.322571 7.863653
H 265.886230 2.884054 5.526410
H 262.390538 0.559983 4.473949
H 260.729800 -0.019707 2.607645
H 261.102686 -0.197933 -2.870712
H 263.152537 -0.334570 -4.614896
H 264.715798 0.309365 -0.746661
H 266.330115 1.199609 -5.682598
H 266.540770 0.339902 -7.974919
H 265.857358 -3.185224 -8.778421
H 266.990814 -0.722727 -9.957551
H 265.210335 -0.943702 -9.847183
H 266.206908 -2.073701 -10.779488
H 265.898523 -3.666125 -6.492888
H 265.685479 -2.769142 -4.206631
H 268.617511 -0.425116 -4.075084
H 270.202889 0.332452 -2.168030
C 146.630467 0.064804 0.007620
C 145.421527 0.051349 -0.000827
C 143.999999 0.060168 -0.012810
C 142.788329 0.067607 -0.001948
C 148.047071 0.058129 0.008153
C 149.267767 0.067607 -0.001948
C 162.428271 0.064804 0.007620
C 161.219332 0.051349 -0.000827
C 159.797803 0.060168 -0.012810
C 158.586133 0.067607 -0.001948
C 163.844875 0.058129 0.008153
C 165.065571 0.067607 -0.001948
C 178.226075 0.064804 0.007620
C 177.017136 0.051349 -0.000827
C 175.595607 0.060168 -0.012810
C 174.383938 0.067607 -0.001948
C 179.642680 0.058129 0.008153
C 180.863375 0.067607 -0.001948
C 194.023880 0.064804 0.007620
C 192.814940 0.051349 -0.000827
C 191.393411 0.060168 -0.012810
C 190.181742 0.067607 -0.001948
C 195.440484 0.058129 0.008153
C 196.661180 0.067607 -0.001948
C 209.821684 0.064804 0.007620
C 208.612745 0.051349 -0.000827
C 207.191216 0.060168 -0.012810
C 205.979546 0.067607 -0.001948
C 211.238288 0.058129 0.008153
C 212.458984 0.067607 -0.001948
C 225.619488 0.064804 0.007620
C 224.410549 0.051349 -0.000827
C 222.989020 0.060168 -0.012810
C 221.777350 0.067607 -0.001948
C 227.036092 0.058129 0.008153
C 228.256788 0.067607 -0.001948
C 241.417292 0.064804 0.007620
C 240.208353 0.051349 -0.000827
C 238.786824 0.060168 -0.012810
C 237.575155 0.067607 -0.001948
C 242.833897 0.058129 0.008153
C 244.054593 0.067607 -0.001948
C 257.215097 0.064804 0.007620
C 256.006157 0.051349 -0.000827
C 254.584628 0.060168 -0.012810
C 253.372959 0.067607 -0.001948
C 258.631701 0.058129 0.008153
C 259.852397 0.067607 -0.001948
C 150.382353 -0.025440 0.000438
C 151.157523 0.021826 1.387064
C 150.576416 0.036195 2.639520
C 151.618506 0.073733 3.593425
C 152.812448 0.082105 2.902138
N 152.523376 0.051178 1.558433
C 154.252516 0.117795 3.564153
C 154.314092 0.186062 5.045435
C 154.379651 -0.981425 5.808472
C 154.410782 -0.909032 7.205416
C 154.344114 0.323713 7.874220
N 154.419995 0.326888 9.278505
C 153.939887 1.499220 9.985188
C 154.333664 1.487735 7.095279
C 154.302609 1.421677 5.696686
C 155.380228 0.088991 2.806383
C 156.694076 0.116057 3.415857
C 157.604040 0.072222 2.451992
N 155.575099 0.033812 1.451138
C 156.919785 0.021159 1.175134
C 157.603492 -0.025440 0.000438
C 156.828637 -0.066539 -1.386633
C 157.409464 -0.066284 -2.639663
C 156.367453 -0.105379 -3.593798
C 155.173730 -0.126818 -2.902148
N 155.463114 -0.102638 -1.558130
C 153.734391 -0.168564 -3.562827
C 153.666319 -0.236826 -5.043625
C 153.616749 0.932805 -5.805726
C 153.543789 0.867423 -7.202721
C 153.487675 -0.364522 -7.866870
N 153.456689 -0.493694 -9.267482
C 152.915454 0.610185 -10.038200
C 153.595249 -1.530177 -7.091828
C 153.667708 -1.471118 -5.695986
C 152.606103 -0.141050 -2.805123
C 151.291912 -0.171286 -3.414318
C 150.381630 -0.127738 -2.450836
C 151.065852 -0.073202 -1.174241
N 152.410549 -0.083803 -1.450110
H 149.519150 0.018427 2.854521
H 151.508083 0.090411 4.667586
H 153.210738 0.041460 0.808614
H 154.414450 -1.943979 5.303548
H 154.483453 -1.836061 7.765857
H 154.038874 -0.539818 9.648389
H 152.908776 1.742080 9.707568
H 153.955850 1.298764 11.061511
H 154.585140 2.366058 9.810740
H 154.348004 2.472005 7.548768
H 154.277588 2.332332 5.102277
H 156.910458 0.162043 4.468555
H 158.665404 0.078626 2.619379
H 158.466514 -0.039060 -2.854891
H 156.477985 -0.114323 -4.668433
H 154.776094 -0.100516 -0.808031
H 153.636683 1.895149 -5.299157
H 153.527733 1.804560 -7.746909
H 153.044306 -1.387816 -9.521299
H 153.570004 1.486655 -9.999157
H 152.843647 0.310260 -11.088871
H 151.909848 0.882334 -9.700419
H 153.615545 -2.506645 -7.565824
H 153.725988 -2.382891 -5.106240
H 151.075333 -0.219060 -4.466708
H 149.320264 -0.136016 -2.617790
C 166.180157 -0.025440 0.000438
C 166.955327 0.021826 1.387064
C 166.374220 0.036195 2.639520
C 167.416310 0.073733 3.593425
C 168.610253 0.082105 2.902138
N 168.321180 0.051178 1.558433
C 170.050321 0.117795 3.564153
C 170.111896 0.186062 5.045435
C 170.177455 -0.981425 5.808472
C 170.208586 -0.909032 7.205416
C 170.141919 0.323713 7.874220
N 170.217799 0.326888 9.278505
C 169.737691 1.499220 9.985188
C 170.131468 1.487735 7.095279
C 170.100414 1.421677 5.696686
C 171.178032 0.088991 2.806383
C 172.491880 0.116057 3.415857
C 173.401844 0.072222 2.451992
N 171.372903 0.033812 1.451138
C 172.717589 0.021159 1.175134
C 173.401296 -0.025440 0.000438
C 172.626441 -0.066539 -1.386633
C 173.207268 -0.066284 -2.639663
C 172.165257 -0.105379 -3.593798
C 170.971534 -0.126818 -2.902148
N 171.260919 -0.102638 -1.558130
C 169.532196 -0.168564 -3.562827
C 169.464123 -0.236826 -5.043625
C 169.414553 0.932805 -5.805726
C 169.341593 0.867423 -7.202721
C 169.285479 -0.364522 -7.866870
N 169.254493 -0.493694 -9.267482
C 168.713258 0.610185 -10.038200
C 169.393053 -1.530177 -7.091828
C 169.465512 -1.471118 -5.695986
C 168.403907 -0.141050 -2.805123
C 167.089716 -0.171286 -3.414318
C 166.179434 -0.127738 -2.450836
C 166.863656 -0.073202 -1.174241
N 168.208353 -0.083803 -1.450110
H 165.316954 0.018427 2.854521
H 167.305887 0.090411 4.667586
H 169.008542 0.041460 0.808614
H 170.212254 -1.943979 5.303548
H 170.281258 -1.836061 7.765857
H 169.836678 -0.539818 9.648389
H 168.706580 1.742080 9.707568
H 169.753655 1.298764 11.061511
H 170.382945 2.366058 9.810740
H 170.145809 2.472005 7.548768
H 170.075393 2.332332 5.102277
H 172.708262 0.162043 4.468555
H 174.463209 0.078626 2.619379
H 174.264319 -0.039060 -2.854891
H 172.275789 -0.114323 -4.668433
H 170.573898 -0.100516 -0.808031
H 169.434487 1.895149 -5.299157
H 169.325538 1.804560 -7.746909
H 168.842111 -1.387816 -9.521299
H 169.367808 1.486655 -9.999157
H 168.641452 0.310260 -11.088871
H 167.707652 0.882334 -9.700419
H 169.413349 -2.506645 -7.565824
H 169.523792 -2.382891 -5.106240
H 166.873137 -0.219060 -4.466708
H 165.118068 -0.136016 -2.617790
C 181.977961 -0.025440 0.000438
C 182.753131 0.021826 1.387064
C 182.172024 0.036195 2.639520
C 183.214114 0.073733 3.593425
C 184.408057 0.082105 2.902138
N 184.118985 0.051178 1.558433
C 185.848125 0.117795 3.564153
C 185.909700 0.186062 5.045435
C 185.975259 -0.981425 5.808472
C 186.006390 -0.909032 7.205416
C 185.939723 0.323713 7.874220
N 186.015603 0.326888 9.278505
C 185.535496 1.499220 9.985188
C 185.929273 1.487735 7.095279
C 185.898218 1.421677 5.696686
C 186.975836 0.088991 2.806383
C 188.289685 0.116057 3.415857
C 189.199649 0.072222 2.451992
N 187.170707 0.033812 1.451138
C 188.515393 0.021159 1.175134
C 189.199101 -0.025440 0.000438
C 188.424245 -0.066539 -1.386633
C 189.005072 -0.066284 -2.639663
C 187.963062 -0.105379 -3.593798
C 186.769338 -0.126818 -2.902148
N 187.058723 -0.102638 -1.558130
C 185.330000 -0.168564 -3.562827
C 185.261928 -0.236826 -5.043625
C 185.212357 0.932805 -5.805726
C 185.139398 0.867423 -7.202721
C 185.083284 -0.364522 -7.866870
N 185.052297 -0.493694 -9.267482
C 184.511063 0.610185 -10.038200
C 185.190858 -1.530177 -7.091828
C 185.263316 -1.471118 -5.695986
C 184.201711 -0.141050 -2.805123
C 182.887520 -0.171286 -3.414318
C 181.977238 -0.127738 -2.450836
C 182.661461 -0.073202 -1.174241
N 184.006157 -0.083803 -1.450110
H 181.114758 0.018427 2.854521
H 183.103691 0.090411 4.667586
H 184.806346 0.041460 0.808614
H 186.010058 -1.943979 5.303548
H 186.079062 -1.836061 7.765857
H 185.634482 -0.539818 9.648389
H 184.504385 1.742080 9.707568
H 185.551459 1.298764 11.061511
H 186.180749 2.366058 9.810740
H 185.943613 2.472005 7.548768
H 185.873197 2.332332 5.102277
H 188.506066 0.162043 4.468555
H 190.261013 0.078626 2.619379
H 190.062123 -0.039060 -2.854891
H 188.073594 -0.114323 -4.668433
H 186.371703 -0.100516 -0.808031
H 185.232291 1.895149 -5.299157
H 185.123342 1.804560 -7.746909
H 184.639915 -1.387816 -9.521299
H 185.165612 1.486655 -9.999157
H 184.439256 0.310260 -11.088871
H 183.505457 0.882334 -9.700419
H 185.211153 -2.506645 -7.565824
H 185.321596 -2.382891 -5.106240
H 182.670942 -0.219060 -4.466708
H 180.915872 -0.136016 -2.617790
C 197.775766 -0.025440 0.000438
C 198.550936 0.021826 1.387064
C 197.969828 0.036195 2.639520
C 199.011919 0.073733 3.593425
C 200.205861 0.082105 2.902138
N 199.916789 0.051178 1.558433
C 201.645929 0.117795 3.564153
C 201.707504 0.186062 5.045435
C 201.773063 -0.981425 5.808472
C 201.804195 -0.909032 7.205416
C 201.737527 0.323713 7.874220
N 201.813408 0.326888 9.278505
C 201.333300 1.499220 9.985188
C 201.727077 1.487735 7.095279
C 201.696022 1.421677 5.696686
C 202.773641 0.088991 2.806383
C 204.087489 0.116057 3.415857
C 204.997453 0.072222 2.451992
N 202.968511 0.033812 1.451138
C 204.313198 0.021159 1.175134
C 204.996905 -0.025440 0.000438
C 204.222050 -0.066539 -1.386633
C 204.802877 -0.066284 -2.639663
C 203.760866 -0.105379 -3.593798
C 202.567143 -0.126818 -2.902148
N 202.856527 -0.102638 -1.558130
C 201.127804 -0.168564 -3.562827
C 201.059732 -0.236826 -5.043625
C 201.010161 0.932805 -5.805726
C 200.937202 0.867423 -7.202721
C 200.881088 -0.364522 -7.866870
N 200.850101 -0.493694 -9.267482
C 200.308867 0.610185 -10.038200
C 200.988662 -1.530177 -7.091828
C 201.061121 -1.471118 -5.695986
C 199.999515 -0.141050 -2.805123
C 198.685325 -0.171286 -3.414318
C 197.775042 -0.127738 -2.450836
C 198.459265 -0.073202 -1.174241
N 199.803961 -0.083803 -1.450110
H 196.912563 0.018427 2.854521
H 198.901496 0.090411 4.667586
H 200.604151 0.041460 0.808614
H 201.807863 -1.943979 5.303548
H 201.876866 -1.836061 7.765857
H 201.432287 -0.539818 9.648389
H 200.302189 1.742080 9.707568
H 201.349263 1.298764 11.061511
H 201.978553 2.366058 9.810740
H 201.741417 2.472005 7.548768
H 201.671001 2.332332 5.102277
H 204.303871 0.162043 4.468555
H 206.058817 0.078626 2.619379
H 205.859927 -0.039060 -2.854891
H 203.871398 -0.114323 -4.668433
H 202.169507 -0.100516 -0.808031
H 201.030095 1.895149 -5.299157
H 200.921146 1.804560 -7.746909
H 200.437719 -1.387816 -9.521299
H 200.963417 1.486655 -9.999157
H 200.237060 0.310260 -11.088871
H 199.303261 0.882334 -9.700419
H 201.008958 -2.506645 -7.565824
H 201.119401 -2.382891 -5.106240
H 198.468746 -0.219060 -4.466708
H 196.713676 -0.136016 -2.617790
C 213.573570 -0.025440 0.000438
C 214.348740 0.021826 1.387064
C 213.767633 0.036195 2.639520
C 214.809723 0.073733 3.593425
C 216.003665 0.082105 2.902138
N 215.714593 0.051178 1.558433
C 217.443734 0.117795 3.564153
C 217.505309 0.186062 5.045435
C 217.570868 -0.981425 5.808472
C 217.601999 -0.909032 7.205416
C 217.535332 0.323713 7.874220
N 217.611212 0.326888 9.278505
C 217.131104 1.499220 9.985188
C 217.524881 1.487735 7.095279
C 217.493826 1.421677 5.696686
C 218.571445 0.088991 2.806383
C 219.885293 0.116057 3.415857
C 220.795257 0.072222 2.451992
N 218.766316 0.033812 1.451138
C 220.111002 0.021159 1.175134
C 220.794709 -0.025440 0.000438
C 220.019854 -0.066539 -1.386633
C 220.600681 -0.066284 -2.639663
C 219.558670 -0.105379 -3.593798
C 218.364947 -0.126818 -2.902148
N 218.654331 -0.102638 -1.558130
C 216.925609 -0.168564 -3.562827
C 216.857536 -0.236826 -5.043625
C 216.807966 0.932805 -5.805726
C 216.735006 0.867423 -7.202721
C 216.678892 -0.364522 -7.866870
N 216.647906 -0.493694 -9.267482
C 216.106671 0.610185 -10.038200
C 216.786466 -1.530177 -7.091828
C 216.858925 -1.471118 -5.695986
C 215.797320 -0.141050 -2.805123
C 214.483129 -0.171286 -3.414318
C 213.572847 -0.127738 -2.450836
C 214.257069 -0.073202 -1.174241
N 215.601766 -0.083803 -1.450110
H 212.710367 0.018427 2.854521
H 214.699300 0.090411 4.667586
H 216.401955 0.041460 0.808614
H 217.605667 -1.943979 5.303548
H 217.674670 -1.836061 7.765857
H 217.230091 -0.539818 9.648389
H 216.099993 1.742080 9.707568
H 217.147068 1.298764 11.061511
H 217.776358 2.366058 9.810740
H 217.539222 2.472005 7.548768
H 217.468806 2.332332 5.102277
H 220.101675 0.162043 4.468555
H 221.856622 0.078626 2.619379
H 221.657732 -0.039060 -2.854891
H 219.669202 -0.114323 -4.668433
H 217.967311 -0.100516 -0.808031
H 216.827900 1.895149 -5.299157
H 216.718950 1.804560 -7.746909
H 216.235523 -1.387816 -9.521299
H 216.761221 1.486655 -9.999157
H 216.034864 0.310260 -11.088871
H 215.101065 0.882334 -9.700419
H 216.806762 -2.506645 -7.565824
H 216.917205 -2.382891 -5.106240
H 214.266550 -0.219060 -4.466708
H 212.511481 -0.136016 -2.617790
C 229.371374 -0.025440 0.000438
C 230.146544 0.021826 1.387064
C 229.565437 0.036195 2.639520
C 230.607527 0.073733 3.593425
C 231.801470 0.082105 2.902138
N 231.512397 0.051178 1.558433
C 233.241538 0.117795 3.564153
C 233.303113 0.186062 5.045435
C 233.368672 -0.981425 5.808472
C 233.399803 -0.909032 7.205416
C 233.333136 0.323713 7.874220
N 233.409016 0.326888 9.278505
C 232.928909 1.499220 9.985188
C 233.322685 1.487735 7.095279
C 233.291631 1.421677 5.696686
C 234.369249 0.088991 2.806383
C 235.683098 0.116057 3.415857
C 236.593062 0.072222 2.451992
N 234.564120 0.033812 1.451138
C 235.908806 0.021159 1.175134
C 236.592514 -0.025440 0.000438
C 235.817658 -0.066539 -1.386633
C 236.398485 -0.066284 -2.639663
C 235.356474 -0.105379 -3.593798
C 234.162751 -0.126818 -2.902148
N 234.452136 -0.102638 -1.558130
C 232.723413 -0.168564 -3.562827
C 232.655340 -0.236826 -5.043625
C 232.605770 0.932805 -5.805726
C 232.532810 0.867423 -7.202721
C 232.476696 -0.364522 -7.866870
N 232.445710 -0.493694 -9.267482
C 231.904475 0.610185 -10.038200
C 232.584270 -1.530177 -7.091828
C 232.656729 -1.471118 -5.695986
C 231.595124 -0.141050 -2.805123
C 230.280933 -0.171286 -3.414318
C 229.370651 -0.127738 -2.450836
C 230.054873 -0.073202 -1.174241
N 231.399570 -0.083803 -1.450110
H 228.508171 0.018427 2.854521
H 230.497104 0.090411 4.667586
H 232.199759 0.041460 0.808614
H 233.403471 -1.943979 5.303548
H 233.472475 -1.836061 7.765857
H 233.027895 -0.539818 9.648389
H 231.897797 1.742080 9.707568
H 232.944872 1.298764 11.061511
H 233.574162 2.366058 9.810740
H 233.337026 2.472005 7.548768
H 233.266610 2.332332 5.102277
H 235.899479 0.162043 4.468555
H 237.654426 0.078626 2.619379
H 237.455536 -0.039060 -2.854891
H 235.467006 -0.114323 -4.668433
H 233.765116 -0.100516 -0.808031
H 232.625704 1.895149 -5.299157
H 232.516755 1.804560 -7.746909
H 232.033328 -1.387816 -9.521299
H 232.559025 1.486655 -9.999157
H 231.832669 0.310260 -11.088871
H 230.898869 0.882334 -9.700419
H 232.604566 -2.506645 -7.565824
H 232.715009 -2.382891 -5.106240
H 230.064355 -0.219060 -4.466708
H 228.309285 -0.136016 -2.617790
C 245.169178 -0.025440 0.000438
C 245.944348 0.021826 1.387064
C 245.363241 0.036195 2.639520
C 246.405331 0.073733 3.593425
C 247.599274 0.082105 2.902138
N 247.310202 0.051178 1.558433
C 249.039342 0.117795 3.564153
C 249.100917 0.186062 5.045435
C 249.166476 -0.981425 5.808472
C 249.197607 -0.909032 7.205416
C 249.130940 0.323713 7.874220
N 249.206820 0.326888 9.278505
C 248.726713 1.499220 9.985188
C 249.120490 1.487735 7.095279
C 249.089435 1.421677 5.696686
C 250.167054 0.088991 2.806383
C 251.480902 0.116057 3.415857
C 252.390866 0.072222 2.451992
N 250.361924 0.033812 1.451138
C 251.706610 0.021159 1.175134
C 252.390318 -0.025440 0.000438
C 251.615463 -0.066539 -1.386633
C 252.196290 -0.066284 -2.639663
C 251.154279 -0.105379 -3.593798
C 249.960556 -0.126818 -2.902148
N 250.249940 -0.102638 -1.558130
C 248.521217 -0.168564 -3.562827
C 248.453145 -0.236826 -5.043625
C 248.403574 0.932805 -5.805726
C 248.330615 0.867423 -7.202721
C 248.274501 -0.364522 -7.866870
N 248.243514 -0.493694 -9.267482
C 247.702280 0.610185 -10.038200
C 248.382075 -1.530177 -7.091828
C 248.454533 -1.471118 -5.695986
C 247.392928 -0.141050 -2.805123
C 246.078737 -0.171286 -3.414318
C 245.168455 -0.127738 -2.450836
C 245.852678 -0.073202 -1.174241
N 247.197374 -0.083803 -1.450110
H 244.305975 0.018427 2.854521
H 246.294908 0.090411 4.667586
H 247.997563 0.041460 0.808614
H 249.201275 -1.943979 5.303548
H 249.270279 -1.836061 7.765857
H 248.825699 -0.539818 9.648389
H 247.695602 1.742080 9.707568
H 248.742676 1.298764 11.061511
H 249.371966 2.366058 9.810740
H 249.134830 2.472005 7.548768
H 249.064414 2.332332 5.102277
H 251.697283 0.162043 4.468555
H 253.452230 0.078626 2.619379
H 253.253340 -0.039060 -2.854891
H 251.264811 -0.114323 -4.668433
H 249.562920 -0.100516 -0.808031
H 248.423508 1.895149 -5.299157
H 248.314559 1.804560 -7.746909
H 247.831132 -1.387816 -9.521299
H 248.356829 1.486655 -9.999157
H 247.630473 0.310260 -11.088871
H 246.696674 0.882334 -9.700419
H 248.402371 -2.506645 -7.565824
H 248.512813 -2.382891 -5.106240
H 245.862159 -0.219060 -4.466708
H 244.107089 -0.136016 -2.617790
