 xtb: 6.5.1 (b24c23e)
          07282219243D

386420  0     0  0            999 V2000
   65.1423    0.1255    0.1095 C   0  0  0  0  0  0  0  0  0  0  0  0
   65.7534   -0.0323    1.3473 C   0  0  0  0  0  0  0  0  0  0  0  0
   65.1035   -0.1243    2.6094 C   0  0  0  0  0  0  0  0  0  0  0  0
   66.0644   -0.2965    3.5666 C   0  0  0  0  0  0  0  0  0  0  0  0
   67.3315   -0.3250    2.9188 C   0  0  0  0  0  0  0  0  0  0  0  0
   67.0940   -0.1492    1.5848 N   0  0  0  0  0  0  0  0  0  0  0  0
   68.5926   -0.4824    3.5086 C   0  0  0  0  0  0  0  0  0  0  0  0
   68.6210   -0.7130    4.9705 C   0  0  0  0  0  0  0  0  0  0  0  0
   69.3184    0.1439    5.8239 C   0  0  0  0  0  0  0  0  0  0  0  0
   69.3410   -0.0669    7.1906 C   0  0  0  0  0  0  0  0  0  0  0  0
   68.6669   -1.1556    7.7641 C   0  0  0  0  0  0  0  0  0  0  0  0
   68.7347   -1.4099    9.1306 N   0  0  0  0  0  0  0  0  0  0  0  0
   69.1575   -0.3133   10.0016 C   0  0  0  0  0  0  0  0  0  0  0  0
   67.6913   -2.2594    9.7070 C   0  0  0  0  0  0  0  0  0  0  0  0
   67.9784   -2.0235    6.9029 C   0  0  0  0  0  0  0  0  0  0  0  0
   67.9524   -1.7991    5.5386 C   0  0  0  0  0  0  0  0  0  0  0  0
   69.8049   -0.4399    2.8145 C   0  0  0  0  0  0  0  0  0  0  0  0
   71.1003   -0.6674    3.4282 C   0  0  0  0  0  0  0  0  0  0  0  0
   72.0180   -0.5286    2.4485 C   0  0  0  0  0  0  0  0  0  0  0  0
   69.9565   -0.1973    1.4826 N   0  0  0  0  0  0  0  0  0  0  0  0
   71.2811   -0.2330    1.2358 C   0  0  0  0  0  0  0  0  0  0  0  0
   71.9164   -0.0167   -0.0049 C   0  0  0  0  0  0  0  0  0  0  0  0
   71.2801    0.2007   -1.2426 C   0  0  0  0  0  0  0  0  0  0  0  0
   71.9263    0.4409   -2.4835 C   0  0  0  0  0  0  0  0  0  0  0  0
   70.9605    0.5817   -3.4419 C   0  0  0  0  0  0  0  0  0  0  0  0
   69.6937    0.4231   -2.8158 C   0  0  0  0  0  0  0  0  0  0  0  0
   69.9392    0.2046   -1.4852 N   0  0  0  0  0  0  0  0  0  0  0  0
   68.4319    0.4990   -3.4180 C   0  0  0  0  0  0  0  0  0  0  0  0
   68.4012    0.6935   -4.8840 C   0  0  0  0  0  0  0  0  0  0  0  0
   67.7430    1.7853   -5.4533 C   0  0  0  0  0  0  0  0  0  0  0  0
   67.7225    1.9769   -6.8228 C   0  0  0  0  0  0  0  0  0  0  0  0
   68.3595    1.0738   -7.6872 C   0  0  0  0  0  0  0  0  0  0  0  0
   68.2967    1.2256   -9.0690 N   0  0  0  0  0  0  0  0  0  0  0  0
   69.3286    0.5557   -9.8627 C   0  0  0  0  0  0  0  0  0  0  0  0
   67.9051    2.5357   -9.5885 C   0  0  0  0  0  0  0  0  0  0  0  0
   69.0059   -0.0322   -7.1140 C   0  0  0  0  0  0  0  0  0  0  0  0
   69.0303   -0.2102   -5.7431 C   0  0  0  0  0  0  0  0  0  0  0  0
   67.2169    0.4073   -2.7278 C   0  0  0  0  0  0  0  0  0  0  0  0
   65.9094    0.4283   -3.3642 C   0  0  0  0  0  0  0  0  0  0  0  0
   64.9995    0.3339   -2.3730 C   0  0  0  0  0  0  0  0  0  0  0  0
   65.7498    0.2373   -1.1341 C   0  0  0  0  0  0  0  0  0  0  0  0
   67.0817    0.2743   -1.3872 N   0  0  0  0  0  0  0  0  0  0  0  0
   64.0574    0.1575    0.1258 H   0  0  0  0  0  0  0  0  0  0  0  0
   64.0368   -0.0592    2.7541 H   0  0  0  0  0  0  0  0  0  0  0  0
   65.9138   -0.3846    4.6304 H   0  0  0  0  0  0  0  0  0  0  0  0
   67.8194   -0.1075    0.8767 H   0  0  0  0  0  0  0  0  0  0  0  0
   69.8329    1.0053    5.4121 H   0  0  0  0  0  0  0  0  0  0  0  0
   69.8937    0.6314    7.8058 H   0  0  0  0  0  0  0  0  0  0  0  0
   68.5169    0.5675    9.8812 H   0  0  0  0  0  0  0  0  0  0  0  0
   69.1130   -0.6486   11.0373 H   0  0  0  0  0  0  0  0  0  0  0  0
   70.1903   -0.0456    9.7767 H   0  0  0  0  0  0  0  0  0  0  0  0
   66.6904   -1.8820    9.4699 H   0  0  0  0  0  0  0  0  0  0  0  0
   67.7948   -3.2766    9.3277 H   0  0  0  0  0  0  0  0  0  0  0  0
   67.8155   -2.2875   10.7889 H   0  0  0  0  0  0  0  0  0  0  0  0
   67.4611   -2.8926    7.2884 H   0  0  0  0  0  0  0  0  0  0  0  0
   67.4236   -2.4961    4.8973 H   0  0  0  0  0  0  0  0  0  0  0  0
   71.2646   -0.9157    4.4643 H   0  0  0  0  0  0  0  0  0  0  0  0
   73.0901   -0.6256    2.5123 H   0  0  0  0  0  0  0  0  0  0  0  0
   72.9945    0.5027   -2.6157 H   0  0  0  0  0  0  0  0  0  0  0  0
   71.1106    0.7917   -4.4884 H   0  0  0  0  0  0  0  0  0  0  0  0
   69.2153    0.0790   -0.7853 H   0  0  0  0  0  0  0  0  0  0  0  0
   67.2609    2.5131   -4.8095 H   0  0  0  0  0  0  0  0  0  0  0  0
   67.2031    2.8444   -7.2090 H   0  0  0  0  0  0  0  0  0  0  0  0
   69.2213    0.8523  -10.9054 H   0  0  0  0  0  0  0  0  0  0  0  0
   70.3339    0.8187   -9.5159 H   0  0  0  0  0  0  0  0  0  0  0  0
   69.1952   -0.5249   -9.8024 H   0  0  0  0  0  0  0  0  0  0  0  0
   66.8818    2.7578   -9.2846 H   0  0  0  0  0  0  0  0  0  0  0  0
   67.9355    2.5059  -10.6772 H   0  0  0  0  0  0  0  0  0  0  0  0
   68.5731    3.3279   -9.2318 H   0  0  0  0  0  0  0  0  0  0  0  0
   69.4908   -0.7740   -7.7355 H   0  0  0  0  0  0  0  0  0  0  0  0
   69.5261   -1.0826   -5.3311 H   0  0  0  0  0  0  0  0  0  0  0  0
   65.7345    0.4898   -4.4263 H   0  0  0  0  0  0  0  0  0  0  0  0
   63.9231    0.3152   -2.4441 H   0  0  0  0  0  0  0  0  0  0  0  0
  135.9357    0.1418   -0.0922 C   0  0  0  0  0  0  0  0  0  0  0  0
  135.3237    0.2718   -1.3329 C   0  0  0  0  0  0  0  0  0  0  0  0
  135.9723    0.4733   -2.5828 C   0  0  0  0  0  0  0  0  0  0  0  0
  135.0103    0.5272   -3.5528 C   0  0  0  0  0  0  0  0  0  0  0  0
  133.7439    0.3501   -2.9276 C   0  0  0  0  0  0  0  0  0  0  0  0
  133.9829    0.2124   -1.5895 N   0  0  0  0  0  0  0  0  0  0  0  0
  132.4820    0.3345   -3.5362 C   0  0  0  0  0  0  0  0  0  0  0  0
  132.4512    0.4531   -5.0114 C   0  0  0  0  0  0  0  0  0  0  0  0
  131.7549    1.4882   -5.6379 C   0  0  0  0  0  0  0  0  0  0  0  0
  131.7305    1.6055   -7.0157 C   0  0  0  0  0  0  0  0  0  0  0  0
  132.4017    0.6812   -7.8304 C   0  0  0  0  0  0  0  0  0  0  0  0
  132.3326    0.7572   -9.2183 N   0  0  0  0  0  0  0  0  0  0  0  0
  131.9168    2.0312   -9.8048 C   0  0  0  0  0  0  0  0  0  0  0  0
  133.3712    0.0621   -9.9803 C   0  0  0  0  0  0  0  0  0  0  0  0
  133.0884   -0.3670   -7.1989 C   0  0  0  0  0  0  0  0  0  0  0  0
  133.1163   -0.4703   -5.8203 C   0  0  0  0  0  0  0  0  0  0  0  0
  131.2705    0.2138   -2.8501 C   0  0  0  0  0  0  0  0  0  0  0  0
  129.9747    0.1345   -3.4991 C   0  0  0  0  0  0  0  0  0  0  0  0
  129.0577    0.0405   -2.5135 C   0  0  0  0  0  0  0  0  0  0  0  0
  131.1197    0.1399   -1.4981 N   0  0  0  0  0  0  0  0  0  0  0  0
  129.7954    0.0467   -1.2657 C   0  0  0  0  0  0  0  0  0  0  0  0
  129.1605   -0.0303   -0.0084 C   0  0  0  0  0  0  0  0  0  0  0  0
  129.7975   -0.1030    1.2458 C   0  0  0  0  0  0  0  0  0  0  0  0
  129.1528   -0.1596    2.5092 C   0  0  0  0  0  0  0  0  0  0  0  0
  130.1199   -0.2434    3.4730 C   0  0  0  0  0  0  0  0  0  0  0  0
  131.3860   -0.2489    2.8257 C   0  0  0  0  0  0  0  0  0  0  0  0
  131.1388   -0.1523    1.4811 N   0  0  0  0  0  0  0  0  0  0  0  0
  132.6483   -0.3114    3.4281 C   0  0  0  0  0  0  0  0  0  0  0  0
  132.6802   -0.4621    4.8994 C   0  0  0  0  0  0  0  0  0  0  0  0
  133.3314    0.4726    5.7065 C   0  0  0  0  0  0  0  0  0  0  0  0
  133.3522    0.3416    7.0831 C   0  0  0  0  0  0  0  0  0  0  0  0
  132.7230   -0.7421    7.7142 C   0  0  0  0  0  0  0  0  0  0  0  0
  132.7861   -0.9133    9.0938 N   0  0  0  0  0  0  0  0  0  0  0  0
  131.7654   -1.7633    9.7095 C   0  0  0  0  0  0  0  0  0  0  0  0
  133.1589    0.2472    9.9026 C   0  0  0  0  0  0  0  0  0  0  0  0
  132.0848   -1.6902    6.8999 C   0  0  0  0  0  0  0  0  0  0  0  0
  132.0594   -1.5453    5.5251 C   0  0  0  0  0  0  0  0  0  0  0  0
  133.8629   -0.2379    2.7349 C   0  0  0  0  0  0  0  0  0  0  0  0
  135.1708   -0.3595    3.3588 C   0  0  0  0  0  0  0  0  0  0  0  0
  136.0800   -0.2222    2.3721 C   0  0  0  0  0  0  0  0  0  0  0  0
  135.3288   -0.0346    1.1442 C   0  0  0  0  0  0  0  0  0  0  0  0
  133.9971   -0.0596    1.3995 N   0  0  0  0  0  0  0  0  0  0  0  0
  137.0206    0.1778   -0.1011 H   0  0  0  0  0  0  0  0  0  0  0  0
  137.0389    0.5698   -2.7099 H   0  0  0  0  0  0  0  0  0  0  0  0
  135.1597    0.6870   -4.6084 H   0  0  0  0  0  0  0  0  0  0  0  0
  133.2584    0.0900   -0.8899 H   0  0  0  0  0  0  0  0  0  0  0  0
  131.2426    2.2292   -5.0337 H   0  0  0  0  0  0  0  0  0  0  0  0
  131.1788    2.4300   -7.4483 H   0  0  0  0  0  0  0  0  0  0  0  0
  132.5612    2.8551   -9.4782 H   0  0  0  0  0  0  0  0  0  0  0  0
  131.9621    1.9510  -10.8904 H   0  0  0  0  0  0  0  0  0  0  0  0
  130.8847    2.2432   -9.5239 H   0  0  0  0  0  0  0  0  0  0  0  0
  134.3742    0.3690   -9.6638 H   0  0  0  0  0  0  0  0  0  0  0  0
  133.2632   -1.0152   -9.8499 H   0  0  0  0  0  0  0  0  0  0  0  0
  133.2453    0.2891  -11.0383 H   0  0  0  0  0  0  0  0  0  0  0  0
  133.6030   -1.1221   -7.7791 H   0  0  0  0  0  0  0  0  0  0  0  0
  133.6440   -1.2999   -5.3619 H   0  0  0  0  0  0  0  0  0  0  0  0
  129.8099    0.1341   -4.5644 H   0  0  0  0  0  0  0  0  0  0  0  0
  127.9856   -0.0396   -2.5975 H   0  0  0  0  0  0  0  0  0  0  0  0
  128.0847   -0.1328    2.6530 H   0  0  0  0  0  0  0  0  0  0  0  0
  129.9713   -0.2836    4.5397 H   0  0  0  0  0  0  0  0  0  0  0  0
  131.8617   -0.1108    0.7702 H   0  0  0  0  0  0  0  0  0  0  0  0
  133.8075    1.3332    5.2492 H   0  0  0  0  0  0  0  0  0  0  0  0
  133.8659    1.0996    7.6601 H   0  0  0  0  0  0  0  0  0  0  0  0
  131.8722   -1.7165   10.7926 H   0  0  0  0  0  0  0  0  0  0  0  0
  130.7557   -1.4401    9.4337 H   0  0  0  0  0  0  0  0  0  0  0  0
  131.9127   -2.7982    9.3989 H   0  0  0  0  0  0  0  0  0  0  0  0
  134.1793    0.5471    9.6624 H   0  0  0  0  0  0  0  0  0  0  0  0
  133.1276   -0.0326   10.9551 H   0  0  0  0  0  0  0  0  0  0  0  0
  132.4803    1.0911    9.7347 H   0  0  0  0  0  0  0  0  0  0  0  0
  131.6066   -2.5598    7.3320 H   0  0  0  0  0  0  0  0  0  0  0  0
  131.5693   -2.3020    4.9218 H   0  0  0  0  0  0  0  0  0  0  0  0
  135.3465   -0.5417    4.4069 H   0  0  0  0  0  0  0  0  0  0  0  0
  137.1566   -0.2537    2.4366 H   0  0  0  0  0  0  0  0  0  0  0  0
   77.1176    0.0263   -0.0587 C   0  0  0  0  0  0  0  0  0  0  0  0
   75.8888    0.0074   -0.0490 C   0  0  0  0  0  0  0  0  0  0  0  0
   74.5454   -0.0066   -0.0392 C   0  0  0  0  0  0  0  0  0  0  0  0
   73.3211   -0.0169   -0.0224 C   0  0  0  0  0  0  0  0  0  0  0  0
   78.4609    0.0445   -0.0621 C   0  0  0  0  0  0  0  0  0  0  0  0
   79.6853    0.0744   -0.0648 C   0  0  0  0  0  0  0  0  0  0  0  0
   93.1402    0.0219   -0.0111 C   0  0  0  0  0  0  0  0  0  0  0  0
   91.9109    0.0286   -0.0076 C   0  0  0  0  0  0  0  0  0  0  0  0
   90.5679    0.0428   -0.0083 C   0  0  0  0  0  0  0  0  0  0  0  0
   89.3431    0.0618   -0.0068 C   0  0  0  0  0  0  0  0  0  0  0  0
   94.4833    0.0222   -0.0108 C   0  0  0  0  0  0  0  0  0  0  0  0
   95.7082    0.0290   -0.0142 C   0  0  0  0  0  0  0  0  0  0  0  0
  109.1665    0.0300    0.0036 C   0  0  0  0  0  0  0  0  0  0  0  0
  107.9372    0.0244    0.0064 C   0  0  0  0  0  0  0  0  0  0  0  0
  106.5941    0.0261    0.0073 C   0  0  0  0  0  0  0  0  0  0  0  0
  105.3692    0.0323    0.0118 C   0  0  0  0  0  0  0  0  0  0  0  0
  110.5095    0.0409    0.0046 C   0  0  0  0  0  0  0  0  0  0  0  0
  111.7343    0.0557    0.0037 C   0  0  0  0  0  0  0  0  0  0  0  0
  125.1881   -0.0213    0.0424 C   0  0  0  0  0  0  0  0  0  0  0  0
  123.9593   -0.0063    0.0524 C   0  0  0  0  0  0  0  0  0  0  0  0
  122.6161    0.0158    0.0563 C   0  0  0  0  0  0  0  0  0  0  0  0
  121.3917    0.0413    0.0607 C   0  0  0  0  0  0  0  0  0  0  0  0
  126.5315   -0.0327    0.0279 C   0  0  0  0  0  0  0  0  0  0  0  0
  127.7559   -0.0376    0.0088 C   0  0  0  0  0  0  0  0  0  0  0  0
   81.0888    0.0955   -0.0560 C   0  0  0  0  0  0  0  0  0  0  0  0
   81.7073    0.0238    1.2081 C   0  0  0  0  0  0  0  0  0  0  0  0
   81.0499   -0.0945    2.4590 C   0  0  0  0  0  0  0  0  0  0  0  0
   82.0060   -0.0892    3.4387 C   0  0  0  0  0  0  0  0  0  0  0  0
   83.2749    0.0399    2.8129 C   0  0  0  0  0  0  0  0  0  0  0  0
   83.0444    0.0902    1.4638 N   0  0  0  0  0  0  0  0  0  0  0  0
   84.5275    0.0924    3.4402 C   0  0  0  0  0  0  0  0  0  0  0  0
   84.5235    0.1009    4.9205 C   0  0  0  0  0  0  0  0  0  0  0  0
   83.8554    1.1016    5.6290 C   0  0  0  0  0  0  0  0  0  0  0  0
   83.8510    1.1206    7.0115 C   0  0  0  0  0  0  0  0  0  0  0  0
   84.5054    0.1220    7.7489 C   0  0  0  0  0  0  0  0  0  0  0  0
   84.5433    0.1658    9.1390 N   0  0  0  0  0  0  0  0  0  0  0  0
   83.5173    0.9608    9.8150 C   0  0  0  0  0  0  0  0  0  0  0  0
   84.9018   -1.0659    9.8427 C   0  0  0  0  0  0  0  0  0  0  0  0
   85.1788   -0.8808    7.0347 C   0  0  0  0  0  0  0  0  0  0  0  0
   85.1882   -0.8851    5.6519 C   0  0  0  0  0  0  0  0  0  0  0  0
   85.7569    0.1387    2.7790 C   0  0  0  0  0  0  0  0  0  0  0  0
   87.0368    0.2516    3.4542 C   0  0  0  0  0  0  0  0  0  0  0  0
   87.9812    0.2375    2.4900 C   0  0  0  0  0  0  0  0  0  0  0  0
   85.9437    0.0897    1.4306 N   0  0  0  0  0  0  0  0  0  0  0  0
   87.2758    0.1342    1.2288 C   0  0  0  0  0  0  0  0  0  0  0  0
   87.9398    0.0855   -0.0144 C   0  0  0  0  0  0  0  0  0  0  0  0
   87.3209    0.0712   -1.2804 C   0  0  0  0  0  0  0  0  0  0  0  0
   87.9779    0.0016   -2.5351 C   0  0  0  0  0  0  0  0  0  0  0  0
   87.0219    0.0497   -3.5137 C   0  0  0  0  0  0  0  0  0  0  0  0
   85.7534    0.1582   -2.8832 C   0  0  0  0  0  0  0  0  0  0  0  0
   85.9842    0.1532   -1.5330 N   0  0  0  0  0  0  0  0  0  0  0  0
   84.5010    0.2405   -3.5074 C   0  0  0  0  0  0  0  0  0  0  0  0
   84.5043    0.3046   -4.9863 C   0  0  0  0  0  0  0  0  0  0  0  0
   85.1799    1.3252   -5.6584 C   0  0  0  0  0  0  0  0  0  0  0  0
   85.1866    1.3923   -7.0394 C   0  0  0  0  0  0  0  0  0  0  0  0
   84.5272    0.4242   -7.8122 C   0  0  0  0  0  0  0  0  0  0  0  0
   84.4959    0.5164   -9.2001 N   0  0  0  0  0  0  0  0  0  0  0  0
   84.1159   -0.6825   -9.9475 C   0  0  0  0  0  0  0  0  0  0  0  0
   85.5428    1.3121   -9.8430 C   0  0  0  0  0  0  0  0  0  0  0  0
   83.8440   -0.5970   -7.1345 C   0  0  0  0  0  0  0  0  0  0  0  0
   83.8326   -0.6496   -5.7526 C   0  0  0  0  0  0  0  0  0  0  0  0
   83.2718    0.2647   -2.8443 C   0  0  0  0  0  0  0  0  0  0  0  0
   81.9923    0.4113   -3.5138 C   0  0  0  0  0  0  0  0  0  0  0  0
   81.0478    0.3588   -2.5510 C   0  0  0  0  0  0  0  0  0  0  0  0
   81.7527    0.1988   -1.2956 C   0  0  0  0  0  0  0  0  0  0  0  0
   83.0850    0.1589   -1.4994 N   0  0  0  0  0  0  0  0  0  0  0  0
   79.9824   -0.1769    2.5852 H   0  0  0  0  0  0  0  0  0  0  0  0
   81.8472   -0.1802    4.5008 H   0  0  0  0  0  0  0  0  0  0  0  0
   83.7708    0.1611    0.7592 H   0  0  0  0  0  0  0  0  0  0  0  0
   83.3508    1.8940    5.0867 H   0  0  0  0  0  0  0  0  0  0  0  0
   83.3351    1.9310    7.5101 H   0  0  0  0  0  0  0  0  0  0  0  0
   83.6251    0.8349   10.8917 H   0  0  0  0  0  0  0  0  0  0  0  0
   83.6589    2.0166    9.5818 H   0  0  0  0  0  0  0  0  0  0  0  0
   82.5090    0.6532    9.5162 H   0  0  0  0  0  0  0  0  0  0  0  0
   85.9358   -1.3284    9.6171 H   0  0  0  0  0  0  0  0  0  0  0  0
   84.2443   -1.8960    9.5614 H   0  0  0  0  0  0  0  0  0  0  0  0
   84.8225   -0.8951   10.9158 H   0  0  0  0  0  0  0  0  0  0  0  0
   85.7067   -1.6717    7.5516 H   0  0  0  0  0  0  0  0  0  0  0  0
   85.7015   -1.6840    5.1276 H   0  0  0  0  0  0  0  0  0  0  0  0
   87.1742    0.3453    4.5192 H   0  0  0  0  0  0  0  0  0  0  0  0
   89.0523    0.3035    2.5955 H   0  0  0  0  0  0  0  0  0  0  0  0
   89.0450   -0.0799   -2.6646 H   0  0  0  0  0  0  0  0  0  0  0  0
   87.1806    0.0006   -4.5786 H   0  0  0  0  0  0  0  0  0  0  0  0
   85.2577    0.1970   -0.8263 H   0  0  0  0  0  0  0  0  0  0  0  0
   85.6887    2.0950   -5.0881 H   0  0  0  0  0  0  0  0  0  0  0  0
   85.7079    2.2165   -7.5091 H   0  0  0  0  0  0  0  0  0  0  0  0
   84.7620   -1.5325   -9.7010 H   0  0  0  0  0  0  0  0  0  0  0  0
   83.0790   -0.9375   -9.7268 H   0  0  0  0  0  0  0  0  0  0  0  0
   84.1930   -0.4725  -11.0138 H   0  0  0  0  0  0  0  0  0  0  0  0
   86.5419    0.9822   -9.5376 H   0  0  0  0  0  0  0  0  0  0  0  0
   85.4487    1.2134  -10.9238 H   0  0  0  0  0  0  0  0  0  0  0  0
   85.4137    2.3642   -9.5864 H   0  0  0  0  0  0  0  0  0  0  0  0
   83.3111   -1.3657   -7.6791 H   0  0  0  0  0  0  0  0  0  0  0  0
   83.3127   -1.4625   -5.2574 H   0  0  0  0  0  0  0  0  0  0  0  0
   81.8553    0.5517   -4.5737 H   0  0  0  0  0  0  0  0  0  0  0  0
   79.9769    0.4327   -2.6535 H   0  0  0  0  0  0  0  0  0  0  0  0
   97.1116    0.0420   -0.0107 C   0  0  0  0  0  0  0  0  0  0  0  0
   97.7349   -0.0237    1.2516 C   0  0  0  0  0  0  0  0  0  0  0  0
   97.0819   -0.1370    2.5051 C   0  0  0  0  0  0  0  0  0  0  0  0
   98.0417   -0.1313    3.4812 C   0  0  0  0  0  0  0  0  0  0  0  0
   99.3084   -0.0059    2.8505 C   0  0  0  0  0  0  0  0  0  0  0  0
   99.0729    0.0407    1.5020 N   0  0  0  0  0  0  0  0  0  0  0  0
  100.5634    0.0477    3.4731 C   0  0  0  0  0  0  0  0  0  0  0  0
  100.5641    0.0635    4.9533 C   0  0  0  0  0  0  0  0  0  0  0  0
   99.8959    1.0670    5.6578 C   0  0  0  0  0  0  0  0  0  0  0  0
   99.8959    1.0947    7.0401 C   0  0  0  0  0  0  0  0  0  0  0  0
  100.5558    0.1027    7.7815 C   0  0  0  0  0  0  0  0  0  0  0  0
  100.5979    0.1554    9.1711 N   0  0  0  0  0  0  0  0  0  0  0  0
   99.5706    0.9506    9.8450 C   0  0  0  0  0  0  0  0  0  0  0  0
  100.9635   -1.0707    9.8810 C   0  0  0  0  0  0  0  0  0  0  0  0
  101.2298   -0.9026    7.0714 C   0  0  0  0  0  0  0  0  0  0  0  0
  101.2341   -0.9160    5.6886 C   0  0  0  0  0  0  0  0  0  0  0  0
  101.7908    0.0928    2.8081 C   0  0  0  0  0  0  0  0  0  0  0  0
  103.0725    0.2094    3.4793 C   0  0  0  0  0  0  0  0  0  0  0  0
  104.0140    0.1973    2.5124 C   0  0  0  0  0  0  0  0  0  0  0  0
  101.9737    0.0424    1.4592 N   0  0  0  0  0  0  0  0  0  0  0  0
  103.3052    0.0910    1.2534 C   0  0  0  0  0  0  0  0  0  0  0  0
  103.9658    0.0451    0.0083 C   0  0  0  0  0  0  0  0  0  0  0  0
  103.3427    0.0241   -1.2556 C   0  0  0  0  0  0  0  0  0  0  0  0
  103.9958   -0.0440   -2.5124 C   0  0  0  0  0  0  0  0  0  0  0  0
  103.0359   -0.0053   -3.4877 C   0  0  0  0  0  0  0  0  0  0  0  0
  101.7690    0.0958   -2.8528 C   0  0  0  0  0  0  0  0  0  0  0  0
  102.0046    0.0956   -1.5036 N   0  0  0  0  0  0  0  0  0  0  0  0
  100.5140    0.1693   -3.4731 C   0  0  0  0  0  0  0  0  0  0  0  0
  100.5126    0.2353   -4.9520 C   0  0  0  0  0  0  0  0  0  0  0  0
  101.1760    1.2648   -5.6225 C   0  0  0  0  0  0  0  0  0  0  0  0
  101.1746    1.3393   -7.0031 C   0  0  0  0  0  0  0  0  0  0  0  0
  100.5188    0.3699   -7.7772 C   0  0  0  0  0  0  0  0  0  0  0  0
  100.4752    0.4694   -9.1642 N   0  0  0  0  0  0  0  0  0  0  0  0
  100.1168   -0.7342   -9.9152 C   0  0  0  0  0  0  0  0  0  0  0  0
  101.4974    1.2930   -9.8113 C   0  0  0  0  0  0  0  0  0  0  0  0
   99.8500   -0.6619   -7.1011 C   0  0  0  0  0  0  0  0  0  0  0  0
   99.8464   -0.7218   -5.7195 C   0  0  0  0  0  0  0  0  0  0  0  0
   99.2866    0.1900   -2.8069 C   0  0  0  0  0  0  0  0  0  0  0  0
   98.0048    0.3288   -3.4738 C   0  0  0  0  0  0  0  0  0  0  0  0
   97.0632    0.2823   -2.5080 C   0  0  0  0  0  0  0  0  0  0  0  0
   97.7720    0.1326   -1.2534 C   0  0  0  0  0  0  0  0  0  0  0  0
   99.1036    0.0924   -1.4607 N   0  0  0  0  0  0  0  0  0  0  0  0
   96.0147   -0.2173    2.6354 H   0  0  0  0  0  0  0  0  0  0  0  0
   97.8863   -0.2198    4.5441 H   0  0  0  0  0  0  0  0  0  0  0  0
   99.7969    0.1090    0.7946 H   0  0  0  0  0  0  0  0  0  0  0  0
   99.3876    1.8548    5.1121 H   0  0  0  0  0  0  0  0  0  0  0  0
   99.3796    1.9070    7.5352 H   0  0  0  0  0  0  0  0  0  0  0  0
   99.6812    0.8310   10.9221 H   0  0  0  0  0  0  0  0  0  0  0  0
   99.7081    2.0056    9.6057 H   0  0  0  0  0  0  0  0  0  0  0  0
   98.5629    0.6378    9.5500 H   0  0  0  0  0  0  0  0  0  0  0  0
  101.9994   -1.3278    9.6572 H   0  0  0  0  0  0  0  0  0  0  0  0
  100.3114   -1.9061    9.6031 H   0  0  0  0  0  0  0  0  0  0  0  0
  100.8823   -0.8954   10.9531 H   0  0  0  0  0  0  0  0  0  0  0  0
  101.7622   -1.6883    7.5916 H   0  0  0  0  0  0  0  0  0  0  0  0
  101.7476   -1.7170    5.1678 H   0  0  0  0  0  0  0  0  0  0  0  0
  103.2130    0.3043    4.5438 H   0  0  0  0  0  0  0  0  0  0  0  0
  105.0853    0.2661    2.6146 H   0  0  0  0  0  0  0  0  0  0  0  0
  105.0630   -0.1180   -2.6455 H   0  0  0  0  0  0  0  0  0  0  0  0
  103.1911   -0.0560   -4.5530 H   0  0  0  0  0  0  0  0  0  0  0  0
  101.2806    0.1379   -0.7941 H   0  0  0  0  0  0  0  0  0  0  0  0
  101.6814    2.0359   -5.0508 H   0  0  0  0  0  0  0  0  0  0  0  0
  101.6868    2.1702   -7.4708 H   0  0  0  0  0  0  0  0  0  0  0  0
  100.7762   -1.5736   -9.6684 H   0  0  0  0  0  0  0  0  0  0  0  0
   99.0837   -1.0070   -9.6977 H   0  0  0  0  0  0  0  0  0  0  0  0
  100.1933   -0.5211  -10.9809 H   0  0  0  0  0  0  0  0  0  0  0  0
  102.5072    0.9769   -9.5269 H   0  0  0  0  0  0  0  0  0  0  0  0
  101.3874    1.2085  -10.8918 H   0  0  0  0  0  0  0  0  0  0  0  0
  101.3533    2.3385   -9.5371 H   0  0  0  0  0  0  0  0  0  0  0  0
   99.3209   -1.4322   -7.6472 H   0  0  0  0  0  0  0  0  0  0  0  0
   99.3365   -1.5419   -5.2256 H   0  0  0  0  0  0  0  0  0  0  0  0
   97.8645    0.4605   -4.5344 H   0  0  0  0  0  0  0  0  0  0  0  0
   95.9919    0.3537   -2.6079 H   0  0  0  0  0  0  0  0  0  0  0  0
  113.1377    0.0756    0.0118 C   0  0  0  0  0  0  0  0  0  0  0  0
  113.7564    0.0133    1.2765 C   0  0  0  0  0  0  0  0  0  0  0  0
  113.0987   -0.0989    2.5277 C   0  0  0  0  0  0  0  0  0  0  0  0
  114.0545   -0.0886    3.5076 C   0  0  0  0  0  0  0  0  0  0  0  0
  115.3236    0.0379    2.8817 C   0  0  0  0  0  0  0  0  0  0  0  0
  115.0933    0.0818    1.5321 N   0  0  0  0  0  0  0  0  0  0  0  0
  116.5761    0.0923    3.5089 C   0  0  0  0  0  0  0  0  0  0  0  0
  116.5716    0.1060    4.9891 C   0  0  0  0  0  0  0  0  0  0  0  0
  115.9002    1.1069    5.6942 C   0  0  0  0  0  0  0  0  0  0  0  0
  115.8929    1.1286    7.0767 C   0  0  0  0  0  0  0  0  0  0  0  0
  116.5479    0.1330    7.8175 C   0  0  0  0  0  0  0  0  0  0  0  0
  116.5802    0.1796    9.2076 N   0  0  0  0  0  0  0  0  0  0  0  0
  115.5394    0.9609    9.8773 C   0  0  0  0  0  0  0  0  0  0  0  0
  116.9522   -1.0461    9.9147 C   0  0  0  0  0  0  0  0  0  0  0  0
  117.2264   -0.8688    7.1068 C   0  0  0  0  0  0  0  0  0  0  0  0
  117.2381   -0.8763    5.7239 C   0  0  0  0  0  0  0  0  0  0  0  0
  117.8057    0.1343    2.8475 C   0  0  0  0  0  0  0  0  0  0  0  0
  119.0859    0.2479    3.5221 C   0  0  0  0  0  0  0  0  0  0  0  0
  120.0303    0.2279    2.5580 C   0  0  0  0  0  0  0  0  0  0  0  0
  117.9923    0.0795    1.4995 N   0  0  0  0  0  0  0  0  0  0  0  0
  119.3248    0.1210    1.2973 C   0  0  0  0  0  0  0  0  0  0  0  0
  119.9882    0.0676    0.0544 C   0  0  0  0  0  0  0  0  0  0  0  0
  119.3697    0.0516   -1.2117 C   0  0  0  0  0  0  0  0  0  0  0  0
  120.0275   -0.0166   -2.4661 C   0  0  0  0  0  0  0  0  0  0  0  0
  119.0718    0.0284   -3.4452 C   0  0  0  0  0  0  0  0  0  0  0  0
  117.8028    0.1330   -2.8151 C   0  0  0  0  0  0  0  0  0  0  0  0
  118.0329    0.1299   -1.4650 N   0  0  0  0  0  0  0  0  0  0  0  0
  116.5502    0.2095   -3.4400 C   0  0  0  0  0  0  0  0  0  0  0  0
  116.5540    0.2728   -4.9190 C   0  0  0  0  0  0  0  0  0  0  0  0
  117.2207    1.2995   -5.5905 C   0  0  0  0  0  0  0  0  0  0  0  0
  117.2246    1.3691   -6.9715 C   0  0  0  0  0  0  0  0  0  0  0  0
  116.5711    0.3975   -7.7447 C   0  0  0  0  0  0  0  0  0  0  0  0
  116.5326    0.4920   -9.1322 N   0  0  0  0  0  0  0  0  0  0  0  0
  116.1758   -0.7137   -9.8804 C   0  0  0  0  0  0  0  0  0  0  0  0
  117.5568    1.3132   -9.7789 C   0  0  0  0  0  0  0  0  0  0  0  0
  115.8991   -0.6316   -7.0675 C   0  0  0  0  0  0  0  0  0  0  0  0
  115.8901   -0.6865   -5.6857 C   0  0  0  0  0  0  0  0  0  0  0  0
  115.3209    0.2308   -2.7775 C   0  0  0  0  0  0  0  0  0  0  0  0
  114.0411    0.3696   -3.4481 C   0  0  0  0  0  0  0  0  0  0  0  0
  113.0966    0.3200   -2.4853 C   0  0  0  0  0  0  0  0  0  0  0  0
  113.8017    0.1691   -1.2287 C   0  0  0  0  0  0  0  0  0  0  0  0
  115.1339    0.1312   -1.4320 N   0  0  0  0  0  0  0  0  0  0  0  0
  112.0313   -0.1815    2.6539 H   0  0  0  0  0  0  0  0  0  0  0  0
  113.8951   -0.1750    4.5700 H   0  0  0  0  0  0  0  0  0  0  0  0
  115.8202    0.1487    0.8276 H   0  0  0  0  0  0  0  0  0  0  0  0
  115.3951    1.8973    5.1493 H   0  0  0  0  0  0  0  0  0  0  0  0
  115.3746    1.9391    7.5728 H   0  0  0  0  0  0  0  0  0  0  0  0
  115.6378    0.8310   10.9545 H   0  0  0  0  0  0  0  0  0  0  0  0
  115.6721    2.0193    9.6504 H   0  0  0  0  0  0  0  0  0  0  0  0
  114.5376    0.6441    9.5670 H   0  0  0  0  0  0  0  0  0  0  0  0
  117.9891   -1.2976    9.6896 H   0  0  0  0  0  0  0  0  0  0  0  0
  116.3040   -1.8843    9.6360 H   0  0  0  0  0  0  0  0  0  0  0  0
  116.8713   -0.8730   10.9873 H   0  0  0  0  0  0  0  0  0  0  0  0
  117.7556   -1.6573    7.6261 H   0  0  0  0  0  0  0  0  0  0  0  0
  117.7541   -1.6752    5.2025 H   0  0  0  0  0  0  0  0  0  0  0  0
  119.2234    0.3460    4.5867 H   0  0  0  0  0  0  0  0  0  0  0  0
  121.1015    0.2923    2.6633 H   0  0  0  0  0  0  0  0  0  0  0  0
  121.0949   -0.0945   -2.5954 H   0  0  0  0  0  0  0  0  0  0  0  0
  119.2310   -0.0202   -4.5100 H   0  0  0  0  0  0  0  0  0  0  0  0
  117.3061    0.1723   -0.7584 H   0  0  0  0  0  0  0  0  0  0  0  0
  117.7247    2.0721   -5.0197 H   0  0  0  0  0  0  0  0  0  0  0  0
  117.7393    2.1979   -7.4402 H   0  0  0  0  0  0  0  0  0  0  0  0
  116.8344   -1.5526   -9.6295 H   0  0  0  0  0  0  0  0  0  0  0  0
  115.1421   -0.9857   -9.6645 H   0  0  0  0  0  0  0  0  0  0  0  0
  116.2549   -0.5039  -10.9465 H   0  0  0  0  0  0  0  0  0  0  0  0
  118.5657    0.9979   -9.4908 H   0  0  0  0  0  0  0  0  0  0  0  0
  117.4497    1.2255  -10.8595 H   0  0  0  0  0  0  0  0  0  0  0  0
  117.4122    2.3597   -9.5083 H   0  0  0  0  0  0  0  0  0  0  0  0
  115.3719   -1.4037   -7.6128 H   0  0  0  0  0  0  0  0  0  0  0  0
  115.3779   -1.5045   -5.1908 H   0  0  0  0  0  0  0  0  0  0  0  0
  113.9041    0.5033   -4.5089 H   0  0  0  0  0  0  0  0  0  0  0  0
  112.0255    0.3905   -2.5883 H   0  0  0  0  0  0  0  0  0  0  0  0
  1  2  4  0  0  0  0
  2  3  4  0  0  0  0
  3  4  2  0  0  0  0
  4  5  4  0  0  0  0
  2  6  4  0  0  0  0
  5  6  4  0  0  0  0
  5  7  4  0  0  0  0
  7  8  1  0  0  0  0
  8  9  4  0  0  0  0
  9 10  4  0  0  0  0
 10 11  4  0  0  0  0
 11 12  1  0  0  0  0
 12 13  1  0  0  0  0
 12 14  1  0  0  0  0
 11 15  4  0  0  0  0
  8 16  4  0  0  0  0
 15 16  4  0  0  0  0
  7 17  4  0  0  0  0
 17 18  1  0  0  0  0
 18 19  2  0  0  0  0
 17 20  4  0  0  0  0
 19 21  1  0  0  0  0
 20 21  4  0  0  0  0
 21 22  4  0  0  0  0
 22 23  4  0  0  0  0
 23 24  4  0  0  0  0
 24 25  2  0  0  0  0
 25 26  4  0  0  0  0
 23 27  4  0  0  0  0
 26 27  4  0  0  0  0
 26 28  4  0  0  0  0
 28 29  1  0  0  0  0
 29 30  4  0  0  0  0
 30 31  4  0  0  0  0
 31 32  4  0  0  0  0
 32 33  1  0  0  0  0
 33 34  1  0  0  0  0
 33 35  1  0  0  0  0
 32 36  4  0  0  0  0
 29 37  4  0  0  0  0
 36 37  4  0  0  0  0
 28 38  4  0  0  0  0
 38 39  1  0  0  0  0
 39 40  2  0  0  0  0
  1 41  4  0  0  0  0
 40 41  1  0  0  0  0
 38 42  4  0  0  0  0
 41 42  4  0  0  0  0
  1 43  1  0  0  0  0
  3 44  1  0  0  0  0
  4 45  1  0  0  0  0
  6 46  1  0  0  0  0
  9 47  1  0  0  0  0
 10 48  1  0  0  0  0
 13 49  1  0  0  0  0
 13 50  1  0  0  0  0
 13 51  1  0  0  0  0
 14 52  1  0  0  0  0
 14 53  1  0  0  0  0
 14 54  1  0  0  0  0
 15 55  1  0  0  0  0
 16 56  1  0  0  0  0
 18 57  1  0  0  0  0
 19 58  1  0  0  0  0
 24 59  1  0  0  0  0
 25 60  1  0  0  0  0
 27 61  1  0  0  0  0
 30 62  1  0  0  0  0
 31 63  1  0  0  0  0
 34 64  1  0  0  0  0
 34 65  1  0  0  0  0
 34 66  1  0  0  0  0
 35 67  1  0  0  0  0
 35 68  1  0  0  0  0
 35 69  1  0  0  0  0
 36 70  1  0  0  0  0
 37 71  1  0  0  0  0
 39 72  1  0  0  0  0
 40 73  1  0  0  0  0
 74 75  4  0  0  0  0
 75 76  4  0  0  0  0
 76 77  2  0  0  0  0
 77 78  4  0  0  0  0
 75 79  4  0  0  0  0
 78 79  4  0  0  0  0
 78 80  4  0  0  0  0
 80 81  1  0  0  0  0
 81 82  4  0  0  0  0
 82 83  4  0  0  0  0
 83 84  4  0  0  0  0
 84 85  1  0  0  0  0
 85 86  1  0  0  0  0
 85 87  1  0  0  0  0
 84 88  4  0  0  0  0
 81 89  4  0  0  0  0
 88 89  4  0  0  0  0
 80 90  4  0  0  0  0
 90 91  1  0  0  0  0
 91 92  2  0  0  0  0
 90 93  4  0  0  0  0
 92 94  1  0  0  0  0
 93 94  4  0  0  0  0
 94 95  4  0  0  0  0
 95 96  4  0  0  0  0
 96 97  4  0  0  0  0
 97 98  2  0  0  0  0
 98 99  4  0  0  0  0
 96100  4  0  0  0  0
 99100  4  0  0  0  0
 99101  4  0  0  0  0
101102  1  0  0  0  0
102103  4  0  0  0  0
103104  4  0  0  0  0
104105  4  0  0  0  0
105106  1  0  0  0  0
106107  1  0  0  0  0
106108  1  0  0  0  0
105109  4  0  0  0  0
102110  4  0  0  0  0
109110  4  0  0  0  0
101111  4  0  0  0  0
111112  1  0  0  0  0
112113  2  0  0  0  0
 74114  4  0  0  0  0
113114  1  0  0  0  0
111115  4  0  0  0  0
114115  4  0  0  0  0
 74116  1  0  0  0  0
 76117  1  0  0  0  0
 77118  1  0  0  0  0
 79119  1  0  0  0  0
 82120  1  0  0  0  0
 83121  1  0  0  0  0
 86122  1  0  0  0  0
 86123  1  0  0  0  0
 86124  1  0  0  0  0
 87125  1  0  0  0  0
 87126  1  0  0  0  0
 87127  1  0  0  0  0
 88128  1  0  0  0  0
 89129  1  0  0  0  0
 91130  1  0  0  0  0
 92131  1  0  0  0  0
 97132  1  0  0  0  0
 98133  1  0  0  0  0
100134  1  0  0  0  0
103135  1  0  0  0  0
104136  1  0  0  0  0
107137  1  0  0  0  0
107138  1  0  0  0  0
107139  1  0  0  0  0
108140  1  0  0  0  0
108141  1  0  0  0  0
108142  1  0  0  0  0
109143  1  0  0  0  0
110144  1  0  0  0  0
112145  1  0  0  0  0
113146  1  0  0  0  0
147148  3  0  0  0  0
148149  4  0  0  0  0
 22150  4  0  0  0  0
149150  3  0  0  0  0
147151  4  0  0  0  0
151152  3  0  0  0  0
153154  3  0  0  0  0
154155  4  0  0  0  0
155156  3  0  0  0  0
153157  4  0  0  0  0
157158  3  0  0  0  0
159160  3  0  0  0  0
160161  4  0  0  0  0
161162  3  0  0  0  0
159163  4  0  0  0  0
163164  3  0  0  0  0
165166  3  0  0  0  0
166167  4  0  0  0  0
167168  3  0  0  0  0
165169  4  0  0  0  0
 95170  4  0  0  0  0
169170  3  0  0  0  0
152171  4  0  0  0  0
171172  4  0  0  0  0
172173  4  0  0  0  0
173174  2  0  0  0  0
174175  4  0  0  0  0
172176  4  0  0  0  0
175176  4  0  0  0  0
175177  4  0  0  0  0
177178  1  0  0  0  0
178179  4  0  0  0  0
179180  4  0  0  0  0
180181  4  0  0  0  0
181182  1  0  0  0  0
182183  1  0  0  0  0
182184  1  0  0  0  0
181185  4  0  0  0  0
178186  4  0  0  0  0
185186  4  0  0  0  0
177187  4  0  0  0  0
187188  1  0  0  0  0
188189  2  0  0  0  0
187190  4  0  0  0  0
189191  1  0  0  0  0
190191  4  0  0  0  0
156192  4  0  0  0  0
191192  4  0  0  0  0
192193  4  0  0  0  0
193194  4  0  0  0  0
194195  2  0  0  0  0
195196  4  0  0  0  0
193197  4  0  0  0  0
196197  4  0  0  0  0
196198  4  0  0  0  0
198199  1  0  0  0  0
199200  4  0  0  0  0
200201  4  0  0  0  0
201202  4  0  0  0  0
202203  1  0  0  0  0
203204  1  0  0  0  0
203205  1  0  0  0  0
202206  4  0  0  0  0
199207  4  0  0  0  0
206207  4  0  0  0  0
198208  4  0  0  0  0
208209  1  0  0  0  0
209210  2  0  0  0  0
171211  4  0  0  0  0
210211  1  0  0  0  0
208212  4  0  0  0  0
211212  4  0  0  0  0
173213  1  0  0  0  0
174214  1  0  0  0  0
176215  1  0  0  0  0
179216  1  0  0  0  0
180217  1  0  0  0  0
183218  1  0  0  0  0
183219  1  0  0  0  0
183220  1  0  0  0  0
184221  1  0  0  0  0
184222  1  0  0  0  0
184223  1  0  0  0  0
185224  1  0  0  0  0
186225  1  0  0  0  0
188226  1  0  0  0  0
189227  1  0  0  0  0
194228  1  0  0  0  0
195229  1  0  0  0  0
197230  1  0  0  0  0
200231  1  0  0  0  0
201232  1  0  0  0  0
204233  1  0  0  0  0
204234  1  0  0  0  0
204235  1  0  0  0  0
205236  1  0  0  0  0
205237  1  0  0  0  0
205238  1  0  0  0  0
206239  1  0  0  0  0
207240  1  0  0  0  0
209241  1  0  0  0  0
210242  1  0  0  0  0
158243  4  0  0  0  0
243244  4  0  0  0  0
244245  4  0  0  0  0
245246  2  0  0  0  0
246247  4  0  0  0  0
244248  4  0  0  0  0
247248  4  0  0  0  0
247249  4  0  0  0  0
249250  1  0  0  0  0
250251  4  0  0  0  0
251252  4  0  0  0  0
252253  4  0  0  0  0
253254  1  0  0  0  0
254255  1  0  0  0  0
254256  1  0  0  0  0
253257  4  0  0  0  0
250258  4  0  0  0  0
257258  4  0  0  0  0
249259  4  0  0  0  0
259260  1  0  0  0  0
260261  2  0  0  0  0
259262  4  0  0  0  0
261263  1  0  0  0  0
262263  4  0  0  0  0
162264  4  0  0  0  0
263264  4  0  0  0  0
264265  4  0  0  0  0
265266  4  0  0  0  0
266267  2  0  0  0  0
267268  4  0  0  0  0
265269  4  0  0  0  0
268269  4  0  0  0  0
268270  4  0  0  0  0
270271  1  0  0  0  0
271272  4  0  0  0  0
272273  4  0  0  0  0
273274  4  0  0  0  0
274275  1  0  0  0  0
275276  1  0  0  0  0
275277  1  0  0  0  0
274278  4  0  0  0  0
271279  4  0  0  0  0
278279  4  0  0  0  0
270280  4  0  0  0  0
280281  1  0  0  0  0
281282  2  0  0  0  0
243283  4  0  0  0  0
282283  1  0  0  0  0
280284  4  0  0  0  0
283284  4  0  0  0  0
245285  1  0  0  0  0
246286  1  0  0  0  0
248287  1  0  0  0  0
251288  1  0  0  0  0
252289  1  0  0  0  0
255290  1  0  0  0  0
255291  1  0  0  0  0
255292  1  0  0  0  0
256293  1  0  0  0  0
256294  1  0  0  0  0
256295  1  0  0  0  0
257296  1  0  0  0  0
258297  1  0  0  0  0
260298  1  0  0  0  0
261299  1  0  0  0  0
266300  1  0  0  0  0
267301  1  0  0  0  0
269302  1  0  0  0  0
272303  1  0  0  0  0
273304  1  0  0  0  0
276305  1  0  0  0  0
276306  1  0  0  0  0
276307  1  0  0  0  0
277308  1  0  0  0  0
277309  1  0  0  0  0
277310  1  0  0  0  0
278311  1  0  0  0  0
279312  1  0  0  0  0
281313  1  0  0  0  0
282314  1  0  0  0  0
164315  4  0  0  0  0
315316  4  0  0  0  0
316317  4  0  0  0  0
317318  2  0  0  0  0
318319  4  0  0  0  0
316320  4  0  0  0  0
319320  4  0  0  0  0
319321  4  0  0  0  0
321322  1  0  0  0  0
322323  4  0  0  0  0
323324  4  0  0  0  0
324325  4  0  0  0  0
325326  1  0  0  0  0
326327  1  0  0  0  0
326328  1  0  0  0  0
325329  4  0  0  0  0
322330  4  0  0  0  0
329330  4  0  0  0  0
321331  4  0  0  0  0
331332  1  0  0  0  0
332333  2  0  0  0  0
331334  4  0  0  0  0
333335  1  0  0  0  0
334335  4  0  0  0  0
168336  4  0  0  0  0
335336  4  0  0  0  0
336337  4  0  0  0  0
337338  4  0  0  0  0
338339  2  0  0  0  0
339340  4  0  0  0  0
337341  4  0  0  0  0
340341  4  0  0  0  0
340342  4  0  0  0  0
342343  1  0  0  0  0
343344  4  0  0  0  0
344345  4  0  0  0  0
345346  4  0  0  0  0
346347  1  0  0  0  0
347348  1  0  0  0  0
347349  1  0  0  0  0
346350  4  0  0  0  0
343351  4  0  0  0  0
350351  4  0  0  0  0
342352  4  0  0  0  0
352353  1  0  0  0  0
353354  2  0  0  0  0
315355  4  0  0  0  0
354355  1  0  0  0  0
352356  4  0  0  0  0
355356  4  0  0  0  0
317357  1  0  0  0  0
318358  1  0  0  0  0
320359  1  0  0  0  0
323360  1  0  0  0  0
324361  1  0  0  0  0
327362  1  0  0  0  0
327363  1  0  0  0  0
327364  1  0  0  0  0
328365  1  0  0  0  0
328366  1  0  0  0  0
328367  1  0  0  0  0
329368  1  0  0  0  0
330369  1  0  0  0  0
332370  1  0  0  0  0
333371  1  0  0  0  0
338372  1  0  0  0  0
339373  1  0  0  0  0
341374  1  0  0  0  0
344375  1  0  0  0  0
345376  1  0  0  0  0
348377  1  0  0  0  0
348378  1  0  0  0  0
348379  1  0  0  0  0
349380  1  0  0  0  0
349381  1  0  0  0  0
349382  1  0  0  0  0
350383  1  0  0  0  0
351384  1  0  0  0  0
353385  1  0  0  0  0
354386  1  0  0  0  0
M  END
