458

C 85.296769 -0.043436 -0.174529
C 86.029084 -1.408531 0.003300
C 85.429002 -2.646649 0.027069
C 86.452390 -3.599498 0.269516
C 87.642053 -2.908410 0.394249
N 87.379046 -1.579545 0.175046
C 89.059187 -3.519832 0.751805
C 89.091989 -4.906638 1.267641
C 89.393378 -5.971088 0.406990
C 89.418338 -7.281233 0.887827
C 89.136988 -7.520677 2.240042
N 89.160680 -8.895476 2.751418
O 89.430130 -9.809033 1.955791
O 88.907958 -9.075591 3.952971
C 88.832603 -6.464527 3.109892
C 88.811120 -5.158671 2.617117
C 90.190049 -2.773829 0.634179
C 91.489489 -3.286099 1.019240
C 92.392377 -2.333522 0.817889
N 90.389903 -1.492338 0.195202
C 91.718606 -1.167222 0.282689
C 92.386998 -0.025410 -0.030475
C 91.611368 1.217646 -0.637700
C 92.151453 2.206243 -1.436477
C 91.125516 3.146749 -1.704369
C 89.986315 2.700808 -1.068864
N 90.277318 1.497996 -0.470344
C 88.578199 3.427364 -1.047933
C 88.552473 4.890410 -1.256525
C 88.190944 5.421372 -2.502504
C 88.175699 6.802542 -2.703664
C 88.528708 7.652878 -1.646796
N 88.514495 9.105454 -1.851394
O 88.199949 9.533204 -2.973214
O 88.818559 9.832895 -0.893037
C 88.895390 7.133962 -0.397515
C 88.906267 5.750739 -0.208999
C 87.449705 2.708267 -0.817412
C 86.127321 3.307360 -0.772201
C 85.240104 2.343900 -0.542328
C 85.961459 1.101171 -0.419587
N 87.283506 1.372226 -0.584596
H 84.218091 -0.028508 -0.073848
H 84.374833 -2.840283 -0.099025
H 86.328083 -4.667158 0.367167
H 88.075061 -0.838501 0.146140
H 89.612445 -5.758956 -0.638374
H 89.658037 -8.087807 0.200657
H 88.613136 -6.632118 4.160616
H 88.579617 -4.321561 3.273977
H 91.700412 -4.263615 1.413796
H 93.442952 -2.433922 1.021080
H 93.173533 2.254587 -1.780489
H 91.211254 4.048896 -2.290672
H 89.594622 0.888605 -0.027461
H 87.917692 4.740213 -3.307062
H 87.887914 7.187799 -3.677785
H 89.172215 7.778324 0.432227
H 89.186835 5.325095 0.753233
H 85.896396 4.349170 -0.900135
H 84.175601 2.463779 -0.452452
C 191.109806 -0.083884 -0.163356
C 190.377491 1.178929 -0.711453
C 190.977573 2.253690 -1.326587
C 189.954185 3.195881 -1.607619
C 188.764522 2.666811 -1.145833
N 189.027529 1.413852 -0.651842
C 187.347388 3.375072 -1.152823
C 187.314586 4.830019 -1.421985
C 187.013197 5.301759 -2.706989
C 186.988237 6.672950 -2.966836
C 187.269586 7.572542 -1.929264
N 187.245895 9.014894 -2.196090
O 186.976445 9.390515 -3.347836
O 187.498617 9.786234 -1.257365
C 187.573972 7.112645 -0.640627
C 187.595455 5.739009 -0.393226
C 186.216526 2.674469 -0.870843
C 184.917086 3.311757 -0.803332
C 184.014198 2.390894 -0.487170
N 186.016672 1.349357 -0.589780
C 184.687969 1.115248 -0.347814
C 184.019577 -0.025410 -0.030475
C 184.795207 -1.403900 0.086468
C 184.255122 -2.662337 -0.091595
C 185.281059 -3.606995 0.161266
C 186.420260 -2.898078 0.477756
N 186.129257 -1.558593 0.373999
C 187.828376 -3.510868 0.868664
C 187.854102 -4.873535 1.440639
C 188.215631 -5.968777 0.643877
C 188.230876 -7.257362 1.180203
C 187.877867 -7.444629 2.523696
N 187.892080 -8.796260 3.093724
O 188.206626 -9.739194 2.350537
O 187.588016 -8.928625 4.289590
C 187.511185 -6.358030 3.329474
C 187.500308 -5.074174 2.781243
C 188.956870 -2.775407 0.697382
C 190.279254 -3.266346 1.043700
C 191.166471 -2.321504 0.746429
C 190.445116 -1.191982 0.213867
N 189.123069 -1.509303 0.211389
H 192.188484 -0.045015 -0.069288
H 192.031742 2.355143 -1.534194
H 190.078492 4.162277 -2.071851
H 188.331514 0.763047 -0.296267
H 186.794129 4.583115 -3.495237
H 186.748538 7.012428 -3.970588
H 187.793439 7.795816 0.175085
H 187.826958 5.357765 0.600188
H 184.706163 4.353195 -0.966487
H 182.963623 2.581358 -0.364326
H 183.233042 -2.880409 -0.362013
H 185.195320 -4.682176 0.121174
H 186.811953 -0.808277 0.441280
H 188.488883 -5.797186 -0.396241
H 188.518661 -8.088013 0.541961
H 187.234360 -6.485114 4.372318
H 187.219740 -4.214965 3.388551
H 190.510179 -4.226102 1.468673
H 192.230974 -2.378250 0.885096
C 98.650011 -0.024308 -0.021986
C 97.441072 -0.037763 -0.030433
C 96.019543 -0.028944 -0.042416
C 94.807873 -0.021505 -0.031553
C 100.066615 -0.030983 -0.021452
C 101.287311 -0.021505 -0.031553
C 114.712859 -0.024308 -0.021986
C 113.503920 -0.037763 -0.030433
C 112.082391 -0.028944 -0.042416
C 110.870721 -0.021505 -0.031553
C 116.129464 -0.030983 -0.021452
C 117.350159 -0.021505 -0.031553
C 130.775707 -0.024308 -0.021986
C 129.566768 -0.037763 -0.030433
C 128.145239 -0.028944 -0.042416
C 126.933570 -0.021505 -0.031553
C 132.192312 -0.030983 -0.021452
C 133.413007 -0.021505 -0.031553
C 146.838555 -0.024308 -0.021986
C 145.629616 -0.037763 -0.030433
C 144.208087 -0.028944 -0.042416
C 142.996418 -0.021505 -0.031553
C 148.255160 -0.030983 -0.021452
C 149.475856 -0.021505 -0.031553
C 162.901404 -0.024308 -0.021986
C 161.692464 -0.037763 -0.030433
C 160.270935 -0.028944 -0.042416
C 159.059266 -0.021505 -0.031553
C 164.318008 -0.030983 -0.021452
C 165.538704 -0.021505 -0.031553
C 178.964252 -0.024308 -0.021986
C 177.755312 -0.037763 -0.030433
C 176.333783 -0.028944 -0.042416
C 175.122114 -0.021505 -0.031553
C 180.380856 -0.030983 -0.021452
C 181.601552 -0.021505 -0.031553
C 102.497932 0.012914 0.016180
C 103.293635 1.248602 -0.574257
C 102.793867 2.511201 -0.819668
C 103.832837 3.267977 -1.419875
C 104.935268 2.444927 -1.516747
N 104.619941 1.245562 -0.929462
C 106.321564 2.804392 -2.188848
C 106.309029 3.793111 -3.289171
C 106.746590 5.106200 -3.065844
C 106.724251 6.043479 -4.100016
C 106.256099 5.658541 -5.363859
N 106.229605 6.638838 -6.454926
O 105.824750 6.264142 -7.566539
O 106.612604 7.793755 -6.210310
C 105.812174 4.350089 -5.598665
C 105.839983 3.421881 -4.556174
C 107.458394 2.177778 -1.788622
C 108.743692 2.428987 -2.407845
C 109.653064 1.668174 -1.808197
N 107.668603 1.238248 -0.818760
C 108.992821 0.893093 -0.777514
C 109.657238 0.012914 0.016180
C 108.861484 -0.804748 1.114729
C 109.360985 -1.288438 2.306661
C 108.322036 -2.023490 2.933339
C 107.219879 -1.960457 2.106639
N 107.535349 -1.153215 1.042862
C 105.833668 -2.689408 2.329529
C 105.846248 -3.959885 3.087217
C 106.314240 -5.131612 2.478006
C 106.342036 -6.333691 3.187479
C 105.899204 -6.355665 4.517017
N 105.925737 -7.615447 5.268247
O 105.544376 -7.598056 6.449188
O 106.328990 -8.634144 4.685482
C 105.432111 -5.189681 5.139062
C 105.409709 -3.994029 4.419055
C 104.696826 -2.175780 1.791965
C 103.411526 -2.831804 1.919047
C 102.502136 -2.096598 1.288285
C 103.162376 -0.935735 0.726608
N 104.486608 -1.042851 1.057244
H 101.789006 2.845947 -0.610800
H 103.775617 4.290740 -1.760217
H 105.276610 0.492787 -0.744709
H 107.108291 5.381065 -2.076125
H 107.072768 7.053019 -3.901011
H 105.445210 4.035011 -6.571518
H 105.499461 2.399979 -4.716148
H 108.940006 3.105417 -3.219970
H 110.697295 1.642674 -2.061542
H 110.365651 -1.147501 2.675737
H 108.379080 -2.554286 3.871506
H 106.878788 -0.827143 0.339570
H 106.653918 -5.091473 1.444159
H 106.708160 -7.227602 2.690228
H 105.084467 -5.189143 6.168322
H 105.048778 -3.075820 4.880092
H 103.215212 -3.759144 2.426129
H 101.457890 -2.340222 1.214469
C 118.560780 0.012914 0.016180
C 119.356483 1.248602 -0.574257
C 118.856715 2.511201 -0.819668
C 119.895685 3.267977 -1.419875
C 120.998116 2.444927 -1.516747
N 120.682789 1.245562 -0.929462
C 122.384412 2.804392 -2.188848
C 122.371877 3.793111 -3.289171
C 122.809438 5.106200 -3.065844
C 122.787099 6.043479 -4.100016
C 122.318947 5.658541 -5.363859
N 122.292453 6.638838 -6.454926
O 121.887599 6.264142 -7.566539
O 122.675452 7.793755 -6.210310
C 121.875022 4.350089 -5.598665
C 121.902831 3.421881 -4.556174
C 123.521242 2.177778 -1.788622
C 124.806540 2.428987 -2.407845
C 125.715912 1.668174 -1.808197
N 123.731451 1.238248 -0.818760
C 125.055669 0.893093 -0.777514
C 125.720087 0.012914 0.016180
C 124.924332 -0.804748 1.114729
C 125.423833 -1.288438 2.306661
C 124.384884 -2.023490 2.933339
C 123.282727 -1.960457 2.106639
N 123.598197 -1.153215 1.042862
C 121.896516 -2.689408 2.329529
C 121.909096 -3.959885 3.087217
C 122.377088 -5.131612 2.478006
C 122.404884 -6.333691 3.187479
C 121.962052 -6.355665 4.517017
N 121.988585 -7.615447 5.268247
O 121.607224 -7.598056 6.449188
O 122.391838 -8.634144 4.685482
C 121.494959 -5.189681 5.139062
C 121.472557 -3.994029 4.419055
C 120.759674 -2.175780 1.791965
C 119.474374 -2.831804 1.919047
C 118.564984 -2.096598 1.288285
C 119.225224 -0.935735 0.726608
N 120.549456 -1.042851 1.057244
H 117.851854 2.845947 -0.610800
H 119.838466 4.290740 -1.760217
H 121.339458 0.492787 -0.744709
H 123.171139 5.381065 -2.076125
H 123.135617 7.053019 -3.901011
H 121.508058 4.035011 -6.571518
H 121.562309 2.399979 -4.716148
H 125.002854 3.105417 -3.219970
H 126.760143 1.642674 -2.061542
H 126.428499 -1.147501 2.675737
H 124.441928 -2.554286 3.871506
H 122.941637 -0.827143 0.339570
H 122.716766 -5.091473 1.444159
H 122.771008 -7.227602 2.690228
H 121.147315 -5.189143 6.168322
H 121.111626 -3.075820 4.880092
H 119.278060 -3.759144 2.426129
H 117.520738 -2.340222 1.214469
C 134.623628 0.012914 0.016180
C 135.419331 1.248602 -0.574257
C 134.919563 2.511201 -0.819668
C 135.958533 3.267977 -1.419875
C 137.060964 2.444927 -1.516747
N 136.745637 1.245562 -0.929462
C 138.447260 2.804392 -2.188848
C 138.434725 3.793111 -3.289171
C 138.872286 5.106200 -3.065844
C 138.849948 6.043479 -4.100016
C 138.381795 5.658541 -5.363859
N 138.355301 6.638838 -6.454926
O 137.950447 6.264142 -7.566539
O 138.738300 7.793755 -6.210310
C 137.937870 4.350089 -5.598665
C 137.965679 3.421881 -4.556174
C 139.584090 2.177778 -1.788622
C 140.869388 2.428987 -2.407845
C 141.778760 1.668174 -1.808197
N 139.794299 1.238248 -0.818760
C 141.118517 0.893093 -0.777514
C 141.782935 0.012914 0.016180
C 140.987180 -0.804748 1.114729
C 141.486681 -1.288438 2.306661
C 140.447732 -2.023490 2.933339
C 139.345575 -1.960457 2.106639
N 139.661045 -1.153215 1.042862
C 137.959364 -2.689408 2.329529
C 137.971945 -3.959885 3.087217
C 138.439936 -5.131612 2.478006
C 138.467732 -6.333691 3.187479
C 138.024900 -6.355665 4.517017
N 138.051433 -7.615447 5.268247
O 137.670072 -7.598056 6.449188
O 138.454686 -8.634144 4.685482
C 137.557808 -5.189681 5.139062
C 137.535405 -3.994029 4.419055
C 136.822522 -2.175780 1.791965
C 135.537222 -2.831804 1.919047
C 134.627832 -2.096598 1.288285
C 135.288073 -0.935735 0.726608
N 136.612304 -1.042851 1.057244
H 133.914702 2.845947 -0.610800
H 135.901314 4.290740 -1.760217
H 137.402306 0.492787 -0.744709
H 139.233987 5.381065 -2.076125
H 139.198465 7.053019 -3.901011
H 137.570906 4.035011 -6.571518
H 137.625157 2.399979 -4.716148
H 141.065702 3.105417 -3.219970
H 142.822991 1.642674 -2.061542
H 142.491347 -1.147501 2.675737
H 140.504777 -2.554286 3.871506
H 139.004485 -0.827143 0.339570
H 138.779615 -5.091473 1.444159
H 138.833856 -7.227602 2.690228
H 137.210163 -5.189143 6.168322
H 137.174474 -3.075820 4.880092
H 135.340908 -3.759144 2.426129
H 133.583586 -2.340222 1.214469
C 150.686476 0.012914 0.016180
C 151.482179 1.248602 -0.574257
C 150.982412 2.511201 -0.819668
C 152.021381 3.267977 -1.419875
C 153.123812 2.444927 -1.516747
N 152.808485 1.245562 -0.929462
C 154.510108 2.804392 -2.188848
C 154.497573 3.793111 -3.289171
C 154.935134 5.106200 -3.065844
C 154.912796 6.043479 -4.100016
C 154.444643 5.658541 -5.363859
N 154.418149 6.638838 -6.454926
O 154.013295 6.264142 -7.566539
O 154.801148 7.793755 -6.210310
C 154.000718 4.350089 -5.598665
C 154.028527 3.421881 -4.556174
C 155.646938 2.177778 -1.788622
C 156.932236 2.428987 -2.407845
C 157.841609 1.668174 -1.808197
N 155.857147 1.238248 -0.818760
C 157.181365 0.893093 -0.777514
C 157.845783 0.012914 0.016180
C 157.050028 -0.804748 1.114729
C 157.549529 -1.288438 2.306661
C 156.510580 -2.023490 2.933339
C 155.408423 -1.960457 2.106639
N 155.723893 -1.153215 1.042862
C 154.022212 -2.689408 2.329529
C 154.034793 -3.959885 3.087217
C 154.502784 -5.131612 2.478006
C 154.530580 -6.333691 3.187479
C 154.087748 -6.355665 4.517017
N 154.114282 -7.615447 5.268247
O 153.732920 -7.598056 6.449188
O 154.517534 -8.634144 4.685482
C 153.620656 -5.189681 5.139062
C 153.598253 -3.994029 4.419055
C 152.885370 -2.175780 1.791965
C 151.600070 -2.831804 1.919047
C 150.690680 -2.096598 1.288285
C 151.350921 -0.935735 0.726608
N 152.675152 -1.042851 1.057244
H 149.977551 2.845947 -0.610800
H 151.964162 4.290740 -1.760217
H 153.465155 0.492787 -0.744709
H 155.296836 5.381065 -2.076125
H 155.261313 7.053019 -3.901011
H 153.633755 4.035011 -6.571518
H 153.688005 2.399979 -4.716148
H 157.128550 3.105417 -3.219970
H 158.885839 1.642674 -2.061542
H 158.554195 -1.147501 2.675737
H 156.567625 -2.554286 3.871506
H 155.067333 -0.827143 0.339570
H 154.842463 -5.091473 1.444159
H 154.896704 -7.227602 2.690228
H 153.273011 -5.189143 6.168322
H 153.237322 -3.075820 4.880092
H 151.403756 -3.759144 2.426129
H 149.646435 -2.340222 1.214469
C 166.749324 0.012914 0.016180
C 167.545027 1.248602 -0.574257
C 167.045260 2.511201 -0.819668
C 168.084229 3.267977 -1.419875
C 169.186660 2.444927 -1.516747
N 168.871333 1.245562 -0.929462
C 170.572956 2.804392 -2.188848
C 170.560421 3.793111 -3.289171
C 170.997982 5.106200 -3.065844
C 170.975644 6.043479 -4.100016
C 170.507491 5.658541 -5.363859
N 170.480997 6.638838 -6.454926
O 170.076143 6.264142 -7.566539
O 170.863996 7.793755 -6.210310
C 170.063566 4.350089 -5.598665
C 170.091375 3.421881 -4.556174
C 171.709786 2.177778 -1.788622
C 172.995084 2.428987 -2.407845
C 173.904457 1.668174 -1.808197
N 171.919995 1.238248 -0.818760
C 173.244214 0.893093 -0.777514
C 173.908631 0.012914 0.016180
C 173.112876 -0.804748 1.114729
C 173.612378 -1.288438 2.306661
C 172.573428 -2.023490 2.933339
C 171.471271 -1.960457 2.106639
N 171.786741 -1.153215 1.042862
C 170.085060 -2.689408 2.329529
C 170.097641 -3.959885 3.087217
C 170.565632 -5.131612 2.478006
C 170.593429 -6.333691 3.187479
C 170.150596 -6.355665 4.517017
N 170.177130 -7.615447 5.268247
O 169.795769 -7.598056 6.449188
O 170.580382 -8.634144 4.685482
C 169.683504 -5.189681 5.139062
C 169.661101 -3.994029 4.419055
C 168.948219 -2.175780 1.791965
C 167.662918 -2.831804 1.919047
C 166.753528 -2.096598 1.288285
C 167.413769 -0.935735 0.726608
N 168.738000 -1.042851 1.057244
H 166.040399 2.845947 -0.610800
H 168.027010 4.290740 -1.760217
H 169.528003 0.492787 -0.744709
H 171.359684 5.381065 -2.076125
H 171.324161 7.053019 -3.901011
H 169.696603 4.035011 -6.571518
H 169.750853 2.399979 -4.716148
H 173.191398 3.105417 -3.219970
H 174.948687 1.642674 -2.061542
H 174.617043 -1.147501 2.675737
H 172.630473 -2.554286 3.871506
H 171.130181 -0.827143 0.339570
H 170.905311 -5.091473 1.444159
H 170.959552 -7.227602 2.690228
H 169.335859 -5.189143 6.168322
H 169.300170 -3.075820 4.880092
H 167.466605 -3.759144 2.426129
H 165.709283 -2.340222 1.214469
