278

Fe 42.219087 0.005545 -0.065393
C 38.887210 0.095386 0.078557
C 39.541884 -0.235677 1.195336
C 38.882599 -0.636147 2.432402
C 39.817328 -0.864019 3.336343
C 41.127351 -0.606311 2.722369
N 40.959052 -0.217007 1.358596
C 42.316565 -0.703013 3.352764
C 42.358645 -1.075501 4.785471
C 41.876821 -0.192395 5.764305
C 41.933186 -0.542027 7.116450
C 42.482341 -1.771928 7.504725
S 42.544835 -2.219761 9.205667
O 42.584233 -0.981234 10.057320
O 41.181098 -3.125276 9.588610
O 43.783005 -3.031196 9.467551
C 42.963906 -2.654364 6.528279
C 42.906433 -2.306691 5.175624
C 43.612543 -0.442334 2.672876
C 44.894441 -0.319530 3.377744
C 45.834236 -0.126342 2.474775
N 43.761195 -0.324293 1.389058
C 45.159061 -0.120998 1.182844
C 45.758720 -0.010749 -0.013676
C 44.999647 0.000174 -1.283806
C 45.531399 -0.246473 -2.474286
C 44.494173 -0.026685 -3.463591
C 43.398459 0.344725 -2.811446
N 43.628074 0.378266 -1.401991
C 42.126612 0.743811 -3.467051
C 42.158243 1.127737 -4.899444
C 41.465334 0.369290 -5.856846
C 41.517352 0.722995 -7.208211
C 42.263316 1.836509 -7.617547
S 42.344225 2.272647 -9.321523
O 42.502506 3.760599 -9.464725
O 43.646958 1.494262 -10.043729
O 41.074676 1.857610 -10.010021
C 42.968967 2.584957 -6.665914
C 42.917452 2.232641 -5.314250
C 40.962745 0.766715 -2.789414
C 39.662258 1.177853 -3.315773
C 38.795053 0.989754 -2.339774
C 39.533434 0.473850 -1.188241
N 40.797441 0.339757 -1.438801
H 37.803588 0.088559 0.096821
H 37.817596 -0.741019 2.595097
H 39.622421 -1.187698 4.350325
H 41.458438 0.765043 5.478609
H 41.548979 0.146522 7.858018
H 41.285367 -3.351359 10.547608
H 43.382758 -3.611146 6.813219
H 43.285830 -2.996469 4.431557
H 45.060637 -0.373050 4.445656
H 46.888460 -0.001161 2.682958
H 46.554653 -0.530895 -2.679906
H 44.605612 -0.121971 -4.535940
H 40.891073 -0.498481 -5.556143
H 40.980956 0.125196 -7.934022
H 44.439036 1.791524 -9.528457
H 43.561875 3.438308 -6.969717
H 43.468344 2.820368 -4.590076
H 39.428752 1.563581 -4.299303
H 37.733247 1.191056 -2.393802
Fe 100.176078 -0.014708 0.040402
C 103.507955 0.121947 -0.060187
C 102.853282 0.226769 -1.220278
C 103.512567 0.311519 -2.517786
C 102.577838 0.433625 -3.441975
C 101.267815 0.446343 -2.776230
N 101.436114 0.304418 -1.365099
C 100.078601 0.589312 -3.397768
C 100.036521 0.772324 -4.866748
C 100.518345 1.954514 -5.450201
C 100.461979 2.129011 -6.835874
C 99.912825 1.129480 -7.650953
S 99.850331 1.341547 -9.397030
O 99.810932 2.807053 -9.731021
O 101.214068 0.641496 -10.087343
O 98.612160 0.684211 -9.940095
C 99.431260 -0.051206 -7.069472
C 99.488732 -0.227711 -5.684048
C 98.782623 0.580446 -2.669673
C 97.500725 0.954905 -3.279345
C 96.560929 0.800927 -2.368869
N 98.633970 0.215969 -1.433033
C 97.236105 0.328725 -1.166313
C 96.636446 -0.010749 -0.013676
C 97.395519 -0.469714 1.170680
C 96.863766 -1.138618 2.185887
C 97.900993 -1.299765 3.186418
C 98.996707 -0.713750 2.717562
N 98.767092 -0.162007 1.420155
C 100.268553 -0.585027 3.474211
C 100.236923 -0.757294 4.947125
C 100.929832 -1.815724 5.556704
C 100.877814 -1.986148 6.943156
C 100.131850 -1.102554 7.734819
S 100.050940 -1.326608 9.479396
O 99.892659 0.003244 10.162040
O 98.748208 -2.316698 9.863044
O 101.320490 -1.966591 9.965921
C 99.426199 -0.055546 7.126908
C 99.477714 0.116279 5.740691
C 101.432421 -0.313461 2.852948
C 102.732908 -0.125802 3.493942
C 103.600112 0.059879 2.517479
C 102.861732 0.005766 1.256822
N 101.597725 -0.211389 1.440139
H 104.591578 0.122349 -0.079682
H 104.577570 0.274153 -2.707711
H 102.772745 0.507341 -4.503810
H 100.936728 2.738735 -4.831082
H 100.846186 3.042768 -7.270696
H 101.109799 0.785599 -11.062035
H 99.012408 -0.835095 -7.687646
H 99.109335 -1.143534 -5.247357
H 97.334529 1.299597 -4.291514
H 95.506706 0.994148 -2.516097
H 95.840513 -1.478874 2.271918
H 97.789554 -1.784380 4.147751
H 101.504093 -2.511074 4.956756
H 101.414210 -2.809753 7.396853
H 97.956130 -1.850142 9.493998
H 98.833291 0.625259 7.724411
H 98.926821 0.929919 5.284795
H 102.966413 -0.130609 4.550395
H 104.661918 0.226993 2.642037
C 48.308934 0.003941 -0.003400
C 49.767160 -0.017896 -0.021274
C 50.901088 -0.038649 -0.022765
C 52.262470 -0.051239 -0.024956
C 53.536689 -0.040933 -0.029721
C 54.725151 -0.022135 -0.035877
C 56.077512 0.002650 -0.020009
C 57.177779 0.003941 -0.003400
C 66.701142 0.003941 -0.003400
C 68.159368 -0.017896 -0.021274
C 69.293296 -0.038649 -0.022765
C 70.654678 -0.051239 -0.024956
C 71.928897 -0.040933 -0.029721
C 73.117359 -0.022135 -0.035877
C 74.469720 0.002650 -0.020009
C 75.569987 0.003941 -0.003400
C 85.093350 0.003941 -0.003400
C 86.551576 -0.017896 -0.021274
C 87.685504 -0.038649 -0.022765
C 89.046886 -0.051239 -0.024956
C 90.321105 -0.040933 -0.029721
C 91.509567 -0.022135 -0.035877
C 92.861928 0.002650 -0.020009
C 93.962195 0.003941 -0.003400
Fe 61.966964 -0.032676 -0.035817
C 58.585478 0.010169 0.014541
C 59.240915 1.007573 0.636687
C 58.599952 2.070348 1.413833
C 59.536796 2.891852 1.843887
C 60.834436 2.407227 1.362237
N 60.656328 1.208087 0.604119
C 62.019399 3.012250 1.592414
C 62.055985 4.284377 2.350712
C 62.635603 4.325306 3.627710
C 62.681485 5.526002 4.341835
C 62.156768 6.699270 3.783414
S 62.198573 8.206889 4.692140
O 62.246247 9.376907 3.749433
O 60.831113 8.320151 5.662851
O 63.426417 8.238800 5.558244
C 61.576748 6.660150 2.508094
C 61.530958 5.460307 1.792518
C 63.316207 2.458387 1.126399
C 64.584692 3.197197 1.172892
C 65.536546 2.391863 0.747009
N 63.483668 1.250735 0.684862
C 64.881660 1.131469 0.420869
C 65.497029 0.010169 0.014541
C 64.746648 -1.219009 -0.316872
C 65.278517 -2.433464 -0.367711
C 64.246177 -3.334027 -0.844878
C 63.155636 -2.606068 -1.056517
N 63.381733 -1.235706 -0.732147
C 61.901418 -3.125492 -1.651466
C 61.962605 -4.370676 -2.454586
C 62.735151 -4.414245 -3.625129
C 62.803970 -5.588104 -4.381042
C 62.111048 -6.734713 -3.967968
S 62.178213 -8.215324 -4.918959
O 62.391882 -9.393774 -4.010273
O 60.740531 -8.405974 -5.769078
O 63.319614 -8.148268 -5.894820
C 61.344814 -6.695256 -2.795727
C 61.273494 -5.521546 -2.040101
C 60.729596 -2.480502 -1.494071
C 59.453281 -2.861659 -2.090135
C 58.565264 -2.001658 -1.634686
C 59.263428 -1.062096 -0.750265
N 60.528550 -1.334864 -0.666223
H 57.545007 2.187099 1.622510
H 59.350264 3.765335 2.454866
H 63.047015 3.426309 4.070098
H 63.123365 5.539135 5.330034
H 60.066759 8.250797 5.035867
H 61.158849 7.556412 2.068091
H 61.085606 5.445384 0.805387
H 64.734256 4.218664 1.497687
H 66.585757 2.644369 0.669663
H 66.299274 -2.703054 -0.131578
H 64.358791 -4.394230 -1.030777
H 63.276777 -3.536313 -3.955747
H 63.395696 -5.598883 -5.287154
H 60.040092 -8.481941 -5.072841
H 60.802913 -7.573204 -2.467521
H 60.683218 -5.508292 -1.132055
H 59.248987 -3.674108 -2.775108
H 57.514234 -2.004568 -1.890089
Fe 80.359173 -0.032676 -0.035817
C 76.977686 0.010169 0.014541
C 77.633123 1.007573 0.636687
C 76.992160 2.070348 1.413833
C 77.929004 2.891852 1.843887
C 79.226644 2.407227 1.362237
N 79.048536 1.208087 0.604119
C 80.411607 3.012250 1.592414
C 80.448193 4.284377 2.350712
C 81.027811 4.325306 3.627710
C 81.073693 5.526002 4.341835
C 80.548976 6.699270 3.783414
S 80.590781 8.206889 4.692140
O 80.638456 9.376907 3.749433
O 79.223321 8.320151 5.662851
O 81.818626 8.238800 5.558244
C 79.968956 6.660150 2.508094
C 79.923166 5.460307 1.792518
C 81.708416 2.458387 1.126399
C 82.976900 3.197197 1.172892
C 83.928754 2.391863 0.747009
N 81.875876 1.250735 0.684862
C 83.273868 1.131469 0.420869
C 83.889237 0.010169 0.014541
C 83.138856 -1.219009 -0.316872
C 83.670725 -2.433464 -0.367711
C 82.638385 -3.334027 -0.844878
C 81.547844 -2.606068 -1.056517
N 81.773941 -1.235706 -0.732147
C 80.293626 -3.125492 -1.651466
C 80.354813 -4.370676 -2.454586
C 81.127359 -4.414245 -3.625129
C 81.196178 -5.588104 -4.381042
C 80.503256 -6.734713 -3.967968
S 80.570421 -8.215324 -4.918959
O 80.784090 -9.393774 -4.010273
O 79.132739 -8.405974 -5.769078
O 81.711823 -8.148268 -5.894820
C 79.737022 -6.695256 -2.795727
C 79.665702 -5.521546 -2.040101
C 79.121804 -2.480502 -1.494071
C 77.845489 -2.861659 -2.090135
C 76.957472 -2.001658 -1.634686
C 77.655636 -1.062096 -0.750265
N 78.920758 -1.334864 -0.666223
H 75.937215 2.187099 1.622510
H 77.742472 3.765335 2.454866
H 81.439223 3.426309 4.070098
H 81.515574 5.539135 5.330034
H 78.458967 8.250797 5.035867
H 79.551058 7.556412 2.068091
H 79.477814 5.445384 0.805387
H 83.126464 4.218664 1.497687
H 84.977966 2.644369 0.669663
H 84.691483 -2.703054 -0.131578
H 82.750999 -4.394230 -1.030777
H 81.668985 -3.536313 -3.955747
H 81.787904 -5.598883 -5.287154
H 78.432300 -8.481941 -5.072841
H 79.195121 -7.573204 -2.467521
H 79.075427 -5.508292 -1.132055
H 77.641195 -3.674108 -2.775108
H 75.906442 -2.004568 -1.890089
