 xtb: 6.5.1 (b24c23e)
          07292223183D

278317  0     0  0            999 V2000
   43.3904    0.0508    0.0121 Fe  0  0  0  0  0  0  0  0  0  0  0  0
   40.0067    0.1635    0.0640 C   0  0  0  0  0  0  0  0  0  0  0  0
   40.6566   -0.3076    1.1864 C   0  0  0  0  0  0  0  0  0  0  0  0
   39.9852   -0.7966    2.3529 C   0  0  0  0  0  0  0  0  0  0  0  0
   40.9431   -1.0473    3.2763 C   0  0  0  0  0  0  0  0  0  0  0  0
   42.1987   -0.6954    2.6775 C   0  0  0  0  0  0  0  0  0  0  0  0
   42.0126   -0.2898    1.3837 N   0  0  0  0  0  0  0  0  0  0  0  0
   43.4152   -0.6937    3.3513 C   0  0  0  0  0  0  0  0  0  0  0  0
   43.4285   -1.0405    4.7913 C   0  0  0  0  0  0  0  0  0  0  0  0
   42.7157   -0.2673    5.7111 C   0  0  0  0  0  0  0  0  0  0  0  0
   42.7257   -0.5906    7.0579 C   0  0  0  0  0  0  0  0  0  0  0  0
   43.4502   -1.6970    7.4710 C   0  0  0  0  0  0  0  0  0  0  0  0
   43.4701   -2.1103    9.1746 S   0  0  0  0  0  0  0  0  0  0  0  0
   43.1779   -0.9636    9.9837 O   0  0  0  0  0  0  0  0  0  0  0  0
   42.1697   -3.0833    9.1945 O   0  0  0  0  0  0  0  0  0  0  0  0
   44.6264   -2.8948    9.4924 O   0  0  0  0  0  0  0  0  0  0  0  0
   44.1692   -2.4809    6.5834 C   0  0  0  0  0  0  0  0  0  0  0  0
   44.1567   -2.1453    5.2397 C   0  0  0  0  0  0  0  0  0  0  0  0
   44.6182   -0.3792    2.7334 C   0  0  0  0  0  0  0  0  0  0  0  0
   45.8758   -0.2946    3.4150 C   0  0  0  0  0  0  0  0  0  0  0  0
   46.8205   -0.0829    2.4671 C   0  0  0  0  0  0  0  0  0  0  0  0
   44.7913   -0.1646    1.3875 N   0  0  0  0  0  0  0  0  0  0  0  0
   46.1380   -0.0333    1.2121 C   0  0  0  0  0  0  0  0  0  0  0  0
   46.7958    0.0196   -0.0221 C   0  0  0  0  0  0  0  0  0  0  0  0
   46.1120    0.0809   -1.2421 C   0  0  0  0  0  0  0  0  0  0  0  0
   46.7650    0.0844   -2.5134 C   0  0  0  0  0  0  0  0  0  0  0  0
   45.8040    0.3038   -3.4433 C   0  0  0  0  0  0  0  0  0  0  0  0
   44.5671    0.4447   -2.7338 C   0  0  0  0  0  0  0  0  0  0  0  0
   44.7672    0.2573   -1.3876 N   0  0  0  0  0  0  0  0  0  0  0  0
   43.3615    0.7950   -3.3270 C   0  0  0  0  0  0  0  0  0  0  0  0
   43.3497    1.1067   -4.7751 C   0  0  0  0  0  0  0  0  0  0  0  0
   42.5742    0.3472   -5.6547 C   0  0  0  0  0  0  0  0  0  0  0  0
   42.5613    0.6363   -7.0093 C   0  0  0  0  0  0  0  0  0  0  0  0
   43.3281    1.6938   -7.4709 C   0  0  0  0  0  0  0  0  0  0  0  0
   43.3043    2.0761   -9.1818 S   0  0  0  0  0  0  0  0  0  0  0  0
   43.6502    3.4494   -9.4061 O   0  0  0  0  0  0  0  0  0  0  0  0
   44.5663    1.1655   -9.6472 O   0  0  0  0  0  0  0  0  0  0  0  0
   42.1182    1.5590   -9.7969 O   0  0  0  0  0  0  0  0  0  0  0  0
   44.1023    2.4687   -6.6226 C   0  0  0  0  0  0  0  0  0  0  0  0
   44.1120    2.1675   -5.2708 C   0  0  0  0  0  0  0  0  0  0  0  0
   42.1661    0.8687   -2.6202 C   0  0  0  0  0  0  0  0  0  0  0  0
   40.9142    1.2776   -3.1900 C   0  0  0  0  0  0  0  0  0  0  0  0
   39.9723    1.0991   -2.2341 C   0  0  0  0  0  0  0  0  0  0  0  0
   40.6500    0.5920   -1.0788 C   0  0  0  0  0  0  0  0  0  0  0  0
   41.9977    0.5027   -1.3123 N   0  0  0  0  0  0  0  0  0  0  0  0
   38.9232    0.1936    0.0790 H   0  0  0  0  0  0  0  0  0  0  0  0
   38.9178   -0.9251    2.4355 H   0  0  0  0  0  0  0  0  0  0  0  0
   40.8230   -1.4365    4.2743 H   0  0  0  0  0  0  0  0  0  0  0  0
   42.1650    0.6008    5.3684 H   0  0  0  0  0  0  0  0  0  0  0  0
   42.1856    0.0074    7.7812 H   0  0  0  0  0  0  0  0  0  0  0  0
   41.9721   -3.3598   10.0976 H   0  0  0  0  0  0  0  0  0  0  0  0
   44.7296   -3.3352    6.9419 H   0  0  0  0  0  0  0  0  0  0  0  0
   44.7038   -2.7510    4.5267 H   0  0  0  0  0  0  0  0  0  0  0  0
   46.0082   -0.3823    4.4811 H   0  0  0  0  0  0  0  0  0  0  0  0
   47.8859    0.0255    2.5905 H   0  0  0  0  0  0  0  0  0  0  0  0
   47.8231   -0.0614   -2.6599 H   0  0  0  0  0  0  0  0  0  0  0  0
   45.9126    0.3616   -4.5140 H   0  0  0  0  0  0  0  0  0  0  0  0
   41.9897   -0.4822   -5.2741 H   0  0  0  0  0  0  0  0  0  0  0  0
   41.9638    0.0548   -7.7001 H   0  0  0  0  0  0  0  0  0  0  0  0
   44.8072    1.3709  -10.5587 H   0  0  0  0  0  0  0  0  0  0  0  0
   44.6798    3.2958   -7.0160 H   0  0  0  0  0  0  0  0  0  0  0  0
   44.7011    2.7684   -4.5879 H   0  0  0  0  0  0  0  0  0  0  0  0
   40.7859    1.6538   -4.1919 H   0  0  0  0  0  0  0  0  0  0  0  0
   38.9114    1.2842   -2.2886 H   0  0  0  0  0  0  0  0  0  0  0  0
   99.0454    0.0126   -0.0144 Fe  0  0  0  0  0  0  0  0  0  0  0  0
  102.4309    0.1689   -0.0242 C   0  0  0  0  0  0  0  0  0  0  0  0
  101.7784    0.1551   -1.2399 C   0  0  0  0  0  0  0  0  0  0  0  0
  102.4493    0.1414   -2.5048 C   0  0  0  0  0  0  0  0  0  0  0  0
  101.4899    0.2448   -3.4543 C   0  0  0  0  0  0  0  0  0  0  0  0
  100.2340    0.3362   -2.7666 C   0  0  0  0  0  0  0  0  0  0  0  0
  100.4220    0.2416   -1.4140 N   0  0  0  0  0  0  0  0  0  0  0  0
   99.0141    0.5610   -3.3938 C   0  0  0  0  0  0  0  0  0  0  0  0
   99.0009    0.7627   -4.8616 C   0  0  0  0  0  0  0  0  0  0  0  0
   99.6828    1.8414   -5.4302 C   0  0  0  0  0  0  0  0  0  0  0  0
   99.6765    2.0322   -6.8020 C   0  0  0  0  0  0  0  0  0  0  0  0
   98.9875    1.1296   -7.5957 C   0  0  0  0  0  0  0  0  0  0  0  0
   98.9759    1.3652   -9.3329 S   0  0  0  0  0  0  0  0  0  0  0  0
   99.2248    2.7372   -9.6648 O   0  0  0  0  0  0  0  0  0  0  0  0
  100.3088    0.5096   -9.6927 O   0  0  0  0  0  0  0  0  0  0  0  0
   97.8473    0.7118   -9.9273 O   0  0  0  0  0  0  0  0  0  0  0  0
   98.2993    0.0527   -7.0610 C   0  0  0  0  0  0  0  0  0  0  0  0
   98.3073   -0.1253   -5.6873 C   0  0  0  0  0  0  0  0  0  0  0  0
   97.8087    0.6039   -2.7061 C   0  0  0  0  0  0  0  0  0  0  0  0
   96.5458    0.8922   -3.3184 C   0  0  0  0  0  0  0  0  0  0  0  0
   95.6022    0.7358   -2.3591 C   0  0  0  0  0  0  0  0  0  0  0  0
   97.6399    0.3307   -1.3701 N   0  0  0  0  0  0  0  0  0  0  0  0
   96.2907    0.3609   -1.1639 C   0  0  0  0  0  0  0  0  0  0  0  0
   95.6369   -0.0086    0.0158 C   0  0  0  0  0  0  0  0  0  0  0  0
   96.3217   -0.3577    1.1844 C   0  0  0  0  0  0  0  0  0  0  0  0
   95.6685   -0.7888    2.3803 C   0  0  0  0  0  0  0  0  0  0  0  0
   96.6317   -0.9163    3.3248 C   0  0  0  0  0  0  0  0  0  0  0  0
   97.8701   -0.5518    2.7035 C   0  0  0  0  0  0  0  0  0  0  0  0
   97.6680   -0.2478    1.3792 N   0  0  0  0  0  0  0  0  0  0  0  0
   99.0815   -0.4606    3.3760 C   0  0  0  0  0  0  0  0  0  0  0  0
   99.0988   -0.6979    4.8384 C   0  0  0  0  0  0  0  0  0  0  0  0
   99.8474   -1.7493    5.3731 C   0  0  0  0  0  0  0  0  0  0  0  0
   99.8674   -1.9740    6.7398 C   0  0  0  0  0  0  0  0  0  0  0  0
   99.1347   -1.1340    7.5625 C   0  0  0  0  0  0  0  0  0  0  0  0
   99.1705   -1.4007    9.2950 S   0  0  0  0  0  0  0  0  0  0  0  0
   98.8685   -0.1933   10.0071 O   0  0  0  0  0  0  0  0  0  0  0  0
   97.8804   -2.3800    9.4135 O   0  0  0  0  0  0  0  0  0  0  0  0
  100.3401   -2.1404    9.6655 O   0  0  0  0  0  0  0  0  0  0  0  0
   98.3871   -0.0802    7.0623 C   0  0  0  0  0  0  0  0  0  0  0  0
   98.3698    0.1320    5.6937 C   0  0  0  0  0  0  0  0  0  0  0  0
  100.2786   -0.1579    2.7379 C   0  0  0  0  0  0  0  0  0  0  0  0
  101.5363   -0.0095    3.4128 C   0  0  0  0  0  0  0  0  0  0  0  0
  102.4757    0.1684    2.4547 C   0  0  0  0  0  0  0  0  0  0  0  0
  101.7911    0.1383    1.1973 C   0  0  0  0  0  0  0  0  0  0  0  0
  100.4414   -0.0114    1.3864 N   0  0  0  0  0  0  0  0  0  0  0  0
  103.5144    0.1995   -0.0293 H   0  0  0  0  0  0  0  0  0  0  0  0
  103.5172    0.0605   -2.6299 H   0  0  0  0  0  0  0  0  0  0  0  0
  101.6087    0.2559   -4.5256 H   0  0  0  0  0  0  0  0  0  0  0  0
  100.2068    2.5413   -4.7899 H   0  0  0  0  0  0  0  0  0  0  0  0
  100.1929    2.8703   -7.2531 H   0  0  0  0  0  0  0  0  0  0  0  0
  100.4946    0.5609  -10.6382 H   0  0  0  0  0  0  0  0  0  0  0  0
   97.7661   -0.6297   -7.7109 H   0  0  0  0  0  0  0  0  0  0  0  0
   97.7842   -0.9671   -5.2487 H   0  0  0  0  0  0  0  0  0  0  0  0
   96.4094    1.1788   -4.3483 H   0  0  0  0  0  0  0  0  0  0  0  0
   94.5338    0.8553   -2.4394 H   0  0  0  0  0  0  0  0  0  0  0  0
   94.6091   -0.9668    2.4703 H   0  0  0  0  0  0  0  0  0  0  0  0
   96.5240   -1.2342    4.3490 H   0  0  0  0  0  0  0  0  0  0  0  0
  100.4058   -2.4003    4.7107 H   0  0  0  0  0  0  0  0  0  0  0  0
  100.4446   -2.7852    7.1653 H   0  0  0  0  0  0  0  0  0  0  0  0
   97.6392   -2.5020   10.3398 H   0  0  0  0  0  0  0  0  0  0  0  0
   97.8359    0.5642    7.7356 H   0  0  0  0  0  0  0  0  0  0  0  0
   97.8011    0.9577    5.2823 H   0  0  0  0  0  0  0  0  0  0  0  0
  101.6695   -0.0369    4.4820 H   0  0  0  0  0  0  0  0  0  0  0  0
  103.5393    0.3042    2.5685 H   0  0  0  0  0  0  0  0  0  0  0  0
   48.1974    0.0045   -0.0368 C   0  0  0  0  0  0  0  0  0  0  0  0
   49.4231   -0.0066   -0.0469 C   0  0  0  0  0  0  0  0  0  0  0  0
   50.7635   -0.0161   -0.0538 C   0  0  0  0  0  0  0  0  0  0  0  0
   51.9957   -0.0239   -0.0592 C   0  0  0  0  0  0  0  0  0  0  0  0
   53.3310   -0.0301   -0.0596 C   0  0  0  0  0  0  0  0  0  0  0  0
   54.5634   -0.0281   -0.0596 C   0  0  0  0  0  0  0  0  0  0  0  0
   55.9033   -0.0285   -0.0575 C   0  0  0  0  0  0  0  0  0  0  0  0
   57.1296   -0.0271   -0.0549 C   0  0  0  0  0  0  0  0  0  0  0  0
   66.7454   -0.0406   -0.0066 C   0  0  0  0  0  0  0  0  0  0  0  0
   67.9724   -0.0436   -0.0011 C   0  0  0  0  0  0  0  0  0  0  0  0
   69.3105   -0.0458    0.0037 C   0  0  0  0  0  0  0  0  0  0  0  0
   70.5438   -0.0462    0.0064 C   0  0  0  0  0  0  0  0  0  0  0  0
   71.8772   -0.0482    0.0071 C   0  0  0  0  0  0  0  0  0  0  0  0
   73.1105   -0.0467    0.0082 C   0  0  0  0  0  0  0  0  0  0  0  0
   74.4487   -0.0463    0.0048 C   0  0  0  0  0  0  0  0  0  0  0  0
   75.6757   -0.0442    0.0020 C   0  0  0  0  0  0  0  0  0  0  0  0
   85.3003   -0.0777    0.0270 C   0  0  0  0  0  0  0  0  0  0  0  0
   86.5256   -0.0844    0.0334 C   0  0  0  0  0  0  0  0  0  0  0  0
   87.8672   -0.0885    0.0403 C   0  0  0  0  0  0  0  0  0  0  0  0
   89.0985   -0.0871    0.0349 C   0  0  0  0  0  0  0  0  0  0  0  0
   90.4356   -0.0805    0.0369 C   0  0  0  0  0  0  0  0  0  0  0  0
   91.6668   -0.0685    0.0338 C   0  0  0  0  0  0  0  0  0  0  0  0
   93.0087   -0.0528    0.0305 C   0  0  0  0  0  0  0  0  0  0  0  0
   94.2335   -0.0352    0.0251 C   0  0  0  0  0  0  0  0  0  0  0  0
   61.9383   -0.0282   -0.0388 Fe  0  0  0  0  0  0  0  0  0  0  0  0
   58.5297   -0.0257   -0.0520 C   0  0  0  0  0  0  0  0  0  0  0  0
   59.2005    0.9051    0.7522 C   0  0  0  0  0  0  0  0  0  0  0  0
   58.5340    1.8425    1.6003 C   0  0  0  0  0  0  0  0  0  0  0  0
   59.4871    2.6804    2.0769 C   0  0  0  0  0  0  0  0  0  0  0  0
   60.7312    2.2540    1.5096 C   0  0  0  0  0  0  0  0  0  0  0  0
   60.5448    1.1322    0.7408 N   0  0  0  0  0  0  0  0  0  0  0  0
   61.9334    2.9368    1.6541 C   0  0  0  0  0  0  0  0  0  0  0  0
   61.9311    4.2251    2.3851 C   0  0  0  0  0  0  0  0  0  0  0  0
   62.6931    4.3768    3.5461 C   0  0  0  0  0  0  0  0  0  0  0  0
   62.6970    5.5805    4.2316 C   0  0  0  0  0  0  0  0  0  0  0  0
   61.9358    6.6281    3.7398 C   0  0  0  0  0  0  0  0  0  0  0  0
   61.9515    8.1609    4.5920 S   0  0  0  0  0  0  0  0  0  0  0  0
   61.6283    9.2433    3.7093 O   0  0  0  0  0  0  0  0  0  0  0  0
   60.6690    7.9103    5.5562 O   0  0  0  0  0  0  0  0  0  0  0  0
   63.1238    8.2684    5.4079 O   0  0  0  0  0  0  0  0  0  0  0  0
   61.1742    6.5094    2.5885 C   0  0  0  0  0  0  0  0  0  0  0  0
   61.1721    5.2994    1.9144 C   0  0  0  0  0  0  0  0  0  0  0  0
   63.1381    2.4663    1.1467 C   0  0  0  0  0  0  0  0  0  0  0  0
   64.3826    3.1702    1.2357 C   0  0  0  0  0  0  0  0  0  0  0  0
   65.3394    2.3300    0.7709 C   0  0  0  0  0  0  0  0  0  0  0  0
   63.3288    1.2319    0.5756 N   0  0  0  0  0  0  0  0  0  0  0  0
   64.6742    1.1239    0.3898 C   0  0  0  0  0  0  0  0  0  0  0  0
   65.3470   -0.0369   -0.0156 C   0  0  0  0  0  0  0  0  0  0  0  0
   64.6736   -1.1933   -0.4327 C   0  0  0  0  0  0  0  0  0  0  0  0
   65.3374   -2.4019   -0.8078 C   0  0  0  0  0  0  0  0  0  0  0  0
   64.3832   -3.2338   -1.2925 C   0  0  0  0  0  0  0  0  0  0  0  0
   63.1417   -2.5228   -1.2205 C   0  0  0  0  0  0  0  0  0  0  0  0
   63.3308   -1.2920   -0.6411 N   0  0  0  0  0  0  0  0  0  0  0  0
   61.9417   -2.9848   -1.7465 C   0  0  0  0  0  0  0  0  0  0  0  0
   61.9432   -4.2693   -2.4840 C   0  0  0  0  0  0  0  0  0  0  0  0
   62.7234   -4.4203   -3.6329 C   0  0  0  0  0  0  0  0  0  0  0  0
   62.7309   -5.6205   -4.3245 C   0  0  0  0  0  0  0  0  0  0  0  0
   61.9547   -6.6655   -3.8508 C   0  0  0  0  0  0  0  0  0  0  0  0
   61.9736   -8.1941   -4.7105 S   0  0  0  0  0  0  0  0  0  0  0  0
   61.6432   -9.2804   -3.8351 O   0  0  0  0  0  0  0  0  0  0  0  0
   60.6974   -7.9371   -5.6814 O   0  0  0  0  0  0  0  0  0  0  0  0
   63.1508   -8.2996   -5.5196 O   0  0  0  0  0  0  0  0  0  0  0  0
   61.1752   -6.5477   -2.7115 C   0  0  0  0  0  0  0  0  0  0  0  0
   61.1699   -5.3412   -2.0313 C   0  0  0  0  0  0  0  0  0  0  0  0
   60.7403   -2.2988   -1.6111 C   0  0  0  0  0  0  0  0  0  0  0  0
   59.4999   -2.7201   -2.1904 C   0  0  0  0  0  0  0  0  0  0  0  0
   58.5438   -1.8857   -1.7134 C   0  0  0  0  0  0  0  0  0  0  0  0
   59.2052   -0.9541   -0.8550 C   0  0  0  0  0  0  0  0  0  0  0  0
   60.5494   -1.1812   -0.8369 N   0  0  0  0  0  0  0  0  0  0  0  0
   57.4732    1.8502    1.7920 H   0  0  0  0  0  0  0  0  0  0  0  0
   59.3682    3.5115    2.7527 H   0  0  0  0  0  0  0  0  0  0  0  0
   63.2744    3.5413    3.9182 H   0  0  0  0  0  0  0  0  0  0  0  0
   63.2843    5.7099    5.1320 H   0  0  0  0  0  0  0  0  0  0  0  0
   60.4032    8.7363    5.9785 H   0  0  0  0  0  0  0  0  0  0  0  0
   60.6005    7.3531    2.2258 H   0  0  0  0  0  0  0  0  0  0  0  0
   60.5928    5.1884    1.0053 H   0  0  0  0  0  0  0  0  0  0  0  0
   64.4999    4.1762    1.6041 H   0  0  0  0  0  0  0  0  0  0  0  0
   66.4013    2.4973    0.6901 H   0  0  0  0  0  0  0  0  0  0  0  0
   66.3966   -2.5765   -0.7099 H   0  0  0  0  0  0  0  0  0  0  0  0
   64.5005   -4.2390   -1.6633 H   0  0  0  0  0  0  0  0  0  0  0  0
   63.3162   -3.5869   -3.9913 H   0  0  0  0  0  0  0  0  0  0  0  0
   63.3321   -5.7492   -5.2157 H   0  0  0  0  0  0  0  0  0  0  0  0
   60.4346   -8.7605   -6.1106 H   0  0  0  0  0  0  0  0  0  0  0  0
   60.5901   -7.3893   -2.3626 H   0  0  0  0  0  0  0  0  0  0  0  0
   60.5769   -5.2313   -1.1309 H   0  0  0  0  0  0  0  0  0  0  0  0
   59.3850   -3.5458   -2.8734 H   0  0  0  0  0  0  0  0  0  0  0  0
   57.4843   -1.8916   -1.9121 H   0  0  0  0  0  0  0  0  0  0  0  0
   80.4866   -0.0496   -0.0055 Fe  0  0  0  0  0  0  0  0  0  0  0  0
   77.0744   -0.0433   -0.0033 C   0  0  0  0  0  0  0  0  0  0  0  0
   77.7489    0.9352    0.7388 C   0  0  0  0  0  0  0  0  0  0  0  0
   77.0824    1.9163    1.5363 C   0  0  0  0  0  0  0  0  0  0  0  0
   78.0389    2.7629    1.9888 C   0  0  0  0  0  0  0  0  0  0  0  0
   79.2853    2.2985    1.4565 C   0  0  0  0  0  0  0  0  0  0  0  0
   79.0946    1.1488    0.7292 N   0  0  0  0  0  0  0  0  0  0  0  0
   80.4939    2.9662    1.6021 C   0  0  0  0  0  0  0  0  0  0  0  0
   80.4982    4.2685    2.3088 C   0  0  0  0  0  0  0  0  0  0  0  0
   81.2275    4.4233    3.4902 C   0  0  0  0  0  0  0  0  0  0  0  0
   81.2274    5.6345    4.1622 C   0  0  0  0  0  0  0  0  0  0  0  0
   80.4957    6.6866    3.6361 C   0  0  0  0  0  0  0  0  0  0  0  0
   80.4990    8.2254    4.4774 S   0  0  0  0  0  0  0  0  0  0  0  0
   80.2106    9.3041    3.5783 O   0  0  0  0  0  0  0  0  0  0  0  0
   79.1873    7.9892    5.4050 O   0  0  0  0  0  0  0  0  0  0  0  0
   81.6471    8.3303    5.3275 O   0  0  0  0  0  0  0  0  0  0  0  0
   79.7704    6.5661    2.4618 C   0  0  0  0  0  0  0  0  0  0  0  0
   79.7719    5.3486    1.8013 C   0  0  0  0  0  0  0  0  0  0  0  0
   81.7002    2.4670    1.1247 C   0  0  0  0  0  0  0  0  0  0  0  0
   82.9501    3.1601    1.2175 C   0  0  0  0  0  0  0  0  0  0  0  0
   83.9035    2.3050    0.7739 C   0  0  0  0  0  0  0  0  0  0  0  0
   81.8838    1.2222    0.5763 N   0  0  0  0  0  0  0  0  0  0  0  0
   83.2313    1.0998    0.4027 C   0  0  0  0  0  0  0  0  0  0  0  0
   83.8981   -0.0686    0.0158 C   0  0  0  0  0  0  0  0  0  0  0  0
   83.2222   -1.2260   -0.3881 C   0  0  0  0  0  0  0  0  0  0  0  0
   83.8850   -2.4355   -0.7623 C   0  0  0  0  0  0  0  0  0  0  0  0
   82.9290   -3.2704   -1.2377 C   0  0  0  0  0  0  0  0  0  0  0  0
   81.6867   -2.5624   -1.1569 C   0  0  0  0  0  0  0  0  0  0  0  0
   81.8766   -1.3276   -0.5889 N   0  0  0  0  0  0  0  0  0  0  0  0
   80.4807   -3.0430   -1.6545 C   0  0  0  0  0  0  0  0  0  0  0  0
   80.4825   -4.3331   -2.3831 C   0  0  0  0  0  0  0  0  0  0  0  0
   81.2261   -4.4732   -3.5574 C   0  0  0  0  0  0  0  0  0  0  0  0
   81.2257   -5.6725   -4.2505 C   0  0  0  0  0  0  0  0  0  0  0  0
   80.4792   -6.7277   -3.7524 C   0  0  0  0  0  0  0  0  0  0  0  0
   80.4828   -8.2524   -4.6190 S   0  0  0  0  0  0  0  0  0  0  0  0
   80.1808   -9.3439   -3.7401 O   0  0  0  0  0  0  0  0  0  0  0  0
   79.1817   -7.9940   -5.5554 O   0  0  0  0  0  0  0  0  0  0  0  0
   81.6384   -8.3496   -5.4600 O   0  0  0  0  0  0  0  0  0  0  0  0
   79.7396   -6.6220   -2.5856 C   0  0  0  0  0  0  0  0  0  0  0  0
   79.7419   -5.4163   -1.9037 C   0  0  0  0  0  0  0  0  0  0  0  0
   79.2754   -2.3710   -1.5022 C   0  0  0  0  0  0  0  0  0  0  0  0
   78.0261   -2.8254   -2.0362 C   0  0  0  0  0  0  0  0  0  0  0  0
   77.0722   -1.9872   -1.5629 C   0  0  0  0  0  0  0  0  0  0  0  0
   77.7439   -1.0179   -0.7554 C   0  0  0  0  0  0  0  0  0  0  0  0
   79.0894   -1.2312   -0.7578 N   0  0  0  0  0  0  0  0  0  0  0  0
   76.0197    1.9429    1.7153 H   0  0  0  0  0  0  0  0  0  0  0  0
   77.9210    3.6230    2.6275 H   0  0  0  0  0  0  0  0  0  0  0  0
   81.7847    3.5839    3.8894 H   0  0  0  0  0  0  0  0  0  0  0  0
   81.7875    5.7657    5.0795 H   0  0  0  0  0  0  0  0  0  0  0  0
   78.9224    8.8150    5.8281 H   0  0  0  0  0  0  0  0  0  0  0  0
   79.2202    7.4135    2.0724 H   0  0  0  0  0  0  0  0  0  0  0  0
   79.2192    5.2351    0.8760 H   0  0  0  0  0  0  0  0  0  0  0  0
   83.0723    4.1699    1.5738 H   0  0  0  0  0  0  0  0  0  0  0  0
   84.9677    2.4612    0.7015 H   0  0  0  0  0  0  0  0  0  0  0  0
   84.9453   -2.6073   -0.6718 H   0  0  0  0  0  0  0  0  0  0  0  0
   83.0446   -4.2765   -1.6065 H   0  0  0  0  0  0  0  0  0  0  0  0
   81.7951   -3.6315   -3.9345 H   0  0  0  0  0  0  0  0  0  0  0  0
   81.7970   -5.7922   -5.1624 H   0  0  0  0  0  0  0  0  0  0  0  0
   78.9288   -8.8074   -6.0091 H   0  0  0  0  0  0  0  0  0  0  0  0
   79.1781   -7.4717   -2.2181 H   0  0  0  0  0  0  0  0  0  0  0  0
   79.1789   -5.3151   -0.9833 H   0  0  0  0  0  0  0  0  0  0  0  0
   77.9038   -3.6746   -2.6885 H   0  0  0  0  0  0  0  0  0  0  0  0
   76.0084   -2.0109   -1.7359 H   0  0  0  0  0  0  0  0  0  0  0  0
  2  3  4  0  0  0  0
  3  4  4  0  0  0  0
  4  5  2  0  0  0  0
  5  6  4  0  0  0  0
  1  7  1  0  0  0  0
  3  7  4  0  0  0  0
  6  7  4  0  0  0  0
  6  8  4  0  0  0  0
  8  9  1  0  0  0  0
  9 10  4  0  0  0  0
 10 11  4  0  0  0  0
 11 12  4  0  0  0  0
 12 13  1  0  0  0  0
 13 14  2  0  0  0  0
 13 15  1  0  0  0  0
 13 16  2  0  0  0  0
 12 17  4  0  0  0  0
  9 18  4  0  0  0  0
 17 18  4  0  0  0  0
  8 19  4  0  0  0  0
 19 20  4  0  0  0  0
 20 21  2  0  0  0  0
  1 22  1  0  0  0  0
 19 22  4  0  0  0  0
 21 23  4  0  0  0  0
 22 23  4  0  0  0  0
 23 24  4  0  0  0  0
 24 25  4  0  0  0  0
 25 26  4  0  0  0  0
 26 27  2  0  0  0  0
 27 28  4  0  0  0  0
  1 29  1  0  0  0  0
 25 29  4  0  0  0  0
 28 29  4  0  0  0  0
 28 30  4  0  0  0  0
 30 31  1  0  0  0  0
 31 32  4  0  0  0  0
 32 33  4  0  0  0  0
 33 34  4  0  0  0  0
 34 35  1  0  0  0  0
 35 36  2  0  0  0  0
 35 37  1  0  0  0  0
 35 38  2  0  0  0  0
 34 39  4  0  0  0  0
 31 40  4  0  0  0  0
 39 40  4  0  0  0  0
 30 41  4  0  0  0  0
 41 42  4  0  0  0  0
 42 43  2  0  0  0  0
  2 44  4  0  0  0  0
 43 44  4  0  0  0  0
  1 45  1  0  0  0  0
 41 45  4  0  0  0  0
 44 45  4  0  0  0  0
  2 46  1  0  0  0  0
  4 47  1  0  0  0  0
  5 48  1  0  0  0  0
 10 49  1  0  0  0  0
 11 50  1  0  0  0  0
 15 51  1  0  0  0  0
 17 52  1  0  0  0  0
 18 53  1  0  0  0  0
 20 54  1  0  0  0  0
 21 55  1  0  0  0  0
 26 56  1  0  0  0  0
 27 57  1  0  0  0  0
 32 58  1  0  0  0  0
 33 59  1  0  0  0  0
 37 60  1  0  0  0  0
 39 61  1  0  0  0  0
 40 62  1  0  0  0  0
 42 63  1  0  0  0  0
 43 64  1  0  0  0  0
 66 67  4  0  0  0  0
 67 68  4  0  0  0  0
 68 69  2  0  0  0  0
 69 70  4  0  0  0  0
 65 71  1  0  0  0  0
 67 71  4  0  0  0  0
 70 71  4  0  0  0  0
 70 72  4  0  0  0  0
 72 73  1  0  0  0  0
 73 74  4  0  0  0  0
 74 75  4  0  0  0  0
 75 76  4  0  0  0  0
 76 77  1  0  0  0  0
 77 78  2  0  0  0  0
 77 79  1  0  0  0  0
 77 80  2  0  0  0  0
 76 81  4  0  0  0  0
 73 82  4  0  0  0  0
 81 82  4  0  0  0  0
 72 83  4  0  0  0  0
 83 84  4  0  0  0  0
 84 85  2  0  0  0  0
 65 86  1  0  0  0  0
 83 86  4  0  0  0  0
 85 87  4  0  0  0  0
 86 87  4  0  0  0  0
 87 88  4  0  0  0  0
 88 89  4  0  0  0  0
 89 90  4  0  0  0  0
 90 91  2  0  0  0  0
 91 92  4  0  0  0  0
 65 93  1  0  0  0  0
 89 93  4  0  0  0  0
 92 93  4  0  0  0  0
 92 94  4  0  0  0  0
 94 95  1  0  0  0  0
 95 96  4  0  0  0  0
 96 97  4  0  0  0  0
 97 98  4  0  0  0  0
 98 99  1  0  0  0  0
 99100  2  0  0  0  0
 99101  1  0  0  0  0
 99102  2  0  0  0  0
 98103  4  0  0  0  0
 95104  4  0  0  0  0
103104  4  0  0  0  0
 94105  4  0  0  0  0
105106  4  0  0  0  0
106107  2  0  0  0  0
 66108  4  0  0  0  0
107108  4  0  0  0  0
 65109  1  0  0  0  0
105109  4  0  0  0  0
108109  4  0  0  0  0
 66110  1  0  0  0  0
 68111  1  0  0  0  0
 69112  1  0  0  0  0
 74113  1  0  0  0  0
 75114  1  0  0  0  0
 79115  1  0  0  0  0
 81116  1  0  0  0  0
 82117  1  0  0  0  0
 84118  1  0  0  0  0
 85119  1  0  0  0  0
 90120  1  0  0  0  0
 91121  1  0  0  0  0
 96122  1  0  0  0  0
 97123  1  0  0  0  0
101124  1  0  0  0  0
103125  1  0  0  0  0
104126  1  0  0  0  0
106127  1  0  0  0  0
107128  1  0  0  0  0
 24129  4  0  0  0  0
129130  3  0  0  0  0
130131  4  0  0  0  0
131132  3  0  0  0  0
132133  4  0  0  0  0
133134  3  0  0  0  0
134135  4  0  0  0  0
135136  3  0  0  0  0
137138  3  0  0  0  0
138139  4  0  0  0  0
139140  3  0  0  0  0
140141  4  0  0  0  0
141142  3  0  0  0  0
142143  4  0  0  0  0
143144  3  0  0  0  0
145146  3  0  0  0  0
146147  4  0  0  0  0
147148  3  0  0  0  0
148149  4  0  0  0  0
149150  3  0  0  0  0
150151  4  0  0  0  0
 88152  4  0  0  0  0
151152  3  0  0  0  0
136154  4  0  0  0  0
154155  4  0  0  0  0
155156  4  0  0  0  0
156157  2  0  0  0  0
157158  4  0  0  0  0
153159  1  0  0  0  0
155159  4  0  0  0  0
158159  4  0  0  0  0
158160  4  0  0  0  0
160161  1  0  0  0  0
161162  4  0  0  0  0
162163  4  0  0  0  0
163164  4  0  0  0  0
164165  1  0  0  0  0
165166  2  0  0  0  0
165167  1  0  0  0  0
165168  2  0  0  0  0
164169  4  0  0  0  0
161170  4  0  0  0  0
169170  4  0  0  0  0
160171  4  0  0  0  0
171172  4  0  0  0  0
172173  2  0  0  0  0
153174  1  0  0  0  0
171174  4  0  0  0  0
173175  4  0  0  0  0
174175  4  0  0  0  0
137176  4  0  0  0  0
175176  4  0  0  0  0
176177  4  0  0  0  0
177178  4  0  0  0  0
178179  2  0  0  0  0
179180  4  0  0  0  0
153181  1  0  0  0  0
177181  4  0  0  0  0
180181  4  0  0  0  0
180182  4  0  0  0  0
182183  1  0  0  0  0
183184  4  0  0  0  0
184185  4  0  0  0  0
185186  4  0  0  0  0
186187  1  0  0  0  0
187188  2  0  0  0  0
187189  1  0  0  0  0
187190  2  0  0  0  0
186191  4  0  0  0  0
183192  4  0  0  0  0
191192  4  0  0  0  0
182193  4  0  0  0  0
193194  4  0  0  0  0
194195  2  0  0  0  0
154196  4  0  0  0  0
195196  4  0  0  0  0
153197  1  0  0  0  0
193197  4  0  0  0  0
196197  4  0  0  0  0
156198  1  0  0  0  0
157199  1  0  0  0  0
162200  1  0  0  0  0
163201  1  0  0  0  0
167202  1  0  0  0  0
169203  1  0  0  0  0
170204  1  0  0  0  0
172205  1  0  0  0  0
173206  1  0  0  0  0
178207  1  0  0  0  0
179208  1  0  0  0  0
184209  1  0  0  0  0
185210  1  0  0  0  0
189211  1  0  0  0  0
191212  1  0  0  0  0
192213  1  0  0  0  0
194214  1  0  0  0  0
195215  1  0  0  0  0
144217  4  0  0  0  0
217218  4  0  0  0  0
218219  4  0  0  0  0
219220  2  0  0  0  0
220221  4  0  0  0  0
216222  1  0  0  0  0
218222  4  0  0  0  0
221222  4  0  0  0  0
221223  4  0  0  0  0
223224  1  0  0  0  0
224225  4  0  0  0  0
225226  4  0  0  0  0
226227  4  0  0  0  0
227228  1  0  0  0  0
228229  2  0  0  0  0
228230  1  0  0  0  0
228231  2  0  0  0  0
227232  4  0  0  0  0
224233  4  0  0  0  0
232233  4  0  0  0  0
223234  4  0  0  0  0
234235  4  0  0  0  0
235236  2  0  0  0  0
216237  1  0  0  0  0
234237  4  0  0  0  0
236238  4  0  0  0  0
237238  4  0  0  0  0
145239  4  0  0  0  0
238239  4  0  0  0  0
239240  4  0  0  0  0
240241  4  0  0  0  0
241242  2  0  0  0  0
242243  4  0  0  0  0
216244  1  0  0  0  0
240244  4  0  0  0  0
243244  4  0  0  0  0
243245  4  0  0  0  0
245246  1  0  0  0  0
246247  4  0  0  0  0
247248  4  0  0  0  0
248249  4  0  0  0  0
249250  1  0  0  0  0
250251  2  0  0  0  0
250252  1  0  0  0  0
250253  2  0  0  0  0
249254  4  0  0  0  0
246255  4  0  0  0  0
254255  4  0  0  0  0
245256  4  0  0  0  0
256257  4  0  0  0  0
257258  2  0  0  0  0
217259  4  0  0  0  0
258259  4  0  0  0  0
216260  1  0  0  0  0
256260  4  0  0  0  0
259260  4  0  0  0  0
219261  1  0  0  0  0
220262  1  0  0  0  0
225263  1  0  0  0  0
226264  1  0  0  0  0
230265  1  0  0  0  0
232266  1  0  0  0  0
233267  1  0  0  0  0
235268  1  0  0  0  0
236269  1  0  0  0  0
241270  1  0  0  0  0
242271  1  0  0  0  0
247272  1  0  0  0  0
248273  1  0  0  0  0
252274  1  0  0  0  0
254275  1  0  0  0  0
255276  1  0  0  0  0
257277  1  0  0  0  0
258278  1  0  0  0  0
M  END
