334

C 51.587243 -0.038858 -0.168686
C 52.319558 -1.403953 0.009143
C 51.719476 -2.642072 0.032912
C 52.742864 -3.594921 0.275359
C 53.932527 -2.903833 0.400092
N 53.669520 -1.574967 0.180889
C 55.349661 -3.515255 0.757648
C 55.382462 -4.902061 1.273484
C 55.683851 -5.966511 0.412833
C 55.708811 -7.276655 0.893670
C 55.427462 -7.516099 2.245885
N 55.451154 -8.890899 2.757261
O 55.720604 -9.804455 1.961634
O 55.198432 -9.071013 3.958814
C 55.123077 -6.459949 3.115735
C 55.101594 -5.154094 2.622960
C 56.480523 -2.769251 0.640022
C 57.779963 -3.281521 1.025083
C 58.682850 -2.328944 0.823732
N 56.680377 -1.487761 0.201045
C 58.009080 -1.162645 0.288532
C 58.677472 -0.020833 -0.024632
C 57.901841 1.222223 -0.631857
C 58.441927 2.210820 -1.430634
C 57.415990 3.151327 -1.698526
C 56.276789 2.705386 -1.063021
N 56.567791 1.502573 -0.464501
C 54.868673 3.431941 -1.042090
C 54.842947 4.894988 -1.250682
C 54.481418 5.425949 -2.496661
C 54.466173 6.807120 -2.697821
C 54.819181 7.657455 -1.640953
N 54.804969 9.110031 -1.845550
O 54.490423 9.537781 -2.967371
O 55.109033 9.837473 -0.887194
C 55.185864 7.138540 -0.391672
C 55.196741 5.755317 -0.203156
C 53.740178 2.712844 -0.811569
C 52.417794 3.311938 -0.766358
C 51.530578 2.348478 -0.536485
C 52.251933 1.105749 -0.413744
N 53.573979 1.376803 -0.578753
H 50.508565 -0.023930 -0.068005
H 50.665307 -2.835705 -0.093182
H 52.618557 -4.662580 0.373010
H 54.365535 -0.833924 0.151983
H 55.902919 -5.754378 -0.632531
H 55.948511 -8.083229 0.206500
H 54.903610 -6.627541 4.166459
H 54.870091 -4.316983 3.279820
H 57.990885 -4.259038 1.419639
H 59.733426 -2.429344 1.026924
H 59.464007 2.259165 -1.774646
H 57.501728 4.053474 -2.284829
H 55.885096 0.893183 -0.021618
H 54.208166 4.744790 -3.301219
H 54.178388 7.192376 -3.671942
H 55.462689 7.782901 0.438070
H 55.477309 5.329673 0.759076
H 52.186870 4.353747 -0.894292
H 50.466075 2.468356 -0.446609
C 132.695841 -0.079307 -0.157513
C 131.963526 1.183506 -0.705610
C 132.563608 2.258268 -1.320744
C 131.540220 3.200458 -1.601776
C 130.350557 2.671388 -1.139990
N 130.613564 1.418430 -0.645999
C 128.933423 3.379650 -1.146980
C 128.900621 4.834597 -1.416142
C 128.599233 5.306337 -2.701146
C 128.574272 6.677527 -2.960993
C 128.855622 7.577119 -1.923421
N 128.831930 9.019472 -2.190247
O 128.562480 9.395092 -3.341993
O 129.084652 9.790811 -1.251522
C 129.160007 7.117223 -0.634784
C 129.181490 5.743586 -0.387383
C 127.802561 2.679047 -0.865000
C 126.503121 3.316334 -0.797489
C 125.600234 2.395472 -0.481327
N 127.602707 1.353935 -0.583937
C 126.274004 1.119826 -0.341971
C 125.605612 -0.020833 -0.024632
C 126.381243 -1.399323 0.092311
C 125.841157 -2.657759 -0.085752
C 126.867094 -3.602418 0.167109
C 128.006295 -2.893500 0.483599
N 127.715293 -1.554016 0.379842
C 129.414411 -3.506291 0.874507
C 129.440137 -4.868958 1.446482
C 129.801666 -5.964200 0.649720
C 129.816911 -7.252785 1.186046
C 129.463903 -7.440052 2.529539
N 129.478115 -8.791682 3.099567
O 129.792661 -9.734617 2.356380
O 129.174051 -8.924047 4.295434
C 129.097220 -6.353452 3.335317
C 129.086343 -5.069596 2.787086
C 130.542905 -2.770830 0.703225
C 131.865289 -3.261768 1.049543
C 132.752506 -2.316926 0.752272
C 132.031151 -1.187405 0.219710
N 130.709104 -1.504725 0.217232
H 133.774519 -0.040438 -0.063445
H 133.617777 2.359721 -1.528351
H 131.664527 4.166855 -2.066008
H 129.917549 0.767624 -0.290424
H 128.380165 4.587693 -3.489394
H 128.334573 7.017005 -3.964745
H 129.379474 7.800394 0.180928
H 129.412993 5.362343 0.606031
H 126.292198 4.357772 -0.960644
H 124.549658 2.585935 -0.358483
H 124.819077 -2.875832 -0.356170
H 126.781356 -4.677598 0.127017
H 128.397988 -0.803699 0.447123
H 130.074918 -5.792609 -0.390398
H 130.104696 -8.083436 0.547804
H 128.820395 -6.480536 4.378161
H 128.805775 -4.210387 3.394394
H 132.096214 -4.221525 1.474516
H 133.817009 -2.373673 0.890939
C 60.873687 -0.006143 -0.014357
C 62.331914 -0.027979 -0.032230
C 63.465842 -0.048733 -0.033721
C 64.827223 -0.061323 -0.035912
C 66.101442 -0.051016 -0.040677
C 67.289905 -0.032218 -0.046833
C 68.642265 -0.007434 -0.030965
C 69.742533 -0.006143 -0.014357
C 78.721296 -0.006143 -0.014357
C 80.179523 -0.027979 -0.032230
C 81.313451 -0.048733 -0.033721
C 82.674832 -0.061323 -0.035912
C 83.949051 -0.051016 -0.040677
C 85.137514 -0.032218 -0.046833
C 86.489874 -0.007434 -0.030965
C 87.590142 -0.006143 -0.014357
C 96.568905 -0.006143 -0.014357
C 98.027132 -0.027979 -0.032230
C 99.161060 -0.048733 -0.033721
C 100.522441 -0.061323 -0.035912
C 101.796660 -0.051016 -0.040677
C 102.985123 -0.032218 -0.046833
C 104.337483 -0.007434 -0.030965
C 105.437751 -0.006143 -0.014357
C 114.416514 -0.006143 -0.014357
C 115.874741 -0.027979 -0.032230
C 117.008669 -0.048733 -0.033721
C 118.370050 -0.061323 -0.035912
C 119.644269 -0.051016 -0.040677
C 120.832732 -0.032218 -0.046833
C 122.185092 -0.007434 -0.030965
C 123.285360 -0.006143 -0.014357
C 70.714274 0.015212 0.019248
C 71.509977 1.250900 -0.571189
C 71.010209 2.513499 -0.816600
C 72.049179 3.270275 -1.416808
C 73.151610 2.447225 -1.513679
N 72.836283 1.247860 -0.926394
C 74.537906 2.806690 -2.185780
C 74.525371 3.795409 -3.286103
C 74.962932 5.108498 -3.062776
C 74.940593 6.045777 -4.096948
C 74.472441 5.660839 -5.360791
N 74.445947 6.641136 -6.451858
O 74.041093 6.266440 -7.563471
O 74.828946 7.796053 -6.207242
C 74.028516 4.352387 -5.595597
C 74.056325 3.424179 -4.553106
C 75.674736 2.180076 -1.785554
C 76.960034 2.431285 -2.404777
C 77.869406 1.670472 -1.805129
N 75.884945 1.240546 -0.815692
C 77.209163 0.895391 -0.774447
C 77.873581 0.015212 0.019248
C 77.077826 -0.802450 1.117797
C 77.577327 -1.286140 2.309729
C 76.538378 -2.021192 2.936407
C 75.436221 -1.958159 2.109707
N 75.751691 -1.150917 1.045930
C 74.050010 -2.687110 2.332596
C 74.062590 -3.957587 3.090285
C 74.530582 -5.129314 2.481073
C 74.558378 -6.331393 3.190547
C 74.115546 -6.353367 4.520084
N 74.142079 -7.613149 5.271315
O 73.760718 -7.595758 6.452256
O 74.545332 -8.631846 4.688550
C 73.648453 -5.187383 5.142130
C 73.626051 -3.991731 4.422123
C 72.913168 -2.173482 1.795033
C 71.627868 -2.829506 1.922115
C 70.718478 -2.094300 1.291353
C 71.378718 -0.933437 0.729676
N 72.702950 -1.040553 1.060312
H 70.005348 2.848245 -0.607732
H 71.991960 4.293038 -1.757150
H 73.492952 0.495085 -0.741641
H 75.324633 5.383363 -2.073057
H 75.289110 7.055317 -3.897943
H 73.661552 4.037309 -6.568450
H 73.715803 2.402276 -4.713080
H 77.156348 3.107715 -3.216902
H 78.913637 1.644972 -2.058474
H 78.581993 -1.145203 2.678805
H 76.595422 -2.551988 3.874574
H 75.095131 -0.824845 0.342638
H 74.870260 -5.089175 1.447227
H 74.924502 -7.225304 2.693296
H 73.300809 -5.186845 6.171390
H 73.265120 -3.073523 4.883160
H 71.431554 -3.756846 2.429197
H 69.674232 -2.337924 1.217537
C 88.561883 0.015212 0.019248
C 89.357586 1.250900 -0.571189
C 88.857818 2.513499 -0.816600
C 89.896788 3.270275 -1.416808
C 90.999219 2.447225 -1.513679
N 90.683892 1.247860 -0.926394
C 92.385515 2.806690 -2.185780
C 92.372980 3.795409 -3.286103
C 92.810541 5.108498 -3.062776
C 92.788202 6.045777 -4.096948
C 92.320050 5.660839 -5.360791
N 92.293556 6.641136 -6.451858
O 91.888702 6.266440 -7.563471
O 92.676555 7.796053 -6.207242
C 91.876125 4.352387 -5.595597
C 91.903934 3.424179 -4.553106
C 93.522345 2.180076 -1.785554
C 94.807643 2.431285 -2.404777
C 95.717015 1.670472 -1.805129
N 93.732554 1.240546 -0.815692
C 95.056772 0.895391 -0.774447
C 95.721190 0.015212 0.019248
C 94.925435 -0.802450 1.117797
C 95.424936 -1.286140 2.309729
C 94.385987 -2.021192 2.936407
C 93.283830 -1.958159 2.109707
N 93.599300 -1.150917 1.045930
C 91.897619 -2.687110 2.332596
C 91.910199 -3.957587 3.090285
C 92.378191 -5.129314 2.481073
C 92.405987 -6.331393 3.190547
C 91.963155 -6.353367 4.520084
N 91.989688 -7.613149 5.271315
O 91.608327 -7.595758 6.452256
O 92.392941 -8.631846 4.688550
C 91.496062 -5.187383 5.142130
C 91.473660 -3.991731 4.422123
C 90.760777 -2.173482 1.795033
C 89.475477 -2.829506 1.922115
C 88.566087 -2.094300 1.291353
C 89.226327 -0.933437 0.729676
N 90.550559 -1.040553 1.060312
H 87.852957 2.848245 -0.607732
H 89.839569 4.293038 -1.757150
H 91.340561 0.495085 -0.741641
H 93.172242 5.383363 -2.073057
H 93.136719 7.055317 -3.897943
H 91.509161 4.037309 -6.568450
H 91.563412 2.402276 -4.713080
H 95.003957 3.107715 -3.216902
H 96.761246 1.644972 -2.058474
H 96.429602 -1.145203 2.678805
H 94.443031 -2.551988 3.874574
H 92.942740 -0.824845 0.342638
H 92.717869 -5.089175 1.447227
H 92.772111 -7.225304 2.693296
H 91.148418 -5.186845 6.171390
H 91.112729 -3.073523 4.883160
H 89.279163 -3.756846 2.429197
H 87.521841 -2.337924 1.217537
C 106.409492 0.015212 0.019248
C 107.205195 1.250900 -0.571189
C 106.705427 2.513499 -0.816600
C 107.744397 3.270275 -1.416808
C 108.846828 2.447225 -1.513679
N 108.531501 1.247860 -0.926394
C 110.233124 2.806690 -2.185780
C 110.220589 3.795409 -3.286103
C 110.658150 5.108498 -3.062776
C 110.635811 6.045777 -4.096948
C 110.167659 5.660839 -5.360791
N 110.141165 6.641136 -6.451858
O 109.736311 6.266440 -7.563471
O 110.524164 7.796053 -6.207242
C 109.723734 4.352387 -5.595597
C 109.751543 3.424179 -4.553106
C 111.369954 2.180076 -1.785554
C 112.655252 2.431285 -2.404777
C 113.564624 1.670472 -1.805129
N 111.580163 1.240546 -0.815692
C 112.904381 0.895391 -0.774447
C 113.568799 0.015212 0.019248
C 112.773044 -0.802450 1.117797
C 113.272545 -1.286140 2.309729
C 112.233596 -2.021192 2.936407
C 111.131439 -1.958159 2.109707
N 111.446909 -1.150917 1.045930
C 109.745228 -2.687110 2.332596
C 109.757808 -3.957587 3.090285
C 110.225800 -5.129314 2.481073
C 110.253596 -6.331393 3.190547
C 109.810764 -6.353367 4.520084
N 109.837297 -7.613149 5.271315
O 109.455936 -7.595758 6.452256
O 110.240550 -8.631846 4.688550
C 109.343671 -5.187383 5.142130
C 109.321269 -3.991731 4.422123
C 108.608386 -2.173482 1.795033
C 107.323086 -2.829506 1.922115
C 106.413696 -2.094300 1.291353
C 107.073936 -0.933437 0.729676
N 108.398168 -1.040553 1.060312
H 105.700566 2.848245 -0.607732
H 107.687178 4.293038 -1.757150
H 109.188170 0.495085 -0.741641
H 111.019851 5.383363 -2.073057
H 110.984329 7.055317 -3.897943
H 109.356770 4.037309 -6.568450
H 109.411021 2.402276 -4.713080
H 112.851566 3.107715 -3.216902
H 114.608855 1.644972 -2.058474
H 114.277211 -1.145203 2.678805
H 112.290640 -2.551988 3.874574
H 110.790349 -0.824845 0.342638
H 110.565478 -5.089175 1.447227
H 110.619720 -7.225304 2.693296
H 108.996027 -5.186845 6.171390
H 108.960338 -3.073523 4.883160
H 107.126772 -3.756846 2.429197
H 105.369450 -2.337924 1.217537
