 xtb: 6.5.1 (b24c23e)
          07302215583D

334378  0     0  0            999 V2000
   51.5923   -0.1182   -0.0621 C   0  0  0  0  0  0  0  0  0  0  0  0
   52.2110   -1.3245    0.2385 C   0  0  0  0  0  0  0  0  0  0  0  0
   51.5693   -2.5681    0.4986 C   0  0  0  0  0  0  0  0  0  0  0  0
   52.5377   -3.4940    0.7649 C   0  0  0  0  0  0  0  0  0  0  0  0
   53.8024   -2.8428    0.6860 C   0  0  0  0  0  0  0  0  0  0  0  0
   53.5551   -1.5415    0.3556 N   0  0  0  0  0  0  0  0  0  0  0  0
   55.0709   -3.4042    0.8748 C   0  0  0  0  0  0  0  0  0  0  0  0
   55.1138   -4.8355    1.2538 C   0  0  0  0  0  0  0  0  0  0  0  0
   55.7683   -5.7628    0.4367 C   0  0  0  0  0  0  0  0  0  0  0  0
   55.8073   -7.1010    0.7827 C   0  0  0  0  0  0  0  0  0  0  0  0
   55.1901   -7.5165    1.9593 C   0  0  0  0  0  0  0  0  0  0  0  0
   55.2280   -8.9205    2.3278 N   0  0  0  0  0  0  0  0  0  0  0  0
   55.8101   -9.6749    1.5912 O   0  0  0  0  0  0  0  0  0  0  0  0
   54.6743   -9.2446    3.3471 O   0  0  0  0  0  0  0  0  0  0  0  0
   54.5361   -6.6095    2.7884 C   0  0  0  0  0  0  0  0  0  0  0  0
   54.4986   -5.2743    2.4305 C   0  0  0  0  0  0  0  0  0  0  0  0
   56.2821   -2.7211    0.7336 C   0  0  0  0  0  0  0  0  0  0  0  0
   57.5828   -3.3107    0.9975 C   0  0  0  0  0  0  0  0  0  0  0  0
   58.4951   -2.3487    0.7497 C   0  0  0  0  0  0  0  0  0  0  0  0
   56.4253   -1.4210    0.3579 N   0  0  0  0  0  0  0  0  0  0  0  0
   57.7504   -1.1712    0.3468 C   0  0  0  0  0  0  0  0  0  0  0  0
   58.3783    0.0401   -0.0081 C   0  0  0  0  0  0  0  0  0  0  0  0
   57.7334    1.2413   -0.3593 C   0  0  0  0  0  0  0  0  0  0  0  0
   58.3692    2.4552   -0.7315 C   0  0  0  0  0  0  0  0  0  0  0  0
   57.3958    3.3842   -0.9743 C   0  0  0  0  0  0  0  0  0  0  0  0
   56.1343    2.7661   -0.7492 C   0  0  0  0  0  0  0  0  0  0  0  0
   56.3900    1.4700   -0.3893 N   0  0  0  0  0  0  0  0  0  0  0  0
   54.8660    3.3398   -0.8965 C   0  0  0  0  0  0  0  0  0  0  0  0
   54.8211    4.7730   -1.2645 C   0  0  0  0  0  0  0  0  0  0  0  0
   54.1896    5.1805   -2.4442 C   0  0  0  0  0  0  0  0  0  0  0  0
   54.1436    6.5180   -2.7918 C   0  0  0  0  0  0  0  0  0  0  0  0
   54.7301    7.4592   -1.9503 C   0  0  0  0  0  0  0  0  0  0  0  0
   54.6824    8.8652   -2.3088 N   0  0  0  0  0  0  0  0  0  0  0  0
   54.1212    9.1611   -3.3326 O   0  0  0  0  0  0  0  0  0  0  0  0
   55.2066    9.6498   -1.5601 O   0  0  0  0  0  0  0  0  0  0  0  0
   55.3621    7.0754   -0.7708 C   0  0  0  0  0  0  0  0  0  0  0  0
   55.4074    5.7347   -0.4352 C   0  0  0  0  0  0  0  0  0  0  0  0
   53.6534    2.6628   -0.7224 C   0  0  0  0  0  0  0  0  0  0  0  0
   52.3427    3.2870   -0.8258 C   0  0  0  0  0  0  0  0  0  0  0  0
   51.4381    2.3149   -0.5953 C   0  0  0  0  0  0  0  0  0  0  0  0
   52.1945    1.1018   -0.3376 C   0  0  0  0  0  0  0  0  0  0  0  0
   53.5252    1.3517   -0.4126 N   0  0  0  0  0  0  0  0  0  0  0  0
   50.5073   -0.1403   -0.0778 H   0  0  0  0  0  0  0  0  0  0  0  0
   50.5024   -2.7222    0.4755 H   0  0  0  0  0  0  0  0  0  0  0  0
   52.3945   -4.5390    0.9867 H   0  0  0  0  0  0  0  0  0  0  0  0
   54.2748   -0.8404    0.2150 H   0  0  0  0  0  0  0  0  0  0  0  0
   56.2333   -5.4290   -0.4835 H   0  0  0  0  0  0  0  0  0  0  0  0
   56.3064   -7.8275    0.1528 H   0  0  0  0  0  0  0  0  0  0  0  0
   54.0682   -6.9573    3.7015 H   0  0  0  0  0  0  0  0  0  0  0  0
   54.0050   -4.5566    3.0755 H   0  0  0  0  0  0  0  0  0  0  0  0
   57.7532   -4.3182    1.3407 H   0  0  0  0  0  0  0  0  0  0  0  0
   59.5686   -2.4023    0.8334 H   0  0  0  0  0  0  0  0  0  0  0  0
   59.4361    2.5896   -0.8062 H   0  0  0  0  0  0  0  0  0  0  0  0
   57.5367    4.4040   -1.2930 H   0  0  0  0  0  0  0  0  0  0  0  0
   55.6723    0.7827   -0.1838 H   0  0  0  0  0  0  0  0  0  0  0  0
   53.7488    4.4371   -3.0980 H   0  0  0  0  0  0  0  0  0  0  0  0
   53.6621    6.8419   -3.7066 H   0  0  0  0  0  0  0  0  0  0  0  0
   55.8066    7.8276   -0.1303 H   0  0  0  0  0  0  0  0  0  0  0  0
   55.8833    5.4256    0.4882 H   0  0  0  0  0  0  0  0  0  0  0  0
   52.1637    4.3298   -1.0319 H   0  0  0  0  0  0  0  0  0  0  0  0
   50.3618    2.3829   -0.5837 H   0  0  0  0  0  0  0  0  0  0  0  0
  132.6984    0.0354   -0.1301 C   0  0  0  0  0  0  0  0  0  0  0  0
  132.0820    1.2268   -0.4893 C   0  0  0  0  0  0  0  0  0  0  0  0
  132.7261    2.4260   -0.9051 C   0  0  0  0  0  0  0  0  0  0  0  0
  131.7597    3.3604   -1.1482 C   0  0  0  0  0  0  0  0  0  0  0  0
  130.4940    2.7643   -0.8796 C   0  0  0  0  0  0  0  0  0  0  0  0
  130.7386    1.4770   -0.4965 N   0  0  0  0  0  0  0  0  0  0  0  0
  129.2268    3.3461   -1.0055 C   0  0  0  0  0  0  0  0  0  0  0  0
  129.1882    4.7702   -1.4112 C   0  0  0  0  0  0  0  0  0  0  0  0
  128.5381    5.1529   -2.5887 C   0  0  0  0  0  0  0  0  0  0  0  0
  128.5029    6.4808   -2.9730 C   0  0  0  0  0  0  0  0  0  0  0  0
  129.1198    7.4367   -2.1706 C   0  0  0  0  0  0  0  0  0  0  0  0
  129.0853    8.8326   -2.5686 N   0  0  0  0  0  0  0  0  0  0  0  0
  128.5070    9.1078   -3.5886 O   0  0  0  0  0  0  0  0  0  0  0  0
  129.6381    9.6298   -1.8547 O   0  0  0  0  0  0  0  0  0  0  0  0
  129.7702    7.0773   -0.9936 C   0  0  0  0  0  0  0  0  0  0  0  0
  129.8039    5.7460   -0.6210 C   0  0  0  0  0  0  0  0  0  0  0  0
  128.0139    2.6898   -0.7780 C   0  0  0  0  0  0  0  0  0  0  0  0
  126.7142    3.3324   -0.8609 C   0  0  0  0  0  0  0  0  0  0  0  0
  125.7999    2.3817   -0.5791 C   0  0  0  0  0  0  0  0  0  0  0  0
  127.8681    1.3828   -0.4283 N   0  0  0  0  0  0  0  0  0  0  0  0
  126.5425    1.1649   -0.3118 C   0  0  0  0  0  0  0  0  0  0  0  0
  125.9124   -0.0522    0.0183 C   0  0  0  0  0  0  0  0  0  0  0  0
  126.5550   -1.2610    0.3475 C   0  0  0  0  0  0  0  0  0  0  0  0
  125.9165   -2.4885    0.6664 C   0  0  0  0  0  0  0  0  0  0  0  0
  126.8880   -3.4113    0.9384 C   0  0  0  0  0  0  0  0  0  0  0  0
  128.1511   -2.7711    0.8011 C   0  0  0  0  0  0  0  0  0  0  0  0
  127.8981   -1.4763    0.4348 N   0  0  0  0  0  0  0  0  0  0  0  0
  129.4182   -3.3430    0.9644 C   0  0  0  0  0  0  0  0  0  0  0  0
  129.4600   -4.7597    1.3924 C   0  0  0  0  0  0  0  0  0  0  0  0
  130.0798   -5.7225    0.5891 C   0  0  0  0  0  0  0  0  0  0  0  0
  130.1221   -7.0469    0.9841 C   0  0  0  0  0  0  0  0  0  0  0  0
  129.5439   -7.4130    2.1964 C   0  0  0  0  0  0  0  0  0  0  0  0
  129.5875   -8.8018    2.6173 N   0  0  0  0  0  0  0  0  0  0  0  0
  130.1373   -9.5883    1.8894 O   0  0  0  0  0  0  0  0  0  0  0  0
  129.0708   -9.0825    3.6685 O   0  0  0  0  0  0  0  0  0  0  0  0
  128.9239   -6.4705    3.0119 C   0  0  0  0  0  0  0  0  0  0  0  0
  128.8821   -5.1496    2.6049 C   0  0  0  0  0  0  0  0  0  0  0  0
  130.6322   -2.6792    0.7533 C   0  0  0  0  0  0  0  0  0  0  0  0
  131.9420   -3.2725    0.9778 C   0  0  0  0  0  0  0  0  0  0  0  0
  132.8484   -2.3250    0.6661 C   0  0  0  0  0  0  0  0  0  0  0  0
  132.0940   -1.1500    0.2655 C   0  0  0  0  0  0  0  0  0  0  0  0
  130.7628   -1.3974    0.3394 N   0  0  0  0  0  0  0  0  0  0  0  0
  133.7832    0.0426   -0.1602 H   0  0  0  0  0  0  0  0  0  0  0  0
  133.7930    2.5435   -1.0066 H   0  0  0  0  0  0  0  0  0  0  0  0
  131.9049    4.3712   -1.4934 H   0  0  0  0  0  0  0  0  0  0  0  0
  130.0176    0.8050   -0.2558 H   0  0  0  0  0  0  0  0  0  0  0  0
  128.0732    4.3978   -3.2117 H   0  0  0  0  0  0  0  0  0  0  0  0
  128.0069    6.7859   -3.8866 H   0  0  0  0  0  0  0  0  0  0  0  0
  130.2383    7.8408   -0.3839 H   0  0  0  0  0  0  0  0  0  0  0  0
  130.2947    5.4561    0.3008 H   0  0  0  0  0  0  0  0  0  0  0  0
  126.5455    4.3723   -1.0887 H   0  0  0  0  0  0  0  0  0  0  0  0
  124.7263    2.4719   -0.5389 H   0  0  0  0  0  0  0  0  0  0  0  0
  124.8490   -2.6385    0.6782 H   0  0  0  0  0  0  0  0  0  0  0  0
  126.7448   -4.4471    1.1990 H   0  0  0  0  0  0  0  0  0  0  0  0
  128.6173   -0.7853    0.2478 H   0  0  0  0  0  0  0  0  0  0  0  0
  130.5141   -5.4276   -0.3590 H   0  0  0  0  0  0  0  0  0  0  0  0
  130.5944   -7.8004    0.3653 H   0  0  0  0  0  0  0  0  0  0  0  0
  128.4858   -6.7799    3.9532 H   0  0  0  0  0  0  0  0  0  0  0  0
  128.4155   -4.4044    3.2387 H   0  0  0  0  0  0  0  0  0  0  0  0
  132.1194   -4.2726    1.3390 H   0  0  0  0  0  0  0  0  0  0  0  0
  133.9248   -2.3817    0.7034 H   0  0  0  0  0  0  0  0  0  0  0  0
   59.7835    0.0634   -0.0150 C   0  0  0  0  0  0  0  0  0  0  0  0
   61.0082    0.0760   -0.0265 C   0  0  0  0  0  0  0  0  0  0  0  0
   62.3503    0.0822   -0.0387 C   0  0  0  0  0  0  0  0  0  0  0  0
   63.5812    0.0800   -0.0501 C   0  0  0  0  0  0  0  0  0  0  0  0
   64.9184    0.0731   -0.0623 C   0  0  0  0  0  0  0  0  0  0  0  0
   66.1493    0.0615   -0.0730 C   0  0  0  0  0  0  0  0  0  0  0  0
   67.4911    0.0469   -0.0832 C   0  0  0  0  0  0  0  0  0  0  0  0
   68.7160    0.0289   -0.0894 C   0  0  0  0  0  0  0  0  0  0  0  0
   78.3812   -0.0032    0.0008 C   0  0  0  0  0  0  0  0  0  0  0  0
   79.6062    0.0012    0.0163 C   0  0  0  0  0  0  0  0  0  0  0  0
   80.9477    0.0066    0.0271 C   0  0  0  0  0  0  0  0  0  0  0  0
   82.1788    0.0107    0.0320 C   0  0  0  0  0  0  0  0  0  0  0  0
   83.5156    0.0143    0.0330 C   0  0  0  0  0  0  0  0  0  0  0  0
   84.7468    0.0150    0.0282 C   0  0  0  0  0  0  0  0  0  0  0  0
   86.0882    0.0132    0.0198 C   0  0  0  0  0  0  0  0  0  0  0  0
   87.3133    0.0062    0.0105 C   0  0  0  0  0  0  0  0  0  0  0  0
   96.9773    0.0133    0.0203 C   0  0  0  0  0  0  0  0  0  0  0  0
   98.2023    0.0231    0.0305 C   0  0  0  0  0  0  0  0  0  0  0  0
   99.5438    0.0312    0.0362 C   0  0  0  0  0  0  0  0  0  0  0  0
  100.7749    0.0372    0.0388 C   0  0  0  0  0  0  0  0  0  0  0  0
  102.1117    0.0393    0.0369 C   0  0  0  0  0  0  0  0  0  0  0  0
  103.3429    0.0360    0.0320 C   0  0  0  0  0  0  0  0  0  0  0  0
  104.6843    0.0267    0.0212 C   0  0  0  0  0  0  0  0  0  0  0  0
  105.9093    0.0109    0.0114 C   0  0  0  0  0  0  0  0  0  0  0  0
  115.5745   -0.1201   -0.0397 C   0  0  0  0  0  0  0  0  0  0  0  0
  116.7995   -0.1247   -0.0268 C   0  0  0  0  0  0  0  0  0  0  0  0
  118.1414   -0.1247   -0.0151 C   0  0  0  0  0  0  0  0  0  0  0  0
  119.3723   -0.1220   -0.0035 C   0  0  0  0  0  0  0  0  0  0  0  0
  120.7096   -0.1153    0.0070 C   0  0  0  0  0  0  0  0  0  0  0  0
  121.9403   -0.1049    0.0185 C   0  0  0  0  0  0  0  0  0  0  0  0
  123.2824   -0.0916    0.0239 C   0  0  0  0  0  0  0  0  0  0  0  0
  124.5071   -0.0734    0.0256 C   0  0  0  0  0  0  0  0  0  0  0  0
   70.1201    0.0134   -0.0924 C   0  0  0  0  0  0  0  0  0  0  0  0
   70.7563    1.0094   -0.8587 C   0  0  0  0  0  0  0  0  0  0  0  0
   70.1162    2.0291   -1.6091 C   0  0  0  0  0  0  0  0  0  0  0  0
   71.0868    2.7680   -2.2285 C   0  0  0  0  0  0  0  0  0  0  0  0
   72.3485    2.2141   -1.8788 C   0  0  0  0  0  0  0  0  0  0  0  0
   72.0986    1.1610   -1.0412 N   0  0  0  0  0  0  0  0  0  0  0  0
   73.6137    2.6614   -2.2810 C   0  0  0  0  0  0  0  0  0  0  0  0
   73.6394    3.7987   -3.2308 C   0  0  0  0  0  0  0  0  0  0  0  0
   74.2618    5.0001   -2.8776 C   0  0  0  0  0  0  0  0  0  0  0  0
   74.2909    6.0633   -3.7614 C   0  0  0  0  0  0  0  0  0  0  0  0
   73.6965    5.9230   -5.0122 C   0  0  0  0  0  0  0  0  0  0  0  0
   73.7275    7.0348   -5.9460 N   0  0  0  0  0  0  0  0  0  0  0  0
   73.1966    6.8793   -7.0158 O   0  0  0  0  0  0  0  0  0  0  0  0
   74.2822    8.0438   -5.5933 O   0  0  0  0  0  0  0  0  0  0  0  0
   73.0727    4.7354   -5.3840 C   0  0  0  0  0  0  0  0  0  0  0  0
   73.0442    3.6802   -4.4905 C   0  0  0  0  0  0  0  0  0  0  0  0
   74.8353    2.1281   -1.8653 C   0  0  0  0  0  0  0  0  0  0  0  0
   76.1264    2.5829   -2.3508 C   0  0  0  0  0  0  0  0  0  0  0  0
   77.0560    1.8392   -1.7169 C   0  0  0  0  0  0  0  0  0  0  0  0
   75.0014    1.1122   -0.9747 N   0  0  0  0  0  0  0  0  0  0  0  0
   76.3313    0.9249   -0.8564 C   0  0  0  0  0  0  0  0  0  0  0  0
   76.9775   -0.0084   -0.0208 C   0  0  0  0  0  0  0  0  0  0  0  0
   76.3409   -0.9610    0.7985 C   0  0  0  0  0  0  0  0  0  0  0  0
   76.9803   -1.8906    1.6586 C   0  0  0  0  0  0  0  0  0  0  0  0
   76.0099   -2.6500    2.2528 C   0  0  0  0  0  0  0  0  0  0  0  0
   74.7492   -2.2101    1.7643 C   0  0  0  0  0  0  0  0  0  0  0  0
   74.9995   -1.1803    0.8982 N   0  0  0  0  0  0  0  0  0  0  0  0
   73.4847   -2.7045    2.1090 C   0  0  0  0  0  0  0  0  0  0  0  0
   73.4614   -3.8584    3.0385 C   0  0  0  0  0  0  0  0  0  0  0  0
   74.0803   -5.0618    2.6857 C   0  0  0  0  0  0  0  0  0  0  0  0
   74.0617   -6.1419    3.5491 C   0  0  0  0  0  0  0  0  0  0  0  0
   73.4232   -6.0164    4.7796 C   0  0  0  0  0  0  0  0  0  0  0  0
   73.4057   -7.1458    5.6925 N   0  0  0  0  0  0  0  0  0  0  0  0
   72.8372   -7.0036    6.7445 O   0  0  0  0  0  0  0  0  0  0  0  0
   73.9619   -8.1548    5.3415 O   0  0  0  0  0  0  0  0  0  0  0  0
   72.8027   -4.8269    5.1510 C   0  0  0  0  0  0  0  0  0  0  0  0
   72.8226   -3.7545    4.2781 C   0  0  0  0  0  0  0  0  0  0  0  0
   72.2633   -2.2035    1.6534 C   0  0  0  0  0  0  0  0  0  0  0  0
   70.9737   -2.7817    1.9879 C   0  0  0  0  0  0  0  0  0  0  0  0
   70.0438   -2.0203    1.3757 C   0  0  0  0  0  0  0  0  0  0  0  0
   70.7670   -0.9881    0.6593 C   0  0  0  0  0  0  0  0  0  0  0  0
   72.0967   -1.1303    0.8331 N   0  0  0  0  0  0  0  0  0  0  0  0
   69.0493    2.1746   -1.6601 H   0  0  0  0  0  0  0  0  0  0  0  0
   70.9429    3.6274   -2.8626 H   0  0  0  0  0  0  0  0  0  0  0  0
   72.8151    0.5825   -0.6155 H   0  0  0  0  0  0  0  0  0  0  0  0
   74.7107    5.1006   -1.8963 H   0  0  0  0  0  0  0  0  0  0  0  0
   74.7660    6.9997   -3.4946 H   0  0  0  0  0  0  0  0  0  0  0  0
   72.6214    4.6500   -6.3652 H   0  0  0  0  0  0  0  0  0  0  0  0
   72.5739    2.7457   -4.7739 H   0  0  0  0  0  0  0  0  0  0  0  0
   76.2795    3.3551   -3.0870 H   0  0  0  0  0  0  0  0  0  0  0  0
   78.1292    1.8790   -1.8117 H   0  0  0  0  0  0  0  0  0  0  0  0
   78.0463   -1.9595    1.8027 H   0  0  0  0  0  0  0  0  0  0  0  0
   76.1534   -3.4377    2.9741 H   0  0  0  0  0  0  0  0  0  0  0  0
   74.2835   -0.6560    0.4064 H   0  0  0  0  0  0  0  0  0  0  0  0
   74.5625   -5.1517    1.7193 H   0  0  0  0  0  0  0  0  0  0  0  0
   74.5328   -7.0801    3.2816 H   0  0  0  0  0  0  0  0  0  0  0  0
   72.3160   -4.7538    6.1161 H   0  0  0  0  0  0  0  0  0  0  0  0
   72.3545   -2.8189    4.5609 H   0  0  0  0  0  0  0  0  0  0  0  0
   70.8220   -3.6588    2.5957 H   0  0  0  0  0  0  0  0  0  0  0  0
   68.9714   -2.1308    1.3839 H   0  0  0  0  0  0  0  0  0  0  0  0
   88.7171   -0.0013   -0.0012 C   0  0  0  0  0  0  0  0  0  0  0  0
   89.3427    0.9916   -0.7803 C   0  0  0  0  0  0  0  0  0  0  0  0
   88.6917    2.0037   -1.5317 C   0  0  0  0  0  0  0  0  0  0  0  0
   89.6538    2.7423   -2.1645 C   0  0  0  0  0  0  0  0  0  0  0  0
   90.9208    2.1959   -1.8222 C   0  0  0  0  0  0  0  0  0  0  0  0
   90.6825    1.1477   -0.9751 N   0  0  0  0  0  0  0  0  0  0  0  0
   92.1805    2.6462   -2.2380 C   0  0  0  0  0  0  0  0  0  0  0  0
   92.1920    3.7759   -3.1970 C   0  0  0  0  0  0  0  0  0  0  0  0
   92.8118    4.9833   -2.8604 C   0  0  0  0  0  0  0  0  0  0  0  0
   92.8252    6.0395   -3.7529 C   0  0  0  0  0  0  0  0  0  0  0  0
   92.2172    5.8862   -4.9957 C   0  0  0  0  0  0  0  0  0  0  0  0
   92.2306    6.9912   -5.9381 N   0  0  0  0  0  0  0  0  0  0  0  0
   91.6885    6.8242   -7.0005 O   0  0  0  0  0  0  0  0  0  0  0  0
   92.7833    8.0060   -5.5994 O   0  0  0  0  0  0  0  0  0  0  0  0
   91.5961    4.6923   -5.3512 C   0  0  0  0  0  0  0  0  0  0  0  0
   91.5837    3.6440   -4.4492 C   0  0  0  0  0  0  0  0  0  0  0  0
   93.4079    2.1216   -1.8278 C   0  0  0  0  0  0  0  0  0  0  0  0
   94.6933    2.5807   -2.3240 C   0  0  0  0  0  0  0  0  0  0  0  0
   95.6310    1.8453   -1.6924 C   0  0  0  0  0  0  0  0  0  0  0  0
   93.5851    1.1109   -0.9335 N   0  0  0  0  0  0  0  0  0  0  0  0
   94.9168    0.9307   -0.8234 C   0  0  0  0  0  0  0  0  0  0  0  0
   95.5735    0.0016    0.0087 C   0  0  0  0  0  0  0  0  0  0  0  0
   94.9479   -0.9551    0.8318 C   0  0  0  0  0  0  0  0  0  0  0  0
   95.5987   -1.8861    1.6818 C   0  0  0  0  0  0  0  0  0  0  0  0
   94.6366   -2.6509    2.2827 C   0  0  0  0  0  0  0  0  0  0  0  0
   93.3699   -2.2121    1.8095 C   0  0  0  0  0  0  0  0  0  0  0  0
   93.6081   -1.1787    0.9445 N   0  0  0  0  0  0  0  0  0  0  0  0
   92.1102   -2.7094    2.1682 C   0  0  0  0  0  0  0  0  0  0  0  0
   92.0988   -3.8681    3.0920 C   0  0  0  0  0  0  0  0  0  0  0  0
   92.7090   -5.0707    2.7224 C   0  0  0  0  0  0  0  0  0  0  0  0
   92.6964   -6.1577    3.5773 C   0  0  0  0  0  0  0  0  0  0  0  0
   92.0734   -6.0394    4.8164 C   0  0  0  0  0  0  0  0  0  0  0  0
   92.0599   -7.1770    5.7192 N   0  0  0  0  0  0  0  0  0  0  0  0
   91.5056   -7.0406    6.7795 O   0  0  0  0  0  0  0  0  0  0  0  0
   92.6042   -8.1865    5.3519 O   0  0  0  0  0  0  0  0  0  0  0  0
   91.4637   -4.8501    5.2053 C   0  0  0  0  0  0  0  0  0  0  0  0
   91.4770   -3.7709    4.3407 C   0  0  0  0  0  0  0  0  0  0  0  0
   90.8830   -2.2083    1.7295 C   0  0  0  0  0  0  0  0  0  0  0  0
   89.5978   -2.7862    2.0814 C   0  0  0  0  0  0  0  0  0  0  0  0
   88.6600   -2.0263    1.4795 C   0  0  0  0  0  0  0  0  0  0  0  0
   89.3739   -0.9958    0.7513 C   0  0  0  0  0  0  0  0  0  0  0  0
   90.7055   -1.1362    0.9098 N   0  0  0  0  0  0  0  0  0  0  0  0
   87.6238    2.1446   -1.5740 H   0  0  0  0  0  0  0  0  0  0  0  0
   89.5005    3.5969   -2.8028 H   0  0  0  0  0  0  0  0  0  0  0  0
   91.4052    0.5746   -0.5524 H   0  0  0  0  0  0  0  0  0  0  0  0
   93.2707    5.0942   -1.8849 H   0  0  0  0  0  0  0  0  0  0  0  0
   93.2980    6.9806   -3.4989 H   0  0  0  0  0  0  0  0  0  0  0  0
   91.1340    4.5967   -6.3264 H   0  0  0  0  0  0  0  0  0  0  0  0
   91.1154    2.7048   -4.7199 H   0  0  0  0  0  0  0  0  0  0  0  0
   94.8376    3.3501   -3.0650 H   0  0  0  0  0  0  0  0  0  0  0  0
   96.7033    1.8903   -1.7943 H   0  0  0  0  0  0  0  0  0  0  0  0
   96.6663   -1.9528    1.8143 H   0  0  0  0  0  0  0  0  0  0  0  0
   94.7895   -3.4415    2.9989 H   0  0  0  0  0  0  0  0  0  0  0  0
   92.8856   -0.6550    0.4618 H   0  0  0  0  0  0  0  0  0  0  0  0
   93.1788   -5.1549    1.7493 H   0  0  0  0  0  0  0  0  0  0  0  0
   93.1599   -7.0957    3.2963 H   0  0  0  0  0  0  0  0  0  0  0  0
   90.9894   -4.7826    6.1770 H   0  0  0  0  0  0  0  0  0  0  0  0
   91.0165   -2.8356    4.6367 H   0  0  0  0  0  0  0  0  0  0  0  0
   89.4539   -3.6620    2.6930 H   0  0  0  0  0  0  0  0  0  0  0  0
   87.5879   -2.1370    1.5016 H   0  0  0  0  0  0  0  0  0  0  0  0
  107.3129   -0.0120   -0.0039 C   0  0  0  0  0  0  0  0  0  0  0  0
  107.9479    0.9752   -0.7825 C   0  0  0  0  0  0  0  0  0  0  0  0
  107.3069    2.0008   -1.5242 C   0  0  0  0  0  0  0  0  0  0  0  0
  108.2758    2.7302   -2.1573 C   0  0  0  0  0  0  0  0  0  0  0  0
  109.5370    2.1636   -1.8260 C   0  0  0  0  0  0  0  0  0  0  0  0
  109.2887    1.1136   -0.9839 N   0  0  0  0  0  0  0  0  0  0  0  0
  110.8004    2.5976   -2.2476 C   0  0  0  0  0  0  0  0  0  0  0  0
  110.8208    3.7349   -3.1976 C   0  0  0  0  0  0  0  0  0  0  0  0
  111.4596    4.9308   -2.8558 C   0  0  0  0  0  0  0  0  0  0  0  0
  111.4769    5.9957   -3.7380 C   0  0  0  0  0  0  0  0  0  0  0  0
  110.8541    5.8625   -4.9757 C   0  0  0  0  0  0  0  0  0  0  0  0
  110.8697    6.9773   -5.9064 N   0  0  0  0  0  0  0  0  0  0  0  0
  110.3121    6.8286   -6.9635 O   0  0  0  0  0  0  0  0  0  0  0  0
  111.4375    7.9823   -5.5632 O   0  0  0  0  0  0  0  0  0  0  0  0
  110.2153    4.6797   -5.3368 C   0  0  0  0  0  0  0  0  0  0  0  0
  110.1992    3.6227   -4.4453 C   0  0  0  0  0  0  0  0  0  0  0  0
  112.0228    2.0512   -1.8508 C   0  0  0  0  0  0  0  0  0  0  0  0
  113.3111    2.4938   -2.3546 C   0  0  0  0  0  0  0  0  0  0  0  0
  114.2425    1.7396   -1.7357 C   0  0  0  0  0  0  0  0  0  0  0  0
  112.1916    1.0319   -0.9649 N   0  0  0  0  0  0  0  0  0  0  0  0
  113.5214    0.8305   -0.8666 C   0  0  0  0  0  0  0  0  0  0  0  0
  114.1702   -0.1135   -0.0454 C   0  0  0  0  0  0  0  0  0  0  0  0
  113.5361   -1.0642    0.7780 C   0  0  0  0  0  0  0  0  0  0  0  0
  114.1789   -2.0081    1.6199 C   0  0  0  0  0  0  0  0  0  0  0  0
  113.2096   -2.7554    2.2312 C   0  0  0  0  0  0  0  0  0  0  0  0
  111.9461   -2.2929    1.7724 C   0  0  0  0  0  0  0  0  0  0  0  0
  112.1938   -1.2643    0.9043 N   0  0  0  0  0  0  0  0  0  0  0  0
  110.6814   -2.7653    2.1467 C   0  0  0  0  0  0  0  0  0  0  0  0
  110.6575   -3.9176    3.0784 C   0  0  0  0  0  0  0  0  0  0  0  0
  111.2375   -5.1357    2.7111 C   0  0  0  0  0  0  0  0  0  0  0  0
  111.2113   -6.2157    3.5745 C   0  0  0  0  0  0  0  0  0  0  0  0
  110.6051   -6.0750    4.8196 C   0  0  0  0  0  0  0  0  0  0  0  0
  110.5770   -7.2053    5.7310 N   0  0  0  0  0  0  0  0  0  0  0  0
  110.0383   -7.0489    6.7967 O   0  0  0  0  0  0  0  0  0  0  0  0
  111.0946   -8.2293    5.3652 O   0  0  0  0  0  0  0  0  0  0  0  0
  110.0256   -4.8699    5.2063 C   0  0  0  0  0  0  0  0  0  0  0  0
  110.0522   -3.7978    4.3333 C   0  0  0  0  0  0  0  0  0  0  0  0
  109.4587   -2.2450    1.7180 C   0  0  0  0  0  0  0  0  0  0  0  0
  108.1678   -2.8018    2.0827 C   0  0  0  0  0  0  0  0  0  0  0  0
  107.2369   -2.0314    1.4836 C   0  0  0  0  0  0  0  0  0  0  0  0
  107.9605   -1.0143    0.7461 C   0  0  0  0  0  0  0  0  0  0  0  0
  109.2910   -1.1736    0.8954 N   0  0  0  0  0  0  0  0  0  0  0  0
  106.2410    2.1571   -1.5593 H   0  0  0  0  0  0  0  0  0  0  0  0
  108.1309    3.5913   -2.7888 H   0  0  0  0  0  0  0  0  0  0  0  0
  110.0055    0.5278   -0.5688 H   0  0  0  0  0  0  0  0  0  0  0  0
  111.9296    5.0265   -1.8840 H   0  0  0  0  0  0  0  0  0  0  0  0
  111.9638    6.9284   -3.4795 H   0  0  0  0  0  0  0  0  0  0  0  0
  109.7421    4.5996   -6.3081 H   0  0  0  0  0  0  0  0  0  0  0  0
  109.7167    2.6920   -4.7204 H   0  0  0  0  0  0  0  0  0  0  0  0
  113.4610    3.2658   -3.0916 H   0  0  0  0  0  0  0  0  0  0  0  0
  115.3145    1.7685   -1.8463 H   0  0  0  0  0  0  0  0  0  0  0  0
  115.2466   -2.0946    1.7406 H   0  0  0  0  0  0  0  0  0  0  0  0
  113.3559   -3.5493    2.9451 H   0  0  0  0  0  0  0  0  0  0  0  0
  111.4758   -0.7263    0.4307 H   0  0  0  0  0  0  0  0  0  0  0  0
  111.6942   -5.2372    1.7335 H   0  0  0  0  0  0  0  0  0  0  0  0
  111.6510   -7.1657    3.2955 H   0  0  0  0  0  0  0  0  0  0  0  0
  109.5639   -4.7849    6.1827 H   0  0  0  0  0  0  0  0  0  0  0  0
  109.6149   -2.8507    4.6269 H   0  0  0  0  0  0  0  0  0  0  0  0
  108.0156   -3.6722    2.6998 H   0  0  0  0  0  0  0  0  0  0  0  0
  106.1634   -2.1261    1.5142 H   0  0  0  0  0  0  0  0  0  0  0  0
  1  2  4  0  0  0  0
  2  3  4  0  0  0  0
  3  4  2  0  0  0  0
  4  5  4  0  0  0  0
  2  6  4  0  0  0  0
  5  6  4  0  0  0  0
  5  7  4  0  0  0  0
  7  8  1  0  0  0  0
  8  9  4  0  0  0  0
  9 10  4  0  0  0  0
 10 11  4  0  0  0  0
 11 12  1  0  0  0  0
 12 13  2  0  0  0  0
 12 14  2  0  0  0  0
 13 14  1  0  0  0  0
 11 15  4  0  0  0  0
  8 16  4  0  0  0  0
 15 16  4  0  0  0  0
  7 17  4  0  0  0  0
 17 18  1  0  0  0  0
 18 19  2  0  0  0  0
 17 20  4  0  0  0  0
 19 21  1  0  0  0  0
 20 21  4  0  0  0  0
 21 22  4  0  0  0  0
 22 23  4  0  0  0  0
 23 24  4  0  0  0  0
 24 25  2  0  0  0  0
 25 26  4  0  0  0  0
 23 27  4  0  0  0  0
 26 27  4  0  0  0  0
 26 28  4  0  0  0  0
 28 29  1  0  0  0  0
 29 30  4  0  0  0  0
 30 31  4  0  0  0  0
 31 32  4  0  0  0  0
 32 33  1  0  0  0  0
 33 34  2  0  0  0  0
 33 35  2  0  0  0  0
 34 35  1  0  0  0  0
 32 36  4  0  0  0  0
 29 37  4  0  0  0  0
 36 37  4  0  0  0  0
 28 38  4  0  0  0  0
 38 39  1  0  0  0  0
 39 40  2  0  0  0  0
  1 41  4  0  0  0  0
 40 41  1  0  0  0  0
 38 42  4  0  0  0  0
 41 42  4  0  0  0  0
  1 43  1  0  0  0  0
  3 44  1  0  0  0  0
  4 45  1  0  0  0  0
  6 46  1  0  0  0  0
  9 47  1  0  0  0  0
 10 48  1  0  0  0  0
 15 49  1  0  0  0  0
 16 50  1  0  0  0  0
 18 51  1  0  0  0  0
 19 52  1  0  0  0  0
 24 53  1  0  0  0  0
 25 54  1  0  0  0  0
 27 55  1  0  0  0  0
 30 56  1  0  0  0  0
 31 57  1  0  0  0  0
 36 58  1  0  0  0  0
 37 59  1  0  0  0  0
 39 60  1  0  0  0  0
 40 61  1  0  0  0  0
 62 63  4  0  0  0  0
 63 64  4  0  0  0  0
 64 65  2  0  0  0  0
 65 66  4  0  0  0  0
 63 67  4  0  0  0  0
 66 67  4  0  0  0  0
 66 68  4  0  0  0  0
 68 69  1  0  0  0  0
 69 70  4  0  0  0  0
 70 71  4  0  0  0  0
 71 72  4  0  0  0  0
 72 73  1  0  0  0  0
 73 74  2  0  0  0  0
 73 75  2  0  0  0  0
 74 75  1  0  0  0  0
 72 76  4  0  0  0  0
 69 77  4  0  0  0  0
 76 77  4  0  0  0  0
 68 78  4  0  0  0  0
 78 79  1  0  0  0  0
 79 80  2  0  0  0  0
 78 81  4  0  0  0  0
 80 82  1  0  0  0  0
 81 82  4  0  0  0  0
 82 83  4  0  0  0  0
 83 84  4  0  0  0  0
 84 85  4  0  0  0  0
 85 86  2  0  0  0  0
 86 87  4  0  0  0  0
 84 88  4  0  0  0  0
 87 88  4  0  0  0  0
 87 89  4  0  0  0  0
 89 90  1  0  0  0  0
 90 91  4  0  0  0  0
 91 92  4  0  0  0  0
 92 93  4  0  0  0  0
 93 94  1  0  0  0  0
 94 95  2  0  0  0  0
 94 96  2  0  0  0  0
 95 96  1  0  0  0  0
 93 97  4  0  0  0  0
 90 98  4  0  0  0  0
 97 98  4  0  0  0  0
 89 99  4  0  0  0  0
 99100  1  0  0  0  0
100101  2  0  0  0  0
 62102  4  0  0  0  0
101102  1  0  0  0  0
 99103  4  0  0  0  0
102103  4  0  0  0  0
 62104  1  0  0  0  0
 64105  1  0  0  0  0
 65106  1  0  0  0  0
 67107  1  0  0  0  0
 70108  1  0  0  0  0
 71109  1  0  0  0  0
 76110  1  0  0  0  0
 77111  1  0  0  0  0
 79112  1  0  0  0  0
 80113  1  0  0  0  0
 85114  1  0  0  0  0
 86115  1  0  0  0  0
 88116  1  0  0  0  0
 91117  1  0  0  0  0
 92118  1  0  0  0  0
 97119  1  0  0  0  0
 98120  1  0  0  0  0
100121  1  0  0  0  0
101122  1  0  0  0  0
 22123  4  0  0  0  0
123124  3  0  0  0  0
124125  4  0  0  0  0
125126  3  0  0  0  0
126127  4  0  0  0  0
127128  3  0  0  0  0
128129  4  0  0  0  0
129130  3  0  0  0  0
131132  3  0  0  0  0
132133  4  0  0  0  0
133134  3  0  0  0  0
134135  4  0  0  0  0
135136  3  0  0  0  0
136137  4  0  0  0  0
137138  3  0  0  0  0
139140  3  0  0  0  0
140141  4  0  0  0  0
141142  3  0  0  0  0
142143  4  0  0  0  0
143144  3  0  0  0  0
144145  4  0  0  0  0
145146  3  0  0  0  0
147148  3  0  0  0  0
148149  4  0  0  0  0
149150  3  0  0  0  0
150151  4  0  0  0  0
151152  3  0  0  0  0
152153  4  0  0  0  0
 83154  4  0  0  0  0
153154  3  0  0  0  0
130155  4  0  0  0  0
155156  4  0  0  0  0
156157  4  0  0  0  0
157158  2  0  0  0  0
158159  4  0  0  0  0
156160  4  0  0  0  0
159160  4  0  0  0  0
159161  4  0  0  0  0
161162  1  0  0  0  0
162163  4  0  0  0  0
163164  4  0  0  0  0
164165  4  0  0  0  0
165166  1  0  0  0  0
166167  2  0  0  0  0
166168  2  0  0  0  0
167168  1  0  0  0  0
165169  4  0  0  0  0
162170  4  0  0  0  0
169170  4  0  0  0  0
161171  4  0  0  0  0
171172  1  0  0  0  0
172173  2  0  0  0  0
171174  4  0  0  0  0
173175  1  0  0  0  0
174175  4  0  0  0  0
131176  4  0  0  0  0
175176  4  0  0  0  0
176177  4  0  0  0  0
177178  4  0  0  0  0
178179  2  0  0  0  0
179180  4  0  0  0  0
177181  4  0  0  0  0
180181  4  0  0  0  0
180182  4  0  0  0  0
182183  1  0  0  0  0
183184  4  0  0  0  0
184185  4  0  0  0  0
185186  4  0  0  0  0
186187  1  0  0  0  0
187188  2  0  0  0  0
187189  2  0  0  0  0
188189  1  0  0  0  0
186190  4  0  0  0  0
183191  4  0  0  0  0
190191  4  0  0  0  0
182192  4  0  0  0  0
192193  1  0  0  0  0
193194  2  0  0  0  0
155195  4  0  0  0  0
194195  1  0  0  0  0
192196  4  0  0  0  0
195196  4  0  0  0  0
157197  1  0  0  0  0
158198  1  0  0  0  0
160199  1  0  0  0  0
163200  1  0  0  0  0
164201  1  0  0  0  0
169202  1  0  0  0  0
170203  1  0  0  0  0
172204  1  0  0  0  0
173205  1  0  0  0  0
178206  1  0  0  0  0
179207  1  0  0  0  0
181208  1  0  0  0  0
184209  1  0  0  0  0
185210  1  0  0  0  0
190211  1  0  0  0  0
191212  1  0  0  0  0
193213  1  0  0  0  0
194214  1  0  0  0  0
138215  4  0  0  0  0
215216  4  0  0  0  0
216217  4  0  0  0  0
217218  2  0  0  0  0
218219  4  0  0  0  0
216220  4  0  0  0  0
219220  4  0  0  0  0
219221  4  0  0  0  0
221222  1  0  0  0  0
222223  4  0  0  0  0
223224  4  0  0  0  0
224225  4  0  0  0  0
225226  1  0  0  0  0
226227  2  0  0  0  0
226228  2  0  0  0  0
227228  1  0  0  0  0
225229  4  0  0  0  0
222230  4  0  0  0  0
229230  4  0  0  0  0
221231  4  0  0  0  0
231232  1  0  0  0  0
232233  2  0  0  0  0
231234  4  0  0  0  0
233235  1  0  0  0  0
234235  4  0  0  0  0
139236  4  0  0  0  0
235236  4  0  0  0  0
236237  4  0  0  0  0
237238  4  0  0  0  0
238239  2  0  0  0  0
239240  4  0  0  0  0
237241  4  0  0  0  0
240241  4  0  0  0  0
240242  4  0  0  0  0
242243  1  0  0  0  0
243244  4  0  0  0  0
244245  4  0  0  0  0
245246  4  0  0  0  0
246247  1  0  0  0  0
247248  2  0  0  0  0
247249  2  0  0  0  0
248249  1  0  0  0  0
246250  4  0  0  0  0
243251  4  0  0  0  0
250251  4  0  0  0  0
242252  4  0  0  0  0
252253  1  0  0  0  0
253254  2  0  0  0  0
215255  4  0  0  0  0
254255  1  0  0  0  0
252256  4  0  0  0  0
255256  4  0  0  0  0
217257  1  0  0  0  0
218258  1  0  0  0  0
220259  1  0  0  0  0
223260  1  0  0  0  0
224261  1  0  0  0  0
229262  1  0  0  0  0
230263  1  0  0  0  0
232264  1  0  0  0  0
233265  1  0  0  0  0
238266  1  0  0  0  0
239267  1  0  0  0  0
241268  1  0  0  0  0
244269  1  0  0  0  0
245270  1  0  0  0  0
250271  1  0  0  0  0
251272  1  0  0  0  0
253273  1  0  0  0  0
254274  1  0  0  0  0
146275  4  0  0  0  0
275276  4  0  0  0  0
276277  4  0  0  0  0
277278  2  0  0  0  0
278279  4  0  0  0  0
276280  4  0  0  0  0
279280  4  0  0  0  0
279281  4  0  0  0  0
281282  1  0  0  0  0
282283  4  0  0  0  0
283284  4  0  0  0  0
284285  4  0  0  0  0
285286  1  0  0  0  0
286287  2  0  0  0  0
286288  2  0  0  0  0
287288  1  0  0  0  0
285289  4  0  0  0  0
282290  4  0  0  0  0
289290  4  0  0  0  0
281291  4  0  0  0  0
291292  1  0  0  0  0
292293  2  0  0  0  0
291294  4  0  0  0  0
293295  1  0  0  0  0
294295  4  0  0  0  0
147296  4  0  0  0  0
295296  4  0  0  0  0
296297  4  0  0  0  0
297298  4  0  0  0  0
298299  2  0  0  0  0
299300  4  0  0  0  0
297301  4  0  0  0  0
300301  4  0  0  0  0
300302  4  0  0  0  0
302303  1  0  0  0  0
303304  4  0  0  0  0
304305  4  0  0  0  0
305306  4  0  0  0  0
306307  1  0  0  0  0
307308  2  0  0  0  0
307309  2  0  0  0  0
308309  1  0  0  0  0
306310  4  0  0  0  0
303311  4  0  0  0  0
310311  4  0  0  0  0
302312  4  0  0  0  0
312313  1  0  0  0  0
313314  2  0  0  0  0
275315  4  0  0  0  0
314315  1  0  0  0  0
312316  4  0  0  0  0
315316  4  0  0  0  0
277317  1  0  0  0  0
278318  1  0  0  0  0
280319  1  0  0  0  0
283320  1  0  0  0  0
284321  1  0  0  0  0
289322  1  0  0  0  0
290323  1  0  0  0  0
292324  1  0  0  0  0
293325  1  0  0  0  0
298326  1  0  0  0  0
299327  1  0  0  0  0
301328  1  0  0  0  0
304329  1  0  0  0  0
305330  1  0  0  0  0
310331  1  0  0  0  0
311332  1  0  0  0  0
313333  1  0  0  0  0
314334  1  0  0  0  0
M  END
