612

C 151.218888 1.214221 -0.176932
C 152.118490 1.603574 -1.386190
C 152.029462 2.755519 -2.142302
C 153.116657 2.732357 -3.055659
C 153.795238 1.544595 -2.856058
N 153.225135 0.900323 -1.783757
C 155.087341 1.020787 -3.619425
C 154.959286 0.696841 -5.068321
C 155.262130 -0.590428 -5.535001
C 155.028874 -0.965587 -6.861903
C 154.413704 -0.084039 -7.747154
N 154.067239 -0.470674 -9.065618
C 153.194763 -1.636890 -9.092062
C 154.150235 1.219392 -7.310232
C 154.422048 1.599455 -5.987714
C 156.191719 0.747192 -2.868039
C 157.467390 0.380628 -3.449243
C 158.324694 0.141427 -2.462633
N 156.364550 0.735139 -1.508055
C 157.633437 0.321348 -1.196711
C 158.225744 0.075456 -0.001061
C 157.399083 0.149784 1.366735
C 157.932300 0.046223 2.633972
C 156.856356 0.023889 3.557125
C 155.692472 0.094250 2.824940
N 156.029837 0.238833 1.496017
C 154.220070 -0.011548 3.429182
C 154.085928 -0.476323 4.829668
C 153.849358 0.440403 5.860461
C 153.735475 0.005666 7.184735
C 153.885864 -1.349324 7.517776
N 153.714710 -1.851446 8.821895
C 153.901263 -0.938867 9.935667
C 154.105773 -2.255103 6.471268
C 154.221341 -1.825077 5.145154
C 153.142049 0.274730 2.657092
C 151.771106 0.135713 3.120844
C 150.953304 0.474780 2.126313
C 151.773163 0.835004 0.989939
N 153.073489 0.699412 1.362123
H 150.145196 1.253348 -0.292088
H 151.299368 3.543169 -2.021044
H 153.373868 3.505840 -3.768085
H 153.656331 0.156772 -1.249298
H 155.653989 -1.328075 -4.832647
H 155.308827 -1.964693 -7.172770
H 153.641065 0.318478 -9.543343
H 152.331965 -1.512368 -8.426573
H 152.811857 -1.779006 -10.104290
H 153.731519 -2.552615 -8.814926
H 153.667840 1.930950 -7.970402
H 154.196404 2.610774 -5.664798
H 157.692096 0.343338 -4.495305
H 159.352833 -0.140522 -2.601893
H 158.979948 -0.039426 2.878430
H 156.930096 -0.087029 4.627310
H 155.366836 0.359006 0.731294
H 153.752518 1.499552 5.615469
H 153.541863 0.757741 7.948609
H 154.225275 -2.721873 8.930654
H 153.091820 -0.202504 9.982802
H 154.872298 -0.428815 9.883835
H 153.875725 -1.509850 10.872497
H 154.184111 -3.318585 6.672587
H 154.397154 -2.539239 4.343603
H 151.465122 -0.204957 4.092812
H 149.879744 0.454473 2.149640
C 251.401371 1.221702 0.116568
C 250.501770 1.672154 1.304420
C 250.590797 2.861123 2.000866
C 249.503602 2.884521 2.914217
C 248.825022 1.688133 2.775385
N 249.395125 0.990070 1.737298
C 247.532919 1.203895 3.564445
C 247.660974 0.954182 5.027964
C 247.358130 -0.307641 5.559616
C 247.591385 -0.614714 6.903908
C 248.206555 0.310788 7.743100
N 248.553020 -0.008177 9.079548
C 249.425497 -1.171531 9.165370
C 248.470025 1.590268 7.240342
C 248.198212 1.902463 5.900179
C 246.428541 0.892376 2.827973
C 245.152869 0.555897 3.427096
C 244.295566 0.266744 2.453954
N 246.255710 0.811055 1.470369
C 244.986822 0.381941 1.180510
C 244.394515 0.075456 -0.001061
C 245.221176 0.080006 -1.370867
C 244.687959 -0.087979 -2.631183
C 245.763904 -0.157314 -3.552000
C 246.927787 -0.049743 -2.824349
N 246.590422 0.162353 -1.504518
C 248.400189 -0.186187 -3.422417
C 248.534332 -0.721705 -4.797407
C 248.770901 0.141318 -5.873563
C 248.884785 -0.360319 -7.173970
C 248.734395 -1.730516 -7.437551
N 248.905549 -2.298424 -8.714395
C 248.718996 -1.443770 -9.873212
C 248.514487 -2.581805 -6.346256
C 248.398918 -2.084779 -5.043773
C 249.478210 0.139053 -2.665915
C 250.849153 -0.023409 -3.121982
C 251.666956 0.365884 -2.146016
C 250.847096 0.783531 -1.029469
N 249.546771 0.629156 -1.394262
H 252.475063 1.266645 0.229581
H 251.320892 3.641573 1.839638
H 249.246392 3.693294 3.586313
H 248.963929 0.220257 1.241412
H 246.966270 -1.080110 4.895754
H 247.311432 -1.596686 7.265269
H 248.979194 0.804287 9.516450
H 250.288295 -1.081074 8.494401
H 249.808402 -1.261895 10.183523
H 248.888740 -2.100186 8.935245
H 248.952420 2.334534 7.863405
H 248.423856 2.896017 5.526162
H 244.928164 0.571946 4.473700
H 243.267426 -0.007744 2.607397
H 243.640312 -0.185970 -2.870961
H 245.690163 -0.322607 -4.615145
H 247.253424 0.321328 -0.746910
H 248.867741 1.211572 -5.682847
H 249.078396 0.351865 -7.975167
H 248.394984 -3.173261 -8.778670
H 249.528440 -0.710764 -9.957800
H 247.747961 -0.931740 -9.847431
H 248.744534 -2.061738 -10.779737
H 248.436149 -3.654163 -6.493137
H 248.223105 -2.757180 -4.206880
H 251.155137 -0.413153 -4.075333
H 252.740515 0.344415 -2.168278
C 160.391073 0.075456 -0.001061
C 161.612991 0.075456 -0.001061
C 171.907673 0.075456 -0.001061
C 173.129590 0.075456 -0.001061
C 183.424272 0.075456 -0.001061
C 184.646190 0.075456 -0.001061
C 194.940871 0.075456 -0.001061
C 196.162789 0.075456 -0.001061
C 206.457471 0.075456 -0.001061
C 207.679388 0.075456 -0.001061
C 217.974070 0.075456 -0.001061
C 219.195987 0.075456 -0.001061
C 229.490669 0.075456 -0.001061
C 230.712587 0.075456 -0.001061
C 241.007268 0.075456 -0.001061
C 242.229186 0.075456 -0.001061
C 163.225598 -0.024499 0.000344
C 164.000768 0.022767 1.386971
C 163.419661 0.037136 2.639427
C 164.461751 0.074674 3.593332
C 165.655694 0.083046 2.902044
N 165.366622 0.052119 1.558339
C 167.095762 0.118736 3.564060
C 167.157337 0.187003 5.045342
C 167.222896 -0.980484 5.808378
C 167.254027 -0.908091 7.205323
C 167.187360 0.324655 7.874127
N 167.263240 0.327830 9.278411
C 166.783133 1.500162 9.985094
C 167.176909 1.488677 7.095185
C 167.145855 1.422618 5.696593
C 168.223473 0.089932 2.806289
C 169.537322 0.116998 3.415763
C 170.447286 0.073163 2.451899
N 168.418344 0.034753 1.451045
C 169.763030 0.022101 1.175040
C 170.446738 -0.024499 0.000344
C 169.671882 -0.065598 -1.386726
C 170.252709 -0.065343 -2.639757
C 169.210698 -0.104437 -3.593892
C 168.016975 -0.125877 -2.902242
N 168.306360 -0.101697 -1.558223
C 166.577637 -0.167622 -3.562920
C 166.509564 -0.235885 -5.043719
C 166.459994 0.933746 -5.805820
C 166.387034 0.868365 -7.202814
C 166.330920 -0.363581 -7.866963
N 166.299934 -0.492752 -9.267575
C 165.758699 0.611126 -10.038294
C 166.438494 -1.529236 -7.091922
C 166.510953 -1.470177 -5.696079
C 165.449348 -0.140109 -2.805216
C 164.135157 -0.170345 -3.414412
C 163.224875 -0.126797 -2.450929
C 163.909097 -0.072261 -1.174335
N 165.253794 -0.082862 -1.450203
H 162.362395 0.019368 2.854427
H 164.351328 0.091352 4.667493
H 166.053983 0.042401 0.808520
H 167.257695 -1.943038 5.303455
H 167.326699 -1.835120 7.765764
H 166.882119 -0.538877 9.648295
H 165.752021 1.743021 9.707474
H 166.799096 1.299705 11.061418
H 167.428386 2.366999 9.810647
H 167.191250 2.472946 7.548674
H 167.120834 2.333273 5.102183
H 169.753703 0.162984 4.468461
H 171.508650 0.079567 2.619285
H 171.309760 -0.038119 -2.854985
H 169.321230 -0.113382 -4.668527
H 167.619340 -0.099574 -0.808125
H 166.479928 1.896090 -5.299250
H 166.370979 1.805501 -7.747002
H 165.887552 -1.386874 -9.521393
H 166.413249 1.487596 -9.999250
H 165.686893 0.311201 -11.088964
H 164.753093 0.883275 -9.700512
H 166.458790 -2.505704 -7.565918
H 166.569233 -2.381950 -5.106333
H 163.918579 -0.218119 -4.466801
H 162.163509 -0.135075 -2.617884
C 174.742197 -0.024499 0.000344
C 175.517367 0.022767 1.386971
C 174.936260 0.037136 2.639427
C 175.978350 0.074674 3.593332
C 177.172293 0.083046 2.902044
N 176.883221 0.052119 1.558339
C 178.612361 0.118736 3.564060
C 178.673936 0.187003 5.045342
C 178.739495 -0.980484 5.808378
C 178.770626 -0.908091 7.205323
C 178.703959 0.324655 7.874127
N 178.779840 0.327830 9.278411
C 178.299732 1.500162 9.985094
C 178.693509 1.488677 7.095185
C 178.662454 1.422618 5.696593
C 179.740073 0.089932 2.806289
C 181.053921 0.116998 3.415763
C 181.963885 0.073163 2.451899
N 179.934943 0.034753 1.451045
C 181.279629 0.022101 1.175040
C 181.963337 -0.024499 0.000344
C 181.188482 -0.065598 -1.386726
C 181.769309 -0.065343 -2.639757
C 180.727298 -0.104437 -3.593892
C 179.533575 -0.125877 -2.902242
N 179.822959 -0.101697 -1.558223
C 178.094236 -0.167622 -3.562920
C 178.026164 -0.235885 -5.043719
C 177.976593 0.933746 -5.805820
C 177.903634 0.868365 -7.202814
C 177.847520 -0.363581 -7.866963
N 177.816533 -0.492752 -9.267575
C 177.275299 0.611126 -10.038294
C 177.955094 -1.529236 -7.091922
C 178.027552 -1.470177 -5.696079
C 176.965947 -0.140109 -2.805216
C 175.651757 -0.170345 -3.414412
C 174.741474 -0.126797 -2.450929
C 175.425697 -0.072261 -1.174335
N 176.770393 -0.082862 -1.450203
H 173.878994 0.019368 2.854427
H 175.867927 0.091352 4.667493
H 177.570582 0.042401 0.808520
H 178.774294 -1.943038 5.303455
H 178.843298 -1.835120 7.765764
H 178.398718 -0.538877 9.648295
H 177.268621 1.743021 9.707474
H 178.315695 1.299705 11.061418
H 178.944985 2.366999 9.810647
H 178.707849 2.472946 7.548674
H 178.637433 2.333273 5.102183
H 181.270302 0.162984 4.468461
H 183.025249 0.079567 2.619285
H 182.826359 -0.038119 -2.854985
H 180.837830 -0.113382 -4.668527
H 179.135939 -0.099574 -0.808125
H 177.996527 1.896090 -5.299250
H 177.887578 1.805501 -7.747002
H 177.404151 -1.386874 -9.521393
H 177.929848 1.487596 -9.999250
H 177.203492 0.311201 -11.088964
H 176.269693 0.883275 -9.700512
H 177.975390 -2.505704 -7.565918
H 178.085832 -2.381950 -5.106333
H 175.435178 -0.218119 -4.466801
H 173.680108 -0.135075 -2.617884
C 186.258797 -0.024499 0.000344
C 187.033967 0.022767 1.386971
C 186.452860 0.037136 2.639427
C 187.494950 0.074674 3.593332
C 188.688892 0.083046 2.902044
N 188.399820 0.052119 1.558339
C 190.128960 0.118736 3.564060
C 190.190536 0.187003 5.045342
C 190.256095 -0.980484 5.808378
C 190.287226 -0.908091 7.205323
C 190.220558 0.324655 7.874127
N 190.296439 0.327830 9.278411
C 189.816331 1.500162 9.985094
C 190.210108 1.488677 7.095185
C 190.179053 1.422618 5.696593
C 191.256672 0.089932 2.806289
C 192.570520 0.116998 3.415763
C 193.480484 0.073163 2.451899
N 191.451543 0.034753 1.451045
C 192.796229 0.022101 1.175040
C 193.479936 -0.024499 0.000344
C 192.705081 -0.065598 -1.386726
C 193.285908 -0.065343 -2.639757
C 192.243897 -0.104437 -3.593892
C 191.050174 -0.125877 -2.902242
N 191.339558 -0.101697 -1.558223
C 189.610835 -0.167622 -3.562920
C 189.542763 -0.235885 -5.043719
C 189.493193 0.933746 -5.805820
C 189.420233 0.868365 -7.202814
C 189.364119 -0.363581 -7.866963
N 189.333133 -0.492752 -9.267575
C 188.791898 0.611126 -10.038294
C 189.471693 -1.529236 -7.091922
C 189.544152 -1.470177 -5.696079
C 188.482547 -0.140109 -2.805216
C 187.168356 -0.170345 -3.414412
C 186.258074 -0.126797 -2.450929
C 186.942296 -0.072261 -1.174335
N 188.286993 -0.082862 -1.450203
H 185.395594 0.019368 2.854427
H 187.384527 0.091352 4.667493
H 189.087182 0.042401 0.808520
H 190.290894 -1.943038 5.303455
H 190.359897 -1.835120 7.765764
H 189.915318 -0.538877 9.648295
H 188.785220 1.743021 9.707474
H 189.832294 1.299705 11.061418
H 190.461585 2.366999 9.810647
H 190.224448 2.472946 7.548674
H 190.154032 2.333273 5.102183
H 192.786902 0.162984 4.468461
H 194.541848 0.079567 2.619285
H 194.342958 -0.038119 -2.854985
H 192.354429 -0.113382 -4.668527
H 190.652538 -0.099574 -0.808125
H 189.513127 1.896090 -5.299250
H 189.404177 1.805501 -7.747002
H 188.920750 -1.386874 -9.521393
H 189.446448 1.487596 -9.999250
H 188.720091 0.311201 -11.088964
H 187.786292 0.883275 -9.700512
H 189.491989 -2.505704 -7.565918
H 189.602432 -2.381950 -5.106333
H 186.951777 -0.218119 -4.466801
H 185.196708 -0.135075 -2.617884
C 197.775396 -0.024499 0.000344
C 198.550566 0.022767 1.386971
C 197.969459 0.037136 2.639427
C 199.011549 0.074674 3.593332
C 200.205492 0.083046 2.902044
N 199.916419 0.052119 1.558339
C 201.645560 0.118736 3.564060
C 201.707135 0.187003 5.045342
C 201.772694 -0.980484 5.808378
C 201.803825 -0.908091 7.205323
C 201.737158 0.324655 7.874127
N 201.813038 0.327830 9.278411
C 201.332931 1.500162 9.985094
C 201.726707 1.488677 7.095185
C 201.695653 1.422618 5.696593
C 202.773271 0.089932 2.806289
C 204.087120 0.116998 3.415763
C 204.997084 0.073163 2.451899
N 202.968142 0.034753 1.451045
C 204.312828 0.022101 1.175040
C 204.996536 -0.024499 0.000344
C 204.221680 -0.065598 -1.386726
C 204.802507 -0.065343 -2.639757
C 203.760496 -0.104437 -3.593892
C 202.566773 -0.125877 -2.902242
N 202.856158 -0.101697 -1.558223
C 201.127435 -0.167622 -3.562920
C 201.059362 -0.235885 -5.043719
C 201.009792 0.933746 -5.805820
C 200.936832 0.868365 -7.202814
C 200.880718 -0.363581 -7.866963
N 200.849732 -0.492752 -9.267575
C 200.308497 0.611126 -10.038294
C 200.988292 -1.529236 -7.091922
C 201.060751 -1.470177 -5.696079
C 199.999146 -0.140109 -2.805216
C 198.684955 -0.170345 -3.414412
C 197.774673 -0.126797 -2.450929
C 198.458895 -0.072261 -1.174335
N 199.803592 -0.082862 -1.450203
H 196.912193 0.019368 2.854427
H 198.901126 0.091352 4.667493
H 200.603781 0.042401 0.808520
H 201.807493 -1.943038 5.303455
H 201.876497 -1.835120 7.765764
H 201.431917 -0.538877 9.648295
H 200.301819 1.743021 9.707474
H 201.348894 1.299705 11.061418
H 201.978184 2.366999 9.810647
H 201.741048 2.472946 7.548674
H 201.670632 2.333273 5.102183
H 204.303501 0.162984 4.468461
H 206.058448 0.079567 2.619285
H 205.859558 -0.038119 -2.854985
H 203.871028 -0.113382 -4.668527
H 202.169137 -0.099574 -0.808125
H 201.029726 1.896090 -5.299250
H 200.920777 1.805501 -7.747002
H 200.437350 -1.386874 -9.521393
H 200.963047 1.487596 -9.999250
H 200.236691 0.311201 -11.088964
H 199.302891 0.883275 -9.700512
H 201.008588 -2.505704 -7.565918
H 201.119031 -2.381950 -5.106333
H 198.468376 -0.218119 -4.466801
H 196.713307 -0.135075 -2.617884
C 209.291995 -0.024499 0.000344
C 210.067165 0.022767 1.386971
C 209.486058 0.037136 2.639427
C 210.528148 0.074674 3.593332
C 211.722091 0.083046 2.902044
N 211.433019 0.052119 1.558339
C 213.162159 0.118736 3.564060
C 213.223734 0.187003 5.045342
C 213.289293 -0.980484 5.808378
C 213.320424 -0.908091 7.205323
C 213.253757 0.324655 7.874127
N 213.329638 0.327830 9.278411
C 212.849530 1.500162 9.985094
C 213.243307 1.488677 7.095185
C 213.212252 1.422618 5.696593
C 214.289871 0.089932 2.806289
C 215.603719 0.116998 3.415763
C 216.513683 0.073163 2.451899
N 214.484741 0.034753 1.451045
C 215.829427 0.022101 1.175040
C 216.513135 -0.024499 0.000344
C 215.738280 -0.065598 -1.386726
C 216.319107 -0.065343 -2.639757
C 215.277096 -0.104437 -3.593892
C 214.083373 -0.125877 -2.902242
N 214.372757 -0.101697 -1.558223
C 212.644034 -0.167622 -3.562920
C 212.575962 -0.235885 -5.043719
C 212.526391 0.933746 -5.805820
C 212.453432 0.868365 -7.202814
C 212.397318 -0.363581 -7.866963
N 212.366331 -0.492752 -9.267575
C 211.825097 0.611126 -10.038294
C 212.504892 -1.529236 -7.091922
C 212.577350 -1.470177 -5.696079
C 211.515745 -0.140109 -2.805216
C 210.201554 -0.170345 -3.414412
C 209.291272 -0.126797 -2.450929
C 209.975495 -0.072261 -1.174335
N 211.320191 -0.082862 -1.450203
H 208.428792 0.019368 2.854427
H 210.417725 0.091352 4.667493
H 212.120380 0.042401 0.808520
H 213.324092 -1.943038 5.303455
H 213.393096 -1.835120 7.765764
H 212.948516 -0.538877 9.648295
H 211.818419 1.743021 9.707474
H 212.865493 1.299705 11.061418
H 213.494783 2.366999 9.810647
H 213.257647 2.472946 7.548674
H 213.187231 2.333273 5.102183
H 215.820100 0.162984 4.468461
H 217.575047 0.079567 2.619285
H 217.376157 -0.038119 -2.854985
H 215.387628 -0.113382 -4.668527
H 213.685737 -0.099574 -0.808125
H 212.546325 1.896090 -5.299250
H 212.437376 1.805501 -7.747002
H 211.953949 -1.386874 -9.521393
H 212.479646 1.487596 -9.999250
H 211.753290 0.311201 -11.088964
H 210.819491 0.883275 -9.700512
H 212.525188 -2.505704 -7.565918
H 212.635630 -2.381950 -5.106333
H 209.984976 -0.218119 -4.466801
H 208.229906 -0.135075 -2.617884
C 220.808595 -0.024499 0.000344
C 221.583765 0.022767 1.386971
C 221.002658 0.037136 2.639427
C 222.044748 0.074674 3.593332
C 223.238690 0.083046 2.902044
N 222.949618 0.052119 1.558339
C 224.678758 0.118736 3.564060
C 224.740334 0.187003 5.045342
C 224.805893 -0.980484 5.808378
C 224.837024 -0.908091 7.205323
C 224.770356 0.324655 7.874127
N 224.846237 0.327830 9.278411
C 224.366129 1.500162 9.985094
C 224.759906 1.488677 7.095185
C 224.728851 1.422618 5.696593
C 225.806470 0.089932 2.806289
C 227.120318 0.116998 3.415763
C 228.030282 0.073163 2.451899
N 226.001341 0.034753 1.451045
C 227.346027 0.022101 1.175040
C 228.029734 -0.024499 0.000344
C 227.254879 -0.065598 -1.386726
C 227.835706 -0.065343 -2.639757
C 226.793695 -0.104437 -3.593892
C 225.599972 -0.125877 -2.902242
N 225.889356 -0.101697 -1.558223
C 224.160633 -0.167622 -3.562920
C 224.092561 -0.235885 -5.043719
C 224.042991 0.933746 -5.805820
C 223.970031 0.868365 -7.202814
C 223.913917 -0.363581 -7.866963
N 223.882930 -0.492752 -9.267575
C 223.341696 0.611126 -10.038294
C 224.021491 -1.529236 -7.091922
C 224.093950 -1.470177 -5.696079
C 223.032344 -0.140109 -2.805216
C 221.718154 -0.170345 -3.414412
C 220.807872 -0.126797 -2.450929
C 221.492094 -0.072261 -1.174335
N 222.836791 -0.082862 -1.450203
H 219.945392 0.019368 2.854427
H 221.934325 0.091352 4.667493
H 223.636980 0.042401 0.808520
H 224.840692 -1.943038 5.303455
H 224.909695 -1.835120 7.765764
H 224.465116 -0.538877 9.648295
H 223.335018 1.743021 9.707474
H 224.382092 1.299705 11.061418
H 225.011382 2.366999 9.810647
H 224.774246 2.472946 7.548674
H 224.703830 2.333273 5.102183
H 227.336700 0.162984 4.468461
H 229.091646 0.079567 2.619285
H 228.892756 -0.038119 -2.854985
H 226.904227 -0.113382 -4.668527
H 225.202336 -0.099574 -0.808125
H 224.062925 1.896090 -5.299250
H 223.953975 1.805501 -7.747002
H 223.470548 -1.386874 -9.521393
H 223.996246 1.487596 -9.999250
H 223.269889 0.311201 -11.088964
H 222.336090 0.883275 -9.700512
H 224.041787 -2.505704 -7.565918
H 224.152230 -2.381950 -5.106333
H 221.501575 -0.218119 -4.466801
H 219.746506 -0.135075 -2.617884
C 232.325194 -0.024499 0.000344
C 233.100364 0.022767 1.386971
C 232.519257 0.037136 2.639427
C 233.561347 0.074674 3.593332
C 234.755290 0.083046 2.902044
N 234.466217 0.052119 1.558339
C 236.195358 0.118736 3.564060
C 236.256933 0.187003 5.045342
C 236.322492 -0.980484 5.808378
C 236.353623 -0.908091 7.205323
C 236.286956 0.324655 7.874127
N 236.362836 0.327830 9.278411
C 235.882728 1.500162 9.985094
C 236.276505 1.488677 7.095185
C 236.245451 1.422618 5.696593
C 237.323069 0.089932 2.806289
C 238.636917 0.116998 3.415763
C 239.546881 0.073163 2.451899
N 237.517940 0.034753 1.451045
C 238.862626 0.022101 1.175040
C 239.546333 -0.024499 0.000344
C 238.771478 -0.065598 -1.386726
C 239.352305 -0.065343 -2.639757
C 238.310294 -0.104437 -3.593892
C 237.116571 -0.125877 -2.902242
N 237.405956 -0.101697 -1.558223
C 235.677233 -0.167622 -3.562920
C 235.609160 -0.235885 -5.043719
C 235.559590 0.933746 -5.805820
C 235.486630 0.868365 -7.202814
C 235.430516 -0.363581 -7.866963
N 235.399530 -0.492752 -9.267575
C 234.858295 0.611126 -10.038294
C 235.538090 -1.529236 -7.091922
C 235.610549 -1.470177 -5.696079
C 234.548944 -0.140109 -2.805216
C 233.234753 -0.170345 -3.414412
C 232.324471 -0.126797 -2.450929
C 233.008693 -0.072261 -1.174335
N 234.353390 -0.082862 -1.450203
H 231.461991 0.019368 2.854427
H 233.450924 0.091352 4.667493
H 235.153579 0.042401 0.808520
H 236.357291 -1.943038 5.303455
H 236.426295 -1.835120 7.765764
H 235.981715 -0.538877 9.648295
H 234.851617 1.743021 9.707474
H 235.898692 1.299705 11.061418
H 236.527982 2.366999 9.810647
H 236.290846 2.472946 7.548674
H 236.220430 2.333273 5.102183
H 238.853299 0.162984 4.468461
H 240.608246 0.079567 2.619285
H 240.409356 -0.038119 -2.854985
H 238.420826 -0.113382 -4.668527
H 236.718935 -0.099574 -0.808125
H 235.579524 1.896090 -5.299250
H 235.470575 1.805501 -7.747002
H 234.987148 -1.386874 -9.521393
H 235.512845 1.487596 -9.999250
H 234.786489 0.311201 -11.088964
H 233.852689 0.883275 -9.700512
H 235.558386 -2.505704 -7.565918
H 235.668829 -2.381950 -5.106333
H 233.018174 -0.218119 -4.466801
H 231.263105 -0.135075 -2.617884
