 xtb: 6.5.1 (b24c23e)
          07312204573D

284311  0     0  0            999 V2000
   48.1545    0.5276    0.0273 C   0  0  0  0  0  0  0  0  0  0  0  0
   48.7605    0.5957   -1.2209 C   0  0  0  0  0  0  0  0  0  0  0  0
   48.1039    0.7209   -2.4768 C   0  0  0  0  0  0  0  0  0  0  0  0
   49.0584    0.7018   -3.4551 C   0  0  0  0  0  0  0  0  0  0  0  0
   50.3303    0.5788   -2.8276 C   0  0  0  0  0  0  0  0  0  0  0  0
   50.0994    0.5163   -1.4822 N   0  0  0  0  0  0  0  0  0  0  0  0
   51.5864    0.5026   -3.4425 C   0  0  0  0  0  0  0  0  0  0  0  0
   51.6144    0.5986   -4.9205 C   0  0  0  0  0  0  0  0  0  0  0  0
   52.1457   -0.4381   -5.6902 C   0  0  0  0  0  0  0  0  0  0  0  0
   52.1667   -0.3663   -7.0725 C   0  0  0  0  0  0  0  0  0  0  0  0
   51.6537    0.7587   -7.7248 C   0  0  0  0  0  0  0  0  0  0  0  0
   51.6994    0.9081   -9.1028 N   0  0  0  0  0  0  0  0  0  0  0  0
   51.7609   -0.2717   -9.9551 C   0  0  0  0  0  0  0  0  0  0  0  0
   51.1332    1.8077   -6.9570 C   0  0  0  0  0  0  0  0  0  0  0  0
   51.1088    1.7239   -5.5776 C   0  0  0  0  0  0  0  0  0  0  0  0
   52.7974    0.3468   -2.7627 C   0  0  0  0  0  0  0  0  0  0  0  0
   54.0964    0.3713   -3.4099 C   0  0  0  0  0  0  0  0  0  0  0  0
   55.0147    0.2314   -2.4312 C   0  0  0  0  0  0  0  0  0  0  0  0
   52.9496    0.1997   -1.4171 N   0  0  0  0  0  0  0  0  0  0  0  0
   54.2760    0.1230   -1.1885 C   0  0  0  0  0  0  0  0  0  0  0  0
   54.9116   -0.0277    0.0615 C   0  0  0  0  0  0  0  0  0  0  0  0
   54.2757   -0.1347    1.3137 C   0  0  0  0  0  0  0  0  0  0  0  0
   54.9212   -0.2818    2.5694 C   0  0  0  0  0  0  0  0  0  0  0  0
   53.9555   -0.3343    3.5368 C   0  0  0  0  0  0  0  0  0  0  0  0
   52.6891   -0.2245    2.8997 C   0  0  0  0  0  0  0  0  0  0  0  0
   52.9351   -0.1052    1.5567 N   0  0  0  0  0  0  0  0  0  0  0  0
   51.4311   -0.1906    3.5128 C   0  0  0  0  0  0  0  0  0  0  0  0
   51.3985   -0.3735    4.9818 C   0  0  0  0  0  0  0  0  0  0  0  0
   50.8603    0.6095    5.8146 C   0  0  0  0  0  0  0  0  0  0  0  0
   50.8321    0.4472    7.1892 C   0  0  0  0  0  0  0  0  0  0  0  0
   51.3444   -0.7168    7.7695 C   0  0  0  0  0  0  0  0  0  0  0  0
   51.2906   -0.9571    9.1344 N   0  0  0  0  0  0  0  0  0  0  0  0
   51.2201    0.1640   10.0620 C   0  0  0  0  0  0  0  0  0  0  0  0
   51.8737   -1.7114    6.9378 C   0  0  0  0  0  0  0  0  0  0  0  0
   51.9059   -1.5371    5.5674 C   0  0  0  0  0  0  0  0  0  0  0  0
   50.2219    0.0075    2.8360 C   0  0  0  0  0  0  0  0  0  0  0  0
   48.9149   -0.0068    3.4737 C   0  0  0  0  0  0  0  0  0  0  0  0
   48.0101    0.2079    2.4971 C   0  0  0  0  0  0  0  0  0  0  0  0
   48.7616    0.3367    1.2616 C   0  0  0  0  0  0  0  0  0  0  0  0
   50.0896    0.2090    1.5034 N   0  0  0  0  0  0  0  0  0  0  0  0
   47.0720    0.6087    0.0252 H   0  0  0  0  0  0  0  0  0  0  0  0
   47.0359    0.8021   -2.6030 H   0  0  0  0  0  0  0  0  0  0  0  0
   48.8985    0.7551   -4.5198 H   0  0  0  0  0  0  0  0  0  0  0  0
   50.8261    0.4063   -0.7828 H   0  0  0  0  0  0  0  0  0  0  0  0
   52.5302   -1.3241   -5.1967 H   0  0  0  0  0  0  0  0  0  0  0  0
   52.5841   -1.1900   -7.6385 H   0  0  0  0  0  0  0  0  0  0  0  0
   51.0398    1.5967   -9.4443 H   0  0  0  0  0  0  0  0  0  0  0  0
   50.9655   -0.9860   -9.7128 H   0  0  0  0  0  0  0  0  0  0  0  0
   51.6498    0.0540  -10.9893 H   0  0  0  0  0  0  0  0  0  0  0  0
   52.7290   -0.7621   -9.8459 H   0  0  0  0  0  0  0  0  0  0  0  0
   50.7483    2.6922   -7.4536 H   0  0  0  0  0  0  0  0  0  0  0  0
   50.7137    2.5503   -4.9967 H   0  0  0  0  0  0  0  0  0  0  0  0
   54.2634    0.5027   -4.4667 H   0  0  0  0  0  0  0  0  0  0  0  0
   56.0894    0.2071   -2.5157 H   0  0  0  0  0  0  0  0  0  0  0  0
   55.9894   -0.3338    2.7063 H   0  0  0  0  0  0  0  0  0  0  0  0
   54.1059   -0.4241    4.6003 H   0  0  0  0  0  0  0  0  0  0  0  0
   52.2132    0.0080    0.8526 H   0  0  0  0  0  0  0  0  0  0  0  0
   50.4778    1.5261    5.3787 H   0  0  0  0  0  0  0  0  0  0  0  0
   50.4097    1.2313    7.8055 H   0  0  0  0  0  0  0  0  0  0  0  0
   51.9522   -1.6635    9.4334 H   0  0  0  0  0  0  0  0  0  0  0  0
   50.2519    0.6590    9.9775 H   0  0  0  0  0  0  0  0  0  0  0  0
   52.0161    0.8936    9.8736 H   0  0  0  0  0  0  0  0  0  0  0  0
   51.3236   -0.2290   11.0734 H   0  0  0  0  0  0  0  0  0  0  0  0
   52.2591   -2.6252    7.3778 H   0  0  0  0  0  0  0  0  0  0  0  0
   52.3090   -2.3213    4.9357 H   0  0  0  0  0  0  0  0  0  0  0  0
   48.7360   -0.1770    4.5231 H   0  0  0  0  0  0  0  0  0  0  0  0
   46.9353    0.2643    2.5725 H   0  0  0  0  0  0  0  0  0  0  0  0
  102.8830    0.5474   -0.0579 C   0  0  0  0  0  0  0  0  0  0  0  0
  102.2785    0.6766    1.1862 C   0  0  0  0  0  0  0  0  0  0  0  0
  102.9368    0.8668    2.4330 C   0  0  0  0  0  0  0  0  0  0  0  0
  101.9842    0.8906    3.4131 C   0  0  0  0  0  0  0  0  0  0  0  0
  100.7118    0.7311    2.7950 C   0  0  0  0  0  0  0  0  0  0  0  0
  100.9405    0.6042    1.4538 N   0  0  0  0  0  0  0  0  0  0  0  0
   99.4572    0.6785    3.4154 C   0  0  0  0  0  0  0  0  0  0  0  0
   99.4313    0.8409    4.8875 C   0  0  0  0  0  0  0  0  0  0  0  0
   98.9046   -0.1632    5.7023 C   0  0  0  0  0  0  0  0  0  0  0  0
   98.8881   -0.0331    7.0803 C   0  0  0  0  0  0  0  0  0  0  0  0
   99.4014    1.1193    7.6826 C   0  0  0  0  0  0  0  0  0  0  0  0
   99.3618    1.3254    9.0535 N   0  0  0  0  0  0  0  0  0  0  0  0
   99.3084    0.1811    9.9534 C   0  0  0  0  0  0  0  0  0  0  0  0
   99.9160    2.1364    6.8692 C   0  0  0  0  0  0  0  0  0  0  0  0
   99.9358    1.9944    5.4944 C   0  0  0  0  0  0  0  0  0  0  0  0
   98.2459    0.4824    2.7463 C   0  0  0  0  0  0  0  0  0  0  0  0
   96.9478    0.5322    3.3940 C   0  0  0  0  0  0  0  0  0  0  0  0
   96.0290    0.3328    2.4261 C   0  0  0  0  0  0  0  0  0  0  0  0
   98.0927    0.2636    1.4107 N   0  0  0  0  0  0  0  0  0  0  0  0
   96.7665    0.1632    1.1896 C   0  0  0  0  0  0  0  0  0  0  0  0
   96.1304   -0.0622   -0.0488 C   0  0  0  0  0  0  0  0  0  0  0  0
   96.7649   -0.2256   -1.2957 C   0  0  0  0  0  0  0  0  0  0  0  0
   96.1182   -0.4404   -2.5409 C   0  0  0  0  0  0  0  0  0  0  0  0
   97.0824   -0.5335   -3.5066 C   0  0  0  0  0  0  0  0  0  0  0  0
   98.3492   -0.3827   -2.8786 C   0  0  0  0  0  0  0  0  0  0  0  0
   98.1047   -0.1966   -1.5430 N   0  0  0  0  0  0  0  0  0  0  0  0
   99.6061   -0.3749   -3.4949 C   0  0  0  0  0  0  0  0  0  0  0  0
   99.6384   -0.6417   -4.9509 C   0  0  0  0  0  0  0  0  0  0  0  0
  100.1780    0.2900   -5.8398 C   0  0  0  0  0  0  0  0  0  0  0  0
  100.2098    0.0456   -7.2022 C   0  0  0  0  0  0  0  0  0  0  0  0
   99.6995   -1.1514   -7.7131 C   0  0  0  0  0  0  0  0  0  0  0  0
   99.7589   -1.4747   -9.0604 N   0  0  0  0  0  0  0  0  0  0  0  0
   99.8417   -0.4139  -10.0552 C   0  0  0  0  0  0  0  0  0  0  0  0
   99.1666   -2.0938   -6.8247 C   0  0  0  0  0  0  0  0  0  0  0  0
   99.1313   -1.8378   -5.4673 C   0  0  0  0  0  0  0  0  0  0  0  0
  100.8151   -0.1341   -2.8316 C   0  0  0  0  0  0  0  0  0  0  0  0
  102.1217   -0.1781   -3.4688 C   0  0  0  0  0  0  0  0  0  0  0  0
  103.0263    0.0952   -2.5068 C   0  0  0  0  0  0  0  0  0  0  0  0
  102.2753    0.2879   -1.2793 C   0  0  0  0  0  0  0  0  0  0  0  0
  100.9477    0.1412   -1.5124 N   0  0  0  0  0  0  0  0  0  0  0  0
  103.9650    0.6340   -0.0620 H   0  0  0  0  0  0  0  0  0  0  0  0
  104.0046    0.9590    2.5529 H   0  0  0  0  0  0  0  0  0  0  0  0
  102.1459    0.9962    4.4736 H   0  0  0  0  0  0  0  0  0  0  0  0
  100.2133    0.4555    0.7621 H   0  0  0  0  0  0  0  0  0  0  0  0
   98.5206   -1.0702    5.2480 H   0  0  0  0  0  0  0  0  0  0  0  0
   98.4744   -0.8329    7.6820 H   0  0  0  0  0  0  0  0  0  0  0  0
  100.0212    2.0292    9.3630 H   0  0  0  0  0  0  0  0  0  0  0  0
  100.1045   -0.5402    9.7358 H   0  0  0  0  0  0  0  0  0  0  0  0
   99.4243    0.5489   10.9729 H   0  0  0  0  0  0  0  0  0  0  0  0
   98.3411   -0.3159    9.8697 H   0  0  0  0  0  0  0  0  0  0  0  0
  100.3002    3.0421    7.3266 H   0  0  0  0  0  0  0  0  0  0  0  0
  100.3266    2.7966    4.8778 H   0  0  0  0  0  0  0  0  0  0  0  0
   96.7817    0.7198    4.4424 H   0  0  0  0  0  0  0  0  0  0  0  0
   94.9546    0.3053    2.5138 H   0  0  0  0  0  0  0  0  0  0  0  0
   95.0502   -0.5071   -2.6727 H   0  0  0  0  0  0  0  0  0  0  0  0
   96.9308   -0.6768   -4.5641 H   0  0  0  0  0  0  0  0  0  0  0  0
   98.8268   -0.0433   -0.8467 H   0  0  0  0  0  0  0  0  0  0  0  0
  100.5591    1.2313   -5.4588 H   0  0  0  0  0  0  0  0  0  0  0  0
  100.6337    0.7915   -7.8632 H   0  0  0  0  0  0  0  0  0  0  0  0
   99.0963   -2.1956   -9.3195 H   0  0  0  0  0  0  0  0  0  0  0  0
  100.8109    0.0825   -9.9925 H   0  0  0  0  0  0  0  0  0  0  0  0
   99.0467    0.3284   -9.9204 H   0  0  0  0  0  0  0  0  0  0  0  0
   99.7464   -0.8691  -11.0411 H   0  0  0  0  0  0  0  0  0  0  0  0
   98.7816   -3.0320   -7.2102 H   0  0  0  0  0  0  0  0  0  0  0  0
   98.7266   -2.5830   -4.7909 H   0  0  0  0  0  0  0  0  0  0  0  0
  102.3009   -0.4063   -4.5072 H   0  0  0  0  0  0  0  0  0  0  0  0
  104.1008    0.1522   -2.5865 H   0  0  0  0  0  0  0  0  0  0  0  0
   60.1132   -0.0812    0.0919 C   0  0  0  0  0  0  0  0  0  0  0  0
   58.8842   -0.0859    0.0914 C   0  0  0  0  0  0  0  0  0  0  0  0
   57.5405   -0.0790    0.0848 C   0  0  0  0  0  0  0  0  0  0  0  0
   56.3162   -0.0639    0.0743 C   0  0  0  0  0  0  0  0  0  0  0  0
   61.4567   -0.0732    0.0893 C   0  0  0  0  0  0  0  0  0  0  0  0
   62.6813   -0.0626    0.0806 C   0  0  0  0  0  0  0  0  0  0  0  0
   76.1376   -0.0596   -0.0064 C   0  0  0  0  0  0  0  0  0  0  0  0
   74.9086   -0.0762    0.0072 C   0  0  0  0  0  0  0  0  0  0  0  0
   73.5656   -0.0910    0.0206 C   0  0  0  0  0  0  0  0  0  0  0  0
   72.3410   -0.1022    0.0352 C   0  0  0  0  0  0  0  0  0  0  0  0
   77.4806   -0.0453   -0.0175 C   0  0  0  0  0  0  0  0  0  0  0  0
   78.7053   -0.0334   -0.0322 C   0  0  0  0  0  0  0  0  0  0  0  0
   92.1598   -0.1996   -0.0703 C   0  0  0  0  0  0  0  0  0  0  0  0
   90.9310   -0.2199   -0.0743 C   0  0  0  0  0  0  0  0  0  0  0  0
   89.5875   -0.2302   -0.0753 C   0  0  0  0  0  0  0  0  0  0  0  0
   88.3629   -0.2284   -0.0708 C   0  0  0  0  0  0  0  0  0  0  0  0
   93.5030   -0.1653   -0.0650 C   0  0  0  0  0  0  0  0  0  0  0  0
   94.7267   -0.1217   -0.0559 C   0  0  0  0  0  0  0  0  0  0  0  0
   64.0853   -0.0441    0.0737 C   0  0  0  0  0  0  0  0  0  0  0  0
   64.7161    0.0117    1.3325 C   0  0  0  0  0  0  0  0  0  0  0  0
   64.0690    0.0248    2.5943 C   0  0  0  0  0  0  0  0  0  0  0  0
   65.0358    0.0629    3.5625 C   0  0  0  0  0  0  0  0  0  0  0  0
   66.3018    0.0825    2.9180 C   0  0  0  0  0  0  0  0  0  0  0  0
   66.0575    0.0457    1.5707 N   0  0  0  0  0  0  0  0  0  0  0  0
   67.5629    0.0986    3.5291 C   0  0  0  0  0  0  0  0  0  0  0  0
   67.5793    0.1758    5.0088 C   0  0  0  0  0  0  0  0  0  0  0  0
   68.1832   -0.8284    5.7708 C   0  0  0  0  0  0  0  0  0  0  0  0
   68.1920   -0.7597    7.1509 C   0  0  0  0  0  0  0  0  0  0  0  0
   67.6014    0.3234    7.8136 C   0  0  0  0  0  0  0  0  0  0  0  0
   67.6862    0.3782    9.1968 N   0  0  0  0  0  0  0  0  0  0  0  0
   66.7153    1.1626    9.9481 C   0  0  0  0  0  0  0  0  0  0  0  0
   67.0095    1.3381    7.0559 C   0  0  0  0  0  0  0  0  0  0  0  0
   66.9938    1.2546    5.6740 C   0  0  0  0  0  0  0  0  0  0  0  0
   68.7853    0.0486    2.8560 C   0  0  0  0  0  0  0  0  0  0  0  0
   70.0755    0.1343    3.5157 C   0  0  0  0  0  0  0  0  0  0  0  0
   71.0084    0.0669    2.5431 C   0  0  0  0  0  0  0  0  0  0  0  0
   68.9561   -0.0525    1.5083 N   0  0  0  0  0  0  0  0  0  0  0  0
   70.2868   -0.0477    1.2918 C   0  0  0  0  0  0  0  0  0  0  0  0
   70.9373   -0.1144    0.0426 C   0  0  0  0  0  0  0  0  0  0  0  0
   70.3068   -0.1669   -1.2165 C   0  0  0  0  0  0  0  0  0  0  0  0
   70.9549   -0.1747   -2.4780 C   0  0  0  0  0  0  0  0  0  0  0  0
   69.9888   -0.1900   -3.4472 C   0  0  0  0  0  0  0  0  0  0  0  0
   68.7220   -0.2038   -2.8039 C   0  0  0  0  0  0  0  0  0  0  0  0
   68.9654   -0.1865   -1.4559 N   0  0  0  0  0  0  0  0  0  0  0  0
   67.4611   -0.1985   -3.4150 C   0  0  0  0  0  0  0  0  0  0  0  0
   67.4436   -0.2342   -4.8963 C   0  0  0  0  0  0  0  0  0  0  0  0
   66.8514    0.7989   -5.6253 C   0  0  0  0  0  0  0  0  0  0  0  0
   66.8378    0.7822   -7.0094 C   0  0  0  0  0  0  0  0  0  0  0  0
   67.4065   -0.2892   -7.7043 C   0  0  0  0  0  0  0  0  0  0  0  0
   67.4618   -0.3348   -9.0893 N   0  0  0  0  0  0  0  0  0  0  0  0
   66.4795    0.4012   -9.8740 C   0  0  0  0  0  0  0  0  0  0  0  0
   68.0042   -1.3264   -6.9777 C   0  0  0  0  0  0  0  0  0  0  0  0
   68.0251   -1.2952   -5.5962 C   0  0  0  0  0  0  0  0  0  0  0  0
   66.2386   -0.1585   -2.7409 C   0  0  0  0  0  0  0  0  0  0  0  0
   64.9490   -0.2335   -3.4029 C   0  0  0  0  0  0  0  0  0  0  0  0
   64.0153   -0.1894   -2.4296 C   0  0  0  0  0  0  0  0  0  0  0  0
   64.7359   -0.0945   -1.1761 C   0  0  0  0  0  0  0  0  0  0  0  0
   66.0669   -0.0830   -1.3919 N   0  0  0  0  0  0  0  0  0  0  0  0
   63.0004   -0.0002    2.7354 H   0  0  0  0  0  0  0  0  0  0  0  0
   64.8855    0.0624    4.6298 H   0  0  0  0  0  0  0  0  0  0  0  0
   66.7783    0.0333    0.8568 H   0  0  0  0  0  0  0  0  0  0  0  0
   68.6288   -1.6821    5.2722 H   0  0  0  0  0  0  0  0  0  0  0  0
   68.6573   -1.5501    7.7305 H   0  0  0  0  0  0  0  0  0  0  0  0
   67.8552   -0.5289    9.6146 H   0  0  0  0  0  0  0  0  0  0  0  0
   65.6868    0.8980    9.6767 H   0  0  0  0  0  0  0  0  0  0  0  0
   66.8706    0.9645   11.0086 H   0  0  0  0  0  0  0  0  0  0  0  0
   66.8722    2.2264    9.7654 H   0  0  0  0  0  0  0  0  0  0  0  0
   66.5629    2.1986    7.5387 H   0  0  0  0  0  0  0  0  0  0  0  0
   66.5409    2.0542    5.0976 H   0  0  0  0  0  0  0  0  0  0  0  0
   70.2268    0.2503    4.5766 H   0  0  0  0  0  0  0  0  0  0  0  0
   72.0822    0.1011    2.6364 H   0  0  0  0  0  0  0  0  0  0  0  0
   72.0237   -0.1593   -2.6182 H   0  0  0  0  0  0  0  0  0  0  0  0
   70.1404   -0.1777   -4.5142 H   0  0  0  0  0  0  0  0  0  0  0  0
   68.2444   -0.1718   -0.7423 H   0  0  0  0  0  0  0  0  0  0  0  0
   66.4153    1.6403   -5.0979 H   0  0  0  0  0  0  0  0  0  0  0  0
   66.3860    1.6089   -7.5437 H   0  0  0  0  0  0  0  0  0  0  0  0
   67.6141   -1.2714   -9.4437 H   0  0  0  0  0  0  0  0  0  0  0  0
   66.6468    1.4741   -9.7713 H   0  0  0  0  0  0  0  0  0  0  0  0
   66.6107    0.1267  -10.9207 H   0  0  0  0  0  0  0  0  0  0  0  0
   65.4557    0.1644   -9.5626 H   0  0  0  0  0  0  0  0  0  0  0  0
   68.4514   -2.1606   -7.5082 H   0  0  0  0  0  0  0  0  0  0  0  0
   68.4748   -2.1154   -5.0474 H   0  0  0  0  0  0  0  0  0  0  0  0
   64.7990   -0.3282   -4.4662 H   0  0  0  0  0  0  0  0  0  0  0  0
   62.9417   -0.2250   -2.5242 H   0  0  0  0  0  0  0  0  0  0  0  0
   80.1089   -0.0267   -0.0400 C   0  0  0  0  0  0  0  0  0  0  0  0
   80.7398    0.0302    1.2187 C   0  0  0  0  0  0  0  0  0  0  0  0
   80.0922    0.0634    2.4801 C   0  0  0  0  0  0  0  0  0  0  0  0
   81.0589    0.0910    3.4486 C   0  0  0  0  0  0  0  0  0  0  0  0
   82.3255    0.0833    2.8048 C   0  0  0  0  0  0  0  0  0  0  0  0
   82.0813    0.0432    1.4575 N   0  0  0  0  0  0  0  0  0  0  0  0
   83.5861    0.0774    3.4164 C   0  0  0  0  0  0  0  0  0  0  0  0
   83.6043    0.1572    4.8959 C   0  0  0  0  0  0  0  0  0  0  0  0
   84.1885   -0.8584    5.6585 C   0  0  0  0  0  0  0  0  0  0  0  0
   84.2009   -0.7882    7.0383 C   0  0  0  0  0  0  0  0  0  0  0  0
   83.6344    0.3082    7.7005 C   0  0  0  0  0  0  0  0  0  0  0  0
   83.7238    0.3636    9.0829 N   0  0  0  0  0  0  0  0  0  0  0  0
   82.7764    1.1742    9.8360 C   0  0  0  0  0  0  0  0  0  0  0  0
   83.0616    1.3335    6.9422 C   0  0  0  0  0  0  0  0  0  0  0  0
   83.0417    1.2484    5.5605 C   0  0  0  0  0  0  0  0  0  0  0  0
   84.8079    0.0015    2.7441 C   0  0  0  0  0  0  0  0  0  0  0  0
   86.0988    0.0672    3.4048 C   0  0  0  0  0  0  0  0  0  0  0  0
   87.0313   -0.0220    2.4335 C   0  0  0  0  0  0  0  0  0  0  0  0
   84.9779   -0.1095    1.3973 N   0  0  0  0  0  0  0  0  0  0  0  0
   86.3089   -0.1305    1.1822 C   0  0  0  0  0  0  0  0  0  0  0  0
   86.9589   -0.2176   -0.0659 C   0  0  0  0  0  0  0  0  0  0  0  0
   86.3284   -0.2676   -1.3249 C   0  0  0  0  0  0  0  0  0  0  0  0
   86.9768   -0.2966   -2.5859 C   0  0  0  0  0  0  0  0  0  0  0  0
   86.0109   -0.3002   -3.5556 C   0  0  0  0  0  0  0  0  0  0  0  0
   84.7438   -0.2846   -2.9129 C   0  0  0  0  0  0  0  0  0  0  0  0
   84.9869   -0.2628   -1.5651 N   0  0  0  0  0  0  0  0  0  0  0  0
   83.4836   -0.2586   -3.5253 C   0  0  0  0  0  0  0  0  0  0  0  0
   83.4674   -0.3069   -5.0064 C   0  0  0  0  0  0  0  0  0  0  0  0
   82.9020    0.7331   -5.7465 C   0  0  0  0  0  0  0  0  0  0  0  0
   82.8917    0.7038   -7.1305 C   0  0  0  0  0  0  0  0  0  0  0  0
   83.4363   -0.3874   -7.8137 C   0  0  0  0  0  0  0  0  0  0  0  0
   83.4951   -0.4471   -9.1979 N   0  0  0  0  0  0  0  0  0  0  0  0
   82.5384    0.3106   -9.9936 C   0  0  0  0  0  0  0  0  0  0  0  0
   84.0061   -1.4324   -7.0759 C   0  0  0  0  0  0  0  0  0  0  0  0
   84.0243   -1.3885   -5.6947 C   0  0  0  0  0  0  0  0  0  0  0  0
   82.2617   -0.1899   -2.8529 C   0  0  0  0  0  0  0  0  0  0  0  0
   80.9714   -0.2441   -3.5156 C   0  0  0  0  0  0  0  0  0  0  0  0
   80.0381   -0.1800   -2.5430 C   0  0  0  0  0  0  0  0  0  0  0  0
   80.7595   -0.0931   -1.2894 C   0  0  0  0  0  0  0  0  0  0  0  0
   82.0904   -0.1053   -1.5042 N   0  0  0  0  0  0  0  0  0  0  0  0
   79.0233    0.0584    2.6207 H   0  0  0  0  0  0  0  0  0  0  0  0
   80.9082    0.1004    4.5157 H   0  0  0  0  0  0  0  0  0  0  0  0
   82.8017    0.0125    0.7437 H   0  0  0  0  0  0  0  0  0  0  0  0
   84.6158   -1.7216    5.1601 H   0  0  0  0  0  0  0  0  0  0  0  0
   84.6507   -1.5872    7.6183 H   0  0  0  0  0  0  0  0  0  0  0  0
   83.8744   -0.5455    9.5031 H   0  0  0  0  0  0  0  0  0  0  0  0
   81.7405    0.9385    9.5664 H   0  0  0  0  0  0  0  0  0  0  0  0
   82.9279    0.9714   10.8962 H   0  0  0  0  0  0  0  0  0  0  0  0
   82.9625    2.2334    9.6534 H   0  0  0  0  0  0  0  0  0  0  0  0
   82.6336    2.2036    7.4247 H   0  0  0  0  0  0  0  0  0  0  0  0
   82.6041    2.0562    4.9837 H   0  0  0  0  0  0  0  0  0  0  0  0
   86.2510    0.1860    4.4652 H   0  0  0  0  0  0  0  0  0  0  0  0
   88.1053   -0.0067    2.5280 H   0  0  0  0  0  0  0  0  0  0  0  0
   88.0458   -0.3027   -2.7253 H   0  0  0  0  0  0  0  0  0  0  0  0
   86.1631   -0.2985   -4.6225 H   0  0  0  0  0  0  0  0  0  0  0  0
   84.2657   -0.2292   -0.8522 H   0  0  0  0  0  0  0  0  0  0  0  0
   82.4846    1.5896   -5.2282 H   0  0  0  0  0  0  0  0  0  0  0  0
   82.4616    1.5362   -7.6739 H   0  0  0  0  0  0  0  0  0  0  0  0
   83.6238   -1.3902   -9.5442 H   0  0  0  0  0  0  0  0  0  0  0  0
   82.7413    1.3786   -9.9049 H   0  0  0  0  0  0  0  0  0  0  0  0
   82.6612    0.0178  -11.0363 H   0  0  0  0  0  0  0  0  0  0  0  0
   81.5070    0.1122   -9.6804 H   0  0  0  0  0  0  0  0  0  0  0  0
   84.4339   -2.2823   -7.5973 H   0  0  0  0  0  0  0  0  0  0  0  0
   84.4530   -2.2139   -5.1368 H   0  0  0  0  0  0  0  0  0  0  0  0
   80.8205   -0.3391   -4.5787 H   0  0  0  0  0  0  0  0  0  0  0  0
   78.9641   -0.1963   -2.6382 H   0  0  0  0  0  0  0  0  0  0  0  0
  1  2  4  0  0  0  0
  2  3  4  0  0  0  0
  3  4  2  0  0  0  0
  4  5  4  0  0  0  0
  2  6  4  0  0  0  0
  5  6  4  0  0  0  0
  5  7  4  0  0  0  0
  7  8  1  0  0  0  0
  8  9  4  0  0  0  0
  9 10  4  0  0  0  0
 10 11  4  0  0  0  0
 11 12  1  0  0  0  0
 12 13  1  0  0  0  0
 11 14  4  0  0  0  0
  8 15  4  0  0  0  0
 14 15  4  0  0  0  0
  7 16  4  0  0  0  0
 16 17  1  0  0  0  0
 17 18  2  0  0  0  0
 16 19  4  0  0  0  0
 18 20  1  0  0  0  0
 19 20  4  0  0  0  0
 20 21  4  0  0  0  0
 21 22  4  0  0  0  0
 22 23  4  0  0  0  0
 23 24  2  0  0  0  0
 24 25  4  0  0  0  0
 22 26  4  0  0  0  0
 25 26  4  0  0  0  0
 25 27  4  0  0  0  0
 27 28  1  0  0  0  0
 28 29  4  0  0  0  0
 29 30  4  0  0  0  0
 30 31  4  0  0  0  0
 31 32  1  0  0  0  0
 32 33  1  0  0  0  0
 31 34  4  0  0  0  0
 28 35  4  0  0  0  0
 34 35  4  0  0  0  0
 27 36  4  0  0  0  0
 36 37  1  0  0  0  0
 37 38  2  0  0  0  0
  1 39  4  0  0  0  0
 38 39  1  0  0  0  0
 36 40  4  0  0  0  0
 39 40  4  0  0  0  0
  1 41  1  0  0  0  0
  3 42  1  0  0  0  0
  4 43  1  0  0  0  0
  6 44  1  0  0  0  0
  9 45  1  0  0  0  0
 10 46  1  0  0  0  0
 12 47  1  0  0  0  0
 13 48  1  0  0  0  0
 13 49  1  0  0  0  0
 13 50  1  0  0  0  0
 14 51  1  0  0  0  0
 15 52  1  0  0  0  0
 17 53  1  0  0  0  0
 18 54  1  0  0  0  0
 23 55  1  0  0  0  0
 24 56  1  0  0  0  0
 26 57  1  0  0  0  0
 29 58  1  0  0  0  0
 30 59  1  0  0  0  0
 32 60  1  0  0  0  0
 33 61  1  0  0  0  0
 33 62  1  0  0  0  0
 33 63  1  0  0  0  0
 34 64  1  0  0  0  0
 35 65  1  0  0  0  0
 37 66  1  0  0  0  0
 38 67  1  0  0  0  0
 68 69  4  0  0  0  0
 69 70  4  0  0  0  0
 70 71  2  0  0  0  0
 71 72  4  0  0  0  0
 69 73  4  0  0  0  0
 72 73  4  0  0  0  0
 72 74  4  0  0  0  0
 74 75  1  0  0  0  0
 75 76  4  0  0  0  0
 76 77  4  0  0  0  0
 77 78  4  0  0  0  0
 78 79  1  0  0  0  0
 79 80  1  0  0  0  0
 78 81  4  0  0  0  0
 75 82  4  0  0  0  0
 81 82  4  0  0  0  0
 74 83  4  0  0  0  0
 83 84  1  0  0  0  0
 84 85  2  0  0  0  0
 83 86  4  0  0  0  0
 85 87  1  0  0  0  0
 86 87  4  0  0  0  0
 87 88  4  0  0  0  0
 88 89  4  0  0  0  0
 89 90  4  0  0  0  0
 90 91  2  0  0  0  0
 91 92  4  0  0  0  0
 89 93  4  0  0  0  0
 92 93  4  0  0  0  0
 92 94  4  0  0  0  0
 94 95  1  0  0  0  0
 95 96  4  0  0  0  0
 96 97  4  0  0  0  0
 97 98  4  0  0  0  0
 98 99  1  0  0  0  0
 99100  1  0  0  0  0
 98101  4  0  0  0  0
 95102  4  0  0  0  0
101102  4  0  0  0  0
 94103  4  0  0  0  0
103104  1  0  0  0  0
104105  2  0  0  0  0
 68106  4  0  0  0  0
105106  1  0  0  0  0
103107  4  0  0  0  0
106107  4  0  0  0  0
 68108  1  0  0  0  0
 70109  1  0  0  0  0
 71110  1  0  0  0  0
 73111  1  0  0  0  0
 76112  1  0  0  0  0
 77113  1  0  0  0  0
 79114  1  0  0  0  0
 80115  1  0  0  0  0
 80116  1  0  0  0  0
 80117  1  0  0  0  0
 81118  1  0  0  0  0
 82119  1  0  0  0  0
 84120  1  0  0  0  0
 85121  1  0  0  0  0
 90122  1  0  0  0  0
 91123  1  0  0  0  0
 93124  1  0  0  0  0
 96125  1  0  0  0  0
 97126  1  0  0  0  0
 99127  1  0  0  0  0
100128  1  0  0  0  0
100129  1  0  0  0  0
100130  1  0  0  0  0
101131  1  0  0  0  0
102132  1  0  0  0  0
104133  1  0  0  0  0
105134  1  0  0  0  0
135136  3  0  0  0  0
136137  4  0  0  0  0
 21138  4  0  0  0  0
137138  3  0  0  0  0
135139  4  0  0  0  0
139140  3  0  0  0  0
141142  3  0  0  0  0
142143  4  0  0  0  0
143144  3  0  0  0  0
141145  4  0  0  0  0
145146  3  0  0  0  0
147148  3  0  0  0  0
148149  4  0  0  0  0
149150  3  0  0  0  0
147151  4  0  0  0  0
 88152  4  0  0  0  0
151152  3  0  0  0  0
140153  4  0  0  0  0
153154  4  0  0  0  0
154155  4  0  0  0  0
155156  2  0  0  0  0
156157  4  0  0  0  0
154158  4  0  0  0  0
157158  4  0  0  0  0
157159  4  0  0  0  0
159160  1  0  0  0  0
160161  4  0  0  0  0
161162  4  0  0  0  0
162163  4  0  0  0  0
163164  1  0  0  0  0
164165  1  0  0  0  0
163166  4  0  0  0  0
160167  4  0  0  0  0
166167  4  0  0  0  0
159168  4  0  0  0  0
168169  1  0  0  0  0
169170  2  0  0  0  0
168171  4  0  0  0  0
170172  1  0  0  0  0
171172  4  0  0  0  0
144173  4  0  0  0  0
172173  4  0  0  0  0
173174  4  0  0  0  0
174175  4  0  0  0  0
175176  2  0  0  0  0
176177  4  0  0  0  0
174178  4  0  0  0  0
177178  4  0  0  0  0
177179  4  0  0  0  0
179180  1  0  0  0  0
180181  4  0  0  0  0
181182  4  0  0  0  0
182183  4  0  0  0  0
183184  1  0  0  0  0
184185  1  0  0  0  0
183186  4  0  0  0  0
180187  4  0  0  0  0
186187  4  0  0  0  0
179188  4  0  0  0  0
188189  1  0  0  0  0
189190  2  0  0  0  0
153191  4  0  0  0  0
190191  1  0  0  0  0
188192  4  0  0  0  0
191192  4  0  0  0  0
155193  1  0  0  0  0
156194  1  0  0  0  0
158195  1  0  0  0  0
161196  1  0  0  0  0
162197  1  0  0  0  0
164198  1  0  0  0  0
165199  1  0  0  0  0
165200  1  0  0  0  0
165201  1  0  0  0  0
166202  1  0  0  0  0
167203  1  0  0  0  0
169204  1  0  0  0  0
170205  1  0  0  0  0
175206  1  0  0  0  0
176207  1  0  0  0  0
178208  1  0  0  0  0
181209  1  0  0  0  0
182210  1  0  0  0  0
184211  1  0  0  0  0
185212  1  0  0  0  0
185213  1  0  0  0  0
185214  1  0  0  0  0
186215  1  0  0  0  0
187216  1  0  0  0  0
189217  1  0  0  0  0
190218  1  0  0  0  0
146219  4  0  0  0  0
219220  4  0  0  0  0
220221  4  0  0  0  0
221222  2  0  0  0  0
222223  4  0  0  0  0
220224  4  0  0  0  0
223224  4  0  0  0  0
223225  4  0  0  0  0
225226  1  0  0  0  0
226227  4  0  0  0  0
227228  4  0  0  0  0
228229  4  0  0  0  0
229230  1  0  0  0  0
230231  1  0  0  0  0
229232  4  0  0  0  0
226233  4  0  0  0  0
232233  4  0  0  0  0
225234  4  0  0  0  0
234235  1  0  0  0  0
235236  2  0  0  0  0
234237  4  0  0  0  0
236238  1  0  0  0  0
237238  4  0  0  0  0
150239  4  0  0  0  0
238239  4  0  0  0  0
239240  4  0  0  0  0
240241  4  0  0  0  0
241242  2  0  0  0  0
242243  4  0  0  0  0
240244  4  0  0  0  0
243244  4  0  0  0  0
243245  4  0  0  0  0
245246  1  0  0  0  0
246247  4  0  0  0  0
247248  4  0  0  0  0
248249  4  0  0  0  0
249250  1  0  0  0  0
250251  1  0  0  0  0
249252  4  0  0  0  0
246253  4  0  0  0  0
252253  4  0  0  0  0
245254  4  0  0  0  0
254255  1  0  0  0  0
255256  2  0  0  0  0
219257  4  0  0  0  0
256257  1  0  0  0  0
254258  4  0  0  0  0
257258  4  0  0  0  0
221259  1  0  0  0  0
222260  1  0  0  0  0
224261  1  0  0  0  0
227262  1  0  0  0  0
228263  1  0  0  0  0
230264  1  0  0  0  0
231265  1  0  0  0  0
231266  1  0  0  0  0
231267  1  0  0  0  0
232268  1  0  0  0  0
233269  1  0  0  0  0
235270  1  0  0  0  0
236271  1  0  0  0  0
241272  1  0  0  0  0
242273  1  0  0  0  0
244274  1  0  0  0  0
247275  1  0  0  0  0
248276  1  0  0  0  0
250277  1  0  0  0  0
251278  1  0  0  0  0
251279  1  0  0  0  0
251280  1  0  0  0  0
252281  1  0  0  0  0
253282  1  0  0  0  0
255283  1  0  0  0  0
256284  1  0  0  0  0
M  END
