776

C 150.610949 0.099529 -0.013551
C 151.335350 0.010917 1.363552
C 150.715457 -0.021946 2.592542
C 151.736138 -0.139647 3.569934
C 152.947510 -0.173315 2.903926
N 152.690710 -0.059239 1.561042
C 154.379495 -0.351205 3.561411
C 154.432709 -0.622781 5.017348
C 154.631154 0.415442 5.925468
C 154.665983 0.157720 7.303916
C 154.489665 -1.136684 7.831607
N 154.528993 -1.384508 9.216734
C 154.232147 -0.266607 10.108942
C 154.115778 -2.700169 9.694887
C 154.316634 -2.167270 6.886735
C 154.280769 -1.918470 5.506141
C 155.507233 -0.281967 2.802917
C 156.818761 -0.508777 3.374037
C 157.721074 -0.406427 2.405984
N 155.699189 -0.029830 1.468875
C 157.036120 -0.089915 1.167986
C 157.708898 0.089675 -0.000221
C 156.936492 0.481191 -1.332776
C 157.502593 1.038083 -2.464503
C 156.476905 1.186291 -3.429112
C 155.307145 0.730628 -2.856658
N 155.589037 0.341191 -1.567742
C 153.883310 0.685978 -3.558248
C 153.834613 0.834528 -5.029641
C 153.658954 2.089270 -5.610675
C 153.651991 2.230944 -7.005439
C 153.831388 1.134522 -7.871914
N 153.831640 1.300408 -9.271516
C 154.092557 0.130171 -10.104355
C 154.385989 2.558868 -9.770235
C 153.968234 -0.124174 -7.255701
C 153.980568 -0.274183 -5.860720
C 152.761067 0.519001 -2.811322
C 151.432515 0.475965 -3.397078
C 150.548826 0.319452 -2.416177
C 151.277199 0.252088 -1.172982
N 152.601816 0.366173 -1.461642
H 149.529486 0.028183 -0.022215
H 149.650927 0.023230 2.765403
H 151.602505 -0.204423 4.640016
H 153.395469 -0.028334 0.828458
H 154.766852 1.427257 5.550097
H 154.843692 1.011595 7.948213
H 153.249946 0.168256 9.890487
H 154.222095 -0.590807 11.156180
H 155.002725 0.508982 10.045947
H 153.068517 -2.902566 9.444158
H 154.754512 -3.491873 9.288550
H 154.213593 -2.768664 10.784365
H 154.200867 -3.201830 7.189510
H 154.139994 -2.736149 4.802799
H 157.036411 -0.736175 4.402630
H 158.779061 -0.533298 2.544981
H 158.541860 1.299746 -2.592545
H 156.580846 1.578813 -4.429786
H 154.895991 0.038589 -0.887717
H 153.525407 2.956964 -4.968194
H 153.487938 3.231375 -7.390830
H 153.988872 0.381924 -11.166208
H 155.108624 -0.249701 -9.949845
H 153.366295 -0.667296 -9.911961
H 153.741064 3.407690 -9.521844
H 154.457353 2.548850 -10.863611
H 155.393994 2.734722 -9.377683
H 154.086257 -1.032234 -7.835963
H 154.105464 -1.258418 -5.413643
H 151.197698 0.558203 -4.443467
H 149.481308 0.252718 -2.524183
C 301.819726 0.096131 0.015048
C 301.095325 0.332665 -1.344481
C 301.715218 0.588690 -2.546957
C 300.694537 0.703286 -3.524717
C 299.483166 0.514498 -2.885140
N 299.739965 0.310738 -1.552911
C 298.051181 0.495620 -3.566003
C 297.997966 0.572756 -5.045042
C 297.799521 1.794863 -5.684607
C 297.764693 1.867310 -7.085068
C 297.941010 0.732589 -7.901370
N 297.901682 0.816223 -9.306004
C 298.198528 2.112061 -9.911430
C 298.314897 -0.350771 -10.079127
C 298.114041 -0.490706 -7.224286
C 298.149906 -0.572329 -5.823829
C 296.923442 0.385202 -2.812402
C 295.611914 0.298530 -3.420768
C 294.709601 0.171200 -2.455683
N 296.731486 0.317731 -1.456419
C 295.394556 0.188816 -1.177986
C 294.721777 0.089675 -0.000221
C 295.494183 0.158051 1.386975
C 294.928082 0.434256 2.617685
C 295.953770 0.352314 3.590166
C 297.123530 0.043472 2.926880
N 296.841639 -0.033108 1.582595
C 298.547365 -0.164329 3.598475
C 298.596063 -0.364688 5.063713
C 298.771721 0.718977 5.922579
C 298.778684 0.529889 7.311710
C 298.599288 -0.739038 7.897152
N 298.599035 -0.905722 9.296659
C 298.338118 -2.238528 9.832106
C 298.044687 0.200845 10.076372
C 298.462442 -1.818303 7.003160
C 298.450108 -1.637269 5.611865
C 299.669608 -0.151641 2.833219
C 300.998161 -0.330731 3.392583
C 301.881849 -0.253044 2.402316
C 301.153476 -0.027232 1.177947
N 299.828859 0.016040 1.485303
H 302.901190 0.024741 0.006752
H 302.779748 0.673113 -2.704420
H 300.828170 0.891052 -4.580187
H 299.035206 0.169124 -0.833481
H 297.663823 2.690553 -5.082601
H 297.586984 2.848382 -7.511351
H 299.180730 2.483630 -9.597161
H 298.208580 2.042272 -11.005479
H 297.427950 2.851297 -9.668455
H 299.362158 -0.606284 -9.882803
H 297.676164 -1.215646 -9.869612
H 298.217082 -0.162076 -11.154324
H 298.229808 -1.425518 -7.761047
H 298.290682 -1.532049 -5.331665
H 295.394264 0.318480 -4.474008
H 293.651614 0.080430 -2.620538
H 293.888815 0.658632 2.803474
H 295.849830 0.499433 4.654956
H 297.534684 -0.167944 0.850597
H 298.905269 1.713058 5.501300
H 298.942737 1.412164 7.920789
H 298.441803 -2.242594 10.923387
H 297.322051 -2.571620 9.592886
H 299.064380 -2.968712 9.458207
H 298.689611 1.084238 10.033790
H 297.973322 -0.065091 11.136962
H 297.036681 0.463785 9.735954
H 298.344419 -2.837049 7.354494
H 298.325212 -2.489345 4.946611
H 301.232978 -0.495969 4.429110
H 302.949368 -0.343228 2.491679
C 163.717305 0.090986 0.008211
C 162.508366 0.077531 -0.000236
C 161.086837 0.086350 -0.012219
C 159.875167 0.093789 -0.001356
C 165.133909 0.084311 0.008745
C 166.354605 0.093789 -0.001356
C 179.492793 0.090986 0.008211
C 178.283854 0.077531 -0.000236
C 176.862325 0.086350 -0.012219
C 175.650656 0.093789 -0.001356
C 180.909398 0.084311 0.008745
C 182.130093 0.093789 -0.001356
C 195.268281 0.090986 0.008211
C 194.059342 0.077531 -0.000236
C 192.637813 0.086350 -0.012219
C 191.426144 0.093789 -0.001356
C 196.684886 0.084311 0.008745
C 197.905582 0.093789 -0.001356
C 211.043770 0.090986 0.008211
C 209.834830 0.077531 -0.000236
C 208.413301 0.086350 -0.012219
C 207.201632 0.093789 -0.001356
C 212.460374 0.084311 0.008745
C 213.681070 0.093789 -0.001356
C 226.819258 0.090986 0.008211
C 225.610318 0.077531 -0.000236
C 224.188790 0.086350 -0.012219
C 222.977120 0.093789 -0.001356
C 228.235862 0.084311 0.008745
C 229.456558 0.093789 -0.001356
C 242.594746 0.090986 0.008211
C 241.385807 0.077531 -0.000236
C 239.964278 0.086350 -0.012219
C 238.752608 0.093789 -0.001356
C 244.011350 0.084311 0.008745
C 245.232046 0.093789 -0.001356
C 258.370234 0.090986 0.008211
C 257.161295 0.077531 -0.000236
C 255.739766 0.086350 -0.012219
C 254.528096 0.093789 -0.001356
C 259.786838 0.084311 0.008745
C 261.007534 0.093789 -0.001356
C 274.145722 0.090986 0.008211
C 272.936783 0.077531 -0.000236
C 271.515254 0.086350 -0.012219
C 270.303585 0.093789 -0.001356
C 275.562327 0.084311 0.008745
C 276.783022 0.093789 -0.001356
C 289.921210 0.090986 0.008211
C 288.712271 0.077531 -0.000236
C 287.290742 0.086350 -0.012219
C 286.079073 0.093789 -0.001356
C 291.337815 0.084311 0.008745
C 292.558511 0.093789 -0.001356
C 167.427648 -0.031523 0.000183
C 168.221435 -0.381494 1.326543
C 167.713683 -0.996565 2.453248
C 168.750899 -1.032539 3.420082
C 169.861553 -0.445220 2.851215
N 169.550799 -0.122399 1.553955
C 171.251694 -0.178141 3.562788
C 171.241180 0.003030 5.032453
C 170.791230 1.196836 5.593018
C 170.753116 1.360923 6.985797
C 171.143049 0.337192 7.868742
N 171.104998 0.481500 9.271079
C 170.629736 1.748676 9.817261
C 170.688291 -0.708975 10.012708
C 171.618702 -0.847600 7.274308
C 171.661385 -1.018613 5.883264
C 172.386313 -0.076394 2.821637
C 173.672923 0.224069 3.414885
C 174.580838 0.267073 2.445802
N 172.594431 -0.196970 1.475417
C 173.918696 -0.004997 1.185674
C 174.582286 -0.031523 0.000183
C 173.788488 -0.330631 -1.338580
C 174.295894 -0.904475 -2.487226
C 173.258982 -0.903307 -3.455049
C 172.148814 -0.336139 -2.864661
N 172.459457 -0.062739 -1.556097
C 170.759046 -0.041201 -3.565903
C 170.770020 0.192509 -5.028118
C 171.229385 1.400858 -5.547080
C 171.266818 1.612433 -6.933775
C 170.866611 0.625260 -7.854519
N 170.903694 0.830121 -9.247768
C 171.082136 -0.357335 -10.081261
C 171.530648 2.048968 -9.750298
C 170.382812 -0.575279 -7.298835
C 170.341676 -0.794972 -5.914081
C 169.624308 0.033101 -2.821263
C 168.337500 0.355876 -3.402344
C 167.429480 0.361474 -2.432184
C 168.091655 0.041384 -1.183456
N 169.416341 -0.138240 -1.480379
H 166.704366 -1.358307 2.577136
H 168.689712 -1.422232 4.425161
H 170.212197 0.218035 0.861759
H 170.467907 2.002122 4.936800
H 170.389492 2.316344 7.347048
H 170.748914 1.764406 10.907173
H 171.217437 2.592285 9.437416
H 169.567966 1.907146 9.595653
H 171.435364 -1.506511 9.951778
H 169.722769 -1.084234 9.653526
H 170.578940 -0.483799 11.080377
H 171.991134 -1.666818 7.879783
H 172.031325 -1.947415 5.454040
H 173.867028 0.395473 4.458887
H 175.624980 0.474212 2.592063
H 175.304972 -1.262731 -2.623815
H 173.319667 -1.255226 -4.474067
H 171.798912 0.253594 -0.851203
H 171.559634 2.180689 -4.863969
H 171.634487 2.578754 -7.260325
H 171.975408 -0.920711 -9.787857
H 170.203808 -1.010232 -10.040903
H 171.201404 -0.082830 -11.136068
H 172.597707 2.079711 -9.502811
H 171.441990 2.109518 -10.841196
H 171.033598 2.943979 -9.359583
H 170.009502 -1.376328 -7.926952
H 169.967694 -1.736497 -5.517528
H 168.142834 0.566884 -4.438791
H 166.385110 0.573985 -2.570104
C 183.203136 -0.031523 0.000183
C 183.996923 -0.381494 1.326543
C 183.489171 -0.996565 2.453248
C 184.526388 -1.032539 3.420082
C 185.637042 -0.445220 2.851215
N 185.326287 -0.122399 1.553955
C 187.027182 -0.178141 3.562788
C 187.016668 0.003030 5.032453
C 186.566718 1.196836 5.593018
C 186.528604 1.360923 6.985797
C 186.918537 0.337192 7.868742
N 186.880486 0.481500 9.271079
C 186.405224 1.748676 9.817261
C 186.463779 -0.708975 10.012708
C 187.394190 -0.847600 7.274308
C 187.436873 -1.018613 5.883264
C 188.161801 -0.076394 2.821637
C 189.448411 0.224069 3.414885
C 190.356327 0.267073 2.445802
N 188.369919 -0.196970 1.475417
C 189.694185 -0.004997 1.185674
C 190.357775 -0.031523 0.000183
C 189.563976 -0.330631 -1.338580
C 190.071382 -0.904475 -2.487226
C 189.034470 -0.903307 -3.455049
C 187.924302 -0.336139 -2.864661
N 188.234945 -0.062739 -1.556097
C 186.534535 -0.041201 -3.565903
C 186.545508 0.192509 -5.028118
C 187.004873 1.400858 -5.547080
C 187.042306 1.612433 -6.933775
C 186.642099 0.625260 -7.854519
N 186.679182 0.830121 -9.247768
C 186.857624 -0.357335 -10.081261
C 187.306136 2.048968 -9.750298
C 186.158300 -0.575279 -7.298835
C 186.117164 -0.794972 -5.914081
C 185.399796 0.033101 -2.821263
C 184.112988 0.355876 -3.402344
C 183.204968 0.361474 -2.432184
C 183.867144 0.041384 -1.183456
N 185.191829 -0.138240 -1.480379
H 182.479854 -1.358307 2.577136
H 184.465200 -1.422232 4.425161
H 185.987685 0.218035 0.861759
H 186.243395 2.002122 4.936800
H 186.164980 2.316344 7.347048
H 186.524402 1.764406 10.907173
H 186.992925 2.592285 9.437416
H 185.343454 1.907146 9.595653
H 187.210852 -1.506511 9.951778
H 185.498257 -1.084234 9.653526
H 186.354428 -0.483799 11.080377
H 187.766622 -1.666818 7.879783
H 187.806813 -1.947415 5.454040
H 189.642516 0.395473 4.458887
H 191.400468 0.474212 2.592063
H 191.080460 -1.262731 -2.623815
H 189.095155 -1.255226 -4.474067
H 187.574400 0.253594 -0.851203
H 187.335122 2.180689 -4.863969
H 187.409976 2.578754 -7.260325
H 187.750896 -0.920711 -9.787857
H 185.979296 -1.010232 -10.040903
H 186.976893 -0.082830 -11.136068
H 188.373195 2.079711 -9.502811
H 187.217478 2.109518 -10.841196
H 186.809086 2.943979 -9.359583
H 185.784991 -1.376328 -7.926952
H 185.743182 -1.736497 -5.517528
H 183.918322 0.566884 -4.438791
H 182.160599 0.573985 -2.570104
C 198.978624 -0.031523 0.000183
C 199.772411 -0.381494 1.326543
C 199.264659 -0.996565 2.453248
C 200.301876 -1.032539 3.420082
C 201.412530 -0.445220 2.851215
N 201.101776 -0.122399 1.553955
C 202.802670 -0.178141 3.562788
C 202.792156 0.003030 5.032453
C 202.342206 1.196836 5.593018
C 202.304092 1.360923 6.985797
C 202.694025 0.337192 7.868742
N 202.655974 0.481500 9.271079
C 202.180712 1.748676 9.817261
C 202.239267 -0.708975 10.012708
C 203.169678 -0.847600 7.274308
C 203.212361 -1.018613 5.883264
C 203.937290 -0.076394 2.821637
C 205.223899 0.224069 3.414885
C 206.131815 0.267073 2.445802
N 204.145407 -0.196970 1.475417
C 205.469673 -0.004997 1.185674
C 206.133263 -0.031523 0.000183
C 205.339464 -0.330631 -1.338580
C 205.846870 -0.904475 -2.487226
C 204.809958 -0.903307 -3.455049
C 203.699790 -0.336139 -2.864661
N 204.010433 -0.062739 -1.556097
C 202.310023 -0.041201 -3.565903
C 202.320996 0.192509 -5.028118
C 202.780362 1.400858 -5.547080
C 202.817794 1.612433 -6.933775
C 202.417588 0.625260 -7.854519
N 202.454671 0.830121 -9.247768
C 202.633112 -0.357335 -10.081261
C 203.081625 2.048968 -9.750298
C 201.933789 -0.575279 -7.298835
C 201.892652 -0.794972 -5.914081
C 201.175284 0.033101 -2.821263
C 199.888476 0.355876 -3.402344
C 198.980456 0.361474 -2.432184
C 199.642632 0.041384 -1.183456
N 200.967318 -0.138240 -1.480379
H 198.255342 -1.358307 2.577136
H 200.240689 -1.422232 4.425161
H 201.763173 0.218035 0.861759
H 202.018883 2.002122 4.936800
H 201.940468 2.316344 7.347048
H 202.299890 1.764406 10.907173
H 202.768413 2.592285 9.437416
H 201.118942 1.907146 9.595653
H 202.986341 -1.506511 9.951778
H 201.273745 -1.084234 9.653526
H 202.129916 -0.483799 11.080377
H 203.542110 -1.666818 7.879783
H 203.582301 -1.947415 5.454040
H 205.418004 0.395473 4.458887
H 207.175956 0.474212 2.592063
H 206.855948 -1.262731 -2.623815
H 204.870643 -1.255226 -4.474067
H 203.349888 0.253594 -0.851203
H 203.110610 2.180689 -4.863969
H 203.185464 2.578754 -7.260325
H 203.526384 -0.920711 -9.787857
H 201.754784 -1.010232 -10.040903
H 202.752381 -0.082830 -11.136068
H 204.148683 2.079711 -9.502811
H 202.992966 2.109518 -10.841196
H 202.584574 2.943979 -9.359583
H 201.560479 -1.376328 -7.926952
H 201.518670 -1.736497 -5.517528
H 199.693810 0.566884 -4.438791
H 197.936087 0.573985 -2.570104
C 214.754113 -0.031523 0.000183
C 215.547899 -0.381494 1.326543
C 215.040147 -0.996565 2.453248
C 216.077364 -1.032539 3.420082
C 217.188018 -0.445220 2.851215
N 216.877264 -0.122399 1.553955
C 218.578158 -0.178141 3.562788
C 218.567644 0.003030 5.032453
C 218.117694 1.196836 5.593018
C 218.079580 1.360923 6.985797
C 218.469513 0.337192 7.868742
N 218.431462 0.481500 9.271079
C 217.956200 1.748676 9.817261
C 218.014756 -0.708975 10.012708
C 218.945167 -0.847600 7.274308
C 218.987849 -1.018613 5.883264
C 219.712778 -0.076394 2.821637
C 220.999388 0.224069 3.414885
C 221.907303 0.267073 2.445802
N 219.920895 -0.196970 1.475417
C 221.245161 -0.004997 1.185674
C 221.908751 -0.031523 0.000183
C 221.114953 -0.330631 -1.338580
C 221.622359 -0.904475 -2.487226
C 220.585446 -0.903307 -3.455049
C 219.475278 -0.336139 -2.864661
N 219.785921 -0.062739 -1.556097
C 218.085511 -0.041201 -3.565903
C 218.096484 0.192509 -5.028118
C 218.555850 1.400858 -5.547080
C 218.593282 1.612433 -6.933775
C 218.193076 0.625260 -7.854519
N 218.230159 0.830121 -9.247768
C 218.408600 -0.357335 -10.081261
C 218.857113 2.048968 -9.750298
C 217.709277 -0.575279 -7.298835
C 217.668140 -0.794972 -5.914081
C 216.950773 0.033101 -2.821263
C 215.663965 0.355876 -3.402344
C 214.755944 0.361474 -2.432184
C 215.418120 0.041384 -1.183456
N 216.742806 -0.138240 -1.480379
H 214.030830 -1.358307 2.577136
H 216.016177 -1.422232 4.425161
H 217.538661 0.218035 0.861759
H 217.794371 2.002122 4.936800
H 217.715957 2.316344 7.347048
H 218.075379 1.764406 10.907173
H 218.543901 2.592285 9.437416
H 216.894431 1.907146 9.595653
H 218.761829 -1.506511 9.951778
H 217.049233 -1.084234 9.653526
H 217.905404 -0.483799 11.080377
H 219.317599 -1.666818 7.879783
H 219.357790 -1.947415 5.454040
H 221.193492 0.395473 4.458887
H 222.951445 0.474212 2.592063
H 222.631436 -1.262731 -2.623815
H 220.646131 -1.255226 -4.474067
H 219.125376 0.253594 -0.851203
H 218.886098 2.180689 -4.863969
H 218.960952 2.578754 -7.260325
H 219.301873 -0.920711 -9.787857
H 217.530273 -1.010232 -10.040903
H 218.527869 -0.082830 -11.136068
H 219.924171 2.079711 -9.502811
H 218.768454 2.109518 -10.841196
H 218.360062 2.943979 -9.359583
H 217.335967 -1.376328 -7.926952
H 217.294158 -1.736497 -5.517528
H 215.469299 0.566884 -4.438791
H 213.711575 0.573985 -2.570104
C 230.529601 -0.031523 0.000183
C 231.323387 -0.381494 1.326543
C 230.815635 -0.996565 2.453248
C 231.852852 -1.032539 3.420082
C 232.963506 -0.445220 2.851215
N 232.652752 -0.122399 1.553955
C 234.353647 -0.178141 3.562788
C 234.343132 0.003030 5.032453
C 233.893182 1.196836 5.593018
C 233.855068 1.360923 6.985797
C 234.245002 0.337192 7.868742
N 234.206950 0.481500 9.271079
C 233.731688 1.748676 9.817261
C 233.790244 -0.708975 10.012708
C 234.720655 -0.847600 7.274308
C 234.763337 -1.018613 5.883264
C 235.488266 -0.076394 2.821637
C 236.774876 0.224069 3.414885
C 237.682791 0.267073 2.445802
N 235.696383 -0.196970 1.475417
C 237.020649 -0.004997 1.185674
C 237.684239 -0.031523 0.000183
C 236.890441 -0.330631 -1.338580
C 237.397847 -0.904475 -2.487226
C 236.360935 -0.903307 -3.455049
C 235.250766 -0.336139 -2.864661
N 235.561410 -0.062739 -1.556097
C 233.860999 -0.041201 -3.565903
C 233.871972 0.192509 -5.028118
C 234.331338 1.400858 -5.547080
C 234.368771 1.612433 -6.933775
C 233.968564 0.625260 -7.854519
N 234.005647 0.830121 -9.247768
C 234.184088 -0.357335 -10.081261
C 234.632601 2.048968 -9.750298
C 233.484765 -0.575279 -7.298835
C 233.443628 -0.794972 -5.914081
C 232.726261 0.033101 -2.821263
C 231.439453 0.355876 -3.402344
C 230.531432 0.361474 -2.432184
C 231.193608 0.041384 -1.183456
N 232.518294 -0.138240 -1.480379
H 229.806318 -1.358307 2.577136
H 231.791665 -1.422232 4.425161
H 233.314149 0.218035 0.861759
H 233.569859 2.002122 4.936800
H 233.491445 2.316344 7.347048
H 233.850867 1.764406 10.907173
H 234.319389 2.592285 9.437416
H 232.669919 1.907146 9.595653
H 234.537317 -1.506511 9.951778
H 232.824722 -1.084234 9.653526
H 233.680892 -0.483799 11.080377
H 235.093087 -1.666818 7.879783
H 235.133278 -1.947415 5.454040
H 236.968981 0.395473 4.458887
H 238.726933 0.474212 2.592063
H 238.406924 -1.262731 -2.623815
H 236.421619 -1.255226 -4.474067
H 234.900864 0.253594 -0.851203
H 234.661586 2.180689 -4.863969
H 234.736440 2.578754 -7.260325
H 235.077361 -0.920711 -9.787857
H 233.305761 -1.010232 -10.040903
H 234.303357 -0.082830 -11.136068
H 235.699659 2.079711 -9.502811
H 234.543943 2.109518 -10.841196
H 234.135551 2.943979 -9.359583
H 233.111455 -1.376328 -7.926952
H 233.069646 -1.736497 -5.517528
H 231.244787 0.566884 -4.438791
H 229.487063 0.573985 -2.570104
C 246.305089 -0.031523 0.000183
C 247.098875 -0.381494 1.326543
C 246.591124 -0.996565 2.453248
C 247.628340 -1.032539 3.420082
C 248.738994 -0.445220 2.851215
N 248.428240 -0.122399 1.553955
C 250.129135 -0.178141 3.562788
C 250.118621 0.003030 5.032453
C 249.668670 1.196836 5.593018
C 249.630557 1.360923 6.985797
C 250.020490 0.337192 7.868742
N 249.982439 0.481500 9.271079
C 249.507177 1.748676 9.817261
C 249.565732 -0.708975 10.012708
C 250.496143 -0.847600 7.274308
C 250.538826 -1.018613 5.883264
C 251.263754 -0.076394 2.821637
C 252.550364 0.224069 3.414885
C 253.458279 0.267073 2.445802
N 251.471871 -0.196970 1.475417
C 252.796137 -0.004997 1.185674
C 253.459727 -0.031523 0.000183
C 252.665929 -0.330631 -1.338580
C 253.173335 -0.904475 -2.487226
C 252.136423 -0.903307 -3.455049
C 251.026254 -0.336139 -2.864661
N 251.336898 -0.062739 -1.556097
C 249.636487 -0.041201 -3.565903
C 249.647460 0.192509 -5.028118
C 250.106826 1.400858 -5.547080
C 250.144259 1.612433 -6.933775
C 249.744052 0.625260 -7.854519
N 249.781135 0.830121 -9.247768
C 249.959577 -0.357335 -10.081261
C 250.408089 2.048968 -9.750298
C 249.260253 -0.575279 -7.298835
C 249.219116 -0.794972 -5.914081
C 248.501749 0.033101 -2.821263
C 247.214941 0.355876 -3.402344
C 246.306920 0.361474 -2.432184
C 246.969096 0.041384 -1.183456
N 248.293782 -0.138240 -1.480379
H 245.581806 -1.358307 2.577136
H 247.567153 -1.422232 4.425161
H 249.089637 0.218035 0.861759
H 249.345347 2.002122 4.936800
H 249.266933 2.316344 7.347048
H 249.626355 1.764406 10.907173
H 250.094877 2.592285 9.437416
H 248.445407 1.907146 9.595653
H 250.312805 -1.506511 9.951778
H 248.600210 -1.084234 9.653526
H 249.456380 -0.483799 11.080377
H 250.868575 -1.666818 7.879783
H 250.908766 -1.947415 5.454040
H 252.744469 0.395473 4.458887
H 254.502421 0.474212 2.592063
H 254.182412 -1.262731 -2.623815
H 252.197107 -1.255226 -4.474067
H 250.676353 0.253594 -0.851203
H 250.437074 2.180689 -4.863969
H 250.511928 2.578754 -7.260325
H 250.852849 -0.920711 -9.787857
H 249.081249 -1.010232 -10.040903
H 250.078845 -0.082830 -11.136068
H 251.475147 2.079711 -9.502811
H 250.319431 2.109518 -10.841196
H 249.911039 2.943979 -9.359583
H 248.886943 -1.376328 -7.926952
H 248.845134 -1.736497 -5.517528
H 247.020275 0.566884 -4.438791
H 245.262551 0.573985 -2.570104
C 262.080577 -0.031523 0.000183
C 262.874364 -0.381494 1.326543
C 262.366612 -0.996565 2.453248
C 263.403829 -1.032539 3.420082
C 264.514482 -0.445220 2.851215
N 264.203728 -0.122399 1.553955
C 265.904623 -0.178141 3.562788
C 265.894109 0.003030 5.032453
C 265.444159 1.196836 5.593018
C 265.406045 1.360923 6.985797
C 265.795978 0.337192 7.868742
N 265.757927 0.481500 9.271079
C 265.282665 1.748676 9.817261
C 265.341220 -0.708975 10.012708
C 266.271631 -0.847600 7.274308
C 266.314314 -1.018613 5.883264
C 267.039242 -0.076394 2.821637
C 268.325852 0.224069 3.414885
C 269.233767 0.267073 2.445802
N 267.247360 -0.196970 1.475417
C 268.571625 -0.004997 1.185674
C 269.235215 -0.031523 0.000183
C 268.441417 -0.330631 -1.338580
C 268.948823 -0.904475 -2.487226
C 267.911911 -0.903307 -3.455049
C 266.801743 -0.336139 -2.864661
N 267.112386 -0.062739 -1.556097
C 265.411975 -0.041201 -3.565903
C 265.422949 0.192509 -5.028118
C 265.882314 1.400858 -5.547080
C 265.919747 1.612433 -6.933775
C 265.519540 0.625260 -7.854519
N 265.556623 0.830121 -9.247768
C 265.735065 -0.357335 -10.081261
C 266.183577 2.048968 -9.750298
C 265.035741 -0.575279 -7.298835
C 264.994605 -0.794972 -5.914081
C 264.277237 0.033101 -2.821263
C 262.990429 0.355876 -3.402344
C 262.082409 0.361474 -2.432184
C 262.744584 0.041384 -1.183456
N 264.069270 -0.138240 -1.480379
H 261.357295 -1.358307 2.577136
H 263.342641 -1.422232 4.425161
H 264.865126 0.218035 0.861759
H 265.120836 2.002122 4.936800
H 265.042421 2.316344 7.347048
H 265.401843 1.764406 10.907173
H 265.870366 2.592285 9.437416
H 264.220895 1.907146 9.595653
H 266.088293 -1.506511 9.951778
H 264.375698 -1.084234 9.653526
H 265.231869 -0.483799 11.080377
H 266.644063 -1.666818 7.879783
H 266.684254 -1.947415 5.454040
H 268.519957 0.395473 4.458887
H 270.277909 0.474212 2.592063
H 269.957901 -1.262731 -2.623815
H 267.972596 -1.255226 -4.474067
H 266.451841 0.253594 -0.851203
H 266.212563 2.180689 -4.863969
H 266.287417 2.578754 -7.260325
H 266.628337 -0.920711 -9.787857
H 264.856737 -1.010232 -10.040903
H 265.854333 -0.082830 -11.136068
H 267.250636 2.079711 -9.502811
H 266.094919 2.109518 -10.841196
H 265.686527 2.943979 -9.359583
H 264.662431 -1.376328 -7.926952
H 264.620623 -1.736497 -5.517528
H 262.795763 0.566884 -4.438791
H 261.038039 0.573985 -2.570104
C 277.856065 -0.031523 0.000183
C 278.649852 -0.381494 1.326543
C 278.142100 -0.996565 2.453248
C 279.179317 -1.032539 3.420082
C 280.289971 -0.445220 2.851215
N 279.979216 -0.122399 1.553955
C 281.680111 -0.178141 3.562788
C 281.669597 0.003030 5.032453
C 281.219647 1.196836 5.593018
C 281.181533 1.360923 6.985797
C 281.571466 0.337192 7.868742
N 281.533415 0.481500 9.271079
C 281.058153 1.748676 9.817261
C 281.116708 -0.708975 10.012708
C 282.047119 -0.847600 7.274308
C 282.089802 -1.018613 5.883264
C 282.814731 -0.076394 2.821637
C 284.101340 0.224069 3.414885
C 285.009256 0.267073 2.445802
N 283.022848 -0.196970 1.475417
C 284.347114 -0.004997 1.185674
C 285.010704 -0.031523 0.000183
C 284.216905 -0.330631 -1.338580
C 284.724311 -0.904475 -2.487226
C 283.687399 -0.903307 -3.455049
C 282.577231 -0.336139 -2.864661
N 282.887874 -0.062739 -1.556097
C 281.187464 -0.041201 -3.565903
C 281.198437 0.192509 -5.028118
C 281.657802 1.400858 -5.547080
C 281.695235 1.612433 -6.933775
C 281.295028 0.625260 -7.854519
N 281.332112 0.830121 -9.247768
C 281.510553 -0.357335 -10.081261
C 281.959065 2.048968 -9.750298
C 280.811229 -0.575279 -7.298835
C 280.770093 -0.794972 -5.914081
C 280.052725 0.033101 -2.821263
C 278.765917 0.355876 -3.402344
C 277.857897 0.361474 -2.432184
C 278.520073 0.041384 -1.183456
N 279.844758 -0.138240 -1.480379
H 277.132783 -1.358307 2.577136
H 279.118129 -1.422232 4.425161
H 280.640614 0.218035 0.861759
H 280.896324 2.002122 4.936800
H 280.817909 2.316344 7.347048
H 281.177331 1.764406 10.907173
H 281.645854 2.592285 9.437416
H 279.996383 1.907146 9.595653
H 281.863781 -1.506511 9.951778
H 280.151186 -1.084234 9.653526
H 281.007357 -0.483799 11.080377
H 282.419551 -1.666818 7.879783
H 282.459742 -1.947415 5.454040
H 284.295445 0.395473 4.458887
H 286.053397 0.474212 2.592063
H 285.733389 -1.262731 -2.623815
H 283.748084 -1.255226 -4.474067
H 282.227329 0.253594 -0.851203
H 281.988051 2.180689 -4.863969
H 282.062905 2.578754 -7.260325
H 282.403825 -0.920711 -9.787857
H 280.632225 -1.010232 -10.040903
H 281.629822 -0.082830 -11.136068
H 283.026124 2.079711 -9.502811
H 281.870407 2.109518 -10.841196
H 281.462015 2.943979 -9.359583
H 280.437920 -1.376328 -7.926952
H 280.396111 -1.736497 -5.517528
H 278.571251 0.566884 -4.438791
H 276.813528 0.573985 -2.570104
