
  xtb     07312201083D
 xtb: 6.4.1 (bd6e46d)
306345  0     0  0            999 V2000
   49.5150    0.0298   -0.0418 Fe  0  0  0  0  0  0  0  0  0  0  0  0
   46.1176    0.0950   -0.1017 C   0  0  0  0  0  0  0  0  0  0  0  0
   46.7784    1.2263    0.3315 C   0  0  0  0  0  0  0  0  0  0  0  0
   46.1140    2.4247    0.7488 C   0  0  0  0  0  0  0  0  0  0  0  0
   47.0770    3.2707    1.1851 C   0  0  0  0  0  0  0  0  0  0  0  0
   48.3283    2.5866    1.0327 C   0  0  0  0  0  0  0  0  0  0  0  0
   48.1345    1.3462    0.4882 N   0  0  0  0  0  0  0  0  0  0  0  0
   49.5466    3.1099    1.4453 C   0  0  0  0  0  0  0  0  0  0  0  0
   49.5576    4.4541    2.0879 C   0  0  0  0  0  0  0  0  0  0  0  0
   49.7607    5.5961    1.3072 C   0  0  0  0  0  0  0  0  0  0  0  0
   49.9753    5.4635   -0.1770 C   0  0  0  0  0  0  0  0  0  0  0  0
   49.7616    6.8460    1.9141 C   0  0  0  0  0  0  0  0  0  0  0  0
   49.5634    6.9754    3.2855 C   0  0  0  0  0  0  0  0  0  0  0  0
   49.5830    8.3365    3.9273 C   0  0  0  0  0  0  0  0  0  0  0  0
   49.3650    5.8324    4.0520 C   0  0  0  0  0  0  0  0  0  0  0  0
   49.3590    4.5715    3.4661 C   0  0  0  0  0  0  0  0  0  0  0  0
   49.1393    3.3383    4.3011 C   0  0  0  0  0  0  0  0  0  0  0  0
   50.7504    2.4448    1.2804 C   0  0  0  0  0  0  0  0  0  0  0  0
   52.0124    2.9704    1.7085 C   0  0  0  0  0  0  0  0  0  0  0  0
   52.9600    2.0953    1.2938 C   0  0  0  0  0  0  0  0  0  0  0  0
   50.9265    1.2441    0.6343 N   0  0  0  0  0  0  0  0  0  0  0  0
   52.2741    1.0389    0.6160 C   0  0  0  0  0  0  0  0  0  0  0  0
   52.9325   -0.0076   -0.0411 C   0  0  0  0  0  0  0  0  0  0  0  0
   52.2512   -1.0483   -0.6837 C   0  0  0  0  0  0  0  0  0  0  0  0
   52.9146   -2.1339   -1.3374 C   0  0  0  0  0  0  0  0  0  0  0  0
   51.9495   -3.0040   -1.7214 C   0  0  0  0  0  0  0  0  0  0  0  0
   50.6989   -2.4416   -1.3068 C   0  0  0  0  0  0  0  0  0  0  0  0
   50.8998   -1.2287   -0.6918 N   0  0  0  0  0  0  0  0  0  0  0  0
   49.4794   -3.0779   -1.4701 C   0  0  0  0  0  0  0  0  0  0  0  0
   49.4601   -4.4387   -2.0765 C   0  0  0  0  0  0  0  0  0  0  0  0
   49.2971   -4.5868   -3.4575 C   0  0  0  0  0  0  0  0  0  0  0  0
   49.1503   -3.3695   -4.3310 C   0  0  0  0  0  0  0  0  0  0  0  0
   49.2718   -5.8617   -4.0083 C   0  0  0  0  0  0  0  0  0  0  0  0
   49.4054   -6.9911   -3.2050 C   0  0  0  0  0  0  0  0  0  0  0  0
   49.3680   -8.3622   -3.8244 C   0  0  0  0  0  0  0  0  0  0  0  0
   49.5688   -6.8314   -1.8340 C   0  0  0  0  0  0  0  0  0  0  0  0
   49.5980   -5.5646   -1.2608 C   0  0  0  0  0  0  0  0  0  0  0  0
   49.7758   -5.3990    0.2249 C   0  0  0  0  0  0  0  0  0  0  0  0
   48.2693   -2.5037   -1.1034 C   0  0  0  0  0  0  0  0  0  0  0  0
   46.9986   -3.1423   -1.2892 C   0  0  0  0  0  0  0  0  0  0  0  0
   46.0536   -2.2466   -0.9175 C   0  0  0  0  0  0  0  0  0  0  0  0
   46.7487   -1.0663   -0.4986 C   0  0  0  0  0  0  0  0  0  0  0  0
   48.1039   -1.2436   -0.5958 N   0  0  0  0  0  0  0  0  0  0  0  0
   45.0339    0.1173   -0.1244 H   0  0  0  0  0  0  0  0  0  0  0  0
   45.0469    2.5767    0.7111 H   0  0  0  0  0  0  0  0  0  0  0  0
   46.9690    4.2679    1.5806 H   0  0  0  0  0  0  0  0  0  0  0  0
   49.1448    4.9228   -0.6344 H   0  0  0  0  0  0  0  0  0  0  0  0
   50.8897    4.9017   -0.3775 H   0  0  0  0  0  0  0  0  0  0  0  0
   50.0578    6.4429   -0.6473 H   0  0  0  0  0  0  0  0  0  0  0  0
   49.9165    7.7331    1.3087 H   0  0  0  0  0  0  0  0  0  0  0  0
   49.0951    8.3156    4.9018 H   0  0  0  0  0  0  0  0  0  0  0  0
   50.6146    8.6672    4.0681 H   0  0  0  0  0  0  0  0  0  0  0  0
   49.0780    9.0682    3.2957 H   0  0  0  0  0  0  0  0  0  0  0  0
   49.2102    5.9232    5.1222 H   0  0  0  0  0  0  0  0  0  0  0  0
   49.9719    2.6433    4.1783 H   0  0  0  0  0  0  0  0  0  0  0  0
   49.0484    3.5935    5.3564 H   0  0  0  0  0  0  0  0  0  0  0  0
   48.2282    2.8259    3.9859 H   0  0  0  0  0  0  0  0  0  0  0  0
   52.1398    3.8936    2.2505 H   0  0  0  0  0  0  0  0  0  0  0  0
   54.0293    2.1488    1.4215 H   0  0  0  0  0  0  0  0  0  0  0  0
   53.9821   -2.2104   -1.4675 H   0  0  0  0  0  0  0  0  0  0  0  0
   52.0576   -3.9448   -2.2366 H   0  0  0  0  0  0  0  0  0  0  0  0
   48.2612   -2.8040   -4.0454 H   0  0  0  0  0  0  0  0  0  0  0  0
   49.0627   -3.6511   -5.3799 H   0  0  0  0  0  0  0  0  0  0  0  0
   50.0144   -2.7128   -4.2149 H   0  0  0  0  0  0  0  0  0  0  0  0
   49.1452   -5.9786   -5.0796 H   0  0  0  0  0  0  0  0  0  0  0  0
   50.1485   -8.4583   -4.5814 H   0  0  0  0  0  0  0  0  0  0  0  0
   49.5159   -9.1360   -3.0713 H   0  0  0  0  0  0  0  0  0  0  0  0
   48.4056   -8.5305   -4.3115 H   0  0  0  0  0  0  0  0  0  0  0  0
   49.6739   -7.7052   -1.1993 H   0  0  0  0  0  0  0  0  0  0  0  0
   48.9442   -4.8312    0.6461 H   0  0  0  0  0  0  0  0  0  0  0  0
   50.6954   -4.8499    0.4364 H   0  0  0  0  0  0  0  0  0  0  0  0
   49.8259   -6.3676    0.7214 H   0  0  0  0  0  0  0  0  0  0  0  0
   46.8662   -4.1444   -1.6644 H   0  0  0  0  0  0  0  0  0  0  0  0
   44.9805   -2.3547   -0.9219 H   0  0  0  0  0  0  0  0  0  0  0  0
   89.8222   -0.0151   -0.0827 Fe  0  0  0  0  0  0  0  0  0  0  0  0
   93.2186   -0.0318   -0.1562 C   0  0  0  0  0  0  0  0  0  0  0  0
   92.5584   -1.1880   -0.5191 C   0  0  0  0  0  0  0  0  0  0  0  0
   93.2221   -2.3960   -0.9092 C   0  0  0  0  0  0  0  0  0  0  0  0
   92.2544   -3.2713   -1.2715 C   0  0  0  0  0  0  0  0  0  0  0  0
   91.0012   -2.5932   -1.1078 C   0  0  0  0  0  0  0  0  0  0  0  0
   91.1992   -1.3301   -0.6196 N   0  0  0  0  0  0  0  0  0  0  0  0
   89.7780   -3.1351   -1.4798 C   0  0  0  0  0  0  0  0  0  0  0  0
   89.7606   -4.5010   -2.0745 C   0  0  0  0  0  0  0  0  0  0  0  0
   89.9487   -4.6686   -3.4492 C   0  0  0  0  0  0  0  0  0  0  0  0
   90.1644   -3.4671   -4.3302 C   0  0  0  0  0  0  0  0  0  0  0  0
   89.9363   -5.9498   -3.9886 C   0  0  0  0  0  0  0  0  0  0  0  0
   89.7420   -7.0642   -3.1794 C   0  0  0  0  0  0  0  0  0  0  0  0
   89.7136   -8.4458   -3.7754 C   0  0  0  0  0  0  0  0  0  0  0  0
   89.5544   -6.8849   -1.8125 C   0  0  0  0  0  0  0  0  0  0  0  0
   89.5617   -5.6135   -1.2515 C   0  0  0  0  0  0  0  0  0  0  0  0
   89.3599   -5.4265    0.2286 C   0  0  0  0  0  0  0  0  0  0  0  0
   88.5760   -2.4635   -1.3270 C   0  0  0  0  0  0  0  0  0  0  0  0
   87.3111   -2.9938   -1.7407 C   0  0  0  0  0  0  0  0  0  0  0  0
   86.3682   -2.1026   -1.3500 C   0  0  0  0  0  0  0  0  0  0  0  0
   88.4060   -1.2463   -0.7115 N   0  0  0  0  0  0  0  0  0  0  0  0
   87.0592   -1.0348   -0.6954 C   0  0  0  0  0  0  0  0  0  0  0  0
   86.4063    0.0165   -0.0404 C   0  0  0  0  0  0  0  0  0  0  0  0
   87.0937    1.0498    0.6073 C   0  0  0  0  0  0  0  0  0  0  0  0
   86.4390    2.1211    1.2926 C   0  0  0  0  0  0  0  0  0  0  0  0
   87.4087    2.9846    1.6799 C   0  0  0  0  0  0  0  0  0  0  0  0
   88.6530    2.4369    1.2281 C   0  0  0  0  0  0  0  0  0  0  0  0
   88.4447    1.2330    0.5978 N   0  0  0  0  0  0  0  0  0  0  0  0
   89.8697    3.0872    1.3534 C   0  0  0  0  0  0  0  0  0  0  0  0
   89.8953    4.4420    1.9727 C   0  0  0  0  0  0  0  0  0  0  0  0
   89.6630    5.5722    1.1828 C   0  0  0  0  0  0  0  0  0  0  0  0
   89.3766    5.4163   -0.2870 C   0  0  0  0  0  0  0  0  0  0  0  0
   89.6988    6.8321    1.7673 C   0  0  0  0  0  0  0  0  0  0  0  0
   89.9607    6.9832    3.1260 C   0  0  0  0  0  0  0  0  0  0  0  0
   90.0130    8.3581    3.7356 C   0  0  0  0  0  0  0  0  0  0  0  0
   90.1878    5.8521    3.9018 C   0  0  0  0  0  0  0  0  0  0  0  0
   90.1580    4.5813    3.3380 C   0  0  0  0  0  0  0  0  0  0  0  0
   90.4060    3.3611    4.1842 C   0  0  0  0  0  0  0  0  0  0  0  0
   91.0706    2.5370    0.9244 C   0  0  0  0  0  0  0  0  0  0  0  0
   92.3361    3.2023    1.0379 C   0  0  0  0  0  0  0  0  0  0  0  0
   93.2775    2.3256    0.6150 C   0  0  0  0  0  0  0  0  0  0  0  0
   92.5857    1.1277    0.2428 C   0  0  0  0  0  0  0  0  0  0  0  0
   91.2340    1.2794    0.4104 N   0  0  0  0  0  0  0  0  0  0  0  0
   94.3025   -0.0359   -0.1826 H   0  0  0  0  0  0  0  0  0  0  0  0
   94.2916   -2.5350   -0.9033 H   0  0  0  0  0  0  0  0  0  0  0  0
   92.3605   -4.2839   -1.6262 H   0  0  0  0  0  0  0  0  0  0  0  0
   91.0781   -2.9447   -4.0400 H   0  0  0  0  0  0  0  0  0  0  0  0
   89.3333   -2.7670   -4.2277 H   0  0  0  0  0  0  0  0  0  0  0  0
   90.2482   -3.7611   -5.3760 H   0  0  0  0  0  0  0  0  0  0  0  0
   90.0832   -6.0801   -5.0558 H   0  0  0  0  0  0  0  0  0  0  0  0
   90.1181   -9.1780   -3.0760 H   0  0  0  0  0  0  0  0  0  0  0  0
   88.6842   -8.7303   -4.0057 H   0  0  0  0  0  0  0  0  0  0  0  0
   90.2912   -8.4833   -4.6992 H   0  0  0  0  0  0  0  0  0  0  0  0
   89.4027   -7.7489   -1.1738 H   0  0  0  0  0  0  0  0  0  0  0  0
   88.4516   -4.8506    0.4162 H   0  0  0  0  0  0  0  0  0  0  0  0
   89.2739   -6.3877    0.7344 H   0  0  0  0  0  0  0  0  0  0  0  0
   90.1982   -4.8763    0.6598 H   0  0  0  0  0  0  0  0  0  0  0  0
   87.1789   -3.9299   -2.2588 H   0  0  0  0  0  0  0  0  0  0  0  0
   85.2987   -2.1539   -1.4765 H   0  0  0  0  0  0  0  0  0  0  0  0
   85.3736    2.1920    1.4424 H   0  0  0  0  0  0  0  0  0  0  0  0
   87.3074    3.9133    2.2181 H   0  0  0  0  0  0  0  0  0  0  0  0
   90.1688    4.8418   -0.7703 H   0  0  0  0  0  0  0  0  0  0  0  0
   89.3004    6.3881   -0.7739 H   0  0  0  0  0  0  0  0  0  0  0  0
   88.4377    4.8785   -0.4333 H   0  0  0  0  0  0  0  0  0  0  0  0
   89.5206    7.7101    1.1550 H   0  0  0  0  0  0  0  0  0  0  0  0
   89.1833    8.9694    3.3780 H   0  0  0  0  0  0  0  0  0  0  0  0
   89.9680    8.3055    4.8234 H   0  0  0  0  0  0  0  0  0  0  0  0
   90.9436    8.8560    3.4541 H   0  0  0  0  0  0  0  0  0  0  0  0
   90.3912    5.9595    4.9623 H   0  0  0  0  0  0  0  0  0  0  0  0
   91.3074    2.8450    3.8478 H   0  0  0  0  0  0  0  0  0  0  0  0
   89.5711    2.6634    4.0988 H   0  0  0  0  0  0  0  0  0  0  0  0
   90.5309    3.6326    5.2320 H   0  0  0  0  0  0  0  0  0  0  0  0
   92.4680    4.2090    1.4009 H   0  0  0  0  0  0  0  0  0  0  0  0
   94.3466    2.4564    0.5587 H   0  0  0  0  0  0  0  0  0  0  0  0
   55.5583   -0.0255   -0.0461 C   0  0  0  0  0  0  0  0  0  0  0  0
   54.3346   -0.0191   -0.0452 C   0  0  0  0  0  0  0  0  0  0  0  0
   56.9056   -0.0274   -0.0477 C   0  0  0  0  0  0  0  0  0  0  0  0
   58.1295   -0.0336   -0.0475 C   0  0  0  0  0  0  0  0  0  0  0  0
   68.9947   -0.0058   -0.0270 C   0  0  0  0  0  0  0  0  0  0  0  0
   67.7692   -0.0096   -0.0329 C   0  0  0  0  0  0  0  0  0  0  0  0
   70.3387   -0.0044   -0.0214 C   0  0  0  0  0  0  0  0  0  0  0  0
   71.5642   -0.0060   -0.0160 C   0  0  0  0  0  0  0  0  0  0  0  0
   82.4329    0.0352   -0.0191 C   0  0  0  0  0  0  0  0  0  0  0  0
   81.2092    0.0297   -0.0168 C   0  0  0  0  0  0  0  0  0  0  0  0
   83.7804    0.0346   -0.0232 C   0  0  0  0  0  0  0  0  0  0  0  0
   85.0040    0.0300   -0.0289 C   0  0  0  0  0  0  0  0  0  0  0  0
   62.9506   -0.0453   -0.0360 Fe  0  0  0  0  0  0  0  0  0  0  0  0
   59.5305   -0.0402   -0.0430 C   0  0  0  0  0  0  0  0  0  0  0  0
   60.2017    0.3709    1.1164 C   0  0  0  0  0  0  0  0  0  0  0  0
   59.5327    0.7968    2.3057 C   0  0  0  0  0  0  0  0  0  0  0  0
   60.4889    0.9494    3.2550 C   0  0  0  0  0  0  0  0  0  0  0  0
   61.7373    0.6194    2.6370 C   0  0  0  0  0  0  0  0  0  0  0  0
   61.5487    0.3012    1.3153 N   0  0  0  0  0  0  0  0  0  0  0  0
   62.9426    0.5458    3.3221 C   0  0  0  0  0  0  0  0  0  0  0  0
   62.9354    0.7810    4.7928 C   0  0  0  0  0  0  0  0  0  0  0  0
   63.2049    2.0555    5.2996 C   0  0  0  0  0  0  0  0  0  0  0  0
   63.5017    3.1920    4.3580 C   0  0  0  0  0  0  0  0  0  0  0  0
   63.1949    2.2588    6.6745 C   0  0  0  0  0  0  0  0  0  0  0  0
   62.9217    1.2131    7.5502 C   0  0  0  0  0  0  0  0  0  0  0  0
   62.9356    1.4407    9.0376 C   0  0  0  0  0  0  0  0  0  0  0  0
   62.6560   -0.0510    7.0339 C   0  0  0  0  0  0  0  0  0  0  0  0
   62.6587   -0.2778    5.6628 C   0  0  0  0  0  0  0  0  0  0  0  0
   62.3663   -1.6476    5.1112 C   0  0  0  0  0  0  0  0  0  0  0  0
   64.1524    0.2633    2.7064 C   0  0  0  0  0  0  0  0  0  0  0  0
   65.4019    0.1892    3.4020 C   0  0  0  0  0  0  0  0  0  0  0  0
   66.3640    0.0408    2.4584 C   0  0  0  0  0  0  0  0  0  0  0  0
   64.3487    0.1229    1.3536 N   0  0  0  0  0  0  0  0  0  0  0  0
   65.6969    0.0192    1.1942 C   0  0  0  0  0  0  0  0  0  0  0  0
   66.3717   -0.0192   -0.0353 C   0  0  0  0  0  0  0  0  0  0  0  0
   65.6985   -0.0737   -1.2651 C   0  0  0  0  0  0  0  0  0  0  0  0
   66.3671   -0.0998   -2.5284 C   0  0  0  0  0  0  0  0  0  0  0  0
   65.4089   -0.2818   -3.4703 C   0  0  0  0  0  0  0  0  0  0  0  0
   64.1602   -0.3672   -2.7748 C   0  0  0  0  0  0  0  0  0  0  0  0
   64.3525   -0.2032   -1.4241 N   0  0  0  0  0  0  0  0  0  0  0  0
   62.9545   -0.6726   -3.3878 C   0  0  0  0  0  0  0  0  0  0  0  0
   62.9507   -0.9359   -4.8538 C   0  0  0  0  0  0  0  0  0  0  0  0
   62.6601    0.1013   -5.7450 C   0  0  0  0  0  0  0  0  0  0  0  0
   62.3550    1.4796   -5.2221 C   0  0  0  0  0  0  0  0  0  0  0  0
   62.6540   -0.1550   -7.1110 C   0  0  0  0  0  0  0  0  0  0  0  0
   62.9298   -1.4273   -7.6012 C   0  0  0  0  0  0  0  0  0  0  0  0
   62.9363   -1.6875   -9.0833 C   0  0  0  0  0  0  0  0  0  0  0  0
   63.2189   -2.4508   -6.7046 C   0  0  0  0  0  0  0  0  0  0  0  0
   63.2326   -2.2178   -5.3344 C   0  0  0  0  0  0  0  0  0  0  0  0
   63.5449   -3.3306   -4.3698 C   0  0  0  0  0  0  0  0  0  0  0  0
   61.7474   -0.7399   -2.7051 C   0  0  0  0  0  0  0  0  0  0  0  0
   60.5008   -1.0752   -3.3241 C   0  0  0  0  0  0  0  0  0  0  0  0
   59.5401   -0.9007   -2.3832 C   0  0  0  0  0  0  0  0  0  0  0  0
   60.2051   -0.4612   -1.1968 C   0  0  0  0  0  0  0  0  0  0  0  0
   61.5533   -0.4006   -1.3894 N   0  0  0  0  0  0  0  0  0  0  0  0
   58.4680    0.9430    2.3915 H   0  0  0  0  0  0  0  0  0  0  0  0
   60.3738    1.2516    4.2834 H   0  0  0  0  0  0  0  0  0  0  0  0
   64.4223    2.9941    3.8055 H   0  0  0  0  0  0  0  0  0  0  0  0
   63.6175    4.1284    4.9029 H   0  0  0  0  0  0  0  0  0  0  0  0
   62.6947    3.3052    3.6320 H   0  0  0  0  0  0  0  0  0  0  0  0
   63.4020    3.2486    7.0682 H   0  0  0  0  0  0  0  0  0  0  0  0
   63.9391    1.2625    9.4311 H   0  0  0  0  0  0  0  0  0  0  0  0
   62.2486    0.7601    9.5412 H   0  0  0  0  0  0  0  0  0  0  0  0
   62.6551    2.4667    9.2766 H   0  0  0  0  0  0  0  0  0  0  0  0
   62.4420   -0.8728    7.7095 H   0  0  0  0  0  0  0  0  0  0  0  0
   61.4493   -1.6283    4.5189 H   0  0  0  0  0  0  0  0  0  0  0  0
   63.1775   -1.9765    4.4593 H   0  0  0  0  0  0  0  0  0  0  0  0
   62.2459   -2.3731    5.9151 H   0  0  0  0  0  0  0  0  0  0  0  0
   65.5132    0.2521    4.4724 H   0  0  0  0  0  0  0  0  0  0  0  0
   67.4308   -0.0421    2.5906 H   0  0  0  0  0  0  0  0  0  0  0  0
   67.4323    0.0011   -2.6609 H   0  0  0  0  0  0  0  0  0  0  0  0
   65.5225   -0.3596   -4.5395 H   0  0  0  0  0  0  0  0  0  0  0  0
   61.4360    1.4648   -4.6327 H   0  0  0  0  0  0  0  0  0  0  0  0
   62.2316    2.1877   -6.0409 H   0  0  0  0  0  0  0  0  0  0  0  0
   63.1611    1.8281   -4.5742 H   0  0  0  0  0  0  0  0  0  0  0  0
   62.4283    0.6497   -7.8030 H   0  0  0  0  0  0  0  0  0  0  0  0
   62.6631   -2.7210   -9.2976 H   0  0  0  0  0  0  0  0  0  0  0  0
   63.9357   -1.5097   -9.4874 H   0  0  0  0  0  0  0  0  0  0  0  0
   62.2402   -1.0242   -9.5971 H   0  0  0  0  0  0  0  0  0  0  0  0
   63.4345   -3.4466   -7.0779 H   0  0  0  0  0  0  0  0  0  0  0  0
   63.6661   -4.2778   -4.8946 H   0  0  0  0  0  0  0  0  0  0  0  0
   62.7433   -3.4348   -3.6366 H   0  0  0  0  0  0  0  0  0  0  0  0
   64.4669   -3.1122   -3.8273 H   0  0  0  0  0  0  0  0  0  0  0  0
   60.3897   -1.3945   -4.3477 H   0  0  0  0  0  0  0  0  0  0  0  0
   58.4751   -1.0432   -2.4724 H   0  0  0  0  0  0  0  0  0  0  0  0
   76.3854   -0.0119   -0.0120 Fe  0  0  0  0  0  0  0  0  0  0  0  0
   72.9618   -0.0098   -0.0139 C   0  0  0  0  0  0  0  0  0  0  0  0
   73.6343    0.0237    1.2169 C   0  0  0  0  0  0  0  0  0  0  0  0
   72.9630    0.0347    2.4791 C   0  0  0  0  0  0  0  0  0  0  0  0
   73.9230    0.1639    3.4275 C   0  0  0  0  0  0  0  0  0  0  0  0
   75.1753    0.2371    2.7368 C   0  0  0  0  0  0  0  0  0  0  0  0
   74.9824    0.1195    1.3812 N   0  0  0  0  0  0  0  0  0  0  0  0
   76.3860    0.4894    3.3632 C   0  0  0  0  0  0  0  0  0  0  0  0
   76.3930    0.6871    4.8395 C   0  0  0  0  0  0  0  0  0  0  0  0
   76.1784    1.9593    5.3759 C   0  0  0  0  0  0  0  0  0  0  0  0
   75.9349    3.1295    4.4609 C   0  0  0  0  0  0  0  0  0  0  0  0
   76.1924    2.1292    6.7560 C   0  0  0  0  0  0  0  0  0  0  0  0
   76.4142    1.0520    7.6064 C   0  0  0  0  0  0  0  0  0  0  0  0
   76.4439    1.2426    9.0987 C   0  0  0  0  0  0  0  0  0  0  0  0
   76.6254   -0.2107    7.0601 C   0  0  0  0  0  0  0  0  0  0  0  0
   76.6176   -0.4042    5.6845 C   0  0  0  0  0  0  0  0  0  0  0  0
   76.8485   -1.7722    5.1001 C   0  0  0  0  0  0  0  0  0  0  0  0
   77.5947    0.5693    2.6848 C   0  0  0  0  0  0  0  0  0  0  0  0
   78.8429    0.8683    3.3191 C   0  0  0  0  0  0  0  0  0  0  0  0
   79.8009    0.7497    2.3671 C   0  0  0  0  0  0  0  0  0  0  0  0
   77.7857    0.2987    1.3529 N   0  0  0  0  0  0  0  0  0  0  0  0
   79.1334    0.3742    1.1602 C   0  0  0  0  0  0  0  0  0  0  0  0
   79.8078    0.0180   -0.0149 C   0  0  0  0  0  0  0  0  0  0  0  0
   79.1381   -0.3555   -1.1875 C   0  0  0  0  0  0  0  0  0  0  0  0
   79.8102   -0.7311   -2.3918 C   0  0  0  0  0  0  0  0  0  0  0  0
   78.8521   -0.8837   -3.3389 C   0  0  0  0  0  0  0  0  0  0  0  0
   77.5999   -0.6017   -2.7051 C   0  0  0  0  0  0  0  0  0  0  0  0
   77.7888   -0.3101   -1.3772 N   0  0  0  0  0  0  0  0  0  0  0  0
   76.3892   -0.5475   -3.3821 C   0  0  0  0  0  0  0  0  0  0  0  0
   76.3936   -0.7671   -4.8554 C   0  0  0  0  0  0  0  0  0  0  0  0
   76.5861    0.3164   -5.7181 C   0  0  0  0  0  0  0  0  0  0  0  0
   76.7911    1.6976   -5.1556 C   0  0  0  0  0  0  0  0  0  0  0  0
   76.5847    0.1031   -7.0908 C   0  0  0  0  0  0  0  0  0  0  0  0
   76.3953   -1.1716   -7.6168 C   0  0  0  0  0  0  0  0  0  0  0  0
   76.4118   -1.3833   -9.1065 C   0  0  0  0  0  0  0  0  0  0  0  0
   76.2072   -2.2413   -6.7488 C   0  0  0  0  0  0  0  0  0  0  0  0
   76.2034   -2.0517   -5.3713 C   0  0  0  0  0  0  0  0  0  0  0  0
   75.9961   -3.2135   -4.4368 C   0  0  0  0  0  0  0  0  0  0  0  0
   75.1773   -0.2933   -2.7587 C   0  0  0  0  0  0  0  0  0  0  0  0
   73.9256   -0.2293   -3.4510 C   0  0  0  0  0  0  0  0  0  0  0  0
   72.9656   -0.0795   -2.5057 C   0  0  0  0  0  0  0  0  0  0  0  0
   73.6360   -0.0526   -1.2433 C   0  0  0  0  0  0  0  0  0  0  0  0
   74.9841   -0.1550   -1.4052 N   0  0  0  0  0  0  0  0  0  0  0  0
   71.8952   -0.0425    2.6067 H   0  0  0  0  0  0  0  0  0  0  0  0
   73.8087    0.2151    4.4982 H   0  0  0  0  0  0  0  0  0  0  0  0
   76.7636    3.2422    3.7596 H   0  0  0  0  0  0  0  0  0  0  0  0
   75.8290    4.0527    5.0296 H   0  0  0  0  0  0  0  0  0  0  0  0
   75.0248    2.9714    3.8788 H   0  0  0  0  0  0  0  0  0  0  0  0
   76.0262    3.1174    7.1721 H   0  0  0  0  0  0  0  0  0  0  0  0
   77.4744    1.2062    9.4591 H   0  0  0  0  0  0  0  0  0  0  0  0
   75.8847    0.4507    9.5987 H   0  0  0  0  0  0  0  0  0  0  0  0
   76.0167    2.2055    9.3785 H   0  0  0  0  0  0  0  0  0  0  0  0
   76.7988   -1.0567    7.7171 H   0  0  0  0  0  0  0  0  0  0  0  0
   76.0105   -2.0594    4.4624 H   0  0  0  0  0  0  0  0  0  0  0  0
   77.7509   -1.7735    4.4856 H   0  0  0  0  0  0  0  0  0  0  0  0
   76.9614   -2.5174    5.8869 H   0  0  0  0  0  0  0  0  0  0  0  0
   78.9564    1.1282    4.3591 H   0  0  0  0  0  0  0  0  0  0  0  0
   80.8659    0.8889    2.4610 H   0  0  0  0  0  0  0  0  0  0  0  0
   80.8776   -0.8485   -2.4875 H   0  0  0  0  0  0  0  0  0  0  0  0
   78.9682   -1.1549   -4.3758 H   0  0  0  0  0  0  0  0  0  0  0  0
   75.9424    1.9832   -4.5314 H   0  0  0  0  0  0  0  0  0  0  0  0
   76.9004    2.4307   -5.9543 H   0  0  0  0  0  0  0  0  0  0  0  0
   77.6870    1.7232   -4.5324 H   0  0  0  0  0  0  0  0  0  0  0  0
   76.7319    0.9432   -7.7615 H   0  0  0  0  0  0  0  0  0  0  0  0
   75.9837   -2.3508   -9.3685 H   0  0  0  0  0  0  0  0  0  0  0  0
   77.4389   -1.3507   -9.4766 H   0  0  0  0  0  0  0  0  0  0  0  0
   75.8470   -0.5994   -9.6127 H   0  0  0  0  0  0  0  0  0  0  0  0
   76.0592   -3.2389   -7.1490 H   0  0  0  0  0  0  0  0  0  0  0  0
   75.8882   -4.1449   -4.9917 H   0  0  0  0  0  0  0  0  0  0  0  0
   75.0988   -3.0592   -3.8345 H   0  0  0  0  0  0  0  0  0  0  0  0
   76.8432   -3.3077   -3.7549 H   0  0  0  0  0  0  0  0  0  0  0  0
   73.8114   -0.2993   -4.5207 H   0  0  0  0  0  0  0  0  0  0  0  0
   71.8981   -0.0014   -2.6353 H   0  0  0  0  0  0  0  0  0  0  0  0
  2  3  4  0  0  0  0
  3  4  4  0  0  0  0
  4  5  2  0  0  0  0
  5  6  4  0  0  0  0
  1  7  1  0  0  0  0
  3  7  4  0  0  0  0
  6  7  4  0  0  0  0
  6  8  4  0  0  0  0
  8  9  1  0  0  0  0
  9 10  4  0  0  0  0
 10 11  1  0  0  0  0
 10 12  4  0  0  0  0
 12 13  4  0  0  0  0
 13 14  1  0  0  0  0
 13 15  4  0  0  0  0
  9 16  4  0  0  0  0
 15 16  4  0  0  0  0
 16 17  1  0  0  0  0
  8 18  4  0  0  0  0
 18 19  4  0  0  0  0
 19 20  2  0  0  0  0
  1 21  1  0  0  0  0
 18 21  4  0  0  0  0
 20 22  4  0  0  0  0
 21 22  4  0  0  0  0
 22 23  4  0  0  0  0
 23 24  4  0  0  0  0
 24 25  4  0  0  0  0
 25 26  2  0  0  0  0
 26 27  4  0  0  0  0
  1 28  1  0  0  0  0
 24 28  4  0  0  0  0
 27 28  4  0  0  0  0
 27 29  4  0  0  0  0
 29 30  1  0  0  0  0
 30 31  4  0  0  0  0
 31 32  1  0  0  0  0
 31 33  4  0  0  0  0
 33 34  4  0  0  0  0
 34 35  1  0  0  0  0
 34 36  4  0  0  0  0
 30 37  4  0  0  0  0
 36 37  4  0  0  0  0
 37 38  1  0  0  0  0
 29 39  4  0  0  0  0
 39 40  4  0  0  0  0
 40 41  2  0  0  0  0
  2 42  4  0  0  0  0
 41 42  4  0  0  0  0
  1 43  1  0  0  0  0
 39 43  4  0  0  0  0
 42 43  4  0  0  0  0
  2 44  1  0  0  0  0
  4 45  1  0  0  0  0
  5 46  1  0  0  0  0
 11 47  1  0  0  0  0
 11 48  1  0  0  0  0
 11 49  1  0  0  0  0
 12 50  1  0  0  0  0
 14 51  1  0  0  0  0
 14 52  1  0  0  0  0
 14 53  1  0  0  0  0
 15 54  1  0  0  0  0
 17 55  1  0  0  0  0
 17 56  1  0  0  0  0
 17 57  1  0  0  0  0
 19 58  1  0  0  0  0
 20 59  1  0  0  0  0
 25 60  1  0  0  0  0
 26 61  1  0  0  0  0
 32 62  1  0  0  0  0
 32 63  1  0  0  0  0
 32 64  1  0  0  0  0
 33 65  1  0  0  0  0
 35 66  1  0  0  0  0
 35 67  1  0  0  0  0
 35 68  1  0  0  0  0
 36 69  1  0  0  0  0
 38 70  1  0  0  0  0
 38 71  1  0  0  0  0
 38 72  1  0  0  0  0
 40 73  1  0  0  0  0
 41 74  1  0  0  0  0
 76 77  4  0  0  0  0
 77 78  4  0  0  0  0
 78 79  2  0  0  0  0
 79 80  4  0  0  0  0
 75 81  1  0  0  0  0
 77 81  4  0  0  0  0
 80 81  4  0  0  0  0
 80 82  4  0  0  0  0
 82 83  1  0  0  0  0
 83 84  4  0  0  0  0
 84 85  1  0  0  0  0
 84 86  4  0  0  0  0
 86 87  4  0  0  0  0
 87 88  1  0  0  0  0
 87 89  4  0  0  0  0
 83 90  4  0  0  0  0
 89 90  4  0  0  0  0
 90 91  1  0  0  0  0
 82 92  4  0  0  0  0
 92 93  4  0  0  0  0
 93 94  2  0  0  0  0
 75 95  1  0  0  0  0
 92 95  4  0  0  0  0
 94 96  4  0  0  0  0
 95 96  4  0  0  0  0
 96 97  4  0  0  0  0
 97 98  4  0  0  0  0
 98 99  4  0  0  0  0
 99100  2  0  0  0  0
100101  4  0  0  0  0
 75102  1  0  0  0  0
 98102  4  0  0  0  0
101102  4  0  0  0  0
101103  4  0  0  0  0
103104  1  0  0  0  0
104105  4  0  0  0  0
105106  1  0  0  0  0
105107  4  0  0  0  0
107108  4  0  0  0  0
108109  1  0  0  0  0
108110  4  0  0  0  0
104111  4  0  0  0  0
110111  4  0  0  0  0
111112  1  0  0  0  0
103113  4  0  0  0  0
113114  4  0  0  0  0
114115  2  0  0  0  0
 76116  4  0  0  0  0
115116  4  0  0  0  0
 75117  1  0  0  0  0
113117  4  0  0  0  0
116117  4  0  0  0  0
 76118  1  0  0  0  0
 78119  1  0  0  0  0
 79120  1  0  0  0  0
 85121  1  0  0  0  0
 85122  1  0  0  0  0
 85123  1  0  0  0  0
 86124  1  0  0  0  0
 88125  1  0  0  0  0
 88126  1  0  0  0  0
 88127  1  0  0  0  0
 89128  1  0  0  0  0
 91129  1  0  0  0  0
 91130  1  0  0  0  0
 91131  1  0  0  0  0
 93132  1  0  0  0  0
 94133  1  0  0  0  0
 99134  1  0  0  0  0
100135  1  0  0  0  0
106136  1  0  0  0  0
106137  1  0  0  0  0
106138  1  0  0  0  0
107139  1  0  0  0  0
109140  1  0  0  0  0
109141  1  0  0  0  0
109142  1  0  0  0  0
110143  1  0  0  0  0
112144  1  0  0  0  0
112145  1  0  0  0  0
112146  1  0  0  0  0
114147  1  0  0  0  0
115148  1  0  0  0  0
 23150  4  0  0  0  0
149150  3  0  0  0  0
149151  4  0  0  0  0
151152  3  0  0  0  0
153154  3  0  0  0  0
153155  4  0  0  0  0
155156  3  0  0  0  0
157158  3  0  0  0  0
157159  4  0  0  0  0
 97160  4  0  0  0  0
159160  3  0  0  0  0
152162  4  0  0  0  0
162163  4  0  0  0  0
163164  4  0  0  0  0
164165  2  0  0  0  0
165166  4  0  0  0  0
161167  1  0  0  0  0
163167  4  0  0  0  0
166167  4  0  0  0  0
166168  4  0  0  0  0
168169  1  0  0  0  0
169170  4  0  0  0  0
170171  1  0  0  0  0
170172  4  0  0  0  0
172173  4  0  0  0  0
173174  1  0  0  0  0
173175  4  0  0  0  0
169176  4  0  0  0  0
175176  4  0  0  0  0
176177  1  0  0  0  0
168178  4  0  0  0  0
178179  4  0  0  0  0
179180  2  0  0  0  0
161181  1  0  0  0  0
178181  4  0  0  0  0
180182  4  0  0  0  0
181182  4  0  0  0  0
154183  4  0  0  0  0
182183  4  0  0  0  0
183184  4  0  0  0  0
184185  4  0  0  0  0
185186  2  0  0  0  0
186187  4  0  0  0  0
161188  1  0  0  0  0
184188  4  0  0  0  0
187188  4  0  0  0  0
187189  4  0  0  0  0
189190  1  0  0  0  0
190191  4  0  0  0  0
191192  1  0  0  0  0
191193  4  0  0  0  0
193194  4  0  0  0  0
194195  1  0  0  0  0
194196  4  0  0  0  0
190197  4  0  0  0  0
196197  4  0  0  0  0
197198  1  0  0  0  0
189199  4  0  0  0  0
199200  4  0  0  0  0
200201  2  0  0  0  0
162202  4  0  0  0  0
201202  4  0  0  0  0
161203  1  0  0  0  0
199203  4  0  0  0  0
202203  4  0  0  0  0
164204  1  0  0  0  0
165205  1  0  0  0  0
171206  1  0  0  0  0
171207  1  0  0  0  0
171208  1  0  0  0  0
172209  1  0  0  0  0
174210  1  0  0  0  0
174211  1  0  0  0  0
174212  1  0  0  0  0
175213  1  0  0  0  0
177214  1  0  0  0  0
177215  1  0  0  0  0
177216  1  0  0  0  0
179217  1  0  0  0  0
180218  1  0  0  0  0
185219  1  0  0  0  0
186220  1  0  0  0  0
192221  1  0  0  0  0
192222  1  0  0  0  0
192223  1  0  0  0  0
193224  1  0  0  0  0
195225  1  0  0  0  0
195226  1  0  0  0  0
195227  1  0  0  0  0
196228  1  0  0  0  0
198229  1  0  0  0  0
198230  1  0  0  0  0
198231  1  0  0  0  0
200232  1  0  0  0  0
201233  1  0  0  0  0
156235  4  0  0  0  0
235236  4  0  0  0  0
236237  4  0  0  0  0
237238  2  0  0  0  0
238239  4  0  0  0  0
234240  1  0  0  0  0
236240  4  0  0  0  0
239240  4  0  0  0  0
239241  4  0  0  0  0
241242  1  0  0  0  0
242243  4  0  0  0  0
243244  1  0  0  0  0
243245  4  0  0  0  0
245246  4  0  0  0  0
246247  1  0  0  0  0
246248  4  0  0  0  0
242249  4  0  0  0  0
248249  4  0  0  0  0
249250  1  0  0  0  0
241251  4  0  0  0  0
251252  4  0  0  0  0
252253  2  0  0  0  0
234254  1  0  0  0  0
251254  4  0  0  0  0
253255  4  0  0  0  0
254255  4  0  0  0  0
158256  4  0  0  0  0
255256  4  0  0  0  0
256257  4  0  0  0  0
257258  4  0  0  0  0
258259  2  0  0  0  0
259260  4  0  0  0  0
234261  1  0  0  0  0
257261  4  0  0  0  0
260261  4  0  0  0  0
260262  4  0  0  0  0
262263  1  0  0  0  0
263264  4  0  0  0  0
264265  1  0  0  0  0
264266  4  0  0  0  0
266267  4  0  0  0  0
267268  1  0  0  0  0
267269  4  0  0  0  0
263270  4  0  0  0  0
269270  4  0  0  0  0
270271  1  0  0  0  0
262272  4  0  0  0  0
272273  4  0  0  0  0
273274  2  0  0  0  0
235275  4  0  0  0  0
274275  4  0  0  0  0
234276  1  0  0  0  0
272276  4  0  0  0  0
275276  4  0  0  0  0
237277  1  0  0  0  0
238278  1  0  0  0  0
244279  1  0  0  0  0
244280  1  0  0  0  0
244281  1  0  0  0  0
245282  1  0  0  0  0
247283  1  0  0  0  0
247284  1  0  0  0  0
247285  1  0  0  0  0
248286  1  0  0  0  0
250287  1  0  0  0  0
250288  1  0  0  0  0
250289  1  0  0  0  0
252290  1  0  0  0  0
253291  1  0  0  0  0
258292  1  0  0  0  0
259293  1  0  0  0  0
265294  1  0  0  0  0
265295  1  0  0  0  0
265296  1  0  0  0  0
266297  1  0  0  0  0
268298  1  0  0  0  0
268299  1  0  0  0  0
268300  1  0  0  0  0
269301  1  0  0  0  0
271302  1  0  0  0  0
271303  1  0  0  0  0
271304  1  0  0  0  0
273305  1  0  0  0  0
274306  1  0  0  0  0
M  END
