158

C 10.522391 0.003808 0.010513
C 11.247579 -1.374962 0.053696
C 10.629935 -2.600859 0.147324
C 11.651859 -3.583761 0.118468
C 12.860240 -2.923968 0.007975
N 12.603195 -1.576427 0.000251
C 14.293962 -3.594051 -0.113751
C 14.346041 -5.079934 -0.261238
C 14.275400 -5.672191 -1.543395
C 14.165231 -4.826271 -2.785184
C 14.313769 -7.071393 -1.662704
C 14.428299 -7.890435 -0.534369
C 14.432449 -9.381857 -0.676777
C 14.481842 -7.299663 0.732512
C 14.447336 -5.903658 0.884187
C 14.516978 -5.306976 2.265781
C 15.420225 -2.829468 -0.110746
C 16.733134 -3.418899 -0.271503
C 17.634613 -2.444931 -0.255750
N 15.609801 -1.477052 0.014758
C 16.946908 -1.181851 -0.067286
C 17.618585 -0.000791 -0.000553
C 16.846579 1.367150 0.248866
C 17.416985 2.557455 0.658118
C 16.389527 3.529446 0.716434
C 15.214890 2.905748 0.354613
N 15.495832 1.581967 0.104520
C 13.787467 3.597443 0.249916
C 13.730018 5.088582 0.244003
C 13.865192 5.798442 -0.971152
C 14.061376 5.072306 -2.276406
C 13.805720 7.202074 -0.963817
C 13.624280 7.911670 0.227897
C 13.520441 9.406343 0.216374
C 13.480323 7.203618 1.425833
C 13.540906 5.800448 1.451608
C 13.375011 5.078018 2.762990
C 12.668077 2.832222 0.157900
C 11.338744 3.408050 0.053627
C 10.456940 2.415433 -0.005055
C 11.187596 1.173123 0.051528
N 12.511418 1.473834 0.140636
H 9.441333 0.004640 -0.064275
H 9.566630 -2.769018 0.217131
H 11.521080 -4.654404 0.159321
H 13.308657 -0.843343 -0.034700
H 13.263863 -4.206771 -2.753708
H 14.096949 -5.447994 -3.684664
H 15.048485 -4.190428 -2.897848
H 14.255237 -7.521780 -2.650439
H 13.407840 -9.764487 -0.643104
H 14.891112 -9.683153 -1.624331
H 15.011391 -9.850365 0.126050
H 14.553156 -7.928590 1.616325
H 13.615768 -4.724550 2.480511
H 14.587656 -6.086845 3.031924
H 15.401842 -4.671563 2.369224
H 16.949621 -4.465356 -0.392614
H 18.693643 -2.595267 -0.357445
H 18.460230 2.719622 0.882085
H 16.494787 4.569214 0.988561
H 14.801225 0.872732 -0.117800
H 14.145219 5.774869 -3.112852
H 14.983717 4.483672 -2.257203
H 13.208524 4.419391 -2.486751
H 13.898565 7.742052 -1.902731
H 13.963665 9.833459 1.121475
H 12.470220 9.708016 0.160910
H 14.053886 9.832437 -0.639259
H 13.316437 7.745631 2.353772
H 13.357387 5.781541 3.602815
H 12.431790 4.523818 2.779964
H 14.209612 4.393372 2.940733
H 11.105186 4.457417 0.030509
H 9.389806 2.514938 -0.083721
C 36.268608 -0.004821 0.010732
C 35.543421 1.374362 -0.016221
C 36.161064 2.603433 0.014975
C 35.139141 3.583598 -0.063803
C 33.930759 2.919041 -0.140617
N 34.187804 1.572850 -0.079838
C 32.497038 3.582071 -0.296245
C 32.444958 5.058537 -0.519066
C 32.515600 5.584858 -1.829669
C 32.625769 4.676914 -3.026856
C 32.477230 6.976187 -2.019943
C 32.362701 7.851522 -0.934697
C 32.358550 9.333778 -1.152727
C 32.309158 7.325908 0.360574
C 32.343663 5.939416 0.583010
C 32.274021 5.413730 1.993146
C 31.370775 2.818629 -0.254381
C 30.057865 3.399127 -0.444889
C 29.156386 2.427219 -0.379652
N 31.181198 1.474340 -0.060298
C 29.844091 1.175351 -0.127231
C 29.172414 -0.000791 -0.000553
C 29.944420 -1.354286 0.318074
C 29.374014 -2.522250 0.787298
C 30.401473 -3.490021 0.894944
C 31.576109 -2.885520 0.501889
N 31.295168 -1.576162 0.184833
C 33.003532 -3.581643 0.432485
C 33.060981 -5.071154 0.502371
C 32.925807 -5.841861 -0.675131
C 32.729624 -5.183008 -2.015607
C 32.985279 -7.243307 -0.596462
C 33.166719 -7.891412 0.629780
C 33.270559 -9.384739 0.694243
C 33.310676 -7.123386 1.790178
C 33.250093 -5.720720 1.744598
C 33.415988 -4.932568 3.017566
C 34.122922 -2.822088 0.301693
C 35.452256 -3.402471 0.226823
C 36.334059 -2.414121 0.117764
C 35.603404 -1.170540 0.111129
N 34.279582 -1.466334 0.215406
H 37.349667 -0.009453 -0.063917
H 37.224370 2.774923 0.076145
H 35.269919 4.654933 -0.077422
H 33.482342 0.838936 -0.077481
H 33.527136 4.059815 -2.963932
H 32.694051 5.252114 -3.956774
H 31.742514 4.036166 -3.107056
H 32.535762 7.375787 -3.029293
H 33.383159 9.717624 -1.138547
H 31.899887 9.586521 -2.114371
H 31.779608 9.842487 -0.374752
H 32.237844 7.998945 1.211278
H 33.175232 4.842971 2.237203
H 32.203343 6.231533 2.718660
H 31.389157 4.784395 2.128753
H 29.841379 4.438076 -0.619034
H 28.097356 2.572192 -0.488857
H 28.330770 -2.672824 1.019218
H 30.296212 -4.514613 1.219568
H 31.989775 -0.879144 -0.073248
H 32.645781 -5.927178 -2.815262
H 31.807282 -4.594159 -2.026347
H 33.582476 -4.541629 -2.258866
H 32.892434 -7.830310 -1.506716
H 32.827334 -9.765298 1.619884
H 34.320779 -9.688842 0.654185
H 32.737113 -9.853773 -0.138626
H 33.474562 -7.617533 2.744467
H 33.433612 -5.592495 3.892065
H 34.359209 -4.378222 3.006348
H 32.581387 -4.239772 3.160279
H 35.685813 -4.451658 0.257072
H 37.401193 -2.517495 0.044257
C 18.895136 0.014828 0.010373
C 20.353363 -0.007008 -0.007501
C 21.487291 -0.027762 -0.008992
C 22.848672 -0.040352 -0.011183
C 24.122891 -0.030045 -0.015948
C 25.311354 -0.011247 -0.022104
C 26.663714 0.013537 -0.006236
C 27.763982 0.014828 0.010373
