 xtb: 6.5.1 (b24c23e)
          07292223093D

177206  0     0  0            999 V2000
   35.2707    0.1231    0.2293 Co  0  0  0  0  0  0  0  0  0  0  0  0
   32.1183    0.8781   -0.5917 C   0  0  0  0  0  0  0  0  0  0  0  0
   32.8755    1.8514    0.0300 C   0  0  0  0  0  0  0  0  0  0  0  0
   32.3782    3.1351    0.4219 C   0  0  0  0  0  0  0  0  0  0  0  0
   33.3501    3.7180    1.1669 C   0  0  0  0  0  0  0  0  0  0  0  0
   34.4627    2.8181    1.1683 C   0  0  0  0  0  0  0  0  0  0  0  0
   34.1572    1.6760    0.4885 N   0  0  0  0  0  0  0  0  0  0  0  0
   35.7350    3.1497    1.6457 C   0  0  0  0  0  0  0  0  0  0  0  0
   35.9065    4.3432    2.3758 C   0  0  0  0  0  0  0  0  0  0  0  0
   36.0493    5.3537    3.0325 C   0  0  0  0  0  0  0  0  0  0  0  0
   36.2142    6.5343    3.7924 C   0  0  0  0  0  0  0  0  0  0  0  0
   37.4744    6.9288    4.2569 C   0  0  0  0  0  0  0  0  0  0  0  0
   37.5812    8.0925    4.9974 C   0  0  0  0  0  0  0  0  0  0  0  0
   36.5385    8.8639    5.2944 N   0  0  0  0  0  0  0  0  0  0  0  0
   35.3371    8.4955    4.8570 C   0  0  0  0  0  0  0  0  0  0  0  0
   35.1226    7.3511    4.1096 C   0  0  0  0  0  0  0  0  0  0  0  0
   36.8562    2.3959    1.2948 C   0  0  0  0  0  0  0  0  0  0  0  0
   38.2022    2.8626    1.4045 C   0  0  0  0  0  0  0  0  0  0  0  0
   38.9858    1.9374    0.7941 C   0  0  0  0  0  0  0  0  0  0  0  0
   36.8218    1.1766    0.6732 N   0  0  0  0  0  0  0  0  0  0  0  0
   38.1217    0.8773    0.3795 C   0  0  0  0  0  0  0  0  0  0  0  0
   38.5792   -0.3694   -0.0668 C   0  0  0  0  0  0  0  0  0  0  0  0
   37.7348   -1.4873   -0.0842 C   0  0  0  0  0  0  0  0  0  0  0  0
   38.1933   -2.8378   -0.1585 C   0  0  0  0  0  0  0  0  0  0  0  0
   37.1002   -3.6298   -0.0181 C   0  0  0  0  0  0  0  0  0  0  0  0
   35.9719   -2.7572    0.0739 C   0  0  0  0  0  0  0  0  0  0  0  0
   36.3782   -1.4484    0.0633 N   0  0  0  0  0  0  0  0  0  0  0  0
   34.6470   -3.1859   -0.0117 C   0  0  0  0  0  0  0  0  0  0  0  0
   34.3667   -4.5677    0.0045 C   0  0  0  0  0  0  0  0  0  0  0  0
   34.1195   -5.7556    0.0265 C   0  0  0  0  0  0  0  0  0  0  0  0
   33.8390   -7.1410    0.0386 C   0  0  0  0  0  0  0  0  0  0  0  0
   34.8606   -8.0846    0.1986 C   0  0  0  0  0  0  0  0  0  0  0  0
   34.5367   -9.4295    0.1980 C   0  0  0  0  0  0  0  0  0  0  0  0
   33.2924   -9.8777    0.0517 N   0  0  0  0  0  0  0  0  0  0  0  0
   32.3155   -8.9872   -0.1003 C   0  0  0  0  0  0  0  0  0  0  0  0
   32.5329   -7.6208   -0.1139 C   0  0  0  0  0  0  0  0  0  0  0  0
   33.6055   -2.2853   -0.2612 C   0  0  0  0  0  0  0  0  0  0  0  0
   32.2995   -2.6710   -0.7008 C   0  0  0  0  0  0  0  0  0  0  0  0
   31.6299   -1.5268   -0.9859 C   0  0  0  0  0  0  0  0  0  0  0  0
   32.5078   -0.4447   -0.6567 C   0  0  0  0  0  0  0  0  0  0  0  0
   33.7229   -0.9278   -0.2362 N   0  0  0  0  0  0  0  0  0  0  0  0
   31.1216    1.1383   -0.9287 H   0  0  0  0  0  0  0  0  0  0  0  0
   31.3978    3.5123    0.1780 H   0  0  0  0  0  0  0  0  0  0  0  0
   33.3442    4.6837    1.6467 H   0  0  0  0  0  0  0  0  0  0  0  0
   38.3499    6.3294    4.0384 H   0  0  0  0  0  0  0  0  0  0  0  0
   38.5463    8.4222    5.3712 H   0  0  0  0  0  0  0  0  0  0  0  0
   34.5086    9.1480    5.1173 H   0  0  0  0  0  0  0  0  0  0  0  0
   34.1270    7.0881    3.7734 H   0  0  0  0  0  0  0  0  0  0  0  0
   38.4921    3.7958    1.8601 H   0  0  0  0  0  0  0  0  0  0  0  0
   40.0567    1.9414    0.6690 H   0  0  0  0  0  0  0  0  0  0  0  0
   39.2249   -3.1301   -0.2701 H   0  0  0  0  0  0  0  0  0  0  0  0
   37.0444   -4.7066   -0.0139 H   0  0  0  0  0  0  0  0  0  0  0  0
   35.8878   -7.7624    0.3197 H   0  0  0  0  0  0  0  0  0  0  0  0
   35.3093  -10.1834    0.3192 H   0  0  0  0  0  0  0  0  0  0  0  0
   31.3126   -9.3877   -0.2164 H   0  0  0  0  0  0  0  0  0  0  0  0
   31.7077   -6.9306   -0.2410 H   0  0  0  0  0  0  0  0  0  0  0  0
   31.9644   -3.6910   -0.8007 H   0  0  0  0  0  0  0  0  0  0  0  0
   30.6224   -1.4079   -1.3515 H   0  0  0  0  0  0  0  0  0  0  0  0
   55.9414   -0.0494    1.4575 Co  0  0  0  0  0  0  0  0  0  0  0  0
   58.3240    0.2302    3.7925 C   0  0  0  0  0  0  0  0  0  0  0  0
   58.0158   -1.0326    3.3276 C   0  0  0  0  0  0  0  0  0  0  0  0
   58.7012   -2.2256    3.7233 C   0  0  0  0  0  0  0  0  0  0  0  0
   58.2834   -3.2089    2.8883 C   0  0  0  0  0  0  0  0  0  0  0  0
   57.2963   -2.6284    2.0305 C   0  0  0  0  0  0  0  0  0  0  0  0
   57.1434   -1.3014    2.3017 N   0  0  0  0  0  0  0  0  0  0  0  0
   56.5100   -3.3596    1.1338 C   0  0  0  0  0  0  0  0  0  0  0  0
   56.8297   -4.7099    0.8845 C   0  0  0  0  0  0  0  0  0  0  0  0
   57.1138   -5.8661    0.6492 C   0  0  0  0  0  0  0  0  0  0  0  0
   57.4546   -7.2128    0.3875 C   0  0  0  0  0  0  0  0  0  0  0  0
   56.6902   -8.0017   -0.4801 C   0  0  0  0  0  0  0  0  0  0  0  0
   57.0710   -9.3129   -0.7038 C   0  0  0  0  0  0  0  0  0  0  0  0
   58.1357   -9.8689   -0.1314 N   0  0  0  0  0  0  0  0  0  0  0  0
   58.8670   -9.1258    0.6953 C   0  0  0  0  0  0  0  0  0  0  0  0
   58.5726   -7.8057    0.9859 C   0  0  0  0  0  0  0  0  0  0  0  0
   55.3429   -2.8232    0.5896 C   0  0  0  0  0  0  0  0  0  0  0  0
   54.3229   -3.6050   -0.0351 C   0  0  0  0  0  0  0  0  0  0  0  0
   53.2600   -2.7815   -0.2175 C   0  0  0  0  0  0  0  0  0  0  0  0
   54.9323   -1.5231    0.7278 N   0  0  0  0  0  0  0  0  0  0  0  0
   53.6593   -1.4868    0.2354 C   0  0  0  0  0  0  0  0  0  0  0  0
   52.8984   -0.3251    0.0457 C   0  0  0  0  0  0  0  0  0  0  0  0
   53.4809    0.9452    0.1455 C   0  0  0  0  0  0  0  0  0  0  0  0
   52.8869    2.1368   -0.3725 C   0  0  0  0  0  0  0  0  0  0  0  0
   53.8260    3.1123   -0.2840 C   0  0  0  0  0  0  0  0  0  0  0  0
   54.9634    2.5280    0.3536 C   0  0  0  0  0  0  0  0  0  0  0  0
   54.7439    1.1989    0.6006 N   0  0  0  0  0  0  0  0  0  0  0  0
   56.0708    3.2565    0.7901 C   0  0  0  0  0  0  0  0  0  0  0  0
   56.2044    4.6046    0.3991 C   0  0  0  0  0  0  0  0  0  0  0  0
   56.3299    5.7582    0.0438 C   0  0  0  0  0  0  0  0  0  0  0  0
   56.4706    7.1022   -0.3715 C   0  0  0  0  0  0  0  0  0  0  0  0
   55.4946    7.7218   -1.1610 C   0  0  0  0  0  0  0  0  0  0  0  0
   55.6792    9.0384   -1.5439 C   0  0  0  0  0  0  0  0  0  0  0  0
   56.7472    9.7531   -1.1989 N   0  0  0  0  0  0  0  0  0  0  0  0
   57.6793    9.1714   -0.4484 C   0  0  0  0  0  0  0  0  0  0  0  0
   57.5898    7.8617   -0.0113 C   0  0  0  0  0  0  0  0  0  0  0  0
   56.9726    2.7221    1.7158 C   0  0  0  0  0  0  0  0  0  0  0  0
   57.9029    3.5064    2.4690 C   0  0  0  0  0  0  0  0  0  0  0  0
   58.4408    2.6829    3.4024 C   0  0  0  0  0  0  0  0  0  0  0  0
   57.8869    1.3833    3.1713 C   0  0  0  0  0  0  0  0  0  0  0  0
   56.9795    1.4269    2.1419 N   0  0  0  0  0  0  0  0  0  0  0  0
   59.0415    0.3206    4.5998 H   0  0  0  0  0  0  0  0  0  0  0  0
   59.4310   -2.2778    4.5155 H   0  0  0  0  0  0  0  0  0  0  0  0
   58.5826   -4.2446    2.8627 H   0  0  0  0  0  0  0  0  0  0  0  0
   55.8155   -7.5886   -0.9677 H   0  0  0  0  0  0  0  0  0  0  0  0
   56.4973   -9.9477   -1.3729 H   0  0  0  0  0  0  0  0  0  0  0  0
   59.7285   -9.6111    1.1451 H   0  0  0  0  0  0  0  0  0  0  0  0
   59.1952   -7.2361    1.6653 H   0  0  0  0  0  0  0  0  0  0  0  0
   54.4092   -4.6548   -0.2651 H   0  0  0  0  0  0  0  0  0  0  0  0
   52.3014   -3.0104   -0.6540 H   0  0  0  0  0  0  0  0  0  0  0  0
   51.8911    2.1995   -0.7796 H   0  0  0  0  0  0  0  0  0  0  0  0
   53.7551    4.1451   -0.5854 H   0  0  0  0  0  0  0  0  0  0  0  0
   54.6095    7.1759   -1.4646 H   0  0  0  0  0  0  0  0  0  0  0  0
   54.9379    9.5442   -2.1558 H   0  0  0  0  0  0  0  0  0  0  0  0
   58.5374    9.7835   -0.1857 H   0  0  0  0  0  0  0  0  0  0  0  0
   58.3723    7.4272    0.5989 H   0  0  0  0  0  0  0  0  0  0  0  0
   58.0826    4.5582    2.3133 H   0  0  0  0  0  0  0  0  0  0  0  0
   59.1708    2.9107    4.1628 H   0  0  0  0  0  0  0  0  0  0  0  0
   39.9362   -0.5181   -0.3871 C   0  0  0  0  0  0  0  0  0  0  0  0
   41.1056   -0.6077   -0.7179 C   0  0  0  0  0  0  0  0  0  0  0  0
   50.4089   -0.5506   -0.7449 C   0  0  0  0  0  0  0  0  0  0  0  0
   51.5696   -0.4407   -0.3890 C   0  0  0  0  0  0  0  0  0  0  0  0
   45.7569   -0.7772   -1.6772 Co  0  0  0  0  0  0  0  0  0  0  0  0
   42.4532   -0.6788   -1.0986 C   0  0  0  0  0  0  0  0  0  0  0  0
   43.1048    0.4978   -1.4924 C   0  0  0  0  0  0  0  0  0  0  0  0
   42.4306    1.7337   -1.7374 C   0  0  0  0  0  0  0  0  0  0  0  0
   43.3111    2.5348   -2.3909 C   0  0  0  0  0  0  0  0  0  0  0  0
   44.5363    1.8074   -2.4807 C   0  0  0  0  0  0  0  0  0  0  0  0
   44.3989    0.5652   -1.9269 N   0  0  0  0  0  0  0  0  0  0  0  0
   45.7344    2.3370   -2.9693 C   0  0  0  0  0  0  0  0  0  0  0  0
   45.7137    3.5794   -3.6348 C   0  0  0  0  0  0  0  0  0  0  0  0
   45.6924    4.6369   -4.2298 C   0  0  0  0  0  0  0  0  0  0  0  0
   45.6647    5.8739   -4.9136 C   0  0  0  0  0  0  0  0  0  0  0  0
   46.8383    6.4625   -5.3986 C   0  0  0  0  0  0  0  0  0  0  0  0
   46.7552    7.6749   -6.0601 C   0  0  0  0  0  0  0  0  0  0  0  0
   45.6070    8.3166   -6.2605 N   0  0  0  0  0  0  0  0  0  0  0  0
   44.4868    7.7635   -5.8025 C   0  0  0  0  0  0  0  0  0  0  0  0
   44.4610    6.5551   -5.1293 C   0  0  0  0  0  0  0  0  0  0  0  0
   46.9621    1.7357   -2.6846 C   0  0  0  0  0  0  0  0  0  0  0  0
   48.2227    2.3924   -2.8243 C   0  0  0  0  0  0  0  0  0  0  0  0
   49.1360    1.6167   -2.1856 C   0  0  0  0  0  0  0  0  0  0  0  0
   47.1156    0.5379   -2.0382 N   0  0  0  0  0  0  0  0  0  0  0  0
   48.4400    0.4609   -1.7183 C   0  0  0  0  0  0  0  0  0  0  0  0
   49.0663   -0.6519   -1.1368 C   0  0  0  0  0  0  0  0  0  0  0  0
   48.4207   -1.8944   -1.0791 C   0  0  0  0  0  0  0  0  0  0  0  0
   49.0940   -3.1325   -0.8479 C   0  0  0  0  0  0  0  0  0  0  0  0
   48.2052   -4.1194   -1.1305 C   0  0  0  0  0  0  0  0  0  0  0  0
   46.9748   -3.4771   -1.4654 C   0  0  0  0  0  0  0  0  0  0  0  0
   47.1187   -2.1177   -1.4323 N   0  0  0  0  0  0  0  0  0  0  0  0
   45.7687   -4.1509   -1.6792 C   0  0  0  0  0  0  0  0  0  0  0  0
   45.7800   -5.5566   -1.7887 C   0  0  0  0  0  0  0  0  0  0  0  0
   45.7889   -6.7658   -1.8914 C   0  0  0  0  0  0  0  0  0  0  0  0
   45.7990   -8.1755   -1.9977 C   0  0  0  0  0  0  0  0  0  0  0  0
   44.6081   -8.9051   -2.0914 C   0  0  0  0  0  0  0  0  0  0  0  0
   44.6733  -10.2838   -2.1880 C   0  0  0  0  0  0  0  0  0  0  0  0
   45.8201  -10.9584   -2.1971 N   0  0  0  0  0  0  0  0  0  0  0  0
   46.9565  -10.2722   -2.1089 C   0  0  0  0  0  0  0  0  0  0  0  0
   47.0009   -8.8930   -2.0078 C   0  0  0  0  0  0  0  0  0  0  0  0
   44.5429   -3.4835   -1.6340 C   0  0  0  0  0  0  0  0  0  0  0  0
   43.2815   -4.1403   -1.4983 C   0  0  0  0  0  0  0  0  0  0  0  0
   42.3711   -3.1753   -1.2098 C   0  0  0  0  0  0  0  0  0  0  0  0
   43.0698   -1.9305   -1.2343 C   0  0  0  0  0  0  0  0  0  0  0  0
   44.3934   -2.1283   -1.5040 N   0  0  0  0  0  0  0  0  0  0  0  0
   41.4041    1.9362   -1.4776 H   0  0  0  0  0  0  0  0  0  0  0  0
   43.1649    3.5384   -2.7567 H   0  0  0  0  0  0  0  0  0  0  0  0
   47.7945    5.9736   -5.2568 H   0  0  0  0  0  0  0  0  0  0  0  0
   47.6493    8.1548   -6.4474 H   0  0  0  0  0  0  0  0  0  0  0  0
   43.5684    8.3144   -5.9836 H   0  0  0  0  0  0  0  0  0  0  0  0
   43.5263    6.1396   -4.7727 H   0  0  0  0  0  0  0  0  0  0  0  0
   48.3694    3.3420   -3.3132 H   0  0  0  0  0  0  0  0  0  0  0  0
   50.1938    1.7862   -2.0685 H   0  0  0  0  0  0  0  0  0  0  0  0
   50.1240   -3.2241   -0.5443 H   0  0  0  0  0  0  0  0  0  0  0  0
   48.3489   -5.1872   -1.0885 H   0  0  0  0  0  0  0  0  0  0  0  0
   43.6524   -8.3951   -2.0867 H   0  0  0  0  0  0  0  0  0  0  0  0
   43.7655  -10.8756   -2.2611 H   0  0  0  0  0  0  0  0  0  0  0  0
   47.8732  -10.8546   -2.1191 H   0  0  0  0  0  0  0  0  0  0  0  0
   47.9486   -8.3731   -1.9373 H   0  0  0  0  0  0  0  0  0  0  0  0
   43.1325   -5.2053   -1.5760 H   0  0  0  0  0  0  0  0  0  0  0  0
   41.3149   -3.2827   -1.0231 H   0  0  0  0  0  0  0  0  0  0  0  0
  2  3  4  0  0  0  0
  3  4  4  0  0  0  0
  4  5  2  0  0  0  0
  5  6  4  0  0  0  0
  1  7  1  0  0  0  0
  3  7  4  0  0  0  0
  6  7  4  0  0  0  0
  6  8  4  0  0  0  0
  8  9  1  0  0  0  0
  9 10  3  0  0  0  0
 10 11  1  0  0  0  0
 11 12  4  0  0  0  0
 12 13  4  0  0  0  0
 13 14  4  0  0  0  0
 14 15  4  0  0  0  0
 11 16  4  0  0  0  0
 15 16  4  0  0  0  0
  8 17  4  0  0  0  0
 17 18  4  0  0  0  0
 18 19  2  0  0  0  0
  1 20  1  0  0  0  0
 17 20  4  0  0  0  0
 19 21  4  0  0  0  0
 20 21  4  0  0  0  0
 21 22  4  0  0  0  0
 22 23  4  0  0  0  0
 23 24  4  0  0  0  0
 24 25  2  0  0  0  0
 25 26  4  0  0  0  0
  1 27  1  0  0  0  0
 23 27  4  0  0  0  0
 26 27  4  0  0  0  0
 26 28  4  0  0  0  0
 28 29  1  0  0  0  0
 29 30  3  0  0  0  0
 30 31  1  0  0  0  0
 31 32  4  0  0  0  0
 32 33  4  0  0  0  0
 33 34  4  0  0  0  0
 34 35  4  0  0  0  0
 31 36  4  0  0  0  0
 35 36  4  0  0  0  0
 28 37  4  0  0  0  0
 37 38  4  0  0  0  0
 38 39  2  0  0  0  0
  2 40  4  0  0  0  0
 39 40  1  0  0  0  0
  1 41  1  0  0  0  0
 37 41  4  0  0  0  0
 40 41  4  0  0  0  0
  2 42  1  0  0  0  0
  4 43  1  0  0  0  0
  5 44  1  0  0  0  0
 12 45  1  0  0  0  0
 13 46  1  0  0  0  0
 15 47  1  0  0  0  0
 16 48  1  0  0  0  0
 18 49  1  0  0  0  0
 19 50  1  0  0  0  0
 24 51  1  0  0  0  0
 25 52  1  0  0  0  0
 32 53  1  0  0  0  0
 33 54  1  0  0  0  0
 35 55  1  0  0  0  0
 36 56  1  0  0  0  0
 38 57  1  0  0  0  0
 39 58  1  0  0  0  0
 60 61  4  0  0  0  0
 61 62  4  0  0  0  0
 62 63  2  0  0  0  0
 63 64  4  0  0  0  0
 59 65  1  0  0  0  0
 61 65  4  0  0  0  0
 64 65  4  0  0  0  0
 64 66  4  0  0  0  0
 66 67  1  0  0  0  0
 67 68  3  0  0  0  0
 68 69  1  0  0  0  0
 69 70  4  0  0  0  0
 70 71  4  0  0  0  0
 71 72  4  0  0  0  0
 72 73  4  0  0  0  0
 69 74  4  0  0  0  0
 73 74  4  0  0  0  0
 66 75  4  0  0  0  0
 75 76  4  0  0  0  0
 76 77  2  0  0  0  0
 59 78  1  0  0  0  0
 75 78  4  0  0  0  0
 77 79  4  0  0  0  0
 78 79  4  0  0  0  0
 79 80  4  0  0  0  0
 80 81  4  0  0  0  0
 81 82  4  0  0  0  0
 82 83  2  0  0  0  0
 83 84  4  0  0  0  0
 59 85  1  0  0  0  0
 81 85  4  0  0  0  0
 84 85  4  0  0  0  0
 84 86  4  0  0  0  0
 86 87  1  0  0  0  0
 87 88  3  0  0  0  0
 88 89  1  0  0  0  0
 89 90  4  0  0  0  0
 90 91  4  0  0  0  0
 91 92  4  0  0  0  0
 92 93  4  0  0  0  0
 89 94  4  0  0  0  0
 93 94  4  0  0  0  0
 86 95  4  0  0  0  0
 95 96  4  0  0  0  0
 96 97  2  0  0  0  0
 60 98  4  0  0  0  0
 97 98  4  0  0  0  0
 59 99  1  0  0  0  0
 95 99  4  0  0  0  0
 98 99  4  0  0  0  0
 60100  1  0  0  0  0
 62101  1  0  0  0  0
 63102  1  0  0  0  0
 70103  1  0  0  0  0
 71104  1  0  0  0  0
 73105  1  0  0  0  0
 74106  1  0  0  0  0
 76107  1  0  0  0  0
 77108  1  0  0  0  0
 82109  1  0  0  0  0
 83110  1  0  0  0  0
 90111  1  0  0  0  0
 91112  1  0  0  0  0
 93113  1  0  0  0  0
 94114  1  0  0  0  0
 96115  1  0  0  0  0
 97116  1  0  0  0  0
 22117  4  0  0  0  0
117118  3  0  0  0  0
 80120  4  0  0  0  0
119120  3  0  0  0  0
118122  4  0  0  0  0
122123  4  0  0  0  0
123124  4  0  0  0  0
124125  2  0  0  0  0
125126  4  0  0  0  0
121127  1  0  0  0  0
123127  4  0  0  0  0
126127  4  0  0  0  0
126128  4  0  0  0  0
128129  1  0  0  0  0
129130  3  0  0  0  0
130131  1  0  0  0  0
131132  4  0  0  0  0
132133  4  0  0  0  0
133134  4  0  0  0  0
134135  4  0  0  0  0
131136  4  0  0  0  0
135136  4  0  0  0  0
128137  4  0  0  0  0
137138  4  0  0  0  0
138139  2  0  0  0  0
121140  1  0  0  0  0
137140  4  0  0  0  0
139141  4  0  0  0  0
140141  4  0  0  0  0
119142  4  0  0  0  0
141142  4  0  0  0  0
142143  4  0  0  0  0
143144  4  0  0  0  0
144145  2  0  0  0  0
145146  4  0  0  0  0
121147  1  0  0  0  0
143147  4  0  0  0  0
146147  4  0  0  0  0
146148  4  0  0  0  0
148149  1  0  0  0  0
149150  3  0  0  0  0
150151  1  0  0  0  0
151152  4  0  0  0  0
152153  4  0  0  0  0
153154  4  0  0  0  0
154155  4  0  0  0  0
151156  4  0  0  0  0
155156  4  0  0  0  0
148157  4  0  0  0  0
157158  4  0  0  0  0
158159  2  0  0  0  0
122160  4  0  0  0  0
159160  4  0  0  0  0
121161  1  0  0  0  0
157161  4  0  0  0  0
160161  4  0  0  0  0
124162  1  0  0  0  0
125163  1  0  0  0  0
132164  1  0  0  0  0
133165  1  0  0  0  0
135166  1  0  0  0  0
136167  1  0  0  0  0
138168  1  0  0  0  0
139169  1  0  0  0  0
144170  1  0  0  0  0
145171  1  0  0  0  0
152172  1  0  0  0  0
153173  1  0  0  0  0
155174  1  0  0  0  0
156175  1  0  0  0  0
158176  1  0  0  0  0
159177  1  0  0  0  0
M  END
