 xtb: 6.5.1 (b24c23e)
          07292201263D

258285  0     0  0            999 V2000
   34.8862    0.0932    0.0398 C   0  0  0  0  0  0  0  0  0  0  0  0
   35.4940    1.2300   -0.4773 C   0  0  0  0  0  0  0  0  0  0  0  0
   34.8412    2.3740   -1.0156 C   0  0  0  0  0  0  0  0  0  0  0  0
   35.8030    3.2639   -1.4037 C   0  0  0  0  0  0  0  0  0  0  0  0
   37.0746    2.6972   -1.1034 C   0  0  0  0  0  0  0  0  0  0  0  0
   36.8372    1.4675   -0.5580 N   0  0  0  0  0  0  0  0  0  0  0  0
   38.3372    3.2606   -1.3237 C   0  0  0  0  0  0  0  0  0  0  0  0
   38.3635    4.6270   -1.9002 C   0  0  0  0  0  0  0  0  0  0  0  0
   38.9870    4.8671   -3.1252 C   0  0  0  0  0  0  0  0  0  0  0  0
   39.0027    6.1394   -3.6752 C   0  0  0  0  0  0  0  0  0  0  0  0
   38.3959    7.1936   -2.9964 C   0  0  0  0  0  0  0  0  0  0  0  0
   38.3879    8.4553   -3.4982 O   0  0  0  0  0  0  0  0  0  0  0  0
   37.7743    6.9689   -1.7694 C   0  0  0  0  0  0  0  0  0  0  0  0
   37.7577    5.6941   -1.2319 C   0  0  0  0  0  0  0  0  0  0  0  0
   39.5533    2.6336   -1.0414 C   0  0  0  0  0  0  0  0  0  0  0  0
   40.8491    3.2667   -1.2097 C   0  0  0  0  0  0  0  0  0  0  0  0
   41.7720    2.3535   -0.8425 C   0  0  0  0  0  0  0  0  0  0  0  0
   39.7111    1.3690   -0.5609 N   0  0  0  0  0  0  0  0  0  0  0  0
   41.0390    1.1682   -0.4423 C   0  0  0  0  0  0  0  0  0  0  0  0
   41.6789   -0.0121   -0.0105 C   0  0  0  0  0  0  0  0  0  0  0  0
   41.0432   -1.1880    0.4324 C   0  0  0  0  0  0  0  0  0  0  0  0
   41.6865   -2.3890    0.8329 C   0  0  0  0  0  0  0  0  0  0  0  0
   40.7199   -3.2806    1.2081 C   0  0  0  0  0  0  0  0  0  0  0  0
   39.4554   -2.6469    1.0574 C   0  0  0  0  0  0  0  0  0  0  0  0
   39.7028   -1.3880    0.5756 N   0  0  0  0  0  0  0  0  0  0  0  0
   38.1949   -3.1910    1.3265 C   0  0  0  0  0  0  0  0  0  0  0  0
   38.1608   -4.5655    1.8814 C   0  0  0  0  0  0  0  0  0  0  0  0
   38.7806   -4.8591    3.0987 C   0  0  0  0  0  0  0  0  0  0  0  0
   38.7404   -6.1383    3.6245 C   0  0  0  0  0  0  0  0  0  0  0  0
   38.0812   -7.1510    2.9300 C   0  0  0  0  0  0  0  0  0  0  0  0
   38.0627   -8.3951    3.4734 O   0  0  0  0  0  0  0  0  0  0  0  0
   37.4637   -6.8749    1.7122 C   0  0  0  0  0  0  0  0  0  0  0  0
   37.5026   -5.5886    1.1974 C   0  0  0  0  0  0  0  0  0  0  0  0
   36.9783   -2.5335    1.1117 C   0  0  0  0  0  0  0  0  0  0  0  0
   35.6778   -3.0869    1.4561 C   0  0  0  0  0  0  0  0  0  0  0  0
   34.7619   -2.1669    1.0918 C   0  0  0  0  0  0  0  0  0  0  0  0
   35.5020   -1.0479    0.5366 C   0  0  0  0  0  0  0  0  0  0  0  0
   36.8338   -1.2992    0.5746 N   0  0  0  0  0  0  0  0  0  0  0  0
   33.8010    0.1068    0.0522 H   0  0  0  0  0  0  0  0  0  0  0  0
   33.7717    2.4860   -1.0967 H   0  0  0  0  0  0  0  0  0  0  0  0
   35.6501    4.2254   -1.8662 H   0  0  0  0  0  0  0  0  0  0  0  0
   37.5628    0.8239   -0.2605 H   0  0  0  0  0  0  0  0  0  0  0  0
   39.4474    4.0449   -3.6616 H   0  0  0  0  0  0  0  0  0  0  0  0
   39.4822    6.3181   -4.6316 H   0  0  0  0  0  0  0  0  0  0  0  0
   38.8498    8.5002   -4.3462 H   0  0  0  0  0  0  0  0  0  0  0  0
   37.3113    7.7987   -1.2498 H   0  0  0  0  0  0  0  0  0  0  0  0
   37.2863    5.5234   -0.2704 H   0  0  0  0  0  0  0  0  0  0  0  0
   41.0088    4.2781   -1.5468 H   0  0  0  0  0  0  0  0  0  0  0  0
   42.8457    2.4508   -0.8266 H   0  0  0  0  0  0  0  0  0  0  0  0
   42.7534   -2.5438    0.8253 H   0  0  0  0  0  0  0  0  0  0  0  0
   40.8664   -4.2923    1.5496 H   0  0  0  0  0  0  0  0  0  0  0  0
   38.9816   -0.7097    0.3535 H   0  0  0  0  0  0  0  0  0  0  0  0
   39.2800   -4.0686    3.6478 H   0  0  0  0  0  0  0  0  0  0  0  0
   39.2121   -6.3661    4.5724 H   0  0  0  0  0  0  0  0  0  0  0  0
   37.5761   -9.0164    2.9152 H   0  0  0  0  0  0  0  0  0  0  0  0
   36.9560   -7.6671    1.1725 H   0  0  0  0  0  0  0  0  0  0  0  0
   37.0321   -5.3780    0.2434 H   0  0  0  0  0  0  0  0  0  0  0  0
   35.5130   -4.0432    1.9261 H   0  0  0  0  0  0  0  0  0  0  0  0
   33.6879   -2.2086    1.1858 H   0  0  0  0  0  0  0  0  0  0  0  0
   97.4616   -0.0029    0.0979 C   0  0  0  0  0  0  0  0  0  0  0  0
   96.8525   -1.0611    0.7601 C   0  0  0  0  0  0  0  0  0  0  0  0
   97.5040   -2.1464    1.4098 C   0  0  0  0  0  0  0  0  0  0  0  0
   96.5414   -2.9600    1.9380 C   0  0  0  0  0  0  0  0  0  0  0  0
   95.2706   -2.3912    1.6382 C   0  0  0  0  0  0  0  0  0  0  0  0
   95.5092   -1.2551    0.9182 N   0  0  0  0  0  0  0  0  0  0  0  0
   94.0076   -2.8847    1.9866 C   0  0  0  0  0  0  0  0  0  0  0  0
   93.9807   -4.1241    2.8011 C   0  0  0  0  0  0  0  0  0  0  0  0
   93.3555   -5.2751    2.3202 C   0  0  0  0  0  0  0  0  0  0  0  0
   93.3391   -6.4395    3.0720 C   0  0  0  0  0  0  0  0  0  0  0  0
   93.9471   -6.4621    4.3251 C   0  0  0  0  0  0  0  0  0  0  0  0
   93.9544   -7.5807    5.0948 O   0  0  0  0  0  0  0  0  0  0  0  0
   94.5707   -5.3181    4.8198 C   0  0  0  0  0  0  0  0  0  0  0  0
   94.5878   -4.1626    4.0590 C   0  0  0  0  0  0  0  0  0  0  0  0
   92.7919   -2.2983    1.6258 C   0  0  0  0  0  0  0  0  0  0  0  0
   91.4960   -2.7902    2.0579 C   0  0  0  0  0  0  0  0  0  0  0  0
   90.5737   -1.9726    1.5091 C   0  0  0  0  0  0  0  0  0  0  0  0
   92.6349   -1.1916    0.8479 N   0  0  0  0  0  0  0  0  0  0  0  0
   91.3072   -0.9775    0.7514 C   0  0  0  0  0  0  0  0  0  0  0  0
   90.6682    0.0483    0.0247 C   0  0  0  0  0  0  0  0  0  0  0  0
   91.3041    1.0750   -0.6991 C   0  0  0  0  0  0  0  0  0  0  0  0
   90.6608    2.0847   -1.4627 C   0  0  0  0  0  0  0  0  0  0  0  0
   91.6281    2.8873   -2.0013 C   0  0  0  0  0  0  0  0  0  0  0  0
   92.8934    2.3978   -1.5738 C   0  0  0  0  0  0  0  0  0  0  0  0
   92.6454    1.2963   -0.7971 N   0  0  0  0  0  0  0  0  0  0  0  0
   94.1549    2.9136   -1.8898 C   0  0  0  0  0  0  0  0  0  0  0  0
   94.1904    4.1374   -2.7262 C   0  0  0  0  0  0  0  0  0  0  0  0
   93.5844    5.3184   -2.2904 C   0  0  0  0  0  0  0  0  0  0  0  0
   93.6247    6.4639   -3.0654 C   0  0  0  0  0  0  0  0  0  0  0  0
   94.2702    6.4409   -4.3003 C   0  0  0  0  0  0  0  0  0  0  0  0
   94.2888    7.5818   -5.0364 O   0  0  0  0  0  0  0  0  0  0  0  0
   94.8746    5.2694   -4.7506 C   0  0  0  0  0  0  0  0  0  0  0  0
   94.8355    4.1290   -3.9638 C   0  0  0  0  0  0  0  0  0  0  0  0
   95.3715    2.3598   -1.4753 C   0  0  0  0  0  0  0  0  0  0  0  0
   96.6737    2.9442   -1.7565 C   0  0  0  0  0  0  0  0  0  0  0  0
   97.5890    2.1246   -1.2009 C   0  0  0  0  0  0  0  0  0  0  0  0
   96.8470    1.0469   -0.5716 C   0  0  0  0  0  0  0  0  0  0  0  0
   95.5147    1.2268   -0.7483 N   0  0  0  0  0  0  0  0  0  0  0  0
   98.5469   -0.0056    0.1094 H   0  0  0  0  0  0  0  0  0  0  0  0
   98.5732   -2.2799    1.4538 H   0  0  0  0  0  0  0  0  0  0  0  0
   96.6931   -3.8792    2.4801 H   0  0  0  0  0  0  0  0  0  0  0  0
   94.7845   -0.6475    0.5512 H   0  0  0  0  0  0  0  0  0  0  0  0
   92.8942   -5.2633    1.3390 H   0  0  0  0  0  0  0  0  0  0  0  0
   92.8581   -7.3333    2.6893 H   0  0  0  0  0  0  0  0  0  0  0  0
   93.4909   -8.3098    4.6614 H   0  0  0  0  0  0  0  0  0  0  0  0
   95.0347   -5.3481    5.7979 H   0  0  0  0  0  0  0  0  0  0  0  0
   95.0608   -3.2690    4.4511 H   0  0  0  0  0  0  0  0  0  0  0  0
   91.3357   -3.6361    2.7067 H   0  0  0  0  0  0  0  0  0  0  0  0
   89.5000   -2.0119    1.6005 H   0  0  0  0  0  0  0  0  0  0  0  0
   89.5933    2.1732   -1.5845 H   0  0  0  0  0  0  0  0  0  0  0  0
   91.4814    3.7378   -2.6469 H   0  0  0  0  0  0  0  0  0  0  0  0
   93.3668    0.7265   -0.3675 H   0  0  0  0  0  0  0  0  0  0  0  0
   93.0958    5.3422   -1.3226 H   0  0  0  0  0  0  0  0  0  0  0  0
   93.1634    7.3830   -2.7256 H   0  0  0  0  0  0  0  0  0  0  0  0
   94.7651    7.4569   -5.8682 H   0  0  0  0  0  0  0  0  0  0  0  0
   95.3719    5.2545   -5.7145 H   0  0  0  0  0  0  0  0  0  0  0  0
   95.2955    3.2145   -4.3212 H   0  0  0  0  0  0  0  0  0  0  0  0
   96.8401    3.8647   -2.2927 H   0  0  0  0  0  0  0  0  0  0  0  0
   98.6637    2.2186   -1.1930 H   0  0  0  0  0  0  0  0  0  0  0  0
   43.0846   -0.0306   -0.0176 C   0  0  0  0  0  0  0  0  0  0  0  0
   44.3094   -0.0493   -0.0200 C   0  0  0  0  0  0  0  0  0  0  0  0
   45.6523   -0.0646   -0.0217 C   0  0  0  0  0  0  0  0  0  0  0  0
   46.8833   -0.0772   -0.0208 C   0  0  0  0  0  0  0  0  0  0  0  0
   48.2215   -0.0875   -0.0185 C   0  0  0  0  0  0  0  0  0  0  0  0
   49.4526   -0.0935   -0.0149 C   0  0  0  0  0  0  0  0  0  0  0  0
   50.7953   -0.0975   -0.0095 C   0  0  0  0  0  0  0  0  0  0  0  0
   52.0204   -0.0957   -0.0029 C   0  0  0  0  0  0  0  0  0  0  0  0
   61.7038   -0.0280   -0.0212 C   0  0  0  0  0  0  0  0  0  0  0  0
   62.9294   -0.0192   -0.0168 C   0  0  0  0  0  0  0  0  0  0  0  0
   64.2716   -0.0126   -0.0129 C   0  0  0  0  0  0  0  0  0  0  0  0
   65.5032   -0.0058   -0.0086 C   0  0  0  0  0  0  0  0  0  0  0  0
   66.8407    0.0011   -0.0047 C   0  0  0  0  0  0  0  0  0  0  0  0
   68.0724    0.0078   -0.0017 C   0  0  0  0  0  0  0  0  0  0  0  0
   69.4146    0.0136    0.0009 C   0  0  0  0  0  0  0  0  0  0  0  0
   70.6401    0.0218    0.0033 C   0  0  0  0  0  0  0  0  0  0  0  0
   80.3255    0.0867   -0.0429 C   0  0  0  0  0  0  0  0  0  0  0  0
   81.5506    0.0885   -0.0376 C   0  0  0  0  0  0  0  0  0  0  0  0
   82.8936    0.0866   -0.0314 C   0  0  0  0  0  0  0  0  0  0  0  0
   84.1246    0.0842   -0.0246 C   0  0  0  0  0  0  0  0  0  0  0  0
   85.4631    0.0793   -0.0167 C   0  0  0  0  0  0  0  0  0  0  0  0
   86.6940    0.0736   -0.0091 C   0  0  0  0  0  0  0  0  0  0  0  0
   88.0372    0.0665    0.0008 C   0  0  0  0  0  0  0  0  0  0  0  0
   89.2620    0.0577    0.0119 C   0  0  0  0  0  0  0  0  0  0  0  0
   53.4253   -0.0956    0.0085 C   0  0  0  0  0  0  0  0  0  0  0  0
   54.0588   -1.2002   -0.5935 C   0  0  0  0  0  0  0  0  0  0  0  0
   53.4168   -2.2901   -1.2354 C   0  0  0  0  0  0  0  0  0  0  0  0
   54.3876   -3.1281   -1.7123 C   0  0  0  0  0  0  0  0  0  0  0  0
   55.6517   -2.5777   -1.3664 C   0  0  0  0  0  0  0  0  0  0  0  0
   55.4017   -1.4109   -0.6944 N   0  0  0  0  0  0  0  0  0  0  0  0
   56.9143   -3.0991   -1.6766 C   0  0  0  0  0  0  0  0  0  0  0  0
   56.9309   -4.3959   -2.3984 C   0  0  0  0  0  0  0  0  0  0  0  0
   57.5011   -4.4921   -3.6682 C   0  0  0  0  0  0  0  0  0  0  0  0
   57.5116   -5.6988   -4.3504 C   0  0  0  0  0  0  0  0  0  0  0  0
   56.9540   -6.8311   -3.7610 C   0  0  0  0  0  0  0  0  0  0  0  0
   56.9445   -8.0329   -4.3924 O   0  0  0  0  0  0  0  0  0  0  0  0
   56.3851   -6.7496   -2.4913 C   0  0  0  0  0  0  0  0  0  0  0  0
   56.3724   -5.5391   -1.8214 C   0  0  0  0  0  0  0  0  0  0  0  0
   58.1381   -2.5031   -1.3667 C   0  0  0  0  0  0  0  0  0  0  0  0
   59.4262   -3.1100   -1.6510 C   0  0  0  0  0  0  0  0  0  0  0  0
   60.3629   -2.2520   -1.1962 C   0  0  0  0  0  0  0  0  0  0  0  0
   58.3143   -1.3072   -0.7389 N   0  0  0  0  0  0  0  0  0  0  0  0
   59.6460   -1.1285   -0.6270 C   0  0  0  0  0  0  0  0  0  0  0  0
   60.2996   -0.0315   -0.0285 C   0  0  0  0  0  0  0  0  0  0  0  0
   59.6656    1.0668    0.5854 C   0  0  0  0  0  0  0  0  0  0  0  0
   60.3074    2.1506    1.2378 C   0  0  0  0  0  0  0  0  0  0  0  0
   59.3367    2.9854    1.7204 C   0  0  0  0  0  0  0  0  0  0  0  0
   58.0726    2.4398    1.3669 C   0  0  0  0  0  0  0  0  0  0  0  0
   58.3229    1.2778    0.6860 N   0  0  0  0  0  0  0  0  0  0  0  0
   56.8100    2.9625    1.6739 C   0  0  0  0  0  0  0  0  0  0  0  0
   56.7898    4.2533    2.4059 C   0  0  0  0  0  0  0  0  0  0  0  0
   57.3548    5.4012    1.8448 C   0  0  0  0  0  0  0  0  0  0  0  0
   57.3337    6.6062    2.5243 C   0  0  0  0  0  0  0  0  0  0  0  0
   56.7497    6.6775    3.7878 C   0  0  0  0  0  0  0  0  0  0  0  0
   56.7502    7.8744    4.4284 O   0  0  0  0  0  0  0  0  0  0  0  0
   56.1861    5.5402    4.3618 C   0  0  0  0  0  0  0  0  0  0  0  0
   56.2051    4.3393    3.6700 C   0  0  0  0  0  0  0  0  0  0  0  0
   55.5862    2.3725    1.3518 C   0  0  0  0  0  0  0  0  0  0  0  0
   54.2984    2.9851    1.6257 C   0  0  0  0  0  0  0  0  0  0  0  0
   53.3617    2.1311    1.1637 C   0  0  0  0  0  0  0  0  0  0  0  0
   54.0783    1.0038    0.6018 C   0  0  0  0  0  0  0  0  0  0  0  0
   55.4102    1.1778    0.7226 N   0  0  0  0  0  0  0  0  0  0  0  0
   52.3487   -2.4059   -1.3245 H   0  0  0  0  0  0  0  0  0  0  0  0
   54.2418   -4.0406   -2.2669 H   0  0  0  0  0  0  0  0  0  0  0  0
   56.1178   -0.7884   -0.3354 H   0  0  0  0  0  0  0  0  0  0  0  0
   57.9239   -3.6087   -4.1334 H   0  0  0  0  0  0  0  0  0  0  0  0
   57.9496   -5.7657   -5.3405 H   0  0  0  0  0  0  0  0  0  0  0  0
   57.3672   -7.9789   -5.2600 H   0  0  0  0  0  0  0  0  0  0  0  0
   55.9596   -7.6389   -2.0430 H   0  0  0  0  0  0  0  0  0  0  0  0
   55.9417   -5.4796   -0.8280 H   0  0  0  0  0  0  0  0  0  0  0  0
   59.5728   -4.0702   -2.1184 H   0  0  0  0  0  0  0  0  0  0  0  0
   61.4363   -2.3510   -1.2219 H   0  0  0  0  0  0  0  0  0  0  0  0
   61.3755    2.2647    1.3298 H   0  0  0  0  0  0  0  0  0  0  0  0
   59.4823    3.8930    2.2830 H   0  0  0  0  0  0  0  0  0  0  0  0
   57.6067    0.6590    0.3208 H   0  0  0  0  0  0  0  0  0  0  0  0
   57.7965    5.3501    0.8558 H   0  0  0  0  0  0  0  0  0  0  0  0
   57.7636    7.4994    2.0881 H   0  0  0  0  0  0  0  0  0  0  0  0
   56.3162    7.8136    5.2900 H   0  0  0  0  0  0  0  0  0  0  0  0
   55.7362    5.5990    5.3470 H   0  0  0  0  0  0  0  0  0  0  0  0
   55.7767    3.4520    4.1228 H   0  0  0  0  0  0  0  0  0  0  0  0
   54.1521    3.9464    2.0909 H   0  0  0  0  0  0  0  0  0  0  0  0
   52.2886    2.2346    1.1809 H   0  0  0  0  0  0  0  0  0  0  0  0
   72.0444    0.0244    0.0073 C   0  0  0  0  0  0  0  0  0  0  0  0
   72.6765   -1.0734   -0.6094 C   0  0  0  0  0  0  0  0  0  0  0  0
   72.0328   -2.1574   -1.2598 C   0  0  0  0  0  0  0  0  0  0  0  0
   73.0023   -2.9918   -1.7456 C   0  0  0  0  0  0  0  0  0  0  0  0
   74.2674   -2.4456   -1.3965 C   0  0  0  0  0  0  0  0  0  0  0  0
   74.0189   -1.2839   -0.7146 N   0  0  0  0  0  0  0  0  0  0  0  0
   75.5289   -2.9677   -1.7086 C   0  0  0  0  0  0  0  0  0  0  0  0
   75.5465   -4.2591   -2.4398 C   0  0  0  0  0  0  0  0  0  0  0  0
   76.1241   -4.3459   -3.7071 C   0  0  0  0  0  0  0  0  0  0  0  0
   76.1417   -5.5480   -4.3969 C   0  0  0  0  0  0  0  0  0  0  0  0
   75.5840   -6.6855   -3.8176 C   0  0  0  0  0  0  0  0  0  0  0  0
   75.5829   -7.8837   -4.4560 O   0  0  0  0  0  0  0  0  0  0  0  0
   75.0067   -6.6133   -2.5511 C   0  0  0  0  0  0  0  0  0  0  0  0
   74.9869   -5.4071   -1.8736 C   0  0  0  0  0  0  0  0  0  0  0  0
   76.7541   -2.3774   -1.3917 C   0  0  0  0  0  0  0  0  0  0  0  0
   78.0407   -2.9894   -1.6726 C   0  0  0  0  0  0  0  0  0  0  0  0
   78.9793   -2.1361   -1.2132 C   0  0  0  0  0  0  0  0  0  0  0  0
   76.9326   -1.1839   -0.7615 N   0  0  0  0  0  0  0  0  0  0  0  0
   78.2651   -1.0101   -0.6457 C   0  0  0  0  0  0  0  0  0  0  0  0
   78.9203    0.0870   -0.0510 C   0  0  0  0  0  0  0  0  0  0  0  0
   78.2888    1.1895    0.5566 C   0  0  0  0  0  0  0  0  0  0  0  0
   78.9326    2.2776    1.2000 C   0  0  0  0  0  0  0  0  0  0  0  0
   77.9632    3.1139    1.6824 C   0  0  0  0  0  0  0  0  0  0  0  0
   76.6980    2.5645    1.3385 C   0  0  0  0  0  0  0  0  0  0  0  0
   76.9461    1.4000    0.6618 N   0  0  0  0  0  0  0  0  0  0  0  0
   75.4365    3.0851    1.6540 C   0  0  0  0  0  0  0  0  0  0  0  0
   75.4224    4.3789    2.3813 C   0  0  0  0  0  0  0  0  0  0  0  0
   75.9778    5.5249    1.8068 C   0  0  0  0  0  0  0  0  0  0  0  0
   75.9677    6.7324    2.4822 C   0  0  0  0  0  0  0  0  0  0  0  0
   75.4047    6.8079    3.7550 C   0  0  0  0  0  0  0  0  0  0  0  0
   75.4168    8.0068    4.3917 O   0  0  0  0  0  0  0  0  0  0  0  0
   74.8501    5.6727    4.3418 C   0  0  0  0  0  0  0  0  0  0  0  0
   74.8579    4.4692    3.6541 C   0  0  0  0  0  0  0  0  0  0  0  0
   74.2115    2.4908    1.3456 C   0  0  0  0  0  0  0  0  0  0  0  0
   72.9246    3.0979    1.6356 C   0  0  0  0  0  0  0  0  0  0  0  0
   71.9860    2.2422    1.1807 C   0  0  0  0  0  0  0  0  0  0  0  0
   72.7003    1.1198    0.6062 C   0  0  0  0  0  0  0  0  0  0  0  0
   74.0325    1.2971    0.7147 N   0  0  0  0  0  0  0  0  0  0  0  0
   70.9645   -2.2719   -1.3481 H   0  0  0  0  0  0  0  0  0  0  0  0
   72.8552   -3.8996   -2.3076 H   0  0  0  0  0  0  0  0  0  0  0  0
   74.7359   -0.6649   -0.3512 H   0  0  0  0  0  0  0  0  0  0  0  0
   76.5480   -3.4585   -4.1637 H   0  0  0  0  0  0  0  0  0  0  0  0
   76.5861   -5.6076   -5.3846 H   0  0  0  0  0  0  0  0  0  0  0  0
   76.0121   -7.8233   -5.3200 H   0  0  0  0  0  0  0  0  0  0  0  0
   74.5812   -7.5066   -2.1109 H   0  0  0  0  0  0  0  0  0  0  0  0
   74.5505   -5.3551   -0.8823 H   0  0  0  0  0  0  0  0  0  0  0  0
   78.1851   -3.9496   -2.1405 H   0  0  0  0  0  0  0  0  0  0  0  0
   80.0524   -2.2394   -1.2354 H   0  0  0  0  0  0  0  0  0  0  0  0
   80.0009    2.3931    1.2865 H   0  0  0  0  0  0  0  0  0  0  0  0
   78.1105    4.0247    2.2394 H   0  0  0  0  0  0  0  0  0  0  0  0
   76.2291    0.7784    0.3030 H   0  0  0  0  0  0  0  0  0  0  0  0
   76.4041    5.4700    0.8113 H   0  0  0  0  0  0  0  0  0  0  0  0
   76.3907    7.6239    2.0361 H   0  0  0  0  0  0  0  0  0  0  0  0
   74.9989    7.9486    5.2615 H   0  0  0  0  0  0  0  0  0  0  0  0
   74.4167    5.7349    5.3342 H   0  0  0  0  0  0  0  0  0  0  0  0
   74.4374    3.5835    4.1170 H   0  0  0  0  0  0  0  0  0  0  0  0
   72.7802    4.0567    2.1066 H   0  0  0  0  0  0  0  0  0  0  0  0
   70.9127    2.3418    1.2100 H   0  0  0  0  0  0  0  0  0  0  0  0
  1  2  4  0  0  0  0
  2  3  4  0  0  0  0
  3  4  2  0  0  0  0
  4  5  4  0  0  0  0
  2  6  4  0  0  0  0
  5  6  4  0  0  0  0
  5  7  4  0  0  0  0
  7  8  1  0  0  0  0
  8  9  4  0  0  0  0
  9 10  4  0  0  0  0
 10 11  4  0  0  0  0
 11 12  1  0  0  0  0
 11 13  4  0  0  0  0
  8 14  4  0  0  0  0
 13 14  4  0  0  0  0
  7 15  4  0  0  0  0
 15 16  1  0  0  0  0
 16 17  2  0  0  0  0
 15 18  4  0  0  0  0
 17 19  1  0  0  0  0
 18 19  4  0  0  0  0
 19 20  4  0  0  0  0
 20 21  4  0  0  0  0
 21 22  4  0  0  0  0
 22 23  2  0  0  0  0
 23 24  4  0  0  0  0
 21 25  4  0  0  0  0
 24 25  4  0  0  0  0
 24 26  4  0  0  0  0
 26 27  1  0  0  0  0
 27 28  4  0  0  0  0
 28 29  4  0  0  0  0
 29 30  4  0  0  0  0
 30 31  1  0  0  0  0
 30 32  4  0  0  0  0
 27 33  4  0  0  0  0
 32 33  4  0  0  0  0
 26 34  4  0  0  0  0
 34 35  1  0  0  0  0
 35 36  2  0  0  0  0
  1 37  4  0  0  0  0
 36 37  1  0  0  0  0
 34 38  4  0  0  0  0
 37 38  4  0  0  0  0
  1 39  1  0  0  0  0
  3 40  1  0  0  0  0
  4 41  1  0  0  0  0
  6 42  1  0  0  0  0
  9 43  1  0  0  0  0
 10 44  1  0  0  0  0
 12 45  1  0  0  0  0
 13 46  1  0  0  0  0
 14 47  1  0  0  0  0
 16 48  1  0  0  0  0
 17 49  1  0  0  0  0
 22 50  1  0  0  0  0
 23 51  1  0  0  0  0
 25 52  1  0  0  0  0
 28 53  1  0  0  0  0
 29 54  1  0  0  0  0
 31 55  1  0  0  0  0
 32 56  1  0  0  0  0
 33 57  1  0  0  0  0
 35 58  1  0  0  0  0
 36 59  1  0  0  0  0
 60 61  4  0  0  0  0
 61 62  4  0  0  0  0
 62 63  2  0  0  0  0
 63 64  4  0  0  0  0
 61 65  4  0  0  0  0
 64 65  4  0  0  0  0
 64 66  4  0  0  0  0
 66 67  1  0  0  0  0
 67 68  4  0  0  0  0
 68 69  4  0  0  0  0
 69 70  4  0  0  0  0
 70 71  1  0  0  0  0
 70 72  4  0  0  0  0
 67 73  4  0  0  0  0
 72 73  4  0  0  0  0
 66 74  4  0  0  0  0
 74 75  1  0  0  0  0
 75 76  2  0  0  0  0
 74 77  4  0  0  0  0
 76 78  1  0  0  0  0
 77 78  4  0  0  0  0
 78 79  4  0  0  0  0
 79 80  4  0  0  0  0
 80 81  4  0  0  0  0
 81 82  2  0  0  0  0
 82 83  4  0  0  0  0
 80 84  4  0  0  0  0
 83 84  4  0  0  0  0
 83 85  4  0  0  0  0
 85 86  1  0  0  0  0
 86 87  4  0  0  0  0
 87 88  4  0  0  0  0
 88 89  4  0  0  0  0
 89 90  1  0  0  0  0
 89 91  4  0  0  0  0
 86 92  4  0  0  0  0
 91 92  4  0  0  0  0
 85 93  4  0  0  0  0
 93 94  1  0  0  0  0
 94 95  2  0  0  0  0
 60 96  4  0  0  0  0
 95 96  1  0  0  0  0
 93 97  4  0  0  0  0
 96 97  4  0  0  0  0
 60 98  1  0  0  0  0
 62 99  1  0  0  0  0
 63100  1  0  0  0  0
 65101  1  0  0  0  0
 68102  1  0  0  0  0
 69103  1  0  0  0  0
 71104  1  0  0  0  0
 72105  1  0  0  0  0
 73106  1  0  0  0  0
 75107  1  0  0  0  0
 76108  1  0  0  0  0
 81109  1  0  0  0  0
 82110  1  0  0  0  0
 84111  1  0  0  0  0
 87112  1  0  0  0  0
 88113  1  0  0  0  0
 90114  1  0  0  0  0
 91115  1  0  0  0  0
 92116  1  0  0  0  0
 94117  1  0  0  0  0
 95118  1  0  0  0  0
 20119  4  0  0  0  0
119120  3  0  0  0  0
120121  4  0  0  0  0
121122  3  0  0  0  0
122123  4  0  0  0  0
123124  3  0  0  0  0
124125  4  0  0  0  0
125126  3  0  0  0  0
127128  3  0  0  0  0
128129  4  0  0  0  0
129130  3  0  0  0  0
130131  4  0  0  0  0
131132  3  0  0  0  0
132133  4  0  0  0  0
133134  3  0  0  0  0
135136  3  0  0  0  0
136137  4  0  0  0  0
137138  3  0  0  0  0
138139  4  0  0  0  0
139140  3  0  0  0  0
140141  4  0  0  0  0
 79142  4  0  0  0  0
141142  3  0  0  0  0
126143  4  0  0  0  0
143144  4  0  0  0  0
144145  4  0  0  0  0
145146  2  0  0  0  0
146147  4  0  0  0  0
144148  4  0  0  0  0
147148  4  0  0  0  0
147149  4  0  0  0  0
149150  1  0  0  0  0
150151  4  0  0  0  0
151152  4  0  0  0  0
152153  4  0  0  0  0
153154  1  0  0  0  0
153155  4  0  0  0  0
150156  4  0  0  0  0
155156  4  0  0  0  0
149157  4  0  0  0  0
157158  1  0  0  0  0
158159  2  0  0  0  0
157160  4  0  0  0  0
159161  1  0  0  0  0
160161  4  0  0  0  0
127162  4  0  0  0  0
161162  4  0  0  0  0
162163  4  0  0  0  0
163164  4  0  0  0  0
164165  2  0  0  0  0
165166  4  0  0  0  0
163167  4  0  0  0  0
166167  4  0  0  0  0
166168  4  0  0  0  0
168169  1  0  0  0  0
169170  4  0  0  0  0
170171  4  0  0  0  0
171172  4  0  0  0  0
172173  1  0  0  0  0
172174  4  0  0  0  0
169175  4  0  0  0  0
174175  4  0  0  0  0
168176  4  0  0  0  0
176177  1  0  0  0  0
177178  2  0  0  0  0
143179  4  0  0  0  0
178179  1  0  0  0  0
176180  4  0  0  0  0
179180  4  0  0  0  0
145181  1  0  0  0  0
146182  1  0  0  0  0
148183  1  0  0  0  0
151184  1  0  0  0  0
152185  1  0  0  0  0
154186  1  0  0  0  0
155187  1  0  0  0  0
156188  1  0  0  0  0
158189  1  0  0  0  0
159190  1  0  0  0  0
164191  1  0  0  0  0
165192  1  0  0  0  0
167193  1  0  0  0  0
170194  1  0  0  0  0
171195  1  0  0  0  0
173196  1  0  0  0  0
174197  1  0  0  0  0
175198  1  0  0  0  0
177199  1  0  0  0  0
178200  1  0  0  0  0
134201  4  0  0  0  0
201202  4  0  0  0  0
202203  4  0  0  0  0
203204  2  0  0  0  0
204205  4  0  0  0  0
202206  4  0  0  0  0
205206  4  0  0  0  0
205207  4  0  0  0  0
207208  1  0  0  0  0
208209  4  0  0  0  0
209210  4  0  0  0  0
210211  4  0  0  0  0
211212  1  0  0  0  0
211213  4  0  0  0  0
208214  4  0  0  0  0
213214  4  0  0  0  0
207215  4  0  0  0  0
215216  1  0  0  0  0
216217  2  0  0  0  0
215218  4  0  0  0  0
217219  1  0  0  0  0
218219  4  0  0  0  0
135220  4  0  0  0  0
219220  4  0  0  0  0
220221  4  0  0  0  0
221222  4  0  0  0  0
222223  2  0  0  0  0
223224  4  0  0  0  0
221225  4  0  0  0  0
224225  4  0  0  0  0
224226  4  0  0  0  0
226227  1  0  0  0  0
227228  4  0  0  0  0
228229  4  0  0  0  0
229230  4  0  0  0  0
230231  1  0  0  0  0
230232  4  0  0  0  0
227233  4  0  0  0  0
232233  4  0  0  0  0
226234  4  0  0  0  0
234235  1  0  0  0  0
235236  2  0  0  0  0
201237  4  0  0  0  0
236237  1  0  0  0  0
234238  4  0  0  0  0
237238  4  0  0  0  0
203239  1  0  0  0  0
204240  1  0  0  0  0
206241  1  0  0  0  0
209242  1  0  0  0  0
210243  1  0  0  0  0
212244  1  0  0  0  0
213245  1  0  0  0  0
214246  1  0  0  0  0
216247  1  0  0  0  0
217248  1  0  0  0  0
222249  1  0  0  0  0
223250  1  0  0  0  0
225251  1  0  0  0  0
228252  1  0  0  0  0
229253  1  0  0  0  0
231254  1  0  0  0  0
232255  1  0  0  0  0
233256  1  0  0  0  0
235257  1  0  0  0  0
236258  1  0  0  0  0
M  END
