116

Co 13.920927 0.048709 0.004358
C 10.584364 -0.107361 -0.006055
C 11.248473 -1.259565 -0.133884
C 10.598795 -2.556306 -0.284273
C 11.540624 -3.480019 -0.331665
C 12.845453 -2.815598 -0.212198
N 12.667167 -1.404019 -0.091761
C 14.035656 -3.447324 -0.167018
C 15.329289 -2.731287 -0.016550
C 16.619832 -3.406085 0.168362
C 17.554548 -2.479609 0.226156
N 15.469907 -1.442232 -0.076518
C 16.869412 -1.202196 0.070755
C 17.463986 0.000233 0.000066
C 16.702972 1.257816 -0.178844
C 17.239940 2.402887 -0.581049
C 16.196205 3.407638 -0.538991
C 15.090187 2.811192 -0.109697
C 13.805079 3.513206 0.141506
C 13.824199 4.988007 0.299466
C 13.164935 5.813959 -0.626782
C 13.203638 7.204072 -0.481684
C 13.905193 7.778032 0.582291
C 14.571236 6.962798 1.501789
C 14.534442 5.572145 1.360866
C 12.640031 2.843203 0.230208
C 11.327672 3.424140 0.508992
C 10.466079 2.427068 0.456508
C 11.219061 1.210119 0.158225
N 12.487212 1.440227 0.024792
N 15.319946 1.422566 0.137326
C 14.074437 -4.922234 -0.258925
C 13.973449 -5.554386 -1.507821
C 14.011541 -6.949634 -1.592413
C 14.151457 -7.718167 -0.432813
C 14.253305 -7.092585 0.813437
C 14.214924 -5.697634 0.902289
H 9.500963 -0.135961 -0.009044
H 9.534469 -2.746023 -0.338797
H 11.355191 -4.541885 -0.429450
H 16.797251 -4.470936 0.240467
H 18.613218 -2.664093 0.351007
H 18.269280 2.570569 -0.868210
H 16.309055 4.454280 -0.790409
H 12.626076 5.380648 -1.460462
H 12.692366 7.836511 -1.195838
H 13.935093 8.854301 0.692585
H 15.117037 7.408559 2.323261
H 15.055531 4.950251 2.078485
H 11.082827 4.456349 0.721929
H 9.398803 2.508536 0.615383
H 13.865374 -4.966836 -2.411281
H 13.932977 -7.435097 -2.556536
H 14.181095 -8.797986 -0.499951
H 14.361902 -7.688594 1.710294
H 14.294561 -5.221349 1.871799
Co 27.615094 -0.048385 0.002249
C 30.951657 0.107990 -0.001377
C 30.287548 1.264658 -0.079054
C 30.937226 2.566706 -0.172996
C 29.995397 3.491606 -0.180234
C 28.690568 2.822624 -0.089729
N 28.868854 1.407147 -0.030700
C 27.500365 3.451793 -0.017161
C 26.206732 2.729897 0.102073
C 24.916189 3.396029 0.316112
C 23.981473 2.467918 0.333622
N 26.066114 1.444662 -0.013811
C 24.666609 1.198457 0.122900
C 24.072035 0.000233 0.000066
C 24.833049 -1.248396 -0.233282
C 24.296081 -2.374923 -0.684828
C 25.339816 -3.380552 -0.686438
C 26.445834 -2.803310 -0.231651
C 27.730942 -3.515569 -0.011168
C 27.711822 -4.995838 0.082606
C 28.371086 -5.780792 -0.878633
C 28.332383 -7.175894 -0.794034
C 27.630828 -7.795512 0.244015
C 26.964785 -7.020973 1.198045
C 27.001579 -5.625513 1.117640
C 28.895990 -2.850050 0.106544
C 30.208349 -3.442544 0.359839
C 31.069942 -2.444133 0.350700
C 30.316960 -1.215381 0.105540
N 29.048809 -1.439477 -0.037759
N 26.216075 -1.426720 0.075436
C 27.461584 4.929302 -0.044938
C 27.562572 5.615087 -1.265207
C 27.524480 7.012693 -1.289135
C 27.384564 7.730149 -0.097258
C 27.282716 7.051042 1.120653
C 27.321097 5.653549 1.148850
H 32.035058 0.136693 -0.003122
H 32.001552 2.758612 -0.219230
H 30.180830 4.556716 -0.231818
H 24.738770 4.456745 0.434387
H 22.922803 2.646806 0.466366
H 23.266741 -2.529978 -0.979000
H 25.226966 -4.415290 -0.983067
H 28.909945 -5.311689 -1.692713
H 28.843655 -7.776727 -1.534976
H 27.600928 -8.875555 0.307472
H 26.418984 -7.501984 1.999387
H 26.480490 -5.035366 1.861586
H 30.453194 -4.483026 0.527756
H 32.137218 -2.532423 0.505887
H 27.670647 5.067322 -2.193327
H 27.603044 7.539561 -2.231269
H 27.354926 8.811864 -0.117445
H 27.174119 7.607546 2.042544
H 27.241460 5.135615 2.096764
C 20.030748 0.012669 0.002507
C 18.778477 -0.006512 -0.001841
C 21.344416 0.011903 0.004440
C 22.847550 -0.006512 -0.001841
