 xtb: 6.5.1 (b24c23e)
          07302205573D

136155  0     0  0            999 V2000
   17.5924    0.0304    0.0081 Cu  0  0  0  0  0  0  0  0  0  0  0  0
   14.1892    0.0942   -0.0530 C   0  0  0  0  0  0  0  0  0  0  0  0
   14.8153    1.0205    0.7682 C   0  0  0  0  0  0  0  0  0  0  0  0
   14.1319    1.9444    1.6267 C   0  0  0  0  0  0  0  0  0  0  0  0
   15.0848    2.6704    2.2636 C   0  0  0  0  0  0  0  0  0  0  0  0
   16.3593    2.2070    1.7874 C   0  0  0  0  0  0  0  0  0  0  0  0
   16.1644    1.1998    0.8867 N   0  0  0  0  0  0  0  0  0  0  0  0
   17.6003    2.7047    2.1966 C   0  0  0  0  0  0  0  0  0  0  0  0
   17.6094    3.8450    3.1428 C   0  0  0  0  0  0  0  0  0  0  0  0
   17.0007    5.0585    2.8107 C   0  0  0  0  0  0  0  0  0  0  0  0
   17.0214    6.1240    3.6909 C   0  0  0  0  0  0  0  0  0  0  0  0
   17.6434    6.0040    4.9397 C   0  0  0  0  0  0  0  0  0  0  0  0
   17.6844    7.1170    5.7670 N   0  0  0  0  0  0  0  0  0  0  0  0
   17.8795    6.9430    7.2000 C   0  0  0  0  0  0  0  0  0  0  0  0
   18.2560    4.7935    5.2760 C   0  0  0  0  0  0  0  0  0  0  0  0
   18.2366    3.7339    4.3852 C   0  0  0  0  0  0  0  0  0  0  0  0
   18.8366    2.2050    1.7789 C   0  0  0  0  0  0  0  0  0  0  0  0
   20.1097    2.7706    2.1249 C   0  0  0  0  0  0  0  0  0  0  0  0
   21.0609    2.0092    1.5262 C   0  0  0  0  0  0  0  0  0  0  0  0
   19.0327    1.1199    0.9657 N   0  0  0  0  0  0  0  0  0  0  0  0
   20.3766    0.9797    0.8044 C   0  0  0  0  0  0  0  0  0  0  0  0
   21.0185   -0.0234    0.0569 C   0  0  0  0  0  0  0  0  0  0  0  0
   20.3666   -1.0110   -0.7029 C   0  0  0  0  0  0  0  0  0  0  0  0
   21.0383   -2.0667   -1.3981 C   0  0  0  0  0  0  0  0  0  0  0  0
   20.0809   -2.8026   -2.0184 C   0  0  0  0  0  0  0  0  0  0  0  0
   18.8172   -2.1935   -1.7145 C   0  0  0  0  0  0  0  0  0  0  0  0
   19.0242   -1.1102   -0.9016 N   0  0  0  0  0  0  0  0  0  0  0  0
   17.5785   -2.6518   -2.1708 C   0  0  0  0  0  0  0  0  0  0  0  0
   17.5789   -3.7984   -3.1092 C   0  0  0  0  0  0  0  0  0  0  0  0
   18.2551   -3.7210   -4.3284 C   0  0  0  0  0  0  0  0  0  0  0  0
   18.2697   -4.7887   -5.2094 C   0  0  0  0  0  0  0  0  0  0  0  0
   17.6024   -5.9738   -4.8866 C   0  0  0  0  0  0  0  0  0  0  0  0
   17.6360   -7.0955   -5.7022 N   0  0  0  0  0  0  0  0  0  0  0  0
   17.8879   -6.9425   -7.1288 C   0  0  0  0  0  0  0  0  0  0  0  0
   16.9293   -6.0597   -3.6617 C   0  0  0  0  0  0  0  0  0  0  0  0
   16.9141   -4.9861   -2.7914 C   0  0  0  0  0  0  0  0  0  0  0  0
   16.3433   -2.1061   -1.8078 C   0  0  0  0  0  0  0  0  0  0  0  0
   15.0703   -2.5228   -2.3290 C   0  0  0  0  0  0  0  0  0  0  0  0
   14.1233   -1.7576   -1.7304 C   0  0  0  0  0  0  0  0  0  0  0  0
   14.8095   -0.8569   -0.8498 C   0  0  0  0  0  0  0  0  0  0  0  0
   16.1542   -1.0880   -0.9182 N   0  0  0  0  0  0  0  0  0  0  0  0
   13.1042    0.1149   -0.0733 H   0  0  0  0  0  0  0  0  0  0  0  0
   13.0601    2.0093    1.7307 H   0  0  0  0  0  0  0  0  0  0  0  0
   14.9431    3.4428    3.0024 H   0  0  0  0  0  0  0  0  0  0  0  0
   16.5265    5.1713    1.8418 H   0  0  0  0  0  0  0  0  0  0  0  0
   16.5561    7.0647    3.4152 H   0  0  0  0  0  0  0  0  0  0  0  0
   16.9564    7.7887    5.5555 H   0  0  0  0  0  0  0  0  0  0  0  0
   18.8940    6.5955    7.3994 H   0  0  0  0  0  0  0  0  0  0  0  0
   17.1639    6.2274    7.6210 H   0  0  0  0  0  0  0  0  0  0  0  0
   17.7431    7.9128    7.6786 H   0  0  0  0  0  0  0  0  0  0  0  0
   18.7512    4.6717    6.2316 H   0  0  0  0  0  0  0  0  0  0  0  0
   18.7008    2.7943    4.6650 H   0  0  0  0  0  0  0  0  0  0  0  0
   20.2543    3.6501    2.7311 H   0  0  0  0  0  0  0  0  0  0  0  0
   22.1318    2.1320    1.5574 H   0  0  0  0  0  0  0  0  0  0  0  0
   22.1051   -2.2241   -1.3968 H   0  0  0  0  0  0  0  0  0  0  0  0
   20.2150   -3.6914   -2.6134 H   0  0  0  0  0  0  0  0  0  0  0  0
   18.7628   -2.8011   -4.5981 H   0  0  0  0  0  0  0  0  0  0  0  0
   18.8045   -4.6937   -6.1465 H   0  0  0  0  0  0  0  0  0  0  0  0
   16.8798   -7.7416   -5.5110 H   0  0  0  0  0  0  0  0  0  0  0  0
   17.2119   -6.2080   -7.5815 H   0  0  0  0  0  0  0  0  0  0  0  0
   17.7365   -7.9121   -7.6033 H   0  0  0  0  0  0  0  0  0  0  0  0
   18.9199   -6.6305   -7.2947 H   0  0  0  0  0  0  0  0  0  0  0  0
   16.4202   -6.9804   -3.3965 H   0  0  0  0  0  0  0  0  0  0  0  0
   16.4000   -5.0728   -1.8403 H   0  0  0  0  0  0  0  0  0  0  0  0
   14.9264   -3.2929   -3.0699 H   0  0  0  0  0  0  0  0  0  0  0  0
   13.0543   -1.7818   -1.8737 H   0  0  0  0  0  0  0  0  0  0  0  0
   31.0492   -0.0139   -0.0280 Cu  0  0  0  0  0  0  0  0  0  0  0  0
   34.4524    0.0331   -0.1051 C   0  0  0  0  0  0  0  0  0  0  0  0
   33.8262   -0.9707   -0.8294 C   0  0  0  0  0  0  0  0  0  0  0  0
   34.5097   -2.0103   -1.5433 C   0  0  0  0  0  0  0  0  0  0  0  0
   33.5568   -2.7909   -2.1121 C   0  0  0  0  0  0  0  0  0  0  0  0
   32.2822   -2.2252   -1.7637 C   0  0  0  0  0  0  0  0  0  0  0  0
   32.4772   -1.1259   -0.9780 N   0  0  0  0  0  0  0  0  0  0  0  0
   31.0413   -2.7336   -2.1597 C   0  0  0  0  0  0  0  0  0  0  0  0
   31.0324   -3.9060   -3.0658 C   0  0  0  0  0  0  0  0  0  0  0  0
   31.6409   -3.8470   -4.3226 C   0  0  0  0  0  0  0  0  0  0  0  0
   31.6204   -4.9387   -5.1701 C   0  0  0  0  0  0  0  0  0  0  0  0
   30.9988   -6.1313   -4.7800 C   0  0  0  0  0  0  0  0  0  0  0  0
   30.9580   -7.1817   -5.6853 N   0  0  0  0  0  0  0  0  0  0  0  0
   30.7631   -8.5422   -5.2025 C   0  0  0  0  0  0  0  0  0  0  0  0
   30.3864   -6.1952   -3.5251 C   0  0  0  0  0  0  0  0  0  0  0  0
   30.4056   -5.0944   -2.6858 C   0  0  0  0  0  0  0  0  0  0  0  0
   29.8050   -2.2172   -1.7630 C   0  0  0  0  0  0  0  0  0  0  0  0
   28.5319   -2.6783   -2.2395 C   0  0  0  0  0  0  0  0  0  0  0  0
   27.5807   -1.9278   -1.6272 C   0  0  0  0  0  0  0  0  0  0  0  0
   29.6089   -1.1869   -0.8816 N   0  0  0  0  0  0  0  0  0  0  0  0
   28.2650   -0.9988   -0.7800 C   0  0  0  0  0  0  0  0  0  0  0  0
   27.6232   -0.0501    0.0355 C   0  0  0  0  0  0  0  0  0  0  0  0
   28.2751    0.9071    0.8332 C   0  0  0  0  0  0  0  0  0  0  0  0
   27.6033    1.8161    1.7115 C   0  0  0  0  0  0  0  0  0  0  0  0
   28.5607    2.5820    2.2943 C   0  0  0  0  0  0  0  0  0  0  0  0
   29.8245    2.1525    1.7662 C   0  0  0  0  0  0  0  0  0  0  0  0
   29.6175    1.1228    0.8865 N   0  0  0  0  0  0  0  0  0  0  0  0
   31.0631    2.6978    2.1142 C   0  0  0  0  0  0  0  0  0  0  0  0
   31.0627    3.8635    3.0288 C   0  0  0  0  0  0  0  0  0  0  0  0
   30.3863    5.0364    2.6878 C   0  0  0  0  0  0  0  0  0  0  0  0
   30.3714    6.1287    3.5382 C   0  0  0  0  0  0  0  0  0  0  0  0
   31.0388    6.0717    4.7651 C   0  0  0  0  0  0  0  0  0  0  0  0
   31.0048    7.1119    5.6824 N   0  0  0  0  0  0  0  0  0  0  0  0
   30.7532    8.4710    5.2224 C   0  0  0  0  0  0  0  0  0  0  0  0
   31.7122    4.8951    5.1155 C   0  0  0  0  0  0  0  0  0  0  0  0
   31.7276    3.8119    4.2570 C   0  0  0  0  0  0  0  0  0  0  0  0
   32.2984    2.2247    1.6607 C   0  0  0  0  0  0  0  0  0  0  0  0
   33.5713    2.8245    1.9533 C   0  0  0  0  0  0  0  0  0  0  0  0
   34.5184    2.0738    1.3366 C   0  0  0  0  0  0  0  0  0  0  0  0
   33.8321    1.0179    0.6497 C   0  0  0  0  0  0  0  0  0  0  0  0
   32.4875    1.1345    0.8610 N   0  0  0  0  0  0  0  0  0  0  0  0
   35.5373    0.0486   -0.1303 H   0  0  0  0  0  0  0  0  0  0  0  0
   35.5815   -2.1258   -1.5843 H   0  0  0  0  0  0  0  0  0  0  0  0
   33.6985   -3.6808   -2.7043 H   0  0  0  0  0  0  0  0  0  0  0  0
   32.1147   -2.9260   -4.6444 H   0  0  0  0  0  0  0  0  0  0  0  0
   32.0854   -4.8750   -6.1483 H   0  0  0  0  0  0  0  0  0  0  0  0
   31.6857   -7.1220   -6.3872 H   0  0  0  0  0  0  0  0  0  0  0  0
   29.7486   -8.6611   -4.8199 H   0  0  0  0  0  0  0  0  0  0  0  0
   31.4787   -8.7965   -4.4122 H   0  0  0  0  0  0  0  0  0  0  0  0
   30.8998   -9.2211   -6.0443 H   0  0  0  0  0  0  0  0  0  0  0  0
   29.8915   -7.1012   -3.1975 H   0  0  0  0  0  0  0  0  0  0  0  0
   29.9416   -5.1623   -1.7077 H   0  0  0  0  0  0  0  0  0  0  0  0
   28.3873   -3.4619   -2.9655 H   0  0  0  0  0  0  0  0  0  0  0  0
   26.5098   -1.9850   -1.7404 H   0  0  0  0  0  0  0  0  0  0  0  0
   26.5365    1.8492    1.8655 H   0  0  0  0  0  0  0  0  0  0  0  0
   28.4266    3.3568    3.0318 H   0  0  0  0  0  0  0  0  0  0  0  0
   29.8785    5.0993    1.7313 H   0  0  0  0  0  0  0  0  0  0  0  0
   29.8363    7.0225    3.2415 H   0  0  0  0  0  0  0  0  0  0  0  0
   31.7611    7.0659    6.3546 H   0  0  0  0  0  0  0  0  0  0  0  0
   31.4294    8.7529    4.4072 H   0  0  0  0  0  0  0  0  0  0  0  0
   30.9043    9.1452    6.0654 H   0  0  0  0  0  0  0  0  0  0  0  0
   29.7213    8.5650    4.8814 H   0  0  0  0  0  0  0  0  0  0  0  0
   32.2213    4.8367    6.0718 H   0  0  0  0  0  0  0  0  0  0  0  0
   32.2419    2.9027    4.5487 H   0  0  0  0  0  0  0  0  0  0  0  0
   33.7152    3.7155    2.5433 H   0  0  0  0  0  0  0  0  0  0  0  0
   35.5873    2.2194    1.3286 H   0  0  0  0  0  0  0  0  0  0  0  0
   23.6460   -0.0489    0.0674 C   0  0  0  0  0  0  0  0  0  0  0  0
   22.4241   -0.0389    0.0663 C   0  0  0  0  0  0  0  0  0  0  0  0
   24.9956   -0.0545    0.0624 C   0  0  0  0  0  0  0  0  0  0  0  0
   26.2175   -0.0557    0.0525 C   0  0  0  0  0  0  0  0  0  0  0  0
  2  3  4  0  0  0  0
  3  4  4  0  0  0  0
  4  5  2  0  0  0  0
  5  6  4  0  0  0  0
  1  7  1  0  0  0  0
  3  7  4  0  0  0  0
  6  7  4  0  0  0  0
  6  8  4  0  0  0  0
  8  9  1  0  0  0  0
  9 10  4  0  0  0  0
 10 11  4  0  0  0  0
 11 12  4  0  0  0  0
 12 13  1  0  0  0  0
 13 14  1  0  0  0  0
 12 15  4  0  0  0  0
  9 16  4  0  0  0  0
 15 16  4  0  0  0  0
  8 17  4  0  0  0  0
 17 18  4  0  0  0  0
 18 19  2  0  0  0  0
  1 20  1  0  0  0  0
 17 20  4  0  0  0  0
 19 21  4  0  0  0  0
 20 21  4  0  0  0  0
 21 22  4  0  0  0  0
 22 23  4  0  0  0  0
 23 24  4  0  0  0  0
 24 25  2  0  0  0  0
 25 26  4  0  0  0  0
  1 27  1  0  0  0  0
 23 27  4  0  0  0  0
 26 27  4  0  0  0  0
 26 28  4  0  0  0  0
 28 29  1  0  0  0  0
 29 30  4  0  0  0  0
 30 31  4  0  0  0  0
 31 32  4  0  0  0  0
 32 33  1  0  0  0  0
 33 34  1  0  0  0  0
 32 35  4  0  0  0  0
 29 36  4  0  0  0  0
 35 36  4  0  0  0  0
 28 37  4  0  0  0  0
 37 38  4  0  0  0  0
 38 39  2  0  0  0  0
  2 40  4  0  0  0  0
 39 40  4  0  0  0  0
  1 41  1  0  0  0  0
 37 41  4  0  0  0  0
 40 41  4  0  0  0  0
  2 42  1  0  0  0  0
  4 43  1  0  0  0  0
  5 44  1  0  0  0  0
 10 45  1  0  0  0  0
 11 46  1  0  0  0  0
 13 47  1  0  0  0  0
 14 48  1  0  0  0  0
 14 49  1  0  0  0  0
 14 50  1  0  0  0  0
 15 51  1  0  0  0  0
 16 52  1  0  0  0  0
 18 53  1  0  0  0  0
 19 54  1  0  0  0  0
 24 55  1  0  0  0  0
 25 56  1  0  0  0  0
 30 57  1  0  0  0  0
 31 58  1  0  0  0  0
 33 59  1  0  0  0  0
 34 60  1  0  0  0  0
 34 61  1  0  0  0  0
 34 62  1  0  0  0  0
 35 63  1  0  0  0  0
 36 64  1  0  0  0  0
 38 65  1  0  0  0  0
 39 66  1  0  0  0  0
 68 69  4  0  0  0  0
 69 70  4  0  0  0  0
 70 71  2  0  0  0  0
 71 72  4  0  0  0  0
 67 73  1  0  0  0  0
 69 73  4  0  0  0  0
 72 73  4  0  0  0  0
 72 74  4  0  0  0  0
 74 75  1  0  0  0  0
 75 76  4  0  0  0  0
 76 77  4  0  0  0  0
 77 78  4  0  0  0  0
 78 79  1  0  0  0  0
 79 80  1  0  0  0  0
 78 81  4  0  0  0  0
 75 82  4  0  0  0  0
 81 82  4  0  0  0  0
 74 83  4  0  0  0  0
 83 84  4  0  0  0  0
 84 85  2  0  0  0  0
 67 86  1  0  0  0  0
 83 86  4  0  0  0  0
 85 87  4  0  0  0  0
 86 87  4  0  0  0  0
 87 88  4  0  0  0  0
 88 89  4  0  0  0  0
 89 90  4  0  0  0  0
 90 91  2  0  0  0  0
 91 92  4  0  0  0  0
 67 93  1  0  0  0  0
 89 93  4  0  0  0  0
 92 93  4  0  0  0  0
 92 94  4  0  0  0  0
 94 95  1  0  0  0  0
 95 96  4  0  0  0  0
 96 97  4  0  0  0  0
 97 98  4  0  0  0  0
 98 99  1  0  0  0  0
 99100  1  0  0  0  0
 98101  4  0  0  0  0
 95102  4  0  0  0  0
101102  4  0  0  0  0
 94103  4  0  0  0  0
103104  4  0  0  0  0
104105  2  0  0  0  0
 68106  4  0  0  0  0
105106  4  0  0  0  0
 67107  1  0  0  0  0
103107  4  0  0  0  0
106107  4  0  0  0  0
 68108  1  0  0  0  0
 70109  1  0  0  0  0
 71110  1  0  0  0  0
 76111  1  0  0  0  0
 77112  1  0  0  0  0
 79113  1  0  0  0  0
 80114  1  0  0  0  0
 80115  1  0  0  0  0
 80116  1  0  0  0  0
 81117  1  0  0  0  0
 82118  1  0  0  0  0
 84119  1  0  0  0  0
 85120  1  0  0  0  0
 90121  1  0  0  0  0
 91122  1  0  0  0  0
 96123  1  0  0  0  0
 97124  1  0  0  0  0
 99125  1  0  0  0  0
100126  1  0  0  0  0
100127  1  0  0  0  0
100128  1  0  0  0  0
101129  1  0  0  0  0
102130  1  0  0  0  0
104131  1  0  0  0  0
105132  1  0  0  0  0
 22134  4  0  0  0  0
133134  3  0  0  0  0
133135  4  0  0  0  0
 88136  4  0  0  0  0
135136  3  0  0  0  0
M  END
