 xtb: 6.5.1 (b24c23e)
          07302207583D

132151  0     0  0            999 V2000
   13.1802   -0.0198    0.0090 Cu  0  0  0  0  0  0  0  0  0  0  0  0
    9.7775   -0.0031    0.1679 C   0  0  0  0  0  0  0  0  0  0  0  0
   10.4139    1.2224    0.2941 C   0  0  0  0  0  0  0  0  0  0  0  0
    9.7404    2.4807    0.4463 C   0  0  0  0  0  0  0  0  0  0  0  0
   10.7002    3.4340    0.5363 C   0  0  0  0  0  0  0  0  0  0  0  0
   11.9702    2.7644    0.4521 C   0  0  0  0  0  0  0  0  0  0  0  0
   11.7647    1.4241    0.2968 N   0  0  0  0  0  0  0  0  0  0  0  0
   13.2163    3.3934    0.5038 C   0  0  0  0  0  0  0  0  0  0  0  0
   13.2318    4.8630    0.7135 C   0  0  0  0  0  0  0  0  0  0  0  0
   12.7051    5.4168    1.8767 C   0  0  0  0  0  0  0  0  0  0  0  0
   12.7194    6.7973    2.0724 C   0  0  0  0  0  0  0  0  0  0  0  0
   12.1453    7.3269    3.3347 C   0  0  0  0  0  0  0  0  0  0  0  0
   12.2141    8.6625    3.4358 O   0  0  0  0  0  0  0  0  0  0  0  0
   11.6575    6.6448    4.1992 O   0  0  0  0  0  0  0  0  0  0  0  0
   13.2609    7.6359    1.0982 C   0  0  0  0  0  0  0  0  0  0  0  0
   13.7846    7.0869   -0.0617 C   0  0  0  0  0  0  0  0  0  0  0  0
   13.7731    5.7126   -0.2542 C   0  0  0  0  0  0  0  0  0  0  0  0
   14.4481    2.7487    0.3763 C   0  0  0  0  0  0  0  0  0  0  0  0
   15.7275    3.3885    0.4983 C   0  0  0  0  0  0  0  0  0  0  0  0
   16.6708    2.4287    0.3226 C   0  0  0  0  0  0  0  0  0  0  0  0
   14.6328    1.4123    0.1407 N   0  0  0  0  0  0  0  0  0  0  0  0
   15.9756    1.1967    0.0990 C   0  0  0  0  0  0  0  0  0  0  0  0
   16.6072   -0.0378   -0.1365 C   0  0  0  0  0  0  0  0  0  0  0  0
   15.9447   -1.2639   -0.3235 C   0  0  0  0  0  0  0  0  0  0  0  0
   16.6051   -2.5020   -0.6103 C   0  0  0  0  0  0  0  0  0  0  0  0
   15.6398   -3.4509   -0.7104 C   0  0  0  0  0  0  0  0  0  0  0  0
   14.3823   -2.7987   -0.4761 C   0  0  0  0  0  0  0  0  0  0  0  0
   14.6006   -1.4647   -0.2539 N   0  0  0  0  0  0  0  0  0  0  0  0
   13.1378   -3.4315   -0.4907 C   0  0  0  0  0  0  0  0  0  0  0  0
   13.1191   -4.9023   -0.6937 C   0  0  0  0  0  0  0  0  0  0  0  0
   13.7408   -5.7500    0.2259 C   0  0  0  0  0  0  0  0  0  0  0  0
   13.7192   -7.1262    0.0467 C   0  0  0  0  0  0  0  0  0  0  0  0
   13.0798   -7.6732   -1.0531 C   0  0  0  0  0  0  0  0  0  0  0  0
   12.4564   -6.8366   -1.9804 C   0  0  0  0  0  0  0  0  0  0  0  0
   11.7819   -7.4622   -3.1452 C   0  0  0  0  0  0  0  0  0  0  0  0
   11.2030   -6.5774   -3.9705 O   0  0  0  0  0  0  0  0  0  0  0  0
   11.7421   -8.6484   -3.3509 O   0  0  0  0  0  0  0  0  0  0  0  0
   12.4760   -5.4550   -1.7991 C   0  0  0  0  0  0  0  0  0  0  0  0
   11.9077   -2.7910   -0.3222 C   0  0  0  0  0  0  0  0  0  0  0  0
   10.6295   -3.4490   -0.2823 C   0  0  0  0  0  0  0  0  0  0  0  0
    9.6913   -2.4868   -0.1020 C   0  0  0  0  0  0  0  0  0  0  0  0
   10.3874   -1.2347   -0.0180 C   0  0  0  0  0  0  0  0  0  0  0  0
   11.7299   -1.4487   -0.1512 N   0  0  0  0  0  0  0  0  0  0  0  0
    8.6937    0.0019    0.2207 H   0  0  0  0  0  0  0  0  0  0  0  0
    8.6693    2.6052    0.4705 H   0  0  0  0  0  0  0  0  0  0  0  0
   10.5669    4.4987    0.6407 H   0  0  0  0  0  0  0  0  0  0  0  0
   12.2917    4.7791    2.6504 H   0  0  0  0  0  0  0  0  0  0  0  0
   11.8209    8.9281    4.2829 H   0  0  0  0  0  0  0  0  0  0  0  0
   13.2690    8.7083    1.2508 H   0  0  0  0  0  0  0  0  0  0  0  0
   14.2041    7.7332   -0.8244 H   0  0  0  0  0  0  0  0  0  0  0  0
   14.1737    5.2907   -1.1692 H   0  0  0  0  0  0  0  0  0  0  0  0
   15.8810    4.4348    0.7077 H   0  0  0  0  0  0  0  0  0  0  0  0
   17.7434    2.5357    0.3481 H   0  0  0  0  0  0  0  0  0  0  0  0
   17.6708   -2.6188   -0.7261 H   0  0  0  0  0  0  0  0  0  0  0  0
   15.7627   -4.4976   -0.9376 H   0  0  0  0  0  0  0  0  0  0  0  0
   14.2304   -5.3241    1.0946 H   0  0  0  0  0  0  0  0  0  0  0  0
   14.2021   -7.7716    0.7715 H   0  0  0  0  0  0  0  0  0  0  0  0
   13.0529   -8.7458   -1.2084 H   0  0  0  0  0  0  0  0  0  0  0  0
   10.7873   -7.0645   -4.7005 H   0  0  0  0  0  0  0  0  0  0  0  0
   12.0022   -4.8075   -2.5274 H   0  0  0  0  0  0  0  0  0  0  0  0
   10.4768   -4.5127   -0.3696 H   0  0  0  0  0  0  0  0  0  0  0  0
    8.6219   -2.6018   -0.0215 H   0  0  0  0  0  0  0  0  0  0  0  0
   31.7750    0.0129    0.0130 Cu  0  0  0  0  0  0  0  0  0  0  0  0
   35.1776   -0.0506    0.1623 C   0  0  0  0  0  0  0  0  0  0  0  0
   34.5434   -1.2512   -0.1192 C   0  0  0  0  0  0  0  0  0  0  0  0
   35.2189   -2.4895   -0.3848 C   0  0  0  0  0  0  0  0  0  0  0  0
   34.2606   -3.4211   -0.6127 C   0  0  0  0  0  0  0  0  0  0  0  0
   32.9896   -2.7621   -0.4758 C   0  0  0  0  0  0  0  0  0  0  0  0
   33.1930   -1.4444   -0.1848 N   0  0  0  0  0  0  0  0  0  0  0  0
   31.7442   -3.3749   -0.6334 C   0  0  0  0  0  0  0  0  0  0  0  0
   31.7295   -4.8327   -0.9140 C   0  0  0  0  0  0  0  0  0  0  0  0
   32.2562   -5.7352    0.0054 C   0  0  0  0  0  0  0  0  0  0  0  0
   32.2403   -7.1043   -0.2585 C   0  0  0  0  0  0  0  0  0  0  0  0
   32.8135   -8.0163    0.7630 C   0  0  0  0  0  0  0  0  0  0  0  0
   32.7468   -9.3118    0.4224 O   0  0  0  0  0  0  0  0  0  0  0  0
   33.2990   -7.6533    1.8036 O   0  0  0  0  0  0  0  0  0  0  0  0
   31.6973   -7.5800   -1.4519 C   0  0  0  0  0  0  0  0  0  0  0  0
   31.1739   -6.6831   -2.3699 C   0  0  0  0  0  0  0  0  0  0  0  0
   31.1871   -5.3210   -2.1051 C   0  0  0  0  0  0  0  0  0  0  0  0
   30.5116   -2.7253   -0.5438 C   0  0  0  0  0  0  0  0  0  0  0  0
   29.2331   -3.3716   -0.6372 C   0  0  0  0  0  0  0  0  0  0  0  0
   28.2884   -2.4085   -0.4893 C   0  0  0  0  0  0  0  0  0  0  0  0
   30.3250   -1.3854   -0.3300 N   0  0  0  0  0  0  0  0  0  0  0  0
   28.9818   -1.1700   -0.2985 C   0  0  0  0  0  0  0  0  0  0  0  0
   28.3479    0.0724   -0.1172 C   0  0  0  0  0  0  0  0  0  0  0  0
   29.0083    1.2939    0.1051 C   0  0  0  0  0  0  0  0  0  0  0  0
   28.3461    2.5568    0.2379 C   0  0  0  0  0  0  0  0  0  0  0  0
   29.3101    3.4880    0.4518 C   0  0  0  0  0  0  0  0  0  0  0  0
   30.5686    2.7969    0.4601 C   0  0  0  0  0  0  0  0  0  0  0  0
   30.3521    1.4630    0.2355 N   0  0  0  0  0  0  0  0  0  0  0  0
   31.8124    3.4013    0.6526 C   0  0  0  0  0  0  0  0  0  0  0  0
   31.8300    4.8578    0.9410 C   0  0  0  0  0  0  0  0  0  0  0  0
   31.2094    5.3583    2.0877 C   0  0  0  0  0  0  0  0  0  0  0  0
   31.2322    6.7174    2.3685 C   0  0  0  0  0  0  0  0  0  0  0  0
   31.8717    7.5937    1.5078 C   0  0  0  0  0  0  0  0  0  0  0  0
   32.4936    7.1062    0.3573 C   0  0  0  0  0  0  0  0  0  0  0  0
   33.1690    8.0777   -0.5390 C   0  0  0  0  0  0  0  0  0  0  0  0
   33.7489    7.5108   -1.6072 O   0  0  0  0  0  0  0  0  0  0  0  0
   33.2090    9.2661   -0.3459 O   0  0  0  0  0  0  0  0  0  0  0  0
   32.4727    5.7414    0.0765 C   0  0  0  0  0  0  0  0  0  0  0  0
   33.0432    2.7422    0.6039 C   0  0  0  0  0  0  0  0  0  0  0  0
   34.3203    3.3529    0.8576 C   0  0  0  0  0  0  0  0  0  0  0  0
   35.2598    2.3855    0.7162 C   0  0  0  0  0  0  0  0  0  0  0  0
   34.5656    1.1734    0.3867 C   0  0  0  0  0  0  0  0  0  0  0  0
   33.2229    1.4176    0.3285 N   0  0  0  0  0  0  0  0  0  0  0  0
   36.2614   -0.0711    0.2129 H   0  0  0  0  0  0  0  0  0  0  0  0
   36.2901   -2.6138   -0.4005 H   0  0  0  0  0  0  0  0  0  0  0  0
   34.3954   -4.4614   -0.8614 H   0  0  0  0  0  0  0  0  0  0  0  0
   32.6705   -5.3842    0.9442 H   0  0  0  0  0  0  0  0  0  0  0  0
   33.1394   -9.8390    1.1371 H   0  0  0  0  0  0  0  0  0  0  0  0
   31.6874   -8.6438   -1.6561 H   0  0  0  0  0  0  0  0  0  0  0  0
   30.7530   -7.0459   -3.3009 H   0  0  0  0  0  0  0  0  0  0  0  0
   30.7866   -4.6240   -2.8328 H   0  0  0  0  0  0  0  0  0  0  0  0
   29.0808   -4.4291   -0.7810 H   0  0  0  0  0  0  0  0  0  0  0  0
   27.2160   -2.5194   -0.5000 H   0  0  0  0  0  0  0  0  0  0  0  0
   27.2801    2.7034    0.1671 H   0  0  0  0  0  0  0  0  0  0  0  0
   29.1857    4.5514    0.5783 H   0  0  0  0  0  0  0  0  0  0  0  0
   30.7201    4.6720    2.7698 H   0  0  0  0  0  0  0  0  0  0  0  0
   30.7505    7.0905    3.2651 H   0  0  0  0  0  0  0  0  0  0  0  0
   31.8999    8.6580    1.7122 H   0  0  0  0  0  0  0  0  0  0  0  0
   34.1655    8.2094   -2.1376 H   0  0  0  0  0  0  0  0  0  0  0  0
   32.9455    5.3673   -0.8239 H   0  0  0  0  0  0  0  0  0  0  0  0
   34.4713    4.3872    1.1216 H   0  0  0  0  0  0  0  0  0  0  0  0
   36.3289    2.4692    0.8314 H   0  0  0  0  0  0  0  0  0  0  0  0
   18.0118   -0.0421   -0.1821 C   0  0  0  0  0  0  0  0  0  0  0  0
   19.2359   -0.0286   -0.2072 C   0  0  0  0  0  0  0  0  0  0  0  0
   20.5785   -0.0105   -0.2254 C   0  0  0  0  0  0  0  0  0  0  0  0
   21.8086    0.0231   -0.2304 C   0  0  0  0  0  0  0  0  0  0  0  0
   23.1463    0.0485   -0.2238 C   0  0  0  0  0  0  0  0  0  0  0  0
   24.3766    0.0750   -0.2087 C   0  0  0  0  0  0  0  0  0  0  0  0
   25.7191    0.0853   -0.1846 C   0  0  0  0  0  0  0  0  0  0  0  0
   26.9432    0.0890   -0.1574 C   0  0  0  0  0  0  0  0  0  0  0  0
  2  3  4  0  0  0  0
  3  4  1  0  0  0  0
  4  5  2  0  0  0  0
  5  6  4  0  0  0  0
  1  7  1  0  0  0  0
  3  7  4  0  0  0  0
  6  7  4  0  0  0  0
  6  8  4  0  0  0  0
  8  9  1  0  0  0  0
  9 10  4  0  0  0  0
 10 11  4  0  0  0  0
 11 12  1  0  0  0  0
 12 13  4  0  0  0  0
 12 14  2  0  0  0  0
 11 15  4  0  0  0  0
 15 16  4  0  0  0  0
  9 17  4  0  0  0  0
 16 17  4  0  0  0  0
  8 18  4  0  0  0  0
 18 19  4  0  0  0  0
 19 20  2  0  0  0  0
  1 21  1  0  0  0  0
 18 21  4  0  0  0  0
 20 22  4  0  0  0  0
 21 22  4  0  0  0  0
 22 23  4  0  0  0  0
 23 24  4  0  0  0  0
 24 25  4  0  0  0  0
 25 26  2  0  0  0  0
 26 27  4  0  0  0  0
  1 28  1  0  0  0  0
 24 28  4  0  0  0  0
 27 28  4  0  0  0  0
 27 29  4  0  0  0  0
 29 30  1  0  0  0  0
 30 31  4  0  0  0  0
 31 32  4  0  0  0  0
 32 33  4  0  0  0  0
 33 34  4  0  0  0  0
 34 35  1  0  0  0  0
 35 36  4  0  0  0  0
 35 37  2  0  0  0  0
 30 38  4  0  0  0  0
 34 38  4  0  0  0  0
 29 39  4  0  0  0  0
 39 40  4  0  0  0  0
 40 41  2  0  0  0  0
  2 42  4  0  0  0  0
 41 42  1  0  0  0  0
  1 43  1  0  0  0  0
 39 43  4  0  0  0  0
 42 43  4  0  0  0  0
  2 44  1  0  0  0  0
  4 45  1  0  0  0  0
  5 46  1  0  0  0  0
 10 47  1  0  0  0  0
 13 48  1  0  0  0  0
 15 49  1  0  0  0  0
 16 50  1  0  0  0  0
 17 51  1  0  0  0  0
 19 52  1  0  0  0  0
 20 53  1  0  0  0  0
 25 54  1  0  0  0  0
 26 55  1  0  0  0  0
 31 56  1  0  0  0  0
 32 57  1  0  0  0  0
 33 58  1  0  0  0  0
 36 59  1  0  0  0  0
 38 60  1  0  0  0  0
 40 61  1  0  0  0  0
 41 62  1  0  0  0  0
 64 65  4  0  0  0  0
 65 66  1  0  0  0  0
 66 67  2  0  0  0  0
 67 68  4  0  0  0  0
 63 69  1  0  0  0  0
 65 69  4  0  0  0  0
 68 69  4  0  0  0  0
 68 70  4  0  0  0  0
 70 71  1  0  0  0  0
 71 72  4  0  0  0  0
 72 73  4  0  0  0  0
 73 74  1  0  0  0  0
 74 75  4  0  0  0  0
 74 76  2  0  0  0  0
 73 77  4  0  0  0  0
 77 78  4  0  0  0  0
 71 79  4  0  0  0  0
 78 79  4  0  0  0  0
 70 80  4  0  0  0  0
 80 81  4  0  0  0  0
 81 82  2  0  0  0  0
 63 83  1  0  0  0  0
 80 83  4  0  0  0  0
 82 84  4  0  0  0  0
 83 84  4  0  0  0  0
 84 85  4  0  0  0  0
 85 86  4  0  0  0  0
 86 87  4  0  0  0  0
 87 88  2  0  0  0  0
 88 89  4  0  0  0  0
 63 90  1  0  0  0  0
 86 90  4  0  0  0  0
 89 90  4  0  0  0  0
 89 91  4  0  0  0  0
 91 92  1  0  0  0  0
 92 93  4  0  0  0  0
 93 94  4  0  0  0  0
 94 95  4  0  0  0  0
 95 96  4  0  0  0  0
 96 97  1  0  0  0  0
 97 98  4  0  0  0  0
 97 99  2  0  0  0  0
 92100  4  0  0  0  0
 96100  4  0  0  0  0
 91101  4  0  0  0  0
101102  4  0  0  0  0
102103  2  0  0  0  0
 64104  4  0  0  0  0
103104  1  0  0  0  0
 63105  1  0  0  0  0
101105  4  0  0  0  0
104105  4  0  0  0  0
 64106  1  0  0  0  0
 66107  1  0  0  0  0
 67108  1  0  0  0  0
 72109  1  0  0  0  0
 75110  1  0  0  0  0
 77111  1  0  0  0  0
 78112  1  0  0  0  0
 79113  1  0  0  0  0
 81114  1  0  0  0  0
 82115  1  0  0  0  0
 87116  1  0  0  0  0
 88117  1  0  0  0  0
 93118  1  0  0  0  0
 94119  1  0  0  0  0
 95120  1  0  0  0  0
 98121  1  0  0  0  0
100122  1  0  0  0  0
102123  1  0  0  0  0
103124  1  0  0  0  0
 23125  4  0  0  0  0
125126  3  0  0  0  0
126127  4  0  0  0  0
127128  3  0  0  0  0
128129  4  0  0  0  0
129130  3  0  0  0  0
130131  4  0  0  0  0
 85132  4  0  0  0  0
131132  3  0  0  0  0
M  END
