 xtb: 6.5.1 (b24c23e)
          07302207343D

144163  0     0  0            999 V2000
   12.9238    0.0215   -0.0389 Cu  0  0  0  0  0  0  0  0  0  0  0  0
    9.5366    0.1953   -0.3535 C   0  0  0  0  0  0  0  0  0  0  0  0
   10.1881    1.3586    0.0287 C   0  0  0  0  0  0  0  0  0  0  0  0
    9.5336    2.5985    0.3343 C   0  0  0  0  0  0  0  0  0  0  0  0
   10.5026    3.4824    0.6790 C   0  0  0  0  0  0  0  0  0  0  0  0
   11.7602    2.7932    0.5759 C   0  0  0  0  0  0  0  0  0  0  0  0
   11.5368    1.5033    0.1882 N   0  0  0  0  0  0  0  0  0  0  0  0
   13.0095    3.3551    0.8495 C   0  0  0  0  0  0  0  0  0  0  0  0
   14.2261    2.6739    0.7819 C   0  0  0  0  0  0  0  0  0  0  0  0
   15.5137    3.2692    1.0032 C   0  0  0  0  0  0  0  0  0  0  0  0
   16.4396    2.2921    0.8305 C   0  0  0  0  0  0  0  0  0  0  0  0
   14.3900    1.3501    0.4683 N   0  0  0  0  0  0  0  0  0  0  0  0
   15.7264    1.0957    0.4977 C   0  0  0  0  0  0  0  0  0  0  0  0
   16.3380   -0.1426    0.2330 C   0  0  0  0  0  0  0  0  0  0  0  0
   15.6595   -1.3237   -0.1155 C   0  0  0  0  0  0  0  0  0  0  0  0
   16.3040   -2.5730   -0.3895 C   0  0  0  0  0  0  0  0  0  0  0  0
   15.3269   -3.4620   -0.7006 C   0  0  0  0  0  0  0  0  0  0  0  0
   14.0767   -2.7614   -0.6148 C   0  0  0  0  0  0  0  0  0  0  0  0
   12.8283   -3.3207   -0.8913 C   0  0  0  0  0  0  0  0  0  0  0  0
   12.7890   -4.7620   -1.2495 C   0  0  0  0  0  0  0  0  0  0  0  0
   12.3652   -5.1619   -2.5148 C   0  0  0  0  0  0  0  0  0  0  0  0
   12.3348   -6.5109   -2.8565 C   0  0  0  0  0  0  0  0  0  0  0  0
   11.8659   -6.9317   -4.2234 C   0  0  0  0  0  0  0  0  0  0  0  0
   12.7247   -7.4602   -1.9184 C   0  0  0  0  0  0  0  0  0  0  0  0
   13.1468   -7.0763   -0.6478 C   0  0  0  0  0  0  0  0  0  0  0  0
   13.5794   -8.1174    0.3493 C   0  0  0  0  0  0  0  0  0  0  0  0
   13.1802   -5.7260   -0.3205 C   0  0  0  0  0  0  0  0  0  0  0  0
   11.6152   -2.6292   -0.8602 C   0  0  0  0  0  0  0  0  0  0  0  0
   10.3257   -3.2099   -1.1188 C   0  0  0  0  0  0  0  0  0  0  0  0
    9.4072   -2.2226   -0.9745 C   0  0  0  0  0  0  0  0  0  0  0  0
   10.1251   -1.0327   -0.6164 C   0  0  0  0  0  0  0  0  0  0  0  0
   11.4614   -1.3079   -0.5527 N   0  0  0  0  0  0  0  0  0  0  0  0
   14.3134   -1.4593   -0.2599 N   0  0  0  0  0  0  0  0  0  0  0  0
   13.0491    4.7877    1.2386 C   0  0  0  0  0  0  0  0  0  0  0  0
   12.6166    5.7716    0.3502 C   0  0  0  0  0  0  0  0  0  0  0  0
   12.6578    7.1145    0.7087 C   0  0  0  0  0  0  0  0  0  0  0  0
   12.2160    8.1764   -0.2619 C   0  0  0  0  0  0  0  0  0  0  0  0
   13.1336    7.4704    1.9675 C   0  0  0  0  0  0  0  0  0  0  0  0
   13.5670    6.5004    2.8660 C   0  0  0  0  0  0  0  0  0  0  0  0
   14.0578    6.8938    4.2332 C   0  0  0  0  0  0  0  0  0  0  0  0
   13.5233    5.1604    2.4954 C   0  0  0  0  0  0  0  0  0  0  0  0
    8.4563    0.2478   -0.4426 H   0  0  0  0  0  0  0  0  0  0  0  0
    8.4672    2.7564    0.2943 H   0  0  0  0  0  0  0  0  0  0  0  0
   10.3830    4.5086    0.9876 H   0  0  0  0  0  0  0  0  0  0  0  0
   15.6842    4.3058    1.2446 H   0  0  0  0  0  0  0  0  0  0  0  0
   17.5121    2.3670    0.9139 H   0  0  0  0  0  0  0  0  0  0  0  0
   17.3690   -2.7378   -0.3504 H   0  0  0  0  0  0  0  0  0  0  0  0
   15.4386   -4.4979   -0.9771 H   0  0  0  0  0  0  0  0  0  0  0  0
   12.0744   -4.4119   -3.2424 H   0  0  0  0  0  0  0  0  0  0  0  0
   12.2189   -7.9342   -4.4653 H   0  0  0  0  0  0  0  0  0  0  0  0
   10.7740   -6.9360   -4.2571 H   0  0  0  0  0  0  0  0  0  0  0  0
   12.2240   -6.2380   -4.9848 H   0  0  0  0  0  0  0  0  0  0  0  0
   12.7014   -8.5136   -2.1783 H   0  0  0  0  0  0  0  0  0  0  0  0
   13.6106   -7.7040    1.3573 H   0  0  0  0  0  0  0  0  0  0  0  0
   12.8968   -8.9681    0.3381 H   0  0  0  0  0  0  0  0  0  0  0  0
   14.5774   -8.4825    0.0970 H   0  0  0  0  0  0  0  0  0  0  0  0
   13.4977   -5.4140    0.6685 H   0  0  0  0  0  0  0  0  0  0  0  0
   10.1520   -4.2443   -1.3682 H   0  0  0  0  0  0  0  0  0  0  0  0
    8.3363   -2.2824   -1.0898 H   0  0  0  0  0  0  0  0  0  0  0  0
   12.2621    5.4831   -0.6333 H   0  0  0  0  0  0  0  0  0  0  0  0
   11.7394    9.0055    0.2620 H   0  0  0  0  0  0  0  0  0  0  0  0
   11.5155    7.7702   -0.9917 H   0  0  0  0  0  0  0  0  0  0  0  0
   13.0809    8.5693   -0.8013 H   0  0  0  0  0  0  0  0  0  0  0  0
   13.1674    8.5174    2.2509 H   0  0  0  0  0  0  0  0  0  0  0  0
   13.2222    6.9116    4.9366 H   0  0  0  0  0  0  0  0  0  0  0  0
   14.5059    7.8875    4.2138 H   0  0  0  0  0  0  0  0  0  0  0  0
   14.7955    6.1804    4.6010 H   0  0  0  0  0  0  0  0  0  0  0  0
   13.8465    4.3943    3.1918 H   0  0  0  0  0  0  0  0  0  0  0  0
   31.4878    0.0286   -0.0337 Cu  0  0  0  0  0  0  0  0  0  0  0  0
   34.8752    0.2793   -0.2879 C   0  0  0  0  0  0  0  0  0  0  0  0
   34.2228   -0.4089   -1.3001 C   0  0  0  0  0  0  0  0  0  0  0  0
   34.8765   -1.0455   -2.4076 C   0  0  0  0  0  0  0  0  0  0  0  0
   33.9069   -1.6214   -3.1609 C   0  0  0  0  0  0  0  0  0  0  0  0
   32.6498   -1.3319   -2.5261 C   0  0  0  0  0  0  0  0  0  0  0  0
   32.8739   -0.6020   -1.3942 N   0  0  0  0  0  0  0  0  0  0  0  0
   31.4004   -1.7523   -2.9884 C   0  0  0  0  0  0  0  0  0  0  0  0
   30.1841   -1.4995   -2.3514 C   0  0  0  0  0  0  0  0  0  0  0  0
   28.8965   -1.8800   -2.8597 C   0  0  0  0  0  0  0  0  0  0  0  0
   27.9709   -1.4413   -1.9694 C   0  0  0  0  0  0  0  0  0  0  0  0
   30.0206   -0.8281   -1.1682 N   0  0  0  0  0  0  0  0  0  0  0  0
   28.6843   -0.7857   -0.9149 C   0  0  0  0  0  0  0  0  0  0  0  0
   28.0734   -0.1837    0.1995 C   0  0  0  0  0  0  0  0  0  0  0  0
   28.7526    0.4809    1.2358 C   0  0  0  0  0  0  0  0  0  0  0  0
   28.1083    1.0940    2.3584 C   0  0  0  0  0  0  0  0  0  0  0  0
   29.0858    1.6394    3.1257 C   0  0  0  0  0  0  0  0  0  0  0  0
   30.3360    1.3590    2.4781 C   0  0  0  0  0  0  0  0  0  0  0  0
   31.5848    1.7778    2.9392 C   0  0  0  0  0  0  0  0  0  0  0  0
   31.6242    2.5232    4.2237 C   0  0  0  0  0  0  0  0  0  0  0  0
   32.0516    3.8486    4.2562 C   0  0  0  0  0  0  0  0  0  0  0  0
   32.0819    4.5524    5.4567 C   0  0  0  0  0  0  0  0  0  0  0  0
   32.5554    5.9808    5.4810 C   0  0  0  0  0  0  0  0  0  0  0  0
   31.6879    3.9170    6.6290 C   0  0  0  0  0  0  0  0  0  0  0  0
   31.2618    2.5911    6.6133 C   0  0  0  0  0  0  0  0  0  0  0  0
   30.8247    1.9245    7.8901 C   0  0  0  0  0  0  0  0  0  0  0  0
   31.2289    1.9007    5.4076 C   0  0  0  0  0  0  0  0  0  0  0  0
   32.7980    1.5527    2.2848 C   0  0  0  0  0  0  0  0  0  0  0  0
   34.0881    1.9598    2.7717 C   0  0  0  0  0  0  0  0  0  0  0  0
   35.0063    1.5452    1.8637 C   0  0  0  0  0  0  0  0  0  0  0  0
   34.2876    0.8725    0.8196 C   0  0  0  0  0  0  0  0  0  0  0  0
   32.9513    0.8900    1.1011 N   0  0  0  0  0  0  0  0  0  0  0  0
   30.0988    0.6552    1.3266 N   0  0  0  0  0  0  0  0  0  0  0  0
   31.3606   -2.5245   -4.2563 C   0  0  0  0  0  0  0  0  0  0  0  0
   31.7903   -1.9438   -5.4490 C   0  0  0  0  0  0  0  0  0  0  0  0
   31.7494   -2.6619   -6.6391 C   0  0  0  0  0  0  0  0  0  0  0  0
   32.1883   -2.0240   -7.9296 C   0  0  0  0  0  0  0  0  0  0  0  0
   31.2768   -3.9712   -6.6302 C   0  0  0  0  0  0  0  0  0  0  0  0
   30.8462   -4.5653   -5.4480 C   0  0  0  0  0  0  0  0  0  0  0  0
   30.3589   -5.9892   -5.4449 C   0  0  0  0  0  0  0  0  0  0  0  0
   30.8895   -3.8365   -4.2640 C   0  0  0  0  0  0  0  0  0  0  0  0
   35.9556    0.3491   -0.3632 H   0  0  0  0  0  0  0  0  0  0  0  0
   35.9428   -1.0506   -2.5711 H   0  0  0  0  0  0  0  0  0  0  0  0
   34.0259   -2.2017   -4.0618 H   0  0  0  0  0  0  0  0  0  0  0  0
   28.7257   -2.4026   -3.7869 H   0  0  0  0  0  0  0  0  0  0  0  0
   26.8985   -1.5434   -2.0170 H   0  0  0  0  0  0  0  0  0  0  0  0
   27.0433    1.1043    2.5268 H   0  0  0  0  0  0  0  0  0  0  0  0
   28.9742    2.1943    4.0432 H   0  0  0  0  0  0  0  0  0  0  0  0
   32.3455    4.3378    3.3336 H   0  0  0  0  0  0  0  0  0  0  0  0
   32.2034    6.4934    6.3762 H   0  0  0  0  0  0  0  0  0  0  0  0
   33.6474    6.0106    5.4766 H   0  0  0  0  0  0  0  0  0  0  0  0
   32.2000    6.5203    4.6024 H   0  0  0  0  0  0  0  0  0  0  0  0
   31.7111    4.4599    7.5684 H   0  0  0  0  0  0  0  0  0  0  0  0
   30.7881    0.8416    7.7728 H   0  0  0  0  0  0  0  0  0  0  0  0
   31.5078    2.1682    8.7048 H   0  0  0  0  0  0  0  0  0  0  0  0
   29.8281    2.2734    8.1699 H   0  0  0  0  0  0  0  0  0  0  0  0
   30.9084    0.8649    5.3828 H   0  0  0  0  0  0  0  0  0  0  0  0
   34.2622    2.4862    3.6964 H   0  0  0  0  0  0  0  0  0  0  0  0
   36.0774    1.6705    1.8899 H   0  0  0  0  0  0  0  0  0  0  0  0
   32.1424   -0.9180   -5.4459 H   0  0  0  0  0  0  0  0  0  0  0  0
   32.6650   -2.7571   -8.5810 H   0  0  0  0  0  0  0  0  0  0  0  0
   32.8878   -1.2090   -7.7434 H   0  0  0  0  0  0  0  0  0  0  0  0
   31.3220   -1.6166   -8.4557 H   0  0  0  0  0  0  0  0  0  0  0  0
   31.2433   -4.5348   -7.5570 H   0  0  0  0  0  0  0  0  0  0  0  0
   31.1964   -6.6677   -5.2669 H   0  0  0  0  0  0  0  0  0  0  0  0
   29.9106   -6.2484   -6.4043 H   0  0  0  0  0  0  0  0  0  0  0  0
   29.6223   -6.1458   -4.6566 H   0  0  0  0  0  0  0  0  0  0  0  0
   30.5686   -4.2930   -3.3341 H   0  0  0  0  0  0  0  0  0  0  0  0
   17.7410   -0.1978    0.3038 C   0  0  0  0  0  0  0  0  0  0  0  0
   18.9639   -0.2369    0.3460 C   0  0  0  0  0  0  0  0  0  0  0  0
   20.3063   -0.2704    0.3753 C   0  0  0  0  0  0  0  0  0  0  0  0
   21.5366   -0.2823    0.3899 C   0  0  0  0  0  0  0  0  0  0  0  0
   22.8749   -0.2897    0.3844 C   0  0  0  0  0  0  0  0  0  0  0  0
   24.1051   -0.2888    0.3598 C   0  0  0  0  0  0  0  0  0  0  0  0
   25.4475   -0.2660    0.3214 C   0  0  0  0  0  0  0  0  0  0  0  0
   26.6704   -0.2345    0.2734 C   0  0  0  0  0  0  0  0  0  0  0  0
  2  3  4  0  0  0  0
  3  4  1  0  0  0  0
  4  5  2  0  0  0  0
  5  6  4  0  0  0  0
  1  7  1  0  0  0  0
  3  7  4  0  0  0  0
  6  7  4  0  0  0  0
  6  8  4  0  0  0  0
  8  9  4  0  0  0  0
  9 10  4  0  0  0  0
 10 11  2  0  0  0  0
  1 12  1  0  0  0  0
  9 12  4  0  0  0  0
 11 13  4  0  0  0  0
 12 13  4  0  0  0  0
 13 14  4  0  0  0  0
 14 15  4  0  0  0  0
 15 16  4  0  0  0  0
 16 17  2  0  0  0  0
 17 18  4  0  0  0  0
 18 19  4  0  0  0  0
 19 20  1  0  0  0  0
 20 21  4  0  0  0  0
 21 22  4  0  0  0  0
 22 23  1  0  0  0  0
 22 24  4  0  0  0  0
 24 25  4  0  0  0  0
 25 26  1  0  0  0  0
 20 27  4  0  0  0  0
 25 27  4  0  0  0  0
 19 28  4  0  0  0  0
 28 29  4  0  0  0  0
 29 30  2  0  0  0  0
  2 31  4  0  0  0  0
 30 31  1  0  0  0  0
  1 32  1  0  0  0  0
 28 32  4  0  0  0  0
 31 32  4  0  0  0  0
  1 33  1  0  0  0  0
 15 33  4  0  0  0  0
 18 33  4  0  0  0  0
  8 34  1  0  0  0  0
 34 35  4  0  0  0  0
 35 36  4  0  0  0  0
 36 37  1  0  0  0  0
 36 38  4  0  0  0  0
 38 39  4  0  0  0  0
 39 40  1  0  0  0  0
 34 41  4  0  0  0  0
 39 41  4  0  0  0  0
  2 42  1  0  0  0  0
  4 43  1  0  0  0  0
  5 44  1  0  0  0  0
 10 45  1  0  0  0  0
 11 46  1  0  0  0  0
 16 47  1  0  0  0  0
 17 48  1  0  0  0  0
 21 49  1  0  0  0  0
 23 50  1  0  0  0  0
 23 51  1  0  0  0  0
 23 52  1  0  0  0  0
 24 53  1  0  0  0  0
 26 54  1  0  0  0  0
 26 55  1  0  0  0  0
 26 56  1  0  0  0  0
 27 57  1  0  0  0  0
 29 58  1  0  0  0  0
 30 59  1  0  0  0  0
 35 60  1  0  0  0  0
 37 61  1  0  0  0  0
 37 62  1  0  0  0  0
 37 63  1  0  0  0  0
 38 64  1  0  0  0  0
 40 65  1  0  0  0  0
 40 66  1  0  0  0  0
 40 67  1  0  0  0  0
 41 68  1  0  0  0  0
 70 71  4  0  0  0  0
 71 72  1  0  0  0  0
 72 73  2  0  0  0  0
 73 74  4  0  0  0  0
 69 75  1  0  0  0  0
 71 75  4  0  0  0  0
 74 75  4  0  0  0  0
 74 76  4  0  0  0  0
 76 77  4  0  0  0  0
 77 78  4  0  0  0  0
 78 79  2  0  0  0  0
 69 80  1  0  0  0  0
 77 80  4  0  0  0  0
 79 81  4  0  0  0  0
 80 81  4  0  0  0  0
 81 82  4  0  0  0  0
 82 83  4  0  0  0  0
 83 84  4  0  0  0  0
 84 85  2  0  0  0  0
 85 86  4  0  0  0  0
 86 87  4  0  0  0  0
 87 88  1  0  0  0  0
 88 89  4  0  0  0  0
 89 90  4  0  0  0  0
 90 91  1  0  0  0  0
 90 92  4  0  0  0  0
 92 93  4  0  0  0  0
 93 94  1  0  0  0  0
 88 95  4  0  0  0  0
 93 95  4  0  0  0  0
 87 96  4  0  0  0  0
 96 97  4  0  0  0  0
 97 98  2  0  0  0  0
 70 99  4  0  0  0  0
 98 99  1  0  0  0  0
 69100  1  0  0  0  0
 96100  4  0  0  0  0
 99100  4  0  0  0  0
 69101  1  0  0  0  0
 83101  4  0  0  0  0
 86101  4  0  0  0  0
 76102  1  0  0  0  0
102103  4  0  0  0  0
103104  4  0  0  0  0
104105  1  0  0  0  0
104106  4  0  0  0  0
106107  4  0  0  0  0
107108  1  0  0  0  0
102109  4  0  0  0  0
107109  4  0  0  0  0
 70110  1  0  0  0  0
 72111  1  0  0  0  0
 73112  1  0  0  0  0
 78113  1  0  0  0  0
 79114  1  0  0  0  0
 84115  1  0  0  0  0
 85116  1  0  0  0  0
 89117  1  0  0  0  0
 91118  1  0  0  0  0
 91119  1  0  0  0  0
 91120  1  0  0  0  0
 92121  1  0  0  0  0
 94122  1  0  0  0  0
 94123  1  0  0  0  0
 94124  1  0  0  0  0
 95125  1  0  0  0  0
 97126  1  0  0  0  0
 98127  1  0  0  0  0
103128  1  0  0  0  0
105129  1  0  0  0  0
105130  1  0  0  0  0
105131  1  0  0  0  0
106132  1  0  0  0  0
108133  1  0  0  0  0
108134  1  0  0  0  0
108135  1  0  0  0  0
109136  1  0  0  0  0
 14137  4  0  0  0  0
137138  3  0  0  0  0
138139  4  0  0  0  0
139140  3  0  0  0  0
140141  4  0  0  0  0
141142  3  0  0  0  0
142143  4  0  0  0  0
 82144  4  0  0  0  0
143144  3  0  0  0  0
M  END
