 xtb: 6.5.1 (b24c23e)
          07302204103D

150169  0     0  0            999 V2000
   13.1991   -0.0101    0.0845 Co  0  0  0  0  0  0  0  0  0  0  0  0
    9.8431   -0.2471    0.3664 C   0  0  0  0  0  0  0  0  0  0  0  0
   10.5321    0.4595    1.3285 C   0  0  0  0  0  0  0  0  0  0  0  0
    9.9036    1.1166    2.4344 C   0  0  0  0  0  0  0  0  0  0  0  0
   10.8551    1.8766    3.0252 C   0  0  0  0  0  0  0  0  0  0  0  0
   12.0666    1.6745    2.2867 C   0  0  0  0  0  0  0  0  0  0  0  0
   11.8695    0.7642    1.2795 N   0  0  0  0  0  0  0  0  0  0  0  0
   13.2261    2.4110    2.4791 C   0  0  0  0  0  0  0  0  0  0  0  0
   14.3832    2.1617    1.7597 C   0  0  0  0  0  0  0  0  0  0  0  0
   15.6160    2.8604    1.9638 C   0  0  0  0  0  0  0  0  0  0  0  0
   16.5676    2.1845    1.2765 C   0  0  0  0  0  0  0  0  0  0  0  0
   14.5717    1.0967    0.9071 N   0  0  0  0  0  0  0  0  0  0  0  0
   15.9125    1.0814    0.6477 C   0  0  0  0  0  0  0  0  0  0  0  0
   16.5923    0.0704   -0.0374 C   0  0  0  0  0  0  0  0  0  0  0  0
   15.9135   -0.9486   -0.7092 C   0  0  0  0  0  0  0  0  0  0  0  0
   16.5744   -1.9820   -1.4428 C   0  0  0  0  0  0  0  0  0  0  0  0
   15.6117   -2.6547   -2.1173 C   0  0  0  0  0  0  0  0  0  0  0  0
   14.3651   -2.0313   -1.7907 C   0  0  0  0  0  0  0  0  0  0  0  0
   13.1573   -2.3555   -2.3870 C   0  0  0  0  0  0  0  0  0  0  0  0
   13.1455   -3.3586   -3.4854 C   0  0  0  0  0  0  0  0  0  0  0  0
   13.7587   -3.0688   -4.7123 C   0  0  0  0  0  0  0  0  0  0  0  0
   14.3257   -1.8387   -4.8170 O   0  0  0  0  0  0  0  0  0  0  0  0
   14.9929   -1.4547   -6.0022 C   0  0  0  0  0  0  0  0  0  0  0  0
   13.7525   -4.0079   -5.7431 C   0  0  0  0  0  0  0  0  0  0  0  0
   13.1392   -5.2351   -5.5418 C   0  0  0  0  0  0  0  0  0  0  0  0
   12.5294   -5.5456   -4.3358 C   0  0  0  0  0  0  0  0  0  0  0  0
   12.5303   -4.6052   -3.3061 C   0  0  0  0  0  0  0  0  0  0  0  0
   11.9687   -4.8222   -2.0878 O   0  0  0  0  0  0  0  0  0  0  0  0
   11.3297   -6.0496   -1.8011 C   0  0  0  0  0  0  0  0  0  0  0  0
   11.9608   -1.7864   -1.9765 C   0  0  0  0  0  0  0  0  0  0  0  0
   10.6850   -2.0955   -2.5516 C   0  0  0  0  0  0  0  0  0  0  0  0
    9.7489   -1.5204   -1.7608 C   0  0  0  0  0  0  0  0  0  0  0  0
   10.4550   -0.8438   -0.7152 C   0  0  0  0  0  0  0  0  0  0  0  0
   11.8103   -0.9695   -0.8847 N   0  0  0  0  0  0  0  0  0  0  0  0
   14.5589   -1.0199   -0.8776 N   0  0  0  0  0  0  0  0  0  0  0  0
   13.2375    3.4883    3.5063 C   0  0  0  0  0  0  0  0  0  0  0  0
   13.2209    3.1656    4.8694 C   0  0  0  0  0  0  0  0  0  0  0  0
   13.1899    1.8391    5.1639 O   0  0  0  0  0  0  0  0  0  0  0  0
   13.1946    1.4030    6.5082 C   0  0  0  0  0  0  0  0  0  0  0  0
   13.2451    4.1738    5.8324 C   0  0  0  0  0  0  0  0  0  0  0  0
   13.2801    5.4996    5.4275 C   0  0  0  0  0  0  0  0  0  0  0  0
   13.2930    5.8426    4.0839 C   0  0  0  0  0  0  0  0  0  0  0  0
   13.2745    4.8344    3.1207 C   0  0  0  0  0  0  0  0  0  0  0  0
   13.2816    5.0675    1.7817 O   0  0  0  0  0  0  0  0  0  0  0  0
   13.3113    6.3906    1.2858 C   0  0  0  0  0  0  0  0  0  0  0  0
    8.7653   -0.3200    0.4540 H   0  0  0  0  0  0  0  0  0  0  0  0
    8.8617    1.0134    2.6937 H   0  0  0  0  0  0  0  0  0  0  0  0
   10.7583    2.5287    3.8779 H   0  0  0  0  0  0  0  0  0  0  0  0
   15.7288    3.7426    2.5725 H   0  0  0  0  0  0  0  0  0  0  0  0
   17.6225    2.3939    1.1992 H   0  0  0  0  0  0  0  0  0  0  0  0
   17.6401   -2.1463   -1.4423 H   0  0  0  0  0  0  0  0  0  0  0  0
   15.7219   -3.4934   -2.7853 H   0  0  0  0  0  0  0  0  0  0  0  0
   14.3102   -1.4374   -6.8604 H   0  0  0  0  0  0  0  0  0  0  0  0
   15.3708   -0.4462   -5.8243 H   0  0  0  0  0  0  0  0  0  0  0  0
   15.8354   -2.1214   -6.2224 H   0  0  0  0  0  0  0  0  0  0  0  0
   14.2190   -3.7917   -6.6949 H   0  0  0  0  0  0  0  0  0  0  0  0
   13.1368   -5.9662   -6.3427 H   0  0  0  0  0  0  0  0  0  0  0  0
   12.0609   -6.5119   -4.2057 H   0  0  0  0  0  0  0  0  0  0  0  0
   10.9650   -5.9695   -0.7754 H   0  0  0  0  0  0  0  0  0  0  0  0
   10.4803   -6.2270   -2.4721 H   0  0  0  0  0  0  0  0  0  0  0  0
   12.0284   -6.8921   -1.8703 H   0  0  0  0  0  0  0  0  0  0  0  0
   10.5406   -2.6941   -3.4364 H   0  0  0  0  0  0  0  0  0  0  0  0
    8.6748   -1.5430   -1.8567 H   0  0  0  0  0  0  0  0  0  0  0  0
   13.1654    0.3124    6.4734 H   0  0  0  0  0  0  0  0  0  0  0  0
   12.3161    1.7693    7.0531 H   0  0  0  0  0  0  0  0  0  0  0  0
   14.1045    1.7228    7.0303 H   0  0  0  0  0  0  0  0  0  0  0  0
   13.2377    3.9354    6.8875 H   0  0  0  0  0  0  0  0  0  0  0  0
   13.2982    6.2838    6.1764 H   0  0  0  0  0  0  0  0  0  0  0  0
   13.3191    6.8854    3.7973 H   0  0  0  0  0  0  0  0  0  0  0  0
   14.2209    6.9170    1.5998 H   0  0  0  0  0  0  0  0  0  0  0  0
   13.3031    6.3073    0.1975 H   0  0  0  0  0  0  0  0  0  0  0  0
   12.4324    6.9612    1.6097 H   0  0  0  0  0  0  0  0  0  0  0  0
   29.1570   -0.0835   -0.0034 Co  0  0  0  0  0  0  0  0  0  0  0  0
   32.5140   -0.3922    0.1852 C   0  0  0  0  0  0  0  0  0  0  0  0
   31.8250   -1.2439   -0.6511 C   0  0  0  0  0  0  0  0  0  0  0  0
   32.4542   -2.2430   -1.4608 C   0  0  0  0  0  0  0  0  0  0  0  0
   31.5014   -2.7232   -2.2936 C   0  0  0  0  0  0  0  0  0  0  0  0
   30.2888   -2.0246   -1.9848 C   0  0  0  0  0  0  0  0  0  0  0  0
   30.4866   -1.1558   -0.9416 N   0  0  0  0  0  0  0  0  0  0  0  0
   29.1274   -2.1145   -2.7378 C   0  0  0  0  0  0  0  0  0  0  0  0
   27.9701   -1.4390   -2.3875 C   0  0  0  0  0  0  0  0  0  0  0  0
   26.7365   -1.5441   -3.1065 C   0  0  0  0  0  0  0  0  0  0  0  0
   25.7860   -0.9564   -2.3411 C   0  0  0  0  0  0  0  0  0  0  0  0
   27.7830   -0.7426   -1.2142 N   0  0  0  0  0  0  0  0  0  0  0  0
   26.4424   -0.4868   -1.1622 C   0  0  0  0  0  0  0  0  0  0  0  0
   25.7634    0.0522   -0.0659 C   0  0  0  0  0  0  0  0  0  0  0  0
   26.4426    0.5739    1.0372 C   0  0  0  0  0  0  0  0  0  0  0  0
   25.7817    1.1558    2.1631 C   0  0  0  0  0  0  0  0  0  0  0  0
   26.7450    1.7247    2.9262 C   0  0  0  0  0  0  0  0  0  0  0  0
   27.9918    1.4860    2.2648 C   0  0  0  0  0  0  0  0  0  0  0  0
   29.2004    2.0266    2.6728 C   0  0  0  0  0  0  0  0  0  0  0  0
   29.2123    2.9710    3.8220 C   0  0  0  0  0  0  0  0  0  0  0  0
   28.6022    4.2281    3.7075 C   0  0  0  0  0  0  0  0  0  0  0  0
   28.0400    4.5075    2.5027 O   0  0  0  0  0  0  0  0  0  0  0  0
   27.3743    5.7357    2.2891 C   0  0  0  0  0  0  0  0  0  0  0  0
   28.6066    5.1150    4.7835 C   0  0  0  0  0  0  0  0  0  0  0  0
   29.2153    4.7401    5.9716 C   0  0  0  0  0  0  0  0  0  0  0  0
   29.8225    3.5011    6.1094 C   0  0  0  0  0  0  0  0  0  0  0  0
   29.8234    2.6154    5.0323 C   0  0  0  0  0  0  0  0  0  0  0  0
   30.3831    1.3779    5.0756 O   0  0  0  0  0  0  0  0  0  0  0  0
   31.0193    0.9196    6.2514 C   0  0  0  0  0  0  0  0  0  0  0  0
   30.3969    1.7001    2.0517 C   0  0  0  0  0  0  0  0  0  0  0  0
   31.6729    2.2238    2.4408 C   0  0  0  0  0  0  0  0  0  0  0  0
   32.6085    1.5259    1.7554 C   0  0  0  0  0  0  0  0  0  0  0  0
   31.9020    0.5899    0.9342 C   0  0  0  0  0  0  0  0  0  0  0  0
   30.5467    0.7385    1.0848 N   0  0  0  0  0  0  0  0  0  0  0  0
   27.7975    0.7266    1.1334 N   0  0  0  0  0  0  0  0  0  0  0  0
   29.1160   -2.9785   -3.9499 C   0  0  0  0  0  0  0  0  0  0  0  0
   29.1362   -4.3737   -3.8248 C   0  0  0  0  0  0  0  0  0  0  0  0
   29.1687   -4.8545   -2.5540 O   0  0  0  0  0  0  0  0  0  0  0  0
   29.1700   -6.2474   -2.3149 C   0  0  0  0  0  0  0  0  0  0  0  0
   29.1141   -5.1831   -4.9601 C   0  0  0  0  0  0  0  0  0  0  0  0
   29.0773   -4.5935   -6.2147 C   0  0  0  0  0  0  0  0  0  0  0  0
   29.0607   -3.2148   -6.3626 C   0  0  0  0  0  0  0  0  0  0  0  0
   29.0771   -2.4052   -5.2273 C   0  0  0  0  0  0  0  0  0  0  0  0
   29.0661   -1.0466   -5.2672 O   0  0  0  0  0  0  0  0  0  0  0  0
   29.0350   -0.3673   -6.5061 C   0  0  0  0  0  0  0  0  0  0  0  0
   33.5922   -0.4871    0.2422 H   0  0  0  0  0  0  0  0  0  0  0  0
   33.4972   -2.5110   -1.3989 H   0  0  0  0  0  0  0  0  0  0  0  0
   31.5979   -3.4746   -3.0604 H   0  0  0  0  0  0  0  0  0  0  0  0
   26.6226   -2.0248   -4.0644 H   0  0  0  0  0  0  0  0  0  0  0  0
   24.7310   -0.8502   -2.5369 H   0  0  0  0  0  0  0  0  0  0  0  0
   24.7157    1.1354    2.3239 H   0  0  0  0  0  0  0  0  0  0  0  0
   26.6350    2.2672    3.8511 H   0  0  0  0  0  0  0  0  0  0  0  0
   28.0566    6.5874    2.3981 H   0  0  0  0  0  0  0  0  0  0  0  0
   27.0014    5.7041    1.2637 H   0  0  0  0  0  0  0  0  0  0  0  0
   26.5284    5.8584    2.9763 H   0  0  0  0  0  0  0  0  0  0  0  0
   28.1423    6.0888    4.7032 H   0  0  0  0  0  0  0  0  0  0  0  0
   29.2162    5.4289    6.8092 H   0  0  0  0  0  0  0  0  0  0  0  0
   30.2872    3.2341    7.0491 H   0  0  0  0  0  0  0  0  0  0  0  0
   31.3866   -0.0834    6.0265 H   0  0  0  0  0  0  0  0  0  0  0  0
   31.8665    1.5598    6.5258 H   0  0  0  0  0  0  0  0  0  0  0  0
   30.3179    0.8661    7.0929 H   0  0  0  0  0  0  0  0  0  0  0  0
   31.8177    3.0116    3.1622 H   0  0  0  0  0  0  0  0  0  0  0  0
   33.6827    1.6177    1.7907 H   0  0  0  0  0  0  0  0  0  0  0  0
   29.1962   -6.3692   -1.2304 H   0  0  0  0  0  0  0  0  0  0  0  0
   30.0524   -6.7298   -2.7526 H   0  0  0  0  0  0  0  0  0  0  0  0
   28.2638   -6.7230   -2.7091 H   0  0  0  0  0  0  0  0  0  0  0  0
   29.1246   -6.2614   -4.8747 H   0  0  0  0  0  0  0  0  0  0  0  0
   29.0611   -5.2230   -7.0976 H   0  0  0  0  0  0  0  0  0  0  0  0
   29.0336   -2.7825   -7.3539 H   0  0  0  0  0  0  0  0  0  0  0  0
   28.1284   -0.6088   -7.0741 H   0  0  0  0  0  0  0  0  0  0  0  0
   29.0358    0.6981   -6.2683 H   0  0  0  0  0  0  0  0  0  0  0  0
   29.9170   -0.6010   -7.1147 H   0  0  0  0  0  0  0  0  0  0  0  0
   21.7923    0.1116   -0.0936 C   0  0  0  0  0  0  0  0  0  0  0  0
   20.5635    0.1079   -0.0890 C   0  0  0  0  0  0  0  0  0  0  0  0
   19.2193    0.1016   -0.0789 C   0  0  0  0  0  0  0  0  0  0  0  0
   17.9952    0.0899   -0.0647 C   0  0  0  0  0  0  0  0  0  0  0  0
   23.1364    0.0974   -0.0923 C   0  0  0  0  0  0  0  0  0  0  0  0
   24.3605    0.0827   -0.0816 C   0  0  0  0  0  0  0  0  0  0  0  0
  2  3  4  0  0  0  0
  3  4  1  0  0  0  0
  4  5  2  0  0  0  0
  5  6  4  0  0  0  0
  1  7  1  0  0  0  0
  3  7  4  0  0  0  0
  6  7  4  0  0  0  0
  6  8  4  0  0  0  0
  8  9  4  0  0  0  0
  9 10  4  0  0  0  0
 10 11  2  0  0  0  0
  1 12  1  0  0  0  0
  9 12  4  0  0  0  0
 11 13  4  0  0  0  0
 12 13  4  0  0  0  0
 13 14  4  0  0  0  0
 14 15  4  0  0  0  0
 15 16  4  0  0  0  0
 16 17  2  0  0  0  0
 17 18  4  0  0  0  0
 18 19  4  0  0  0  0
 19 20  1  0  0  0  0
 20 21  4  0  0  0  0
 21 22  1  0  0  0  0
 22 23  1  0  0  0  0
 21 24  4  0  0  0  0
 24 25  4  0  0  0  0
 25 26  4  0  0  0  0
 20 27  4  0  0  0  0
 26 27  4  0  0  0  0
 27 28  1  0  0  0  0
 28 29  1  0  0  0  0
 19 30  4  0  0  0  0
 30 31  4  0  0  0  0
 31 32  2  0  0  0  0
  2 33  4  0  0  0  0
 32 33  1  0  0  0  0
  1 34  1  0  0  0  0
 30 34  4  0  0  0  0
 33 34  4  0  0  0  0
  1 35  1  0  0  0  0
 15 35  4  0  0  0  0
 18 35  4  0  0  0  0
  8 36  1  0  0  0  0
 36 37  4  0  0  0  0
 37 38  1  0  0  0  0
 38 39  1  0  0  0  0
 37 40  4  0  0  0  0
 40 41  4  0  0  0  0
 41 42  4  0  0  0  0
 36 43  4  0  0  0  0
 42 43  4  0  0  0  0
 43 44  1  0  0  0  0
 44 45  1  0  0  0  0
  2 46  1  0  0  0  0
  4 47  1  0  0  0  0
  5 48  1  0  0  0  0
 10 49  1  0  0  0  0
 11 50  1  0  0  0  0
 16 51  1  0  0  0  0
 17 52  1  0  0  0  0
 23 53  1  0  0  0  0
 23 54  1  0  0  0  0
 23 55  1  0  0  0  0
 24 56  1  0  0  0  0
 25 57  1  0  0  0  0
 26 58  1  0  0  0  0
 29 59  1  0  0  0  0
 29 60  1  0  0  0  0
 29 61  1  0  0  0  0
 31 62  1  0  0  0  0
 32 63  1  0  0  0  0
 39 64  1  0  0  0  0
 39 65  1  0  0  0  0
 39 66  1  0  0  0  0
 40 67  1  0  0  0  0
 41 68  1  0  0  0  0
 42 69  1  0  0  0  0
 45 70  1  0  0  0  0
 45 71  1  0  0  0  0
 45 72  1  0  0  0  0
 74 75  4  0  0  0  0
 75 76  1  0  0  0  0
 76 77  2  0  0  0  0
 77 78  4  0  0  0  0
 73 79  1  0  0  0  0
 75 79  4  0  0  0  0
 78 79  4  0  0  0  0
 78 80  4  0  0  0  0
 80 81  4  0  0  0  0
 81 82  4  0  0  0  0
 82 83  2  0  0  0  0
 73 84  1  0  0  0  0
 81 84  4  0  0  0  0
 83 85  4  0  0  0  0
 84 85  4  0  0  0  0
 85 86  4  0  0  0  0
 86 87  4  0  0  0  0
 87 88  4  0  0  0  0
 88 89  2  0  0  0  0
 89 90  4  0  0  0  0
 90 91  4  0  0  0  0
 91 92  1  0  0  0  0
 92 93  4  0  0  0  0
 93 94  1  0  0  0  0
 94 95  1  0  0  0  0
 93 96  4  0  0  0  0
 96 97  4  0  0  0  0
 97 98  4  0  0  0  0
 92 99  4  0  0  0  0
 98 99  4  0  0  0  0
 99100  1  0  0  0  0
100101  1  0  0  0  0
 91102  4  0  0  0  0
102103  4  0  0  0  0
103104  2  0  0  0  0
 74105  4  0  0  0  0
104105  1  0  0  0  0
 73106  1  0  0  0  0
102106  4  0  0  0  0
105106  4  0  0  0  0
 73107  1  0  0  0  0
 87107  4  0  0  0  0
 90107  4  0  0  0  0
 80108  1  0  0  0  0
108109  4  0  0  0  0
109110  1  0  0  0  0
110111  1  0  0  0  0
109112  4  0  0  0  0
112113  4  0  0  0  0
113114  4  0  0  0  0
108115  4  0  0  0  0
114115  4  0  0  0  0
115116  1  0  0  0  0
116117  1  0  0  0  0
 74118  1  0  0  0  0
 76119  1  0  0  0  0
 77120  1  0  0  0  0
 82121  1  0  0  0  0
 83122  1  0  0  0  0
 88123  1  0  0  0  0
 89124  1  0  0  0  0
 95125  1  0  0  0  0
 95126  1  0  0  0  0
 95127  1  0  0  0  0
 96128  1  0  0  0  0
 97129  1  0  0  0  0
 98130  1  0  0  0  0
101131  1  0  0  0  0
101132  1  0  0  0  0
101133  1  0  0  0  0
103134  1  0  0  0  0
104135  1  0  0  0  0
111136  1  0  0  0  0
111137  1  0  0  0  0
111138  1  0  0  0  0
112139  1  0  0  0  0
113140  1  0  0  0  0
114141  1  0  0  0  0
117142  1  0  0  0  0
117143  1  0  0  0  0
117144  1  0  0  0  0
145146  3  0  0  0  0
146147  4  0  0  0  0
 14148  4  0  0  0  0
147148  3  0  0  0  0
145149  4  0  0  0  0
 86150  4  0  0  0  0
149150  3  0  0  0  0
M  END
