480

C 123.840883 0.075357 0.285425
C 124.574328 1.248025 -0.435272
C 123.977361 2.375740 -0.950714
C 125.001604 3.145022 -1.561972
C 126.189301 2.455967 -1.405192
N 125.922946 1.325268 -0.674189
C 127.602794 2.867998 -1.979528
C 127.631986 3.926362 -2.946216
C 127.642143 4.813228 -3.757074
C 127.652299 5.864717 -4.723431
C 126.853823 5.776629 -5.858354
C 126.898235 6.821134 -6.765228
N 127.670074 7.921587 -6.614484
C 128.433721 7.971686 -5.499136
C 128.460324 6.980191 -4.533745
C 128.730887 2.214480 -1.596673
C 130.026634 2.550070 -2.151776
C 130.933672 1.740447 -1.617740
N 128.937514 1.187623 -0.712963
C 130.266989 0.853888 -0.684119
C 130.941203 -0.090984 0.023999
C 130.172241 -1.022357 1.052796
C 130.722511 -1.662501 2.145906
C 129.695093 -2.424440 2.756423
C 128.544356 -2.220790 2.024686
N 128.833134 -1.326465 1.021057
C 127.131916 -2.872693 2.301397
C 127.100921 -4.113187 3.015725
C 127.085554 -5.157340 3.609991
C 127.062086 -6.402205 4.309707
C 128.102307 -6.742228 5.167335
C 128.032109 -7.960362 5.820977
N 127.014133 -8.839122 5.676654
C 126.021218 -8.474825 4.833460
C 125.998463 -7.280604 4.134238
C 126.004386 -2.265674 1.854122
C 124.677784 -2.803401 2.100652
C 123.786573 -1.982721 1.551989
C 124.508887 -0.900755 0.928504
N 125.835788 -1.115553 1.134430
H 122.758607 0.048291 0.241036
H 122.924910 2.610674 -0.905519
H 124.881185 4.085608 -2.077960
H 126.614932 0.648543 -0.360819
H 126.216335 4.916035 -6.029404
H 126.293643 6.798638 -7.666392
H 129.046722 8.861677 -5.396738
H 129.092767 7.071514 -3.657297
H 130.228464 3.315339 -2.879699
H 131.982921 1.760646 -1.849505
H 131.751420 -1.598020 2.465902
H 129.784471 -3.051294 3.630520
H 128.147390 -0.910097 0.396542
H 128.943929 -6.075457 5.319932
H 128.819912 -8.271162 6.500253
H 125.214043 -9.193380 4.729037
H 125.176221 -7.038822 3.469279
H 124.451206 -3.704418 2.641095
H 122.718016 -2.099597 1.563998
C 208.411743 0.150784 0.217805
C 207.678298 -0.693263 1.305067
C 208.275265 -1.328382 2.369983
C 207.251022 -2.019735 3.068167
C 206.063324 -1.788891 2.400269
N 206.329680 -0.939167 1.355848
C 204.649831 -2.404660 2.747342
C 204.620640 -3.480797 3.694206
C 204.610483 -4.383362 4.487550
C 204.600326 -5.458422 5.427617
C 205.398803 -6.577015 5.216528
C 205.354391 -7.592184 6.156126
N 204.582552 -7.562107 7.266449
C 203.818905 -6.458837 7.437643
C 203.792301 -5.391269 6.557110
C 203.521739 -1.952951 2.139376
C 202.225991 -2.541283 2.412556
C 201.318954 -1.922300 1.665866
N 203.315112 -0.962730 1.214801
C 201.985637 -0.897733 0.886187
C 201.311423 -0.090984 0.023999
C 202.080385 1.033071 -0.789868
C 201.530114 2.189359 -1.307237
C 202.557533 2.879177 -1.998202
C 203.708270 2.129622 -1.875403
N 203.419492 1.034619 -1.095625
C 205.120710 2.475642 -2.493317
C 205.151705 3.320740 -3.648695
C 205.167072 4.025120 -4.621966
C 205.190539 4.856168 -5.783280
C 204.150318 5.745709 -6.027940
C 204.220517 6.528048 -7.167696
N 205.238493 6.480225 -8.056944
C 206.231408 5.602391 -7.786582
C 206.254163 4.777345 -6.675558
C 206.248239 1.964957 -1.938584
C 207.574842 2.268548 -2.446285
C 208.466053 1.633823 -1.690196
C 207.743739 0.896282 -0.682516
N 206.416838 1.124363 -0.873626
H 209.494019 0.109606 0.186068
H 209.327715 -1.309025 2.608440
H 207.371440 -2.635030 3.947005
H 205.637693 -0.554005 0.717250
H 206.036291 -6.653382 4.342430
H 205.958983 -8.485546 6.035682
H 203.205903 -6.453913 8.333491
H 203.159859 -4.529966 6.743281
H 202.024162 -3.348172 3.094052
H 200.269704 -2.154887 1.660720
H 200.501205 2.500436 -1.208312
H 202.468155 3.816308 -2.526197
H 204.105236 0.368497 -0.749701
H 203.308697 5.824830 -5.348521
H 203.432713 7.237116 -7.402718
H 207.038582 5.576795 -8.512234
H 207.076405 4.090022 -6.507585
H 207.801420 2.903846 -3.283128
H 209.534609 1.658481 -1.805071
C 132.936935 -0.090984 0.023999
C 134.158853 -0.090984 0.023999
C 143.796408 -0.090984 0.023999
C 145.018326 -0.090984 0.023999
C 154.655881 -0.090984 0.023999
C 155.877799 -0.090984 0.023999
C 165.515354 -0.090984 0.023999
C 166.737272 -0.090984 0.023999
C 176.374827 -0.090984 0.023999
C 177.596745 -0.090984 0.023999
C 187.234300 -0.090984 0.023999
C 188.456218 -0.090984 0.023999
C 198.093773 -0.090984 0.023999
C 199.315690 -0.090984 0.023999
C 135.410083 0.034511 -0.009103
C 136.207698 0.101611 -1.376076
C 135.718161 0.508820 -2.599714
C 136.760539 0.344088 -3.548051
C 137.854418 -0.154293 -2.872476
N 137.529474 -0.229877 -1.541684
C 139.239071 -0.567334 -3.502853
C 139.227183 -1.047872 -4.852205
C 139.200769 -1.459299 -5.980884
C 139.171798 -1.964456 -7.316228
C 139.929553 -3.080283 -7.654505
C 139.866808 -3.535520 -8.959693
N 139.114028 -2.961219 -9.925476
C 138.389745 -1.879575 -9.559372
C 138.384143 -1.347563 -8.281694
C 140.375807 -0.502531 -2.764595
C 141.664369 -0.887024 -3.303155
C 142.579415 -0.724482 -2.353500
N 140.591048 -0.115004 -1.470676
C 141.920360 -0.228009 -1.161776
C 142.590801 0.034511 -0.009103
C 141.796639 0.565240 1.257140
C 142.305693 1.320565 2.293707
C 141.264939 1.494915 3.241668
C 140.149800 0.847885 2.750905
N 140.463920 0.349853 1.510838
C 138.756851 0.698473 3.477521
C 138.750386 0.770197 4.908219
C 138.742056 0.853294 6.107215
C 138.715084 0.969881 7.530500
C 137.623613 1.560252 8.158862
C 137.644008 1.657716 9.539434
N 138.660324 1.214096 10.313911
C 139.703681 0.644343 9.667864
C 139.778549 0.499799 8.293036
C 137.622815 0.492960 2.761150
C 136.331997 0.327528 3.398553
C 135.418566 0.141636 2.451788
C 136.080081 0.184978 1.163322
N 137.410890 0.390635 1.414246
H 134.719021 0.867801 -2.793347
H 136.714510 0.550891 -4.606249
H 138.178855 -0.442527 -0.790164
H 140.550067 -3.580409 -6.918490
H 140.439556 -4.403227 -9.271819
H 137.790865 -1.434657 -10.347863
H 137.782701 -0.477516 -8.042687
H 141.854889 -1.242763 -4.299868
H 143.628093 -0.933772 -2.468153
H 143.317790 1.688779 2.371689
H 141.327153 2.019835 4.183053
H 139.806026 -0.081948 0.867113
H 136.782228 1.935512 7.585830
H 136.815446 2.111142 10.075273
H 140.508721 0.293787 10.306852
H 140.640843 0.035016 7.827147
H 136.138542 0.345362 4.455915
H 134.369641 -0.010903 2.630129
C 146.269556 0.034511 -0.009103
C 147.067171 0.101611 -1.376076
C 146.577634 0.508820 -2.599714
C 147.620012 0.344088 -3.548051
C 148.713891 -0.154293 -2.872476
N 148.388947 -0.229877 -1.541684
C 150.098544 -0.567334 -3.502853
C 150.086656 -1.047872 -4.852205
C 150.060242 -1.459299 -5.980884
C 150.031271 -1.964456 -7.316228
C 150.789026 -3.080283 -7.654505
C 150.726281 -3.535520 -8.959693
N 149.973501 -2.961219 -9.925476
C 149.249218 -1.879575 -9.559372
C 149.243616 -1.347563 -8.281694
C 151.235280 -0.502531 -2.764595
C 152.523842 -0.887024 -3.303155
C 153.438888 -0.724482 -2.353500
N 151.450521 -0.115004 -1.470676
C 152.779833 -0.228009 -1.161776
C 153.450274 0.034511 -0.009103
C 152.656112 0.565240 1.257140
C 153.165166 1.320565 2.293707
C 152.124412 1.494915 3.241668
C 151.009273 0.847885 2.750905
N 151.323393 0.349853 1.510838
C 149.616323 0.698473 3.477521
C 149.609859 0.770197 4.908219
C 149.601529 0.853294 6.107215
C 149.574557 0.969881 7.530500
C 148.483086 1.560252 8.158862
C 148.503481 1.657716 9.539434
N 149.519797 1.214096 10.313911
C 150.563154 0.644343 9.667864
C 150.638022 0.499799 8.293036
C 148.482287 0.492960 2.761150
C 147.191470 0.327528 3.398553
C 146.278039 0.141636 2.451788
C 146.939554 0.184978 1.163322
N 148.270363 0.390635 1.414246
H 145.578493 0.867801 -2.793347
H 147.573983 0.550891 -4.606249
H 149.038328 -0.442527 -0.790164
H 151.409540 -3.580409 -6.918490
H 151.299029 -4.403227 -9.271819
H 148.650338 -1.434657 -10.347863
H 148.642174 -0.477516 -8.042687
H 152.714362 -1.242763 -4.299868
H 154.487566 -0.933772 -2.468153
H 154.177263 1.688779 2.371689
H 152.186626 2.019835 4.183053
H 150.665499 -0.081948 0.867113
H 147.641701 1.935512 7.585830
H 147.674919 2.111142 10.075273
H 151.368194 0.293787 10.306852
H 151.500316 0.035016 7.827147
H 146.998015 0.345362 4.455915
H 145.229114 -0.010903 2.630129
C 157.129029 0.034511 -0.009103
C 157.926644 0.101611 -1.376076
C 157.437107 0.508820 -2.599714
C 158.479485 0.344088 -3.548051
C 159.573364 -0.154293 -2.872476
N 159.248420 -0.229877 -1.541684
C 160.958017 -0.567334 -3.502853
C 160.946129 -1.047872 -4.852205
C 160.919715 -1.459299 -5.980884
C 160.890744 -1.964456 -7.316228
C 161.648499 -3.080283 -7.654505
C 161.585754 -3.535520 -8.959693
N 160.832973 -2.961219 -9.925476
C 160.108691 -1.879575 -9.559372
C 160.103089 -1.347563 -8.281694
C 162.094753 -0.502531 -2.764595
C 163.383315 -0.887024 -3.303155
C 164.298361 -0.724482 -2.353500
N 162.309994 -0.115004 -1.470676
C 163.639306 -0.228009 -1.161776
C 164.309747 0.034511 -0.009103
C 163.515585 0.565240 1.257140
C 164.024638 1.320565 2.293707
C 162.983885 1.494915 3.241668
C 161.868746 0.847885 2.750905
N 162.182866 0.349853 1.510838
C 160.475796 0.698473 3.477521
C 160.469332 0.770197 4.908219
C 160.461002 0.853294 6.107215
C 160.434030 0.969881 7.530500
C 159.342559 1.560252 8.158862
C 159.362954 1.657716 9.539434
N 160.379270 1.214096 10.313911
C 161.422626 0.644343 9.667864
C 161.497495 0.499799 8.293036
C 159.341760 0.492960 2.761150
C 158.050943 0.327528 3.398553
C 157.137512 0.141636 2.451788
C 157.799026 0.184978 1.163322
N 159.129836 0.390635 1.414246
H 156.437966 0.867801 -2.793347
H 158.433456 0.550891 -4.606249
H 159.897801 -0.442527 -0.790164
H 162.269013 -3.580409 -6.918490
H 162.158501 -4.403227 -9.271819
H 159.509811 -1.434657 -10.347863
H 159.501647 -0.477516 -8.042687
H 163.573835 -1.242763 -4.299868
H 165.347039 -0.933772 -2.468153
H 165.036736 1.688779 2.371689
H 163.046099 2.019835 4.183053
H 161.524971 -0.081948 0.867113
H 158.501174 1.935512 7.585830
H 158.534392 2.111142 10.075273
H 162.227667 0.293787 10.306852
H 162.359789 0.035016 7.827147
H 157.857488 0.345362 4.455915
H 156.088587 -0.010903 2.630129
C 167.988502 0.034511 -0.009103
C 168.786116 0.101611 -1.376076
C 168.296580 0.508820 -2.599714
C 169.338958 0.344088 -3.548051
C 170.432837 -0.154293 -2.872476
N 170.107893 -0.229877 -1.541684
C 171.817490 -0.567334 -3.502853
C 171.805602 -1.047872 -4.852205
C 171.779188 -1.459299 -5.980884
C 171.750217 -1.964456 -7.316228
C 172.507971 -3.080283 -7.654505
C 172.445227 -3.535520 -8.959693
N 171.692446 -2.961219 -9.925476
C 170.968164 -1.879575 -9.559372
C 170.962561 -1.347563 -8.281694
C 172.954226 -0.502531 -2.764595
C 174.242788 -0.887024 -3.303155
C 175.157834 -0.724482 -2.353500
N 173.169466 -0.115004 -1.470676
C 174.498779 -0.228009 -1.161776
C 175.169220 0.034511 -0.009103
C 174.375058 0.565240 1.257140
C 174.884111 1.320565 2.293707
C 173.843358 1.494915 3.241668
C 172.728219 0.847885 2.750905
N 173.042338 0.349853 1.510838
C 171.335269 0.698473 3.477521
C 171.328805 0.770197 4.908219
C 171.320475 0.853294 6.107215
C 171.293503 0.969881 7.530500
C 170.202032 1.560252 8.158862
C 170.222427 1.657716 9.539434
N 171.238743 1.214096 10.313911
C 172.282099 0.644343 9.667864
C 172.356968 0.499799 8.293036
C 170.201233 0.492960 2.761150
C 168.910416 0.327528 3.398553
C 167.996985 0.141636 2.451788
C 168.658499 0.184978 1.163322
N 169.989309 0.390635 1.414246
H 167.297439 0.867801 -2.793347
H 169.292929 0.550891 -4.606249
H 170.757274 -0.442527 -0.790164
H 173.128486 -3.580409 -6.918490
H 173.017974 -4.403227 -9.271819
H 170.369284 -1.434657 -10.347863
H 170.361120 -0.477516 -8.042687
H 174.433308 -1.242763 -4.299868
H 176.206512 -0.933772 -2.468153
H 175.896209 1.688779 2.371689
H 173.905572 2.019835 4.183053
H 172.384444 -0.081948 0.867113
H 169.360647 1.935512 7.585830
H 169.393865 2.111142 10.075273
H 173.087139 0.293787 10.306852
H 173.219261 0.035016 7.827147
H 168.716961 0.345362 4.455915
H 166.948060 -0.010903 2.630129
C 178.847975 0.034511 -0.009103
C 179.645589 0.101611 -1.376076
C 179.156053 0.508820 -2.599714
C 180.198431 0.344088 -3.548051
C 181.292310 -0.154293 -2.872476
N 180.967366 -0.229877 -1.541684
C 182.676963 -0.567334 -3.502853
C 182.665074 -1.047872 -4.852205
C 182.638661 -1.459299 -5.980884
C 182.609690 -1.964456 -7.316228
C 183.367444 -3.080283 -7.654505
C 183.304700 -3.535520 -8.959693
N 182.551919 -2.961219 -9.925476
C 181.827636 -1.879575 -9.559372
C 181.822034 -1.347563 -8.281694
C 183.813699 -0.502531 -2.764595
C 185.102261 -0.887024 -3.303155
C 186.017307 -0.724482 -2.353500
N 184.028939 -0.115004 -1.470676
C 185.358252 -0.228009 -1.161776
C 186.028693 0.034511 -0.009103
C 185.234531 0.565240 1.257140
C 185.743584 1.320565 2.293707
C 184.702831 1.494915 3.241668
C 183.587692 0.847885 2.750905
N 183.901811 0.349853 1.510838
C 182.194742 0.698473 3.477521
C 182.188278 0.770197 4.908219
C 182.179948 0.853294 6.107215
C 182.152976 0.969881 7.530500
C 181.061505 1.560252 8.158862
C 181.081900 1.657716 9.539434
N 182.098216 1.214096 10.313911
C 183.141572 0.644343 9.667864
C 183.216441 0.499799 8.293036
C 181.060706 0.492960 2.761150
C 179.769889 0.327528 3.398553
C 178.856458 0.141636 2.451788
C 179.517972 0.184978 1.163322
N 180.848782 0.390635 1.414246
H 178.156912 0.867801 -2.793347
H 180.152401 0.550891 -4.606249
H 181.616747 -0.442527 -0.790164
H 183.987959 -3.580409 -6.918490
H 183.877447 -4.403227 -9.271819
H 181.228757 -1.434657 -10.347863
H 181.220593 -0.477516 -8.042687
H 185.292781 -1.242763 -4.299868
H 187.065985 -0.933772 -2.468153
H 186.755682 1.688779 2.371689
H 184.765045 2.019835 4.183053
H 183.243917 -0.081948 0.867113
H 180.220120 1.935512 7.585830
H 180.253338 2.111142 10.075273
H 183.946612 0.293787 10.306852
H 184.078734 0.035016 7.827147
H 179.576434 0.345362 4.455915
H 177.807533 -0.010903 2.630129
C 189.707448 0.034511 -0.009103
C 190.505062 0.101611 -1.376076
C 190.015526 0.508820 -2.599714
C 191.057904 0.344088 -3.548051
C 192.151782 -0.154293 -2.872476
N 191.826839 -0.229877 -1.541684
C 193.536436 -0.567334 -3.502853
C 193.524547 -1.047872 -4.852205
C 193.498134 -1.459299 -5.980884
C 193.469163 -1.964456 -7.316228
C 194.226917 -3.080283 -7.654505
C 194.164173 -3.535520 -8.959693
N 193.411392 -2.961219 -9.925476
C 192.687109 -1.879575 -9.559372
C 192.681507 -1.347563 -8.281694
C 194.673172 -0.502531 -2.764595
C 195.961734 -0.887024 -3.303155
C 196.876780 -0.724482 -2.353500
N 194.888412 -0.115004 -1.470676
C 196.217725 -0.228009 -1.161776
C 196.888166 0.034511 -0.009103
C 196.094004 0.565240 1.257140
C 196.603057 1.320565 2.293707
C 195.562304 1.494915 3.241668
C 194.447165 0.847885 2.750905
N 194.761284 0.349853 1.510838
C 193.054215 0.698473 3.477521
C 193.047751 0.770197 4.908219
C 193.039421 0.853294 6.107215
C 193.012449 0.969881 7.530500
C 191.920978 1.560252 8.158862
C 191.941373 1.657716 9.539434
N 192.957688 1.214096 10.313911
C 194.001045 0.644343 9.667864
C 194.075914 0.499799 8.293036
C 191.920179 0.492960 2.761150
C 190.629362 0.327528 3.398553
C 189.715931 0.141636 2.451788
C 190.377445 0.184978 1.163322
N 191.708255 0.390635 1.414246
H 189.016385 0.867801 -2.793347
H 191.011874 0.550891 -4.606249
H 192.476220 -0.442527 -0.790164
H 194.847432 -3.580409 -6.918490
H 194.736920 -4.403227 -9.271819
H 192.088230 -1.434657 -10.347863
H 192.080066 -0.477516 -8.042687
H 196.152254 -1.242763 -4.299868
H 197.925458 -0.933772 -2.468153
H 197.615155 1.688779 2.371689
H 195.624518 2.019835 4.183053
H 194.103390 -0.081948 0.867113
H 191.079593 1.935512 7.585830
H 191.112811 2.111142 10.075273
H 194.806085 0.293787 10.306852
H 194.938207 0.035016 7.827147
H 190.435907 0.345362 4.455915
H 188.667006 -0.010903 2.630129
