 xtb: 6.5.1 (b24c23e)
          07302210183D

229258  0     0  0            999 V2000
   32.9454    0.0152   -0.0132 Zn  0  0  0  0  0  0  0  0  0  0  0  0
   29.5271    0.0768   -0.0224 C   0  0  0  0  0  0  0  0  0  0  0  0
   30.1671    1.2115    0.4631 C   0  0  0  0  0  0  0  0  0  0  0  0
   29.5082    2.3907    0.9539 C   0  0  0  0  0  0  0  0  0  0  0  0
   30.4784    3.2610    1.3311 C   0  0  0  0  0  0  0  0  0  0  0  0
   31.7422    2.6229    1.0751 C   0  0  0  0  0  0  0  0  0  0  0  0
   31.5185    1.3837    0.5499 N   0  0  0  0  0  0  0  0  0  0  0  0
   32.9964    3.1851    1.3267 C   0  0  0  0  0  0  0  0  0  0  0  0
   33.0227    4.5616    1.9037 C   0  0  0  0  0  0  0  0  0  0  0  0
   33.0403    5.6731    1.0563 C   0  0  0  0  0  0  0  0  0  0  0  0
   33.0286    5.4781   -0.4366 C   0  0  0  0  0  0  0  0  0  0  0  0
   33.0685    6.9502    1.6037 C   0  0  0  0  0  0  0  0  0  0  0  0
   33.0788    7.1365    2.9824 C   0  0  0  0  0  0  0  0  0  0  0  0
   33.1315    8.5245    3.5619 C   0  0  0  0  0  0  0  0  0  0  0  0
   33.0615    6.0236    3.8166 C   0  0  0  0  0  0  0  0  0  0  0  0
   33.0333    4.7374    3.2901 C   0  0  0  0  0  0  0  0  0  0  0  0
   33.0137    3.5367    4.1983 C   0  0  0  0  0  0  0  0  0  0  0  0
   34.2300    2.5758    1.0868 C   0  0  0  0  0  0  0  0  0  0  0  0
   35.5097    3.1718    1.3543 C   0  0  0  0  0  0  0  0  0  0  0  0
   36.4547    2.2693    0.9861 C   0  0  0  0  0  0  0  0  0  0  0  0
   34.4208    1.3258    0.5623 N   0  0  0  0  0  0  0  0  0  0  0  0
   35.7627    1.1150    0.4894 C   0  0  0  0  0  0  0  0  0  0  0  0
   36.3876   -0.0466   -0.0050 C   0  0  0  0  0  0  0  0  0  0  0  0
   35.7255   -1.1861   -0.5018 C   0  0  0  0  0  0  0  0  0  0  0  0
   36.3787   -2.3649   -0.9936 C   0  0  0  0  0  0  0  0  0  0  0  0
   35.4040   -3.2335   -1.3663 C   0  0  0  0  0  0  0  0  0  0  0  0
   34.1450   -2.5918   -1.1065 C   0  0  0  0  0  0  0  0  0  0  0  0
   34.3775   -1.3491   -0.5817 N   0  0  0  0  0  0  0  0  0  0  0  0
   32.8909   -3.1551   -1.3526 C   0  0  0  0  0  0  0  0  0  0  0  0
   32.8665   -4.5334   -1.9256 C   0  0  0  0  0  0  0  0  0  0  0  0
   32.8910   -4.7153   -3.3117 C   0  0  0  0  0  0  0  0  0  0  0  0
   32.9384   -3.5187   -4.2242 C   0  0  0  0  0  0  0  0  0  0  0  0
   32.8695   -6.0031   -3.8325 C   0  0  0  0  0  0  0  0  0  0  0  0
   32.8241   -7.1131   -2.9934 C   0  0  0  0  0  0  0  0  0  0  0  0
   32.7951   -8.4987   -3.5804 C   0  0  0  0  0  0  0  0  0  0  0  0
   32.7986   -6.9208   -1.6170 C   0  0  0  0  0  0  0  0  0  0  0  0
   32.8196   -5.6404   -1.0746 C   0  0  0  0  0  0  0  0  0  0  0  0
   32.7918   -5.4391    0.4172 C   0  0  0  0  0  0  0  0  0  0  0  0
   31.6570   -2.5466   -1.1079 C   0  0  0  0  0  0  0  0  0  0  0  0
   30.3725   -3.1389   -1.3709 C   0  0  0  0  0  0  0  0  0  0  0  0
   29.4320   -2.2345   -0.9990 C   0  0  0  0  0  0  0  0  0  0  0  0
   30.1299   -1.0796   -0.5045 C   0  0  0  0  0  0  0  0  0  0  0  0
   31.4749   -1.3000   -0.5841 N   0  0  0  0  0  0  0  0  0  0  0  0
   28.4416    0.0954   -0.0256 H   0  0  0  0  0  0  0  0  0  0  0  0
   28.4384    2.5239    0.9994 H   0  0  0  0  0  0  0  0  0  0  0  0
   30.3606    4.2490    1.7474 H   0  0  0  0  0  0  0  0  0  0  0  0
   32.1233    4.9498   -0.7421 H   0  0  0  0  0  0  0  0  0  0  0  0
   33.8858    4.8774   -0.7469 H   0  0  0  0  0  0  0  0  0  0  0  0
   33.0662    6.4356   -0.9553 H   0  0  0  0  0  0  0  0  0  0  0  0
   33.0820    7.8130    0.9456 H   0  0  0  0  0  0  0  0  0  0  0  0
   32.6890    8.5476    4.5580 H   0  0  0  0  0  0  0  0  0  0  0  0
   34.1701    8.8540    3.6433 H   0  0  0  0  0  0  0  0  0  0  0  0
   32.6015    9.2319    2.9235 H   0  0  0  0  0  0  0  0  0  0  0  0
   33.0695    6.1593    4.8933 H   0  0  0  0  0  0  0  0  0  0  0  0
   33.8771    2.8984    4.0007 H   0  0  0  0  0  0  0  0  0  0  0  0
   33.0344    3.8388    5.2450 H   0  0  0  0  0  0  0  0  0  0  0  0
   32.1138    2.9439    4.0226 H   0  0  0  0  0  0  0  0  0  0  0  0
   35.6571    4.1559    1.7701 H   0  0  0  0  0  0  0  0  0  0  0  0
   37.5272    2.3686    1.0409 H   0  0  0  0  0  0  0  0  0  0  0  0
   37.4474   -2.5022   -1.0420 H   0  0  0  0  0  0  0  0  0  0  0  0
   35.5184   -4.2229   -1.7800 H   0  0  0  0  0  0  0  0  0  0  0  0
   32.0629   -2.8863   -4.0640 H   0  0  0  0  0  0  0  0  0  0  0  0
   32.9611   -3.8260   -5.2694 H   0  0  0  0  0  0  0  0  0  0  0  0
   33.8260   -2.9181   -4.0163 H   0  0  0  0  0  0  0  0  0  0  0  0
   32.8892   -6.1453   -4.9081 H   0  0  0  0  0  0  0  0  0  0  0  0
   33.6175   -8.6315   -4.2853 H   0  0  0  0  0  0  0  0  0  0  0  0
   32.8773   -9.2557   -2.8007 H   0  0  0  0  0  0  0  0  0  0  0  0
   31.8601   -8.6589   -4.1212 H   0  0  0  0  0  0  0  0  0  0  0  0
   32.7629   -7.7795   -0.9545 H   0  0  0  0  0  0  0  0  0  0  0  0
   31.9013   -4.8772    0.7061 H   0  0  0  0  0  0  0  0  0  0  0  0
   33.6649   -4.8685    0.7392 H   0  0  0  0  0  0  0  0  0  0  0  0
   32.7859   -6.3951    0.9399 H   0  0  0  0  0  0  0  0  0  0  0  0
   30.2219   -4.1220   -1.7884 H   0  0  0  0  0  0  0  0  0  0  0  0
   28.3585   -2.3293   -1.0502 H   0  0  0  0  0  0  0  0  0  0  0  0
   59.9443   -0.0290   -0.0561 Zn  0  0  0  0  0  0  0  0  0  0  0  0
   63.3624   -0.0656   -0.0948 C   0  0  0  0  0  0  0  0  0  0  0  0
   62.7239   -1.2133   -0.5512 C   0  0  0  0  0  0  0  0  0  0  0  0
   63.3846   -2.3974   -1.0276 C   0  0  0  0  0  0  0  0  0  0  0  0
   62.4156   -3.2792   -1.3804 C   0  0  0  0  0  0  0  0  0  0  0  0
   61.1508   -2.6429   -1.1251 C   0  0  0  0  0  0  0  0  0  0  0  0
   61.3727   -1.3943   -0.6217 N   0  0  0  0  0  0  0  0  0  0  0  0
   59.8974   -3.2130   -1.3626 C   0  0  0  0  0  0  0  0  0  0  0  0
   59.8730   -4.5977   -1.9197 C   0  0  0  0  0  0  0  0  0  0  0  0
   59.8869   -4.7955   -3.3032 C   0  0  0  0  0  0  0  0  0  0  0  0
   59.9303   -3.6094   -4.2296 C   0  0  0  0  0  0  0  0  0  0  0  0
   59.8605   -6.0897   -3.8095 C   0  0  0  0  0  0  0  0  0  0  0  0
   59.8211   -7.1892   -2.9581 C   0  0  0  0  0  0  0  0  0  0  0  0
   59.7707   -8.5850   -3.5188 C   0  0  0  0  0  0  0  0  0  0  0  0
   59.8068   -6.9811   -1.5829 C   0  0  0  0  0  0  0  0  0  0  0  0
   59.8326   -5.6953   -1.0553 C   0  0  0  0  0  0  0  0  0  0  0  0
   59.8176   -5.4769    0.4343 C   0  0  0  0  0  0  0  0  0  0  0  0
   58.6629   -2.6051   -1.1238 C   0  0  0  0  0  0  0  0  0  0  0  0
   57.3839   -3.2057   -1.3845 C   0  0  0  0  0  0  0  0  0  0  0  0
   56.4377   -2.3056   -1.0134 C   0  0  0  0  0  0  0  0  0  0  0  0
   58.4705   -1.3539   -0.6028 N   0  0  0  0  0  0  0  0  0  0  0  0
   57.1283   -1.1482   -0.5219 C   0  0  0  0  0  0  0  0  0  0  0  0
   56.5022    0.0093   -0.0198 C   0  0  0  0  0  0  0  0  0  0  0  0
   57.1629    1.1532    0.4688 C   0  0  0  0  0  0  0  0  0  0  0  0
   56.5081    2.3259    0.9727 C   0  0  0  0  0  0  0  0  0  0  0  0
   57.4814    3.2048    1.3244 C   0  0  0  0  0  0  0  0  0  0  0  0
   58.7412    2.5757    1.0387 C   0  0  0  0  0  0  0  0  0  0  0  0
   58.5106    1.3290    0.5225 N   0  0  0  0  0  0  0  0  0  0  0  0
   59.9941    3.1546    1.2519 C   0  0  0  0  0  0  0  0  0  0  0  0
   60.0157    4.5382    1.8118 C   0  0  0  0  0  0  0  0  0  0  0  0
   59.9829    5.6391    0.9501 C   0  0  0  0  0  0  0  0  0  0  0  0
   59.9282    5.4242   -0.5391 C   0  0  0  0  0  0  0  0  0  0  0  0
   60.0020    6.9229    1.4804 C   0  0  0  0  0  0  0  0  0  0  0  0
   60.0528    7.1274    2.8566 C   0  0  0  0  0  0  0  0  0  0  0  0
   60.0796    8.5276    3.4079 C   0  0  0  0  0  0  0  0  0  0  0  0
   60.0857    6.0261    3.7040 C   0  0  0  0  0  0  0  0  0  0  0  0
   60.0673    4.7322    3.1942 C   0  0  0  0  0  0  0  0  0  0  0  0
   60.1028    3.5435    4.1176 C   0  0  0  0  0  0  0  0  0  0  0  0
   61.2288    2.5566    0.9864 C   0  0  0  0  0  0  0  0  0  0  0  0
   62.5124    3.1656    1.2134 C   0  0  0  0  0  0  0  0  0  0  0  0
   63.4542    2.2640    0.8378 C   0  0  0  0  0  0  0  0  0  0  0  0
   62.7580    1.0946    0.3760 C   0  0  0  0  0  0  0  0  0  0  0  0
   61.4128    1.3041    0.4774 N   0  0  0  0  0  0  0  0  0  0  0  0
   64.4479   -0.0765   -0.1071 H   0  0  0  0  0  0  0  0  0  0  0  0
   64.4546   -2.5260   -1.0803 H   0  0  0  0  0  0  0  0  0  0  0  0
   62.5349   -4.2743   -1.7793 H   0  0  0  0  0  0  0  0  0  0  0  0
   60.8413   -3.0316   -4.0616 H   0  0  0  0  0  0  0  0  0  0  0  0
   59.0793   -2.9517   -4.0431 H   0  0  0  0  0  0  0  0  0  0  0  0
   59.9056   -3.9272   -5.2716 H   0  0  0  0  0  0  0  0  0  0  0  0
   59.8713   -6.2428   -4.8838 H   0  0  0  0  0  0  0  0  0  0  0  0
   60.2140   -9.2992   -2.8245 H   0  0  0  0  0  0  0  0  0  0  0  0
   58.7327   -8.8788   -3.6917 H   0  0  0  0  0  0  0  0  0  0  0  0
   60.3012   -8.6411   -4.4697 H   0  0  0  0  0  0  0  0  0  0  0  0
   59.7759   -7.8329   -0.9112 H   0  0  0  0  0  0  0  0  0  0  0  0
   58.9480   -4.8824    0.7210 H   0  0  0  0  0  0  0  0  0  0  0  0
   59.7827   -6.4266    0.9674 H   0  0  0  0  0  0  0  0  0  0  0  0
   60.7110   -4.9326    0.7463 H   0  0  0  0  0  0  0  0  0  0  0  0
   57.2378   -4.1903   -1.7995 H   0  0  0  0  0  0  0  0  0  0  0  0
   55.3653   -2.4082   -1.0636 H   0  0  0  0  0  0  0  0  0  0  0  0
   55.4393    2.4522    1.0436 H   0  0  0  0  0  0  0  0  0  0  0  0
   57.3656    4.1927    1.7410 H   0  0  0  0  0  0  0  0  0  0  0  0
   60.8022    4.8611   -0.8723 H   0  0  0  0  0  0  0  0  0  0  0  0
   59.9021    6.3756   -1.0697 H   0  0  0  0  0  0  0  0  0  0  0  0
   59.0395    4.8495   -0.8067 H   0  0  0  0  0  0  0  0  0  0  0  0
   59.9760    7.7778    0.8125 H   0  0  0  0  0  0  0  0  0  0  0  0
   59.2556    9.1145    2.9988 H   0  0  0  0  0  0  0  0  0  0  0  0
   59.9991    8.5219    4.4948 H   0  0  0  0  0  0  0  0  0  0  0  0
   61.0133    9.0224    3.1326 H   0  0  0  0  0  0  0  0  0  0  0  0
   60.1250    6.1749    4.7782 H   0  0  0  0  0  0  0  0  0  0  0  0
   60.9947    2.9433    3.9268 H   0  0  0  0  0  0  0  0  0  0  0  0
   59.2313    2.9076    3.9506 H   0  0  0  0  0  0  0  0  0  0  0  0
   60.1112    3.8595    5.1603 H   0  0  0  0  0  0  0  0  0  0  0  0
   62.6616    4.1574    1.6101 H   0  0  0  0  0  0  0  0  0  0  0  0
   64.5276    2.3698    0.8658 H   0  0  0  0  0  0  0  0  0  0  0  0
   39.0173   -0.0792    0.0036 C   0  0  0  0  0  0  0  0  0  0  0  0
   37.7960   -0.0682   -0.0016 C   0  0  0  0  0  0  0  0  0  0  0  0
   40.3692   -0.0863    0.0072 C   0  0  0  0  0  0  0  0  0  0  0  0
   41.5906   -0.0884    0.0048 C   0  0  0  0  0  0  0  0  0  0  0  0
   52.5207    0.0275    0.0079 C   0  0  0  0  0  0  0  0  0  0  0  0
   51.2993    0.0227    0.0142 C   0  0  0  0  0  0  0  0  0  0  0  0
   53.8725    0.0259    0.0036 C   0  0  0  0  0  0  0  0  0  0  0  0
   55.0938    0.0227   -0.0066 C   0  0  0  0  0  0  0  0  0  0  0  0
   46.4458   -0.0410    0.0109 Zn  0  0  0  0  0  0  0  0  0  0  0  0
   42.9988   -0.0799    0.0081 C   0  0  0  0  0  0  0  0  0  0  0  0
   43.6394    0.1120    1.2480 C   0  0  0  0  0  0  0  0  0  0  0  0
   42.9641    0.2876    2.5011 C   0  0  0  0  0  0  0  0  0  0  0  0
   43.9223    0.4246    3.4534 C   0  0  0  0  0  0  0  0  0  0  0  0
   45.1924    0.3356    2.7888 C   0  0  0  0  0  0  0  0  0  0  0  0
   44.9841    0.1470    1.4493 N   0  0  0  0  0  0  0  0  0  0  0  0
   46.4360    0.4268    3.4177 C   0  0  0  0  0  0  0  0  0  0  0  0
   46.4338    0.6160    4.8986 C   0  0  0  0  0  0  0  0  0  0  0  0
   46.4417    1.9044    5.4393 C   0  0  0  0  0  0  0  0  0  0  0  0
   46.4505    3.1011    4.5257 C   0  0  0  0  0  0  0  0  0  0  0  0
   46.4400    2.0669    6.8201 C   0  0  0  0  0  0  0  0  0  0  0  0
   46.4297    0.9653    7.6688 C   0  0  0  0  0  0  0  0  0  0  0  0
   46.4471    1.1486    9.1625 C   0  0  0  0  0  0  0  0  0  0  0  0
   46.4227   -0.3133    7.1197 C   0  0  0  0  0  0  0  0  0  0  0  0
   46.4241   -0.4985    5.7425 C   0  0  0  0  0  0  0  0  0  0  0  0
   46.4151   -1.8846    5.1546 C   0  0  0  0  0  0  0  0  0  0  0  0
   47.6822    0.3557    2.7912 C   0  0  0  0  0  0  0  0  0  0  0  0
   48.9488    0.4592    3.4602 C   0  0  0  0  0  0  0  0  0  0  0  0
   49.9118    0.3475    2.5094 C   0  0  0  0  0  0  0  0  0  0  0  0
   47.8972    0.1819    1.4507 N   0  0  0  0  0  0  0  0  0  0  0  0
   49.2431    0.1728    1.2529 C   0  0  0  0  0  0  0  0  0  0  0  0
   49.8913    0.0083    0.0132 C   0  0  0  0  0  0  0  0  0  0  0  0
   49.2506   -0.1733   -1.2282 C   0  0  0  0  0  0  0  0  0  0  0  0
   49.9256   -0.3277   -2.4841 C   0  0  0  0  0  0  0  0  0  0  0  0
   48.9673   -0.4691   -3.4358 C   0  0  0  0  0  0  0  0  0  0  0  0
   47.6976   -0.4042   -2.7679 C   0  0  0  0  0  0  0  0  0  0  0  0
   47.9060   -0.2227   -1.4274 N   0  0  0  0  0  0  0  0  0  0  0  0
   46.4542   -0.5123   -3.3946 C   0  0  0  0  0  0  0  0  0  0  0  0
   46.4575   -0.7019   -4.8754 C   0  0  0  0  0  0  0  0  0  0  0  0
   46.4070    0.4115   -5.7192 C   0  0  0  0  0  0  0  0  0  0  0  0
   46.3490    1.7964   -5.1313 C   0  0  0  0  0  0  0  0  0  0  0  0
   46.4096    0.2265   -7.0965 C   0  0  0  0  0  0  0  0  0  0  0  0
   46.4606   -1.0510   -7.6457 C   0  0  0  0  0  0  0  0  0  0  0  0
   46.4815   -1.2344   -9.1394 C   0  0  0  0  0  0  0  0  0  0  0  0
   46.5117   -2.1516   -6.7971 C   0  0  0  0  0  0  0  0  0  0  0  0
   46.5103   -1.9892   -5.4164 C   0  0  0  0  0  0  0  0  0  0  0  0
   46.5637   -3.1851   -4.5032 C   0  0  0  0  0  0  0  0  0  0  0  0
   45.2083   -0.4535   -2.7664 C   0  0  0  0  0  0  0  0  0  0  0  0
   43.9420   -0.5729   -3.4331 C   0  0  0  0  0  0  0  0  0  0  0  0
   42.9789   -0.4551   -2.4831 C   0  0  0  0  0  0  0  0  0  0  0  0
   43.6473   -0.2623   -1.2290 C   0  0  0  0  0  0  0  0  0  0  0  0
   44.9931   -0.2685   -1.4273 N   0  0  0  0  0  0  0  0  0  0  0  0
   41.8931    0.3014    2.6275 H   0  0  0  0  0  0  0  0  0  0  0  0
   43.7894    0.5743    4.5131 H   0  0  0  0  0  0  0  0  0  0  0  0
   47.3369    3.0842    3.8886 H   0  0  0  0  0  0  0  0  0  0  0  0
   46.4488    4.0285    5.0976 H   0  0  0  0  0  0  0  0  0  0  0  0
   45.5730    3.0880    3.8764 H   0  0  0  0  0  0  0  0  0  0  0  0
   46.4451    3.0679    7.2391 H   0  0  0  0  0  0  0  0  0  0  0  0
   47.4695    1.0576    9.5368 H   0  0  0  0  0  0  0  0  0  0  0  0
   45.8395    0.3872    9.6528 H   0  0  0  0  0  0  0  0  0  0  0  0
   46.0696    2.1331    9.4390 H   0  0  0  0  0  0  0  0  0  0  0  0
   46.4146   -1.1783    7.7748 H   0  0  0  0  0  0  0  0  0  0  0  0
   45.5300   -2.0256    4.5312 H   0  0  0  0  0  0  0  0  0  0  0  0
   47.2940   -2.0343    4.5246 H   0  0  0  0  0  0  0  0  0  0  0  0
   46.4141   -2.6409    5.9390 H   0  0  0  0  0  0  0  0  0  0  0  0
   49.0762    0.5988    4.5219 H   0  0  0  0  0  0  0  0  0  0  0  0
   50.9821    0.3781    2.6387 H   0  0  0  0  0  0  0  0  0  0  0  0
   50.9964   -0.3249   -2.6129 H   0  0  0  0  0  0  0  0  0  0  0  0
   49.1001   -0.6049   -4.4974 H   0  0  0  0  0  0  0  0  0  0  0  0
   45.4532    1.9097   -4.5176 H   0  0  0  0  0  0  0  0  0  0  0  0
   46.3327    2.5526   -5.9157 H   0  0  0  0  0  0  0  0  0  0  0  0
   47.2159    1.9732   -4.4918 H   0  0  0  0  0  0  0  0  0  0  0  0
   46.3696    1.0909   -7.7514 H   0  0  0  0  0  0  0  0  0  0  0  0
   46.1119   -2.2220   -9.4159 H   0  0  0  0  0  0  0  0  0  0  0  0
   47.5038   -1.1363   -9.5121 H   0  0  0  0  0  0  0  0  0  0  0  0
   45.8689   -0.4779   -9.6310 H   0  0  0  0  0  0  0  0  0  0  0  0
   46.5515   -3.1517   -7.2163 H   0  0  0  0  0  0  0  0  0  0  0  0
   46.5846   -4.1121   -5.0756 H   0  0  0  0  0  0  0  0  0  0  0  0
   45.6925   -3.1987   -3.8455 H   0  0  0  0  0  0  0  0  0  0  0  0
   47.4553   -3.1418   -3.8747 H   0  0  0  0  0  0  0  0  0  0  0  0
   43.8148   -0.7275   -4.4928 H   0  0  0  0  0  0  0  0  0  0  0  0
   41.9087   -0.4930   -2.6115 H   0  0  0  0  0  0  0  0  0  0  0  0
  2  3  4  0  0  0  0
  3  4  1  0  0  0  0
  4  5  2  0  0  0  0
  5  6  4  0  0  0  0
  1  7  1  0  0  0  0
  3  7  4  0  0  0  0
  6  7  4  0  0  0  0
  6  8  4  0  0  0  0
  8  9  1  0  0  0  0
  9 10  4  0  0  0  0
 10 11  1  0  0  0  0
 10 12  4  0  0  0  0
 12 13  4  0  0  0  0
 13 14  1  0  0  0  0
 13 15  4  0  0  0  0
  9 16  4  0  0  0  0
 15 16  4  0  0  0  0
 16 17  1  0  0  0  0
  8 18  4  0  0  0  0
 18 19  4  0  0  0  0
 19 20  2  0  0  0  0
  1 21  1  0  0  0  0
 18 21  4  0  0  0  0
 20 22  4  0  0  0  0
 21 22  4  0  0  0  0
 22 23  4  0  0  0  0
 23 24  4  0  0  0  0
 24 25  4  0  0  0  0
 25 26  2  0  0  0  0
 26 27  4  0  0  0  0
  1 28  1  0  0  0  0
 24 28  4  0  0  0  0
 27 28  4  0  0  0  0
 27 29  4  0  0  0  0
 29 30  1  0  0  0  0
 30 31  4  0  0  0  0
 31 32  1  0  0  0  0
 31 33  4  0  0  0  0
 33 34  4  0  0  0  0
 34 35  1  0  0  0  0
 34 36  4  0  0  0  0
 30 37  4  0  0  0  0
 36 37  4  0  0  0  0
 37 38  1  0  0  0  0
 29 39  4  0  0  0  0
 39 40  4  0  0  0  0
 40 41  2  0  0  0  0
  2 42  4  0  0  0  0
 41 42  1  0  0  0  0
  1 43  1  0  0  0  0
 39 43  4  0  0  0  0
 42 43  4  0  0  0  0
  2 44  1  0  0  0  0
  4 45  1  0  0  0  0
  5 46  1  0  0  0  0
 11 47  1  0  0  0  0
 11 48  1  0  0  0  0
 11 49  1  0  0  0  0
 12 50  1  0  0  0  0
 14 51  1  0  0  0  0
 14 52  1  0  0  0  0
 14 53  1  0  0  0  0
 15 54  1  0  0  0  0
 17 55  1  0  0  0  0
 17 56  1  0  0  0  0
 17 57  1  0  0  0  0
 19 58  1  0  0  0  0
 20 59  1  0  0  0  0
 25 60  1  0  0  0  0
 26 61  1  0  0  0  0
 32 62  1  0  0  0  0
 32 63  1  0  0  0  0
 32 64  1  0  0  0  0
 33 65  1  0  0  0  0
 35 66  1  0  0  0  0
 35 67  1  0  0  0  0
 35 68  1  0  0  0  0
 36 69  1  0  0  0  0
 38 70  1  0  0  0  0
 38 71  1  0  0  0  0
 38 72  1  0  0  0  0
 40 73  1  0  0  0  0
 41 74  1  0  0  0  0
 76 77  4  0  0  0  0
 77 78  1  0  0  0  0
 78 79  2  0  0  0  0
 79 80  4  0  0  0  0
 75 81  1  0  0  0  0
 77 81  4  0  0  0  0
 80 81  4  0  0  0  0
 80 82  4  0  0  0  0
 82 83  1  0  0  0  0
 83 84  4  0  0  0  0
 84 85  1  0  0  0  0
 84 86  4  0  0  0  0
 86 87  4  0  0  0  0
 87 88  1  0  0  0  0
 87 89  4  0  0  0  0
 83 90  4  0  0  0  0
 89 90  4  0  0  0  0
 90 91  1  0  0  0  0
 82 92  4  0  0  0  0
 92 93  4  0  0  0  0
 93 94  2  0  0  0  0
 75 95  1  0  0  0  0
 92 95  4  0  0  0  0
 94 96  4  0  0  0  0
 95 96  4  0  0  0  0
 96 97  4  0  0  0  0
 97 98  4  0  0  0  0
 98 99  4  0  0  0  0
 99100  2  0  0  0  0
100101  4  0  0  0  0
 75102  1  0  0  0  0
 98102  4  0  0  0  0
101102  4  0  0  0  0
101103  4  0  0  0  0
103104  1  0  0  0  0
104105  4  0  0  0  0
105106  1  0  0  0  0
105107  4  0  0  0  0
107108  4  0  0  0  0
108109  1  0  0  0  0
108110  4  0  0  0  0
104111  4  0  0  0  0
110111  4  0  0  0  0
111112  1  0  0  0  0
103113  4  0  0  0  0
113114  4  0  0  0  0
114115  2  0  0  0  0
 76116  4  0  0  0  0
115116  1  0  0  0  0
 75117  1  0  0  0  0
113117  4  0  0  0  0
116117  4  0  0  0  0
 76118  1  0  0  0  0
 78119  1  0  0  0  0
 79120  1  0  0  0  0
 85121  1  0  0  0  0
 85122  1  0  0  0  0
 85123  1  0  0  0  0
 86124  1  0  0  0  0
 88125  1  0  0  0  0
 88126  1  0  0  0  0
 88127  1  0  0  0  0
 89128  1  0  0  0  0
 91129  1  0  0  0  0
 91130  1  0  0  0  0
 91131  1  0  0  0  0
 93132  1  0  0  0  0
 94133  1  0  0  0  0
 99134  1  0  0  0  0
100135  1  0  0  0  0
106136  1  0  0  0  0
106137  1  0  0  0  0
106138  1  0  0  0  0
107139  1  0  0  0  0
109140  1  0  0  0  0
109141  1  0  0  0  0
109142  1  0  0  0  0
110143  1  0  0  0  0
112144  1  0  0  0  0
112145  1  0  0  0  0
112146  1  0  0  0  0
114147  1  0  0  0  0
115148  1  0  0  0  0
 23150  4  0  0  0  0
149150  3  0  0  0  0
149151  4  0  0  0  0
151152  3  0  0  0  0
153154  3  0  0  0  0
153155  4  0  0  0  0
 97156  4  0  0  0  0
155156  3  0  0  0  0
152158  4  0  0  0  0
158159  4  0  0  0  0
159160  4  0  0  0  0
160161  2  0  0  0  0
161162  4  0  0  0  0
157163  1  0  0  0  0
159163  4  0  0  0  0
162163  4  0  0  0  0
162164  4  0  0  0  0
164165  1  0  0  0  0
165166  4  0  0  0  0
166167  1  0  0  0  0
166168  4  0  0  0  0
168169  4  0  0  0  0
169170  1  0  0  0  0
169171  4  0  0  0  0
165172  4  0  0  0  0
171172  4  0  0  0  0
172173  1  0  0  0  0
164174  4  0  0  0  0
174175  4  0  0  0  0
175176  2  0  0  0  0
157177  1  0  0  0  0
174177  4  0  0  0  0
176178  4  0  0  0  0
177178  4  0  0  0  0
154179  4  0  0  0  0
178179  4  0  0  0  0
179180  4  0  0  0  0
180181  4  0  0  0  0
181182  2  0  0  0  0
182183  4  0  0  0  0
157184  1  0  0  0  0
180184  4  0  0  0  0
183184  4  0  0  0  0
183185  4  0  0  0  0
185186  1  0  0  0  0
186187  4  0  0  0  0
187188  1  0  0  0  0
187189  4  0  0  0  0
189190  4  0  0  0  0
190191  1  0  0  0  0
190192  4  0  0  0  0
186193  4  0  0  0  0
192193  4  0  0  0  0
193194  1  0  0  0  0
185195  4  0  0  0  0
195196  4  0  0  0  0
196197  2  0  0  0  0
158198  4  0  0  0  0
197198  4  0  0  0  0
157199  1  0  0  0  0
195199  4  0  0  0  0
198199  4  0  0  0  0
160200  1  0  0  0  0
161201  1  0  0  0  0
167202  1  0  0  0  0
167203  1  0  0  0  0
167204  1  0  0  0  0
168205  1  0  0  0  0
170206  1  0  0  0  0
170207  1  0  0  0  0
170208  1  0  0  0  0
171209  1  0  0  0  0
173210  1  0  0  0  0
173211  1  0  0  0  0
173212  1  0  0  0  0
175213  1  0  0  0  0
176214  1  0  0  0  0
181215  1  0  0  0  0
182216  1  0  0  0  0
188217  1  0  0  0  0
188218  1  0  0  0  0
188219  1  0  0  0  0
189220  1  0  0  0  0
191221  1  0  0  0  0
191222  1  0  0  0  0
191223  1  0  0  0  0
192224  1  0  0  0  0
194225  1  0  0  0  0
194226  1  0  0  0  0
194227  1  0  0  0  0
196228  1  0  0  0  0
197229  1  0  0  0  0
M  END
