396

C 85.045878 0.080279 0.121322
C 85.775142 -1.286233 -0.059733
C 85.171981 -2.523092 -0.086527
C 86.194158 -3.478264 -0.323965
C 87.386786 -2.790518 -0.441380
N 87.125648 -1.460604 -0.225319
C 88.806121 -3.406199 -0.787396
C 88.837824 -4.794752 -1.299124
C 88.633034 -5.046301 -2.662479
C 88.624375 -6.355954 -3.143254
C 88.819969 -7.411591 -2.248439
S 88.715014 -9.084114 -2.813506
O 88.127818 -9.087567 -4.138329
O 87.583393 -9.735337 -1.859460
O 89.971156 -9.744250 -2.534101
C 89.035796 -7.175654 -0.887061
C 89.046689 -5.863238 -0.416286
C 89.937430 -2.663819 -0.655812
C 91.238966 -3.179897 -1.027125
C 92.142318 -2.229729 -0.815824
N 90.136196 -1.384342 -0.210309
C 91.466828 -1.063828 -0.281421
C 92.135432 0.072791 0.048989
C 91.358478 1.308540 0.669808
C 91.893676 2.276039 1.497235
C 90.868405 3.213747 1.776260
C 89.734350 2.787897 1.117783
N 90.027382 1.598438 0.493819
C 88.328133 3.521084 1.099304
C 88.309233 4.977953 1.350600
C 88.686811 5.866531 0.335490
C 88.722210 7.239106 0.580037
C 88.374612 7.716888 1.847777
S 88.538767 9.445234 2.186457
O 87.477951 10.148447 1.501106
O 89.941438 9.844779 1.487514
O 88.773268 9.608159 3.606855
C 87.986607 6.844194 2.868074
C 87.953675 5.473054 2.613468
C 87.200574 2.811401 0.839192
C 85.881739 3.416917 0.790462
C 84.993840 2.462129 0.528687
C 85.711636 1.218551 0.391591
N 87.032682 1.481151 0.576042
H 83.968673 0.101259 0.007196
H 84.116816 -2.713548 0.035933
H 86.068601 -4.545785 -0.421082
H 87.824001 -0.721792 -0.190038
H 88.476007 -4.205741 -3.336268
H 88.455419 -6.533320 -4.201538
H 86.708202 -9.506625 -2.234195
H 89.191775 -7.996978 -0.193110
H 89.211806 -5.652040 0.638917
H 91.449815 -4.158883 -1.418952
H 93.194750 -2.333693 -1.007275
H 92.911877 2.310207 1.854864
H 90.950002 4.100238 2.386537
H 89.346558 1.001194 0.031481
H 88.959022 5.469491 -0.641069
H 89.023619 7.916133 -0.214564
H 90.667089 9.525978 2.062835
H 87.723000 7.210224 3.856442
H 87.661592 4.770508 3.392465
H 85.654842 4.457430 0.936928
H 83.931272 2.589142 0.427733
C 146.671734 0.027976 0.106258
C 145.942470 1.281452 0.679788
C 146.545630 2.343084 1.314985
C 145.523453 3.278223 1.621978
C 144.330825 2.758288 1.156737
N 144.591963 1.517185 0.632317
C 142.911491 3.463697 1.191209
C 142.879788 4.911722 1.496447
C 143.084577 5.849905 0.475747
C 143.093237 7.214652 0.765230
C 142.897642 7.632620 2.084459
S 143.002598 9.349483 2.495573
O 143.589794 10.057082 1.375540
O 144.134219 9.393486 3.649851
O 141.746456 9.759875 3.083301
C 142.681816 6.708709 3.111788
C 142.670923 5.346941 2.812369
C 141.780182 2.765055 0.907763
C 140.478645 3.399575 0.867835
C 139.575293 2.482575 0.541372
N 141.581416 1.444622 0.604464
C 140.250783 1.211033 0.373764
C 139.582179 0.072791 0.048989
C 140.359134 -1.303864 -0.082593
C 139.823935 -2.563257 0.103465
C 140.849206 -3.505728 -0.159023
C 141.983262 -2.794871 -0.490116
N 141.690230 -1.455743 -0.385818
C 143.389478 -3.405910 -0.895747
C 143.408378 -4.773261 -1.457857
C 143.030801 -4.985777 -2.790094
C 142.995402 -6.278158 -3.313083
C 143.342999 -7.357058 -2.493684
S 143.178844 -9.000778 -3.126197
O 144.239661 -9.231725 -4.080596
O 141.776173 -8.967347 -3.930584
O 142.944343 -9.894255 -2.010054
C 143.731004 -7.160752 -1.165504
C 143.763936 -5.864236 -0.651796
C 144.517037 -2.666592 -0.738530
C 145.835873 -3.153427 -1.101869
C 146.723771 -2.205668 -0.815690
C 146.005975 -1.079676 -0.270323
N 144.684930 -1.400158 -0.253806
H 147.748938 0.070913 -0.001544
H 147.600796 2.439226 1.519989
H 145.649010 4.233864 2.107553
H 143.893611 0.872788 0.269219
H 143.241605 5.496501 -0.541916
H 143.262193 7.927748 -0.036591
H 145.009409 9.399132 3.210870
H 142.525836 7.035099 4.136293
H 142.505805 4.606833 3.593585
H 140.267796 4.437000 1.056757
H 138.522861 2.672445 0.434548
H 138.805735 -2.782414 0.388134
H 140.767609 -4.581022 -0.113761
H 142.371053 -0.704074 -0.459655
H 142.758589 -4.130128 -3.405865
H 142.693992 -6.428820 -4.346067
H 141.050522 -9.003397 -3.273828
H 143.994611 -7.996423 -0.523239
H 144.056020 -5.683664 0.381549
H 146.062770 -4.112446 -1.531290
H 147.786340 -2.259526 -0.968737
C 94.033240 0.072791 0.048989
C 95.255158 0.072791 0.048989
C 104.640544 0.072791 0.048989
C 105.862461 0.072791 0.048989
C 115.247847 0.072791 0.048989
C 116.469765 0.072791 0.048989
C 125.855150 0.072791 0.048989
C 127.077068 0.072791 0.048989
C 136.462454 0.072791 0.048989
C 137.684371 0.072791 0.048989
C 96.456300 -0.039808 -0.026791
C 97.253478 0.428828 -1.311996
C 96.756962 0.546073 -2.594059
C 97.796653 1.072452 -3.403481
C 98.895838 1.254333 -2.590738
N 98.578631 0.787139 -1.340413
C 100.281648 1.890389 -3.009355
C 100.267997 2.910979 -4.079910
C 100.591348 2.560412 -5.397829
C 100.543427 3.517524 -6.410727
C 100.177485 4.829990 -6.094688
S 100.042999 6.011459 -7.404529
O 99.431469 7.216320 -6.881169
O 98.923969 5.367142 -8.376970
O 101.295428 6.044523 -8.124211
C 99.869366 5.198947 -4.782418
C 99.912064 4.232527 -3.777350
C 101.419390 1.543521 -2.354428
C 102.704754 2.128890 -2.673412
C 103.616228 1.603574 -1.861617
N 101.631380 0.665474 -1.328834
C 102.956257 0.658522 -0.983633
C 103.621698 -0.039808 -0.026791
C 102.827256 -1.042716 0.907730
C 103.333959 -2.161445 1.536193
C 102.295398 -2.701790 2.338653
C 101.184707 -1.902317 2.165534
N 101.497443 -0.941992 1.236585
C 99.795028 -2.049614 2.907665
C 99.801624 -2.664422 4.253725
C 99.397359 -3.995689 4.425837
C 99.383104 -4.567093 5.697584
C 99.783522 -3.799645 6.796029
S 99.654613 -4.498075 8.415823
O 100.657732 -5.530601 8.548343
O 98.200755 -5.206973 8.414093
O 99.537062 -3.416367 9.372034
C 100.203004 -2.475864 6.639206
C 100.213358 -1.912638 5.362853
C 98.656936 -1.573307 2.337420
C 97.369309 -1.639968 2.998202
C 96.459139 -1.091446 2.200264
C 97.120787 -0.647295 0.990800
N 98.446049 -0.959441 1.134667
H 95.754288 0.299979 -2.908972
H 97.742480 1.308286 -4.455047
H 99.234361 0.677984 -0.572348
H 100.876726 1.533195 -5.617369
H 100.788777 3.233752 -7.430658
H 98.043801 5.570076 -7.998709
H 99.588300 6.217315 -4.528284
H 99.667430 4.490964 -2.747999
H 102.899883 2.865681 -3.432061
H 104.662203 1.852587 -1.870043
H 104.343248 -2.534695 1.450440
H 102.359769 -3.564189 2.984980
H 100.838785 -0.285701 0.827459
H 99.083270 -4.569914 3.555865
H 99.057766 -5.596618 5.818680
H 97.524725 -4.509074 8.547057
H 100.509181 -1.873495 7.490211
H 100.528406 -0.880703 5.215237
H 97.172197 -2.052414 3.970661
H 95.413572 -0.997498 2.430889
C 107.063603 -0.039808 -0.026791
C 107.860782 0.428828 -1.311996
C 107.364265 0.546073 -2.594059
C 108.403957 1.072452 -3.403481
C 109.503141 1.254333 -2.590738
N 109.185935 0.787139 -1.340413
C 110.888951 1.890389 -3.009355
C 110.875301 2.910979 -4.079910
C 111.198651 2.560412 -5.397829
C 111.150730 3.517524 -6.410727
C 110.784788 4.829990 -6.094688
S 110.650302 6.011459 -7.404529
O 110.038773 7.216320 -6.881169
O 109.531273 5.367142 -8.376970
O 111.902732 6.044523 -8.124211
C 110.476669 5.198947 -4.782418
C 110.519367 4.232527 -3.777350
C 112.026693 1.543521 -2.354428
C 113.312058 2.128890 -2.673412
C 114.223531 1.603574 -1.861617
N 112.238684 0.665474 -1.328834
C 113.563560 0.658522 -0.983633
C 114.229001 -0.039808 -0.026791
C 113.434560 -1.042716 0.907730
C 113.941262 -2.161445 1.536193
C 112.902701 -2.701790 2.338653
C 111.792011 -1.902317 2.165534
N 112.104747 -0.941992 1.236585
C 110.402332 -2.049614 2.907665
C 110.408928 -2.664422 4.253725
C 110.004662 -3.995689 4.425837
C 109.990407 -4.567093 5.697584
C 110.390825 -3.799645 6.796029
S 110.261916 -4.498075 8.415823
O 111.265036 -5.530601 8.548343
O 108.808059 -5.206973 8.414093
O 110.144366 -3.416367 9.372034
C 110.810307 -2.475864 6.639206
C 110.820662 -1.912638 5.362853
C 109.264239 -1.573307 2.337420
C 107.976612 -1.639968 2.998202
C 107.066443 -1.091446 2.200264
C 107.728090 -0.647295 0.990800
N 109.053352 -0.959441 1.134667
H 106.361591 0.299979 -2.908972
H 108.349783 1.308286 -4.455047
H 109.841665 0.677984 -0.572348
H 111.484029 1.533195 -5.617369
H 111.396081 3.233752 -7.430658
H 108.651105 5.570076 -7.998709
H 110.195603 6.217315 -4.528284
H 110.274733 4.490964 -2.747999
H 113.507186 2.865681 -3.432061
H 115.269506 1.852587 -1.870043
H 114.950552 -2.534695 1.450440
H 112.967072 -3.564189 2.984980
H 111.446089 -0.285701 0.827459
H 109.690573 -4.569914 3.555865
H 109.665069 -5.596618 5.818680
H 108.132028 -4.509074 8.547057
H 111.116484 -1.873495 7.490211
H 111.135709 -0.880703 5.215237
H 107.779501 -2.052414 3.970661
H 106.020875 -0.997498 2.430889
C 117.670907 -0.039808 -0.026791
C 118.468085 0.428828 -1.311996
C 117.971569 0.546073 -2.594059
C 119.011260 1.072452 -3.403481
C 120.110444 1.254333 -2.590738
N 119.793238 0.787139 -1.340413
C 121.496255 1.890389 -3.009355
C 121.482604 2.910979 -4.079910
C 121.805955 2.560412 -5.397829
C 121.758034 3.517524 -6.410727
C 121.392092 4.829990 -6.094688
S 121.257606 6.011459 -7.404529
O 120.646076 7.216320 -6.881169
O 120.138576 5.367142 -8.376970
O 122.510035 6.044523 -8.124211
C 121.083972 5.198947 -4.782418
C 121.126671 4.232527 -3.777350
C 122.633997 1.543521 -2.354428
C 123.919361 2.128890 -2.673412
C 124.830835 1.603574 -1.861617
N 122.845987 0.665474 -1.328834
C 124.170864 0.658522 -0.983633
C 124.836304 -0.039808 -0.026791
C 124.041863 -1.042716 0.907730
C 124.548565 -2.161445 1.536193
C 123.510005 -2.701790 2.338653
C 122.399314 -1.902317 2.165534
N 122.712050 -0.941992 1.236585
C 121.009635 -2.049614 2.907665
C 121.016231 -2.664422 4.253725
C 120.611965 -3.995689 4.425837
C 120.597711 -4.567093 5.697584
C 120.998129 -3.799645 6.796029
S 120.869220 -4.498075 8.415823
O 121.872339 -5.530601 8.548343
O 119.415362 -5.206973 8.414093
O 120.751669 -3.416367 9.372034
C 121.417611 -2.475864 6.639206
C 121.427965 -1.912638 5.362853
C 119.871543 -1.573307 2.337420
C 118.583916 -1.639968 2.998202
C 117.673746 -1.091446 2.200264
C 118.335393 -0.647295 0.990800
N 119.660656 -0.959441 1.134667
H 116.968895 0.299979 -2.908972
H 118.957086 1.308286 -4.455047
H 120.448968 0.677984 -0.572348
H 122.091333 1.533195 -5.617369
H 122.003384 3.233752 -7.430658
H 119.258408 5.570076 -7.998709
H 120.802907 6.217315 -4.528284
H 120.882037 4.490964 -2.747999
H 124.114489 2.865681 -3.432061
H 125.876810 1.852587 -1.870043
H 125.557855 -2.534695 1.450440
H 123.574375 -3.564189 2.984980
H 122.053392 -0.285701 0.827459
H 120.297877 -4.569914 3.555865
H 120.272372 -5.596618 5.818680
H 118.739332 -4.509074 8.547057
H 121.723788 -1.873495 7.490211
H 121.743012 -0.880703 5.215237
H 118.386804 -2.052414 3.970661
H 116.628178 -0.997498 2.430889
C 128.278210 -0.039808 -0.026791
C 129.075388 0.428828 -1.311996
C 128.578872 0.546073 -2.594059
C 129.618563 1.072452 -3.403481
C 130.717748 1.254333 -2.590738
N 130.400541 0.787139 -1.340413
C 132.103558 1.890389 -3.009355
C 132.089907 2.910979 -4.079910
C 132.413258 2.560412 -5.397829
C 132.365337 3.517524 -6.410727
C 131.999395 4.829990 -6.094688
S 131.864909 6.011459 -7.404529
O 131.253380 7.216320 -6.881169
O 130.745879 5.367142 -8.376970
O 133.117339 6.044523 -8.124211
C 131.691276 5.198947 -4.782418
C 131.733974 4.232527 -3.777350
C 133.241300 1.543521 -2.354428
C 134.526665 2.128890 -2.673412
C 135.438138 1.603574 -1.861617
N 133.453290 0.665474 -1.328834
C 134.778167 0.658522 -0.983633
C 135.443608 -0.039808 -0.026791
C 134.649166 -1.042716 0.907730
C 135.155869 -2.161445 1.536193
C 134.117308 -2.701790 2.338653
C 133.006617 -1.902317 2.165534
N 133.319353 -0.941992 1.236585
C 131.616939 -2.049614 2.907665
C 131.623535 -2.664422 4.253725
C 131.219269 -3.995689 4.425837
C 131.205014 -4.567093 5.697584
C 131.605432 -3.799645 6.796029
S 131.476523 -4.498075 8.415823
O 132.479642 -5.530601 8.548343
O 130.022665 -5.206973 8.414093
O 131.358973 -3.416367 9.372034
C 132.024914 -2.475864 6.639206
C 132.035268 -1.912638 5.362853
C 130.478846 -1.573307 2.337420
C 129.191219 -1.639968 2.998202
C 128.281049 -1.091446 2.200264
C 128.942697 -0.647295 0.990800
N 130.267959 -0.959441 1.134667
H 127.576198 0.299979 -2.908972
H 129.564390 1.308286 -4.455047
H 131.056272 0.677984 -0.572348
H 132.698636 1.533195 -5.617369
H 132.610688 3.233752 -7.430658
H 129.865711 5.570076 -7.998709
H 131.410210 6.217315 -4.528284
H 131.489340 4.490964 -2.747999
H 134.721793 2.865681 -3.432061
H 136.484113 1.852587 -1.870043
H 136.165158 -2.534695 1.450440
H 134.181679 -3.564189 2.984980
H 132.660695 -0.285701 0.827459
H 130.905180 -4.569914 3.555865
H 130.879676 -5.596618 5.818680
H 129.346635 -4.509074 8.547057
H 132.331091 -1.873495 7.490211
H 132.350316 -0.880703 5.215237
H 128.994107 -2.052414 3.970661
H 127.235482 -0.997498 2.430889
