 xtb: 6.5.1 (b24c23e)
          07302203543D

132151  0     0  0            999 V2000
   15.1887   -0.1018    0.0089 Co  0  0  0  0  0  0  0  0  0  0  0  0
   11.8144   -0.1839    0.0480 C   0  0  0  0  0  0  0  0  0  0  0  0
   12.4909   -0.4599    1.2165 C   0  0  0  0  0  0  0  0  0  0  0  0
   11.8418   -0.7792    2.4517 C   0  0  0  0  0  0  0  0  0  0  0  0
   12.8010   -0.7741    3.4063 C   0  0  0  0  0  0  0  0  0  0  0  0
   14.0380   -0.4637    2.7507 C   0  0  0  0  0  0  0  0  0  0  0  0
   13.8426   -0.3118    1.4018 N   0  0  0  0  0  0  0  0  0  0  0  0
   15.2251   -0.1919    3.4176 C   0  0  0  0  0  0  0  0  0  0  0  0
   16.3996    0.1030    2.7426 C   0  0  0  0  0  0  0  0  0  0  0  0
   17.6545    0.3403    3.3911 C   0  0  0  0  0  0  0  0  0  0  0  0
   18.5987    0.3595    2.4206 C   0  0  0  0  0  0  0  0  0  0  0  0
   16.5715    0.0258    1.3786 N   0  0  0  0  0  0  0  0  0  0  0  0
   17.9196    0.1346    1.1841 C   0  0  0  0  0  0  0  0  0  0  0  0
   18.5835   -0.0676   -0.0288 C   0  0  0  0  0  0  0  0  0  0  0  0
   17.8907   -0.2463   -1.2287 C   0  0  0  0  0  0  0  0  0  0  0  0
   18.5368   -0.4676   -2.4833 C   0  0  0  0  0  0  0  0  0  0  0  0
   17.5726   -0.4028   -3.4328 C   0  0  0  0  0  0  0  0  0  0  0  0
   16.3410   -0.1367   -2.7529 C   0  0  0  0  0  0  0  0  0  0  0  0
   15.1410    0.1329   -3.3946 C   0  0  0  0  0  0  0  0  0  0  0  0
   15.1237    0.2244   -4.8717 C   0  0  0  0  0  0  0  0  0  0  0  0
   14.3285   -0.6434   -5.6253 C   0  0  0  0  0  0  0  0  0  0  0  0
   14.3195   -0.5601   -7.0054 C   0  0  0  0  0  0  0  0  0  0  0  0
   15.1009    0.3955   -7.6578 C   0  0  0  0  0  0  0  0  0  0  0  0
   15.0554    0.4467   -9.1390 C   0  0  0  0  0  0  0  0  0  0  0  0
   15.8421    1.3959   -9.6678 O   0  0  0  0  0  0  0  0  0  0  0  0
   14.3847   -0.2828   -9.8241 O   0  0  0  0  0  0  0  0  0  0  0  0
   15.8946    1.2658   -6.9099 C   0  0  0  0  0  0  0  0  0  0  0  0
   15.9065    1.1770   -5.5289 C   0  0  0  0  0  0  0  0  0  0  0  0
   13.9552    0.3020   -2.6927 C   0  0  0  0  0  0  0  0  0  0  0  0
   12.6936    0.6036   -3.3039 C   0  0  0  0  0  0  0  0  0  0  0  0
   11.7547    0.4975   -2.3348 C   0  0  0  0  0  0  0  0  0  0  0  0
   12.4456    0.1503   -1.1305 C   0  0  0  0  0  0  0  0  0  0  0  0
   13.7998    0.0937   -1.3458 N   0  0  0  0  0  0  0  0  0  0  0  0
   16.5416   -0.0993   -1.3923 N   0  0  0  0  0  0  0  0  0  0  0  0
   15.2426   -0.2303    4.8989 C   0  0  0  0  0  0  0  0  0  0  0  0
   15.0257   -1.4324    5.5765 C   0  0  0  0  0  0  0  0  0  0  0  0
   15.0503   -1.4671    6.9587 C   0  0  0  0  0  0  0  0  0  0  0  0
   15.2891   -0.3007    7.6877 C   0  0  0  0  0  0  0  0  0  0  0  0
   15.3073   -0.3896    9.1676 C   0  0  0  0  0  0  0  0  0  0  0  0
   15.5566    0.7814    9.7729 O   0  0  0  0  0  0  0  0  0  0  0  0
   15.1195   -1.4037    9.7901 O   0  0  0  0  0  0  0  0  0  0  0  0
   15.5034    0.9025    7.0148 C   0  0  0  0  0  0  0  0  0  0  0  0
   15.4815    0.9347    5.6312 C   0  0  0  0  0  0  0  0  0  0  0  0
   10.7314   -0.2178    0.0603 H   0  0  0  0  0  0  0  0  0  0  0  0
   10.7837   -0.9581    2.5568 H   0  0  0  0  0  0  0  0  0  0  0  0
   12.6909   -0.9436    4.4650 H   0  0  0  0  0  0  0  0  0  0  0  0
   17.7885    0.4495    4.4547 H   0  0  0  0  0  0  0  0  0  0  0  0
   19.6636    0.4964    2.5179 H   0  0  0  0  0  0  0  0  0  0  0  0
   19.5940   -0.6396   -2.6047 H   0  0  0  0  0  0  0  0  0  0  0  0
   17.6742   -0.5254   -4.4988 H   0  0  0  0  0  0  0  0  0  0  0  0
   13.7317   -1.3951   -5.1214 H   0  0  0  0  0  0  0  0  0  0  0  0
   13.7096   -1.2344   -7.5965 H   0  0  0  0  0  0  0  0  0  0  0  0
   15.7558    1.3636  -10.6344 H   0  0  0  0  0  0  0  0  0  0  0  0
   16.5003    2.0109   -7.4120 H   0  0  0  0  0  0  0  0  0  0  0  0
   16.5146    1.8605   -4.9470 H   0  0  0  0  0  0  0  0  0  0  0  0
   12.5584    0.8581   -4.3426 H   0  0  0  0  0  0  0  0  0  0  0  0
   10.6876    0.6342   -2.4089 H   0  0  0  0  0  0  0  0  0  0  0  0
   14.8542   -2.3416    5.0117 H   0  0  0  0  0  0  0  0  0  0  0  0
   14.8878   -2.3976    7.4916 H   0  0  0  0  0  0  0  0  0  0  0  0
   15.5516    0.6383   10.7332 H   0  0  0  0  0  0  0  0  0  0  0  0
   15.6864    1.8107    7.5768 H   0  0  0  0  0  0  0  0  0  0  0  0
   15.6372    1.8714    5.1081 H   0  0  0  0  0  0  0  0  0  0  0  0
   33.7159   -0.0992   -0.0221 Co  0  0  0  0  0  0  0  0  0  0  0  0
   37.0901   -0.1771   -0.0700 C   0  0  0  0  0  0  0  0  0  0  0  0
   36.4138   -0.3165   -1.2626 C   0  0  0  0  0  0  0  0  0  0  0  0
   37.0628   -0.4920   -2.5263 C   0  0  0  0  0  0  0  0  0  0  0  0
   36.1037   -0.3773   -3.4741 C   0  0  0  0  0  0  0  0  0  0  0  0
   34.8668   -0.1435   -2.7872 C   0  0  0  0  0  0  0  0  0  0  0  0
   35.0621   -0.1474   -1.4298 N   0  0  0  0  0  0  0  0  0  0  0  0
   33.6800    0.2045   -3.4185 C   0  0  0  0  0  0  0  0  0  0  0  0
   32.5059    0.4212   -2.7139 C   0  0  0  0  0  0  0  0  0  0  0  0
   31.2513    0.7327   -3.3307 C   0  0  0  0  0  0  0  0  0  0  0  0
   30.3069    0.6400   -2.3647 C   0  0  0  0  0  0  0  0  0  0  0  0
   32.3337    0.1872   -1.3679 N   0  0  0  0  0  0  0  0  0  0  0  0
   30.9856    0.2734   -1.1624 C   0  0  0  0  0  0  0  0  0  0  0  0
   30.3211   -0.0675    0.0188 C   0  0  0  0  0  0  0  0  0  0  0  0
   31.0133   -0.3834    1.1904 C   0  0  0  0  0  0  0  0  0  0  0  0
   30.3669   -0.7473    2.4110 C   0  0  0  0  0  0  0  0  0  0  0  0
   31.3307   -0.7923    3.3621 C   0  0  0  0  0  0  0  0  0  0  0  0
   32.5627   -0.4505    2.7175 C   0  0  0  0  0  0  0  0  0  0  0  0
   33.7629   -0.2579    3.3860 C   0  0  0  0  0  0  0  0  0  0  0  0
   33.7804   -0.3377    4.8637 C   0  0  0  0  0  0  0  0  0  0  0  0
   34.5755   -1.2870    5.5118 C   0  0  0  0  0  0  0  0  0  0  0  0
   34.5848   -1.3639    6.8922 C   0  0  0  0  0  0  0  0  0  0  0  0
   33.8039   -0.4900    7.6510 C   0  0  0  0  0  0  0  0  0  0  0  0
   33.8491   -0.6112    9.1281 C   0  0  0  0  0  0  0  0  0  0  0  0
   33.0617    0.2698    9.7634 O   0  0  0  0  0  0  0  0  0  0  0  0
   34.5198   -1.4151    9.7240 O   0  0  0  0  0  0  0  0  0  0  0  0
   33.0105    0.4613    7.0090 C   0  0  0  0  0  0  0  0  0  0  0  0
   32.9982    0.5330    5.6270 C   0  0  0  0  0  0  0  0  0  0  0  0
   34.9490   -0.0100    2.7084 C   0  0  0  0  0  0  0  0  0  0  0  0
   36.2107    0.2181    3.3504 C   0  0  0  0  0  0  0  0  0  0  0  0
   37.1497    0.2241    2.3756 C   0  0  0  0  0  0  0  0  0  0  0  0
   36.4587    0.0188    1.1391 C   0  0  0  0  0  0  0  0  0  0  0  0
   35.1045   -0.0614    1.3464 N   0  0  0  0  0  0  0  0  0  0  0  0
   32.3624   -0.2566    1.3703 N   0  0  0  0  0  0  0  0  0  0  0  0
   33.6626    0.3366   -4.8943 C   0  0  0  0  0  0  0  0  0  0  0  0
   33.8789   -0.7797   -5.7056 C   0  0  0  0  0  0  0  0  0  0  0  0
   33.8544   -0.6553   -7.0827 C   0  0  0  0  0  0  0  0  0  0  0  0
   33.6162    0.5874   -7.6728 C   0  0  0  0  0  0  0  0  0  0  0  0
   33.5980    0.6693   -9.1530 C   0  0  0  0  0  0  0  0  0  0  0  0
   33.3502    1.9024   -9.6196 O   0  0  0  0  0  0  0  0  0  0  0  0
   33.7848   -0.2667   -9.8881 O   0  0  0  0  0  0  0  0  0  0  0  0
   33.4025    1.7053   -6.8659 C   0  0  0  0  0  0  0  0  0  0  0  0
   33.4243    1.5782   -5.4879 C   0  0  0  0  0  0  0  0  0  0  0  0
   38.1731   -0.2096   -0.0859 H   0  0  0  0  0  0  0  0  0  0  0  0
   38.1209   -0.6580   -2.6512 H   0  0  0  0  0  0  0  0  0  0  0  0
   36.2138   -0.4243   -4.5452 H   0  0  0  0  0  0  0  0  0  0  0  0
   31.1176    0.9644   -4.3746 H   0  0  0  0  0  0  0  0  0  0  0  0
   29.2421    0.7878   -2.4457 H   0  0  0  0  0  0  0  0  0  0  0  0
   29.3095   -0.9317    2.5116 H   0  0  0  0  0  0  0  0  0  0  0  0
   31.2288   -1.0363    4.4069 H   0  0  0  0  0  0  0  0  0  0  0  0
   35.1719   -1.9756    4.9241 H   0  0  0  0  0  0  0  0  0  0  0  0
   35.1948   -2.1022    7.4012 H   0  0  0  0  0  0  0  0  0  0  0  0
   33.1476    0.1251   10.7197 H   0  0  0  0  0  0  0  0  0  0  0  0
   32.4051    1.1436    7.5940 H   0  0  0  0  0  0  0  0  0  0  0  0
   32.3905    1.2795    5.1283 H   0  0  0  0  0  0  0  0  0  0  0  0
   36.3460    0.3507    4.4115 H   0  0  0  0  0  0  0  0  0  0  0  0
   38.2169    0.3507    2.4650 H   0  0  0  0  0  0  0  0  0  0  0  0
   34.0498   -1.7480   -5.2492 H   0  0  0  0  0  0  0  0  0  0  0  0
   34.0163   -1.5183   -7.7191 H   0  0  0  0  0  0  0  0  0  0  0  0
   33.3551    1.8706  -10.5901 H   0  0  0  0  0  0  0  0  0  0  0  0
   33.2199    2.6722   -7.3197 H   0  0  0  0  0  0  0  0  0  0  0  0
   33.2691    2.4486   -4.8605 H   0  0  0  0  0  0  0  0  0  0  0  0
   19.9860   -0.0820   -0.0407 C   0  0  0  0  0  0  0  0  0  0  0  0
   21.2111   -0.0918   -0.0393 C   0  0  0  0  0  0  0  0  0  0  0  0
   22.5527   -0.1016   -0.0353 C   0  0  0  0  0  0  0  0  0  0  0  0
   23.7840   -0.1064   -0.0182 C   0  0  0  0  0  0  0  0  0  0  0  0
   25.1207   -0.1056   -0.0043 C   0  0  0  0  0  0  0  0  0  0  0  0
   26.3522   -0.1028    0.0130 C   0  0  0  0  0  0  0  0  0  0  0  0
   27.6937   -0.0936    0.0208 C   0  0  0  0  0  0  0  0  0  0  0  0
   28.9188   -0.0847    0.0270 C   0  0  0  0  0  0  0  0  0  0  0  0
  2  3  4  0  0  0  0
  3  4  1  0  0  0  0
  4  5  2  0  0  0  0
  5  6  4  0  0  0  0
  1  7  1  0  0  0  0
  3  7  4  0  0  0  0
  6  7  4  0  0  0  0
  6  8  4  0  0  0  0
  8  9  4  0  0  0  0
  9 10  4  0  0  0  0
 10 11  2  0  0  0  0
  1 12  1  0  0  0  0
  9 12  4  0  0  0  0
 11 13  4  0  0  0  0
 12 13  4  0  0  0  0
 13 14  4  0  0  0  0
 14 15  4  0  0  0  0
 15 16  4  0  0  0  0
 16 17  2  0  0  0  0
 17 18  4  0  0  0  0
 18 19  4  0  0  0  0
 19 20  1  0  0  0  0
 20 21  4  0  0  0  0
 21 22  4  0  0  0  0
 22 23  4  0  0  0  0
 23 24  1  0  0  0  0
 24 25  4  0  0  0  0
 24 26  2  0  0  0  0
 23 27  4  0  0  0  0
 20 28  4  0  0  0  0
 27 28  4  0  0  0  0
 19 29  4  0  0  0  0
 29 30  4  0  0  0  0
 30 31  2  0  0  0  0
  2 32  4  0  0  0  0
 31 32  1  0  0  0  0
  1 33  1  0  0  0  0
 29 33  4  0  0  0  0
 32 33  4  0  0  0  0
  1 34  1  0  0  0  0
 15 34  4  0  0  0  0
 18 34  4  0  0  0  0
  8 35  1  0  0  0  0
 35 36  4  0  0  0  0
 36 37  4  0  0  0  0
 37 38  4  0  0  0  0
 38 39  1  0  0  0  0
 39 40  4  0  0  0  0
 39 41  2  0  0  0  0
 38 42  4  0  0  0  0
 35 43  4  0  0  0  0
 42 43  4  0  0  0  0
  2 44  1  0  0  0  0
  4 45  1  0  0  0  0
  5 46  1  0  0  0  0
 10 47  1  0  0  0  0
 11 48  1  0  0  0  0
 16 49  1  0  0  0  0
 17 50  1  0  0  0  0
 21 51  1  0  0  0  0
 22 52  1  0  0  0  0
 25 53  1  0  0  0  0
 27 54  1  0  0  0  0
 28 55  1  0  0  0  0
 30 56  1  0  0  0  0
 31 57  1  0  0  0  0
 36 58  1  0  0  0  0
 37 59  1  0  0  0  0
 40 60  1  0  0  0  0
 42 61  1  0  0  0  0
 43 62  1  0  0  0  0
 64 65  4  0  0  0  0
 65 66  1  0  0  0  0
 66 67  2  0  0  0  0
 67 68  4  0  0  0  0
 63 69  1  0  0  0  0
 65 69  4  0  0  0  0
 68 69  4  0  0  0  0
 68 70  4  0  0  0  0
 70 71  4  0  0  0  0
 71 72  4  0  0  0  0
 72 73  2  0  0  0  0
 63 74  1  0  0  0  0
 71 74  4  0  0  0  0
 73 75  4  0  0  0  0
 74 75  4  0  0  0  0
 75 76  4  0  0  0  0
 76 77  4  0  0  0  0
 77 78  4  0  0  0  0
 78 79  2  0  0  0  0
 79 80  4  0  0  0  0
 80 81  4  0  0  0  0
 81 82  1  0  0  0  0
 82 83  4  0  0  0  0
 83 84  4  0  0  0  0
 84 85  4  0  0  0  0
 85 86  1  0  0  0  0
 86 87  4  0  0  0  0
 86 88  2  0  0  0  0
 85 89  4  0  0  0  0
 82 90  4  0  0  0  0
 89 90  4  0  0  0  0
 81 91  4  0  0  0  0
 91 92  4  0  0  0  0
 92 93  2  0  0  0  0
 64 94  4  0  0  0  0
 93 94  1  0  0  0  0
 63 95  1  0  0  0  0
 91 95  4  0  0  0  0
 94 95  4  0  0  0  0
 63 96  1  0  0  0  0
 77 96  4  0  0  0  0
 80 96  4  0  0  0  0
 70 97  1  0  0  0  0
 97 98  4  0  0  0  0
 98 99  4  0  0  0  0
 99100  4  0  0  0  0
100101  1  0  0  0  0
101102  4  0  0  0  0
101103  2  0  0  0  0
100104  4  0  0  0  0
 97105  4  0  0  0  0
104105  4  0  0  0  0
 64106  1  0  0  0  0
 66107  1  0  0  0  0
 67108  1  0  0  0  0
 72109  1  0  0  0  0
 73110  1  0  0  0  0
 78111  1  0  0  0  0
 79112  1  0  0  0  0
 83113  1  0  0  0  0
 84114  1  0  0  0  0
 87115  1  0  0  0  0
 89116  1  0  0  0  0
 90117  1  0  0  0  0
 92118  1  0  0  0  0
 93119  1  0  0  0  0
 98120  1  0  0  0  0
 99121  1  0  0  0  0
102122  1  0  0  0  0
104123  1  0  0  0  0
105124  1  0  0  0  0
 14125  4  0  0  0  0
125126  3  0  0  0  0
126127  4  0  0  0  0
127128  3  0  0  0  0
128129  4  0  0  0  0
129130  3  0  0  0  0
130131  4  0  0  0  0
 76132  4  0  0  0  0
131132  3  0  0  0  0
M  END
