 xtb: 6.5.1 (b24c23e)
          07302207113D

254281  0     0  0            999 V2000
   45.3545   -0.0900   -0.0954 C   0  0  0  0  0  0  0  0  0  0  0  0
   45.9737   -1.2989   -0.3851 C   0  0  0  0  0  0  0  0  0  0  0  0
   45.3319   -2.5252   -0.7174 C   0  0  0  0  0  0  0  0  0  0  0  0
   46.3002   -3.4714   -0.9003 C   0  0  0  0  0  0  0  0  0  0  0  0
   47.5651   -2.8557   -0.6758 C   0  0  0  0  0  0  0  0  0  0  0  0
   47.3177   -1.5452   -0.3822 N   0  0  0  0  0  0  0  0  0  0  0  0
   48.8325   -3.4449   -0.7525 C   0  0  0  0  0  0  0  0  0  0  0  0
   48.8766   -4.8954   -1.0492 C   0  0  0  0  0  0  0  0  0  0  0  0
   49.5409   -5.3656   -2.1866 C   0  0  0  0  0  0  0  0  0  0  0  0
   49.5790   -6.7183   -2.4638 C   0  0  0  0  0  0  0  0  0  0  0  0
   48.9578   -7.6342   -1.6081 C   0  0  0  0  0  0  0  0  0  0  0  0
   49.0155   -9.0731   -1.9239 C   0  0  0  0  0  0  0  0  0  0  0  0
   49.5730   -9.5242   -2.8915 O   0  0  0  0  0  0  0  0  0  0  0  0
   48.2953   -7.1665   -0.4706 C   0  0  0  0  0  0  0  0  0  0  0  0
   48.2530   -5.8112   -0.1965 C   0  0  0  0  0  0  0  0  0  0  0  0
   50.0425   -2.7685   -0.5718 C   0  0  0  0  0  0  0  0  0  0  0  0
   51.3439   -3.4128   -0.5896 C   0  0  0  0  0  0  0  0  0  0  0  0
   52.2555   -2.4377   -0.3956 C   0  0  0  0  0  0  0  0  0  0  0  0
   50.1842   -1.4349   -0.3433 N   0  0  0  0  0  0  0  0  0  0  0  0
   51.5097   -1.2025   -0.2481 C   0  0  0  0  0  0  0  0  0  0  0  0
   52.1344    0.0455   -0.0584 C   0  0  0  0  0  0  0  0  0  0  0  0
   51.4896    1.2782    0.1506 C   0  0  0  0  0  0  0  0  0  0  0  0
   52.1242    2.5356    0.3343 C   0  0  0  0  0  0  0  0  0  0  0  0
   51.1517    3.4708    0.5549 C   0  0  0  0  0  0  0  0  0  0  0  0
   49.8921    2.8104    0.5191 C   0  0  0  0  0  0  0  0  0  0  0  0
   50.1474    1.4907    0.2582 N   0  0  0  0  0  0  0  0  0  0  0  0
   48.6259    3.3825    0.6875 C   0  0  0  0  0  0  0  0  0  0  0  0
   48.5857    4.8245    1.0207 C   0  0  0  0  0  0  0  0  0  0  0  0
   49.2105    5.2990    2.1788 C   0  0  0  0  0  0  0  0  0  0  0  0
   49.1700    6.6433    2.4938 C   0  0  0  0  0  0  0  0  0  0  0  0
   48.5084    7.5470    1.6556 C   0  0  0  0  0  0  0  0  0  0  0  0
   48.4824    8.9771    2.0124 C   0  0  0  0  0  0  0  0  0  0  0  0
   49.0123    9.4315    2.9940 O   0  0  0  0  0  0  0  0  0  0  0  0
   47.8866    7.0753    0.4969 C   0  0  0  0  0  0  0  0  0  0  0  0
   47.9234    5.7281    0.1846 C   0  0  0  0  0  0  0  0  0  0  0  0
   47.4145    2.6923    0.5667 C   0  0  0  0  0  0  0  0  0  0  0  0
   46.1051    3.2861    0.7904 C   0  0  0  0  0  0  0  0  0  0  0  0
   45.2006    2.3132    0.5617 C   0  0  0  0  0  0  0  0  0  0  0  0
   45.9564    1.1220    0.2154 C   0  0  0  0  0  0  0  0  0  0  0  0
   47.2862    1.3850    0.2399 N   0  0  0  0  0  0  0  0  0  0  0  0
   44.2694   -0.1054   -0.1094 H   0  0  0  0  0  0  0  0  0  0  0  0
   44.2649   -2.6519   -0.8072 H   0  0  0  0  0  0  0  0  0  0  0  0
   46.1573   -4.5036   -1.1762 H   0  0  0  0  0  0  0  0  0  0  0  0
   48.0379   -0.8567   -0.1908 H   0  0  0  0  0  0  0  0  0  0  0  0
   50.0117   -4.6575   -2.8591 H   0  0  0  0  0  0  0  0  0  0  0  0
   50.0876   -7.0899   -3.3469 H   0  0  0  0  0  0  0  0  0  0  0  0
   48.4961   -9.7226   -1.1872 H   0  0  0  0  0  0  0  0  0  0  0  0
   47.8145   -7.8703    0.2011 H   0  0  0  0  0  0  0  0  0  0  0  0
   47.7512   -5.4536    0.6956 H   0  0  0  0  0  0  0  0  0  0  0  0
   51.5148   -4.4692   -0.7183 H   0  0  0  0  0  0  0  0  0  0  0  0
   53.3292   -2.5211   -0.3439 H   0  0  0  0  0  0  0  0  0  0  0  0
   53.1899    2.6944    0.2976 H   0  0  0  0  0  0  0  0  0  0  0  0
   51.2909    4.5271    0.7172 H   0  0  0  0  0  0  0  0  0  0  0  0
   49.4303    0.7795    0.1600 H   0  0  0  0  0  0  0  0  0  0  0  0
   49.7110    4.5996    2.8391 H   0  0  0  0  0  0  0  0  0  0  0  0
   49.6463    7.0172    3.3938 H   0  0  0  0  0  0  0  0  0  0  0  0
   47.9279    9.6166    1.2929 H   0  0  0  0  0  0  0  0  0  0  0  0
   47.3752    7.7701   -0.1614 H   0  0  0  0  0  0  0  0  0  0  0  0
   47.4529    5.3682   -0.7234 H   0  0  0  0  0  0  0  0  0  0  0  0
   45.9273    4.3052    1.0939 H   0  0  0  0  0  0  0  0  0  0  0  0
   44.1249    2.3625    0.6246 H   0  0  0  0  0  0  0  0  0  0  0  0
   92.4476    0.1026   -0.0577 C   0  0  0  0  0  0  0  0  0  0  0  0
   91.8275    1.2693    0.3703 C   0  0  0  0  0  0  0  0  0  0  0  0
   92.4679    2.4814    0.7532 C   0  0  0  0  0  0  0  0  0  0  0  0
   91.4991    3.3718    1.1206 C   0  0  0  0  0  0  0  0  0  0  0  0
   90.2354    2.7291    0.9822 C   0  0  0  0  0  0  0  0  0  0  0  0
   90.4839    1.4690    0.5182 N   0  0  0  0  0  0  0  0  0  0  0  0
   88.9677    3.2662    1.2339 C   0  0  0  0  0  0  0  0  0  0  0  0
   88.9237    4.6489    1.7642 C   0  0  0  0  0  0  0  0  0  0  0  0
   88.2687    5.6608    1.0552 C   0  0  0  0  0  0  0  0  0  0  0  0
   88.2284    6.9486    1.5536 C   0  0  0  0  0  0  0  0  0  0  0  0
   88.8381    7.2547    2.7749 C   0  0  0  0  0  0  0  0  0  0  0  0
   88.7766    8.6352    3.2885 C   0  0  0  0  0  0  0  0  0  0  0  0
   88.2246    9.5390    2.7148 O   0  0  0  0  0  0  0  0  0  0  0  0
   89.4927    6.2450    3.4844 C   0  0  0  0  0  0  0  0  0  0  0  0
   89.5373    4.9567    2.9820 C   0  0  0  0  0  0  0  0  0  0  0  0
   87.7580    2.5975    1.0256 C   0  0  0  0  0  0  0  0  0  0  0  0
   86.4558    3.1570    1.3426 C   0  0  0  0  0  0  0  0  0  0  0  0
   85.5454    2.2217    1.0027 C   0  0  0  0  0  0  0  0  0  0  0  0
   87.6178    1.3394    0.5274 N   0  0  0  0  0  0  0  0  0  0  0  0
   86.2926    1.0880    0.4924 C   0  0  0  0  0  0  0  0  0  0  0  0
   85.6693   -0.0918    0.0426 C   0  0  0  0  0  0  0  0  0  0  0  0
   86.3133   -1.2572   -0.4099 C   0  0  0  0  0  0  0  0  0  0  0  0
   85.6773   -2.4368   -0.8811 C   0  0  0  0  0  0  0  0  0  0  0  0
   86.6508   -3.3329   -1.2245 C   0  0  0  0  0  0  0  0  0  0  0  0
   87.9133   -2.7301   -0.9646 C   0  0  0  0  0  0  0  0  0  0  0  0
   87.6573   -1.4750   -0.4807 N   0  0  0  0  0  0  0  0  0  0  0  0
   89.1810   -3.2786   -1.1885 C   0  0  0  0  0  0  0  0  0  0  0  0
   89.2270   -4.6670   -1.7014 C   0  0  0  0  0  0  0  0  0  0  0  0
   88.6617   -5.7143   -0.9667 C   0  0  0  0  0  0  0  0  0  0  0  0
   88.7077   -7.0087   -1.4470 C   0  0  0  0  0  0  0  0  0  0  0  0
   89.3155   -7.2867   -2.6759 C   0  0  0  0  0  0  0  0  0  0  0  0
   89.3484   -8.6758   -3.1683 C   0  0  0  0  0  0  0  0  0  0  0  0
   88.8686   -9.6077   -2.5749 O   0  0  0  0  0  0  0  0  0  0  0  0
   89.8786   -6.2414   -3.4122 C   0  0  0  0  0  0  0  0  0  0  0  0
   89.8363   -4.9461   -2.9284 C   0  0  0  0  0  0  0  0  0  0  0  0
   90.3917   -2.6123   -0.9665 C   0  0  0  0  0  0  0  0  0  0  0  0
   91.7039   -3.2133   -1.1510 C   0  0  0  0  0  0  0  0  0  0  0  0
   92.6067   -2.2629   -0.8368 C   0  0  0  0  0  0  0  0  0  0  0  0
   91.8477   -1.0870   -0.4485 C   0  0  0  0  0  0  0  0  0  0  0  0
   90.5176   -1.3372   -0.5301 N   0  0  0  0  0  0  0  0  0  0  0  0
   93.5323    0.1317   -0.0820 H   0  0  0  0  0  0  0  0  0  0  0  0
   93.5343    2.6402    0.7390 H   0  0  0  0  0  0  0  0  0  0  0  0
   91.6407    4.3887    1.4491 H   0  0  0  0  0  0  0  0  0  0  0  0
   89.7645    0.7843    0.3106 H   0  0  0  0  0  0  0  0  0  0  0  0
   87.8065    5.4300    0.1022 H   0  0  0  0  0  0  0  0  0  0  0  0
   87.7262    7.7398    1.0073 H   0  0  0  0  0  0  0  0  0  0  0  0
   89.2874    8.7815    4.2642 H   0  0  0  0  0  0  0  0  0  0  0  0
   89.9652    6.4726    4.4344 H   0  0  0  0  0  0  0  0  0  0  0  0
   90.0329    4.1724    3.5432 H   0  0  0  0  0  0  0  0  0  0  0  0
   86.2833    4.1275    1.7787 H   0  0  0  0  0  0  0  0  0  0  0  0
   84.4716    2.2655    1.0895 H   0  0  0  0  0  0  0  0  0  0  0  0
   84.6098   -2.5701   -0.9512 H   0  0  0  0  0  0  0  0  0  0  0  0
   86.5100   -4.3202   -1.6331 H   0  0  0  0  0  0  0  0  0  0  0  0
   88.3753   -0.8047   -0.2258 H   0  0  0  0  0  0  0  0  0  0  0  0
   88.2037   -5.5055   -0.0064 H   0  0  0  0  0  0  0  0  0  0  0  0
   88.2774   -7.8270   -0.8797 H   0  0  0  0  0  0  0  0  0  0  0  0
   89.8580   -8.8004   -4.1476 H   0  0  0  0  0  0  0  0  0  0  0  0
   90.3481   -6.4473   -4.3686 H   0  0  0  0  0  0  0  0  0  0  0  0
   90.2609   -4.1353   -3.5094 H   0  0  0  0  0  0  0  0  0  0  0  0
   91.8850   -4.2292   -1.4633 H   0  0  0  0  0  0  0  0  0  0  0  0
   93.6836   -2.3244   -0.8470 H   0  0  0  0  0  0  0  0  0  0  0  0
   54.7637    0.0962   -0.0845 C   0  0  0  0  0  0  0  0  0  0  0  0
   53.5425    0.0755   -0.0702 C   0  0  0  0  0  0  0  0  0  0  0  0
   56.1146    0.1116   -0.0881 C   0  0  0  0  0  0  0  0  0  0  0  0
   57.3361    0.1150   -0.0895 C   0  0  0  0  0  0  0  0  0  0  0  0
   68.2252   -0.0225   -0.0413 C   0  0  0  0  0  0  0  0  0  0  0  0
   67.0028   -0.0016   -0.0545 C   0  0  0  0  0  0  0  0  0  0  0  0
   69.5737   -0.0350   -0.0328 C   0  0  0  0  0  0  0  0  0  0  0  0
   70.7962   -0.0530   -0.0204 C   0  0  0  0  0  0  0  0  0  0  0  0
   81.6873   -0.1405    0.0309 C   0  0  0  0  0  0  0  0  0  0  0  0
   80.4660   -0.1332    0.0241 C   0  0  0  0  0  0  0  0  0  0  0  0
   83.0390   -0.1339    0.0361 C   0  0  0  0  0  0  0  0  0  0  0  0
   84.2601   -0.1202    0.0427 C   0  0  0  0  0  0  0  0  0  0  0  0
   58.7437    0.1053   -0.0847 C   0  0  0  0  0  0  0  0  0  0  0  0
   59.3810    1.0554   -0.9038 C   0  0  0  0  0  0  0  0  0  0  0  0
   58.7433    1.9964   -1.7533 C   0  0  0  0  0  0  0  0  0  0  0  0
   59.7167    2.7277   -2.3770 C   0  0  0  0  0  0  0  0  0  0  0  0
   60.9784    2.2599   -1.9177 C   0  0  0  0  0  0  0  0  0  0  0  0
   60.7247    1.2450   -1.0349 N   0  0  0  0  0  0  0  0  0  0  0  0
   62.2450    2.7149   -2.3048 C   0  0  0  0  0  0  0  0  0  0  0  0
   62.2756    3.8409   -3.2688 C   0  0  0  0  0  0  0  0  0  0  0  0
   62.8659    3.6776   -4.5258 C   0  0  0  0  0  0  0  0  0  0  0  0
   62.8913    4.7250   -5.4261 C   0  0  0  0  0  0  0  0  0  0  0  0
   62.3327    5.9622   -5.0885 C   0  0  0  0  0  0  0  0  0  0  0  0
   62.3754    7.0656   -6.0657 C   0  0  0  0  0  0  0  0  0  0  0  0
   62.8649    6.9697   -7.1617 O   0  0  0  0  0  0  0  0  0  0  0  0
   61.7454    6.1276   -3.8319 C   0  0  0  0  0  0  0  0  0  0  0  0
   61.7143    5.0760   -2.9332 C   0  0  0  0  0  0  0  0  0  0  0  0
   63.4641    2.1980   -1.8618 C   0  0  0  0  0  0  0  0  0  0  0  0
   64.7577    2.7392   -2.2396 C   0  0  0  0  0  0  0  0  0  0  0  0
   65.6846    1.9869   -1.6115 C   0  0  0  0  0  0  0  0  0  0  0  0
   63.6265    1.1510   -1.0071 N   0  0  0  0  0  0  0  0  0  0  0  0
   64.9560    0.9948   -0.8457 C   0  0  0  0  0  0  0  0  0  0  0  0
   65.5982    0.0178   -0.0585 C   0  0  0  0  0  0  0  0  0  0  0  0
   64.9587   -0.9525    0.7370 C   0  0  0  0  0  0  0  0  0  0  0  0
   65.5955   -1.9549    1.5135 C   0  0  0  0  0  0  0  0  0  0  0  0
   64.6219   -2.6823    2.1416 C   0  0  0  0  0  0  0  0  0  0  0  0
   63.3616   -2.1380    1.7722 C   0  0  0  0  0  0  0  0  0  0  0  0
   63.6158   -1.1011    0.9153 N   0  0  0  0  0  0  0  0  0  0  0  0
   62.0955   -2.5825    2.1725 C   0  0  0  0  0  0  0  0  0  0  0  0
   62.0666   -3.7091    3.1354 C   0  0  0  0  0  0  0  0  0  0  0  0
   61.4578   -4.9188    2.7897 C   0  0  0  0  0  0  0  0  0  0  0  0
   61.4311   -5.9715    3.6870 C   0  0  0  0  0  0  0  0  0  0  0  0
   62.0092   -5.8336    4.9512 C   0  0  0  0  0  0  0  0  0  0  0  0
   61.9922   -6.9390    5.9269 C   0  0  0  0  0  0  0  0  0  0  0  0
   62.4774   -6.8676    7.0271 O   0  0  0  0  0  0  0  0  0  0  0  0
   62.6165   -4.6224    5.2984 C   0  0  0  0  0  0  0  0  0  0  0  0
   62.6477   -3.5734    4.4000 C   0  0  0  0  0  0  0  0  0  0  0  0
   60.8764   -2.0527    1.7445 C   0  0  0  0  0  0  0  0  0  0  0  0
   59.5831   -2.5066    2.2248 C   0  0  0  0  0  0  0  0  0  0  0  0
   58.6564   -1.7600    1.5902 C   0  0  0  0  0  0  0  0  0  0  0  0
   59.3848   -0.8443    0.7339 C   0  0  0  0  0  0  0  0  0  0  0  0
   60.7147   -1.0375    0.8532 N   0  0  0  0  0  0  0  0  0  0  0  0
   57.6758    2.0897   -1.8716 H   0  0  0  0  0  0  0  0  0  0  0  0
   59.5751    3.5146   -3.0996 H   0  0  0  0  0  0  0  0  0  0  0  0
   61.4399    0.7061   -0.5581 H   0  0  0  0  0  0  0  0  0  0  0  0
   63.2894    2.7165   -4.7944 H   0  0  0  0  0  0  0  0  0  0  0  0
   63.3419    4.6046   -6.4054 H   0  0  0  0  0  0  0  0  0  0  0  0
   61.9128    8.0100   -5.7075 H   0  0  0  0  0  0  0  0  0  0  0  0
   61.3137    7.0854   -3.5601 H   0  0  0  0  0  0  0  0  0  0  0  0
   61.2695    5.2119   -1.9537 H   0  0  0  0  0  0  0  0  0  0  0  0
   64.9134    3.5882   -2.8852 H   0  0  0  0  0  0  0  0  0  0  0  0
   66.7586    2.0784   -1.6405 H   0  0  0  0  0  0  0  0  0  0  0  0
   66.6622   -2.0980    1.5739 H   0  0  0  0  0  0  0  0  0  0  0  0
   64.7625   -3.5277    2.7950 H   0  0  0  0  0  0  0  0  0  0  0  0
   62.9013   -0.5318    0.4741 H   0  0  0  0  0  0  0  0  0  0  0  0
   61.0198   -5.0329    1.8046 H   0  0  0  0  0  0  0  0  0  0  0  0
   60.9617   -6.9093    3.4080 H   0  0  0  0  0  0  0  0  0  0  0  0
   61.4893   -7.8604    5.5633 H   0  0  0  0  0  0  0  0  0  0  0  0
   63.0584   -4.5225    6.2840 H   0  0  0  0  0  0  0  0  0  0  0  0
   63.1066   -2.6311    4.6776 H   0  0  0  0  0  0  0  0  0  0  0  0
   59.4270   -3.2806    2.9585 H   0  0  0  0  0  0  0  0  0  0  0  0
   57.5829   -1.7983    1.6823 H   0  0  0  0  0  0  0  0  0  0  0  0
   72.2008   -0.0623   -0.0092 C   0  0  0  0  0  0  0  0  0  0  0  0
   72.8374    0.8716   -0.8493 C   0  0  0  0  0  0  0  0  0  0  0  0
   72.1980    1.7924   -1.7192 C   0  0  0  0  0  0  0  0  0  0  0  0
   73.1695    2.5284   -2.3403 C   0  0  0  0  0  0  0  0  0  0  0  0
   74.4312    2.0834   -1.8592 C   0  0  0  0  0  0  0  0  0  0  0  0
   74.1797    1.0744   -0.9688 N   0  0  0  0  0  0  0  0  0  0  0  0
   75.6956    2.5579   -2.2284 C   0  0  0  0  0  0  0  0  0  0  0  0
   75.7225    3.6832   -3.1929 C   0  0  0  0  0  0  0  0  0  0  0  0
   76.3387    3.5300   -4.4387 C   0  0  0  0  0  0  0  0  0  0  0  0
   76.3594    4.5766   -5.3401 C   0  0  0  0  0  0  0  0  0  0  0  0
   75.7704    5.8029   -5.0146 C   0  0  0  0  0  0  0  0  0  0  0  0
   75.8083    6.9053   -5.9932 C   0  0  0  0  0  0  0  0  0  0  0  0
   76.3196    6.8172   -7.0800 O   0  0  0  0  0  0  0  0  0  0  0  0
   75.1577    5.9584   -3.7689 C   0  0  0  0  0  0  0  0  0  0  0  0
   75.1312    4.9075   -2.8692 C   0  0  0  0  0  0  0  0  0  0  0  0
   76.9164    2.0602   -1.7670 C   0  0  0  0  0  0  0  0  0  0  0  0
   78.2066    2.6248   -2.1226 C   0  0  0  0  0  0  0  0  0  0  0  0
   79.1367    1.8787   -1.4922 C   0  0  0  0  0  0  0  0  0  0  0  0
   77.0826    1.0084   -0.9208 N   0  0  0  0  0  0  0  0  0  0  0  0
   78.4135    0.8667   -0.7472 C   0  0  0  0  0  0  0  0  0  0  0  0
   79.0577   -0.1223    0.0198 C   0  0  0  0  0  0  0  0  0  0  0  0
   78.4222   -1.1088    0.7958 C   0  0  0  0  0  0  0  0  0  0  0  0
   79.0611   -2.1207    1.5588 C   0  0  0  0  0  0  0  0  0  0  0  0
   78.0898   -2.8459    2.1925 C   0  0  0  0  0  0  0  0  0  0  0  0
   76.8287   -2.2914    1.8404 C   0  0  0  0  0  0  0  0  0  0  0  0
   77.0797   -1.2533    0.9847 N   0  0  0  0  0  0  0  0  0  0  0  0
   75.5648   -2.7236    2.2618 C   0  0  0  0  0  0  0  0  0  0  0  0
   75.5435   -3.8422    3.2342 C   0  0  0  0  0  0  0  0  0  0  0  0
   74.9191   -5.0499    2.9103 C   0  0  0  0  0  0  0  0  0  0  0  0
   74.9033   -6.0957    3.8160 C   0  0  0  0  0  0  0  0  0  0  0  0
   75.5083   -5.9528    5.0669 C   0  0  0  0  0  0  0  0  0  0  0  0
   75.5062   -7.0515    6.0504 C   0  0  0  0  0  0  0  0  0  0  0  0
   76.0202   -6.9769    7.1370 O   0  0  0  0  0  0  0  0  0  0  0  0
   76.1304   -4.7431    5.3928 C   0  0  0  0  0  0  0  0  0  0  0  0
   76.1503   -3.7010    4.4861 C   0  0  0  0  0  0  0  0  0  0  0  0
   74.3438   -2.1882    1.8475 C   0  0  0  0  0  0  0  0  0  0  0  0
   73.0539   -2.6268    2.3503 C   0  0  0  0  0  0  0  0  0  0  0  0
   72.1235   -1.8865    1.7130 C   0  0  0  0  0  0  0  0  0  0  0  0
   72.8468   -0.9898    0.8329 C   0  0  0  0  0  0  0  0  0  0  0  0
   74.1762   -1.1853    0.9422 N   0  0  0  0  0  0  0  0  0  0  0  0
   71.1310    1.8714   -1.8510 H   0  0  0  0  0  0  0  0  0  0  0  0
   73.0266    3.3045   -3.0743 H   0  0  0  0  0  0  0  0  0  0  0  0
   74.8954    0.5511   -0.4756 H   0  0  0  0  0  0  0  0  0  0  0  0
   76.7857    2.5770   -4.6980 H   0  0  0  0  0  0  0  0  0  0  0  0
   76.8296    4.4639   -6.3111 H   0  0  0  0  0  0  0  0  0  0  0  0
   75.3206    7.8408   -5.6453 H   0  0  0  0  0  0  0  0  0  0  0  0
   74.7025    6.9078   -3.5063 H   0  0  0  0  0  0  0  0  0  0  0  0
   74.6664    5.0358   -1.8981 H   0  0  0  0  0  0  0  0  0  0  0  0
   78.3575    3.4835   -2.7562 H   0  0  0  0  0  0  0  0  0  0  0  0
   80.2094    1.9856   -1.5075 H   0  0  0  0  0  0  0  0  0  0  0  0
   80.1276   -2.2694    1.6078 H   0  0  0  0  0  0  0  0  0  0  0  0
   78.2322   -3.6958    2.8397 H   0  0  0  0  0  0  0  0  0  0  0  0
   76.3645   -0.6758    0.5556 H   0  0  0  0  0  0  0  0  0  0  0  0
   74.4614   -5.1686    1.9347 H   0  0  0  0  0  0  0  0  0  0  0  0
   74.4226   -7.0325    3.5533 H   0  0  0  0  0  0  0  0  0  0  0  0
   74.9859   -7.9706    5.7064 H   0  0  0  0  0  0  0  0  0  0  0  0
   76.5927   -4.6389    6.3686 H   0  0  0  0  0  0  0  0  0  0  0  0
   76.6208   -2.7598    4.7475 H   0  0  0  0  0  0  0  0  0  0  0  0
   72.9026   -3.3875    3.0989 H   0  0  0  0  0  0  0  0  0  0  0  0
   71.0508   -1.9176    1.8172 H   0  0  0  0  0  0  0  0  0  0  0  0
  1  2  4  0  0  0  0
  2  3  4  0  0  0  0
  3  4  2  0  0  0  0
  4  5  4  0  0  0  0
  2  6  4  0  0  0  0
  5  6  4  0  0  0  0
  5  7  4  0  0  0  0
  7  8  1  0  0  0  0
  8  9  4  0  0  0  0
  9 10  4  0  0  0  0
 10 11  4  0  0  0  0
 11 12  1  0  0  0  0
 12 13  2  0  0  0  0
 11 14  4  0  0  0  0
  8 15  4  0  0  0  0
 14 15  4  0  0  0  0
  7 16  4  0  0  0  0
 16 17  1  0  0  0  0
 17 18  2  0  0  0  0
 16 19  4  0  0  0  0
 18 20  1  0  0  0  0
 19 20  4  0  0  0  0
 20 21  4  0  0  0  0
 21 22  4  0  0  0  0
 22 23  4  0  0  0  0
 23 24  2  0  0  0  0
 24 25  4  0  0  0  0
 22 26  4  0  0  0  0
 25 26  4  0  0  0  0
 25 27  4  0  0  0  0
 27 28  1  0  0  0  0
 28 29  4  0  0  0  0
 29 30  4  0  0  0  0
 30 31  4  0  0  0  0
 31 32  1  0  0  0  0
 32 33  2  0  0  0  0
 31 34  4  0  0  0  0
 28 35  4  0  0  0  0
 34 35  4  0  0  0  0
 27 36  4  0  0  0  0
 36 37  1  0  0  0  0
 37 38  2  0  0  0  0
  1 39  4  0  0  0  0
 38 39  1  0  0  0  0
 36 40  4  0  0  0  0
 39 40  4  0  0  0  0
  1 41  1  0  0  0  0
  3 42  1  0  0  0  0
  4 43  1  0  0  0  0
  6 44  1  0  0  0  0
  9 45  1  0  0  0  0
 10 46  1  0  0  0  0
 12 47  1  0  0  0  0
 14 48  1  0  0  0  0
 15 49  1  0  0  0  0
 17 50  1  0  0  0  0
 18 51  1  0  0  0  0
 23 52  1  0  0  0  0
 24 53  1  0  0  0  0
 26 54  1  0  0  0  0
 29 55  1  0  0  0  0
 30 56  1  0  0  0  0
 32 57  1  0  0  0  0
 34 58  1  0  0  0  0
 35 59  1  0  0  0  0
 37 60  1  0  0  0  0
 38 61  1  0  0  0  0
 62 63  4  0  0  0  0
 63 64  4  0  0  0  0
 64 65  2  0  0  0  0
 65 66  4  0  0  0  0
 63 67  4  0  0  0  0
 66 67  4  0  0  0  0
 66 68  4  0  0  0  0
 68 69  1  0  0  0  0
 69 70  4  0  0  0  0
 70 71  4  0  0  0  0
 71 72  4  0  0  0  0
 72 73  1  0  0  0  0
 73 74  2  0  0  0  0
 72 75  4  0  0  0  0
 69 76  4  0  0  0  0
 75 76  4  0  0  0  0
 68 77  4  0  0  0  0
 77 78  1  0  0  0  0
 78 79  2  0  0  0  0
 77 80  4  0  0  0  0
 79 81  1  0  0  0  0
 80 81  4  0  0  0  0
 81 82  4  0  0  0  0
 82 83  4  0  0  0  0
 83 84  4  0  0  0  0
 84 85  2  0  0  0  0
 85 86  4  0  0  0  0
 83 87  4  0  0  0  0
 86 87  4  0  0  0  0
 86 88  4  0  0  0  0
 88 89  1  0  0  0  0
 89 90  4  0  0  0  0
 90 91  4  0  0  0  0
 91 92  4  0  0  0  0
 92 93  1  0  0  0  0
 93 94  2  0  0  0  0
 92 95  4  0  0  0  0
 89 96  4  0  0  0  0
 95 96  4  0  0  0  0
 88 97  4  0  0  0  0
 97 98  1  0  0  0  0
 98 99  2  0  0  0  0
 62100  4  0  0  0  0
 99100  1  0  0  0  0
 97101  4  0  0  0  0
100101  4  0  0  0  0
 62102  1  0  0  0  0
 64103  1  0  0  0  0
 65104  1  0  0  0  0
 67105  1  0  0  0  0
 70106  1  0  0  0  0
 71107  1  0  0  0  0
 73108  1  0  0  0  0
 75109  1  0  0  0  0
 76110  1  0  0  0  0
 78111  1  0  0  0  0
 79112  1  0  0  0  0
 84113  1  0  0  0  0
 85114  1  0  0  0  0
 87115  1  0  0  0  0
 90116  1  0  0  0  0
 91117  1  0  0  0  0
 93118  1  0  0  0  0
 95119  1  0  0  0  0
 96120  1  0  0  0  0
 98121  1  0  0  0  0
 99122  1  0  0  0  0
 21124  4  0  0  0  0
123124  3  0  0  0  0
123125  4  0  0  0  0
125126  3  0  0  0  0
127128  3  0  0  0  0
127129  4  0  0  0  0
129130  3  0  0  0  0
131132  3  0  0  0  0
131133  4  0  0  0  0
 82134  4  0  0  0  0
133134  3  0  0  0  0
126135  4  0  0  0  0
135136  4  0  0  0  0
136137  4  0  0  0  0
137138  2  0  0  0  0
138139  4  0  0  0  0
136140  4  0  0  0  0
139140  4  0  0  0  0
139141  4  0  0  0  0
141142  1  0  0  0  0
142143  4  0  0  0  0
143144  4  0  0  0  0
144145  4  0  0  0  0
145146  1  0  0  0  0
146147  2  0  0  0  0
145148  4  0  0  0  0
142149  4  0  0  0  0
148149  4  0  0  0  0
141150  4  0  0  0  0
150151  1  0  0  0  0
151152  2  0  0  0  0
150153  4  0  0  0  0
152154  1  0  0  0  0
153154  4  0  0  0  0
128155  4  0  0  0  0
154155  4  0  0  0  0
155156  4  0  0  0  0
156157  4  0  0  0  0
157158  2  0  0  0  0
158159  4  0  0  0  0
156160  4  0  0  0  0
159160  4  0  0  0  0
159161  4  0  0  0  0
161162  1  0  0  0  0
162163  4  0  0  0  0
163164  4  0  0  0  0
164165  4  0  0  0  0
165166  1  0  0  0  0
166167  2  0  0  0  0
165168  4  0  0  0  0
162169  4  0  0  0  0
168169  4  0  0  0  0
161170  4  0  0  0  0
170171  1  0  0  0  0
171172  2  0  0  0  0
135173  4  0  0  0  0
172173  1  0  0  0  0
170174  4  0  0  0  0
173174  4  0  0  0  0
137175  1  0  0  0  0
138176  1  0  0  0  0
140177  1  0  0  0  0
143178  1  0  0  0  0
144179  1  0  0  0  0
146180  1  0  0  0  0
148181  1  0  0  0  0
149182  1  0  0  0  0
151183  1  0  0  0  0
152184  1  0  0  0  0
157185  1  0  0  0  0
158186  1  0  0  0  0
160187  1  0  0  0  0
163188  1  0  0  0  0
164189  1  0  0  0  0
166190  1  0  0  0  0
168191  1  0  0  0  0
169192  1  0  0  0  0
171193  1  0  0  0  0
172194  1  0  0  0  0
130195  4  0  0  0  0
195196  4  0  0  0  0
196197  4  0  0  0  0
197198  2  0  0  0  0
198199  4  0  0  0  0
196200  4  0  0  0  0
199200  4  0  0  0  0
199201  4  0  0  0  0
201202  1  0  0  0  0
202203  4  0  0  0  0
203204  4  0  0  0  0
204205  4  0  0  0  0
205206  1  0  0  0  0
206207  2  0  0  0  0
205208  4  0  0  0  0
202209  4  0  0  0  0
208209  4  0  0  0  0
201210  4  0  0  0  0
210211  1  0  0  0  0
211212  2  0  0  0  0
210213  4  0  0  0  0
212214  1  0  0  0  0
213214  4  0  0  0  0
132215  4  0  0  0  0
214215  4  0  0  0  0
215216  4  0  0  0  0
216217  4  0  0  0  0
217218  2  0  0  0  0
218219  4  0  0  0  0
216220  4  0  0  0  0
219220  4  0  0  0  0
219221  4  0  0  0  0
221222  1  0  0  0  0
222223  4  0  0  0  0
223224  4  0  0  0  0
224225  4  0  0  0  0
225226  1  0  0  0  0
226227  2  0  0  0  0
225228  4  0  0  0  0
222229  4  0  0  0  0
228229  4  0  0  0  0
221230  4  0  0  0  0
230231  1  0  0  0  0
231232  2  0  0  0  0
195233  4  0  0  0  0
232233  1  0  0  0  0
230234  4  0  0  0  0
233234  4  0  0  0  0
197235  1  0  0  0  0
198236  1  0  0  0  0
200237  1  0  0  0  0
203238  1  0  0  0  0
204239  1  0  0  0  0
206240  1  0  0  0  0
208241  1  0  0  0  0
209242  1  0  0  0  0
211243  1  0  0  0  0
212244  1  0  0  0  0
217245  1  0  0  0  0
218246  1  0  0  0  0
220247  1  0  0  0  0
223248  1  0  0  0  0
224249  1  0  0  0  0
226250  1  0  0  0  0
228251  1  0  0  0  0
229252  1  0  0  0  0
231253  1  0  0  0  0
232254  1  0  0  0  0
M  END
