 xtb: 6.5.1 (b24c23e)
          07302207143D

220259  0     0  0            999 V2000
   40.8937   -0.0212   -0.0319 Zn  0  0  0  0  0  0  0  0  0  0  0  0
   37.4821   -0.0289   -0.0568 C   0  0  0  0  0  0  0  0  0  0  0  0
   38.1019   -1.2501    0.1793 C   0  0  0  0  0  0  0  0  0  0  0  0
   37.4174   -2.4849    0.4437 C   0  0  0  0  0  0  0  0  0  0  0  0
   38.3682   -3.4313    0.6427 C   0  0  0  0  0  0  0  0  0  0  0  0
   39.6467   -2.7877    0.4915 C   0  0  0  0  0  0  0  0  0  0  0  0
   39.4495   -1.4659    0.2177 N   0  0  0  0  0  0  0  0  0  0  0  0
   40.8931   -3.4093    0.6322 C   0  0  0  0  0  0  0  0  0  0  0  0
   40.8967   -4.8627    0.9267 C   0  0  0  0  0  0  0  0  0  0  0  0
   41.4460   -5.3595    2.1086 C   0  0  0  0  0  0  0  0  0  0  0  0
   41.4264   -6.7252    2.3425 C   0  0  0  0  0  0  0  0  0  0  0  0
   40.9090   -7.5997    1.4854 N   0  0  0  0  0  0  0  0  0  0  0  0
   40.3853   -7.1352    0.3554 C   0  0  0  0  0  0  0  0  0  0  0  0
   40.3534   -5.7871    0.0352 C   0  0  0  0  0  0  0  0  0  0  0  0
   42.1381   -2.7803    0.5181 C   0  0  0  0  0  0  0  0  0  0  0  0
   43.4106   -3.4425    0.5978 C   0  0  0  0  0  0  0  0  0  0  0  0
   44.3656   -2.4967    0.4091 C   0  0  0  0  0  0  0  0  0  0  0  0
   42.3447   -1.4491    0.2737 N   0  0  0  0  0  0  0  0  0  0  0  0
   43.6892   -1.2486    0.2102 C   0  0  0  0  0  0  0  0  0  0  0  0
   44.3309   -0.0184   -0.0342 C   0  0  0  0  0  0  0  0  0  0  0  0
   43.6871    1.2127   -0.2683 C   0  0  0  0  0  0  0  0  0  0  0  0
   44.3620    2.4527   -0.5161 C   0  0  0  0  0  0  0  0  0  0  0  0
   43.4055    3.4004   -0.6874 C   0  0  0  0  0  0  0  0  0  0  0  0
   42.1336    2.7495   -0.5361 C   0  0  0  0  0  0  0  0  0  0  0  0
   42.3422    1.4191   -0.2895 N   0  0  0  0  0  0  0  0  0  0  0  0
   40.8874    3.3751   -0.6542 C   0  0  0  0  0  0  0  0  0  0  0  0
   40.8856    4.8372   -0.9028 C   0  0  0  0  0  0  0  0  0  0  0  0
   40.3344    5.3763   -2.0647 C   0  0  0  0  0  0  0  0  0  0  0  0
   40.3559    6.7497   -2.2498 C   0  0  0  0  0  0  0  0  0  0  0  0
   40.8774    7.5924   -1.3640 N   0  0  0  0  0  0  0  0  0  0  0  0
   41.4036    7.0873   -0.2527 C   0  0  0  0  0  0  0  0  0  0  0  0
   41.4331    5.7287    0.0194 C   0  0  0  0  0  0  0  0  0  0  0  0
   39.6421    2.7432   -0.5547 C   0  0  0  0  0  0  0  0  0  0  0  0
   38.3626    3.3964   -0.6423 C   0  0  0  0  0  0  0  0  0  0  0  0
   37.4133    2.4413   -0.4804 C   0  0  0  0  0  0  0  0  0  0  0  0
   38.0999    1.1956   -0.2805 C   0  0  0  0  0  0  0  0  0  0  0  0
   39.4472    1.4122   -0.3275 N   0  0  0  0  0  0  0  0  0  0  0  0
   36.3965   -0.0289   -0.0529 H   0  0  0  0  0  0  0  0  0  0  0  0
   36.3452   -2.5993    0.4778 H   0  0  0  0  0  0  0  0  0  0  0  0
   38.2219   -4.4724    0.8822 H   0  0  0  0  0  0  0  0  0  0  0  0
   41.8691   -4.6830    2.8417 H   0  0  0  0  0  0  0  0  0  0  0  0
   41.8446   -7.1344    3.2576 H   0  0  0  0  0  0  0  0  0  0  0  0
   39.9731   -7.8739   -0.3259 H   0  0  0  0  0  0  0  0  0  0  0  0
   39.9269   -5.4564   -0.9044 H   0  0  0  0  0  0  0  0  0  0  0  0
   43.5533   -4.4987    0.7601 H   0  0  0  0  0  0  0  0  0  0  0  0
   45.4353   -2.6298    0.3927 H   0  0  0  0  0  0  0  0  0  0  0  0
   45.4322    2.5778   -0.5533 H   0  0  0  0  0  0  0  0  0  0  0  0
   43.5474    4.4461   -0.9081 H   0  0  0  0  0  0  0  0  0  0  0  0
   39.9090    4.7274   -2.8211 H   0  0  0  0  0  0  0  0  0  0  0  0
   39.9361    7.1918   -3.1488 H   0  0  0  0  0  0  0  0  0  0  0  0
   41.8198    7.8004    0.4529 H   0  0  0  0  0  0  0  0  0  0  0  0
   41.8620    5.3638    0.9452 H   0  0  0  0  0  0  0  0  0  0  0  0
   38.2142    4.4532   -0.7964 H   0  0  0  0  0  0  0  0  0  0  0  0
   36.3411    2.5594   -0.4857 H   0  0  0  0  0  0  0  0  0  0  0  0
   73.6579    0.0543   -0.0159 Zn  0  0  0  0  0  0  0  0  0  0  0  0
   77.0689    0.0444   -0.0542 C   0  0  0  0  0  0  0  0  0  0  0  0
   76.4510    1.2605   -0.3196 C   0  0  0  0  0  0  0  0  0  0  0  0
   77.1372    2.4968   -0.5726 C   0  0  0  0  0  0  0  0  0  0  0  0
   76.1876    3.4458   -0.7655 C   0  0  0  0  0  0  0  0  0  0  0  0
   74.9082    2.7982   -0.6414 C   0  0  0  0  0  0  0  0  0  0  0  0
   75.1036    1.4766   -0.3655 N   0  0  0  0  0  0  0  0  0  0  0  0
   73.6632    3.4290   -0.7489 C   0  0  0  0  0  0  0  0  0  0  0  0
   73.6642    4.8810   -1.0514 C   0  0  0  0  0  0  0  0  0  0  0  0
   73.1389    5.8081   -0.1516 C   0  0  0  0  0  0  0  0  0  0  0  0
   73.1646    7.1552   -0.4758 C   0  0  0  0  0  0  0  0  0  0  0  0
   73.6664    7.6165   -1.6170 N   0  0  0  0  0  0  0  0  0  0  0  0
   74.1669    6.7395   -2.4815 C   0  0  0  0  0  0  0  0  0  0  0  0
   74.1907    5.3741   -2.2447 C   0  0  0  0  0  0  0  0  0  0  0  0
   72.4174    2.8111   -0.5922 C   0  0  0  0  0  0  0  0  0  0  0  0
   71.1447    3.4604   -0.7444 C   0  0  0  0  0  0  0  0  0  0  0  0
   70.1888    2.5204   -0.5322 C   0  0  0  0  0  0  0  0  0  0  0  0
   72.2099    1.4893   -0.3029 N   0  0  0  0  0  0  0  0  0  0  0  0
   70.8650    1.2865   -0.2583 C   0  0  0  0  0  0  0  0  0  0  0  0
   70.2229    0.0635    0.0156 C   0  0  0  0  0  0  0  0  0  0  0  0
   70.8637   -1.1614    0.2841 C   0  0  0  0  0  0  0  0  0  0  0  0
   70.1861   -2.4037    0.5132 C   0  0  0  0  0  0  0  0  0  0  0  0
   71.1407   -3.3484    0.7089 C   0  0  0  0  0  0  0  0  0  0  0  0
   72.4141   -2.6907    0.6066 C   0  0  0  0  0  0  0  0  0  0  0  0
   72.2083   -1.3639    0.3394 N   0  0  0  0  0  0  0  0  0  0  0  0
   73.6593   -3.3185    0.7258 C   0  0  0  0  0  0  0  0  0  0  0  0
   73.6573   -4.7677    1.0398 C   0  0  0  0  0  0  0  0  0  0  0  0
   74.2089   -5.7011    0.1627 C   0  0  0  0  0  0  0  0  0  0  0  0
   74.1778   -7.0455    0.4977 C   0  0  0  0  0  0  0  0  0  0  0  0
   73.6469   -7.4986    1.6290 N   0  0  0  0  0  0  0  0  0  0  0  0
   73.1215   -6.6156    2.4724 C   0  0  0  0  0  0  0  0  0  0  0  0
   73.1011   -5.2525    2.2234 C   0  0  0  0  0  0  0  0  0  0  0  0
   74.9053   -2.6990    0.5714 C   0  0  0  0  0  0  0  0  0  0  0  0
   76.1841   -3.3376    0.7400 C   0  0  0  0  0  0  0  0  0  0  0  0
   77.1345   -2.3956    0.5192 C   0  0  0  0  0  0  0  0  0  0  0  0
   76.4494   -1.1686    0.2216 C   0  0  0  0  0  0  0  0  0  0  0  0
   75.1019   -1.3841    0.2656 N   0  0  0  0  0  0  0  0  0  0  0  0
   78.1546    0.0440   -0.0529 H   0  0  0  0  0  0  0  0  0  0  0  0
   78.2095    2.6132   -0.5907 H   0  0  0  0  0  0  0  0  0  0  0  0
   76.3352    4.4954   -0.9636 H   0  0  0  0  0  0  0  0  0  0  0  0
   72.7301    5.4793    0.7965 H   0  0  0  0  0  0  0  0  0  0  0  0
   72.7658    7.8958    0.2115 H   0  0  0  0  0  0  0  0  0  0  0  0
   74.5666    7.1461   -3.4060 H   0  0  0  0  0  0  0  0  0  0  0  0
   74.5985    4.6958   -2.9848 H   0  0  0  0  0  0  0  0  0  0  0  0
   71.0020    4.4998   -0.9924 H   0  0  0  0  0  0  0  0  0  0  0  0
   69.1182    2.6464   -0.5576 H   0  0  0  0  0  0  0  0  0  0  0  0
   69.1158   -2.5341    0.5104 H   0  0  0  0  0  0  0  0  0  0  0  0
   70.9965   -4.4013    0.8904 H   0  0  0  0  0  0  0  0  0  0  0  0
   74.6410   -5.3801   -0.7778 H   0  0  0  0  0  0  0  0  0  0  0  0
   74.5971   -7.7908   -0.1721 H   0  0  0  0  0  0  0  0  0  0  0  0
   72.6971   -7.0154    3.3888 H   0  0  0  0  0  0  0  0  0  0  0  0
   72.6720   -4.5690    2.9465 H   0  0  0  0  0  0  0  0  0  0  0  0
   76.3310   -4.3721    1.0065 H   0  0  0  0  0  0  0  0  0  0  0  0
   78.2067   -2.5080    0.5584 H   0  0  0  0  0  0  0  0  0  0  0  0
   45.7409   -0.0201   -0.0486 C   0  0  0  0  0  0  0  0  0  0  0  0
   46.9579   -0.0206   -0.0579 C   0  0  0  0  0  0  0  0  0  0  0  0
   56.6682    0.0023   -0.0193 C   0  0  0  0  0  0  0  0  0  0  0  0
   57.8863    0.0044   -0.0177 C   0  0  0  0  0  0  0  0  0  0  0  0
   67.5955    0.0563    0.0021 C   0  0  0  0  0  0  0  0  0  0  0  0
   68.8122    0.0627    0.0113 C   0  0  0  0  0  0  0  0  0  0  0  0
   51.8118   -0.0173   -0.0492 Zn  0  0  0  0  0  0  0  0  0  0  0  0
   48.3675   -0.0218   -0.0606 C   0  0  0  0  0  0  0  0  0  0  0  0
   49.0118   -1.0227    0.6930 C   0  0  0  0  0  0  0  0  0  0  0  0
   48.3387   -2.0004    1.4955 C   0  0  0  0  0  0  0  0  0  0  0  0
   49.2953   -2.7886    2.0496 C   0  0  0  0  0  0  0  0  0  0  0  0
   50.5639   -2.3015    1.5856 C   0  0  0  0  0  0  0  0  0  0  0  0
   50.3559   -1.2191    0.7739 N   0  0  0  0  0  0  0  0  0  0  0  0
   51.8100   -2.8412    1.9231 C   0  0  0  0  0  0  0  0  0  0  0  0
   51.8094   -4.0524    2.7787 C   0  0  0  0  0  0  0  0  0  0  0  0
   51.2086   -5.2388    2.3590 C   0  0  0  0  0  0  0  0  0  0  0  0
   51.2332   -6.3427    3.1966 C   0  0  0  0  0  0  0  0  0  0  0  0
   51.8021   -6.3285    4.3978 N   0  0  0  0  0  0  0  0  0  0  0  0
   52.3756   -5.2011    4.8067 C   0  0  0  0  0  0  0  0  0  0  0  0
   52.4076   -4.0481    4.0385 C   0  0  0  0  0  0  0  0  0  0  0  0
   53.0562   -2.3405    1.5308 C   0  0  0  0  0  0  0  0  0  0  0  0
   54.3229   -2.9490    1.8243 C   0  0  0  0  0  0  0  0  0  0  0  0
   55.2809   -2.1588    1.2757 C   0  0  0  0  0  0  0  0  0  0  0  0
   53.2672   -1.2041    0.7966 N   0  0  0  0  0  0  0  0  0  0  0  0
   54.6115   -1.0626    0.6411 C   0  0  0  0  0  0  0  0  0  0  0  0
   55.2593   -0.0023   -0.0255 C   0  0  0  0  0  0  0  0  0  0  0  0
   54.6114    1.0521   -0.7013 C   0  0  0  0  0  0  0  0  0  0  0  0
   55.2802    2.1527   -1.3288 C   0  0  0  0  0  0  0  0  0  0  0  0
   54.3235    2.9310   -1.8964 C   0  0  0  0  0  0  0  0  0  0  0  0
   53.0582    2.3114   -1.6207 C   0  0  0  0  0  0  0  0  0  0  0  0
   53.2684    1.1803   -0.8782 N   0  0  0  0  0  0  0  0  0  0  0  0
   51.8137    2.7997   -2.0339 C   0  0  0  0  0  0  0  0  0  0  0  0
   51.8180    4.0027   -2.9009 C   0  0  0  0  0  0  0  0  0  0  0  0
   52.4368    3.9896   -4.1508 C   0  0  0  0  0  0  0  0  0  0  0  0
   52.4116    5.1349   -4.9306 C   0  0  0  0  0  0  0  0  0  0  0  0
   51.8256    6.2630   -4.5422 N   0  0  0  0  0  0  0  0  0  0  0  0
   51.2366    6.2856   -3.3508 C   0  0  0  0  0  0  0  0  0  0  0  0
   51.2041    5.1899   -2.5028 C   0  0  0  0  0  0  0  0  0  0  0  0
   50.5670    2.2555   -1.7060 C   0  0  0  0  0  0  0  0  0  0  0  0
   49.2999    2.7355   -2.1815 C   0  0  0  0  0  0  0  0  0  0  0  0
   48.3421    1.9488   -1.6274 C   0  0  0  0  0  0  0  0  0  0  0  0
   49.0131    0.9777   -0.8151 C   0  0  0  0  0  0  0  0  0  0  0  0
   50.3571    1.1770   -0.8896 N   0  0  0  0  0  0  0  0  0  0  0  0
   47.2705   -2.0638    1.6266 H   0  0  0  0  0  0  0  0  0  0  0  0
   49.1556   -3.6173    2.7248 H   0  0  0  0  0  0  0  0  0  0  0  0
   50.7422   -5.3008    1.3829 H   0  0  0  0  0  0  0  0  0  0  0  0
   50.7759   -7.2787    2.8893 H   0  0  0  0  0  0  0  0  0  0  0  0
   52.8295   -5.2195    5.7933 H   0  0  0  0  0  0  0  0  0  0  0  0
   52.8767   -3.1483    4.4183 H   0  0  0  0  0  0  0  0  0  0  0  0
   54.4604   -3.8709    2.3660 H   0  0  0  0  0  0  0  0  0  0  0  0
   56.3480   -2.3093    1.2858 H   0  0  0  0  0  0  0  0  0  0  0  0
   56.3457    2.3146   -1.3208 H   0  0  0  0  0  0  0  0  0  0  0  0
   54.4607    3.8522   -2.4393 H   0  0  0  0  0  0  0  0  0  0  0  0
   52.9171    3.0887   -4.5140 H   0  0  0  0  0  0  0  0  0  0  0  0
   52.8819    5.1463   -5.9096 H   0  0  0  0  0  0  0  0  0  0  0  0
   50.7697    7.2222   -3.0600 H   0  0  0  0  0  0  0  0  0  0  0  0
   50.7220    5.2591   -1.5349 H   0  0  0  0  0  0  0  0  0  0  0  0
   49.1618    3.5591   -2.8632 H   0  0  0  0  0  0  0  0  0  0  0  0
   47.2744    2.0083   -1.7650 H   0  0  0  0  0  0  0  0  0  0  0  0
   62.7434    0.0239   -0.0138 Zn  0  0  0  0  0  0  0  0  0  0  0  0
   59.2952    0.0087   -0.0175 C   0  0  0  0  0  0  0  0  0  0  0  0
   59.9457   -0.8054    0.9324 C   0  0  0  0  0  0  0  0  0  0  0  0
   59.2792   -1.5944    1.9253 C   0  0  0  0  0  0  0  0  0  0  0  0
   60.2389   -2.2581    2.6192 C   0  0  0  0  0  0  0  0  0  0  0  0
   61.5039   -1.8802    2.0551 C   0  0  0  0  0  0  0  0  0  0  0  0
   61.2902   -0.9835    1.0427 N   0  0  0  0  0  0  0  0  0  0  0  0
   62.7510   -2.3432    2.4889 C   0  0  0  0  0  0  0  0  0  0  0  0
   62.7523   -3.3679    3.5611 C   0  0  0  0  0  0  0  0  0  0  0  0
   62.1595   -4.6153    3.3677 C   0  0  0  0  0  0  0  0  0  0  0  0
   62.1915   -5.5461    4.3939 C   0  0  0  0  0  0  0  0  0  0  0  0
   62.7602   -5.3070    5.5713 N   0  0  0  0  0  0  0  0  0  0  0  0
   63.3236   -4.1189    5.7658 C   0  0  0  0  0  0  0  0  0  0  0  0
   63.3474   -3.1263    4.7989 C   0  0  0  0  0  0  0  0  0  0  0  0
   63.9962   -1.9286    2.0040 C   0  0  0  0  0  0  0  0  0  0  0  0
   65.2676   -2.4400    2.4333 C   0  0  0  0  0  0  0  0  0  0  0  0
   66.2222   -1.7704    1.7380 C   0  0  0  0  0  0  0  0  0  0  0  0
   64.2007   -0.9756    1.0430 N   0  0  0  0  0  0  0  0  0  0  0  0
   65.5448   -0.8544    0.8687 C   0  0  0  0  0  0  0  0  0  0  0  0
   66.1854    0.0476   -0.0028 C   0  0  0  0  0  0  0  0  0  0  0  0
   65.5384    0.9382   -0.8813 C   0  0  0  0  0  0  0  0  0  0  0  0
   66.2087    1.8569   -1.7531 C   0  0  0  0  0  0  0  0  0  0  0  0
   65.2496    2.5058   -2.4618 C   0  0  0  0  0  0  0  0  0  0  0  0
   63.9827    1.9801   -2.0366 C   0  0  0  0  0  0  0  0  0  0  0  0
   64.1938    1.0393   -1.0652 N   0  0  0  0  0  0  0  0  0  0  0  0
   62.7353    2.3718   -2.5350 C   0  0  0  0  0  0  0  0  0  0  0  0
   62.7316    3.3750   -3.6273 C   0  0  0  0  0  0  0  0  0  0  0  0
   63.3360    3.1114   -4.8562 C   0  0  0  0  0  0  0  0  0  0  0  0
   63.3060    4.0805   -5.8464 C   0  0  0  0  0  0  0  0  0  0  0  0
   62.7281    5.2663   -5.6825 N   0  0  0  0  0  0  0  0  0  0  0  0
   62.1512    5.5266   -4.5137 C   0  0  0  0  0  0  0  0  0  0  0  0
   62.1242    4.6199   -3.4659 C   0  0  0  0  0  0  0  0  0  0  0  0
   61.4914    1.9006   -2.1010 C   0  0  0  0  0  0  0  0  0  0  0  0
   60.2245    2.2591   -2.6734 C   0  0  0  0  0  0  0  0  0  0  0  0
   59.2692    1.5958   -1.9732 C   0  0  0  0  0  0  0  0  0  0  0  0
   59.9404    0.8240   -0.9701 C   0  0  0  0  0  0  0  0  0  0  0  0
   61.2834    1.0140   -1.0784 N   0  0  0  0  0  0  0  0  0  0  0  0
   58.2128   -1.6234    2.0782 H   0  0  0  0  0  0  0  0  0  0  0  0
   60.1040   -2.9319    3.4499 H   0  0  0  0  0  0  0  0  0  0  0  0
   61.6942   -4.8586    2.4198 H   0  0  0  0  0  0  0  0  0  0  0  0
   61.7416   -6.5261    4.2641 H   0  0  0  0  0  0  0  0  0  0  0  0
   63.7771   -3.9523    6.7386 H   0  0  0  0  0  0  0  0  0  0  0  0
   63.8087   -2.1682    5.0070 H   0  0  0  0  0  0  0  0  0  0  0  0
   65.4111   -3.2178    3.1658 H   0  0  0  0  0  0  0  0  0  0  0  0
   67.2923   -1.8845    1.8035 H   0  0  0  0  0  0  0  0  0  0  0  0
   67.2776    1.9857   -1.8121 H   0  0  0  0  0  0  0  0  0  0  0  0
   65.3869    3.2788   -3.2006 H   0  0  0  0  0  0  0  0  0  0  0  0
   63.8092    2.1540   -5.0390 H   0  0  0  0  0  0  0  0  0  0  0  0
   63.7659    3.8961   -6.8130 H   0  0  0  0  0  0  0  0  0  0  0  0
   61.6899    6.5044   -4.4091 H   0  0  0  0  0  0  0  0  0  0  0  0
   61.6514    4.8804   -2.5264 H   0  0  0  0  0  0  0  0  0  0  0  0
   60.0854    2.9207   -3.5132 H   0  0  0  0  0  0  0  0  0  0  0  0
   58.2030    1.6124   -2.1298 H   0  0  0  0  0  0  0  0  0  0  0  0
  2  3  4  0  0  0  0
  3  4  1  0  0  0  0
  4  5  2  0  0  0  0
  5  6  4  0  0  0  0
  1  7  1  0  0  0  0
  3  7  4  0  0  0  0
  6  7  4  0  0  0  0
  6  8  4  0  0  0  0
  8  9  1  0  0  0  0
  9 10  4  0  0  0  0
 10 11  4  0  0  0  0
 11 12  4  0  0  0  0
 12 13  4  0  0  0  0
  9 14  4  0  0  0  0
 13 14  4  0  0  0  0
  8 15  4  0  0  0  0
 15 16  4  0  0  0  0
 16 17  2  0  0  0  0
  1 18  1  0  0  0  0
 15 18  4  0  0  0  0
 17 19  4  0  0  0  0
 18 19  4  0  0  0  0
 19 20  4  0  0  0  0
 20 21  4  0  0  0  0
 21 22  4  0  0  0  0
 22 23  2  0  0  0  0
 23 24  4  0  0  0  0
  1 25  1  0  0  0  0
 21 25  4  0  0  0  0
 24 25  4  0  0  0  0
 24 26  4  0  0  0  0
 26 27  1  0  0  0  0
 27 28  4  0  0  0  0
 28 29  4  0  0  0  0
 29 30  4  0  0  0  0
 30 31  4  0  0  0  0
 27 32  4  0  0  0  0
 31 32  4  0  0  0  0
 26 33  4  0  0  0  0
 33 34  4  0  0  0  0
 34 35  2  0  0  0  0
  2 36  4  0  0  0  0
 35 36  1  0  0  0  0
  1 37  1  0  0  0  0
 33 37  4  0  0  0  0
 36 37  4  0  0  0  0
  2 38  1  0  0  0  0
  4 39  1  0  0  0  0
  5 40  1  0  0  0  0
 10 41  1  0  0  0  0
 11 42  1  0  0  0  0
 13 43  1  0  0  0  0
 14 44  1  0  0  0  0
 16 45  1  0  0  0  0
 17 46  1  0  0  0  0
 22 47  1  0  0  0  0
 23 48  1  0  0  0  0
 28 49  1  0  0  0  0
 29 50  1  0  0  0  0
 31 51  1  0  0  0  0
 32 52  1  0  0  0  0
 34 53  1  0  0  0  0
 35 54  1  0  0  0  0
 56 57  4  0  0  0  0
 57 58  1  0  0  0  0
 58 59  2  0  0  0  0
 59 60  4  0  0  0  0
 55 61  1  0  0  0  0
 57 61  4  0  0  0  0
 60 61  4  0  0  0  0
 60 62  4  0  0  0  0
 62 63  1  0  0  0  0
 63 64  4  0  0  0  0
 64 65  4  0  0  0  0
 65 66  4  0  0  0  0
 66 67  4  0  0  0  0
 63 68  4  0  0  0  0
 67 68  4  0  0  0  0
 62 69  4  0  0  0  0
 69 70  4  0  0  0  0
 70 71  2  0  0  0  0
 55 72  1  0  0  0  0
 69 72  4  0  0  0  0
 71 73  4  0  0  0  0
 72 73  4  0  0  0  0
 73 74  4  0  0  0  0
 74 75  4  0  0  0  0
 75 76  4  0  0  0  0
 76 77  2  0  0  0  0
 77 78  4  0  0  0  0
 55 79  1  0  0  0  0
 75 79  4  0  0  0  0
 78 79  4  0  0  0  0
 78 80  4  0  0  0  0
 80 81  1  0  0  0  0
 81 82  4  0  0  0  0
 82 83  4  0  0  0  0
 83 84  4  0  0  0  0
 84 85  4  0  0  0  0
 81 86  4  0  0  0  0
 85 86  4  0  0  0  0
 80 87  4  0  0  0  0
 87 88  4  0  0  0  0
 88 89  2  0  0  0  0
 56 90  4  0  0  0  0
 89 90  1  0  0  0  0
 55 91  1  0  0  0  0
 87 91  4  0  0  0  0
 90 91  4  0  0  0  0
 56 92  1  0  0  0  0
 58 93  1  0  0  0  0
 59 94  1  0  0  0  0
 64 95  1  0  0  0  0
 65 96  1  0  0  0  0
 67 97  1  0  0  0  0
 68 98  1  0  0  0  0
 70 99  1  0  0  0  0
 71100  1  0  0  0  0
 76101  1  0  0  0  0
 77102  1  0  0  0  0
 82103  1  0  0  0  0
 83104  1  0  0  0  0
 85105  1  0  0  0  0
 86106  1  0  0  0  0
 88107  1  0  0  0  0
 89108  1  0  0  0  0
 20109  4  0  0  0  0
109110  3  0  0  0  0
111112  3  0  0  0  0
 74114  4  0  0  0  0
113114  3  0  0  0  0
110116  4  0  0  0  0
116117  4  0  0  0  0
117118  4  0  0  0  0
118119  2  0  0  0  0
119120  4  0  0  0  0
115121  1  0  0  0  0
117121  4  0  0  0  0
120121  4  0  0  0  0
120122  4  0  0  0  0
122123  1  0  0  0  0
123124  4  0  0  0  0
124125  4  0  0  0  0
125126  4  0  0  0  0
126127  4  0  0  0  0
123128  4  0  0  0  0
127128  4  0  0  0  0
122129  4  0  0  0  0
129130  4  0  0  0  0
130131  2  0  0  0  0
115132  1  0  0  0  0
129132  4  0  0  0  0
131133  4  0  0  0  0
132133  4  0  0  0  0
111134  4  0  0  0  0
133134  4  0  0  0  0
134135  4  0  0  0  0
135136  4  0  0  0  0
136137  2  0  0  0  0
137138  4  0  0  0  0
115139  1  0  0  0  0
135139  4  0  0  0  0
138139  4  0  0  0  0
138140  4  0  0  0  0
140141  1  0  0  0  0
141142  4  0  0  0  0
142143  4  0  0  0  0
143144  4  0  0  0  0
144145  4  0  0  0  0
141146  4  0  0  0  0
145146  4  0  0  0  0
140147  4  0  0  0  0
147148  4  0  0  0  0
148149  2  0  0  0  0
116150  4  0  0  0  0
149150  4  0  0  0  0
115151  1  0  0  0  0
147151  4  0  0  0  0
150151  4  0  0  0  0
118152  1  0  0  0  0
119153  1  0  0  0  0
124154  1  0  0  0  0
125155  1  0  0  0  0
127156  1  0  0  0  0
128157  1  0  0  0  0
130158  1  0  0  0  0
131159  1  0  0  0  0
136160  1  0  0  0  0
137161  1  0  0  0  0
142162  1  0  0  0  0
143163  1  0  0  0  0
145164  1  0  0  0  0
146165  1  0  0  0  0
148166  1  0  0  0  0
149167  1  0  0  0  0
112169  4  0  0  0  0
169170  4  0  0  0  0
170171  4  0  0  0  0
171172  2  0  0  0  0
172173  4  0  0  0  0
168174  1  0  0  0  0
170174  4  0  0  0  0
173174  4  0  0  0  0
173175  4  0  0  0  0
175176  1  0  0  0  0
176177  4  0  0  0  0
177178  4  0  0  0  0
178179  4  0  0  0  0
179180  4  0  0  0  0
176181  4  0  0  0  0
180181  4  0  0  0  0
175182  4  0  0  0  0
182183  4  0  0  0  0
183184  2  0  0  0  0
168185  1  0  0  0  0
182185  4  0  0  0  0
184186  4  0  0  0  0
185186  4  0  0  0  0
113187  4  0  0  0  0
186187  4  0  0  0  0
187188  4  0  0  0  0
188189  4  0  0  0  0
189190  2  0  0  0  0
190191  4  0  0  0  0
168192  1  0  0  0  0
188192  4  0  0  0  0
191192  4  0  0  0  0
191193  4  0  0  0  0
193194  1  0  0  0  0
194195  4  0  0  0  0
195196  4  0  0  0  0
196197  4  0  0  0  0
197198  4  0  0  0  0
194199  4  0  0  0  0
198199  4  0  0  0  0
193200  4  0  0  0  0
200201  4  0  0  0  0
201202  2  0  0  0  0
169203  4  0  0  0  0
202203  4  0  0  0  0
168204  1  0  0  0  0
200204  4  0  0  0  0
203204  4  0  0  0  0
171205  1  0  0  0  0
172206  1  0  0  0  0
177207  1  0  0  0  0
178208  1  0  0  0  0
180209  1  0  0  0  0
181210  1  0  0  0  0
183211  1  0  0  0  0
184212  1  0  0  0  0
189213  1  0  0  0  0
190214  1  0  0  0  0
195215  1  0  0  0  0
196216  1  0  0  0  0
198217  1  0  0  0  0
199218  1  0  0  0  0
201219  1  0  0  0  0
202220  1  0  0  0  0
M  END
