187

Cu 31.669629 -0.021137 0.002449
C 28.307876 0.113970 -0.116575
C 28.973936 1.267662 -0.016142
C 28.324110 2.569261 0.077789
C 29.264214 3.483480 0.223012
C 30.569550 2.808414 0.223973
N 30.392178 1.399847 0.069139
C 31.758964 3.420751 0.397026
C 31.795295 4.887692 0.589564
C 32.050157 5.425408 1.859212
C 32.088901 6.810601 2.042358
C 31.868556 7.676089 0.956715
C 31.901881 9.139614 1.130576
O 32.136230 9.655916 2.255827
C 31.612470 7.134184 -0.312485
C 31.578454 5.748943 -0.496018
C 33.054706 2.689834 0.413712
C 34.349489 3.331673 0.672414
C 35.283644 2.408371 0.579578
N 33.193402 1.423425 0.162563
C 34.595340 1.166315 0.250854
C 35.191452 -0.012381 0.003531
C 34.436565 -1.235834 -0.354913
C 34.990186 -2.324277 -0.874910
C 33.946219 -3.319226 -1.008631
C 32.821515 -2.775556 -0.559653
N 33.040035 -1.431104 -0.125489
C 31.524814 -3.495741 -0.473379
C 31.534302 -4.975769 -0.548879
C 30.971971 -5.634968 -1.653344
C 31.001469 -7.030233 -1.730441
C 31.598336 -7.784832 -0.708133
C 31.626061 -9.255413 -0.809494
O 32.202104 -9.956776 0.063045
C 32.166036 -7.122311 0.394835
C 32.136652 -5.726940 0.470886
C 30.356572 -2.842390 -0.329701
C 29.034870 -3.456047 -0.212533
C 28.174424 -2.460452 -0.127074
C 28.937339 -1.214450 -0.177023
N 30.210801 -1.424220 -0.295179
H 27.224606 0.146784 -0.133414
H 27.260271 2.767028 0.050516
H 29.075698 4.543423 0.333292
H 32.219595 4.770735 2.705451
H 32.289518 7.203190 3.031335
H 31.724391 9.789507 0.283324
H 31.439547 7.783520 -1.162126
H 31.381430 5.346109 -1.482225
H 34.532040 4.375038 0.891432
H 36.344606 2.575767 0.709566
H 36.030299 -2.461178 -1.138096
H 34.070179 -4.324322 -1.389851
H 30.515597 -5.067073 -2.455688
H 30.563600 -7.520823 -2.592023
H 31.154519 -9.748281 -1.649709
H 32.632282 -7.681386 1.197178
H 32.579800 -5.231172 1.326302
H 28.783759 -4.508575 -0.193527
H 27.101415 -2.562524 -0.028938
Cu 59.287100 -0.003559 0.003707
C 62.648853 -0.120339 -0.133344
C 61.982793 -1.276576 -0.198229
C 62.632619 -2.578285 -0.290612
C 61.692515 -3.503868 -0.277060
C 60.387179 -2.835818 -0.179975
N 60.564551 -1.419558 -0.132641
C 59.197766 -3.466559 -0.095887
C 59.161434 -4.945968 -0.114214
C 58.906572 -5.659010 1.065920
C 58.867828 -7.056167 1.049938
C 59.088173 -7.758231 -0.147892
C 59.054848 -9.231599 -0.184219
O 58.820499 -9.902882 0.856039
C 59.344259 -7.041106 -1.326985
C 59.378275 -5.643847 -1.311380
C 57.902023 -2.745467 0.024717
C 56.607240 -3.417606 0.189380
C 55.673086 -2.490494 0.228975
N 57.763327 -1.456200 -0.043526
C 56.361389 -1.214284 0.080479
C 55.765277 -0.012381 0.003531
C 56.520164 1.249649 -0.177032
C 55.966543 2.401049 -0.536727
C 57.010510 3.404901 -0.527397
C 58.135214 2.802835 -0.160417
N 57.916694 1.410257 0.077862
C 59.431916 3.503394 0.027537
C 59.422427 4.979088 0.163572
C 59.984758 5.788853 -0.835762
C 59.955261 7.180876 -0.713377
C 59.358393 7.782201 0.405972
C 59.330668 9.252229 0.515065
O 58.754625 9.822188 1.478590
C 58.790693 6.969362 1.403351
C 58.820077 5.577382 1.279916
C 60.600157 2.836240 0.076709
C 61.921859 3.426957 0.280072
C 62.782306 2.429340 0.222880
C 62.019390 1.203150 -0.004000
N 60.745928 1.427607 -0.091079
H 63.732124 -0.150422 -0.154684
H 63.696458 -2.770153 -0.345770
H 61.881031 -4.568712 -0.318847
H 58.737134 -5.131520 1.996765
H 58.667212 -7.585592 1.972928
H 59.232338 -9.754214 -1.115385
H 59.517182 -7.562830 -2.260437
H 59.575299 -5.104675 -2.230169
H 56.424689 -4.481527 0.257584
H 54.612124 -2.674695 0.333800
H 54.926430 2.574035 -0.777735
H 56.886550 4.454042 -0.761599
H 60.441132 5.341005 -1.710800
H 60.393129 7.789162 -1.496314
H 59.802210 9.859727 -0.246399
H 58.324447 7.408480 2.277132
H 58.376929 4.964850 2.056014
H 62.172970 4.466051 0.448771
H 63.855314 2.516396 0.334551
C 38.318617 0.000056 0.005973
C 37.066346 -0.019125 0.001624
C 39.632285 -0.000710 0.007905
C 41.135418 -0.019125 0.001624
C 51.163587 0.000056 0.005973
C 49.911317 -0.019125 0.001624
C 52.477255 -0.000710 0.007905
C 53.980389 -0.019125 0.001624
Cu 45.462565 -0.015928 0.014106
C 42.020331 0.027774 -0.007402
C 42.676583 1.162802 0.302013
C 42.035633 2.453744 0.564600
C 42.975838 3.328911 0.866974
C 44.273813 2.649356 0.821550
N 44.093938 1.277969 0.456554
C 45.458832 3.230600 1.103446
C 45.493411 4.648145 1.526253
C 45.994725 5.628450 0.657185
C 46.038970 6.966602 1.056577
C 45.583855 7.340857 2.333265
C 45.608003 8.746293 2.774740
O 46.073072 9.647603 2.031074
C 45.091658 6.356915 3.201260
C 45.048047 5.018770 2.800516
C 46.754991 2.515103 1.013022
C 48.023027 3.057860 1.515383
C 48.974947 2.196448 1.220440
N 46.922621 1.365704 0.435967
C 48.320604 1.093714 0.528124
C 48.936253 0.027774 -0.007402
C 48.187660 -1.056122 -0.676104
C 48.720709 -1.927802 -1.521740
C 47.689037 -2.892998 -1.850837
C 46.597002 -2.543489 -1.183225
N 46.822095 -1.366022 -0.410295
C 45.341849 -3.330371 -1.157945
C 45.403444 -4.767447 -1.513467
C 46.170552 -5.648418 -0.736821
C 46.242846 -7.003349 -1.071868
C 45.554333 -7.494817 -2.192206
C 45.638391 -8.927954 -2.523027
O 45.018383 -9.406006 -3.511843
C 44.795544 -6.609352 -2.978168
C 44.723473 -5.253821 -2.642154
C 44.168659 -2.774117 -0.798848
C 42.891735 -3.469932 -0.676295
C 42.000715 -2.550247 -0.362301
C 42.698207 -1.261971 -0.276053
N 43.965732 -1.387088 -0.526988
H 40.978882 2.685223 0.521689
H 42.791628 4.369557 1.101381
H 46.348354 5.354806 -0.329409
H 46.426495 7.707355 0.367977
H 45.214641 9.018727 3.754173
H 44.740579 6.623690 4.189047
H 44.668373 4.270968 3.482162
H 48.172601 3.995321 2.034741
H 50.024796 2.313987 1.456543
H 49.741111 -1.942065 -1.878503
H 47.803356 -3.758437 -2.489710
H 46.707087 -5.286034 0.132018
H 46.835681 -7.669209 -0.455257
H 46.238236 -9.590169 -1.909988
H 44.262656 -6.962928 -3.852438
H 44.140791 -4.582177 -3.261967
H 42.689585 -4.525866 -0.803260
H 40.948253 -2.739829 -0.195043
