 xtb: 6.5.1 (b24c23e)
          07302209513D

288327  0     0  0            999 V2000
   42.5385    0.0498   -0.1049 Zn  0  0  0  0  0  0  0  0  0  0  0  0
   39.1325    0.1560   -0.2762 C   0  0  0  0  0  0  0  0  0  0  0  0
   39.7725    1.3412    0.0664 C   0  0  0  0  0  0  0  0  0  0  0  0
   39.1098    2.5754    0.3833 C   0  0  0  0  0  0  0  0  0  0  0  0
   40.0760    3.4800    0.6808 C   0  0  0  0  0  0  0  0  0  0  0  0
   41.3424    2.8118    0.5391 C   0  0  0  0  0  0  0  0  0  0  0  0
   41.1225    1.5161    0.1727 N   0  0  0  0  0  0  0  0  0  0  0  0
   42.5969    3.3908    0.7653 C   0  0  0  0  0  0  0  0  0  0  0  0
   43.8285    2.7369    0.6584 C   0  0  0  0  0  0  0  0  0  0  0  0
   45.1133    3.3550    0.8364 C   0  0  0  0  0  0  0  0  0  0  0  0
   46.0513    2.3961    0.6279 C   0  0  0  0  0  0  0  0  0  0  0  0
   44.0113    1.4180    0.3368 N   0  0  0  0  0  0  0  0  0  0  0  0
   45.3507    1.1848    0.3166 C   0  0  0  0  0  0  0  0  0  0  0  0
   45.9708   -0.0490    0.0319 C   0  0  0  0  0  0  0  0  0  0  0  0
   45.3055   -1.2505   -0.2862 C   0  0  0  0  0  0  0  0  0  0  0  0
   45.9601   -2.4909   -0.5827 C   0  0  0  0  0  0  0  0  0  0  0  0
   44.9874   -3.3992   -0.8503 C   0  0  0  0  0  0  0  0  0  0  0  0
   43.7270   -2.7226   -0.7155 C   0  0  0  0  0  0  0  0  0  0  0  0
   42.4731   -3.3017   -0.9340 C   0  0  0  0  0  0  0  0  0  0  0  0
   42.4447   -4.7469   -1.2779 C   0  0  0  0  0  0  0  0  0  0  0  0
   41.9737   -5.1672   -2.5198 C   0  0  0  0  0  0  0  0  0  0  0  0
   41.9487   -6.5201   -2.8456 C   0  0  0  0  0  0  0  0  0  0  0  0
   41.4282   -6.9629   -4.1866 C   0  0  0  0  0  0  0  0  0  0  0  0
   42.3906   -7.4536   -1.9144 C   0  0  0  0  0  0  0  0  0  0  0  0
   42.8604   -7.0493   -0.6671 C   0  0  0  0  0  0  0  0  0  0  0  0
   43.3468   -8.0723    0.3239 C   0  0  0  0  0  0  0  0  0  0  0  0
   42.8892   -5.6950   -0.3565 C   0  0  0  0  0  0  0  0  0  0  0  0
   41.2423   -2.6394   -0.8552 C   0  0  0  0  0  0  0  0  0  0  0  0
   39.9528   -3.2475   -1.0498 C   0  0  0  0  0  0  0  0  0  0  0  0
   39.0211   -2.2780   -0.8701 C   0  0  0  0  0  0  0  0  0  0  0  0
   39.7284   -1.0684   -0.5545 C   0  0  0  0  0  0  0  0  0  0  0  0
   41.0703   -1.3204   -0.5520 N   0  0  0  0  0  0  0  0  0  0  0  0
   43.9589   -1.4161   -0.3757 N   0  0  0  0  0  0  0  0  0  0  0  0
   42.6221    4.8245    1.1532 C   0  0  0  0  0  0  0  0  0  0  0  0
   42.1536    5.8008    0.2750 C   0  0  0  0  0  0  0  0  0  0  0  0
   42.1756    7.1438    0.6347 C   0  0  0  0  0  0  0  0  0  0  0  0
   41.6948    8.1973   -0.3266 C   0  0  0  0  0  0  0  0  0  0  0  0
   42.6670    7.5074    1.8852 C   0  0  0  0  0  0  0  0  0  0  0  0
   43.1366    6.5447    2.7734 C   0  0  0  0  0  0  0  0  0  0  0  0
   43.6420    6.9459    4.1331 C   0  0  0  0  0  0  0  0  0  0  0  0
   43.1138    5.2048    2.4009 C   0  0  0  0  0  0  0  0  0  0  0  0
   38.0480    0.1868   -0.3187 H   0  0  0  0  0  0  0  0  0  0  0  0
   38.0404    2.7179    0.3826 H   0  0  0  0  0  0  0  0  0  0  0  0
   39.9475    4.5079    0.9804 H   0  0  0  0  0  0  0  0  0  0  0  0
   45.2747    4.3935    1.0772 H   0  0  0  0  0  0  0  0  0  0  0  0
   47.1243    2.4939    0.6747 H   0  0  0  0  0  0  0  0  0  0  0  0
   47.0284   -2.6388   -0.5883 H   0  0  0  0  0  0  0  0  0  0  0  0
   45.1098   -4.4340   -1.1272 H   0  0  0  0  0  0  0  0  0  0  0  0
   41.6410   -4.4295   -3.2420 H   0  0  0  0  0  0  0  0  0  0  0  0
   41.8012   -7.9549   -4.4417 H   0  0  0  0  0  0  0  0  0  0  0  0
   40.3367   -7.0026   -4.1671 H   0  0  0  0  0  0  0  0  0  0  0  0
   41.7264   -6.2622   -4.9671 H   0  0  0  0  0  0  0  0  0  0  0  0
   42.3702   -8.5101   -2.1614 H   0  0  0  0  0  0  0  0  0  0  0  0
   43.4121   -7.6458    1.3248 H   0  0  0  0  0  0  0  0  0  0  0  0
   42.6761   -8.9320    0.3502 H   0  0  0  0  0  0  0  0  0  0  0  0
   44.3390   -8.4273    0.0367 H   0  0  0  0  0  0  0  0  0  0  0  0
   43.2439   -5.3673    0.6147 H   0  0  0  0  0  0  0  0  0  0  0  0
   39.7867   -4.2870   -1.2837 H   0  0  0  0  0  0  0  0  0  0  0  0
   37.9477   -2.3643   -0.9355 H   0  0  0  0  0  0  0  0  0  0  0  0
   41.7848    5.5062   -0.7015 H   0  0  0  0  0  0  0  0  0  0  0  0
   41.2105    9.0160    0.2064 H   0  0  0  0  0  0  0  0  0  0  0  0
   40.9902    7.7771   -1.0444 H   0  0  0  0  0  0  0  0  0  0  0  0
   42.5417    8.6084   -0.8809 H   0  0  0  0  0  0  0  0  0  0  0  0
   42.6842    8.5543    2.1705 H   0  0  0  0  0  0  0  0  0  0  0  0
   42.8127    6.9730    4.8439 H   0  0  0  0  0  0  0  0  0  0  0  0
   44.0942    7.9374    4.1024 H   0  0  0  0  0  0  0  0  0  0  0  0
   44.3797    6.2319    4.4997 H   0  0  0  0  0  0  0  0  0  0  0  0
   43.4661    4.4442    3.0890 H   0  0  0  0  0  0  0  0  0  0  0  0
   90.6863    0.0526   -0.0760 Zn  0  0  0  0  0  0  0  0  0  0  0  0
   94.0896    0.2015   -0.2583 C   0  0  0  0  0  0  0  0  0  0  0  0
   93.4430   -0.4662   -1.2915 C   0  0  0  0  0  0  0  0  0  0  0  0
   94.0982   -1.1159   -2.3923 C   0  0  0  0  0  0  0  0  0  0  0  0
   93.1273   -1.6647   -3.1647 C   0  0  0  0  0  0  0  0  0  0  0  0
   91.8653   -1.3486   -2.5499 C   0  0  0  0  0  0  0  0  0  0  0  0
   92.0927   -0.6269   -1.4145 N   0  0  0  0  0  0  0  0  0  0  0  0
   90.6087   -1.7424   -3.0247 C   0  0  0  0  0  0  0  0  0  0  0  0
   89.3819   -1.4641   -2.4136 C   0  0  0  0  0  0  0  0  0  0  0  0
   88.0939   -1.8258   -2.9381 C   0  0  0  0  0  0  0  0  0  0  0  0
   87.1618   -1.3555   -2.0707 C   0  0  0  0  0  0  0  0  0  0  0  0
   89.2069   -0.7754   -1.2429 N   0  0  0  0  0  0  0  0  0  0  0  0
   87.8691   -0.6984   -1.0107 C   0  0  0  0  0  0  0  0  0  0  0  0
   87.2563   -0.0625    0.0875 C   0  0  0  0  0  0  0  0  0  0  0  0
   87.9270    0.5987    1.1353 C   0  0  0  0  0  0  0  0  0  0  0  0
   87.2792    1.2425    2.2405 C   0  0  0  0  0  0  0  0  0  0  0  0
   88.2569    1.7601    3.0271 C   0  0  0  0  0  0  0  0  0  0  0  0
   89.5136    1.4345    2.4109 C   0  0  0  0  0  0  0  0  0  0  0  0
   90.7708    1.8081    2.8966 C   0  0  0  0  0  0  0  0  0  0  0  0
   90.8065    2.5449    4.1863 C   0  0  0  0  0  0  0  0  0  0  0  0
   91.2790    3.8543    4.2400 C   0  0  0  0  0  0  0  0  0  0  0  0
   91.3097    4.5457    5.4476 C   0  0  0  0  0  0  0  0  0  0  0  0
   91.8315    5.9567    5.4955 C   0  0  0  0  0  0  0  0  0  0  0  0
   90.8719    3.9137    6.6064 C   0  0  0  0  0  0  0  0  0  0  0  0
   90.4007    2.6036    6.5695 C   0  0  0  0  0  0  0  0  0  0  0  0
   89.9184    1.9390    7.8308 C   0  0  0  0  0  0  0  0  0  0  0  0
   90.3663    1.9264    5.3565 C   0  0  0  0  0  0  0  0  0  0  0  0
   91.9974    1.5444    2.2758 C   0  0  0  0  0  0  0  0  0  0  0  0
   93.2905    1.9060    2.7933 C   0  0  0  0  0  0  0  0  0  0  0  0
   94.2159    1.4608    1.9069 C   0  0  0  0  0  0  0  0  0  0  0  0
   93.5013    0.8133    0.8424 C   0  0  0  0  0  0  0  0  0  0  0  0
   92.1613    0.8792    1.0959 N   0  0  0  0  0  0  0  0  0  0  0  0
   89.2747    0.7326    1.2596 N   0  0  0  0  0  0  0  0  0  0  0  0
   90.5739   -2.5233   -4.2880 C   0  0  0  0  0  0  0  0  0  0  0  0
   91.0167   -1.9537   -5.4810 C   0  0  0  0  0  0  0  0  0  0  0  0
   90.9816   -2.6800   -6.6663 C   0  0  0  0  0  0  0  0  0  0  0  0
   91.4327   -2.0520   -7.9576 C   0  0  0  0  0  0  0  0  0  0  0  0
   90.5035   -3.9871   -6.6518 C   0  0  0  0  0  0  0  0  0  0  0  0
   90.0603   -4.5704   -5.4688 C   0  0  0  0  0  0  0  0  0  0  0  0
   89.5688   -5.9929   -5.4591 C   0  0  0  0  0  0  0  0  0  0  0  0
   90.0958   -3.8327   -4.2902 C   0  0  0  0  0  0  0  0  0  0  0  0
   95.1735    0.2383   -0.3099 H   0  0  0  0  0  0  0  0  0  0  0  0
   95.1663   -1.1482   -2.5409 H   0  0  0  0  0  0  0  0  0  0  0  0
   93.2497   -2.2425   -4.0669 H   0  0  0  0  0  0  0  0  0  0  0  0
   87.9263   -2.3598   -3.8597 H   0  0  0  0  0  0  0  0  0  0  0  0
   86.0887   -1.4378   -2.1384 H   0  0  0  0  0  0  0  0  0  0  0  0
   86.2118    1.2909    2.3867 H   0  0  0  0  0  0  0  0  0  0  0  0
   88.1404    2.3243    3.9385 H   0  0  0  0  0  0  0  0  0  0  0  0
   91.6082    4.3410    3.3283 H   0  0  0  0  0  0  0  0  0  0  0  0
   91.4585    6.4808    6.3755 H   0  0  0  0  0  0  0  0  0  0  0  0
   92.9230    5.9481    5.5399 H   0  0  0  0  0  0  0  0  0  0  0  0
   91.5345    6.5089    4.6034 H   0  0  0  0  0  0  0  0  0  0  0  0
   90.8967    4.4468    7.5513 H   0  0  0  0  0  0  0  0  0  0  0  0
   89.8571    0.8582    7.7034 H   0  0  0  0  0  0  0  0  0  0  0  0
   90.5891    2.1583    8.6625 H   0  0  0  0  0  0  0  0  0  0  0  0
   88.9250    2.3107    8.0916 H   0  0  0  0  0  0  0  0  0  0  0  0
   90.0103    0.9027    5.3152 H   0  0  0  0  0  0  0  0  0  0  0  0
   93.4631    2.4257    3.7223 H   0  0  0  0  0  0  0  0  0  0  0  0
   95.2896    1.5504    1.9623 H   0  0  0  0  0  0  0  0  0  0  0  0
   91.3751   -0.9300   -5.4819 H   0  0  0  0  0  0  0  0  0  0  0  0
   91.9122   -2.7906   -8.6007 H   0  0  0  0  0  0  0  0  0  0  0  0
   92.1333   -1.2380   -7.7709 H   0  0  0  0  0  0  0  0  0  0  0  0
   90.5718   -1.6450   -8.4930 H   0  0  0  0  0  0  0  0  0  0  0  0
   90.4756   -4.5578   -7.5745 H   0  0  0  0  0  0  0  0  0  0  0  0
   90.4072   -6.6740   -5.2957 H   0  0  0  0  0  0  0  0  0  0  0  0
   89.1042   -6.2499   -6.4114 H   0  0  0  0  0  0  0  0  0  0  0  0
   88.8446   -6.1483   -4.6591 H   0  0  0  0  0  0  0  0  0  0  0  0
   89.7635   -4.2800   -3.3598 H   0  0  0  0  0  0  0  0  0  0  0  0
   51.1722   -0.1203    0.0720 C   0  0  0  0  0  0  0  0  0  0  0  0
   49.9436   -0.1140    0.0744 C   0  0  0  0  0  0  0  0  0  0  0  0
   48.5994   -0.0994    0.0691 C   0  0  0  0  0  0  0  0  0  0  0  0
   47.3755   -0.0794    0.0562 C   0  0  0  0  0  0  0  0  0  0  0  0
   52.5163   -0.1220    0.0652 C   0  0  0  0  0  0  0  0  0  0  0  0
   53.7406   -0.1208    0.0544 C   0  0  0  0  0  0  0  0  0  0  0  0
   67.2271   -0.0401   -0.0467 C   0  0  0  0  0  0  0  0  0  0  0  0
   65.9982   -0.0405   -0.0539 C   0  0  0  0  0  0  0  0  0  0  0  0
   64.6546   -0.0458   -0.0563 C   0  0  0  0  0  0  0  0  0  0  0  0
   63.4301   -0.0527   -0.0480 C   0  0  0  0  0  0  0  0  0  0  0  0
   68.5708   -0.0401   -0.0407 C   0  0  0  0  0  0  0  0  0  0  0  0
   69.7953   -0.0430   -0.0318 C   0  0  0  0  0  0  0  0  0  0  0  0
   83.2816   -0.0933    0.1667 C   0  0  0  0  0  0  0  0  0  0  0  0
   82.0536   -0.0947    0.1667 C   0  0  0  0  0  0  0  0  0  0  0  0
   80.7082   -0.0928    0.1567 C   0  0  0  0  0  0  0  0  0  0  0  0
   79.4847   -0.0885    0.1392 C   0  0  0  0  0  0  0  0  0  0  0  0
   84.6270   -0.0883    0.1537 C   0  0  0  0  0  0  0  0  0  0  0  0
   85.8504   -0.0799    0.1324 C   0  0  0  0  0  0  0  0  0  0  0  0
   58.5856   -0.0882   -0.0081 Zn  0  0  0  0  0  0  0  0  0  0  0  0
   55.1450   -0.1124    0.0378 C   0  0  0  0  0  0  0  0  0  0  0  0
   55.7791    1.1396   -0.0989 C   0  0  0  0  0  0  0  0  0  0  0  0
   55.0927    2.3938   -0.1913 C   0  0  0  0  0  0  0  0  0  0  0  0
   56.0411    3.3564   -0.3252 C   0  0  0  0  0  0  0  0  0  0  0  0
   57.3166    2.6967   -0.3236 C   0  0  0  0  0  0  0  0  0  0  0  0
   57.1205    1.3495   -0.1740 N   0  0  0  0  0  0  0  0  0  0  0  0
   58.5565    3.3351   -0.4361 C   0  0  0  0  0  0  0  0  0  0  0  0
   59.8075    2.7115   -0.3834 C   0  0  0  0  0  0  0  0  0  0  0  0
   61.0722    3.3730   -0.5407 C   0  0  0  0  0  0  0  0  0  0  0  0
   62.0369    2.4240   -0.4271 C   0  0  0  0  0  0  0  0  0  0  0  0
   60.0263    1.3727   -0.1933 N   0  0  0  0  0  0  0  0  0  0  0  0
   61.3711    1.1740   -0.2104 C   0  0  0  0  0  0  0  0  0  0  0  0
   62.0261   -0.0634   -0.0411 C   0  0  0  0  0  0  0  0  0  0  0  0
   61.3924   -1.3108    0.1354 C   0  0  0  0  0  0  0  0  0  0  0  0
   62.0803   -2.5524    0.3316 C   0  0  0  0  0  0  0  0  0  0  0  0
   61.1318   -3.5163    0.4549 C   0  0  0  0  0  0  0  0  0  0  0  0
   59.8547   -2.8721    0.3269 C   0  0  0  0  0  0  0  0  0  0  0  0
   58.6144   -3.5144    0.4030 C   0  0  0  0  0  0  0  0  0  0  0  0
   58.6262   -4.9890    0.5817 C   0  0  0  0  0  0  0  0  0  0  0  0
   58.0796   -5.5618    1.7285 C   0  0  0  0  0  0  0  0  0  0  0  0
   58.0852   -6.9424    1.9013 C   0  0  0  0  0  0  0  0  0  0  0  0
   57.5124   -7.5492    3.1537 C   0  0  0  0  0  0  0  0  0  0  0  0
   58.6411   -7.7503    0.9149 C   0  0  0  0  0  0  0  0  0  0  0  0
   59.1888   -7.1934   -0.2379 C   0  0  0  0  0  0  0  0  0  0  0  0
   59.7974   -8.0810   -1.2900 C   0  0  0  0  0  0  0  0  0  0  0  0
   59.1815   -5.8125   -0.3974 C   0  0  0  0  0  0  0  0  0  0  0  0
   57.3632   -2.8928    0.3285 C   0  0  0  0  0  0  0  0  0  0  0  0
   56.0971   -3.5698    0.3618 C   0  0  0  0  0  0  0  0  0  0  0  0
   55.1325   -2.6194    0.2609 C   0  0  0  0  0  0  0  0  0  0  0  0
   55.7994   -1.3556    0.1556 C   0  0  0  0  0  0  0  0  0  0  0  0
   57.1449   -1.5477    0.1929 N   0  0  0  0  0  0  0  0  0  0  0  0
   60.0505   -1.5291    0.1420 N   0  0  0  0  0  0  0  0  0  0  0  0
   58.5410    4.8074   -0.6331 C   0  0  0  0  0  0  0  0  0  0  0  0
   59.1071    5.6534    0.3190 C   0  0  0  0  0  0  0  0  0  0  0  0
   59.0877    7.0328    0.1395 C   0  0  0  0  0  0  0  0  0  0  0  0
   59.7125    7.9388    1.1660 C   0  0  0  0  0  0  0  0  0  0  0  0
   58.5020    7.5634   -1.0056 C   0  0  0  0  0  0  0  0  0  0  0  0
   57.9338    6.7317   -1.9663 C   0  0  0  0  0  0  0  0  0  0  0  0
   57.3200    7.3162   -3.2099 C   0  0  0  0  0  0  0  0  0  0  0  0
   57.9553    5.3549   -1.7740 C   0  0  0  0  0  0  0  0  0  0  0  0
   54.0219    2.5158   -0.1521 H   0  0  0  0  0  0  0  0  0  0  0  0
   55.8921    4.4211   -0.4063 H   0  0  0  0  0  0  0  0  0  0  0  0
   61.2038    4.4270   -0.7251 H   0  0  0  0  0  0  0  0  0  0  0  0
   63.1060    2.5510   -0.4912 H   0  0  0  0  0  0  0  0  0  0  0  0
   63.1520   -2.6641    0.3749 H   0  0  0  0  0  0  0  0  0  0  0  0
   61.2819   -4.5697    0.6285 H   0  0  0  0  0  0  0  0  0  0  0  0
   57.6590   -4.9213    2.4961 H   0  0  0  0  0  0  0  0  0  0  0  0
   57.1963   -8.5777    2.9789 H   0  0  0  0  0  0  0  0  0  0  0  0
   58.2677   -7.5541    3.9430 H   0  0  0  0  0  0  0  0  0  0  0  0
   56.6577   -6.9720    3.5075 H   0  0  0  0  0  0  0  0  0  0  0  0
   58.6453   -8.8280    1.0427 H   0  0  0  0  0  0  0  0  0  0  0  0
   59.8686   -7.5612   -2.2455 H   0  0  0  0  0  0  0  0  0  0  0  0
   59.2027   -8.9853   -1.4235 H   0  0  0  0  0  0  0  0  0  0  0  0
   60.8035   -8.3801   -0.9874 H   0  0  0  0  0  0  0  0  0  0  0  0
   59.5920   -5.3675   -1.2973 H   0  0  0  0  0  0  0  0  0  0  0  0
   55.9646   -4.6368    0.4407 H   0  0  0  0  0  0  0  0  0  0  0  0
   54.0627   -2.7553    0.2513 H   0  0  0  0  0  0  0  0  0  0  0  0
   59.5477    5.2293    1.2147 H   0  0  0  0  0  0  0  0  0  0  0  0
   59.2402    8.9213    1.1569 H   0  0  0  0  0  0  0  0  0  0  0  0
   60.7748    8.0699    0.9472 H   0  0  0  0  0  0  0  0  0  0  0  0
   59.6231    7.5128    2.1655 H   0  0  0  0  0  0  0  0  0  0  0  0
   58.4843    8.6389   -1.1500 H   0  0  0  0  0  0  0  0  0  0  0  0
   56.8632    8.2835   -2.9990 H   0  0  0  0  0  0  0  0  0  0  0  0
   56.5615    6.6491   -3.6198 H   0  0  0  0  0  0  0  0  0  0  0  0
   58.0904    7.4638   -3.9702 H   0  0  0  0  0  0  0  0  0  0  0  0
   57.5255    4.6958   -2.5205 H   0  0  0  0  0  0  0  0  0  0  0  0
   74.6396   -0.0668    0.0386 Zn  0  0  0  0  0  0  0  0  0  0  0  0
   71.1993   -0.0498   -0.0173 C   0  0  0  0  0  0  0  0  0  0  0  0
   71.8521    1.1933   -0.1476 C   0  0  0  0  0  0  0  0  0  0  0  0
   71.1834    2.4543   -0.2731 C   0  0  0  0  0  0  0  0  0  0  0  0
   72.1467    3.4051   -0.3820 C   0  0  0  0  0  0  0  0  0  0  0  0
   73.4139    2.7314   -0.3305 C   0  0  0  0  0  0  0  0  0  0  0  0
   73.1974    1.3875   -0.1793 N   0  0  0  0  0  0  0  0  0  0  0  0
   74.6640    3.3556   -0.3981 C   0  0  0  0  0  0  0  0  0  0  0  0
   75.9052    2.7184   -0.2948 C   0  0  0  0  0  0  0  0  0  0  0  0
   77.1824    3.3660   -0.4043 C   0  0  0  0  0  0  0  0  0  0  0  0
   78.1316    2.4065   -0.2567 C   0  0  0  0  0  0  0  0  0  0  0  0
   76.1018    1.3776   -0.0974 N   0  0  0  0  0  0  0  0  0  0  0  0
   77.4445    1.1633   -0.0671 C   0  0  0  0  0  0  0  0  0  0  0  0
   78.0787   -0.0823    0.1127 C   0  0  0  0  0  0  0  0  0  0  0  0
   77.4266   -1.3227    0.2610 C   0  0  0  0  0  0  0  0  0  0  0  0
   78.0940   -2.5737    0.4686 C   0  0  0  0  0  0  0  0  0  0  0  0
   77.1310   -3.5263    0.5625 C   0  0  0  0  0  0  0  0  0  0  0  0
   75.8656   -2.8658    0.4042 C   0  0  0  0  0  0  0  0  0  0  0  0
   74.6158   -3.4932    0.4468 C   0  0  0  0  0  0  0  0  0  0  0  0
   74.6061   -4.9682    0.6234 C   0  0  0  0  0  0  0  0  0  0  0  0
   74.0277   -5.5362    1.7570 C   0  0  0  0  0  0  0  0  0  0  0  0
   74.0160   -6.9169    1.9287 C   0  0  0  0  0  0  0  0  0  0  0  0
   73.4097   -7.5185    3.1679 C   0  0  0  0  0  0  0  0  0  0  0  0
   74.5861   -7.7297    0.9545 C   0  0  0  0  0  0  0  0  0  0  0  0
   75.1648   -7.1776   -0.1853 C   0  0  0  0  0  0  0  0  0  0  0  0
   75.7891   -8.0699   -1.2241 C   0  0  0  0  0  0  0  0  0  0  0  0
   75.1747   -5.7966   -0.3438 C   0  0  0  0  0  0  0  0  0  0  0  0
   73.3749   -2.8564    0.3410 C   0  0  0  0  0  0  0  0  0  0  0  0
   72.1002   -3.5178    0.3423 C   0  0  0  0  0  0  0  0  0  0  0  0
   71.1503   -2.5558    0.2155 C   0  0  0  0  0  0  0  0  0  0  0  0
   71.8352   -1.3004    0.1255 C   0  0  0  0  0  0  0  0  0  0  0  0
   73.1767   -1.5087    0.1984 N   0  0  0  0  0  0  0  0  0  0  0  0
   76.0820   -1.5250    0.2307 N   0  0  0  0  0  0  0  0  0  0  0  0
   74.6739    4.8268   -0.6038 C   0  0  0  0  0  0  0  0  0  0  0  0
   75.2149    5.6720    0.3635 C   0  0  0  0  0  0  0  0  0  0  0  0
   75.2238    7.0501    0.1729 C   0  0  0  0  0  0  0  0  0  0  0  0
   75.8237    7.9548    1.2153 C   0  0  0  0  0  0  0  0  0  0  0  0
   74.6912    7.5801   -0.9981 C   0  0  0  0  0  0  0  0  0  0  0  0
   74.1474    6.7493   -1.9736 C   0  0  0  0  0  0  0  0  0  0  0  0
   73.5918    7.3328   -3.2448 C   0  0  0  0  0  0  0  0  0  0  0  0
   74.1406    5.3738   -1.7704 C   0  0  0  0  0  0  0  0  0  0  0  0
   70.1133    2.5883   -0.2715 H   0  0  0  0  0  0  0  0  0  0  0  0
   72.0127    4.4707   -0.4766 H   0  0  0  0  0  0  0  0  0  0  0  0
   77.3325    4.4187   -0.5823 H   0  0  0  0  0  0  0  0  0  0  0  0
   79.2036    2.5216   -0.2812 H   0  0  0  0  0  0  0  0  0  0  0  0
   79.1628   -2.6985    0.5395 H   0  0  0  0  0  0  0  0  0  0  0  0
   77.2636   -4.5823    0.7347 H   0  0  0  0  0  0  0  0  0  0  0  0
   73.5963   -4.8920    2.5154 H   0  0  0  0  0  0  0  0  0  0  0  0
   73.0947   -8.5465    2.9880 H   0  0  0  0  0  0  0  0  0  0  0  0
   74.1448   -7.5235    3.9760 H   0  0  0  0  0  0  0  0  0  0  0  0
   72.5483   -6.9375    3.4985 H   0  0  0  0  0  0  0  0  0  0  0  0
   74.5772   -8.8074    1.0818 H   0  0  0  0  0  0  0  0  0  0  0  0
   75.8703   -7.5560   -2.1819 H   0  0  0  0  0  0  0  0  0  0  0  0
   75.1995   -8.9773   -1.3591 H   0  0  0  0  0  0  0  0  0  0  0  0
   76.7926   -8.3630   -0.9073 H   0  0  0  0  0  0  0  0  0  0  0  0
   75.6100   -5.3552   -1.2337 H   0  0  0  0  0  0  0  0  0  0  0  0
   71.9526   -4.5830    0.4189 H   0  0  0  0  0  0  0  0  0  0  0  0
   70.0796   -2.6789    0.1776 H   0  0  0  0  0  0  0  0  0  0  0  0
   75.6140    5.2487    1.2788 H   0  0  0  0  0  0  0  0  0  0  0  0
   75.3668    8.9440    1.1818 H   0  0  0  0  0  0  0  0  0  0  0  0
   76.8951    8.0686    1.0347 H   0  0  0  0  0  0  0  0  0  0  0  0
   75.6914    7.5377    2.2139 H   0  0  0  0  0  0  0  0  0  0  0  0
   74.6964    8.6544   -1.1516 H   0  0  0  0  0  0  0  0  0  0  0  0
   73.1420    8.3085   -3.0592 H   0  0  0  0  0  0  0  0  0  0  0  0
   72.8399    6.6738   -3.6792 H   0  0  0  0  0  0  0  0  0  0  0  0
   74.3937    7.4627   -3.9752 H   0  0  0  0  0  0  0  0  0  0  0  0
   73.7304    4.7153   -2.5282 H   0  0  0  0  0  0  0  0  0  0  0  0
  2  3  4  0  0  0  0
  3  4  1  0  0  0  0
  4  5  2  0  0  0  0
  5  6  4  0  0  0  0
  1  7  1  0  0  0  0
  3  7  4  0  0  0  0
  6  7  4  0  0  0  0
  6  8  4  0  0  0  0
  8  9  4  0  0  0  0
  9 10  4  0  0  0  0
 10 11  2  0  0  0  0
  1 12  1  0  0  0  0
  9 12  4  0  0  0  0
 11 13  4  0  0  0  0
 12 13  4  0  0  0  0
 13 14  4  0  0  0  0
 14 15  4  0  0  0  0
 15 16  4  0  0  0  0
 16 17  2  0  0  0  0
 17 18  4  0  0  0  0
 18 19  4  0  0  0  0
 19 20  1  0  0  0  0
 20 21  4  0  0  0  0
 21 22  4  0  0  0  0
 22 23  1  0  0  0  0
 22 24  4  0  0  0  0
 24 25  4  0  0  0  0
 25 26  1  0  0  0  0
 20 27  4  0  0  0  0
 25 27  4  0  0  0  0
 19 28  4  0  0  0  0
 28 29  4  0  0  0  0
 29 30  2  0  0  0  0
  2 31  4  0  0  0  0
 30 31  1  0  0  0  0
  1 32  1  0  0  0  0
 28 32  4  0  0  0  0
 31 32  4  0  0  0  0
  1 33  1  0  0  0  0
 15 33  4  0  0  0  0
 18 33  4  0  0  0  0
  8 34  1  0  0  0  0
 34 35  4  0  0  0  0
 35 36  4  0  0  0  0
 36 37  1  0  0  0  0
 36 38  4  0  0  0  0
 38 39  4  0  0  0  0
 39 40  1  0  0  0  0
 34 41  4  0  0  0  0
 39 41  4  0  0  0  0
  2 42  1  0  0  0  0
  4 43  1  0  0  0  0
  5 44  1  0  0  0  0
 10 45  1  0  0  0  0
 11 46  1  0  0  0  0
 16 47  1  0  0  0  0
 17 48  1  0  0  0  0
 21 49  1  0  0  0  0
 23 50  1  0  0  0  0
 23 51  1  0  0  0  0
 23 52  1  0  0  0  0
 24 53  1  0  0  0  0
 26 54  1  0  0  0  0
 26 55  1  0  0  0  0
 26 56  1  0  0  0  0
 27 57  1  0  0  0  0
 29 58  1  0  0  0  0
 30 59  1  0  0  0  0
 35 60  1  0  0  0  0
 37 61  1  0  0  0  0
 37 62  1  0  0  0  0
 37 63  1  0  0  0  0
 38 64  1  0  0  0  0
 40 65  1  0  0  0  0
 40 66  1  0  0  0  0
 40 67  1  0  0  0  0
 41 68  1  0  0  0  0
 70 71  4  0  0  0  0
 71 72  1  0  0  0  0
 72 73  2  0  0  0  0
 73 74  4  0  0  0  0
 69 75  1  0  0  0  0
 71 75  4  0  0  0  0
 74 75  4  0  0  0  0
 74 76  4  0  0  0  0
 76 77  4  0  0  0  0
 77 78  4  0  0  0  0
 78 79  2  0  0  0  0
 69 80  1  0  0  0  0
 77 80  4  0  0  0  0
 79 81  4  0  0  0  0
 80 81  4  0  0  0  0
 81 82  4  0  0  0  0
 82 83  4  0  0  0  0
 83 84  4  0  0  0  0
 84 85  2  0  0  0  0
 85 86  4  0  0  0  0
 86 87  4  0  0  0  0
 87 88  1  0  0  0  0
 88 89  4  0  0  0  0
 89 90  4  0  0  0  0
 90 91  1  0  0  0  0
 90 92  4  0  0  0  0
 92 93  4  0  0  0  0
 93 94  1  0  0  0  0
 88 95  4  0  0  0  0
 93 95  4  0  0  0  0
 87 96  4  0  0  0  0
 96 97  4  0  0  0  0
 97 98  2  0  0  0  0
 70 99  4  0  0  0  0
 98 99  1  0  0  0  0
 69100  1  0  0  0  0
 96100  4  0  0  0  0
 99100  4  0  0  0  0
 69101  1  0  0  0  0
 83101  4  0  0  0  0
 86101  4  0  0  0  0
 76102  1  0  0  0  0
102103  4  0  0  0  0
103104  4  0  0  0  0
104105  1  0  0  0  0
104106  4  0  0  0  0
106107  4  0  0  0  0
107108  1  0  0  0  0
102109  4  0  0  0  0
107109  4  0  0  0  0
 70110  1  0  0  0  0
 72111  1  0  0  0  0
 73112  1  0  0  0  0
 78113  1  0  0  0  0
 79114  1  0  0  0  0
 84115  1  0  0  0  0
 85116  1  0  0  0  0
 89117  1  0  0  0  0
 91118  1  0  0  0  0
 91119  1  0  0  0  0
 91120  1  0  0  0  0
 92121  1  0  0  0  0
 94122  1  0  0  0  0
 94123  1  0  0  0  0
 94124  1  0  0  0  0
 95125  1  0  0  0  0
 97126  1  0  0  0  0
 98127  1  0  0  0  0
103128  1  0  0  0  0
105129  1  0  0  0  0
105130  1  0  0  0  0
105131  1  0  0  0  0
106132  1  0  0  0  0
108133  1  0  0  0  0
108134  1  0  0  0  0
108135  1  0  0  0  0
109136  1  0  0  0  0
137138  3  0  0  0  0
138139  4  0  0  0  0
 14140  4  0  0  0  0
139140  3  0  0  0  0
137141  4  0  0  0  0
141142  3  0  0  0  0
143144  3  0  0  0  0
144145  4  0  0  0  0
145146  3  0  0  0  0
143147  4  0  0  0  0
147148  3  0  0  0  0
149150  3  0  0  0  0
150151  4  0  0  0  0
151152  3  0  0  0  0
149153  4  0  0  0  0
 82154  4  0  0  0  0
153154  3  0  0  0  0
142156  4  0  0  0  0
156157  4  0  0  0  0
157158  4  0  0  0  0
158159  2  0  0  0  0
159160  4  0  0  0  0
155161  1  0  0  0  0
157161  4  0  0  0  0
160161  4  0  0  0  0
160162  4  0  0  0  0
162163  4  0  0  0  0
163164  4  0  0  0  0
164165  2  0  0  0  0
155166  1  0  0  0  0
163166  4  0  0  0  0
165167  4  0  0  0  0
166167  4  0  0  0  0
146168  4  0  0  0  0
167168  4  0  0  0  0
168169  4  0  0  0  0
169170  4  0  0  0  0
170171  2  0  0  0  0
171172  4  0  0  0  0
172173  4  0  0  0  0
173174  1  0  0  0  0
174175  4  0  0  0  0
175176  4  0  0  0  0
176177  1  0  0  0  0
176178  4  0  0  0  0
178179  4  0  0  0  0
179180  1  0  0  0  0
174181  4  0  0  0  0
179181  4  0  0  0  0
173182  4  0  0  0  0
182183  4  0  0  0  0
183184  2  0  0  0  0
156185  4  0  0  0  0
184185  4  0  0  0  0
155186  1  0  0  0  0
182186  4  0  0  0  0
185186  4  0  0  0  0
155187  1  0  0  0  0
169187  4  0  0  0  0
172187  4  0  0  0  0
162188  1  0  0  0  0
188189  4  0  0  0  0
189190  4  0  0  0  0
190191  1  0  0  0  0
190192  4  0  0  0  0
192193  4  0  0  0  0
193194  1  0  0  0  0
188195  4  0  0  0  0
193195  4  0  0  0  0
158196  1  0  0  0  0
159197  1  0  0  0  0
164198  1  0  0  0  0
165199  1  0  0  0  0
170200  1  0  0  0  0
171201  1  0  0  0  0
175202  1  0  0  0  0
177203  1  0  0  0  0
177204  1  0  0  0  0
177205  1  0  0  0  0
178206  1  0  0  0  0
180207  1  0  0  0  0
180208  1  0  0  0  0
180209  1  0  0  0  0
181210  1  0  0  0  0
183211  1  0  0  0  0
184212  1  0  0  0  0
189213  1  0  0  0  0
191214  1  0  0  0  0
191215  1  0  0  0  0
191216  1  0  0  0  0
192217  1  0  0  0  0
194218  1  0  0  0  0
194219  1  0  0  0  0
194220  1  0  0  0  0
195221  1  0  0  0  0
148223  4  0  0  0  0
223224  4  0  0  0  0
224225  4  0  0  0  0
225226  2  0  0  0  0
226227  4  0  0  0  0
222228  1  0  0  0  0
224228  4  0  0  0  0
227228  4  0  0  0  0
227229  4  0  0  0  0
229230  4  0  0  0  0
230231  4  0  0  0  0
231232  2  0  0  0  0
222233  1  0  0  0  0
230233  4  0  0  0  0
232234  4  0  0  0  0
233234  4  0  0  0  0
152235  4  0  0  0  0
234235  4  0  0  0  0
235236  4  0  0  0  0
236237  4  0  0  0  0
237238  2  0  0  0  0
238239  4  0  0  0  0
239240  4  0  0  0  0
240241  1  0  0  0  0
241242  4  0  0  0  0
242243  4  0  0  0  0
243244  1  0  0  0  0
243245  4  0  0  0  0
245246  4  0  0  0  0
246247  1  0  0  0  0
241248  4  0  0  0  0
246248  4  0  0  0  0
240249  4  0  0  0  0
249250  4  0  0  0  0
250251  2  0  0  0  0
223252  4  0  0  0  0
251252  4  0  0  0  0
222253  1  0  0  0  0
249253  4  0  0  0  0
252253  4  0  0  0  0
222254  1  0  0  0  0
236254  4  0  0  0  0
239254  4  0  0  0  0
229255  1  0  0  0  0
255256  4  0  0  0  0
256257  4  0  0  0  0
257258  1  0  0  0  0
257259  4  0  0  0  0
259260  4  0  0  0  0
260261  1  0  0  0  0
255262  4  0  0  0  0
260262  4  0  0  0  0
225263  1  0  0  0  0
226264  1  0  0  0  0
231265  1  0  0  0  0
232266  1  0  0  0  0
237267  1  0  0  0  0
238268  1  0  0  0  0
242269  1  0  0  0  0
244270  1  0  0  0  0
244271  1  0  0  0  0
244272  1  0  0  0  0
245273  1  0  0  0  0
247274  1  0  0  0  0
247275  1  0  0  0  0
247276  1  0  0  0  0
248277  1  0  0  0  0
250278  1  0  0  0  0
251279  1  0  0  0  0
256280  1  0  0  0  0
258281  1  0  0  0  0
258282  1  0  0  0  0
258283  1  0  0  0  0
259284  1  0  0  0  0
261285  1  0  0  0  0
261286  1  0  0  0  0
261287  1  0  0  0  0
262288  1  0  0  0  0
M  END
