 xtb: 6.5.1 (b24c23e)
          07302208073D

187222  0     0  0            999 V2000
   32.2878   -0.0070   -0.0577 Cu  0  0  0  0  0  0  0  0  0  0  0  0
   28.8832   -0.0356   -0.1377 C   0  0  0  0  0  0  0  0  0  0  0  0
   29.5216   -1.2528   -0.3191 C   0  0  0  0  0  0  0  0  0  0  0  0
   28.8493   -2.5088   -0.4928 C   0  0  0  0  0  0  0  0  0  0  0  0
   29.8100   -3.4546   -0.6337 C   0  0  0  0  0  0  0  0  0  0  0  0
   31.0791   -2.7817   -0.5605 C   0  0  0  0  0  0  0  0  0  0  0  0
   30.8731   -1.4475   -0.3610 N   0  0  0  0  0  0  0  0  0  0  0  0
   32.3268   -3.4042   -0.6520 C   0  0  0  0  0  0  0  0  0  0  0  0
   32.3438   -4.8646   -0.9040 C   0  0  0  0  0  0  0  0  0  0  0  0
   32.9162   -5.7357    0.0280 C   0  0  0  0  0  0  0  0  0  0  0  0
   32.9298   -7.0997   -0.2000 C   0  0  0  0  0  0  0  0  0  0  0  0
   32.3709   -7.5973   -1.3737 C   0  0  0  0  0  0  0  0  0  0  0  0
   32.3836   -9.0286   -1.6191 N   0  0  0  0  0  0  0  0  0  0  0  0
   31.8895   -9.4229   -2.6442 O   0  0  0  0  0  0  0  0  0  0  0  0
   32.8871   -9.7333   -0.7823 O   0  0  0  0  0  0  0  0  0  0  0  0
   31.7995   -6.7472   -2.3162 C   0  0  0  0  0  0  0  0  0  0  0  0
   31.7861   -5.3854   -2.0757 C   0  0  0  0  0  0  0  0  0  0  0  0
   33.5590   -2.7584   -0.5265 C   0  0  0  0  0  0  0  0  0  0  0  0
   34.8384   -3.3890   -0.6905 C   0  0  0  0  0  0  0  0  0  0  0  0
   35.7805   -2.4288   -0.5128 C   0  0  0  0  0  0  0  0  0  0  0  0
   33.7415   -1.4270   -0.2640 N   0  0  0  0  0  0  0  0  0  0  0  0
   35.0845   -1.2057   -0.2468 C   0  0  0  0  0  0  0  0  0  0  0  0
   35.7158    0.0265   -0.0043 C   0  0  0  0  0  0  0  0  0  0  0  0
   35.0537    1.2444    0.2276 C   0  0  0  0  0  0  0  0  0  0  0  0
   35.7172    2.4773    0.5282 C   0  0  0  0  0  0  0  0  0  0  0  0
   34.7512    3.4166    0.6902 C   0  0  0  0  0  0  0  0  0  0  0  0
   33.4901    2.7641    0.4774 C   0  0  0  0  0  0  0  0  0  0  0  0
   33.7067    1.4394    0.2064 N   0  0  0  0  0  0  0  0  0  0  0  0
   32.2418    3.3855    0.5625 C   0  0  0  0  0  0  0  0  0  0  0  0
   32.2193    4.8417    0.8370 C   0  0  0  0  0  0  0  0  0  0  0  0
   31.5958    5.3315    1.9888 C   0  0  0  0  0  0  0  0  0  0  0  0
   31.5700    6.6889    2.2519 C   0  0  0  0  0  0  0  0  0  0  0  0
   32.1690    7.5661    1.3522 C   0  0  0  0  0  0  0  0  0  0  0  0
   32.1411    8.9928    1.6212 N   0  0  0  0  0  0  0  0  0  0  0  0
   31.5872    9.3601    2.6257 O   0  0  0  0  0  0  0  0  0  0  0  0
   32.6729    9.7213    0.8232 O   0  0  0  0  0  0  0  0  0  0  0  0
   32.7933    7.0996    0.1988 C   0  0  0  0  0  0  0  0  0  0  0  0
   32.8177    5.7398   -0.0522 C   0  0  0  0  0  0  0  0  0  0  0  0
   31.0107    2.7425    0.4081 C   0  0  0  0  0  0  0  0  0  0  0  0
   29.7286    3.3942    0.4238 C   0  0  0  0  0  0  0  0  0  0  0  0
   28.7917    2.4347    0.2264 C   0  0  0  0  0  0  0  0  0  0  0  0
   29.4922    1.1910    0.0779 C   0  0  0  0  0  0  0  0  0  0  0  0
   30.8368    1.4071    0.1879 N   0  0  0  0  0  0  0  0  0  0  0  0
   27.7986   -0.0442   -0.1649 H   0  0  0  0  0  0  0  0  0  0  0  0
   27.7785   -2.6372   -0.4934 H   0  0  0  0  0  0  0  0  0  0  0  0
   29.6781   -4.5167   -0.7630 H   0  0  0  0  0  0  0  0  0  0  0  0
   33.3372   -5.3368    0.9435 H   0  0  0  0  0  0  0  0  0  0  0  0
   33.3651   -7.7829    0.5193 H   0  0  0  0  0  0  0  0  0  0  0  0
   31.3753   -7.1593   -3.2239 H   0  0  0  0  0  0  0  0  0  0  0  0
   31.3549   -4.7119   -2.8072 H   0  0  0  0  0  0  0  0  0  0  0  0
   34.9928   -4.4291   -0.9278 H   0  0  0  0  0  0  0  0  0  0  0  0
   36.8529   -2.5288   -0.5626 H   0  0  0  0  0  0  0  0  0  0  0  0
   36.7854    2.5971    0.6121 H   0  0  0  0  0  0  0  0  0  0  0  0
   34.8780    4.4560    0.9459 H   0  0  0  0  0  0  0  0  0  0  0  0
   31.1435    4.6373    2.6874 H   0  0  0  0  0  0  0  0  0  0  0  0
   31.0941    7.0770    3.1444 H   0  0  0  0  0  0  0  0  0  0  0  0
   33.2486    7.8035   -0.4874 H   0  0  0  0  0  0  0  0  0  0  0  0
   33.2890    5.3653   -0.9534 H   0  0  0  0  0  0  0  0  0  0  0  0
   29.5729    4.4529    0.5546 H   0  0  0  0  0  0  0  0  0  0  0  0
   27.7203    2.5460    0.1739 H   0  0  0  0  0  0  0  0  0  0  0  0
   59.2227    0.0544   -0.0191 Cu  0  0  0  0  0  0  0  0  0  0  0  0
   62.6258    0.1119   -0.1269 C   0  0  0  0  0  0  0  0  0  0  0  0
   61.9908    1.3083    0.1692 C   0  0  0  0  0  0  0  0  0  0  0  0
   62.6665    2.5378    0.4712 C   0  0  0  0  0  0  0  0  0  0  0  0
   61.7082    3.4684    0.7021 C   0  0  0  0  0  0  0  0  0  0  0  0
   60.4372    2.8178    0.5292 C   0  0  0  0  0  0  0  0  0  0  0  0
   60.6398    1.5051    0.2159 N   0  0  0  0  0  0  0  0  0  0  0  0
   59.1912    3.4314    0.6814 C   0  0  0  0  0  0  0  0  0  0  0  0
   59.1769    4.8809    0.9904 C   0  0  0  0  0  0  0  0  0  0  0  0
   58.6094    5.3425    2.1820 C   0  0  0  0  0  0  0  0  0  0  0  0
   58.5989    6.6930    2.4792 C   0  0  0  0  0  0  0  0  0  0  0  0
   59.1555    7.5917    1.5736 C   0  0  0  0  0  0  0  0  0  0  0  0
   59.1466    9.0111    1.8802 N   0  0  0  0  0  0  0  0  0  0  0  0
   59.6377    9.7589    1.0740 O   0  0  0  0  0  0  0  0  0  0  0  0
   58.6491    9.3532    2.9223 O   0  0  0  0  0  0  0  0  0  0  0  0
   59.7214    7.1536    0.3796 C   0  0  0  0  0  0  0  0  0  0  0  0
   59.7321    5.8002    0.0950 C   0  0  0  0  0  0  0  0  0  0  0  0
   57.9575    2.7864    0.5649 C   0  0  0  0  0  0  0  0  0  0  0  0
   56.6793    3.4348    0.6482 C   0  0  0  0  0  0  0  0  0  0  0  0
   55.7352    2.4768    0.4690 C   0  0  0  0  0  0  0  0  0  0  0  0
   57.7725    1.4513    0.3244 N   0  0  0  0  0  0  0  0  0  0  0  0
   56.4289    1.2400    0.2689 C   0  0  0  0  0  0  0  0  0  0  0  0
   55.7956    0.0022    0.0623 C   0  0  0  0  0  0  0  0  0  0  0  0
   56.4558   -1.2177   -0.1651 C   0  0  0  0  0  0  0  0  0  0  0  0
   55.7913   -2.4763   -0.3233 C   0  0  0  0  0  0  0  0  0  0  0  0
   56.7549   -3.4076   -0.5372 C   0  0  0  0  0  0  0  0  0  0  0  0
   58.0152   -2.7201   -0.5217 C   0  0  0  0  0  0  0  0  0  0  0  0
   57.8011   -1.3892   -0.2815 N   0  0  0  0  0  0  0  0  0  0  0  0
   59.2609   -3.3262   -0.7019 C   0  0  0  0  0  0  0  0  0  0  0  0
   59.2783   -4.7781   -0.9987 C   0  0  0  0  0  0  0  0  0  0  0  0
   59.9227   -5.6683   -0.1341 C   0  0  0  0  0  0  0  0  0  0  0  0
   59.9443   -7.0237   -0.4080 C   0  0  0  0  0  0  0  0  0  0  0  0
   59.3198   -7.4935   -1.5600 C   0  0  0  0  0  0  0  0  0  0  0  0
   59.3442   -8.9150   -1.8556 N   0  0  0  0  0  0  0  0  0  0  0  0
   59.9179   -9.6361   -1.0801 O   0  0  0  0  0  0  0  0  0  0  0  0
   58.7901   -9.2855   -2.8587 O   0  0  0  0  0  0  0  0  0  0  0  0
   58.6736   -6.6243   -2.4343 C   0  0  0  0  0  0  0  0  0  0  0  0
   58.6537   -5.2714   -2.1484 C   0  0  0  0  0  0  0  0  0  0  0  0
   60.4927   -2.6702   -0.6294 C   0  0  0  0  0  0  0  0  0  0  0  0
   61.7714   -3.2786   -0.8815 C   0  0  0  0  0  0  0  0  0  0  0  0
   62.7101   -2.3140   -0.7197 C   0  0  0  0  0  0  0  0  0  0  0  0
   62.0138   -1.1063   -0.3791 C   0  0  0  0  0  0  0  0  0  0  0  0
   60.6700   -1.3493   -0.3365 N   0  0  0  0  0  0  0  0  0  0  0  0
   63.7100    0.1304   -0.1631 H   0  0  0  0  0  0  0  0  0  0  0  0
   63.7377    2.6566    0.5091 H   0  0  0  0  0  0  0  0  0  0  0  0
   61.8432    4.5019    0.9775 H   0  0  0  0  0  0  0  0  0  0  0  0
   58.1899    4.6315    2.8842 H   0  0  0  0  0  0  0  0  0  0  0  0
   58.1678    7.0593    3.4032 H   0  0  0  0  0  0  0  0  0  0  0  0
   60.1438    7.8739   -0.3106 H   0  0  0  0  0  0  0  0  0  0  0  0
   60.1591    5.4476   -0.8366 H   0  0  0  0  0  0  0  0  0  0  0  0
   56.5271    4.4901    0.8066 H   0  0  0  0  0  0  0  0  0  0  0  0
   54.6629    2.5891    0.4650 H   0  0  0  0  0  0  0  0  0  0  0  0
   54.7243   -2.6205   -0.2675 H   0  0  0  0  0  0  0  0  0  0  0  0
   56.6273   -4.4685   -0.6784 H   0  0  0  0  0  0  0  0  0  0  0  0
   60.3950   -5.2916    0.7657 H   0  0  0  0  0  0  0  0  0  0  0  0
   60.4366   -7.7215    0.2586 H   0  0  0  0  0  0  0  0  0  0  0  0
   58.1982   -7.0148   -3.3261 H   0  0  0  0  0  0  0  0  0  0  0  0
   58.1654   -4.5829   -2.8281 H   0  0  0  0  0  0  0  0  0  0  0  0
   61.9237   -4.3088   -1.1600 H   0  0  0  0  0  0  0  0  0  0  0  0
   63.7799   -2.3964   -0.8279 H   0  0  0  0  0  0  0  0  0  0  0  0
   38.3442    0.0426    0.0106 C   0  0  0  0  0  0  0  0  0  0  0  0
   37.1225    0.0398    0.0076 C   0  0  0  0  0  0  0  0  0  0  0  0
   39.6942    0.0432    0.0118 C   0  0  0  0  0  0  0  0  0  0  0  0
   40.9160    0.0385    0.0098 C   0  0  0  0  0  0  0  0  0  0  0  0
   51.8177   -0.0238    0.0859 C   0  0  0  0  0  0  0  0  0  0  0  0
   50.5959   -0.0219    0.0786 C   0  0  0  0  0  0  0  0  0  0  0  0
   53.1676   -0.0213    0.0858 C   0  0  0  0  0  0  0  0  0  0  0  0
   54.3893   -0.0153    0.0804 C   0  0  0  0  0  0  0  0  0  0  0  0
   45.7560    0.0074    0.0238 Cu  0  0  0  0  0  0  0  0  0  0  0  0
   42.3221    0.0299    0.0099 C   0  0  0  0  0  0  0  0  0  0  0  0
   42.9610   -1.2210    0.0779 C   0  0  0  0  0  0  0  0  0  0  0  0
   42.2739   -2.4728    0.1888 C   0  0  0  0  0  0  0  0  0  0  0  0
   43.2226   -3.4431    0.2132 C   0  0  0  0  0  0  0  0  0  0  0  0
   44.4960   -2.7881    0.1097 C   0  0  0  0  0  0  0  0  0  0  0  0
   44.3039   -1.4348    0.0380 N   0  0  0  0  0  0  0  0  0  0  0  0
   45.7336   -3.4364    0.1100 C   0  0  0  0  0  0  0  0  0  0  0  0
   45.7235   -4.9184    0.1432 C   0  0  0  0  0  0  0  0  0  0  0  0
   46.3082   -5.6048    1.2118 C   0  0  0  0  0  0  0  0  0  0  0  0
   46.2996   -6.9872    1.2487 C   0  0  0  0  0  0  0  0  0  0  0  0
   45.7060   -7.6904    0.2042 C   0  0  0  0  0  0  0  0  0  0  0  0
   45.6970   -9.1423    0.2363 N   0  0  0  0  0  0  0  0  0  0  0  0
   45.1732   -9.7170   -0.6832 O   0  0  0  0  0  0  0  0  0  0  0  0
   46.2138   -9.6822    1.1807 O   0  0  0  0  0  0  0  0  0  0  0  0
   45.1208   -7.0265   -0.8702 C   0  0  0  0  0  0  0  0  0  0  0  0
   45.1296   -5.6437   -0.8942 C   0  0  0  0  0  0  0  0  0  0  0  0
   46.9798   -2.8054    0.0838 C   0  0  0  0  0  0  0  0  0  0  0  0
   48.2451   -3.4810    0.0203 C   0  0  0  0  0  0  0  0  0  0  0  0
   49.2064   -2.5231    0.0082 C   0  0  0  0  0  0  0  0  0  0  0  0
   47.1893   -1.4529    0.0925 N   0  0  0  0  0  0  0  0  0  0  0  0
   48.5352   -1.2587    0.0529 C   0  0  0  0  0  0  0  0  0  0  0  0
   49.1900   -0.0144    0.0637 C   0  0  0  0  0  0  0  0  0  0  0  0
   48.5506    1.2380    0.0530 C   0  0  0  0  0  0  0  0  0  0  0  0
   49.2362    2.4946    0.0995 C   0  0  0  0  0  0  0  0  0  0  0  0
   48.2879    3.4640    0.0458 C   0  0  0  0  0  0  0  0  0  0  0  0
   47.0162    2.8032   -0.0405 C   0  0  0  0  0  0  0  0  0  0  0  0
   47.2086    1.4484   -0.0233 N   0  0  0  0  0  0  0  0  0  0  0  0
   45.7794    3.4500   -0.1066 C   0  0  0  0  0  0  0  0  0  0  0  0
   45.7920    4.9302   -0.1836 C   0  0  0  0  0  0  0  0  0  0  0  0
   46.4135    5.5722   -1.2592 C   0  0  0  0  0  0  0  0  0  0  0  0
   46.4244    6.9524   -1.3438 C   0  0  0  0  0  0  0  0  0  0  0  0
   45.8126    7.6986   -0.3405 C   0  0  0  0  0  0  0  0  0  0  0  0
   45.8213    9.1484   -0.4243 N   0  0  0  0  0  0  0  0  0  0  0  0
   46.3704    9.6486   -1.3723 O   0  0  0  0  0  0  0  0  0  0  0  0
   45.2783    9.7612    0.4588 O   0  0  0  0  0  0  0  0  0  0  0  0
   45.1923    7.0795    0.7409 C   0  0  0  0  0  0  0  0  0  0  0  0
   45.1827    5.6984    0.8132 C   0  0  0  0  0  0  0  0  0  0  0  0
   44.5332    2.8183   -0.1110 C   0  0  0  0  0  0  0  0  0  0  0  0
   43.2692    3.4873   -0.2379 C   0  0  0  0  0  0  0  0  0  0  0  0
   42.3077    2.5303   -0.2000 C   0  0  0  0  0  0  0  0  0  0  0  0
   42.9777    1.2718   -0.0634 C   0  0  0  0  0  0  0  0  0  0  0  0
   44.3229    1.4690   -0.0167 N   0  0  0  0  0  0  0  0  0  0  0  0
   41.2032   -2.5850    0.2477 H   0  0  0  0  0  0  0  0  0  0  0  0
   43.0765   -4.5067    0.3086 H   0  0  0  0  0  0  0  0  0  0  0  0
   46.7569   -5.0454    2.0244 H   0  0  0  0  0  0  0  0  0  0  0  0
   46.7445   -7.5278    2.0754 H   0  0  0  0  0  0  0  0  0  0  0  0
   44.6690   -7.5972   -1.6725 H   0  0  0  0  0  0  0  0  0  0  0  0
   44.6874   -5.1150   -1.7306 H   0  0  0  0  0  0  0  0  0  0  0  0
   48.3779   -4.5498   -0.0246 H   0  0  0  0  0  0  0  0  0  0  0  0
   50.2760   -2.6516   -0.0361 H   0  0  0  0  0  0  0  0  0  0  0  0
   50.3057    2.6107    0.1708 H   0  0  0  0  0  0  0  0  0  0  0  0
   48.4330    4.5316    0.0784 H   0  0  0  0  0  0  0  0  0  0  0  0
   46.8755    4.9794   -2.0401 H   0  0  0  0  0  0  0  0  0  0  0  0
   46.8975    7.4583   -2.1769 H   0  0  0  0  0  0  0  0  0  0  0  0
   44.7275    7.6833    1.5110 H   0  0  0  0  0  0  0  0  0  0  0  0
   44.7136    5.2049    1.6564 H   0  0  0  0  0  0  0  0  0  0  0  0
   43.1371    4.5506   -0.3561 H   0  0  0  0  0  0  0  0  0  0  0  0
   41.2390    2.6550   -0.2689 H   0  0  0  0  0  0  0  0  0  0  0  0
  2  3  4  0  0  0  0
  3  4  1  0  0  0  0
  4  5  2  0  0  0  0
  5  6  4  0  0  0  0
  1  7  1  0  0  0  0
  3  7  4  0  0  0  0
  6  7  4  0  0  0  0
  6  8  4  0  0  0  0
  8  9  1  0  0  0  0
  9 10  4  0  0  0  0
 10 11  4  0  0  0  0
 11 12  4  0  0  0  0
 12 13  1  0  0  0  0
 13 14  2  0  0  0  0
 13 15  2  0  0  0  0
 14 15  1  0  0  0  0
 12 16  4  0  0  0  0
  9 17  4  0  0  0  0
 16 17  4  0  0  0  0
  8 18  4  0  0  0  0
 18 19  4  0  0  0  0
 19 20  2  0  0  0  0
  1 21  1  0  0  0  0
 18 21  4  0  0  0  0
 20 22  4  0  0  0  0
 21 22  4  0  0  0  0
 22 23  4  0  0  0  0
 23 24  4  0  0  0  0
 24 25  4  0  0  0  0
 25 26  2  0  0  0  0
 26 27  4  0  0  0  0
  1 28  1  0  0  0  0
 24 28  4  0  0  0  0
 27 28  4  0  0  0  0
 27 29  4  0  0  0  0
 29 30  1  0  0  0  0
 30 31  4  0  0  0  0
 31 32  4  0  0  0  0
 32 33  4  0  0  0  0
 33 34  1  0  0  0  0
 34 35  2  0  0  0  0
 34 36  2  0  0  0  0
 35 36  1  0  0  0  0
 33 37  4  0  0  0  0
 30 38  4  0  0  0  0
 37 38  4  0  0  0  0
 29 39  4  0  0  0  0
 39 40  4  0  0  0  0
 40 41  2  0  0  0  0
  2 42  4  0  0  0  0
 41 42  1  0  0  0  0
  1 43  1  0  0  0  0
 39 43  4  0  0  0  0
 42 43  4  0  0  0  0
  2 44  1  0  0  0  0
  4 45  1  0  0  0  0
  5 46  1  0  0  0  0
 10 47  1  0  0  0  0
 11 48  1  0  0  0  0
 16 49  1  0  0  0  0
 17 50  1  0  0  0  0
 19 51  1  0  0  0  0
 20 52  1  0  0  0  0
 25 53  1  0  0  0  0
 26 54  1  0  0  0  0
 31 55  1  0  0  0  0
 32 56  1  0  0  0  0
 37 57  1  0  0  0  0
 38 58  1  0  0  0  0
 40 59  1  0  0  0  0
 41 60  1  0  0  0  0
 62 63  4  0  0  0  0
 63 64  1  0  0  0  0
 64 65  2  0  0  0  0
 65 66  4  0  0  0  0
 61 67  1  0  0  0  0
 63 67  4  0  0  0  0
 66 67  4  0  0  0  0
 66 68  4  0  0  0  0
 68 69  1  0  0  0  0
 69 70  4  0  0  0  0
 70 71  4  0  0  0  0
 71 72  4  0  0  0  0
 72 73  1  0  0  0  0
 73 74  2  0  0  0  0
 73 75  2  0  0  0  0
 74 75  1  0  0  0  0
 72 76  4  0  0  0  0
 69 77  4  0  0  0  0
 76 77  4  0  0  0  0
 68 78  4  0  0  0  0
 78 79  4  0  0  0  0
 79 80  2  0  0  0  0
 61 81  1  0  0  0  0
 78 81  4  0  0  0  0
 80 82  4  0  0  0  0
 81 82  4  0  0  0  0
 82 83  4  0  0  0  0
 83 84  4  0  0  0  0
 84 85  4  0  0  0  0
 85 86  2  0  0  0  0
 86 87  4  0  0  0  0
 61 88  1  0  0  0  0
 84 88  4  0  0  0  0
 87 88  4  0  0  0  0
 87 89  4  0  0  0  0
 89 90  1  0  0  0  0
 90 91  4  0  0  0  0
 91 92  4  0  0  0  0
 92 93  4  0  0  0  0
 93 94  1  0  0  0  0
 94 95  2  0  0  0  0
 94 96  2  0  0  0  0
 95 96  1  0  0  0  0
 93 97  4  0  0  0  0
 90 98  4  0  0  0  0
 97 98  4  0  0  0  0
 89 99  4  0  0  0  0
 99100  4  0  0  0  0
100101  2  0  0  0  0
 62102  4  0  0  0  0
101102  1  0  0  0  0
 61103  1  0  0  0  0
 99103  4  0  0  0  0
102103  4  0  0  0  0
 62104  1  0  0  0  0
 64105  1  0  0  0  0
 65106  1  0  0  0  0
 70107  1  0  0  0  0
 71108  1  0  0  0  0
 76109  1  0  0  0  0
 77110  1  0  0  0  0
 79111  1  0  0  0  0
 80112  1  0  0  0  0
 85113  1  0  0  0  0
 86114  1  0  0  0  0
 91115  1  0  0  0  0
 92116  1  0  0  0  0
 97117  1  0  0  0  0
 98118  1  0  0  0  0
100119  1  0  0  0  0
101120  1  0  0  0  0
 23122  4  0  0  0  0
121122  3  0  0  0  0
121123  4  0  0  0  0
123124  3  0  0  0  0
125126  3  0  0  0  0
125127  4  0  0  0  0
 83128  4  0  0  0  0
127128  3  0  0  0  0
124130  4  0  0  0  0
130131  4  0  0  0  0
131132  4  0  0  0  0
132133  2  0  0  0  0
133134  4  0  0  0  0
129135  1  0  0  0  0
131135  4  0  0  0  0
134135  4  0  0  0  0
134136  4  0  0  0  0
136137  1  0  0  0  0
137138  4  0  0  0  0
138139  4  0  0  0  0
139140  4  0  0  0  0
140141  1  0  0  0  0
141142  2  0  0  0  0
141143  2  0  0  0  0
142143  1  0  0  0  0
140144  4  0  0  0  0
137145  4  0  0  0  0
144145  4  0  0  0  0
136146  4  0  0  0  0
146147  4  0  0  0  0
147148  2  0  0  0  0
129149  1  0  0  0  0
146149  4  0  0  0  0
148150  4  0  0  0  0
149150  4  0  0  0  0
126151  4  0  0  0  0
150151  4  0  0  0  0
151152  4  0  0  0  0
152153  4  0  0  0  0
153154  2  0  0  0  0
154155  4  0  0  0  0
129156  1  0  0  0  0
152156  4  0  0  0  0
155156  4  0  0  0  0
155157  4  0  0  0  0
157158  1  0  0  0  0
158159  4  0  0  0  0
159160  4  0  0  0  0
160161  4  0  0  0  0
161162  1  0  0  0  0
162163  2  0  0  0  0
162164  2  0  0  0  0
163164  1  0  0  0  0
161165  4  0  0  0  0
158166  4  0  0  0  0
165166  4  0  0  0  0
157167  4  0  0  0  0
167168  4  0  0  0  0
168169  2  0  0  0  0
130170  4  0  0  0  0
169170  4  0  0  0  0
129171  1  0  0  0  0
167171  4  0  0  0  0
170171  4  0  0  0  0
132172  1  0  0  0  0
133173  1  0  0  0  0
138174  1  0  0  0  0
139175  1  0  0  0  0
144176  1  0  0  0  0
145177  1  0  0  0  0
147178  1  0  0  0  0
148179  1  0  0  0  0
153180  1  0  0  0  0
154181  1  0  0  0  0
159182  1  0  0  0  0
160183  1  0  0  0  0
165184  1  0  0  0  0
166185  1  0  0  0  0
168186  1  0  0  0  0
169187  1  0  0  0  0
M  END
