 xtb: 6.5.1 (b24c23e)
          07302209433D

250289  0     0  0            999 V2000
   47.4643    0.0249    0.0361 Zn  0  0  0  0  0  0  0  0  0  0  0  0
   44.0562    0.0964    0.0921 C   0  0  0  0  0  0  0  0  0  0  0  0
   44.6898    1.2192   -0.4272 C   0  0  0  0  0  0  0  0  0  0  0  0
   44.0196    2.3688   -0.9662 C   0  0  0  0  0  0  0  0  0  0  0  0
   44.9817    3.2363   -1.3698 C   0  0  0  0  0  0  0  0  0  0  0  0
   46.2527    2.6324   -1.0701 C   0  0  0  0  0  0  0  0  0  0  0  0
   46.0399    1.4069   -0.5088 N   0  0  0  0  0  0  0  0  0  0  0  0
   47.5057    3.2015   -1.3324 C   0  0  0  0  0  0  0  0  0  0  0  0
   47.5248    4.5603   -1.9272 C   0  0  0  0  0  0  0  0  0  0  0  0
   48.1130    4.7820   -3.1748 C   0  0  0  0  0  0  0  0  0  0  0  0
   48.1302    6.0461   -3.7376 C   0  0  0  0  0  0  0  0  0  0  0  0
   47.5687    7.1260   -3.0520 C   0  0  0  0  0  0  0  0  0  0  0  0
   47.5490    8.3853   -3.6291 N   0  0  0  0  0  0  0  0  0  0  0  0
   46.9749    6.9127   -1.8057 C   0  0  0  0  0  0  0  0  0  0  0  0
   46.9542    5.6434   -1.2545 C   0  0  0  0  0  0  0  0  0  0  0  0
   48.7419    2.5945   -1.0815 C   0  0  0  0  0  0  0  0  0  0  0  0
   50.0241    3.2070   -1.2924 C   0  0  0  0  0  0  0  0  0  0  0  0
   50.9668    2.3025   -0.9219 C   0  0  0  0  0  0  0  0  0  0  0  0
   48.9305    1.3365   -0.5731 N   0  0  0  0  0  0  0  0  0  0  0  0
   50.2714    1.1328   -0.4731 C   0  0  0  0  0  0  0  0  0  0  0  0
   50.8975   -0.0420   -0.0085 C   0  0  0  0  0  0  0  0  0  0  0  0
   50.2385   -1.1940    0.4671 C   0  0  0  0  0  0  0  0  0  0  0  0
   50.8992   -2.3926    0.8912 C   0  0  0  0  0  0  0  0  0  0  0  0
   49.9318   -3.2622    1.2814 C   0  0  0  0  0  0  0  0  0  0  0  0
   48.6697   -2.5982    1.1097 C   0  0  0  0  0  0  0  0  0  0  0  0
   48.8938   -1.3459    0.6017 N   0  0  0  0  0  0  0  0  0  0  0  0
   47.4177   -3.1550    1.3968 C   0  0  0  0  0  0  0  0  0  0  0  0
   47.3977   -4.5167    1.9844 C   0  0  0  0  0  0  0  0  0  0  0  0
   48.0176   -4.7727    3.2099 C   0  0  0  0  0  0  0  0  0  0  0  0
   47.9965   -6.0397    3.7658 C   0  0  0  0  0  0  0  0  0  0  0  0
   47.3630   -7.0888    3.0953 C   0  0  0  0  0  0  0  0  0  0  0  0
   47.3049   -8.3493    3.6672 N   0  0  0  0  0  0  0  0  0  0  0  0
   46.7373   -6.8411    1.8711 C   0  0  0  0  0  0  0  0  0  0  0  0
   46.7557   -5.5688    1.3268 C   0  0  0  0  0  0  0  0  0  0  0  0
   46.1818   -2.5323    1.1779 C   0  0  0  0  0  0  0  0  0  0  0  0
   44.8973   -3.0821    1.5211 C   0  0  0  0  0  0  0  0  0  0  0  0
   43.9597   -2.1736    1.1516 C   0  0  0  0  0  0  0  0  0  0  0  0
   44.6592   -1.0527    0.5901 C   0  0  0  0  0  0  0  0  0  0  0  0
   46.0022   -1.2976    0.6253 N   0  0  0  0  0  0  0  0  0  0  0  0
   42.9708    0.1193    0.1106 H   0  0  0  0  0  0  0  0  0  0  0  0
   42.9487    2.4831   -1.0317 H   0  0  0  0  0  0  0  0  0  0  0  0
   44.8462    4.1965   -1.8413 H   0  0  0  0  0  0  0  0  0  0  0  0
   48.5433    3.9472   -3.7172 H   0  0  0  0  0  0  0  0  0  0  0  0
   48.5802    6.2030   -4.7118 H   0  0  0  0  0  0  0  0  0  0  0  0
   48.2590    8.5426   -4.3266 H   0  0  0  0  0  0  0  0  0  0  0  0
   47.4448    9.1476   -2.9784 H   0  0  0  0  0  0  0  0  0  0  0  0
   46.5342    7.7467   -1.2702 H   0  0  0  0  0  0  0  0  0  0  0  0
   46.5077    5.4898   -0.2780 H   0  0  0  0  0  0  0  0  0  0  0  0
   50.1823    4.2074   -1.6621 H   0  0  0  0  0  0  0  0  0  0  0  0
   52.0393    2.4141   -0.9412 H   0  0  0  0  0  0  0  0  0  0  0  0
   51.9667   -2.5461    0.8804 H   0  0  0  0  0  0  0  0  0  0  0  0
   50.0605   -4.2707    1.6404 H   0  0  0  0  0  0  0  0  0  0  0  0
   48.5035   -3.9616    3.7413 H   0  0  0  0  0  0  0  0  0  0  0  0
   48.4720   -6.2229    4.7233 H   0  0  0  0  0  0  0  0  0  0  0  0
   48.0303   -8.5433    4.3391 H   0  0  0  0  0  0  0  0  0  0  0  0
   47.1431   -9.1020    3.0171 H   0  0  0  0  0  0  0  0  0  0  0  0
   46.2409   -7.6508    1.3474 H   0  0  0  0  0  0  0  0  0  0  0  0
   46.2834   -5.3891    0.3671 H   0  0  0  0  0  0  0  0  0  0  0  0
   44.7374   -4.0364    1.9971 H   0  0  0  0  0  0  0  0  0  0  0  0
   42.8879   -2.2423    1.2543 H   0  0  0  0  0  0  0  0  0  0  0  0
   87.8988   -0.0242    0.0551 Zn  0  0  0  0  0  0  0  0  0  0  0  0
   91.3067   -0.0128    0.1530 C   0  0  0  0  0  0  0  0  0  0  0  0
   90.6731   -1.0692    0.7968 C   0  0  0  0  0  0  0  0  0  0  0  0
   91.3435   -2.1538    1.4566 C   0  0  0  0  0  0  0  0  0  0  0  0
   90.3816   -2.9744    1.9489 C   0  0  0  0  0  0  0  0  0  0  0  0
   89.1104   -2.3940    1.6064 C   0  0  0  0  0  0  0  0  0  0  0  0
   89.3230   -1.2454    0.9011 N   0  0  0  0  0  0  0  0  0  0  0  0
   87.8577   -2.9345    1.9246 C   0  0  0  0  0  0  0  0  0  0  0  0
   87.8395   -4.1833    2.7251 C   0  0  0  0  0  0  0  0  0  0  0  0
   87.2629   -5.3487    2.2145 C   0  0  0  0  0  0  0  0  0  0  0  0
   87.2470   -6.5171    2.9558 C   0  0  0  0  0  0  0  0  0  0  0  0
   87.7982   -6.5404    4.2393 C   0  0  0  0  0  0  0  0  0  0  0  0
   87.8197   -7.7178    4.9690 N   0  0  0  0  0  0  0  0  0  0  0  0
   88.3805   -5.3805    4.7561 C   0  0  0  0  0  0  0  0  0  0  0  0
   88.4000   -4.2190    4.0042 C   0  0  0  0  0  0  0  0  0  0  0  0
   86.6215   -2.3938    1.5516 C   0  0  0  0  0  0  0  0  0  0  0  0
   85.3391   -2.9175    1.9319 C   0  0  0  0  0  0  0  0  0  0  0  0
   84.3966   -2.1060    1.3869 C   0  0  0  0  0  0  0  0  0  0  0  0
   86.4332   -1.2676    0.7948 N   0  0  0  0  0  0  0  0  0  0  0  0
   85.0922   -1.0740    0.6767 C   0  0  0  0  0  0  0  0  0  0  0  0
   84.4661   -0.0241   -0.0256 C   0  0  0  0  0  0  0  0  0  0  0  0
   85.1243    1.0206   -0.7057 C   0  0  0  0  0  0  0  0  0  0  0  0
   84.4629    2.0463   -1.4563 C   0  0  0  0  0  0  0  0  0  0  0  0
   85.4301    2.8534   -1.9634 C   0  0  0  0  0  0  0  0  0  0  0  0
   86.6931    2.3351   -1.5163 C   0  0  0  0  0  0  0  0  0  0  0  0
   86.4693    1.2137   -0.7619 N   0  0  0  0  0  0  0  0  0  0  0  0
   87.9454    2.8795   -1.8248 C   0  0  0  0  0  0  0  0  0  0  0  0
   87.9668    4.1232   -2.6328 C   0  0  0  0  0  0  0  0  0  0  0  0
   87.3542    5.2884   -2.1653 C   0  0  0  0  0  0  0  0  0  0  0  0
   87.3769    6.4523   -2.9135 C   0  0  0  0  0  0  0  0  0  0  0  0
   88.0047    6.4712   -4.1613 C   0  0  0  0  0  0  0  0  0  0  0  0
   88.0645    7.6446   -4.8954 N   0  0  0  0  0  0  0  0  0  0  0  0
   88.6234    5.3117   -4.6348 C   0  0  0  0  0  0  0  0  0  0  0  0
   88.6035    4.1547   -3.8758 C   0  0  0  0  0  0  0  0  0  0  0  0
   89.1813    2.3486   -1.4324 C   0  0  0  0  0  0  0  0  0  0  0  0
   90.4659    2.9386   -1.7003 C   0  0  0  0  0  0  0  0  0  0  0  0
   91.4034    2.1272   -1.1492 C   0  0  0  0  0  0  0  0  0  0  0  0
   90.7037    1.0382   -0.5280 C   0  0  0  0  0  0  0  0  0  0  0  0
   89.3608    1.2034   -0.7125 N   0  0  0  0  0  0  0  0  0  0  0  0
   92.3920   -0.0083    0.1851 H   0  0  0  0  0  0  0  0  0  0  0  0
   92.4145   -2.2684    1.5207 H   0  0  0  0  0  0  0  0  0  0  0  0
   90.5173   -3.8995    2.4862 H   0  0  0  0  0  0  0  0  0  0  0  0
   86.8406   -5.3412    1.2155 H   0  0  0  0  0  0  0  0  0  0  0  0
   86.8060   -7.4182    2.5436 H   0  0  0  0  0  0  0  0  0  0  0  0
   87.1158   -8.3902    4.7086 H   0  0  0  0  0  0  0  0  0  0  0  0
   87.9154   -7.5969    5.9647 H   0  0  0  0  0  0  0  0  0  0  0  0
   88.8132   -5.3934    5.7507 H   0  0  0  0  0  0  0  0  0  0  0  0
   88.8375   -3.3178    4.4202 H   0  0  0  0  0  0  0  0  0  0  0  0
   85.1804   -3.7863    2.5503 H   0  0  0  0  0  0  0  0  0  0  0  0
   83.3239   -2.1885    1.4625 H   0  0  0  0  0  0  0  0  0  0  0  0
   83.3949    2.1266   -1.5842 H   0  0  0  0  0  0  0  0  0  0  0  0
   85.3008    3.7162   -2.5970 H   0  0  0  0  0  0  0  0  0  0  0  0
   86.8729    5.2847   -1.1933 H   0  0  0  0  0  0  0  0  0  0  0  0
   86.9070    7.3533   -2.5344 H   0  0  0  0  0  0  0  0  0  0  0  0
   87.3427    8.3146   -4.6823 H   0  0  0  0  0  0  0  0  0  0  0  0
   88.2211    7.5185   -5.8828 H   0  0  0  0  0  0  0  0  0  0  0  0
   89.1157    5.3212   -5.6013 H   0  0  0  0  0  0  0  0  0  0  0  0
   89.0704    3.2538   -4.2589 H   0  0  0  0  0  0  0  0  0  0  0  0
   90.6259    3.8639   -2.2304 H   0  0  0  0  0  0  0  0  0  0  0  0
   92.4753    2.2506   -1.1493 H   0  0  0  0  0  0  0  0  0  0  0  0
   53.5251   -0.0769   -0.0221 C   0  0  0  0  0  0  0  0  0  0  0  0
   52.3026   -0.0645   -0.0183 C   0  0  0  0  0  0  0  0  0  0  0  0
   54.8742   -0.0853   -0.0246 C   0  0  0  0  0  0  0  0  0  0  0  0
   56.0969   -0.0867   -0.0234 C   0  0  0  0  0  0  0  0  0  0  0  0
   67.0073   -0.0307    0.0278 C   0  0  0  0  0  0  0  0  0  0  0  0
   65.7844   -0.0329    0.0337 C   0  0  0  0  0  0  0  0  0  0  0  0
   68.3559   -0.0266    0.0204 C   0  0  0  0  0  0  0  0  0  0  0  0
   69.5788   -0.0244    0.0139 C   0  0  0  0  0  0  0  0  0  0  0  0
   80.4888   -0.0098   -0.0474 C   0  0  0  0  0  0  0  0  0  0  0  0
   79.2663   -0.0087   -0.0369 C   0  0  0  0  0  0  0  0  0  0  0  0
   81.8382   -0.0135   -0.0491 C   0  0  0  0  0  0  0  0  0  0  0  0
   83.0606   -0.0180   -0.0453 C   0  0  0  0  0  0  0  0  0  0  0  0
   60.9409   -0.0575    0.0162 Zn  0  0  0  0  0  0  0  0  0  0  0  0
   57.5016   -0.0830   -0.0238 C   0  0  0  0  0  0  0  0  0  0  0  0
   58.1406    1.1229   -0.3785 C   0  0  0  0  0  0  0  0  0  0  0  0
   57.4571    2.3383   -0.7060 C   0  0  0  0  0  0  0  0  0  0  0  0
   58.4094    3.2731   -0.9596 C   0  0  0  0  0  0  0  0  0  0  0  0
   59.6845    2.6331   -0.7999 C   0  0  0  0  0  0  0  0  0  0  0  0
   59.4837    1.3269   -0.4394 N   0  0  0  0  0  0  0  0  0  0  0  0
   60.9277    3.2573   -0.9568 C   0  0  0  0  0  0  0  0  0  0  0  0
   60.9228    4.6835   -1.3661 C   0  0  0  0  0  0  0  0  0  0  0  0
   60.3630    5.0752   -2.5844 C   0  0  0  0  0  0  0  0  0  0  0  0
   60.3603    6.4043   -2.9697 C   0  0  0  0  0  0  0  0  0  0  0  0
   60.9076    7.3784   -2.1310 C   0  0  0  0  0  0  0  0  0  0  0  0
   60.9422    8.7043   -2.5301 N   0  0  0  0  0  0  0  0  0  0  0  0
   61.4732    6.9947   -0.9125 C   0  0  0  0  0  0  0  0  0  0  0  0
   61.4802    5.6622   -0.5397 C   0  0  0  0  0  0  0  0  0  0  0  0
   62.1756    2.6547   -0.7599 C   0  0  0  0  0  0  0  0  0  0  0  0
   63.4455    3.2876   -0.9795 C   0  0  0  0  0  0  0  0  0  0  0  0
   64.4052    2.3688   -0.6975 C   0  0  0  0  0  0  0  0  0  0  0  0
   62.3870    1.3614   -0.3610 N   0  0  0  0  0  0  0  0  0  0  0  0
   63.7315    1.1650   -0.3118 C   0  0  0  0  0  0  0  0  0  0  0  0
   64.3801   -0.0359    0.0430 C   0  0  0  0  0  0  0  0  0  0  0  0
   63.7409   -1.2427    0.3946 C   0  0  0  0  0  0  0  0  0  0  0  0
   64.4240   -2.4601    0.7157 C   0  0  0  0  0  0  0  0  0  0  0  0
   63.4715   -3.3906    0.9834 C   0  0  0  0  0  0  0  0  0  0  0  0
   62.1968   -2.7466    0.8366 C   0  0  0  0  0  0  0  0  0  0  0  0
   62.3979   -1.4423    0.4692 N   0  0  0  0  0  0  0  0  0  0  0  0
   60.9536   -3.3655    1.0128 C   0  0  0  0  0  0  0  0  0  0  0  0
   60.9603   -4.7836    1.4488 C   0  0  0  0  0  0  0  0  0  0  0  0
   60.3905   -5.7789    0.6514 C   0  0  0  0  0  0  0  0  0  0  0  0
   60.3981   -7.1027    1.0545 C   0  0  0  0  0  0  0  0  0  0  0  0
   60.9664   -7.4590    2.2800 C   0  0  0  0  0  0  0  0  0  0  0  0
   61.0109   -8.7875    2.6692 N   0  0  0  0  0  0  0  0  0  0  0  0
   61.5423   -6.4704    3.0817 C   0  0  0  0  0  0  0  0  0  0  0  0
   61.5386   -5.1505    2.6664 C   0  0  0  0  0  0  0  0  0  0  0  0
   59.7053   -2.7632    0.8152 C   0  0  0  0  0  0  0  0  0  0  0  0
   58.4353   -3.3919    1.0450 C   0  0  0  0  0  0  0  0  0  0  0  0
   57.4757   -2.4771    0.7493 C   0  0  0  0  0  0  0  0  0  0  0  0
   58.1497   -1.2790    0.3474 C   0  0  0  0  0  0  0  0  0  0  0  0
   59.4943   -1.4752    0.3996 N   0  0  0  0  0  0  0  0  0  0  0  0
   56.3855    2.4578   -0.7279 H   0  0  0  0  0  0  0  0  0  0  0  0
   58.2609    4.3093   -1.2178 H   0  0  0  0  0  0  0  0  0  0  0  0
   59.9438    4.3239   -3.2449 H   0  0  0  0  0  0  0  0  0  0  0  0
   59.9326    6.6945   -3.9233 H   0  0  0  0  0  0  0  0  0  0  0  0
   60.2502    8.9589   -3.2168 H   0  0  0  0  0  0  0  0  0  0  0  0
   61.0341    9.3707   -1.7799 H   0  0  0  0  0  0  0  0  0  0  0  0
   61.9030    7.7460   -0.2588 H   0  0  0  0  0  0  0  0  0  0  0  0
   61.9057    5.3742    0.4155 H   0  0  0  0  0  0  0  0  0  0  0  0
   63.5853    4.3004   -1.3216 H   0  0  0  0  0  0  0  0  0  0  0  0
   65.4758    2.4872   -0.7515 H   0  0  0  0  0  0  0  0  0  0  0  0
   65.4954   -2.5830    0.7252 H   0  0  0  0  0  0  0  0  0  0  0  0
   63.6193   -4.4269    1.2417 H   0  0  0  0  0  0  0  0  0  0  0  0
   59.9554   -5.5118   -0.3056 H   0  0  0  0  0  0  0  0  0  0  0  0
   59.9624   -7.8678    0.4213 H   0  0  0  0  0  0  0  0  0  0  0  0
   61.1200   -8.9358    3.6598 H   0  0  0  0  0  0  0  0  0  0  0  0
   60.3131   -9.3776    2.2449 H   0  0  0  0  0  0  0  0  0  0  0  0
   61.9886   -6.7414    4.0324 H   0  0  0  0  0  0  0  0  0  0  0  0
   61.9721   -4.3864    3.3024 H   0  0  0  0  0  0  0  0  0  0  0  0
   58.2949   -4.3996    1.4018 H   0  0  0  0  0  0  0  0  0  0  0  0
   56.4050   -2.5945    0.8048 H   0  0  0  0  0  0  0  0  0  0  0  0
   74.4217   -0.0128   -0.0004 Zn  0  0  0  0  0  0  0  0  0  0  0  0
   70.9831   -0.0235    0.0004 C   0  0  0  0  0  0  0  0  0  0  0  0
   71.6229    1.1828   -0.3522 C   0  0  0  0  0  0  0  0  0  0  0  0
   70.9408    2.4046   -0.6583 C   0  0  0  0  0  0  0  0  0  0  0  0
   71.8938    3.3357   -0.9218 C   0  0  0  0  0  0  0  0  0  0  0  0
   73.1679    2.6868   -0.7908 C   0  0  0  0  0  0  0  0  0  0  0  0
   72.9658    1.3795   -0.4347 N   0  0  0  0  0  0  0  0  0  0  0  0
   74.4117    3.3027   -0.9723 C   0  0  0  0  0  0  0  0  0  0  0  0
   74.4092    4.7301   -1.3769 C   0  0  0  0  0  0  0  0  0  0  0  0
   73.8208    5.1317   -2.5784 C   0  0  0  0  0  0  0  0  0  0  0  0
   73.8220    6.4619   -2.9597 C   0  0  0  0  0  0  0  0  0  0  0  0
   74.4132    7.4258   -2.1392 C   0  0  0  0  0  0  0  0  0  0  0  0
   74.3738    8.7642   -2.4936 N   0  0  0  0  0  0  0  0  0  0  0  0
   74.9922    7.0345   -0.9295 C   0  0  0  0  0  0  0  0  0  0  0  0
   74.9949    5.7008   -0.5607 C   0  0  0  0  0  0  0  0  0  0  0  0
   75.6593    2.6903   -0.8031 C   0  0  0  0  0  0  0  0  0  0  0  0
   76.9287    3.3138   -1.0502 C   0  0  0  0  0  0  0  0  0  0  0  0
   77.8879    2.3901   -0.7824 C   0  0  0  0  0  0  0  0  0  0  0  0
   75.8698    1.3971   -0.4044 N   0  0  0  0  0  0  0  0  0  0  0  0
   77.2140    1.1927   -0.3779 C   0  0  0  0  0  0  0  0  0  0  0  0
   77.8614   -0.0068   -0.0175 C   0  0  0  0  0  0  0  0  0  0  0  0
   77.2218   -1.2070    0.3544 C   0  0  0  0  0  0  0  0  0  0  0  0
   77.9038   -2.4240    0.6791 C   0  0  0  0  0  0  0  0  0  0  0  0
   76.9506   -3.3503    0.9592 C   0  0  0  0  0  0  0  0  0  0  0  0
   75.6767   -2.7036    0.8170 C   0  0  0  0  0  0  0  0  0  0  0  0
   75.8787   -1.4024    0.4405 N   0  0  0  0  0  0  0  0  0  0  0  0
   74.4329   -3.3190    1.0030 C   0  0  0  0  0  0  0  0  0  0  0  0
   74.4381   -4.7355    1.4440 C   0  0  0  0  0  0  0  0  0  0  0  0
   73.8572   -5.7318    0.6559 C   0  0  0  0  0  0  0  0  0  0  0  0
   73.8621   -7.0537    1.0649 C   0  0  0  0  0  0  0  0  0  0  0  0
   74.4498   -7.4089    2.2815 C   0  0  0  0  0  0  0  0  0  0  0  0
   74.4127   -8.7229    2.7181 N   0  0  0  0  0  0  0  0  0  0  0  0
   75.0226   -6.4171    3.0814 C   0  0  0  0  0  0  0  0  0  0  0  0
   75.0213   -5.0990    2.6603 C   0  0  0  0  0  0  0  0  0  0  0  0
   73.1851   -2.7136    0.8124 C   0  0  0  0  0  0  0  0  0  0  0  0
   71.9148   -3.3384    1.0522 C   0  0  0  0  0  0  0  0  0  0  0  0
   70.9561   -2.4205    0.7643 C   0  0  0  0  0  0  0  0  0  0  0  0
   71.6307   -1.2240    0.3582 C   0  0  0  0  0  0  0  0  0  0  0  0
   72.9750   -1.4248    0.3983 N   0  0  0  0  0  0  0  0  0  0  0  0
   69.8697    2.5302   -0.6598 H   0  0  0  0  0  0  0  0  0  0  0  0
   71.7469    4.3749   -1.1686 H   0  0  0  0  0  0  0  0  0  0  0  0
   73.3755    4.3871   -3.2294 H   0  0  0  0  0  0  0  0  0  0  0  0
   73.3678    6.7603   -3.8984 H   0  0  0  0  0  0  0  0  0  0  0  0
   74.2572    8.9386   -3.4791 H   0  0  0  0  0  0  0  0  0  0  0  0
   75.0796    9.3384   -2.0607 H   0  0  0  0  0  0  0  0  0  0  0  0
   75.4402    7.7802   -0.2816 H   0  0  0  0  0  0  0  0  0  0  0  0
   75.4391    5.4059    0.3839 H   0  0  0  0  0  0  0  0  0  0  0  0
   77.0684    4.3243   -1.3993 H   0  0  0  0  0  0  0  0  0  0  0  0
   78.9580    2.5015   -0.8570 H   0  0  0  0  0  0  0  0  0  0  0  0
   78.9749   -2.5501    0.6817 H   0  0  0  0  0  0  0  0  0  0  0  0
   77.0974   -4.3853    1.2231 H   0  0  0  0  0  0  0  0  0  0  0  0
   73.4146   -5.4669   -0.2982 H   0  0  0  0  0  0  0  0  0  0  0  0
   73.4131   -7.8190    0.4411 H   0  0  0  0  0  0  0  0  0  0  0  0
   75.1174   -8.9644    3.3966 H   0  0  0  0  0  0  0  0  0  0  0  0
   74.2999   -9.4089    1.9888 H   0  0  0  0  0  0  0  0  0  0  0  0
   75.4685   -6.6847    4.0332 H   0  0  0  0  0  0  0  0  0  0  0  0
   75.4597   -4.3334    3.2912 H   0  0  0  0  0  0  0  0  0  0  0  0
   71.7738   -4.3454    1.4104 H   0  0  0  0  0  0  0  0  0  0  0  0
   69.8856   -2.5343    0.8289 H   0  0  0  0  0  0  0  0  0  0  0  0
  2  3  4  0  0  0  0
  3  4  4  0  0  0  0
  4  5  2  0  0  0  0
  5  6  4  0  0  0  0
  1  7  1  0  0  0  0
  3  7  4  0  0  0  0
  6  7  4  0  0  0  0
  6  8  4  0  0  0  0
  8  9  1  0  0  0  0
  9 10  4  0  0  0  0
 10 11  4  0  0  0  0
 11 12  4  0  0  0  0
 12 13  1  0  0  0  0
 12 14  4  0  0  0  0
  9 15  4  0  0  0  0
 14 15  4  0  0  0  0
  8 16  4  0  0  0  0
 16 17  4  0  0  0  0
 17 18  2  0  0  0  0
  1 19  1  0  0  0  0
 16 19  4  0  0  0  0
 18 20  4  0  0  0  0
 19 20  4  0  0  0  0
 20 21  4  0  0  0  0
 21 22  4  0  0  0  0
 22 23  4  0  0  0  0
 23 24  2  0  0  0  0
 24 25  4  0  0  0  0
  1 26  1  0  0  0  0
 22 26  4  0  0  0  0
 25 26  4  0  0  0  0
 25 27  4  0  0  0  0
 27 28  1  0  0  0  0
 28 29  4  0  0  0  0
 29 30  4  0  0  0  0
 30 31  4  0  0  0  0
 31 32  1  0  0  0  0
 31 33  4  0  0  0  0
 28 34  4  0  0  0  0
 33 34  4  0  0  0  0
 27 35  4  0  0  0  0
 35 36  4  0  0  0  0
 36 37  2  0  0  0  0
  2 38  4  0  0  0  0
 37 38  4  0  0  0  0
  1 39  1  0  0  0  0
 35 39  4  0  0  0  0
 38 39  4  0  0  0  0
  2 40  1  0  0  0  0
  4 41  1  0  0  0  0
  5 42  1  0  0  0  0
 10 43  1  0  0  0  0
 11 44  1  0  0  0  0
 13 45  1  0  0  0  0
 13 46  1  0  0  0  0
 14 47  1  0  0  0  0
 15 48  1  0  0  0  0
 17 49  1  0  0  0  0
 18 50  1  0  0  0  0
 23 51  1  0  0  0  0
 24 52  1  0  0  0  0
 29 53  1  0  0  0  0
 30 54  1  0  0  0  0
 32 55  1  0  0  0  0
 32 56  1  0  0  0  0
 33 57  1  0  0  0  0
 34 58  1  0  0  0  0
 36 59  1  0  0  0  0
 37 60  1  0  0  0  0
 62 63  4  0  0  0  0
 63 64  4  0  0  0  0
 64 65  2  0  0  0  0
 65 66  4  0  0  0  0
 61 67  1  0  0  0  0
 63 67  4  0  0  0  0
 66 67  4  0  0  0  0
 66 68  4  0  0  0  0
 68 69  1  0  0  0  0
 69 70  4  0  0  0  0
 70 71  4  0  0  0  0
 71 72  4  0  0  0  0
 72 73  1  0  0  0  0
 72 74  4  0  0  0  0
 69 75  4  0  0  0  0
 74 75  4  0  0  0  0
 68 76  4  0  0  0  0
 76 77  4  0  0  0  0
 77 78  2  0  0  0  0
 61 79  1  0  0  0  0
 76 79  4  0  0  0  0
 78 80  4  0  0  0  0
 79 80  4  0  0  0  0
 80 81  4  0  0  0  0
 81 82  4  0  0  0  0
 82 83  4  0  0  0  0
 83 84  2  0  0  0  0
 84 85  4  0  0  0  0
 61 86  1  0  0  0  0
 82 86  4  0  0  0  0
 85 86  4  0  0  0  0
 85 87  4  0  0  0  0
 87 88  1  0  0  0  0
 88 89  4  0  0  0  0
 89 90  4  0  0  0  0
 90 91  4  0  0  0  0
 91 92  1  0  0  0  0
 91 93  4  0  0  0  0
 88 94  4  0  0  0  0
 93 94  4  0  0  0  0
 87 95  4  0  0  0  0
 95 96  4  0  0  0  0
 96 97  2  0  0  0  0
 62 98  4  0  0  0  0
 97 98  4  0  0  0  0
 61 99  1  0  0  0  0
 95 99  4  0  0  0  0
 98 99  4  0  0  0  0
 62100  1  0  0  0  0
 64101  1  0  0  0  0
 65102  1  0  0  0  0
 70103  1  0  0  0  0
 71104  1  0  0  0  0
 73105  1  0  0  0  0
 73106  1  0  0  0  0
 74107  1  0  0  0  0
 75108  1  0  0  0  0
 77109  1  0  0  0  0
 78110  1  0  0  0  0
 83111  1  0  0  0  0
 84112  1  0  0  0  0
 89113  1  0  0  0  0
 90114  1  0  0  0  0
 92115  1  0  0  0  0
 92116  1  0  0  0  0
 93117  1  0  0  0  0
 94118  1  0  0  0  0
 96119  1  0  0  0  0
 97120  1  0  0  0  0
 21122  4  0  0  0  0
121122  3  0  0  0  0
121123  4  0  0  0  0
123124  3  0  0  0  0
125126  3  0  0  0  0
125127  4  0  0  0  0
127128  3  0  0  0  0
129130  3  0  0  0  0
129131  4  0  0  0  0
 81132  4  0  0  0  0
131132  3  0  0  0  0
124134  4  0  0  0  0
134135  4  0  0  0  0
135136  4  0  0  0  0
136137  2  0  0  0  0
137138  4  0  0  0  0
133139  1  0  0  0  0
135139  4  0  0  0  0
138139  4  0  0  0  0
138140  4  0  0  0  0
140141  1  0  0  0  0
141142  4  0  0  0  0
142143  4  0  0  0  0
143144  4  0  0  0  0
144145  1  0  0  0  0
144146  4  0  0  0  0
141147  4  0  0  0  0
146147  4  0  0  0  0
140148  4  0  0  0  0
148149  4  0  0  0  0
149150  2  0  0  0  0
133151  1  0  0  0  0
148151  4  0  0  0  0
150152  4  0  0  0  0
151152  4  0  0  0  0
126153  4  0  0  0  0
152153  4  0  0  0  0
153154  4  0  0  0  0
154155  4  0  0  0  0
155156  2  0  0  0  0
156157  4  0  0  0  0
133158  1  0  0  0  0
154158  4  0  0  0  0
157158  4  0  0  0  0
157159  4  0  0  0  0
159160  1  0  0  0  0
160161  4  0  0  0  0
161162  4  0  0  0  0
162163  4  0  0  0  0
163164  1  0  0  0  0
163165  4  0  0  0  0
160166  4  0  0  0  0
165166  4  0  0  0  0
159167  4  0  0  0  0
167168  4  0  0  0  0
168169  2  0  0  0  0
134170  4  0  0  0  0
169170  4  0  0  0  0
133171  1  0  0  0  0
167171  4  0  0  0  0
170171  4  0  0  0  0
136172  1  0  0  0  0
137173  1  0  0  0  0
142174  1  0  0  0  0
143175  1  0  0  0  0
145176  1  0  0  0  0
145177  1  0  0  0  0
146178  1  0  0  0  0
147179  1  0  0  0  0
149180  1  0  0  0  0
150181  1  0  0  0  0
155182  1  0  0  0  0
156183  1  0  0  0  0
161184  1  0  0  0  0
162185  1  0  0  0  0
164186  1  0  0  0  0
164187  1  0  0  0  0
165188  1  0  0  0  0
166189  1  0  0  0  0
168190  1  0  0  0  0
169191  1  0  0  0  0
128193  4  0  0  0  0
193194  4  0  0  0  0
194195  4  0  0  0  0
195196  2  0  0  0  0
196197  4  0  0  0  0
192198  1  0  0  0  0
194198  4  0  0  0  0
197198  4  0  0  0  0
197199  4  0  0  0  0
199200  1  0  0  0  0
200201  4  0  0  0  0
201202  4  0  0  0  0
202203  4  0  0  0  0
203204  1  0  0  0  0
203205  4  0  0  0  0
200206  4  0  0  0  0
205206  4  0  0  0  0
199207  4  0  0  0  0
207208  4  0  0  0  0
208209  2  0  0  0  0
192210  1  0  0  0  0
207210  4  0  0  0  0
209211  4  0  0  0  0
210211  4  0  0  0  0
130212  4  0  0  0  0
211212  4  0  0  0  0
212213  4  0  0  0  0
213214  4  0  0  0  0
214215  2  0  0  0  0
215216  4  0  0  0  0
192217  1  0  0  0  0
213217  4  0  0  0  0
216217  4  0  0  0  0
216218  4  0  0  0  0
218219  1  0  0  0  0
219220  4  0  0  0  0
220221  4  0  0  0  0
221222  4  0  0  0  0
222223  1  0  0  0  0
222224  4  0  0  0  0
219225  4  0  0  0  0
224225  4  0  0  0  0
218226  4  0  0  0  0
226227  4  0  0  0  0
227228  2  0  0  0  0
193229  4  0  0  0  0
228229  4  0  0  0  0
192230  1  0  0  0  0
226230  4  0  0  0  0
229230  4  0  0  0  0
195231  1  0  0  0  0
196232  1  0  0  0  0
201233  1  0  0  0  0
202234  1  0  0  0  0
204235  1  0  0  0  0
204236  1  0  0  0  0
205237  1  0  0  0  0
206238  1  0  0  0  0
208239  1  0  0  0  0
209240  1  0  0  0  0
214241  1  0  0  0  0
215242  1  0  0  0  0
220243  1  0  0  0  0
221244  1  0  0  0  0
223245  1  0  0  0  0
223246  1  0  0  0  0
224247  1  0  0  0  0
225248  1  0  0  0  0
227249  1  0  0  0  0
228250  1  0  0  0  0
M  END
