 xtb: 6.5.1 (b24c23e)
          07302209593D

197226  0     0  0            999 V2000
   33.3867   -0.0404    0.0078 Cu  0  0  0  0  0  0  0  0  0  0  0  0
   29.9819   -0.1345    0.0275 C   0  0  0  0  0  0  0  0  0  0  0  0
   30.6143   -0.1742    1.2607 C   0  0  0  0  0  0  0  0  0  0  0  0
   29.9359   -0.2172    2.5246 C   0  0  0  0  0  0  0  0  0  0  0  0
   30.8919   -0.2247    3.4859 C   0  0  0  0  0  0  0  0  0  0  0  0
   32.1645   -0.1963    2.8168 C   0  0  0  0  0  0  0  0  0  0  0  0
   31.9646   -0.1588    1.4670 N   0  0  0  0  0  0  0  0  0  0  0  0
   33.4073   -0.1749    3.4540 C   0  0  0  0  0  0  0  0  0  0  0  0
   34.6418   -0.1085    2.8045 C   0  0  0  0  0  0  0  0  0  0  0  0
   35.9182   -0.1390    3.4613 C   0  0  0  0  0  0  0  0  0  0  0  0
   36.8660   -0.0825    2.4920 C   0  0  0  0  0  0  0  0  0  0  0  0
   34.8324   -0.0441    1.4500 N   0  0  0  0  0  0  0  0  0  0  0  0
   36.1771   -0.0241    1.2376 C   0  0  0  0  0  0  0  0  0  0  0  0
   36.8150    0.0281   -0.0133 C   0  0  0  0  0  0  0  0  0  0  0  0
   36.1600    0.0675   -1.2557 C   0  0  0  0  0  0  0  0  0  0  0  0
   36.8315    0.0960   -2.5205 C   0  0  0  0  0  0  0  0  0  0  0  0
   35.8702    0.1225   -3.4778 C   0  0  0  0  0  0  0  0  0  0  0  0
   34.6031    0.1169   -2.8027 C   0  0  0  0  0  0  0  0  0  0  0  0
   33.3593    0.1192   -3.4378 C   0  0  0  0  0  0  0  0  0  0  0  0
   33.3478    0.1948   -4.9191 C   0  0  0  0  0  0  0  0  0  0  0  0
   32.8064   -0.8467   -5.6772 C   0  0  0  0  0  0  0  0  0  0  0  0
   32.7956   -0.7728   -7.0579 C   0  0  0  0  0  0  0  0  0  0  0  0
   33.3218    0.3459   -7.7068 C   0  0  0  0  0  0  0  0  0  0  0  0
   33.2832    0.3810   -9.1882 C   0  0  0  0  0  0  0  0  0  0  0  0
   33.8167    1.4946   -9.7133 O   0  0  0  0  0  0  0  0  0  0  0  0
   32.8226   -0.4931   -9.8778 O   0  0  0  0  0  0  0  0  0  0  0  0
   33.8627    1.3891   -6.9545 C   0  0  0  0  0  0  0  0  0  0  0  0
   33.8765    1.3106   -5.5729 C   0  0  0  0  0  0  0  0  0  0  0  0
   32.1250    0.0543   -2.7869 C   0  0  0  0  0  0  0  0  0  0  0  0
   30.8429    0.0956   -3.4370 C   0  0  0  0  0  0  0  0  0  0  0  0
   29.9006    0.0184   -2.4653 C   0  0  0  0  0  0  0  0  0  0  0  0
   30.5970   -0.0592   -1.2129 C   0  0  0  0  0  0  0  0  0  0  0  0
   31.9441   -0.0304   -1.4365 N   0  0  0  0  0  0  0  0  0  0  0  0
   34.8125    0.0746   -1.4500 N   0  0  0  0  0  0  0  0  0  0  0  0
   33.4163   -0.2278    4.9364 C   0  0  0  0  0  0  0  0  0  0  0  0
   32.9068   -1.3422    5.6080 C   0  0  0  0  0  0  0  0  0  0  0  0
   32.9152   -1.3885    6.9899 C   0  0  0  0  0  0  0  0  0  0  0  0
   33.4280   -0.3192    7.7267 C   0  0  0  0  0  0  0  0  0  0  0  0
   33.4087   -0.4124    9.2060 C   0  0  0  0  0  0  0  0  0  0  0  0
   33.9230    0.6649    9.8187 O   0  0  0  0  0  0  0  0  0  0  0  0
   32.9783   -1.3536    9.8227 O   0  0  0  0  0  0  0  0  0  0  0  0
   33.9371    0.7963    7.0609 C   0  0  0  0  0  0  0  0  0  0  0  0
   33.9326    0.8380    5.6777 C   0  0  0  0  0  0  0  0  0  0  0  0
   28.8969   -0.1520    0.0341 H   0  0  0  0  0  0  0  0  0  0  0  0
   28.8643   -0.2316    2.6459 H   0  0  0  0  0  0  0  0  0  0  0  0
   30.7547   -0.2361    4.5552 H   0  0  0  0  0  0  0  0  0  0  0  0
   36.0662   -0.2095    4.5267 H   0  0  0  0  0  0  0  0  0  0  0  0
   37.9382   -0.0851    2.6057 H   0  0  0  0  0  0  0  0  0  0  0  0
   37.9019    0.0900   -2.6493 H   0  0  0  0  0  0  0  0  0  0  0  0
   36.0035    0.1299   -4.5475 H   0  0  0  0  0  0  0  0  0  0  0  0
   32.4086   -1.7216   -5.1758 H   0  0  0  0  0  0  0  0  0  0  0  0
   32.3811   -1.5795   -7.6524 H   0  0  0  0  0  0  0  0  0  0  0  0
   33.7525    1.4395  -10.6806 H   0  0  0  0  0  0  0  0  0  0  0  0
   34.2696    2.2605   -7.4538 H   0  0  0  0  0  0  0  0  0  0  0  0
   34.2856    2.1269   -4.9882 H   0  0  0  0  0  0  0  0  0  0  0  0
   30.6904    0.1849   -4.5005 H   0  0  0  0  0  0  0  0  0  0  0  0
   28.8273    0.0204   -2.5719 H   0  0  0  0  0  0  0  0  0  0  0  0
   32.5186   -2.1784    5.0376 H   0  0  0  0  0  0  0  0  0  0  0  0
   32.5257   -2.2524    7.5174 H   0  0  0  0  0  0  0  0  0  0  0  0
   33.8734    0.5263   10.7784 H   0  0  0  0  0  0  0  0  0  0  0  0
   34.3339    1.6296    7.6287 H   0  0  0  0  0  0  0  0  0  0  0  0
   34.3172    1.7099    5.1606 H   0  0  0  0  0  0  0  0  0  0  0  0
   65.4755   -0.0295   -0.0416 Cu  0  0  0  0  0  0  0  0  0  0  0  0
   68.8803   -0.1293   -0.0754 C   0  0  0  0  0  0  0  0  0  0  0  0
   68.2468   -0.0267   -1.3044 C   0  0  0  0  0  0  0  0  0  0  0  0
   68.9241    0.0720   -2.5658 C   0  0  0  0  0  0  0  0  0  0  0  0
   67.9674    0.1791   -3.5205 C   0  0  0  0  0  0  0  0  0  0  0  0
   66.6954    0.1370   -2.8508 C   0  0  0  0  0  0  0  0  0  0  0  0
   66.8965    0.0181   -1.5059 N   0  0  0  0  0  0  0  0  0  0  0  0
   65.4524    0.2399   -3.4796 C   0  0  0  0  0  0  0  0  0  0  0  0
   64.2186    0.2383   -2.8255 C   0  0  0  0  0  0  0  0  0  0  0  0
   62.9419    0.2952   -3.4798 C   0  0  0  0  0  0  0  0  0  0  0  0
   61.9947    0.2419   -2.5096 C   0  0  0  0  0  0  0  0  0  0  0  0
   64.0288    0.1422   -1.4727 N   0  0  0  0  0  0  0  0  0  0  0  0
   62.6843    0.1451   -1.2580 C   0  0  0  0  0  0  0  0  0  0  0  0
   62.0471    0.0476   -0.0095 C   0  0  0  0  0  0  0  0  0  0  0  0
   62.7030   -0.0681    1.2278 C   0  0  0  0  0  0  0  0  0  0  0  0
   62.0326   -0.1924    2.4873 C   0  0  0  0  0  0  0  0  0  0  0  0
   62.9947   -0.2811    3.4401 C   0  0  0  0  0  0  0  0  0  0  0  0
   64.2613   -0.2048    2.7683 C   0  0  0  0  0  0  0  0  0  0  0  0
   65.5055   -0.2751    3.3986 C   0  0  0  0  0  0  0  0  0  0  0  0
   65.5183   -0.3737    4.8785 C   0  0  0  0  0  0  0  0  0  0  0  0
   66.0645   -1.4952    5.5084 C   0  0  0  0  0  0  0  0  0  0  0  0
   66.0776   -1.5839    6.8881 C   0  0  0  0  0  0  0  0  0  0  0  0
   65.5486   -0.5512    7.6647 C   0  0  0  0  0  0  0  0  0  0  0  0
   65.5904   -0.6903    9.1399 C   0  0  0  0  0  0  0  0  0  0  0  0
   65.0517    0.3505    9.7931 O   0  0  0  0  0  0  0  0  0  0  0  0
   66.0577   -1.6367    9.7210 O   0  0  0  0  0  0  0  0  0  0  0  0
   65.0026    0.5710    7.0409 C   0  0  0  0  0  0  0  0  0  0  0  0
   64.9868    0.6556    5.6596 C   0  0  0  0  0  0  0  0  0  0  0  0
   66.7394   -0.2616    2.7439 C   0  0  0  0  0  0  0  0  0  0  0  0
   68.0221   -0.2942    3.3935 C   0  0  0  0  0  0  0  0  0  0  0  0
   68.9636   -0.2598    2.4186 C   0  0  0  0  0  0  0  0  0  0  0  0
   68.2662   -0.1942    1.1661 C   0  0  0  0  0  0  0  0  0  0  0  0
   66.9192   -0.1906    1.3926 N   0  0  0  0  0  0  0  0  0  0  0  0
   64.0508   -0.0851    1.4204 N   0  0  0  0  0  0  0  0  0  0  0  0
   65.4429    0.3587   -4.9583 C   0  0  0  0  0  0  0  0  0  0  0  0
   65.9411   -0.6764   -5.7539 C   0  0  0  0  0  0  0  0  0  0  0  0
   65.9317   -0.5641   -7.1320 C   0  0  0  0  0  0  0  0  0  0  0  0
   65.4292    0.5877   -7.7406 C   0  0  0  0  0  0  0  0  0  0  0  0
   65.4456    0.6635   -9.2209 C   0  0  0  0  0  0  0  0  0  0  0  0
   64.9460    1.8107   -9.7055 O   0  0  0  0  0  0  0  0  0  0  0  0
   65.8616   -0.2072   -9.9422 O   0  0  0  0  0  0  0  0  0  0  0  0
   64.9323    1.6248   -6.9507 C   0  0  0  0  0  0  0  0  0  0  0  0
   64.9375    1.5076   -5.5717 C   0  0  0  0  0  0  0  0  0  0  0  0
   69.9652   -0.1486   -0.0851 H   0  0  0  0  0  0  0  0  0  0  0  0
   69.9956    0.0666   -2.6894 H   0  0  0  0  0  0  0  0  0  0  0  0
   68.1036    0.2894   -4.5842 H   0  0  0  0  0  0  0  0  0  0  0  0
   62.7931    0.3540   -4.5458 H   0  0  0  0  0  0  0  0  0  0  0  0
   60.9225    0.2599   -2.6218 H   0  0  0  0  0  0  0  0  0  0  0  0
   60.9623   -0.2143    2.6155 H   0  0  0  0  0  0  0  0  0  0  0  0
   62.8622   -0.4024    4.5030 H   0  0  0  0  0  0  0  0  0  0  0  0
   66.4645   -2.3037    4.9070 H   0  0  0  0  0  0  0  0  0  0  0  0
   66.4960   -2.4534    7.3831 H   0  0  0  0  0  0  0  0  0  0  0  0
   65.1184    0.1825   10.7471 H   0  0  0  0  0  0  0  0  0  0  0  0
   64.5936    1.3763    7.6397 H   0  0  0  0  0  0  0  0  0  0  0  0
   64.5740    1.5335    5.1755 H   0  0  0  0  0  0  0  0  0  0  0  0
   68.1755   -0.3266    4.4601 H   0  0  0  0  0  0  0  0  0  0  0  0
   70.0370   -0.2698    2.5239 H   0  0  0  0  0  0  0  0  0  0  0  0
   66.3215   -1.5760   -5.2836 H   0  0  0  0  0  0  0  0  0  0  0  0
   66.3120   -1.3657   -7.7556 H   0  0  0  0  0  0  0  0  0  0  0  0
   64.9928    1.7816  -10.6748 H   0  0  0  0  0  0  0  0  0  0  0  0
   64.5440    2.5218   -7.4186 H   0  0  0  0  0  0  0  0  0  0  0  0
   64.5621    2.3184   -4.9576 H   0  0  0  0  0  0  0  0  0  0  0  0
   42.0194    0.0092   -0.0361 C   0  0  0  0  0  0  0  0  0  0  0  0
   40.7919    0.0181   -0.0353 C   0  0  0  0  0  0  0  0  0  0  0  0
   39.4458    0.0248   -0.0303 C   0  0  0  0  0  0  0  0  0  0  0  0
   38.2228    0.0290   -0.0222 C   0  0  0  0  0  0  0  0  0  0  0  0
   43.3654    0.0039   -0.0354 C   0  0  0  0  0  0  0  0  0  0  0  0
   44.5886   -0.0005   -0.0348 C   0  0  0  0  0  0  0  0  0  0  0  0
   58.0699    0.0518    0.0173 C   0  0  0  0  0  0  0  0  0  0  0  0
   56.8424    0.0440    0.0196 C   0  0  0  0  0  0  0  0  0  0  0  0
   55.4964    0.0355    0.0191 C   0  0  0  0  0  0  0  0  0  0  0  0
   54.2732    0.0259    0.0172 C   0  0  0  0  0  0  0  0  0  0  0  0
   59.4161    0.0542    0.0107 C   0  0  0  0  0  0  0  0  0  0  0  0
   60.6392    0.0544    0.0014 C   0  0  0  0  0  0  0  0  0  0  0  0
   49.4309    0.0110   -0.0099 Cu  0  0  0  0  0  0  0  0  0  0  0  0
   45.9958    0.0017   -0.0304 C   0  0  0  0  0  0  0  0  0  0  0  0
   46.6462   -1.2439    0.0018 C   0  0  0  0  0  0  0  0  0  0  0  0
   45.9719   -2.5073   -0.0193 C   0  0  0  0  0  0  0  0  0  0  0  0
   46.9300   -3.4672    0.0300 C   0  0  0  0  0  0  0  0  0  0  0  0
   48.1967   -2.7942    0.0917 C   0  0  0  0  0  0  0  0  0  0  0  0
   47.9913   -1.4410    0.0639 N   0  0  0  0  0  0  0  0  0  0  0  0
   49.4391   -3.4295    0.1497 C   0  0  0  0  0  0  0  0  0  0  0  0
   50.6782   -2.7848    0.1511 C   0  0  0  0  0  0  0  0  0  0  0  0
   51.9477   -3.4427    0.2795 C   0  0  0  0  0  0  0  0  0  0  0  0
   52.9012   -2.4776    0.2427 C   0  0  0  0  0  0  0  0  0  0  0  0
   50.8772   -1.4340    0.0530 N   0  0  0  0  0  0  0  0  0  0  0  0
   52.2213   -1.2251    0.1004 C   0  0  0  0  0  0  0  0  0  0  0  0
   52.8659    0.0208    0.0108 C   0  0  0  0  0  0  0  0  0  0  0  0
   52.2155    1.2632   -0.0868 C   0  0  0  0  0  0  0  0  0  0  0  0
   52.8903    2.5192   -0.2228 C   0  0  0  0  0  0  0  0  0  0  0  0
   51.9321    3.4790   -0.2731 C   0  0  0  0  0  0  0  0  0  0  0  0
   50.6647    2.8142   -0.1594 C   0  0  0  0  0  0  0  0  0  0  0  0
   49.4222    3.4519   -0.1752 C   0  0  0  0  0  0  0  0  0  0  0  0
   49.4189    4.9337   -0.2425 C   0  0  0  0  0  0  0  0  0  0  0  0
   49.9970    5.6887    0.7814 C   0  0  0  0  0  0  0  0  0  0  0  0
   49.9899    7.0700    0.7197 C   0  0  0  0  0  0  0  0  0  0  0  0
   49.4095    7.7226   -0.3697 C   0  0  0  0  0  0  0  0  0  0  0  0
   49.4293    9.2045   -0.3923 C   0  0  0  0  0  0  0  0  0  0  0  0
   48.8450    9.7331   -1.4784 O   0  0  0  0  0  0  0  0  0  0  0  0
   49.9166    9.8919    0.4690 O   0  0  0  0  0  0  0  0  0  0  0  0
   48.8336    6.9734   -1.3962 C   0  0  0  0  0  0  0  0  0  0  0  0
   48.8372    5.5911   -1.3295 C   0  0  0  0  0  0  0  0  0  0  0  0
   48.1827    2.8098   -0.1316 C   0  0  0  0  0  0  0  0  0  0  0  0
   46.9116    3.4757   -0.0866 C   0  0  0  0  0  0  0  0  0  0  0  0
   45.9584    2.5105   -0.0463 C   0  0  0  0  0  0  0  0  0  0  0  0
   46.6400    1.2509   -0.0570 C   0  0  0  0  0  0  0  0  0  0  0  0
   47.9844    1.4555   -0.1039 N   0  0  0  0  0  0  0  0  0  0  0  0
   50.8699    1.4647   -0.0567 N   0  0  0  0  0  0  0  0  0  0  0  0
   49.4433   -4.9115    0.2157 C   0  0  0  0  0  0  0  0  0  0  0  0
   48.8550   -5.5733    1.2967 C   0  0  0  0  0  0  0  0  0  0  0  0
   48.8624   -6.9546    1.3574 C   0  0  0  0  0  0  0  0  0  0  0  0
   49.4529   -7.7007    0.3357 C   0  0  0  0  0  0  0  0  0  0  0  0
   49.4332   -9.1790    0.4443 C   0  0  0  0  0  0  0  0  0  0  0  0
   50.0248   -9.8012   -0.5868 O   0  0  0  0  0  0  0  0  0  0  0  0
   48.9396   -9.7875    1.3596 O   0  0  0  0  0  0  0  0  0  0  0  0
   50.0391   -7.0449   -0.7474 C   0  0  0  0  0  0  0  0  0  0  0  0
   50.0356   -5.6620   -0.8030 C   0  0  0  0  0  0  0  0  0  0  0  0
   44.9024   -2.6334   -0.0737 H   0  0  0  0  0  0  0  0  0  0  0  0
   46.7953   -4.5365    0.0128 H   0  0  0  0  0  0  0  0  0  0  0  0
   52.0873   -4.5051    0.3970 H   0  0  0  0  0  0  0  0  0  0  0  0
   53.9710   -2.5930    0.3133 H   0  0  0  0  0  0  0  0  0  0  0  0
   53.9601    2.6408   -0.2801 H   0  0  0  0  0  0  0  0  0  0  0  0
   52.0676    4.5418   -0.3909 H   0  0  0  0  0  0  0  0  0  0  0  0
   50.4375    5.1840    1.6338 H   0  0  0  0  0  0  0  0  0  0  0  0
   50.4318    7.6621    1.5136 H   0  0  0  0  0  0  0  0  0  0  0  0
   48.9002   10.7005   -1.4168 H   0  0  0  0  0  0  0  0  0  0  0  0
   48.3851    7.4755   -2.2452 H   0  0  0  0  0  0  0  0  0  0  0  0
   48.4002    5.0088   -2.1329 H   0  0  0  0  0  0  0  0  0  0  0  0
   46.7703    4.5442   -0.0732 H   0  0  0  0  0  0  0  0  0  0  0  0
   44.8877    2.6312   -0.0050 H   0  0  0  0  0  0  0  0  0  0  0  0
   48.4063   -4.9954    2.0967 H   0  0  0  0  0  0  0  0  0  0  0  0
   48.4127   -7.4744    2.1963 H   0  0  0  0  0  0  0  0  0  0  0  0
   49.9693  -10.7595   -0.4406 H   0  0  0  0  0  0  0  0  0  0  0  0
   50.4954   -7.6199   -1.5444 H   0  0  0  0  0  0  0  0  0  0  0  0
   50.4811   -5.1529   -1.6503 H   0  0  0  0  0  0  0  0  0  0  0  0
  2  3  4  0  0  0  0
  3  4  1  0  0  0  0
  4  5  2  0  0  0  0
  5  6  4  0  0  0  0
  1  7  1  0  0  0  0
  3  7  4  0  0  0  0
  6  7  4  0  0  0  0
  6  8  4  0  0  0  0
  8  9  4  0  0  0  0
  9 10  4  0  0  0  0
 10 11  2  0  0  0  0
  1 12  1  0  0  0  0
  9 12  4  0  0  0  0
 11 13  4  0  0  0  0
 12 13  4  0  0  0  0
 13 14  4  0  0  0  0
 14 15  4  0  0  0  0
 15 16  4  0  0  0  0
 16 17  2  0  0  0  0
 17 18  4  0  0  0  0
 18 19  4  0  0  0  0
 19 20  1  0  0  0  0
 20 21  4  0  0  0  0
 21 22  4  0  0  0  0
 22 23  4  0  0  0  0
 23 24  1  0  0  0  0
 24 25  4  0  0  0  0
 24 26  2  0  0  0  0
 23 27  4  0  0  0  0
 20 28  4  0  0  0  0
 27 28  4  0  0  0  0
 19 29  4  0  0  0  0
 29 30  4  0  0  0  0
 30 31  2  0  0  0  0
  2 32  4  0  0  0  0
 31 32  1  0  0  0  0
  1 33  1  0  0  0  0
 29 33  4  0  0  0  0
 32 33  4  0  0  0  0
  1 34  1  0  0  0  0
 15 34  4  0  0  0  0
 18 34  4  0  0  0  0
  8 35  1  0  0  0  0
 35 36  4  0  0  0  0
 36 37  4  0  0  0  0
 37 38  4  0  0  0  0
 38 39  1  0  0  0  0
 39 40  4  0  0  0  0
 39 41  2  0  0  0  0
 38 42  4  0  0  0  0
 35 43  4  0  0  0  0
 42 43  4  0  0  0  0
  2 44  1  0  0  0  0
  4 45  1  0  0  0  0
  5 46  1  0  0  0  0
 10 47  1  0  0  0  0
 11 48  1  0  0  0  0
 16 49  1  0  0  0  0
 17 50  1  0  0  0  0
 21 51  1  0  0  0  0
 22 52  1  0  0  0  0
 25 53  1  0  0  0  0
 27 54  1  0  0  0  0
 28 55  1  0  0  0  0
 30 56  1  0  0  0  0
 31 57  1  0  0  0  0
 36 58  1  0  0  0  0
 37 59  1  0  0  0  0
 40 60  1  0  0  0  0
 42 61  1  0  0  0  0
 43 62  1  0  0  0  0
 64 65  4  0  0  0  0
 65 66  1  0  0  0  0
 66 67  2  0  0  0  0
 67 68  4  0  0  0  0
 63 69  1  0  0  0  0
 65 69  4  0  0  0  0
 68 69  4  0  0  0  0
 68 70  4  0  0  0  0
 70 71  4  0  0  0  0
 71 72  4  0  0  0  0
 72 73  2  0  0  0  0
 63 74  1  0  0  0  0
 71 74  4  0  0  0  0
 73 75  4  0  0  0  0
 74 75  4  0  0  0  0
 75 76  4  0  0  0  0
 76 77  4  0  0  0  0
 77 78  4  0  0  0  0
 78 79  2  0  0  0  0
 79 80  4  0  0  0  0
 80 81  4  0  0  0  0
 81 82  1  0  0  0  0
 82 83  4  0  0  0  0
 83 84  4  0  0  0  0
 84 85  4  0  0  0  0
 85 86  1  0  0  0  0
 86 87  4  0  0  0  0
 86 88  2  0  0  0  0
 85 89  4  0  0  0  0
 82 90  4  0  0  0  0
 89 90  4  0  0  0  0
 81 91  4  0  0  0  0
 91 92  4  0  0  0  0
 92 93  2  0  0  0  0
 64 94  4  0  0  0  0
 93 94  1  0  0  0  0
 63 95  1  0  0  0  0
 91 95  4  0  0  0  0
 94 95  4  0  0  0  0
 63 96  1  0  0  0  0
 77 96  4  0  0  0  0
 80 96  4  0  0  0  0
 70 97  1  0  0  0  0
 97 98  4  0  0  0  0
 98 99  4  0  0  0  0
 99100  4  0  0  0  0
100101  1  0  0  0  0
101102  4  0  0  0  0
101103  2  0  0  0  0
100104  4  0  0  0  0
 97105  4  0  0  0  0
104105  4  0  0  0  0
 64106  1  0  0  0  0
 66107  1  0  0  0  0
 67108  1  0  0  0  0
 72109  1  0  0  0  0
 73110  1  0  0  0  0
 78111  1  0  0  0  0
 79112  1  0  0  0  0
 83113  1  0  0  0  0
 84114  1  0  0  0  0
 87115  1  0  0  0  0
 89116  1  0  0  0  0
 90117  1  0  0  0  0
 92118  1  0  0  0  0
 93119  1  0  0  0  0
 98120  1  0  0  0  0
 99121  1  0  0  0  0
102122  1  0  0  0  0
104123  1  0  0  0  0
105124  1  0  0  0  0
125126  3  0  0  0  0
126127  4  0  0  0  0
 14128  4  0  0  0  0
127128  3  0  0  0  0
125129  4  0  0  0  0
129130  3  0  0  0  0
131132  3  0  0  0  0
132133  4  0  0  0  0
133134  3  0  0  0  0
131135  4  0  0  0  0
 76136  4  0  0  0  0
135136  3  0  0  0  0
130138  4  0  0  0  0
138139  4  0  0  0  0
139140  4  0  0  0  0
140141  2  0  0  0  0
141142  4  0  0  0  0
137143  1  0  0  0  0
139143  4  0  0  0  0
142143  4  0  0  0  0
142144  4  0  0  0  0
144145  4  0  0  0  0
145146  4  0  0  0  0
146147  2  0  0  0  0
137148  1  0  0  0  0
145148  4  0  0  0  0
147149  4  0  0  0  0
148149  4  0  0  0  0
134150  4  0  0  0  0
149150  4  0  0  0  0
150151  4  0  0  0  0
151152  4  0  0  0  0
152153  2  0  0  0  0
153154  4  0  0  0  0
154155  4  0  0  0  0
155156  1  0  0  0  0
156157  4  0  0  0  0
157158  4  0  0  0  0
158159  4  0  0  0  0
159160  1  0  0  0  0
160161  4  0  0  0  0
160162  2  0  0  0  0
159163  4  0  0  0  0
156164  4  0  0  0  0
163164  4  0  0  0  0
155165  4  0  0  0  0
165166  4  0  0  0  0
166167  2  0  0  0  0
138168  4  0  0  0  0
167168  4  0  0  0  0
137169  1  0  0  0  0
165169  4  0  0  0  0
168169  4  0  0  0  0
137170  1  0  0  0  0
151170  4  0  0  0  0
154170  4  0  0  0  0
144171  1  0  0  0  0
171172  4  0  0  0  0
172173  4  0  0  0  0
173174  4  0  0  0  0
174175  1  0  0  0  0
175176  4  0  0  0  0
175177  2  0  0  0  0
174178  4  0  0  0  0
171179  4  0  0  0  0
178179  4  0  0  0  0
140180  1  0  0  0  0
141181  1  0  0  0  0
146182  1  0  0  0  0
147183  1  0  0  0  0
152184  1  0  0  0  0
153185  1  0  0  0  0
157186  1  0  0  0  0
158187  1  0  0  0  0
161188  1  0  0  0  0
163189  1  0  0  0  0
164190  1  0  0  0  0
166191  1  0  0  0  0
167192  1  0  0  0  0
172193  1  0  0  0  0
173194  1  0  0  0  0
176195  1  0  0  0  0
178196  1  0  0  0  0
179197  1  0  0  0  0
M  END
