336

C 62.830728 0.028517 0.093189
C 63.561125 -1.349076 0.063974
C 62.955839 -2.581680 0.154268
C 63.978805 -3.557461 0.030763
C 65.174629 -2.885911 -0.135514
N 64.913685 -1.540386 -0.060312
C 66.596692 -3.535813 -0.395318
C 67.725703 -2.778750 -0.346933
C 69.029651 -3.330450 -0.653306
C 69.929810 -2.359606 -0.553385
N 67.920451 -1.454740 -0.054613
C 69.250380 -1.140386 -0.161605
C 69.916650 0.029310 0.030220
C 69.139326 1.333669 0.491643
C 69.681459 2.408052 1.169016
C 68.655874 3.372366 1.332461
C 67.513165 2.855091 0.761066
C 66.101855 3.571993 0.671889
C 66.065242 5.046674 0.777902
C 66.375003 5.840704 -0.332132
C 66.348550 7.233970 -0.231014
C 66.013186 7.842063 0.985691
C 65.995316 9.323209 1.050134
O 65.667999 9.794165 2.268645
O 66.240695 10.091520 0.137403
C 65.705157 7.050270 2.099662
C 65.732815 5.657827 1.993326
C 64.977473 2.831012 0.493989
C 63.654415 3.420779 0.390806
C 62.770481 2.439196 0.237166
C 63.494096 1.191813 0.230260
N 64.815101 1.479211 0.374581
N 67.804304 1.593401 0.298160
C 66.634818 -4.975117 -0.742852
C 66.368015 -5.388709 -2.053231
C 66.386517 -6.746353 -2.382839
C 66.675706 -7.700469 -1.398210
C 66.707070 -9.151850 -1.699173
O 66.440429 -9.429734 -2.989127
O 66.941725 -10.049783 -0.909987
C 66.944489 -7.289772 -0.086168
C 66.920991 -5.931418 0.238687
H 61.752684 0.033789 -0.013225
H 61.898451 -2.758651 0.276902
H 63.852212 -4.629825 0.036870
H 65.613264 -0.803003 -0.096294
H 69.243374 -4.347143 -0.930244
H 70.982395 -2.482164 -0.732454
H 70.704761 2.497059 1.500335
H 68.743338 4.336059 1.810357
H 66.632668 5.358987 -1.273233
H 66.588965 7.834285 -1.104629
H 65.698783 10.764022 2.147913
H 65.440346 7.498387 3.052317
H 65.492306 5.031792 2.850531
H 63.422658 4.469452 0.429454
H 61.706595 2.548804 0.131180
H 67.120335 0.939866 -0.074124
H 66.147812 -4.638340 -2.809676
H 66.174525 -7.040275 -3.406564
H 66.499615 -10.405464 -3.023302
H 67.173766 -8.017225 0.688423
H 67.127676 -5.601203 1.254171
C 133.639059 0.001788 0.086861
C 132.908662 1.246251 0.678405
C 133.513948 2.307534 1.311765
C 132.490983 3.235113 1.638870
C 131.295158 2.709399 1.189147
N 131.556102 1.472979 0.653087
C 129.873095 3.406801 1.248311
C 128.744084 2.708404 0.952123
C 127.440136 3.338908 0.925631
C 126.539977 2.426316 0.579658
N 128.549336 1.393870 0.619781
C 127.219407 1.160855 0.383202
C 126.553137 0.029310 0.030220
C 127.330461 -1.343477 -0.142158
C 126.788328 -2.607526 -0.018397
C 127.813913 -3.542763 -0.304660
C 128.956622 -2.824204 -0.583479
C 130.367932 -3.425025 -0.984620
C 130.404545 -4.790706 -1.551048
C 130.094784 -5.002757 -2.899267
C 130.121237 -6.293469 -3.433567
C 130.456601 -7.382537 -2.618656
C 130.474471 -8.735357 -3.225140
O 130.801788 -9.702654 -2.347128
O 130.229092 -9.012882 -4.385468
C 130.764631 -7.174251 -1.267921
C 130.736972 -5.881934 -0.738654
C 131.492314 -2.682934 -0.811410
C 132.815372 -3.163836 -1.168068
C 133.699306 -2.217559 -0.865298
C 132.975691 -1.099486 -0.312194
N 131.654686 -1.421085 -0.312050
N 128.665483 -1.488890 -0.431557
C 129.834969 4.849148 1.582993
C 130.101772 5.806360 0.597145
C 130.083270 7.167678 0.911237
C 129.794081 7.579048 2.219139
C 129.762717 9.011310 2.600863
O 130.029359 9.838061 1.572426
O 129.528063 9.460090 3.708877
C 129.525298 6.623678 3.207771
C 129.548796 5.263857 2.889112
H 134.717103 0.044787 -0.010621
H 134.571336 2.410736 1.500728
H 132.617575 4.190911 2.125135
H 130.856523 0.830001 0.290311
H 127.226413 4.371851 1.133934
H 125.487392 2.616152 0.474547
H 125.765026 -2.835635 0.237847
H 127.726449 -4.618432 -0.309573
H 129.837119 -4.150221 -3.524490
H 129.880822 -6.438368 -4.483607
H 130.771005 -10.515433 -2.889891
H 131.029441 -8.001934 -0.617306
H 130.977481 -5.706688 0.308250
H 133.047129 -4.118524 -1.603706
H 134.763192 -2.268013 -1.009177
H 129.349452 -0.737808 -0.471305
H 130.321975 5.474800 -0.415441
H 130.295262 7.889398 0.127961
H 129.970172 10.725542 1.979357
H 129.296021 6.926618 4.226302
H 129.342111 4.513391 3.648750
C 75.719833 0.030622 0.038653
C 74.510894 0.017167 0.030206
C 73.089365 0.025986 0.018222
C 71.877696 0.033425 0.029085
C 77.136438 0.023947 0.039186
C 78.357134 0.033425 0.029085
C 91.132487 0.030622 0.038653
C 89.923548 0.017167 0.030206
C 88.502019 0.025986 0.018222
C 87.290349 0.033425 0.029085
C 92.549091 0.023947 0.039186
C 93.769787 0.033425 0.029085
C 106.545141 0.030622 0.038653
C 105.336201 0.017167 0.030206
C 103.914672 0.025986 0.018222
C 102.703003 0.033425 0.029085
C 107.961745 0.023947 0.039186
C 109.182441 0.033425 0.029085
C 121.957794 0.030622 0.038653
C 120.748855 0.017167 0.030206
C 119.327326 0.025986 0.018222
C 118.115656 0.033425 0.029085
C 123.374398 0.023947 0.039186
C 124.595094 0.033425 0.029085
C 79.233371 -0.024168 -0.024225
C 80.027751 0.768838 -1.142330
C 79.523448 1.232035 -2.340509
C 80.561016 1.952035 -2.986361
C 81.668026 1.899941 -2.165427
N 81.355468 1.114670 -1.084170
C 83.056567 2.618886 -2.412359
C 84.192062 2.117703 -1.859295
C 85.478674 2.766632 -2.006984
C 86.387071 2.048689 -1.355280
N 84.400609 1.006446 -1.090823
C 85.725305 0.905617 -0.759517
C 86.389499 -0.024168 -0.024225
C 85.594822 -1.244250 0.600093
C 86.097624 -2.497848 0.883480
C 85.059644 -3.240146 1.502967
C 83.954196 -2.418497 1.572372
C 82.566582 -2.764523 2.250787
C 82.579093 -3.725409 3.376935
C 82.140725 -5.043001 3.193331
C 82.167370 -5.949687 4.255712
C 82.637262 -5.543670 5.511347
C 82.649338 -6.537261 6.611749
O 83.113507 -6.035052 7.771893
O 82.291509 -7.699747 6.540926
C 83.080103 -4.227819 5.697910
C 83.051155 -3.324516 4.632337
C 81.430567 -2.147711 1.832225
C 80.144663 -2.384197 2.455608
C 79.236108 -1.637271 1.837566
C 79.897307 -0.886374 0.789456
N 81.221332 -1.231522 0.839358
N 84.267530 -1.235151 0.952116
C 83.048174 3.861349 -3.217388
C 82.578163 5.056498 -2.660695
C 82.555265 6.227804 -3.422058
C 83.001303 6.209734 -4.749846
C 82.960481 7.474576 -5.522410
O 83.408442 7.336622 -6.785096
O 82.574254 8.557500 -5.119594
C 83.469132 5.014903 -5.311914
C 83.489596 3.846246 -4.546795
H 78.516257 1.088647 -2.701335
H 80.500916 2.467081 -3.933207
H 82.014869 0.802183 -0.377345
H 85.674769 3.678811 -2.541296
H 87.431587 2.293005 -1.289517
H 87.103930 -2.835662 0.687504
H 85.118261 -4.252055 1.874526
H 81.775579 -5.347878 2.214389
H 81.819810 -6.966634 4.095135
H 83.057926 -6.796119 8.383453
H 83.449622 -3.889942 6.661280
H 83.393901 -2.300339 4.767547
H 79.948849 -3.041968 3.283252
H 78.191863 -1.606017 2.089809
H 83.608790 -0.489832 0.745705
H 82.232565 5.061619 -1.628693
H 82.188447 7.146276 -2.971716
H 83.319899 8.238905 -7.151936
H 83.820545 4.976141 -6.338378
H 83.852739 2.912627 -4.972628
C 94.646024 -0.024168 -0.024225
C 95.440405 0.768838 -1.142330
C 94.936102 1.232035 -2.340509
C 95.973670 1.952035 -2.986361
C 97.080680 1.899941 -2.165427
N 96.768122 1.114670 -1.084170
C 98.469220 2.618886 -2.412359
C 99.604715 2.117703 -1.859295
C 100.891327 2.766632 -2.006984
C 101.799724 2.048689 -1.355280
N 99.813263 1.006446 -1.090823
C 101.137959 0.905617 -0.759517
C 101.802153 -0.024168 -0.024225
C 101.007476 -1.244250 0.600093
C 101.510278 -2.497848 0.883480
C 100.472298 -3.240146 1.502967
C 99.366850 -2.418497 1.572372
C 97.979236 -2.764523 2.250787
C 97.991747 -3.725409 3.376935
C 97.553378 -5.043001 3.193331
C 97.580023 -5.949687 4.255712
C 98.049915 -5.543670 5.511347
C 98.061992 -6.537261 6.611749
O 98.526161 -6.035052 7.771893
O 97.704163 -7.699747 6.540926
C 98.492757 -4.227819 5.697910
C 98.463809 -3.324516 4.632337
C 96.843221 -2.147711 1.832225
C 95.557317 -2.384197 2.455608
C 94.648761 -1.637271 1.837566
C 95.309961 -0.886374 0.789456
N 96.633985 -1.231522 0.839358
N 99.680184 -1.235151 0.952116
C 98.460828 3.861349 -3.217388
C 97.990817 5.056498 -2.660695
C 97.967918 6.227804 -3.422058
C 98.413956 6.209734 -4.749846
C 98.373134 7.474576 -5.522410
O 98.821096 7.336622 -6.785096
O 97.986908 8.557500 -5.119594
C 98.881786 5.014903 -5.311914
C 98.902249 3.846246 -4.546795
H 93.928911 1.088647 -2.701335
H 95.913569 2.467081 -3.933207
H 97.427522 0.802183 -0.377345
H 101.087423 3.678811 -2.541296
H 102.844240 2.293005 -1.289517
H 102.516584 -2.835662 0.687504
H 100.530915 -4.252055 1.874526
H 97.188232 -5.347878 2.214389
H 97.232464 -6.966634 4.095135
H 98.470579 -6.796119 8.383453
H 98.862276 -3.889942 6.661280
H 98.806555 -2.300339 4.767547
H 95.361502 -3.041968 3.283252
H 93.604516 -1.606017 2.089809
H 99.021443 -0.489832 0.745705
H 97.645219 5.061619 -1.628693
H 97.601100 7.146276 -2.971716
H 98.732553 8.238905 -7.151936
H 99.233199 4.976141 -6.338378
H 99.265392 2.912627 -4.972628
C 110.058678 -0.024168 -0.024225
C 110.853059 0.768838 -1.142330
C 110.348756 1.232035 -2.340509
C 111.386323 1.952035 -2.986361
C 112.493333 1.899941 -2.165427
N 112.180775 1.114670 -1.084170
C 113.881874 2.618886 -2.412359
C 115.017369 2.117703 -1.859295
C 116.303981 2.766632 -2.006984
C 117.212378 2.048689 -1.355280
N 115.225916 1.006446 -1.090823
C 116.550612 0.905617 -0.759517
C 117.214807 -0.024168 -0.024225
C 116.420129 -1.244250 0.600093
C 116.922932 -2.497848 0.883480
C 115.884951 -3.240146 1.502967
C 114.779503 -2.418497 1.572372
C 113.391889 -2.764523 2.250787
C 113.404400 -3.725409 3.376935
C 112.966032 -5.043001 3.193331
C 112.992677 -5.949687 4.255712
C 113.462569 -5.543670 5.511347
C 113.474645 -6.537261 6.611749
O 113.938814 -6.035052 7.771893
O 113.116817 -7.699747 6.540926
C 113.905410 -4.227819 5.697910
C 113.876463 -3.324516 4.632337
C 112.255874 -2.147711 1.832225
C 110.969971 -2.384197 2.455608
C 110.061415 -1.637271 1.837566
C 110.722614 -0.886374 0.789456
N 112.046639 -1.231522 0.839358
N 115.092837 -1.235151 0.952116
C 113.873481 3.861349 -3.217388
C 113.403470 5.056498 -2.660695
C 113.380572 6.227804 -3.422058
C 113.826610 6.209734 -4.749846
C 113.785788 7.474576 -5.522410
O 114.233750 7.336622 -6.785096
O 113.399561 8.557500 -5.119594
C 114.294439 5.014903 -5.311914
C 114.314903 3.846246 -4.546795
H 109.341565 1.088647 -2.701335
H 111.326223 2.467081 -3.933207
H 112.840176 0.802183 -0.377345
H 116.500076 3.678811 -2.541296
H 118.256894 2.293005 -1.289517
H 117.929238 -2.835662 0.687504
H 115.943569 -4.252055 1.874526
H 112.600886 -5.347878 2.214389
H 112.645117 -6.966634 4.095135
H 113.883233 -6.796119 8.383453
H 114.274929 -3.889942 6.661280
H 114.219208 -2.300339 4.767547
H 110.774156 -3.041968 3.283252
H 109.017170 -1.606017 2.089809
H 114.434097 -0.489832 0.745705
H 113.057873 5.061619 -1.628693
H 113.013754 7.146276 -2.971716
H 114.145206 8.238905 -7.151936
H 114.645852 4.976141 -6.338378
H 114.678046 2.912627 -4.972628
