 xtb: 6.5.1 (b24c23e)
          07302215403D

336370  0     0  0            999 V2000
   62.8084   -0.0761    0.0628 C   0  0  0  0  0  0  0  0  0  0  0  0
   63.4267   -1.3066   -0.1168 C   0  0  0  0  0  0  0  0  0  0  0  0
   62.7849   -2.5686   -0.2617 C   0  0  0  0  0  0  0  0  0  0  0  0
   63.7541   -3.5177   -0.4249 C   0  0  0  0  0  0  0  0  0  0  0  0
   65.0194   -2.8644   -0.3933 C   0  0  0  0  0  0  0  0  0  0  0  0
   64.7713   -1.5358   -0.1974 N   0  0  0  0  0  0  0  0  0  0  0  0
   66.2870   -3.4468   -0.5058 C   0  0  0  0  0  0  0  0  0  0  0  0
   67.4986   -2.7567   -0.4197 C   0  0  0  0  0  0  0  0  0  0  0  0
   68.7999   -3.3784   -0.5890 C   0  0  0  0  0  0  0  0  0  0  0  0
   69.7138   -2.3972   -0.4425 C   0  0  0  0  0  0  0  0  0  0  0  0
   67.6435   -1.4220   -0.1954 N   0  0  0  0  0  0  0  0  0  0  0  0
   68.9696   -1.1770   -0.1959 C   0  0  0  0  0  0  0  0  0  0  0  0
   69.5974    0.0687    0.0046 C   0  0  0  0  0  0  0  0  0  0  0  0
   68.9534    1.3043    0.2032 C   0  0  0  0  0  0  0  0  0  0  0  0
   69.5895    2.5547    0.4247 C   0  0  0  0  0  0  0  0  0  0  0  0
   68.6159    3.5037    0.5687 C   0  0  0  0  0  0  0  0  0  0  0  0
   67.3538    2.8616    0.4312 C   0  0  0  0  0  0  0  0  0  0  0  0
   66.0870    3.4472    0.5282 C   0  0  0  0  0  0  0  0  0  0  0  0
   66.0432    4.9124    0.7443 C   0  0  0  0  0  0  0  0  0  0  0  0
   66.6003    5.7843   -0.1952 C   0  0  0  0  0  0  0  0  0  0  0  0
   66.5512    7.1514    0.0055 C   0  0  0  0  0  0  0  0  0  0  0  0
   65.9495    7.6731    1.1523 C   0  0  0  0  0  0  0  0  0  0  0  0
   65.9211    9.1454    1.3224 C   0  0  0  0  0  0  0  0  0  0  0  0
   65.3149    9.5441    2.4510 O   0  0  0  0  0  0  0  0  0  0  0  0
   66.3899    9.9300    0.5374 O   0  0  0  0  0  0  0  0  0  0  0  0
   65.3962    6.8070    2.0959 C   0  0  0  0  0  0  0  0  0  0  0  0
   65.4418    5.4394    1.8904 C   0  0  0  0  0  0  0  0  0  0  0  0
   64.8745    2.7548    0.4368 C   0  0  0  0  0  0  0  0  0  0  0  0
   63.5648    3.3867    0.4893 C   0  0  0  0  0  0  0  0  0  0  0  0
   62.6582    2.3973    0.3620 C   0  0  0  0  0  0  0  0  0  0  0  0
   63.4123    1.1642    0.2196 C   0  0  0  0  0  0  0  0  0  0  0  0
   64.7434    1.4190    0.2620 N   0  0  0  0  0  0  0  0  0  0  0  0
   67.6098    1.5330    0.2186 N   0  0  0  0  0  0  0  0  0  0  0  0
   66.3261   -4.9108   -0.7368 C   0  0  0  0  0  0  0  0  0  0  0  0
   65.7501   -5.4587   -1.8858 C   0  0  0  0  0  0  0  0  0  0  0  0
   65.7840   -6.8242   -2.1076 C   0  0  0  0  0  0  0  0  0  0  0  0
   66.3910   -7.6670   -1.1761 C   0  0  0  0  0  0  0  0  0  0  0  0
   66.4492   -9.1363   -1.3648 C   0  0  0  0  0  0  0  0  0  0  0  0
   65.8741   -9.5545   -2.5027 O   0  0  0  0  0  0  0  0  0  0  0  0
   66.9571   -9.9027   -0.5865 O   0  0  0  0  0  0  0  0  0  0  0  0
   66.9651   -7.1242   -0.0250 C   0  0  0  0  0  0  0  0  0  0  0  0
   66.9356   -5.7590    0.1915 C   0  0  0  0  0  0  0  0  0  0  0  0
   61.7233   -0.0952    0.0773 H   0  0  0  0  0  0  0  0  0  0  0  0
   61.7173   -2.7180   -0.2368 H   0  0  0  0  0  0  0  0  0  0  0  0
   63.6117   -4.5792   -0.5472 H   0  0  0  0  0  0  0  0  0  0  0  0
   65.4908   -0.8249   -0.1186 H   0  0  0  0  0  0  0  0  0  0  0  0
   68.9690   -4.4210   -0.8038 H   0  0  0  0  0  0  0  0  0  0  0  0
   70.7883   -2.4645   -0.5006 H   0  0  0  0  0  0  0  0  0  0  0  0
   70.6568    2.6985    0.4722 H   0  0  0  0  0  0  0  0  0  0  0  0
   68.7563    4.5542    0.7641 H   0  0  0  0  0  0  0  0  0  0  0  0
   67.0545    5.3826   -1.0940 H   0  0  0  0  0  0  0  0  0  0  0  0
   66.9750    7.8336   -0.7233 H   0  0  0  0  0  0  0  0  0  0  0  0
   65.3378   10.5141    2.4860 H   0  0  0  0  0  0  0  0  0  0  0  0
   64.9325    7.2072    2.9898 H   0  0  0  0  0  0  0  0  0  0  0  0
   65.0234    4.7662    2.6301 H   0  0  0  0  0  0  0  0  0  0  0  0
   63.3882    4.4449    0.5951 H   0  0  0  0  0  0  0  0  0  0  0  0
   61.5816    2.4647    0.3522 H   0  0  0  0  0  0  0  0  0  0  0  0
   66.8925    0.8251    0.1006 H   0  0  0  0  0  0  0  0  0  0  0  0
   65.2899   -4.8029   -2.6163 H   0  0  0  0  0  0  0  0  0  0  0  0
   65.3411   -7.2404   -3.0046 H   0  0  0  0  0  0  0  0  0  0  0  0
   65.9554  -10.5209   -2.5509 H   0  0  0  0  0  0  0  0  0  0  0  0
   67.4311   -7.7889    0.6941 H   0  0  0  0  0  0  0  0  0  0  0  0
   67.3709   -5.3407    1.0918 H   0  0  0  0  0  0  0  0  0  0  0  0
  133.6488    0.1114    0.0855 C   0  0  0  0  0  0  0  0  0  0  0  0
  133.0252    1.2910    0.4707 C   0  0  0  0  0  0  0  0  0  0  0  0
  133.6613    2.4894    0.9007 C   0  0  0  0  0  0  0  0  0  0  0  0
  132.6879    3.4082    1.1741 C   0  0  0  0  0  0  0  0  0  0  0  0
  131.4254    2.8034    0.9105 C   0  0  0  0  0  0  0  0  0  0  0  0
  131.6795    1.5264    0.4987 N   0  0  0  0  0  0  0  0  0  0  0  0
  130.1552    3.3714    1.0601 C   0  0  0  0  0  0  0  0  0  0  0  0
  128.9470    2.7100    0.8259 C   0  0  0  0  0  0  0  0  0  0  0  0
  127.6436    3.3413    0.9322 C   0  0  0  0  0  0  0  0  0  0  0  0
  126.7337    2.3912    0.6343 C   0  0  0  0  0  0  0  0  0  0  0  0
  128.8075    1.4094    0.4501 N   0  0  0  0  0  0  0  0  0  0  0  0
  127.4825    1.1850    0.3376 C   0  0  0  0  0  0  0  0  0  0  0  0
  126.8594   -0.0324   -0.0027 C   0  0  0  0  0  0  0  0  0  0  0  0
  127.5087   -1.2334   -0.3439 C   0  0  0  0  0  0  0  0  0  0  0  0
  126.8790   -2.4638   -0.6707 C   0  0  0  0  0  0  0  0  0  0  0  0
  127.8569   -3.3743   -0.9606 C   0  0  0  0  0  0  0  0  0  0  0  0
  129.1152   -2.7241   -0.8268 C   0  0  0  0  0  0  0  0  0  0  0  0
  130.3846   -3.2821   -1.0133 C   0  0  0  0  0  0  0  0  0  0  0  0
  130.4340   -4.6933   -1.4624 C   0  0  0  0  0  0  0  0  0  0  0  0
  129.8603   -5.0685   -2.6804 C   0  0  0  0  0  0  0  0  0  0  0  0
  129.9151   -6.3840   -3.1023 C   0  0  0  0  0  0  0  0  0  0  0  0
  130.5392   -7.3511   -2.3120 C   0  0  0  0  0  0  0  0  0  0  0  0
  130.5727   -8.7478   -2.8076 C   0  0  0  0  0  0  0  0  0  0  0  0
  131.2014   -9.5963   -1.9800 O   0  0  0  0  0  0  0  0  0  0  0  0
  130.0894   -9.1117   -3.8495 O   0  0  0  0  0  0  0  0  0  0  0  0
  131.1089   -6.9830   -1.0928 C   0  0  0  0  0  0  0  0  0  0  0  0
  131.0576   -5.6648   -0.6750 C   0  0  0  0  0  0  0  0  0  0  0  0
  131.5942   -2.6090   -0.8094 C   0  0  0  0  0  0  0  0  0  0  0  0
  132.9059   -3.1892   -1.0546 C   0  0  0  0  0  0  0  0  0  0  0  0
  133.8086   -2.2382   -0.7416 C   0  0  0  0  0  0  0  0  0  0  0  0
  133.0497   -1.0742   -0.3187 C   0  0  0  0  0  0  0  0  0  0  0  0
  131.7200   -1.3313   -0.3805 N   0  0  0  0  0  0  0  0  0  0  0  0
  128.8530   -1.4356   -0.4437 N   0  0  0  0  0  0  0  0  0  0  0  0
  130.1075    4.7853    1.5030 C   0  0  0  0  0  0  0  0  0  0  0  0
  130.6881    5.7902    0.7250 C   0  0  0  0  0  0  0  0  0  0  0  0
  130.6458    7.1112    1.1356 C   0  0  0  0  0  0  0  0  0  0  0  0
  130.0255    7.4478    2.3391 C   0  0  0  0  0  0  0  0  0  0  0  0
  129.9573    8.8466    2.8252 C   0  0  0  0  0  0  0  0  0  0  0  0
  130.5390    9.7306    2.0005 O   0  0  0  0  0  0  0  0  0  0  0  0
  129.4374    9.1831    3.8587 O   0  0  0  0  0  0  0  0  0  0  0  0
  129.4465    6.4466    3.1212 C   0  0  0  0  0  0  0  0  0  0  0  0
  129.4845    5.1284    2.7059 C   0  0  0  0  0  0  0  0  0  0  0  0
  134.7339    0.1283    0.1027 H   0  0  0  0  0  0  0  0  0  0  0  0
  134.7283    2.6168    0.9907 H   0  0  0  0  0  0  0  0  0  0  0  0
  132.8256    4.4145    1.5353 H   0  0  0  0  0  0  0  0  0  0  0  0
  130.9632    0.8509    0.2540 H   0  0  0  0  0  0  0  0  0  0  0  0
  127.4708    4.3744    1.1866 H   0  0  0  0  0  0  0  0  0  0  0  0
  125.6593    2.4749    0.6034 H   0  0  0  0  0  0  0  0  0  0  0  0
  125.8128   -2.6231   -0.6757 H   0  0  0  0  0  0  0  0  0  0  0  0
  127.7222   -4.4083   -1.2330 H   0  0  0  0  0  0  0  0  0  0  0  0
  129.3886   -4.3169   -3.3031 H   0  0  0  0  0  0  0  0  0  0  0  0
  129.4786   -6.6802   -4.0499 H   0  0  0  0  0  0  0  0  0  0  0  0
  131.1805  -10.4831   -2.3749 H   0  0  0  0  0  0  0  0  0  0  0  0
  131.5900   -7.7311   -0.4739 H   0  0  0  0  0  0  0  0  0  0  0  0
  131.4890   -5.3817    0.2785 H   0  0  0  0  0  0  0  0  0  0  0  0
  133.0864   -4.1843   -1.4278 H   0  0  0  0  0  0  0  0  0  0  0  0
  134.8851   -2.2862   -0.7908 H   0  0  0  0  0  0  0  0  0  0  0  0
  129.5667   -0.7388   -0.2571 H   0  0  0  0  0  0  0  0  0  0  0  0
  131.1584    5.5311   -0.2168 H   0  0  0  0  0  0  0  0  0  0  0  0
  131.0923    7.8854    0.5231 H   0  0  0  0  0  0  0  0  0  0  0  0
  130.4510   10.6166    2.3880 H   0  0  0  0  0  0  0  0  0  0  0  0
  128.9701    6.7190    4.0564 H   0  0  0  0  0  0  0  0  0  0  0  0
  129.0452    4.3509    3.3204 H   0  0  0  0  0  0  0  0  0  0  0  0
   74.8002    0.1344    0.0355 C   0  0  0  0  0  0  0  0  0  0  0  0
   73.5722    0.1263    0.0247 C   0  0  0  0  0  0  0  0  0  0  0  0
   72.2274    0.1128    0.0166 C   0  0  0  0  0  0  0  0  0  0  0  0
   71.0039    0.0937    0.0078 C   0  0  0  0  0  0  0  0  0  0  0  0
   76.1449    0.1388    0.0437 C   0  0  0  0  0  0  0  0  0  0  0  0
   77.3687    0.1373    0.0533 C   0  0  0  0  0  0  0  0  0  0  0  0
   90.8293   -0.0436   -0.0556 C   0  0  0  0  0  0  0  0  0  0  0  0
   89.6005   -0.0370   -0.0502 C   0  0  0  0  0  0  0  0  0  0  0  0
   88.2574   -0.0230   -0.0417 C   0  0  0  0  0  0  0  0  0  0  0  0
   87.0332   -0.0019   -0.0292 C   0  0  0  0  0  0  0  0  0  0  0  0
   92.1724   -0.0432   -0.0539 C   0  0  0  0  0  0  0  0  0  0  0  0
   93.3968   -0.0381   -0.0439 C   0  0  0  0  0  0  0  0  0  0  0  0
  106.8552   -0.0322   -0.0367 C   0  0  0  0  0  0  0  0  0  0  0  0
  105.6264   -0.0339   -0.0452 C   0  0  0  0  0  0  0  0  0  0  0  0
  104.2833   -0.0284   -0.0472 C   0  0  0  0  0  0  0  0  0  0  0  0
  103.0589   -0.0215   -0.0410 C   0  0  0  0  0  0  0  0  0  0  0  0
  108.1983   -0.0292   -0.0231 C   0  0  0  0  0  0  0  0  0  0  0  0
  109.4226   -0.0235   -0.0032 C   0  0  0  0  0  0  0  0  0  0  0  0
  122.8845   -0.0909    0.0105 C   0  0  0  0  0  0  0  0  0  0  0  0
  121.6564   -0.0910    0.0226 C   0  0  0  0  0  0  0  0  0  0  0  0
  120.3117   -0.0838    0.0361 C   0  0  0  0  0  0  0  0  0  0  0  0
  119.0880   -0.0679    0.0480 C   0  0  0  0  0  0  0  0  0  0  0  0
  124.2294   -0.0809    0.0017 C   0  0  0  0  0  0  0  0  0  0  0  0
  125.4529   -0.0619   -0.0043 C   0  0  0  0  0  0  0  0  0  0  0  0
   78.7744    0.1311    0.0563 C   0  0  0  0  0  0  0  0  0  0  0  0
   79.4055    1.0699   -0.7819 C   0  0  0  0  0  0  0  0  0  0  0  0
   78.7601    2.0017   -1.6356 C   0  0  0  0  0  0  0  0  0  0  0  0
   79.7277    2.7341   -2.2671 C   0  0  0  0  0  0  0  0  0  0  0  0
   80.9930    2.2744   -1.8104 C   0  0  0  0  0  0  0  0  0  0  0  0
   80.7476    1.2632   -0.9210 N   0  0  0  0  0  0  0  0  0  0  0  0
   82.2555    2.7346   -2.2051 C   0  0  0  0  0  0  0  0  0  0  0  0
   83.4787    2.2181   -1.7745 C   0  0  0  0  0  0  0  0  0  0  0  0
   84.7688    2.7579   -2.1659 C   0  0  0  0  0  0  0  0  0  0  0  0
   85.7017    1.9982   -1.5559 C   0  0  0  0  0  0  0  0  0  0  0  0
   83.6493    1.1663   -0.9270 N   0  0  0  0  0  0  0  0  0  0  0  0
   84.9801    1.0049   -0.7850 C   0  0  0  0  0  0  0  0  0  0  0  0
   85.6296    0.0235   -0.0091 C   0  0  0  0  0  0  0  0  0  0  0  0
   84.9974   -0.9386    0.8021 C   0  0  0  0  0  0  0  0  0  0  0  0
   85.6405   -1.9390    1.5760 C   0  0  0  0  0  0  0  0  0  0  0  0
   84.6731   -2.6494    2.2325 C   0  0  0  0  0  0  0  0  0  0  0  0
   83.4107   -2.0973    1.8827 C   0  0  0  0  0  0  0  0  0  0  0  0
   82.1497   -2.5234    2.3175 C   0  0  0  0  0  0  0  0  0  0  0  0
   82.1348   -3.6321    3.3023 C   0  0  0  0  0  0  0  0  0  0  0  0
   81.5229   -4.8493    2.9918 C   0  0  0  0  0  0  0  0  0  0  0  0
   81.5172   -5.8817    3.9116 C   0  0  0  0  0  0  0  0  0  0  0  0
   82.1180   -5.7151    5.1608 C   0  0  0  0  0  0  0  0  0  0  0  0
   82.0859   -6.8509    6.1133 C   0  0  0  0  0  0  0  0  0  0  0  0
   82.6851   -6.5864    7.2841 O   0  0  0  0  0  0  0  0  0  0  0  0
   81.5774   -7.9181    5.8821 O   0  0  0  0  0  0  0  0  0  0  0  0
   82.7272   -4.5005    5.4770 C   0  0  0  0  0  0  0  0  0  0  0  0
   82.7371   -3.4706    4.5527 C   0  0  0  0  0  0  0  0  0  0  0  0
   80.9265   -1.9930    1.9036 C   0  0  0  0  0  0  0  0  0  0  0  0
   79.6389   -2.4340    2.4101 C   0  0  0  0  0  0  0  0  0  0  0  0
   78.7053   -1.6980    1.7729 C   0  0  0  0  0  0  0  0  0  0  0  0
   79.4242   -0.8005    0.8900 C   0  0  0  0  0  0  0  0  0  0  0  0
   80.7548   -0.9934    0.9958 N   0  0  0  0  0  0  0  0  0  0  0  0
   83.6571   -1.0730    1.0084 N   0  0  0  0  0  0  0  0  0  0  0  0
   82.2750    3.8663   -3.1632 C   0  0  0  0  0  0  0  0  0  0  0  0
   81.7099    5.0966   -2.8170 C   0  0  0  0  0  0  0  0  0  0  0  0
   81.7335    6.1517   -3.7104 C   0  0  0  0  0  0  0  0  0  0  0  0
   82.3173    5.9951   -4.9688 C   0  0  0  0  0  0  0  0  0  0  0  0
   82.3162    7.1550   -5.8924 C   0  0  0  0  0  0  0  0  0  0  0  0
   82.9037    6.9027   -7.0717 O   0  0  0  0  0  0  0  0  0  0  0  0
   81.8402    8.2307   -5.6323 O   0  0  0  0  0  0  0  0  0  0  0  0
   82.8796    4.7678   -5.3208 C   0  0  0  0  0  0  0  0  0  0  0  0
   82.8593    3.7147   -4.4233 C   0  0  0  0  0  0  0  0  0  0  0  0
   77.6918    2.0902   -1.7497 H   0  0  0  0  0  0  0  0  0  0  0  0
   79.5798    3.5166   -2.9932 H   0  0  0  0  0  0  0  0  0  0  0  0
   81.4669    0.7311   -0.4428 H   0  0  0  0  0  0  0  0  0  0  0  0
   84.9189    3.6107   -2.8078 H   0  0  0  0  0  0  0  0  0  0  0  0
   86.7754    2.0861   -1.5994 H   0  0  0  0  0  0  0  0  0  0  0  0
   86.7068   -2.0917    1.6158 H   0  0  0  0  0  0  0  0  0  0  0  0
   84.8188   -3.4887    2.8927 H   0  0  0  0  0  0  0  0  0  0  0  0
   81.0671   -4.9850    2.0177 H   0  0  0  0  0  0  0  0  0  0  0  0
   81.0496   -6.8312    3.6751 H   0  0  0  0  0  0  0  0  0  0  0  0
   82.6210   -7.3746    7.8475 H   0  0  0  0  0  0  0  0  0  0  0  0
   83.1912   -4.3651    6.4468 H   0  0  0  0  0  0  0  0  0  0  0  0
   83.2000   -2.5228    4.8033 H   0  0  0  0  0  0  0  0  0  0  0  0
   79.4917   -3.1946    3.1596 H   0  0  0  0  0  0  0  0  0  0  0  0
   77.6330   -1.7320    1.8792 H   0  0  0  0  0  0  0  0  0  0  0  0
   82.9393   -0.5014    0.5756 H   0  0  0  0  0  0  0  0  0  0  0  0
   81.2686    5.2250   -1.8351 H   0  0  0  0  0  0  0  0  0  0  0  0
   81.3026    7.1110   -3.4456 H   0  0  0  0  0  0  0  0  0  0  0  0
   82.8627    7.7070   -7.6141 H   0  0  0  0  0  0  0  0  0  0  0  0
   83.3305    4.6407   -6.2979 H   0  0  0  0  0  0  0  0  0  0  0  0
   83.2853    2.7573   -4.7014 H   0  0  0  0  0  0  0  0  0  0  0  0
   94.8006   -0.0264   -0.0339 C   0  0  0  0  0  0  0  0  0  0  0  0
   95.4245    0.9106   -0.8807 C   0  0  0  0  0  0  0  0  0  0  0  0
   94.7720    1.8220   -1.7504 C   0  0  0  0  0  0  0  0  0  0  0  0
   95.7328    2.5745   -2.3689 C   0  0  0  0  0  0  0  0  0  0  0  0
   97.0004    2.1467   -1.8888 C   0  0  0  0  0  0  0  0  0  0  0  0
   96.7637    1.1322   -1.0006 N   0  0  0  0  0  0  0  0  0  0  0  0
   98.2579    2.6390   -2.2603 C   0  0  0  0  0  0  0  0  0  0  0  0
   99.4855    2.1470   -1.8143 C   0  0  0  0  0  0  0  0  0  0  0  0
  100.7699    2.7125   -2.1871 C   0  0  0  0  0  0  0  0  0  0  0  0
  101.7094    1.9657   -1.5710 C   0  0  0  0  0  0  0  0  0  0  0  0
   99.6654    1.0943   -0.9694 N   0  0  0  0  0  0  0  0  0  0  0  0
  100.9970    0.9563   -0.8126 C   0  0  0  0  0  0  0  0  0  0  0  0
  101.6551   -0.0156   -0.0316 C   0  0  0  0  0  0  0  0  0  0  0  0
  101.0313   -0.9836    0.7796 C   0  0  0  0  0  0  0  0  0  0  0  0
  101.6838   -1.9685    1.5651 C   0  0  0  0  0  0  0  0  0  0  0  0
  100.7228   -2.6852    2.2244 C   0  0  0  0  0  0  0  0  0  0  0  0
   99.4551   -2.1532    1.8636 C   0  0  0  0  0  0  0  0  0  0  0  0
   98.1976   -2.5899    2.2987 C   0  0  0  0  0  0  0  0  0  0  0  0
   98.1913   -3.6809    3.3031 C   0  0  0  0  0  0  0  0  0  0  0  0
   97.5927   -4.9099    3.0137 C   0  0  0  0  0  0  0  0  0  0  0  0
   97.5894   -5.9229    3.9548 C   0  0  0  0  0  0  0  0  0  0  0  0
   98.1795   -5.7248    5.2045 C   0  0  0  0  0  0  0  0  0  0  0  0
   98.1464   -6.8393    6.1820 C   0  0  0  0  0  0  0  0  0  0  0  0
   98.7370   -6.5458    7.3503 O   0  0  0  0  0  0  0  0  0  0  0  0
   97.6443   -7.9139    5.9715 O   0  0  0  0  0  0  0  0  0  0  0  0
   98.7775   -4.4992    5.4989 C   0  0  0  0  0  0  0  0  0  0  0  0
   98.7850   -3.4888    4.5533 C   0  0  0  0  0  0  0  0  0  0  0  0
   96.9700   -2.0831    1.8698 C   0  0  0  0  0  0  0  0  0  0  0  0
   95.6854   -2.5321    2.3765 C   0  0  0  0  0  0  0  0  0  0  0  0
   94.7460   -1.8216    1.7189 C   0  0  0  0  0  0  0  0  0  0  0  0
   95.4585   -0.9312    0.8238 C   0  0  0  0  0  0  0  0  0  0  0  0
   96.7903   -1.1026    0.9420 N   0  0  0  0  0  0  0  0  0  0  0  0
   99.6919   -1.1346    0.9800 N   0  0  0  0  0  0  0  0  0  0  0  0
   98.2638    3.7823   -3.2047 C   0  0  0  0  0  0  0  0  0  0  0  0
   97.6636    4.9930   -2.8482 C   0  0  0  0  0  0  0  0  0  0  0  0
   97.6727    6.0617   -3.7252 C   0  0  0  0  0  0  0  0  0  0  0  0
   98.2765    5.9385   -4.9780 C   0  0  0  0  0  0  0  0  0  0  0  0
   98.2578    7.1120   -5.8841 C   0  0  0  0  0  0  0  0  0  0  0  0
   98.8647    6.8921   -7.0599 O   0  0  0  0  0  0  0  0  0  0  0  0
   97.7522    8.1715   -5.6137 O   0  0  0  0  0  0  0  0  0  0  0  0
   98.8736    4.7308   -5.3404 C   0  0  0  0  0  0  0  0  0  0  0  0
   98.8681    3.6639   -4.4588 C   0  0  0  0  0  0  0  0  0  0  0  0
   93.7040    1.8851   -1.8827 H   0  0  0  0  0  0  0  0  0  0  0  0
   95.5791    3.3504   -3.1009 H   0  0  0  0  0  0  0  0  0  0  0  0
   97.4872    0.6207   -0.5064 H   0  0  0  0  0  0  0  0  0  0  0  0
  100.9119    3.5712   -2.8229 H   0  0  0  0  0  0  0  0  0  0  0  0
  102.7818    2.0731   -1.6015 H   0  0  0  0  0  0  0  0  0  0  0  0
  102.7519   -2.1066    1.6115 H   0  0  0  0  0  0  0  0  0  0  0  0
  100.8763   -3.5161    2.8935 H   0  0  0  0  0  0  0  0  0  0  0  0
   97.1444   -5.0697    2.0398 H   0  0  0  0  0  0  0  0  0  0  0  0
   97.1310   -6.8810    3.7353 H   0  0  0  0  0  0  0  0  0  0  0  0
   98.6729   -7.3215    7.9308 H   0  0  0  0  0  0  0  0  0  0  0  0
   99.2337   -4.3396    6.4687 H   0  0  0  0  0  0  0  0  0  0  0  0
   99.2384   -2.5320    4.7871 H   0  0  0  0  0  0  0  0  0  0  0  0
   95.5434   -3.2798    3.1397 H   0  0  0  0  0  0  0  0  0  0  0  0
   93.6735   -1.8686    1.8188 H   0  0  0  0  0  0  0  0  0  0  0  0
   98.9684   -0.5766    0.5391 H   0  0  0  0  0  0  0  0  0  0  0  0
   97.2059    5.0952   -1.8707 H   0  0  0  0  0  0  0  0  0  0  0  0
   97.2147    7.0061   -3.4520 H   0  0  0  0  0  0  0  0  0  0  0  0
   98.8100    7.7033   -7.5908 H   0  0  0  0  0  0  0  0  0  0  0  0
   99.3399    4.6296   -6.3133 H   0  0  0  0  0  0  0  0  0  0  0  0
   99.3211    2.7217   -4.7456 H   0  0  0  0  0  0  0  0  0  0  0  0
  110.8263   -0.0160    0.0184 C   0  0  0  0  0  0  0  0  0  0  0  0
  111.4608    0.9177   -0.8236 C   0  0  0  0  0  0  0  0  0  0  0  0
  110.8200    1.8303   -1.7009 C   0  0  0  0  0  0  0  0  0  0  0  0
  111.7894    2.5786   -2.3107 C   0  0  0  0  0  0  0  0  0  0  0  0
  113.0509    2.1476   -1.8169 C   0  0  0  0  0  0  0  0  0  0  0  0
  112.8019    1.1348   -0.9301 N   0  0  0  0  0  0  0  0  0  0  0  0
  114.3134    2.6373   -2.1734 C   0  0  0  0  0  0  0  0  0  0  0  0
  115.5352    2.1433   -1.7124 C   0  0  0  0  0  0  0  0  0  0  0  0
  116.8241    2.7110   -2.0660 C   0  0  0  0  0  0  0  0  0  0  0  0
  117.7562    1.9578   -1.4466 C   0  0  0  0  0  0  0  0  0  0  0  0
  115.7044    1.0844   -0.8741 N   0  0  0  0  0  0  0  0  0  0  0  0
  117.0349    0.9412   -0.7063 C   0  0  0  0  0  0  0  0  0  0  0  0
  117.6824   -0.0488    0.0591 C   0  0  0  0  0  0  0  0  0  0  0  0
  117.0483   -1.0262    0.8495 C   0  0  0  0  0  0  0  0  0  0  0  0
  117.6892   -2.0303    1.6204 C   0  0  0  0  0  0  0  0  0  0  0  0
  116.7199   -2.7467    2.2676 C   0  0  0  0  0  0  0  0  0  0  0  0
  115.4581   -2.1953    1.9143 C   0  0  0  0  0  0  0  0  0  0  0  0
  114.1955   -2.6227    2.3439 C   0  0  0  0  0  0  0  0  0  0  0  0
  114.1734   -3.7272    3.3329 C   0  0  0  0  0  0  0  0  0  0  0  0
  113.5476   -4.9391    3.0285 C   0  0  0  0  0  0  0  0  0  0  0  0
  113.5233   -5.9643    3.9558 C   0  0  0  0  0  0  0  0  0  0  0  0
  114.1200   -5.7961    5.2068 C   0  0  0  0  0  0  0  0  0  0  0  0
  114.0607   -6.9213    6.1704 C   0  0  0  0  0  0  0  0  0  0  0  0
  114.6562   -6.6557    7.3429 O   0  0  0  0  0  0  0  0  0  0  0  0
  113.5345   -7.9816    5.9464 O   0  0  0  0  0  0  0  0  0  0  0  0
  114.7470   -4.5887    5.5155 C   0  0  0  0  0  0  0  0  0  0  0  0
  114.7751   -3.5658    4.5837 C   0  0  0  0  0  0  0  0  0  0  0  0
  112.9737   -2.0965    1.9210 C   0  0  0  0  0  0  0  0  0  0  0  0
  111.6842   -2.5335    2.4260 C   0  0  0  0  0  0  0  0  0  0  0  0
  110.7524   -1.8113    1.7704 C   0  0  0  0  0  0  0  0  0  0  0  0
  111.4745   -0.9254    0.8787 C   0  0  0  0  0  0  0  0  0  0  0  0
  112.8045   -1.1095    0.9983 N   0  0  0  0  0  0  0  0  0  0  0  0
  115.7068   -1.1663    1.0464 N   0  0  0  0  0  0  0  0  0  0  0  0
  114.3323    3.7758   -3.1232 C   0  0  0  0  0  0  0  0  0  0  0  0
  113.7266    4.9886   -2.7837 C   0  0  0  0  0  0  0  0  0  0  0  0
  113.7430    6.0495   -3.6702 C   0  0  0  0  0  0  0  0  0  0  0  0
  114.3594    5.9158   -4.9158 C   0  0  0  0  0  0  0  0  0  0  0  0
  114.3449    7.0796   -5.8343 C   0  0  0  0  0  0  0  0  0  0  0  0
  114.9569    6.8472   -7.0050 O   0  0  0  0  0  0  0  0  0  0  0  0
  113.8381    8.1420   -5.5776 O   0  0  0  0  0  0  0  0  0  0  0  0
  114.9639    4.7065   -5.2604 C   0  0  0  0  0  0  0  0  0  0  0  0
  114.9515    3.6479   -4.3691 C   0  0  0  0  0  0  0  0  0  0  0  0
  109.7536    1.8965   -1.8439 H   0  0  0  0  0  0  0  0  0  0  0  0
  111.6455    3.3538   -3.0453 H   0  0  0  0  0  0  0  0  0  0  0  0
  113.5183    0.6203   -0.4288 H   0  0  0  0  0  0  0  0  0  0  0  0
  116.9733    3.5755   -2.6923 H   0  0  0  0  0  0  0  0  0  0  0  0
  118.8289    2.0645   -1.4645 H   0  0  0  0  0  0  0  0  0  0  0  0
  118.7558   -2.1801    1.6661 H   0  0  0  0  0  0  0  0  0  0  0  0
  116.8637   -3.5894    2.9239 H   0  0  0  0  0  0  0  0  0  0  0  0
  113.0935   -5.0755    2.0537 H   0  0  0  0  0  0  0  0  0  0  0  0
  113.0424   -6.9084    3.7248 H   0  0  0  0  0  0  0  0  0  0  0  0
  114.5725   -7.4365    7.9141 H   0  0  0  0  0  0  0  0  0  0  0  0
  115.2090   -4.4525    6.4861 H   0  0  0  0  0  0  0  0  0  0  0  0
  115.2497   -2.6226    4.8296 H   0  0  0  0  0  0  0  0  0  0  0  0
  111.5337   -3.2815    3.1874 H   0  0  0  0  0  0  0  0  0  0  0  0
  109.6795   -1.8475    1.8698 H   0  0  0  0  0  0  0  0  0  0  0  0
  114.9900   -0.5941    0.6128 H   0  0  0  0  0  0  0  0  0  0  0  0
  113.2580    5.0986   -1.8123 H   0  0  0  0  0  0  0  0  0  0  0  0
  113.2799    6.9951   -3.4107 H   0  0  0  0  0  0  0  0  0  0  0  0
  114.9038    7.6525   -7.5449 H   0  0  0  0  0  0  0  0  0  0  0  0
  115.4407    4.5975   -6.2273 H   0  0  0  0  0  0  0  0  0  0  0  0
  115.4099    2.7042   -4.6422 H   0  0  0  0  0  0  0  0  0  0  0  0
  1  2  4  0  0  0  0
  2  3  4  0  0  0  0
  3  4  2  0  0  0  0
  4  5  4  0  0  0  0
  2  6  4  0  0  0  0
  5  6  4  0  0  0  0
  5  7  4  0  0  0  0
  7  8  4  0  0  0  0
  8  9  1  0  0  0  0
  9 10  2  0  0  0  0
  8 11  4  0  0  0  0
 10 12  1  0  0  0  0
 11 12  4  0  0  0  0
 12 13  4  0  0  0  0
 13 14  4  0  0  0  0
 14 15  4  0  0  0  0
 15 16  2  0  0  0  0
 16 17  4  0  0  0  0
 17 18  4  0  0  0  0
 18 19  1  0  0  0  0
 19 20  4  0  0  0  0
 20 21  4  0  0  0  0
 21 22  4  0  0  0  0
 22 23  1  0  0  0  0
 23 24  4  0  0  0  0
 23 25  2  0  0  0  0
 22 26  4  0  0  0  0
 19 27  4  0  0  0  0
 26 27  4  0  0  0  0
 18 28  4  0  0  0  0
 28 29  1  0  0  0  0
 29 30  2  0  0  0  0
  1 31  4  0  0  0  0
 30 31  1  0  0  0  0
 28 32  4  0  0  0  0
 31 32  4  0  0  0  0
 14 33  4  0  0  0  0
 17 33  4  0  0  0  0
  7 34  1  0  0  0  0
 34 35  4  0  0  0  0
 35 36  4  0  0  0  0
 36 37  4  0  0  0  0
 37 38  1  0  0  0  0
 38 39  4  0  0  0  0
 38 40  2  0  0  0  0
 37 41  4  0  0  0  0
 34 42  4  0  0  0  0
 41 42  4  0  0  0  0
  1 43  1  0  0  0  0
  3 44  1  0  0  0  0
  4 45  1  0  0  0  0
  6 46  1  0  0  0  0
  9 47  1  0  0  0  0
 10 48  1  0  0  0  0
 15 49  1  0  0  0  0
 16 50  1  0  0  0  0
 20 51  1  0  0  0  0
 21 52  1  0  0  0  0
 24 53  1  0  0  0  0
 26 54  1  0  0  0  0
 27 55  1  0  0  0  0
 29 56  1  0  0  0  0
 30 57  1  0  0  0  0
 33 58  1  0  0  0  0
 35 59  1  0  0  0  0
 36 60  1  0  0  0  0
 39 61  1  0  0  0  0
 41 62  1  0  0  0  0
 42 63  1  0  0  0  0
 64 65  4  0  0  0  0
 65 66  4  0  0  0  0
 66 67  2  0  0  0  0
 67 68  4  0  0  0  0
 65 69  4  0  0  0  0
 68 69  4  0  0  0  0
 68 70  4  0  0  0  0
 70 71  4  0  0  0  0
 71 72  1  0  0  0  0
 72 73  2  0  0  0  0
 71 74  4  0  0  0  0
 73 75  1  0  0  0  0
 74 75  4  0  0  0  0
 75 76  4  0  0  0  0
 76 77  4  0  0  0  0
 77 78  4  0  0  0  0
 78 79  2  0  0  0  0
 79 80  4  0  0  0  0
 80 81  4  0  0  0  0
 81 82  1  0  0  0  0
 82 83  4  0  0  0  0
 83 84  4  0  0  0  0
 84 85  4  0  0  0  0
 85 86  1  0  0  0  0
 86 87  4  0  0  0  0
 86 88  2  0  0  0  0
 85 89  4  0  0  0  0
 82 90  4  0  0  0  0
 89 90  4  0  0  0  0
 81 91  4  0  0  0  0
 91 92  1  0  0  0  0
 92 93  2  0  0  0  0
 64 94  4  0  0  0  0
 93 94  1  0  0  0  0
 91 95  4  0  0  0  0
 94 95  4  0  0  0  0
 77 96  4  0  0  0  0
 80 96  4  0  0  0  0
 70 97  1  0  0  0  0
 97 98  4  0  0  0  0
 98 99  4  0  0  0  0
 99100  4  0  0  0  0
100101  1  0  0  0  0
101102  4  0  0  0  0
101103  2  0  0  0  0
100104  4  0  0  0  0
 97105  4  0  0  0  0
104105  4  0  0  0  0
 64106  1  0  0  0  0
 66107  1  0  0  0  0
 67108  1  0  0  0  0
 69109  1  0  0  0  0
 72110  1  0  0  0  0
 73111  1  0  0  0  0
 78112  1  0  0  0  0
 79113  1  0  0  0  0
 83114  1  0  0  0  0
 84115  1  0  0  0  0
 87116  1  0  0  0  0
 89117  1  0  0  0  0
 90118  1  0  0  0  0
 92119  1  0  0  0  0
 93120  1  0  0  0  0
 96121  1  0  0  0  0
 98122  1  0  0  0  0
 99123  1  0  0  0  0
102124  1  0  0  0  0
104125  1  0  0  0  0
105126  1  0  0  0  0
127128  3  0  0  0  0
128129  4  0  0  0  0
 13130  4  0  0  0  0
129130  3  0  0  0  0
127131  4  0  0  0  0
131132  3  0  0  0  0
133134  3  0  0  0  0
134135  4  0  0  0  0
135136  3  0  0  0  0
133137  4  0  0  0  0
137138  3  0  0  0  0
139140  3  0  0  0  0
140141  4  0  0  0  0
141142  3  0  0  0  0
139143  4  0  0  0  0
143144  3  0  0  0  0
145146  3  0  0  0  0
146147  4  0  0  0  0
147148  3  0  0  0  0
145149  4  0  0  0  0
 76150  4  0  0  0  0
149150  3  0  0  0  0
132151  4  0  0  0  0
151152  4  0  0  0  0
152153  4  0  0  0  0
153154  2  0  0  0  0
154155  4  0  0  0  0
152156  4  0  0  0  0
155156  4  0  0  0  0
155157  4  0  0  0  0
157158  4  0  0  0  0
158159  1  0  0  0  0
159160  2  0  0  0  0
158161  4  0  0  0  0
160162  1  0  0  0  0
161162  4  0  0  0  0
136163  4  0  0  0  0
162163  4  0  0  0  0
163164  4  0  0  0  0
164165  4  0  0  0  0
165166  2  0  0  0  0
166167  4  0  0  0  0
167168  4  0  0  0  0
168169  1  0  0  0  0
169170  4  0  0  0  0
170171  4  0  0  0  0
171172  4  0  0  0  0
172173  1  0  0  0  0
173174  4  0  0  0  0
173175  2  0  0  0  0
172176  4  0  0  0  0
169177  4  0  0  0  0
176177  4  0  0  0  0
168178  4  0  0  0  0
178179  1  0  0  0  0
179180  2  0  0  0  0
151181  4  0  0  0  0
180181  1  0  0  0  0
178182  4  0  0  0  0
181182  4  0  0  0  0
164183  4  0  0  0  0
167183  4  0  0  0  0
157184  1  0  0  0  0
184185  4  0  0  0  0
185186  4  0  0  0  0
186187  4  0  0  0  0
187188  1  0  0  0  0
188189  4  0  0  0  0
188190  2  0  0  0  0
187191  4  0  0  0  0
184192  4  0  0  0  0
191192  4  0  0  0  0
153193  1  0  0  0  0
154194  1  0  0  0  0
156195  1  0  0  0  0
159196  1  0  0  0  0
160197  1  0  0  0  0
165198  1  0  0  0  0
166199  1  0  0  0  0
170200  1  0  0  0  0
171201  1  0  0  0  0
174202  1  0  0  0  0
176203  1  0  0  0  0
177204  1  0  0  0  0
179205  1  0  0  0  0
180206  1  0  0  0  0
183207  1  0  0  0  0
185208  1  0  0  0  0
186209  1  0  0  0  0
189210  1  0  0  0  0
191211  1  0  0  0  0
192212  1  0  0  0  0
138213  4  0  0  0  0
213214  4  0  0  0  0
214215  4  0  0  0  0
215216  2  0  0  0  0
216217  4  0  0  0  0
214218  4  0  0  0  0
217218  4  0  0  0  0
217219  4  0  0  0  0
219220  4  0  0  0  0
220221  1  0  0  0  0
221222  2  0  0  0  0
220223  4  0  0  0  0
222224  1  0  0  0  0
223224  4  0  0  0  0
142225  4  0  0  0  0
224225  4  0  0  0  0
225226  4  0  0  0  0
226227  4  0  0  0  0
227228  2  0  0  0  0
228229  4  0  0  0  0
229230  4  0  0  0  0
230231  1  0  0  0  0
231232  4  0  0  0  0
232233  4  0  0  0  0
233234  4  0  0  0  0
234235  1  0  0  0  0
235236  4  0  0  0  0
235237  2  0  0  0  0
234238  4  0  0  0  0
231239  4  0  0  0  0
238239  4  0  0  0  0
230240  4  0  0  0  0
240241  1  0  0  0  0
241242  2  0  0  0  0
213243  4  0  0  0  0
242243  1  0  0  0  0
240244  4  0  0  0  0
243244  4  0  0  0  0
226245  4  0  0  0  0
229245  4  0  0  0  0
219246  1  0  0  0  0
246247  4  0  0  0  0
247248  4  0  0  0  0
248249  4  0  0  0  0
249250  1  0  0  0  0
250251  4  0  0  0  0
250252  2  0  0  0  0
249253  4  0  0  0  0
246254  4  0  0  0  0
253254  4  0  0  0  0
215255  1  0  0  0  0
216256  1  0  0  0  0
218257  1  0  0  0  0
221258  1  0  0  0  0
222259  1  0  0  0  0
227260  1  0  0  0  0
228261  1  0  0  0  0
232262  1  0  0  0  0
233263  1  0  0  0  0
236264  1  0  0  0  0
238265  1  0  0  0  0
239266  1  0  0  0  0
241267  1  0  0  0  0
242268  1  0  0  0  0
245269  1  0  0  0  0
247270  1  0  0  0  0
248271  1  0  0  0  0
251272  1  0  0  0  0
253273  1  0  0  0  0
254274  1  0  0  0  0
144275  4  0  0  0  0
275276  4  0  0  0  0
276277  4  0  0  0  0
277278  2  0  0  0  0
278279  4  0  0  0  0
276280  4  0  0  0  0
279280  4  0  0  0  0
279281  4  0  0  0  0
281282  4  0  0  0  0
282283  1  0  0  0  0
283284  2  0  0  0  0
282285  4  0  0  0  0
284286  1  0  0  0  0
285286  4  0  0  0  0
148287  4  0  0  0  0
286287  4  0  0  0  0
287288  4  0  0  0  0
288289  4  0  0  0  0
289290  2  0  0  0  0
290291  4  0  0  0  0
291292  4  0  0  0  0
292293  1  0  0  0  0
293294  4  0  0  0  0
294295  4  0  0  0  0
295296  4  0  0  0  0
296297  1  0  0  0  0
297298  4  0  0  0  0
297299  2  0  0  0  0
296300  4  0  0  0  0
293301  4  0  0  0  0
300301  4  0  0  0  0
292302  4  0  0  0  0
302303  1  0  0  0  0
303304  2  0  0  0  0
275305  4  0  0  0  0
304305  1  0  0  0  0
302306  4  0  0  0  0
305306  4  0  0  0  0
288307  4  0  0  0  0
291307  4  0  0  0  0
281308  1  0  0  0  0
308309  4  0  0  0  0
309310  4  0  0  0  0
310311  4  0  0  0  0
311312  1  0  0  0  0
312313  4  0  0  0  0
312314  2  0  0  0  0
311315  4  0  0  0  0
308316  4  0  0  0  0
315316  4  0  0  0  0
277317  1  0  0  0  0
278318  1  0  0  0  0
280319  1  0  0  0  0
283320  1  0  0  0  0
284321  1  0  0  0  0
289322  1  0  0  0  0
290323  1  0  0  0  0
294324  1  0  0  0  0
295325  1  0  0  0  0
298326  1  0  0  0  0
300327  1  0  0  0  0
301328  1  0  0  0  0
303329  1  0  0  0  0
304330  1  0  0  0  0
307331  1  0  0  0  0
309332  1  0  0  0  0
310333  1  0  0  0  0
313334  1  0  0  0  0
315335  1  0  0  0  0
316336  1  0  0  0  0
M  END
