 xtb: 6.5.1 (b24c23e)
          07302204423D

126145  0     0  0            999 V2000
   17.0457    0.0167    0.0595 Ni  0  0  0  0  0  0  0  0  0  0  0  0
   13.6601    0.0070    0.2059 C   0  0  0  0  0  0  0  0  0  0  0  0
   14.3052    1.2265    0.1901 C   0  0  0  0  0  0  0  0  0  0  0  0
   13.6264    2.4866    0.1878 C   0  0  0  0  0  0  0  0  0  0  0  0
   14.5807    3.4425    0.2741 C   0  0  0  0  0  0  0  0  0  0  0  0
   15.8420    2.7641    0.3503 C   0  0  0  0  0  0  0  0  0  0  0  0
   15.6644    1.4067    0.2499 N   0  0  0  0  0  0  0  0  0  0  0  0
   17.0559    3.3970    0.5830 C   0  0  0  0  0  0  0  0  0  0  0  0
   17.0713    4.8646    0.7912 C   0  0  0  0  0  0  0  0  0  0  0  0
   16.3688    5.4406    1.8457 C   0  0  0  0  0  0  0  0  0  0  0  0
   16.3905    6.8213    2.0386 C   0  0  0  0  0  0  0  0  0  0  0  0
   15.6242    7.3749    3.1834 C   0  0  0  0  0  0  0  0  0  0  0  0
   15.7215    8.7073    3.2995 O   0  0  0  0  0  0  0  0  0  0  0  0
   14.9698    6.7123    3.9471 O   0  0  0  0  0  0  0  0  0  0  0  0
   17.1157    7.6377    1.1707 C   0  0  0  0  0  0  0  0  0  0  0  0
   17.8147    7.0664    0.1188 C   0  0  0  0  0  0  0  0  0  0  0  0
   17.7965    5.6919   -0.0700 C   0  0  0  0  0  0  0  0  0  0  0  0
   18.2606    2.7073    0.6425 C   0  0  0  0  0  0  0  0  0  0  0  0
   19.5114    3.3121    0.9864 C   0  0  0  0  0  0  0  0  0  0  0  0
   20.4607    2.3560    0.8417 C   0  0  0  0  0  0  0  0  0  0  0  0
   18.4382    1.3787    0.3338 N   0  0  0  0  0  0  0  0  0  0  0  0
   19.7895    1.1724    0.4080 C   0  0  0  0  0  0  0  0  0  0  0  0
   20.4544    0.0093    0.0125 C   0  0  0  0  0  0  0  0  0  0  0  0
   19.7743   -1.1436   -0.3882 C   0  0  0  0  0  0  0  0  0  0  0  0
   20.4275   -2.3155   -0.8770 C   0  0  0  0  0  0  0  0  0  0  0  0
   19.4674   -3.2574   -1.0429 C   0  0  0  0  0  0  0  0  0  0  0  0
   18.2296   -2.6594   -0.6439 C   0  0  0  0  0  0  0  0  0  0  0  0
   18.4239   -1.3431   -0.2926 N   0  0  0  0  0  0  0  0  0  0  0  0
   17.0272   -3.3491   -0.5525 C   0  0  0  0  0  0  0  0  0  0  0  0
   17.0216   -4.8070   -0.8213 C   0  0  0  0  0  0  0  0  0  0  0  0
   17.7921   -5.6728   -0.0417 C   0  0  0  0  0  0  0  0  0  0  0  0
   17.7883   -7.0387   -0.2881 C   0  0  0  0  0  0  0  0  0  0  0  0
   17.0192   -7.5566   -1.3167 C   0  0  0  0  0  0  0  0  0  0  0  0
   16.2458   -6.7016   -2.1033 C   0  0  0  0  0  0  0  0  0  0  0  0
   15.4366   -7.2953   -3.1971 C   0  0  0  0  0  0  0  0  0  0  0  0
   14.7199   -6.3944   -3.8847 O   0  0  0  0  0  0  0  0  0  0  0  0
   15.4087   -8.4702   -3.4604 O   0  0  0  0  0  0  0  0  0  0  0  0
   16.2465   -5.3307   -1.8537 C   0  0  0  0  0  0  0  0  0  0  0  0
   15.8327   -2.7281   -0.2103 C   0  0  0  0  0  0  0  0  0  0  0  0
   14.5863   -3.4173   -0.0427 C   0  0  0  0  0  0  0  0  0  0  0  0
   13.6416   -2.4721    0.1729 C   0  0  0  0  0  0  0  0  0  0  0  0
   14.3116   -1.2077    0.1455 C   0  0  0  0  0  0  0  0  0  0  0  0
   15.6600   -1.3764   -0.0487 N   0  0  0  0  0  0  0  0  0  0  0  0
   12.5778    0.0031    0.2590 H   0  0  0  0  0  0  0  0  0  0  0  0
   12.5562    2.6040    0.1262 H   0  0  0  0  0  0  0  0  0  0  0  0
   14.4552    4.5129    0.2889 H   0  0  0  0  0  0  0  0  0  0  0  0
   15.8112    4.8205    2.5389 H   0  0  0  0  0  0  0  0  0  0  0  0
   15.1964    8.9894    4.0661 H   0  0  0  0  0  0  0  0  0  0  0  0
   17.1292    8.7103    1.3211 H   0  0  0  0  0  0  0  0  0  0  0  0
   18.3782    7.6952   -0.5612 H   0  0  0  0  0  0  0  0  0  0  0  0
   18.3373    5.2519   -0.9005 H   0  0  0  0  0  0  0  0  0  0  0  0
   19.6359    4.3335    1.3070 H   0  0  0  0  0  0  0  0  0  0  0  0
   21.5224    2.4326    1.0101 H   0  0  0  0  0  0  0  0  0  0  0  0
   21.4850   -2.3927   -1.0704 H   0  0  0  0  0  0  0  0  0  0  0  0
   19.5777   -4.2659   -1.4068 H   0  0  0  0  0  0  0  0  0  0  0  0
   18.3854   -5.2705    0.7718 H   0  0  0  0  0  0  0  0  0  0  0  0
   18.3879   -7.6989    0.3282 H   0  0  0  0  0  0  0  0  0  0  0  0
   17.0054   -8.6207   -1.5238 H   0  0  0  0  0  0  0  0  0  0  0  0
   14.2227   -6.8595   -4.5771 H   0  0  0  0  0  0  0  0  0  0  0  0
   15.6552   -4.6676   -2.4740 H   0  0  0  0  0  0  0  0  0  0  0  0
   14.4641   -4.4875   -0.0836 H   0  0  0  0  0  0  0  0  0  0  0  0
   12.5830   -2.5993    0.3341 H   0  0  0  0  0  0  0  0  0  0  0  0
   27.8971   -0.0354    0.0520 Ni  0  0  0  0  0  0  0  0  0  0  0  0
   31.2827   -0.0738    0.1925 C   0  0  0  0  0  0  0  0  0  0  0  0
   30.6377   -1.2214   -0.2202 C   0  0  0  0  0  0  0  0  0  0  0  0
   31.3165   -2.4119   -0.6334 C   0  0  0  0  0  0  0  0  0  0  0  0
   30.3622   -3.3436   -0.8636 C   0  0  0  0  0  0  0  0  0  0  0  0
   29.1009   -2.7271   -0.5704 C   0  0  0  0  0  0  0  0  0  0  0  0
   29.2784   -1.4112   -0.2225 N   0  0  0  0  0  0  0  0  0  0  0  0
   27.8870   -3.4014   -0.5569 C   0  0  0  0  0  0  0  0  0  0  0  0
   27.8716   -4.8566   -0.8388 C   0  0  0  0  0  0  0  0  0  0  0  0
   28.5740   -5.7451   -0.0299 C   0  0  0  0  0  0  0  0  0  0  0  0
   28.5524   -7.1132   -0.2980 C   0  0  0  0  0  0  0  0  0  0  0  0
   29.3192   -8.0100    0.6033 C   0  0  0  0  0  0  0  0  0  0  0  0
   29.2215   -9.3073    0.2786 O   0  0  0  0  0  0  0  0  0  0  0  0
   29.9730   -7.6328    1.5417 O   0  0  0  0  0  0  0  0  0  0  0  0
   27.8273   -7.6017   -1.3848 C   0  0  0  0  0  0  0  0  0  0  0  0
   27.1284   -6.7186   -2.1928 C   0  0  0  0  0  0  0  0  0  0  0  0
   27.1466   -5.3577   -1.9229 C   0  0  0  0  0  0  0  0  0  0  0  0
   26.6823   -2.7688   -0.2758 C   0  0  0  0  0  0  0  0  0  0  0  0
   25.4314   -3.4527   -0.1480 C   0  0  0  0  0  0  0  0  0  0  0  0
   24.4822   -2.5017    0.0271 C   0  0  0  0  0  0  0  0  0  0  0  0
   26.5047   -1.4122   -0.1341 N   0  0  0  0  0  0  0  0  0  0  0  0
   25.1533   -1.2414    0.0033 C   0  0  0  0  0  0  0  0  0  0  0  0
   24.4885   -0.0129    0.0087 C   0  0  0  0  0  0  0  0  0  0  0  0
   25.1686    1.2076    0.0060 C   0  0  0  0  0  0  0  0  0  0  0  0
   24.5154    2.4749   -0.0738 C   0  0  0  0  0  0  0  0  0  0  0  0
   25.4755    3.4193    0.0766 C   0  0  0  0  0  0  0  0  0  0  0  0
   26.7133    2.7240    0.2586 C   0  0  0  0  0  0  0  0  0  0  0  0
   26.5190    1.3650    0.1615 N   0  0  0  0  0  0  0  0  0  0  0  0
   27.9157    3.3462    0.5700 C   0  0  0  0  0  0  0  0  0  0  0  0
   27.9212    4.8120    0.7915 C   0  0  0  0  0  0  0  0  0  0  0  0
   27.1508    5.3762    1.8108 C   0  0  0  0  0  0  0  0  0  0  0  0
   27.1545    6.7477    2.0234 C   0  0  0  0  0  0  0  0  0  0  0  0
   27.9236    7.5728    1.2200 C   0  0  0  0  0  0  0  0  0  0  0  0
   28.6971    7.0211    0.1976 C   0  0  0  0  0  0  0  0  0  0  0  0
   29.5064    7.9391   -0.6428 C   0  0  0  0  0  0  0  0  0  0  0  0
   30.2230    7.3118   -1.5867 O   0  0  0  0  0  0  0  0  0  0  0  0
   29.5341    9.1357   -0.5085 O   0  0  0  0  0  0  0  0  0  0  0  0
   28.6964    5.6438   -0.0137 C   0  0  0  0  0  0  0  0  0  0  0  0
   29.1103    2.6475    0.6911 C   0  0  0  0  0  0  0  0  0  0  0  0
   30.3566    3.2444    1.0744 C   0  0  0  0  0  0  0  0  0  0  0  0
   31.3013    2.2806    0.9699 C   0  0  0  0  0  0  0  0  0  0  0  0
   30.6313    1.0942    0.5315 C   0  0  0  0  0  0  0  0  0  0  0  0
   29.2830    1.3171    0.4030 N   0  0  0  0  0  0  0  0  0  0  0  0
   32.3651   -0.0874    0.2440 H   0  0  0  0  0  0  0  0  0  0  0  0
   32.3867   -2.5027   -0.7299 H   0  0  0  0  0  0  0  0  0  0  0  0
   30.4877   -4.3603   -1.1987 H   0  0  0  0  0  0  0  0  0  0  0  0
   29.1316   -5.3850    0.8278 H   0  0  0  0  0  0  0  0  0  0  0  0
   29.7463   -9.8240    0.9115 H   0  0  0  0  0  0  0  0  0  0  0  0
   27.8139   -8.6648   -1.5925 H   0  0  0  0  0  0  0  0  0  0  0  0
   26.5649   -7.0912   -3.0408 H   0  0  0  0  0  0  0  0  0  0  0  0
   26.6058   -4.6708   -2.5644 H   0  0  0  0  0  0  0  0  0  0  0  0
   25.3070   -4.5229   -0.1781 H   0  0  0  0  0  0  0  0  0  0  0  0
   23.4204   -2.6291    0.1613 H   0  0  0  0  0  0  0  0  0  0  0  0
   23.4579    2.6109   -0.2314 H   0  0  0  0  0  0  0  0  0  0  0  0
   25.3652    4.4914    0.0615 H   0  0  0  0  0  0  0  0  0  0  0  0
   26.5575    4.7305    2.4486 H   0  0  0  0  0  0  0  0  0  0  0  0
   26.5550    7.1708    2.8214 H   0  0  0  0  0  0  0  0  0  0  0  0
   27.9374    8.6463    1.3713 H   0  0  0  0  0  0  0  0  0  0  0  0
   30.7201    7.9773   -2.0895 H   0  0  0  0  0  0  0  0  0  0  0  0
   29.2876    5.2193   -0.8163 H   0  0  0  0  0  0  0  0  0  0  0  0
   30.4788    4.2694    1.3847 H   0  0  0  0  0  0  0  0  0  0  0  0
   32.3599    2.3482    1.1639 H   0  0  0  0  0  0  0  0  0  0  0  0
   21.8635    0.0022    0.0071 C   0  0  0  0  0  0  0  0  0  0  0  0
   23.0794   -0.0044    0.0060 C   0  0  0  0  0  0  0  0  0  0  0  0
  2  3  4  0  0  0  0
  3  4  4  0  0  0  0
  4  5  2  0  0  0  0
  5  6  4  0  0  0  0
  1  7  1  0  0  0  0
  3  7  4  0  0  0  0
  6  7  4  0  0  0  0
  6  8  4  0  0  0  0
  8  9  1  0  0  0  0
  9 10  4  0  0  0  0
 10 11  4  0  0  0  0
 11 12  1  0  0  0  0
 12 13  4  0  0  0  0
 12 14  2  0  0  0  0
 11 15  4  0  0  0  0
 15 16  4  0  0  0  0
  9 17  4  0  0  0  0
 16 17  4  0  0  0  0
  8 18  4  0  0  0  0
 18 19  4  0  0  0  0
 19 20  2  0  0  0  0
  1 21  1  0  0  0  0
 18 21  4  0  0  0  0
 20 22  4  0  0  0  0
 21 22  4  0  0  0  0
 22 23  4  0  0  0  0
 23 24  4  0  0  0  0
 24 25  4  0  0  0  0
 25 26  2  0  0  0  0
 26 27  4  0  0  0  0
  1 28  1  0  0  0  0
 24 28  4  0  0  0  0
 27 28  4  0  0  0  0
 27 29  4  0  0  0  0
 29 30  1  0  0  0  0
 30 31  4  0  0  0  0
 31 32  4  0  0  0  0
 32 33  4  0  0  0  0
 33 34  4  0  0  0  0
 34 35  1  0  0  0  0
 35 36  4  0  0  0  0
 35 37  2  0  0  0  0
 30 38  4  0  0  0  0
 34 38  4  0  0  0  0
 29 39  4  0  0  0  0
 39 40  4  0  0  0  0
 40 41  2  0  0  0  0
  2 42  4  0  0  0  0
 41 42  4  0  0  0  0
  1 43  1  0  0  0  0
 39 43  4  0  0  0  0
 42 43  4  0  0  0  0
  2 44  1  0  0  0  0
  4 45  1  0  0  0  0
  5 46  1  0  0  0  0
 10 47  1  0  0  0  0
 13 48  1  0  0  0  0
 15 49  1  0  0  0  0
 16 50  1  0  0  0  0
 17 51  1  0  0  0  0
 19 52  1  0  0  0  0
 20 53  1  0  0  0  0
 25 54  1  0  0  0  0
 26 55  1  0  0  0  0
 31 56  1  0  0  0  0
 32 57  1  0  0  0  0
 33 58  1  0  0  0  0
 36 59  1  0  0  0  0
 38 60  1  0  0  0  0
 40 61  1  0  0  0  0
 41 62  1  0  0  0  0
 64 65  4  0  0  0  0
 65 66  4  0  0  0  0
 66 67  2  0  0  0  0
 67 68  4  0  0  0  0
 63 69  1  0  0  0  0
 65 69  4  0  0  0  0
 68 69  4  0  0  0  0
 68 70  4  0  0  0  0
 70 71  1  0  0  0  0
 71 72  4  0  0  0  0
 72 73  4  0  0  0  0
 73 74  1  0  0  0  0
 74 75  4  0  0  0  0
 74 76  2  0  0  0  0
 73 77  4  0  0  0  0
 77 78  4  0  0  0  0
 71 79  4  0  0  0  0
 78 79  4  0  0  0  0
 70 80  4  0  0  0  0
 80 81  4  0  0  0  0
 81 82  2  0  0  0  0
 63 83  1  0  0  0  0
 80 83  4  0  0  0  0
 82 84  4  0  0  0  0
 83 84  4  0  0  0  0
 84 85  4  0  0  0  0
 85 86  4  0  0  0  0
 86 87  4  0  0  0  0
 87 88  2  0  0  0  0
 88 89  4  0  0  0  0
 63 90  1  0  0  0  0
 86 90  4  0  0  0  0
 89 90  4  0  0  0  0
 89 91  4  0  0  0  0
 91 92  1  0  0  0  0
 92 93  4  0  0  0  0
 93 94  4  0  0  0  0
 94 95  4  0  0  0  0
 95 96  4  0  0  0  0
 96 97  1  0  0  0  0
 97 98  4  0  0  0  0
 97 99  2  0  0  0  0
 92100  4  0  0  0  0
 96100  4  0  0  0  0
 91101  4  0  0  0  0
101102  4  0  0  0  0
102103  2  0  0  0  0
 64104  4  0  0  0  0
103104  4  0  0  0  0
 63105  1  0  0  0  0
101105  4  0  0  0  0
104105  4  0  0  0  0
 64106  1  0  0  0  0
 66107  1  0  0  0  0
 67108  1  0  0  0  0
 72109  1  0  0  0  0
 75110  1  0  0  0  0
 77111  1  0  0  0  0
 78112  1  0  0  0  0
 79113  1  0  0  0  0
 81114  1  0  0  0  0
 82115  1  0  0  0  0
 87116  1  0  0  0  0
 88117  1  0  0  0  0
 93118  1  0  0  0  0
 94119  1  0  0  0  0
 95120  1  0  0  0  0
 98121  1  0  0  0  0
100122  1  0  0  0  0
102123  1  0  0  0  0
103124  1  0  0  0  0
 23125  4  0  0  0  0
 85126  4  0  0  0  0
125126  3  0  0  0  0
M  END
