 xtb: 6.5.1 (b24c23e)
          07312204493D

212232  0     0  0            999 V2000
   30.9997    0.5384    0.0314 C   0  0  0  0  0  0  0  0  0  0  0  0
   31.6026    0.6042   -1.2184 C   0  0  0  0  0  0  0  0  0  0  0  0
   30.9433    0.7344   -2.4724 C   0  0  0  0  0  0  0  0  0  0  0  0
   31.8952    0.7101   -3.4533 C   0  0  0  0  0  0  0  0  0  0  0  0
   33.1680    0.5787   -2.8292 C   0  0  0  0  0  0  0  0  0  0  0  0
   32.9403    0.5167   -1.4833 N   0  0  0  0  0  0  0  0  0  0  0  0
   34.4215    0.4950   -3.4480 C   0  0  0  0  0  0  0  0  0  0  0  0
   34.4459    0.5943   -4.9258 C   0  0  0  0  0  0  0  0  0  0  0  0
   34.9667   -0.4444   -5.6999 C   0  0  0  0  0  0  0  0  0  0  0  0
   34.9846   -0.3685   -7.0820 C   0  0  0  0  0  0  0  0  0  0  0  0
   34.4790    0.7626   -7.7294 C   0  0  0  0  0  0  0  0  0  0  0  0
   34.5218    0.9159   -9.1073 N   0  0  0  0  0  0  0  0  0  0  0  0
   34.5730   -0.2623   -9.9625 C   0  0  0  0  0  0  0  0  0  0  0  0
   33.9692    1.8136   -6.9571 C   0  0  0  0  0  0  0  0  0  0  0  0
   33.9478    1.7258   -5.5779 C   0  0  0  0  0  0  0  0  0  0  0  0
   35.6338    0.3292   -2.7726 C   0  0  0  0  0  0  0  0  0  0  0  0
   36.9306    0.3448   -3.4245 C   0  0  0  0  0  0  0  0  0  0  0  0
   37.8513    0.1962   -2.4493 C   0  0  0  0  0  0  0  0  0  0  0  0
   35.7894    0.1790   -1.4280 N   0  0  0  0  0  0  0  0  0  0  0  0
   37.1161    0.0918   -1.2043 C   0  0  0  0  0  0  0  0  0  0  0  0
   37.7546   -0.0631    0.0436 C   0  0  0  0  0  0  0  0  0  0  0  0
   37.1220   -0.1629    1.2981 C   0  0  0  0  0  0  0  0  0  0  0  0
   37.7709   -0.3085    2.5521 C   0  0  0  0  0  0  0  0  0  0  0  0
   36.8080   -0.3510    3.5228 C   0  0  0  0  0  0  0  0  0  0  0  0
   35.5401   -0.2372    2.8893 C   0  0  0  0  0  0  0  0  0  0  0  0
   35.7824   -0.1246    1.5452 N   0  0  0  0  0  0  0  0  0  0  0  0
   34.2841   -0.1962    3.5064 C   0  0  0  0  0  0  0  0  0  0  0  0
   34.2559   -0.3758    4.9757 C   0  0  0  0  0  0  0  0  0  0  0  0
   33.7170    0.6075    5.8078 C   0  0  0  0  0  0  0  0  0  0  0  0
   33.6932    0.4482    7.1828 C   0  0  0  0  0  0  0  0  0  0  0  0
   34.2115   -0.7125    7.7645 C   0  0  0  0  0  0  0  0  0  0  0  0
   34.1627   -0.9494    9.1300 N   0  0  0  0  0  0  0  0  0  0  0  0
   34.0849    0.1732   10.0550 C   0  0  0  0  0  0  0  0  0  0  0  0
   34.7421   -1.7072    6.9337 C   0  0  0  0  0  0  0  0  0  0  0  0
   34.7691   -1.5363    5.5627 C   0  0  0  0  0  0  0  0  0  0  0  0
   33.0736    0.0061    2.8332 C   0  0  0  0  0  0  0  0  0  0  0  0
   31.7684   -0.0037    3.4748 C   0  0  0  0  0  0  0  0  0  0  0  0
   30.8614    0.2159    2.5011 C   0  0  0  0  0  0  0  0  0  0  0  0
   31.6098    0.3429    1.2636 C   0  0  0  0  0  0  0  0  0  0  0  0
   32.9379    0.2091    1.5011 N   0  0  0  0  0  0  0  0  0  0  0  0
   29.9177    0.6257    0.0327 H   0  0  0  0  0  0  0  0  0  0  0  0
   29.8756    0.8222   -2.5958 H   0  0  0  0  0  0  0  0  0  0  0  0
   31.7329    0.7650   -4.5175 H   0  0  0  0  0  0  0  0  0  0  0  0
   33.6677    0.4020   -0.7854 H   0  0  0  0  0  0  0  0  0  0  0  0
   35.3452   -1.3350   -5.2100 H   0  0  0  0  0  0  0  0  0  0  0  0
   35.3938   -1.1939   -7.6516 H   0  0  0  0  0  0  0  0  0  0  0  0
   33.8639    1.6084   -9.4443 H   0  0  0  0  0  0  0  0  0  0  0  0
   33.7731   -0.9715   -9.7202 H   0  0  0  0  0  0  0  0  0  0  0  0
   34.4620    0.0667  -10.9958 H   0  0  0  0  0  0  0  0  0  0  0  0
   35.5379   -0.7596   -9.8565 H   0  0  0  0  0  0  0  0  0  0  0  0
   33.5905    2.7028   -7.4501 H   0  0  0  0  0  0  0  0  0  0  0  0
   33.5611    2.5535   -4.9933 H   0  0  0  0  0  0  0  0  0  0  0  0
   37.0950    0.4768   -4.4817 H   0  0  0  0  0  0  0  0  0  0  0  0
   38.9255    0.1637   -2.5378 H   0  0  0  0  0  0  0  0  0  0  0  0
   38.8391   -0.3661    2.6858 H   0  0  0  0  0  0  0  0  0  0  0  0
   36.9617   -0.4361    4.5862 H   0  0  0  0  0  0  0  0  0  0  0  0
   35.0592   -0.0097    0.8427 H   0  0  0  0  0  0  0  0  0  0  0  0
   33.3307    1.5219    5.3710 H   0  0  0  0  0  0  0  0  0  0  0  0
   33.2698    1.2323    7.7985 H   0  0  0  0  0  0  0  0  0  0  0  0
   34.8282   -1.6516    9.4299 H   0  0  0  0  0  0  0  0  0  0  0  0
   33.1112    0.6579    9.9737 H   0  0  0  0  0  0  0  0  0  0  0  0
   34.8723    0.9107    9.8611 H   0  0  0  0  0  0  0  0  0  0  0  0
   34.1971   -0.2161   11.0670 H   0  0  0  0  0  0  0  0  0  0  0  0
   35.1326   -2.6183    7.3748 H   0  0  0  0  0  0  0  0  0  0  0  0
   35.1725   -2.3209    4.9318 H   0  0  0  0  0  0  0  0  0  0  0  0
   31.5917   -0.1752    4.5244 H   0  0  0  0  0  0  0  0  0  0  0  0
   29.7871    0.2765    2.5799 H   0  0  0  0  0  0  0  0  0  0  0  0
   69.6940    0.5416   -0.0644 C   0  0  0  0  0  0  0  0  0  0  0  0
   69.0918    0.6708    1.1807 C   0  0  0  0  0  0  0  0  0  0  0  0
   69.7521    0.8681    2.4255 C   0  0  0  0  0  0  0  0  0  0  0  0
   68.8017    0.8901    3.4078 C   0  0  0  0  0  0  0  0  0  0  0  0
   67.5286    0.7217    2.7933 C   0  0  0  0  0  0  0  0  0  0  0  0
   67.7548    0.5922    1.4519 N   0  0  0  0  0  0  0  0  0  0  0  0
   66.2757    0.6642    3.4164 C   0  0  0  0  0  0  0  0  0  0  0  0
   66.2499    0.8307    4.8880 C   0  0  0  0  0  0  0  0  0  0  0  0
   65.7260   -0.1728    5.7056 C   0  0  0  0  0  0  0  0  0  0  0  0
   65.7050   -0.0370    7.0830 C   0  0  0  0  0  0  0  0  0  0  0  0
   66.2107    1.1205    7.6819 C   0  0  0  0  0  0  0  0  0  0  0  0
   66.1647    1.3336    9.0514 N   0  0  0  0  0  0  0  0  0  0  0  0
   66.1024    0.1949    9.9576 C   0  0  0  0  0  0  0  0  0  0  0  0
   66.7239    2.1361    6.8656 C   0  0  0  0  0  0  0  0  0  0  0  0
   66.7481    1.9887    5.4915 C   0  0  0  0  0  0  0  0  0  0  0  0
   65.0642    0.4612    2.7497 C   0  0  0  0  0  0  0  0  0  0  0  0
   63.7669    0.5074    3.3993 C   0  0  0  0  0  0  0  0  0  0  0  0
   62.8474    0.3019    2.4333 C   0  0  0  0  0  0  0  0  0  0  0  0
   64.9098    0.2388    1.4149 N   0  0  0  0  0  0  0  0  0  0  0  0
   63.5837    0.1326    1.1962 C   0  0  0  0  0  0  0  0  0  0  0  0
   62.9464   -0.0966   -0.0407 C   0  0  0  0  0  0  0  0  0  0  0  0
   63.5784   -0.2557   -1.2894 C   0  0  0  0  0  0  0  0  0  0  0  0
   62.9289   -0.4694   -2.5333 C   0  0  0  0  0  0  0  0  0  0  0  0
   63.8908   -0.5555   -3.5021 C   0  0  0  0  0  0  0  0  0  0  0  0
   65.1587   -0.4021   -2.8771 C   0  0  0  0  0  0  0  0  0  0  0  0
   64.9173   -0.2206   -1.5404 N   0  0  0  0  0  0  0  0  0  0  0  0
   66.4142   -0.3892   -3.4966 C   0  0  0  0  0  0  0  0  0  0  0  0
   66.4425   -0.6521   -4.9533 C   0  0  0  0  0  0  0  0  0  0  0  0
   66.9803    0.2813   -5.8416 C   0  0  0  0  0  0  0  0  0  0  0  0
   67.0043    0.0417   -7.2050 C   0  0  0  0  0  0  0  0  0  0  0  0
   66.4871   -1.1516   -7.7177 C   0  0  0  0  0  0  0  0  0  0  0  0
   66.5364   -1.4684   -9.0667 N   0  0  0  0  0  0  0  0  0  0  0  0
   66.6149   -0.4028  -10.0567 C   0  0  0  0  0  0  0  0  0  0  0  0
   65.9571   -2.0962   -6.8300 C   0  0  0  0  0  0  0  0  0  0  0  0
   65.9301   -1.8454   -5.4715 C   0  0  0  0  0  0  0  0  0  0  0  0
   67.6238   -0.1464   -2.8353 C   0  0  0  0  0  0  0  0  0  0  0  0
   68.9295   -0.1860   -3.4744 C   0  0  0  0  0  0  0  0  0  0  0  0
   69.8348    0.0885   -2.5133 C   0  0  0  0  0  0  0  0  0  0  0  0
   69.0851    0.2789   -1.2847 C   0  0  0  0  0  0  0  0  0  0  0  0
   67.7577    0.1281   -1.5158 N   0  0  0  0  0  0  0  0  0  0  0  0
   70.7757    0.6323   -0.0708 H   0  0  0  0  0  0  0  0  0  0  0  0
   70.8196    0.9668    2.5425 H   0  0  0  0  0  0  0  0  0  0  0  0
   68.9654    1.0002    4.4676 H   0  0  0  0  0  0  0  0  0  0  0  0
   67.0267    0.4378    0.7624 H   0  0  0  0  0  0  0  0  0  0  0  0
   65.3475   -1.0833    5.2541 H   0  0  0  0  0  0  0  0  0  0  0  0
   65.2932   -0.8363    7.6868 H   0  0  0  0  0  0  0  0  0  0  0  0
   66.8236    2.0379    9.3609 H   0  0  0  0  0  0  0  0  0  0  0  0
   66.9000   -0.5283    9.7521 H   0  0  0  0  0  0  0  0  0  0  0  0
   66.2088    0.5688   10.9759 H   0  0  0  0  0  0  0  0  0  0  0  0
   65.1356   -0.3018    9.8678 H   0  0  0  0  0  0  0  0  0  0  0  0
   67.1025    3.0455    7.3203 H   0  0  0  0  0  0  0  0  0  0  0  0
   67.1365    2.7902    4.8726 H   0  0  0  0  0  0  0  0  0  0  0  0
   63.6014    0.6972    4.4474 H   0  0  0  0  0  0  0  0  0  0  0  0
   61.7733    0.2706    2.5230 H   0  0  0  0  0  0  0  0  0  0  0  0
   61.8609   -0.5399   -2.6624 H   0  0  0  0  0  0  0  0  0  0  0  0
   63.7363   -0.6953   -4.5596 H   0  0  0  0  0  0  0  0  0  0  0  0
   65.6409   -0.0665   -0.8458 H   0  0  0  0  0  0  0  0  0  0  0  0
   67.3655    1.2203   -5.4593 H   0  0  0  0  0  0  0  0  0  0  0  0
   67.4269    0.7886   -7.8656 H   0  0  0  0  0  0  0  0  0  0  0  0
   65.8718   -2.1877   -9.3252 H   0  0  0  0  0  0  0  0  0  0  0  0
   67.5901    0.0833  -10.0064 H   0  0  0  0  0  0  0  0  0  0  0  0
   65.8300    0.3470   -9.9051 H   0  0  0  0  0  0  0  0  0  0  0  0
   66.4992   -0.8509  -11.0435 H   0  0  0  0  0  0  0  0  0  0  0  0
   65.5672   -3.0318   -7.2169 H   0  0  0  0  0  0  0  0  0  0  0  0
   65.5275   -2.5921   -4.7957 H   0  0  0  0  0  0  0  0  0  0  0  0
   69.1077   -0.4128   -4.5133 H   0  0  0  0  0  0  0  0  0  0  0  0
   70.9090    0.1484   -2.5945 H   0  0  0  0  0  0  0  0  0  0  0  0
   42.9557   -0.1473    0.0642 C   0  0  0  0  0  0  0  0  0  0  0  0
   41.7267   -0.1442    0.0639 C   0  0  0  0  0  0  0  0  0  0  0  0
   40.3832   -0.1292    0.0612 C   0  0  0  0  0  0  0  0  0  0  0  0
   39.1589   -0.1092    0.0519 C   0  0  0  0  0  0  0  0  0  0  0  0
   44.2992   -0.1449    0.0590 C   0  0  0  0  0  0  0  0  0  0  0  0
   45.5237   -0.1396    0.0481 C   0  0  0  0  0  0  0  0  0  0  0  0
   58.9766   -0.2524   -0.0486 C   0  0  0  0  0  0  0  0  0  0  0  0
   57.7480   -0.2798   -0.0455 C   0  0  0  0  0  0  0  0  0  0  0  0
   56.4047   -0.2963   -0.0390 C   0  0  0  0  0  0  0  0  0  0  0  0
   55.1802   -0.2993   -0.0275 C   0  0  0  0  0  0  0  0  0  0  0  0
   60.3196   -0.2114   -0.0495 C   0  0  0  0  0  0  0  0  0  0  0  0
   61.5430   -0.1630   -0.0442 C   0  0  0  0  0  0  0  0  0  0  0  0
   46.9277   -0.1322    0.0367 C   0  0  0  0  0  0  0  0  0  0  0  0
   47.5629   -0.0792    1.2932 C   0  0  0  0  0  0  0  0  0  0  0  0
   46.9201   -0.0532    2.5571 C   0  0  0  0  0  0  0  0  0  0  0  0
   47.8903   -0.0207    3.5219 C   0  0  0  0  0  0  0  0  0  0  0  0
   49.1544   -0.0184    2.8731 C   0  0  0  0  0  0  0  0  0  0  0  0
   48.9054   -0.0587    1.5268 N   0  0  0  0  0  0  0  0  0  0  0  0
   50.4174   -0.0152    3.4801 C   0  0  0  0  0  0  0  0  0  0  0  0
   50.4394    0.0743    4.9590 C   0  0  0  0  0  0  0  0  0  0  0  0
   51.0306   -0.9312    5.7291 C   0  0  0  0  0  0  0  0  0  0  0  0
   51.0453   -0.8486    7.1084 C   0  0  0  0  0  0  0  0  0  0  0  0
   50.4741    0.2504    7.7619 C   0  0  0  0  0  0  0  0  0  0  0  0
   50.5649    0.3186    9.1438 N   0  0  0  0  0  0  0  0  0  0  0  0
   49.6147    1.1318    9.8903 C   0  0  0  0  0  0  0  0  0  0  0  0
   49.8943    1.2660    6.9959 C   0  0  0  0  0  0  0  0  0  0  0  0
   49.8721    1.1684    5.6151 C   0  0  0  0  0  0  0  0  0  0  0  0
   51.6367   -0.0872    2.8032 C   0  0  0  0  0  0  0  0  0  0  0  0
   52.9302   -0.0188    3.4583 C   0  0  0  0  0  0  0  0  0  0  0  0
   53.8587   -0.1056    2.4830 C   0  0  0  0  0  0  0  0  0  0  0  0
   51.8012   -0.1972    1.4556 N   0  0  0  0  0  0  0  0  0  0  0  0
   53.1312   -0.2140    1.2346 C   0  0  0  0  0  0  0  0  0  0  0  0
   53.7763   -0.2944   -0.0165 C   0  0  0  0  0  0  0  0  0  0  0  0
   53.1416   -0.3401   -1.2735 C   0  0  0  0  0  0  0  0  0  0  0  0
   53.7860   -0.3591   -2.5368 C   0  0  0  0  0  0  0  0  0  0  0  0
   52.8171   -0.3572   -3.5034 C   0  0  0  0  0  0  0  0  0  0  0  0
   51.5521   -0.3492   -2.8565 C   0  0  0  0  0  0  0  0  0  0  0  0
   51.7994   -0.3371   -1.5093 N   0  0  0  0  0  0  0  0  0  0  0  0
   50.2895   -0.3218   -3.4636 C   0  0  0  0  0  0  0  0  0  0  0  0
   50.2655   -0.3523   -4.9449 C   0  0  0  0  0  0  0  0  0  0  0  0
   49.6868    0.6929   -5.6674 C   0  0  0  0  0  0  0  0  0  0  0  0
   49.6649    0.6808   -7.0514 C   0  0  0  0  0  0  0  0  0  0  0  0
   50.2110   -0.3982   -7.7526 C   0  0  0  0  0  0  0  0  0  0  0  0
   50.2554   -0.4414   -9.1380 N   0  0  0  0  0  0  0  0  0  0  0  0
   49.2834    0.3179   -9.9133 C   0  0  0  0  0  0  0  0  0  0  0  0
   50.7960   -1.4473   -7.0327 C   0  0  0  0  0  0  0  0  0  0  0  0
   50.8255   -1.4205   -5.6512 C   0  0  0  0  0  0  0  0  0  0  0  0
   49.0701   -0.2656   -2.7853 C   0  0  0  0  0  0  0  0  0  0  0  0
   47.7775   -0.3229   -3.4432 C   0  0  0  0  0  0  0  0  0  0  0  0
   46.8477   -0.2708   -2.4666 C   0  0  0  0  0  0  0  0  0  0  0  0
   47.5736   -0.1879   -1.2153 C   0  0  0  0  0  0  0  0  0  0  0  0
   48.9038   -0.1911   -1.4355 N   0  0  0  0  0  0  0  0  0  0  0  0
   45.8518   -0.0658    2.7016 H   0  0  0  0  0  0  0  0  0  0  0  0
   47.7439   -0.0145    4.5897 H   0  0  0  0  0  0  0  0  0  0  0  0
   49.6234   -0.0819    0.8104 H   0  0  0  0  0  0  0  0  0  0  0  0
   51.4616   -1.7966    5.2378 H   0  0  0  0  0  0  0  0  0  0  0  0
   51.5007   -1.6398    7.6946 H   0  0  0  0  0  0  0  0  0  0  0  0
   50.7203   -0.5860    9.5720 H   0  0  0  0  0  0  0  0  0  0  0  0
   48.5798    0.8937    9.6191 H   0  0  0  0  0  0  0  0  0  0  0  0
   49.7635    0.9345   10.9519 H   0  0  0  0  0  0  0  0  0  0  0  0
   49.8001    2.1903    9.7028 H   0  0  0  0  0  0  0  0  0  0  0  0
   49.4626    2.1380    7.4715 H   0  0  0  0  0  0  0  0  0  0  0  0
   49.4288    1.9683    5.0319 H   0  0  0  0  0  0  0  0  0  0  0  0
   53.0870    0.0992    4.5182 H   0  0  0  0  0  0  0  0  0  0  0  0
   54.9331   -0.0882    2.5730 H   0  0  0  0  0  0  0  0  0  0  0  0
   54.8546   -0.3623   -2.6797 H   0  0  0  0  0  0  0  0  0  0  0  0
   52.9659   -0.3473   -4.5707 H   0  0  0  0  0  0  0  0  0  0  0  0
   51.0807   -0.3094   -0.7938 H   0  0  0  0  0  0  0  0  0  0  0  0
   49.2674    1.5396   -5.1348 H   0  0  0  0  0  0  0  0  0  0  0  0
   49.2241    1.5166   -7.5807 H   0  0  0  0  0  0  0  0  0  0  0  0
   50.3856   -1.3798   -9.4962 H   0  0  0  0  0  0  0  0  0  0  0  0
   49.4820    1.3863   -9.8184 H   0  0  0  0  0  0  0  0  0  0  0  0
   49.3924    0.0347  -10.9602 H   0  0  0  0  0  0  0  0  0  0  0  0
   48.2578    0.1116   -9.5868 H   0  0  0  0  0  0  0  0  0  0  0  0
   51.2258   -2.2871   -7.5684 H   0  0  0  0  0  0  0  0  0  0  0  0
   51.2647   -2.2498   -5.1074 H   0  0  0  0  0  0  0  0  0  0  0  0
   47.6228   -0.4129   -4.5063 H   0  0  0  0  0  0  0  0  0  0  0  0
   45.7735   -0.2933   -2.5580 H   0  0  0  0  0  0  0  0  0  0  0  0
  1  2  4  0  0  0  0
  2  3  4  0  0  0  0
  3  4  2  0  0  0  0
  4  5  4  0  0  0  0
  2  6  4  0  0  0  0
  5  6  4  0  0  0  0
  5  7  4  0  0  0  0
  7  8  1  0  0  0  0
  8  9  4  0  0  0  0
  9 10  4  0  0  0  0
 10 11  4  0  0  0  0
 11 12  1  0  0  0  0
 12 13  1  0  0  0  0
 11 14  4  0  0  0  0
  8 15  4  0  0  0  0
 14 15  4  0  0  0  0
  7 16  4  0  0  0  0
 16 17  1  0  0  0  0
 17 18  2  0  0  0  0
 16 19  4  0  0  0  0
 18 20  1  0  0  0  0
 19 20  4  0  0  0  0
 20 21  4  0  0  0  0
 21 22  4  0  0  0  0
 22 23  4  0  0  0  0
 23 24  2  0  0  0  0
 24 25  4  0  0  0  0
 22 26  4  0  0  0  0
 25 26  4  0  0  0  0
 25 27  4  0  0  0  0
 27 28  1  0  0  0  0
 28 29  4  0  0  0  0
 29 30  4  0  0  0  0
 30 31  4  0  0  0  0
 31 32  1  0  0  0  0
 32 33  1  0  0  0  0
 31 34  4  0  0  0  0
 28 35  4  0  0  0  0
 34 35  4  0  0  0  0
 27 36  4  0  0  0  0
 36 37  1  0  0  0  0
 37 38  2  0  0  0  0
  1 39  4  0  0  0  0
 38 39  1  0  0  0  0
 36 40  4  0  0  0  0
 39 40  4  0  0  0  0
  1 41  1  0  0  0  0
  3 42  1  0  0  0  0
  4 43  1  0  0  0  0
  6 44  1  0  0  0  0
  9 45  1  0  0  0  0
 10 46  1  0  0  0  0
 12 47  1  0  0  0  0
 13 48  1  0  0  0  0
 13 49  1  0  0  0  0
 13 50  1  0  0  0  0
 14 51  1  0  0  0  0
 15 52  1  0  0  0  0
 17 53  1  0  0  0  0
 18 54  1  0  0  0  0
 23 55  1  0  0  0  0
 24 56  1  0  0  0  0
 26 57  1  0  0  0  0
 29 58  1  0  0  0  0
 30 59  1  0  0  0  0
 32 60  1  0  0  0  0
 33 61  1  0  0  0  0
 33 62  1  0  0  0  0
 33 63  1  0  0  0  0
 34 64  1  0  0  0  0
 35 65  1  0  0  0  0
 37 66  1  0  0  0  0
 38 67  1  0  0  0  0
 68 69  4  0  0  0  0
 69 70  4  0  0  0  0
 70 71  2  0  0  0  0
 71 72  4  0  0  0  0
 69 73  4  0  0  0  0
 72 73  4  0  0  0  0
 72 74  4  0  0  0  0
 74 75  1  0  0  0  0
 75 76  4  0  0  0  0
 76 77  4  0  0  0  0
 77 78  4  0  0  0  0
 78 79  1  0  0  0  0
 79 80  1  0  0  0  0
 78 81  4  0  0  0  0
 75 82  4  0  0  0  0
 81 82  4  0  0  0  0
 74 83  4  0  0  0  0
 83 84  1  0  0  0  0
 84 85  2  0  0  0  0
 83 86  4  0  0  0  0
 85 87  1  0  0  0  0
 86 87  4  0  0  0  0
 87 88  4  0  0  0  0
 88 89  4  0  0  0  0
 89 90  4  0  0  0  0
 90 91  2  0  0  0  0
 91 92  4  0  0  0  0
 89 93  4  0  0  0  0
 92 93  4  0  0  0  0
 92 94  4  0  0  0  0
 94 95  1  0  0  0  0
 95 96  4  0  0  0  0
 96 97  4  0  0  0  0
 97 98  4  0  0  0  0
 98 99  1  0  0  0  0
 99100  1  0  0  0  0
 98101  4  0  0  0  0
 95102  4  0  0  0  0
101102  4  0  0  0  0
 94103  4  0  0  0  0
103104  1  0  0  0  0
104105  2  0  0  0  0
 68106  4  0  0  0  0
105106  1  0  0  0  0
103107  4  0  0  0  0
106107  4  0  0  0  0
 68108  1  0  0  0  0
 70109  1  0  0  0  0
 71110  1  0  0  0  0
 73111  1  0  0  0  0
 76112  1  0  0  0  0
 77113  1  0  0  0  0
 79114  1  0  0  0  0
 80115  1  0  0  0  0
 80116  1  0  0  0  0
 80117  1  0  0  0  0
 81118  1  0  0  0  0
 82119  1  0  0  0  0
 84120  1  0  0  0  0
 85121  1  0  0  0  0
 90122  1  0  0  0  0
 91123  1  0  0  0  0
 93124  1  0  0  0  0
 96125  1  0  0  0  0
 97126  1  0  0  0  0
 99127  1  0  0  0  0
100128  1  0  0  0  0
100129  1  0  0  0  0
100130  1  0  0  0  0
101131  1  0  0  0  0
102132  1  0  0  0  0
104133  1  0  0  0  0
105134  1  0  0  0  0
135136  3  0  0  0  0
136137  4  0  0  0  0
 21138  4  0  0  0  0
137138  3  0  0  0  0
135139  4  0  0  0  0
139140  3  0  0  0  0
141142  3  0  0  0  0
142143  4  0  0  0  0
143144  3  0  0  0  0
141145  4  0  0  0  0
 88146  4  0  0  0  0
145146  3  0  0  0  0
140147  4  0  0  0  0
147148  4  0  0  0  0
148149  4  0  0  0  0
149150  2  0  0  0  0
150151  4  0  0  0  0
148152  4  0  0  0  0
151152  4  0  0  0  0
151153  4  0  0  0  0
153154  1  0  0  0  0
154155  4  0  0  0  0
155156  4  0  0  0  0
156157  4  0  0  0  0
157158  1  0  0  0  0
158159  1  0  0  0  0
157160  4  0  0  0  0
154161  4  0  0  0  0
160161  4  0  0  0  0
153162  4  0  0  0  0
162163  1  0  0  0  0
163164  2  0  0  0  0
162165  4  0  0  0  0
164166  1  0  0  0  0
165166  4  0  0  0  0
144167  4  0  0  0  0
166167  4  0  0  0  0
167168  4  0  0  0  0
168169  4  0  0  0  0
169170  2  0  0  0  0
170171  4  0  0  0  0
168172  4  0  0  0  0
171172  4  0  0  0  0
171173  4  0  0  0  0
173174  1  0  0  0  0
174175  4  0  0  0  0
175176  4  0  0  0  0
176177  4  0  0  0  0
177178  1  0  0  0  0
178179  1  0  0  0  0
177180  4  0  0  0  0
174181  4  0  0  0  0
180181  4  0  0  0  0
173182  4  0  0  0  0
182183  1  0  0  0  0
183184  2  0  0  0  0
147185  4  0  0  0  0
184185  1  0  0  0  0
182186  4  0  0  0  0
185186  4  0  0  0  0
149187  1  0  0  0  0
150188  1  0  0  0  0
152189  1  0  0  0  0
155190  1  0  0  0  0
156191  1  0  0  0  0
158192  1  0  0  0  0
159193  1  0  0  0  0
159194  1  0  0  0  0
159195  1  0  0  0  0
160196  1  0  0  0  0
161197  1  0  0  0  0
163198  1  0  0  0  0
164199  1  0  0  0  0
169200  1  0  0  0  0
170201  1  0  0  0  0
172202  1  0  0  0  0
175203  1  0  0  0  0
176204  1  0  0  0  0
178205  1  0  0  0  0
179206  1  0  0  0  0
179207  1  0  0  0  0
179208  1  0  0  0  0
180209  1  0  0  0  0
181210  1  0  0  0  0
183211  1  0  0  0  0
184212  1  0  0  0  0
M  END
