194

C 25.209725 0.024993 -0.116202
C 25.944481 -1.257244 -0.613689
C 25.349397 -2.350216 -1.200494
C 26.374856 -3.300607 -1.444804
C 27.561023 -2.756199 -0.991807
N 27.294534 -1.488223 -0.540097
C 28.978824 -3.463199 -0.967380
C 29.008014 -4.934018 -1.135766
C 29.301899 -5.505113 -2.381286
C 29.317503 -6.893157 -2.532823
C 29.037454 -7.708827 -1.433180
C 29.048683 -9.179081 -1.569712
O 29.286700 -9.752596 -2.626404
C 28.742771 -7.149753 -0.185741
C 28.728129 -5.762197 -0.041259
C 30.108754 -2.746094 -0.725107
C 31.409561 -3.376600 -0.629936
C 32.310823 -2.439684 -0.359479
N 30.306328 -1.407960 -0.509580
C 31.634200 -1.160462 -0.275892
C 32.299894 -0.006365 -0.004605
C 31.521791 1.375003 0.061497
C 32.063892 2.627578 -0.149708
C 31.037329 3.579917 0.067856
C 29.894096 2.881596 0.393817
N 30.185572 1.538946 0.335022
C 28.481722 3.507750 0.749868
C 28.441560 4.913687 1.206630
C 28.738415 5.237190 2.536399
C 28.709955 6.567818 2.960266
C 28.386007 7.575078 2.047237
C 28.351833 8.988773 2.472240
O 28.591155 9.351116 3.618466
C 28.088757 7.264086 0.716392
C 28.118119 5.932947 0.299828
C 27.356958 2.757479 0.621912
C 26.032307 3.265114 0.933695
C 25.147767 2.303905 0.685055
C 25.872487 1.148605 0.216146
N 27.194982 1.464658 0.209882
H 24.130244 -0.008964 -0.029349
H 24.296914 -2.458487 -1.413443
H 26.255721 -4.281513 -1.879500
H 27.988756 -0.824544 -0.204876
H 29.521553 -4.853274 -3.224705
H 29.549017 -7.326146 -3.501854
H 28.825882 -9.750920 -0.653535
H 28.524531 -7.769422 0.677738
H 28.502894 -5.306041 0.921025
H 31.622127 -4.424039 -0.747212
H 33.362095 -2.622062 -0.231285
H 33.088340 2.837699 -0.417124
H 31.125330 4.653506 -0.001056
H 29.502362 0.791260 0.425082
H 28.988270 4.439721 3.233570
H 28.939949 6.807673 3.994354
H 28.094827 9.722395 1.689469
H 27.833690 8.034624 -0.004386
H 27.887111 5.667543 -0.730786
H 25.800213 4.246837 1.305073
H 24.082892 2.367222 0.814663
C 66.666178 0.029448 -0.114853
C 65.931423 1.372285 0.182489
C 66.526506 2.607191 0.300527
C 65.501047 3.533479 0.624444
C 64.314881 2.829226 0.699367
N 64.581369 1.523647 0.371847
C 62.897079 3.403930 1.111874
C 62.867890 4.721119 1.787650
C 62.574004 5.887200 1.068117
C 62.558400 7.126170 1.711998
C 62.838449 7.194857 3.079409
C 62.827220 8.493906 3.781377
O 62.589203 9.557256 3.220299
C 63.133132 6.037714 3.807206
C 63.147774 4.803063 3.157727
C 61.767149 2.672876 0.915668
C 60.466342 3.144691 1.344603
C 59.565080 2.215112 1.049917
N 61.569575 1.439937 0.352716
C 60.241704 1.104378 0.409863
C 59.576009 -0.006365 -0.004605
C 60.354112 -1.192389 -0.715867
C 59.812011 -2.117427 -1.586417
C 60.838574 -3.030499 -1.933668
C 61.981808 -2.630281 -1.275088
N 61.690331 -1.480525 -0.579223
C 63.394181 -3.348773 -1.326174
C 63.434343 -4.771944 -1.726019
C 63.137488 -5.778751 -0.799046
C 63.165948 -7.121014 -1.184486
C 63.489897 -7.452629 -2.502904
C 63.524070 -8.864638 -2.933477
O 63.284748 -9.801947 -2.180764
C 63.787146 -6.455634 -3.437712
C 63.757785 -5.116997 -3.045912
C 64.518945 -2.653537 -1.016454
C 65.843597 -3.248861 -1.038629
C 66.728136 -2.311171 -0.712314
C 66.003416 -1.089803 -0.461606
N 64.680921 -1.349297 -0.642137
H 67.745659 0.009523 -0.023752
H 67.578989 2.815403 0.183404
H 65.620182 4.590765 0.806879
H 63.887147 0.785487 0.282615
H 62.354350 5.812696 0.004775
H 62.326886 8.023968 1.145907
H 63.050021 8.461487 4.860880
H 63.351372 6.074323 4.869395
H 63.373010 3.889731 3.705353
H 60.253776 4.081259 1.828051
H 58.513809 2.295748 1.257746
H 58.787563 -2.143918 -1.925475
H 60.750573 -3.885544 -2.586539
H 62.373541 -0.908376 -0.089539
H 62.887633 -5.501952 0.223396
H 62.935954 -7.894204 -0.457131
H 63.781076 -9.040829 -3.991725
H 64.042214 -6.696931 -4.464857
H 63.988793 -4.324476 -3.756204
H 66.075690 -4.271704 -1.274200
H 67.793011 -2.435748 -0.639597
C 38.532757 -0.005263 0.003885
C 37.323817 -0.018718 -0.004562
C 35.902288 -0.009899 -0.016545
C 34.690619 -0.002460 -0.005682
C 39.949361 -0.011938 0.004419
C 41.170057 -0.002460 -0.005682
C 54.550834 -0.005263 0.003885
C 53.341895 -0.018718 -0.004562
C 51.920366 -0.009899 -0.016545
C 50.708697 -0.002460 -0.005682
C 55.967439 -0.011938 0.004419
C 57.188135 -0.002460 -0.005682
C 42.340205 0.013435 0.010499
C 43.124913 0.882827 -1.056396
C 42.583380 1.479663 -2.169738
C 43.622427 2.177135 -2.832144
C 44.773612 1.981584 -2.108232
N 44.471854 1.155352 -1.051725
C 46.191963 2.598087 -2.444238
C 46.229637 3.778619 -3.343268
C 46.454625 3.623338 -4.716263
C 46.497319 4.737887 -5.557614
C 46.309744 6.013103 -5.021467
C 46.352753 7.206389 -5.891346
O 46.514049 7.144424 -7.104610
C 46.078010 6.181823 -3.653790
C 46.038424 5.063313 -2.818427
C 47.322802 2.077900 -1.897406
C 48.629020 2.627730 -2.191913
C 49.540519 1.925408 -1.529427
N 47.521974 1.035110 -1.030977
C 48.862391 0.892391 -0.771915
C 49.544484 0.013435 0.010499
C 48.768385 -1.095548 0.845985
C 49.347529 -2.107730 1.589465
C 48.306333 -2.832541 2.213805
C 47.114055 -2.244500 1.836522
N 47.403211 -1.209164 0.977394
C 45.680062 -2.678106 2.344193
C 45.617192 -3.774369 3.338344
C 45.492969 -5.096672 2.891392
C 45.460157 -6.145591 3.808949
C 45.537747 -5.865266 5.178113
C 45.491356 -6.989670 6.132695
O 45.559685 -6.839569 7.346500
C 45.652035 -4.549580 5.635735
C 45.696751 -3.504121 4.711382
C 44.551239 -2.084918 1.879380
C 43.243237 -2.449323 2.382304
C 42.336006 -1.702062 1.767849
C 43.015761 -0.843304 0.820249
N 44.355061 -1.108809 0.942357
H 41.552117 1.426192 -2.474329
H 43.536690 2.759466 -3.734870
H 45.144508 0.767800 -0.400675
H 46.603367 2.625131 -5.116906
H 46.679946 4.604226 -6.618857
H 46.224473 8.180505 -5.388116
H 45.927667 7.165784 -3.223291
H 45.865095 5.175143 -1.748830
H 48.841484 3.459337 -2.838059
H 50.597449 2.111959 -1.567226
H 50.403699 -2.299606 1.693684
H 48.418313 -3.677210 2.881206
H 46.714346 -0.611387 0.524321
H 45.422221 -5.286844 1.820571
H 45.374773 -7.162451 3.439544
H 45.390165 -7.995018 5.691026
H 45.707521 -4.333045 6.699326
H 45.789849 -2.473375 5.044095
H 43.030704 -3.188652 3.133118
H 41.278726 -1.753984 1.950146
