346

C 33.408627 -0.002807 -0.001105
C 34.143061 -1.379965 -0.072991
C 33.555915 -2.623629 -0.137908
C 34.607833 -3.579527 -0.187809
C 35.796285 -2.882341 -0.151420
N 35.504593 -1.546662 -0.081693
C 37.227641 -3.500663 -0.183706
C 38.350202 -2.755857 -0.144823
C 39.635188 -3.408323 -0.178892
C 40.572472 -2.467094 -0.129755
N 38.572033 -1.413640 -0.074746
C 39.921411 -1.169227 -0.061994
C 40.618173 -0.001475 -0.001034
C 39.843508 1.390813 0.071654
C 40.407087 2.651352 0.137467
C 39.349063 3.595510 0.186756
C 38.171151 2.885580 0.149684
N 38.476500 1.548444 0.079875
C 36.738354 3.510142 0.182281
C 35.620833 2.760534 0.143147
C 34.317064 3.385256 0.175752
C 33.400581 2.421202 0.125427
C 34.094636 1.155566 0.059364
N 35.430718 1.416792 0.073003
H 32.325911 0.005411 -0.000679
H 32.495239 -2.821295 -0.148224
H 34.508568 -4.652589 -0.243825
H 36.184618 -0.790623 -0.042231
H 37.305683 -4.580096 -0.240064
H 39.800149 -4.469237 -0.234284
H 41.630511 -2.654493 -0.139543
H 41.462461 2.876128 0.149207
H 39.437489 4.669606 0.242833
H 37.797797 0.790603 0.040309
H 36.657122 4.589022 0.238599
H 34.131090 4.442411 0.230934
H 32.333700 2.550603 0.132177
C 172.843441 -0.000163 -0.001275
C 172.109008 1.356373 -0.249350
C 172.696154 2.581415 -0.473377
C 171.644235 3.522998 -0.645573
C 170.455783 2.836252 -0.519988
N 170.747476 1.520574 -0.279379
C 169.024428 3.445314 -0.631380
C 167.901866 2.711661 -0.497209
C 166.616880 3.354355 -0.614753
C 165.679597 2.427222 -0.445198
N 167.680035 1.389544 -0.255414
C 166.330657 1.148790 -0.211392
C 165.633895 -0.001475 -0.001034
C 166.408560 -1.372913 0.249778
C 165.844982 -2.614574 0.476861
C 166.903006 -3.544594 0.646941
C 168.080917 -2.845297 0.519043
N 167.775569 -1.528185 0.278166
C 169.513714 -3.460507 0.631545
C 170.631235 -2.722124 0.496509
C 171.935004 -3.337492 0.609039
C 172.851487 -2.387874 0.435376
C 172.157432 -1.141190 0.207391
N 170.821350 -1.398504 0.254451
H 173.926158 -0.008258 0.000202
H 173.756830 2.776121 -0.508983
H 171.743500 4.579992 -0.838872
H 170.067451 0.775856 -0.143191
H 168.946385 4.508582 -0.825837
H 166.451919 4.399382 -0.805874
H 164.621558 2.611813 -0.478961
H 164.789608 -2.835983 0.517357
H 166.814579 -4.602605 0.840435
H 168.454272 -0.781692 0.141645
H 169.594946 -4.523231 0.825891
H 172.120978 -4.378817 0.799470
H 173.918368 -2.515338 0.458682
C 43.851047 0.007638 0.005340
C 45.309274 -0.014199 -0.012533
C 46.443202 -0.034953 -0.014024
C 47.804584 -0.047542 -0.016215
C 49.078802 -0.037236 -0.020980
C 50.267265 -0.018438 -0.027136
C 51.619626 0.006346 -0.011268
C 52.719893 0.007638 0.005340
C 62.118412 0.007638 0.005340
C 63.576638 -0.014199 -0.012533
C 64.710566 -0.034953 -0.014024
C 66.071948 -0.047542 -0.016215
C 67.346167 -0.037236 -0.020980
C 68.534629 -0.018438 -0.027136
C 69.886990 0.006346 -0.011268
C 70.987257 0.007638 0.005340
C 80.385777 0.007638 0.005340
C 81.844003 -0.014199 -0.012533
C 82.977931 -0.034953 -0.014024
C 84.339313 -0.047542 -0.016215
C 85.613532 -0.037236 -0.020980
C 86.801994 -0.018438 -0.027136
C 88.154355 0.006346 -0.011268
C 89.254622 0.007638 0.005340
C 98.653141 0.007638 0.005340
C 100.111367 -0.014199 -0.012533
C 101.245296 -0.034953 -0.014024
C 102.606677 -0.047542 -0.016215
C 103.880896 -0.037236 -0.020980
C 105.069359 -0.018438 -0.027136
C 106.421719 0.006346 -0.011268
C 107.521987 0.007638 0.005340
C 116.920506 0.007638 0.005340
C 118.378732 -0.014199 -0.012533
C 119.512660 -0.034953 -0.014024
C 120.874042 -0.047542 -0.016215
C 122.148261 -0.037236 -0.020980
C 123.336723 -0.018438 -0.027136
C 124.689084 0.006346 -0.011268
C 125.789351 0.007638 0.005340
C 135.187870 0.007638 0.005340
C 136.646097 -0.014199 -0.012533
C 137.780025 -0.034953 -0.014024
C 139.141406 -0.047542 -0.016215
C 140.415625 -0.037236 -0.020980
C 141.604088 -0.018438 -0.027136
C 142.956448 0.006346 -0.011268
C 144.056716 0.007638 0.005340
C 153.455235 0.007638 0.005340
C 154.913461 -0.014199 -0.012533
C 156.047389 -0.034953 -0.014024
C 157.408771 -0.047542 -0.016215
C 158.682990 -0.037236 -0.020980
C 159.871452 -0.018438 -0.027136
C 161.223813 0.006346 -0.011268
C 162.324080 0.007638 0.005340
C 53.802927 -0.001475 -0.001030
C 54.582967 1.386060 -0.018356
C 54.030862 2.652162 -0.034179
C 55.099479 3.584785 -0.045811
C 56.270386 2.861157 -0.036752
N 55.951693 1.528130 -0.020110
C 57.702758 3.475825 -0.044399
C 58.828383 2.737773 -0.035191
C 60.108681 3.401170 -0.043444
C 61.053132 2.466198 -0.031782
N 59.058373 1.397281 -0.018484
C 60.410105 1.163727 -0.015559
C 61.112319 -0.001475 -0.001030
C 60.332279 -1.389010 0.016251
C 60.884384 -2.655113 0.031987
C 59.815767 -3.587736 0.043624
C 58.644859 -2.864107 0.034651
N 58.963552 -1.531079 0.018048
C 57.212487 -3.478774 0.042343
C 56.086862 -2.740722 0.033142
C 54.806565 -3.404119 0.041439
C 53.862114 -2.469146 0.029776
C 54.505140 -1.166677 0.013508
N 55.856872 -1.400231 0.016408
H 52.977659 2.887384 -0.037134
H 55.022849 4.661286 -0.059258
H 56.616507 0.757521 -0.010483
H 57.779647 4.557164 -0.057872
H 60.265827 4.464714 -0.056697
H 62.110025 2.660401 -0.034192
H 61.937586 -2.890336 0.034881
H 59.892396 -4.664237 0.057016
H 58.298738 -0.760470 0.008464
H 57.135599 -4.560113 0.055846
H 54.649419 -4.467662 0.054720
H 52.805220 -2.663350 0.032213
C 72.070291 -0.001475 -0.001030
C 72.850331 1.386060 -0.018356
C 72.298226 2.652162 -0.034179
C 73.366843 3.584785 -0.045811
C 74.537751 2.861157 -0.036752
N 74.219058 1.528130 -0.020110
C 75.970123 3.475825 -0.044399
C 77.095748 2.737773 -0.035191
C 78.376046 3.401170 -0.043444
C 79.320496 2.466198 -0.031782
N 77.325738 1.397281 -0.018484
C 78.677470 1.163727 -0.015559
C 79.379683 -0.001475 -0.001030
C 78.599643 -1.389010 0.016251
C 79.151748 -2.655113 0.031987
C 78.083131 -3.587736 0.043624
C 76.912224 -2.864107 0.034651
N 77.230917 -1.531079 0.018048
C 75.479852 -3.478774 0.042343
C 74.354227 -2.740722 0.033142
C 73.073929 -3.404119 0.041439
C 72.129479 -2.469146 0.029776
C 72.772505 -1.166677 0.013508
N 74.124237 -1.400231 0.016408
H 71.245024 2.887384 -0.037134
H 73.290214 4.661286 -0.059258
H 74.883871 0.757521 -0.010483
H 76.047011 4.557164 -0.057872
H 78.533192 4.464714 -0.056697
H 80.377390 2.660401 -0.034192
H 80.204951 -2.890336 0.034881
H 78.159761 -4.664237 0.057016
H 76.566103 -0.760470 0.008464
H 75.402963 -4.560113 0.055846
H 72.916783 -4.467662 0.054720
H 71.072585 -2.663350 0.032213
C 90.337656 -0.001475 -0.001030
C 91.117696 1.386060 -0.018356
C 90.565591 2.652162 -0.034179
C 91.634208 3.584785 -0.045811
C 92.805116 2.861157 -0.036752
N 92.486423 1.528130 -0.020110
C 94.237488 3.475825 -0.044399
C 95.363113 2.737773 -0.035191
C 96.643410 3.401170 -0.043444
C 97.587861 2.466198 -0.031782
N 95.593102 1.397281 -0.018484
C 96.944834 1.163727 -0.015559
C 97.647048 -0.001475 -0.001030
C 96.867008 -1.389010 0.016251
C 97.419113 -2.655113 0.031987
C 96.350496 -3.587736 0.043624
C 95.179588 -2.864107 0.034651
N 95.498281 -1.531079 0.018048
C 93.747216 -3.478774 0.042343
C 92.621591 -2.740722 0.033142
C 91.341294 -3.404119 0.041439
C 90.396843 -2.469146 0.029776
C 91.039869 -1.166677 0.013508
N 92.391602 -1.400231 0.016408
H 89.512388 2.887384 -0.037134
H 91.557578 4.661286 -0.059258
H 93.151236 0.757521 -0.010483
H 94.314376 4.557164 -0.057872
H 96.800557 4.464714 -0.056697
H 98.644754 2.660401 -0.034192
H 98.472315 -2.890336 0.034881
H 96.427125 -4.664237 0.057016
H 94.833468 -0.760470 0.008464
H 93.670328 -4.560113 0.055846
H 91.184148 -4.467662 0.054720
H 89.339949 -2.663350 0.032213
C 108.605020 -0.001475 -0.001030
C 109.385060 1.386060 -0.018356
C 108.832956 2.652162 -0.034179
C 109.901572 3.584785 -0.045811
C 111.072480 2.861157 -0.036752
N 110.753787 1.528130 -0.020110
C 112.504852 3.475825 -0.044399
C 113.630477 2.737773 -0.035191
C 114.910775 3.401170 -0.043444
C 115.855225 2.466198 -0.031782
N 113.860467 1.397281 -0.018484
C 115.212199 1.163727 -0.015559
C 115.914412 -0.001475 -0.001030
C 115.134373 -1.389010 0.016251
C 115.686478 -2.655113 0.031987
C 114.617860 -3.587736 0.043624
C 113.446953 -2.864107 0.034651
N 113.765646 -1.531079 0.018048
C 112.014581 -3.478774 0.042343
C 110.888956 -2.740722 0.033142
C 109.608658 -3.404119 0.041439
C 108.664208 -2.469146 0.029776
C 109.307234 -1.166677 0.013508
N 110.658966 -1.400231 0.016408
H 107.779753 2.887384 -0.037134
H 109.824943 4.661286 -0.059258
H 111.418600 0.757521 -0.010483
H 112.581741 4.557164 -0.057872
H 115.067921 4.464714 -0.056697
H 116.912119 2.660401 -0.034192
H 116.739680 -2.890336 0.034881
H 114.694490 -4.664237 0.057016
H 113.100832 -0.760470 0.008464
H 111.937692 -4.560113 0.055846
H 109.451512 -4.467662 0.054720
H 107.607314 -2.663350 0.032213
C 126.872385 -0.001475 -0.001030
C 127.652425 1.386060 -0.018356
C 127.100320 2.652162 -0.034179
C 128.168937 3.584785 -0.045811
C 129.339845 2.861157 -0.036752
N 129.021152 1.528130 -0.020110
C 130.772217 3.475825 -0.044399
C 131.897842 2.737773 -0.035191
C 133.178140 3.401170 -0.043444
C 134.122590 2.466198 -0.031782
N 132.127832 1.397281 -0.018484
C 133.479563 1.163727 -0.015559
C 134.181777 -0.001475 -0.001030
C 133.401737 -1.389010 0.016251
C 133.953842 -2.655113 0.031987
C 132.885225 -3.587736 0.043624
C 131.714317 -2.864107 0.034651
N 132.033010 -1.531079 0.018048
C 130.281945 -3.478774 0.042343
C 129.156321 -2.740722 0.033142
C 127.876023 -3.404119 0.041439
C 126.931572 -2.469146 0.029776
C 127.574599 -1.166677 0.013508
N 128.926331 -1.400231 0.016408
H 126.047117 2.887384 -0.037134
H 128.092307 4.661286 -0.059258
H 129.685965 0.757521 -0.010483
H 130.849105 4.557164 -0.057872
H 133.335286 4.464714 -0.056697
H 135.179484 2.660401 -0.034192
H 135.007045 -2.890336 0.034881
H 132.961854 -4.664237 0.057016
H 131.368197 -0.760470 0.008464
H 130.205057 -4.560113 0.055846
H 127.718877 -4.467662 0.054720
H 125.874678 -2.663350 0.032213
C 145.139750 -0.001475 -0.001030
C 145.919790 1.386060 -0.018356
C 145.367685 2.652162 -0.034179
C 146.436302 3.584785 -0.045811
C 147.607209 2.861157 -0.036752
N 147.288516 1.528130 -0.020110
C 149.039581 3.475825 -0.044399
C 150.165206 2.737773 -0.035191
C 151.445504 3.401170 -0.043444
C 152.389955 2.466198 -0.031782
N 150.395196 1.397281 -0.018484
C 151.746928 1.163727 -0.015559
C 152.449142 -0.001475 -0.001030
C 151.669102 -1.389010 0.016251
C 152.221207 -2.655113 0.031987
C 151.152590 -3.587736 0.043624
C 149.981682 -2.864107 0.034651
N 150.300375 -1.531079 0.018048
C 148.549310 -3.478774 0.042343
C 147.423685 -2.740722 0.033142
C 146.143387 -3.404119 0.041439
C 145.198937 -2.469146 0.029776
C 145.841963 -1.166677 0.013508
N 147.193695 -1.400231 0.016408
H 144.314482 2.887384 -0.037134
H 146.359672 4.661286 -0.059258
H 147.953330 0.757521 -0.010483
H 149.116470 4.557164 -0.057872
H 151.602650 4.464714 -0.056697
H 153.446848 2.660401 -0.034192
H 153.274409 -2.890336 0.034881
H 151.229219 -4.664237 0.057016
H 149.635561 -0.760470 0.008464
H 148.472422 -4.560113 0.055846
H 145.986242 -4.467662 0.054720
H 144.142043 -2.663350 0.032213
