460

C 101.270426 0.037246 0.101437
C 102.000824 -1.340346 0.072223
C 101.395538 -2.572951 0.162516
C 102.418503 -3.548731 0.039011
C 103.614328 -2.877182 -0.127266
N 103.353384 -1.531656 -0.052063
C 105.036391 -3.527084 -0.387069
C 106.165402 -2.770020 -0.338685
C 107.469350 -3.321720 -0.645057
C 108.369509 -2.350877 -0.545137
N 106.360150 -1.446011 -0.046365
C 107.690079 -1.131657 -0.153357
C 108.356349 0.038040 0.038469
C 107.579025 1.342398 0.499891
C 108.121158 2.416782 1.177264
C 107.095573 3.381096 1.340710
C 105.952864 2.863821 0.769314
C 104.541554 3.580722 0.680137
C 104.504941 5.055404 0.786151
C 104.814701 5.849434 -0.323884
C 104.788249 7.242700 -0.222766
C 104.452884 7.850793 0.993939
C 104.435015 9.331938 1.058382
O 104.107698 9.802894 2.276893
O 104.680394 10.100250 0.145651
C 104.144855 7.059000 2.107911
C 104.172514 5.666557 2.001575
C 103.417172 2.839742 0.502237
C 102.094114 3.429509 0.399055
C 101.210179 2.447926 0.245414
C 101.933795 1.200543 0.238508
N 103.254800 1.487941 0.382829
N 106.244003 1.602131 0.306409
C 105.074517 -4.966388 -0.734604
C 104.807714 -5.379980 -2.044982
C 104.826216 -6.737623 -2.374591
C 105.115405 -7.691739 -1.389961
C 105.146769 -9.143121 -1.690925
O 104.880127 -9.421004 -2.980878
O 105.381423 -10.041053 -0.901738
C 105.384188 -7.281042 -0.077920
C 105.360690 -5.922688 0.246936
H 100.192383 0.042518 -0.004976
H 100.338150 -2.749921 0.285150
H 102.291911 -4.621096 0.045119
H 104.052963 -0.794274 -0.088046
H 107.683073 -4.338413 -0.921996
H 109.422094 -2.473434 -0.724205
H 109.144460 2.505789 1.508584
H 107.183036 4.344789 1.818606
H 105.072367 5.367717 -1.264984
H 105.028664 7.843015 -1.096381
H 104.138481 10.772752 2.156161
H 103.880045 7.507117 3.060565
H 103.932005 5.040522 2.858779
H 101.862356 4.478182 0.437703
H 100.146294 2.557534 0.139429
H 105.560034 0.948595 -0.065876
H 104.587511 -4.629611 -2.801427
H 104.614224 -7.031546 -3.398316
H 104.939314 -10.396734 -3.015054
H 105.613465 -8.008495 0.696671
H 105.567375 -5.592473 1.262420
C 193.427165 0.010517 0.095109
C 192.696768 1.254981 0.686653
C 193.302054 2.316264 1.320013
C 192.279088 3.243843 1.647119
C 191.083264 2.718128 1.197396
N 191.344208 1.481709 0.661336
C 189.661201 3.415531 1.256560
C 188.532190 2.717134 0.960371
C 187.228242 3.347638 0.933879
C 186.328083 2.435046 0.587906
N 188.337442 1.402599 0.628029
C 187.007513 1.169584 0.391450
C 186.341243 0.038040 0.038469
C 187.118567 -1.334748 -0.133910
C 186.576434 -2.598796 -0.010148
C 187.602019 -3.534033 -0.296412
C 188.744728 -2.815474 -0.575230
C 190.156038 -3.416296 -0.976371
C 190.192650 -4.781976 -1.542799
C 189.882890 -4.994027 -2.891018
C 189.909343 -6.284739 -3.425319
C 190.244707 -7.373807 -2.610408
C 190.262577 -8.726627 -3.216892
O 190.589894 -9.693925 -2.338880
O 190.017198 -9.004153 -4.377220
C 190.552736 -7.165521 -1.259672
C 190.525078 -5.873205 -0.730405
C 191.280420 -2.674204 -0.803161
C 192.603478 -3.155107 -1.159820
C 193.487412 -2.208829 -0.857049
C 192.763797 -1.090756 -0.303945
N 191.442792 -1.412355 -0.303801
N 188.453589 -1.480161 -0.423308
C 189.623075 4.857878 1.591242
C 189.889878 5.815090 0.605394
C 189.871376 7.176407 0.919485
C 189.582187 7.587778 2.227387
C 189.550823 9.020039 2.609111
O 189.817464 9.846790 1.580675
O 189.316168 9.468819 3.717126
C 189.313404 6.632408 3.216019
C 189.336902 5.272587 2.897360
H 194.505209 0.053516 -0.002373
H 194.359442 2.419465 1.508976
H 192.405681 4.199641 2.133384
H 190.644629 0.838730 0.298560
H 187.014519 4.380580 1.142182
H 185.275498 2.624882 0.482795
H 185.553132 -2.826905 0.246095
H 187.514555 -4.609703 -0.301325
H 189.625225 -4.141491 -3.516241
H 189.668928 -6.429639 -4.475359
H 190.559110 -10.506703 -2.881642
H 190.817547 -7.993204 -0.609057
H 190.765587 -5.697958 0.316498
H 192.835235 -4.109795 -1.595458
H 194.551298 -2.259283 -1.000928
H 189.137558 -0.729078 -0.463056
H 190.110081 5.483530 -0.407192
H 190.083368 7.898128 0.136209
H 189.758278 10.734272 1.987605
H 189.084127 6.935348 4.234551
H 189.130217 4.522120 3.656999
C 111.933063 0.050477 0.040911
C 110.680792 0.031296 0.036562
C 113.246731 0.049711 0.042843
C 114.749864 0.031296 0.036562
C 125.804451 0.050477 0.040911
C 124.552180 0.031296 0.036562
C 127.118119 0.049711 0.042843
C 128.621253 0.031296 0.036562
C 139.675839 0.050477 0.040911
C 138.423569 0.031296 0.036562
C 140.989507 0.049711 0.042843
C 142.492641 0.031296 0.036562
C 153.547227 0.050477 0.040911
C 152.294957 0.031296 0.036562
C 154.860895 0.049711 0.042843
C 156.364029 0.031296 0.036562
C 167.418616 0.050477 0.040911
C 166.166345 0.031296 0.036562
C 168.732284 0.049711 0.042843
C 170.235417 0.031296 0.036562
C 181.290004 0.050477 0.040911
C 180.037733 0.031296 0.036562
C 182.603672 0.049711 0.042843
C 184.106806 0.031296 0.036562
C 116.016656 -0.017884 -0.018466
C 116.811037 0.775122 -1.136571
C 116.306734 1.238319 -2.334751
C 117.344301 1.958319 -2.980602
C 118.451312 1.906225 -2.159668
N 118.138754 1.120954 -1.078412
C 119.839852 2.625170 -2.406600
C 120.975347 2.123987 -1.853536
C 122.261959 2.772916 -2.001225
C 123.170356 2.054973 -1.349522
N 121.183894 1.012730 -1.085064
C 122.508590 0.911901 -0.753759
C 123.172785 -0.017884 -0.018466
C 122.378108 -1.237966 0.605852
C 122.880910 -2.491564 0.889238
C 121.842930 -3.233862 1.508726
C 120.737481 -2.412213 1.578130
C 119.349868 -2.758239 2.256546
C 119.362378 -3.719126 3.382694
C 118.924010 -5.036717 3.199089
C 118.950655 -5.943403 4.261471
C 119.420547 -5.537386 5.517106
C 119.432623 -6.530977 6.617508
O 119.896792 -6.028768 7.777652
O 119.074795 -7.693463 6.546685
C 119.863389 -4.221535 5.703669
C 119.834441 -3.318232 4.638096
C 118.213852 -2.141427 1.837984
C 116.927949 -2.377913 2.461366
C 116.019393 -1.630987 1.843324
C 116.680592 -0.880090 0.795215
N 118.004617 -1.225238 0.845116
N 121.050815 -1.228867 0.957875
C 119.831459 3.867633 -3.211630
C 119.361448 5.062782 -2.654936
C 119.338550 6.234088 -3.416300
C 119.784588 6.216018 -4.744088
C 119.743766 7.480860 -5.516651
O 120.191728 7.342906 -6.779338
O 119.357539 8.563784 -5.113835
C 120.252417 5.021187 -5.306155
C 120.272881 3.852530 -4.541037
H 115.299543 1.094931 -2.695577
H 117.284201 2.473365 -3.927449
H 118.798154 0.808467 -0.371586
H 122.458055 3.685095 -2.535537
H 124.214872 2.299289 -1.283759
H 123.887216 -2.829378 0.693262
H 121.901547 -4.245771 1.880284
H 118.558864 -5.341594 2.220148
H 118.603095 -6.960350 4.100894
H 119.841211 -6.789835 8.389211
H 120.232907 -3.883658 6.667038
H 120.177186 -2.294055 4.773306
H 116.732134 -3.035684 3.289010
H 114.975148 -1.599733 2.095567
H 120.392075 -0.483548 0.751463
H 119.015851 5.067903 -1.622934
H 118.971732 7.152560 -2.965958
H 120.103184 8.245189 -7.146177
H 120.603830 4.982425 -6.332620
H 120.636024 2.918911 -4.966870
C 129.888044 -0.017884 -0.018466
C 130.682425 0.775122 -1.136571
C 130.178122 1.238319 -2.334751
C 131.215689 1.958319 -2.980602
C 132.322700 1.906225 -2.159668
N 132.010142 1.120954 -1.078412
C 133.711240 2.625170 -2.406600
C 134.846735 2.123987 -1.853536
C 136.133347 2.772916 -2.001225
C 137.041744 2.054973 -1.349522
N 135.055283 1.012730 -1.085064
C 136.379978 0.911901 -0.753759
C 137.044173 -0.017884 -0.018466
C 136.249496 -1.237966 0.605852
C 136.752298 -2.491564 0.889238
C 135.714318 -3.233862 1.508726
C 134.608870 -2.412213 1.578130
C 133.221256 -2.758239 2.256546
C 133.233767 -3.719126 3.382694
C 132.795398 -5.036717 3.199089
C 132.822043 -5.943403 4.261471
C 133.291935 -5.537386 5.517106
C 133.304012 -6.530977 6.617508
O 133.768181 -6.028768 7.777652
O 132.946183 -7.693463 6.546685
C 133.734777 -4.221535 5.703669
C 133.705829 -3.318232 4.638096
C 132.085241 -2.141427 1.837984
C 130.799337 -2.377913 2.461366
C 129.890781 -1.630987 1.843324
C 130.551981 -0.880090 0.795215
N 131.876005 -1.225238 0.845116
N 134.922204 -1.228867 0.957875
C 133.702848 3.867633 -3.211630
C 133.232836 5.062782 -2.654936
C 133.209938 6.234088 -3.416300
C 133.655976 6.216018 -4.744088
C 133.615154 7.480860 -5.516651
O 134.063116 7.342906 -6.779338
O 133.228928 8.563784 -5.113835
C 134.123806 5.021187 -5.306155
C 134.144269 3.852530 -4.541037
H 129.170931 1.094931 -2.695577
H 131.155589 2.473365 -3.927449
H 132.669542 0.808467 -0.371586
H 136.329443 3.685095 -2.535537
H 138.086260 2.299289 -1.283759
H 137.758604 -2.829378 0.693262
H 135.772935 -4.245771 1.880284
H 132.430252 -5.341594 2.220148
H 132.474484 -6.960350 4.100894
H 133.712599 -6.789835 8.389211
H 134.104296 -3.883658 6.667038
H 134.048575 -2.294055 4.773306
H 130.603522 -3.035684 3.289010
H 128.846536 -1.599733 2.095567
H 134.263463 -0.483548 0.751463
H 132.887239 5.067903 -1.622934
H 132.843120 7.152560 -2.965958
H 133.974573 8.245189 -7.146177
H 134.475219 4.982425 -6.332620
H 134.507412 2.918911 -4.966870
C 143.759433 -0.017884 -0.018466
C 144.553813 0.775122 -1.136571
C 144.049510 1.238319 -2.334751
C 145.087078 1.958319 -2.980602
C 146.194088 1.906225 -2.159668
N 145.881530 1.120954 -1.078412
C 147.582628 2.625170 -2.406600
C 148.718123 2.123987 -1.853536
C 150.004736 2.772916 -2.001225
C 150.913133 2.054973 -1.349522
N 148.926671 1.012730 -1.085064
C 150.251367 0.911901 -0.753759
C 150.915561 -0.017884 -0.018466
C 150.120884 -1.237966 0.605852
C 150.623686 -2.491564 0.889238
C 149.585706 -3.233862 1.508726
C 148.480258 -2.412213 1.578130
C 147.092644 -2.758239 2.256546
C 147.105155 -3.719126 3.382694
C 146.666787 -5.036717 3.199089
C 146.693431 -5.943403 4.261471
C 147.163323 -5.537386 5.517106
C 147.175400 -6.530977 6.617508
O 147.639569 -6.028768 7.777652
O 146.817571 -7.693463 6.546685
C 147.606165 -4.221535 5.703669
C 147.577217 -3.318232 4.638096
C 145.956629 -2.141427 1.837984
C 144.670725 -2.377913 2.461366
C 143.762170 -1.630987 1.843324
C 144.423369 -0.880090 0.795215
N 145.747393 -1.225238 0.845116
N 148.793592 -1.228867 0.957875
C 147.574236 3.867633 -3.211630
C 147.104225 5.062782 -2.654936
C 147.081326 6.234088 -3.416300
C 147.527364 6.216018 -4.744088
C 147.486543 7.480860 -5.516651
O 147.934504 7.342906 -6.779338
O 147.100316 8.563784 -5.113835
C 147.995194 5.021187 -5.306155
C 148.015658 3.852530 -4.541037
H 143.042319 1.094931 -2.695577
H 145.026977 2.473365 -3.927449
H 146.540931 0.808467 -0.371586
H 150.200831 3.685095 -2.535537
H 151.957648 2.299289 -1.283759
H 151.629992 -2.829378 0.693262
H 149.644323 -4.245771 1.880284
H 146.301640 -5.341594 2.220148
H 146.345872 -6.960350 4.100894
H 147.583987 -6.789835 8.389211
H 147.975684 -3.883658 6.667038
H 147.919963 -2.294055 4.773306
H 144.474910 -3.035684 3.289010
H 142.717924 -1.599733 2.095567
H 148.134851 -0.483548 0.751463
H 146.758627 5.067903 -1.622934
H 146.714508 7.152560 -2.965958
H 147.845961 8.245189 -7.146177
H 148.346607 4.982425 -6.332620
H 148.378800 2.918911 -4.966870
C 157.630821 -0.017884 -0.018466
C 158.425201 0.775122 -1.136571
C 157.920898 1.238319 -2.334751
C 158.958466 1.958319 -2.980602
C 160.065476 1.906225 -2.159668
N 159.752918 1.120954 -1.078412
C 161.454017 2.625170 -2.406600
C 162.589512 2.123987 -1.853536
C 163.876124 2.772916 -2.001225
C 164.784521 2.054973 -1.349522
N 162.798059 1.012730 -1.085064
C 164.122755 0.911901 -0.753759
C 164.786949 -0.017884 -0.018466
C 163.992272 -1.237966 0.605852
C 164.495074 -2.491564 0.889238
C 163.457094 -3.233862 1.508726
C 162.351646 -2.412213 1.578130
C 160.964032 -2.758239 2.256546
C 160.976543 -3.719126 3.382694
C 160.538175 -5.036717 3.199089
C 160.564820 -5.943403 4.261471
C 161.034712 -5.537386 5.517106
C 161.046788 -6.530977 6.617508
O 161.510957 -6.028768 7.777652
O 160.688959 -7.693463 6.546685
C 161.477553 -4.221535 5.703669
C 161.448605 -3.318232 4.638096
C 159.828017 -2.141427 1.837984
C 158.542113 -2.377913 2.461366
C 157.633558 -1.630987 1.843324
C 158.294757 -0.880090 0.795215
N 159.618782 -1.225238 0.845116
N 162.664980 -1.228867 0.957875
C 161.445624 3.867633 -3.211630
C 160.975613 5.062782 -2.654936
C 160.952715 6.234088 -3.416300
C 161.398753 6.216018 -4.744088
C 161.357931 7.480860 -5.516651
O 161.805892 7.342906 -6.779338
O 160.971704 8.563784 -5.113835
C 161.866582 5.021187 -5.306155
C 161.887046 3.852530 -4.541037
H 156.913707 1.094931 -2.695577
H 158.898366 2.473365 -3.927449
H 160.412319 0.808467 -0.371586
H 164.072219 3.685095 -2.535537
H 165.829037 2.299289 -1.283759
H 165.501380 -2.829378 0.693262
H 163.515711 -4.245771 1.880284
H 160.173029 -5.341594 2.220148
H 160.217260 -6.960350 4.100894
H 161.455376 -6.789835 8.389211
H 161.847072 -3.883658 6.667038
H 161.791351 -2.294055 4.773306
H 158.346299 -3.035684 3.289010
H 156.589313 -1.599733 2.095567
H 162.006240 -0.483548 0.751463
H 160.630015 5.067903 -1.622934
H 160.585897 7.152560 -2.965958
H 161.717349 8.245189 -7.146177
H 162.217995 4.982425 -6.332620
H 162.250189 2.918911 -4.966870
C 171.502209 -0.017884 -0.018466
C 172.296590 0.775122 -1.136571
C 171.792287 1.238319 -2.334751
C 172.829854 1.958319 -2.980602
C 173.936864 1.906225 -2.159668
N 173.624307 1.120954 -1.078412
C 175.325405 2.625170 -2.406600
C 176.460900 2.123987 -1.853536
C 177.747512 2.772916 -2.001225
C 178.655909 2.054973 -1.349522
N 176.669447 1.012730 -1.085064
C 177.994143 0.911901 -0.753759
C 178.658338 -0.017884 -0.018466
C 177.863660 -1.237966 0.605852
C 178.366463 -2.491564 0.889238
C 177.328482 -3.233862 1.508726
C 176.223034 -2.412213 1.578130
C 174.835420 -2.758239 2.256546
C 174.847931 -3.719126 3.382694
C 174.409563 -5.036717 3.199089
C 174.436208 -5.943403 4.261471
C 174.906100 -5.537386 5.517106
C 174.918176 -6.530977 6.617508
O 175.382345 -6.028768 7.777652
O 174.560348 -7.693463 6.546685
C 175.348941 -4.221535 5.703669
C 175.319994 -3.318232 4.638096
C 173.699405 -2.141427 1.837984
C 172.413502 -2.377913 2.461366
C 171.504946 -1.630987 1.843324
C 172.166145 -0.880090 0.795215
N 173.490170 -1.225238 0.845116
N 176.536368 -1.228867 0.957875
C 175.317012 3.867633 -3.211630
C 174.847001 5.062782 -2.654936
C 174.824103 6.234088 -3.416300
C 175.270141 6.216018 -4.744088
C 175.229319 7.480860 -5.516651
O 175.677281 7.342906 -6.779338
O 174.843092 8.563784 -5.113835
C 175.737970 5.021187 -5.306155
C 175.758434 3.852530 -4.541037
H 170.785096 1.094931 -2.695577
H 172.769754 2.473365 -3.927449
H 174.283707 0.808467 -0.371586
H 177.943608 3.685095 -2.535537
H 179.700425 2.299289 -1.283759
H 179.372769 -2.829378 0.693262
H 177.387100 -4.245771 1.880284
H 174.044417 -5.341594 2.220148
H 174.088648 -6.960350 4.100894
H 175.326764 -6.789835 8.389211
H 175.718460 -3.883658 6.667038
H 175.662739 -2.294055 4.773306
H 172.217687 -3.035684 3.289010
H 170.460701 -1.599733 2.095567
H 175.877628 -0.483548 0.751463
H 174.501404 5.067903 -1.622934
H 174.457285 7.152560 -2.965958
H 175.588737 8.245189 -7.146177
H 176.089383 4.982425 -6.332620
H 176.121577 2.918911 -4.966870
