 xtb: 6.5.1 (b24c23e)
          07302204443D

207236  0     0  0            999 V2000
   33.5875    0.1382   -0.3843 Ni  0  0  0  0  0  0  0  0  0  0  0  0
   30.3780    0.5151   -1.3711 C   0  0  0  0  0  0  0  0  0  0  0  0
   31.0234    1.6103   -0.8329 C   0  0  0  0  0  0  0  0  0  0  0  0
   30.3852    2.8716   -0.6080 C   0  0  0  0  0  0  0  0  0  0  0  0
   31.2546    3.6253    0.1060 C   0  0  0  0  0  0  0  0  0  0  0  0
   32.4465    2.8456    0.2687 C   0  0  0  0  0  0  0  0  0  0  0  0
   32.2904    1.6091   -0.3067 N   0  0  0  0  0  0  0  0  0  0  0  0
   33.5983    3.2945    0.9030 C   0  0  0  0  0  0  0  0  0  0  0  0
   34.7851    2.5721    0.8928 C   0  0  0  0  0  0  0  0  0  0  0  0
   36.0372    3.1010    1.3409 C   0  0  0  0  0  0  0  0  0  0  0  0
   36.9896    2.2023    0.9913 C   0  0  0  0  0  0  0  0  0  0  0  0
   34.9694    1.3375    0.3132 N   0  0  0  0  0  0  0  0  0  0  0  0
   36.3173    1.1117    0.3615 C   0  0  0  0  0  0  0  0  0  0  0  0
   36.9674   -0.0436   -0.0862 C   0  0  0  0  0  0  0  0  0  0  0  0
   36.2635   -1.1925   -0.4592 C   0  0  0  0  0  0  0  0  0  0  0  0
   36.8864   -2.4521   -0.7108 C   0  0  0  0  0  0  0  0  0  0  0  0
   35.8905   -3.3567   -0.8737 C   0  0  0  0  0  0  0  0  0  0  0  0
   34.6579   -2.6383   -0.7639 C   0  0  0  0  0  0  0  0  0  0  0  0
   33.4107   -3.2152   -0.9752 C   0  0  0  0  0  0  0  0  0  0  0  0
   33.3411   -4.6880   -1.1331 C   0  0  0  0  0  0  0  0  0  0  0  0
   32.9330   -5.2608   -2.3355 C   0  0  0  0  0  0  0  0  0  0  0  0
   32.8777   -6.6446   -2.4755 C   0  0  0  0  0  0  0  0  0  0  0  0
   32.4194   -7.2521   -3.7740 C   0  0  0  0  0  0  0  0  0  0  0  0
   33.2325   -7.4532   -1.4016 C   0  0  0  0  0  0  0  0  0  0  0  0
   33.6480   -6.8952   -0.1947 C   0  0  0  0  0  0  0  0  0  0  0  0
   34.0476   -7.7872    0.9496 C   0  0  0  0  0  0  0  0  0  0  0  0
   33.7035   -5.5128   -0.0678 C   0  0  0  0  0  0  0  0  0  0  0  0
   32.2555   -2.4574   -1.1175 C   0  0  0  0  0  0  0  0  0  0  0  0
   30.9800   -2.9899   -1.4985 C   0  0  0  0  0  0  0  0  0  0  0  0
   30.1567   -1.9332   -1.6973 C   0  0  0  0  0  0  0  0  0  0  0  0
   30.9104   -0.7589   -1.3799 C   0  0  0  0  0  0  0  0  0  0  0  0
   32.1902   -1.0895   -1.0149 N   0  0  0  0  0  0  0  0  0  0  0  0
   34.9008   -1.3074   -0.5189 N   0  0  0  0  0  0  0  0  0  0  0  0
   33.5971    4.6319    1.5457 C   0  0  0  0  0  0  0  0  0  0  0  0
   33.4154    5.7851    0.7845 C   0  0  0  0  0  0  0  0  0  0  0  0
   33.4193    7.0377    1.3895 C   0  0  0  0  0  0  0  0  0  0  0  0
   33.2441    8.2802    0.5586 C   0  0  0  0  0  0  0  0  0  0  0  0
   33.6102    7.1303    2.7646 C   0  0  0  0  0  0  0  0  0  0  0  0
   33.8000    5.9880    3.5368 C   0  0  0  0  0  0  0  0  0  0  0  0
   33.9901    6.0991    5.0255 C   0  0  0  0  0  0  0  0  0  0  0  0
   33.7932    4.7408    2.9214 C   0  0  0  0  0  0  0  0  0  0  0  0
   29.3609    0.6451   -1.7224 H   0  0  0  0  0  0  0  0  0  0  0  0
   29.3862    3.1176   -0.9314 H   0  0  0  0  0  0  0  0  0  0  0  0
   31.1128    4.6228    0.4889 H   0  0  0  0  0  0  0  0  0  0  0  0
   36.1647    4.0516    1.8326 H   0  0  0  0  0  0  0  0  0  0  0  0
   38.0526    2.2525    1.1609 H   0  0  0  0  0  0  0  0  0  0  0  0
   37.9511   -2.6154   -0.7369 H   0  0  0  0  0  0  0  0  0  0  0  0
   35.9731   -4.4116   -1.0785 H   0  0  0  0  0  0  0  0  0  0  0  0
   32.6779   -4.6215   -3.1736 H   0  0  0  0  0  0  0  0  0  0  0  0
   32.7610   -8.2832   -3.8646 H   0  0  0  0  0  0  0  0  0  0  0  0
   31.3281   -7.2479   -3.8209 H   0  0  0  0  0  0  0  0  0  0  0  0
   32.7955   -6.6794   -4.6223 H   0  0  0  0  0  0  0  0  0  0  0  0
   33.1899   -8.5327   -1.5046 H   0  0  0  0  0  0  0  0  0  0  0  0
   34.1354   -7.2191    1.8756 H   0  0  0  0  0  0  0  0  0  0  0  0
   33.3134   -8.5812    1.0920 H   0  0  0  0  0  0  0  0  0  0  0  0
   35.0122   -8.2542    0.7393 H   0  0  0  0  0  0  0  0  0  0  0  0
   34.0181   -5.0637    0.8680 H   0  0  0  0  0  0  0  0  0  0  0  0
   30.7569   -4.0388   -1.6074 H   0  0  0  0  0  0  0  0  0  0  0  0
   29.1220   -1.9318   -2.0017 H   0  0  0  0  0  0  0  0  0  0  0  0
   33.2887    5.7022   -0.2894 H   0  0  0  0  0  0  0  0  0  0  0  0
   32.7875    9.0781    1.1445 H   0  0  0  0  0  0  0  0  0  0  0  0
   32.6201    8.0795   -0.3125 H   0  0  0  0  0  0  0  0  0  0  0  0
   34.2167    8.6311    0.2059 H   0  0  0  0  0  0  0  0  0  0  0  0
   33.6145    8.1056    3.2405 H   0  0  0  0  0  0  0  0  0  0  0  0
   33.0196    6.0780    5.5265 H   0  0  0  0  0  0  0  0  0  0  0  0
   34.4849    7.0355    5.2846 H   0  0  0  0  0  0  0  0  0  0  0  0
   34.5856    5.2681    5.4040 H   0  0  0  0  0  0  0  0  0  0  0  0
   33.9301    3.8420    3.5126 H   0  0  0  0  0  0  0  0  0  0  0  0
   55.2783    0.2046   -0.1739 Ni  0  0  0  0  0  0  0  0  0  0  0  0
   58.5998    0.7286   -0.5559 C   0  0  0  0  0  0  0  0  0  0  0  0
   57.9417    0.0021   -1.5270 C   0  0  0  0  0  0  0  0  0  0  0  0
   58.5981   -0.5768   -2.6595 C   0  0  0  0  0  0  0  0  0  0  0  0
   57.6847   -1.3604   -3.2792 C   0  0  0  0  0  0  0  0  0  0  0  0
   56.4584   -1.2299   -2.5478 C   0  0  0  0  0  0  0  0  0  0  0  0
   56.6256   -0.3846   -1.4791 N   0  0  0  0  0  0  0  0  0  0  0  0
   55.2844   -1.8999   -2.8672 C   0  0  0  0  0  0  0  0  0  0  0  0
   54.0884   -1.6753   -2.1980 C   0  0  0  0  0  0  0  0  0  0  0  0
   52.8358   -2.2404   -2.6013 C   0  0  0  0  0  0  0  0  0  0  0  0
   51.8778   -1.6496   -1.8472 C   0  0  0  0  0  0  0  0  0  0  0  0
   53.8999   -0.7740   -1.1756 N   0  0  0  0  0  0  0  0  0  0  0  0
   52.5471   -0.7411   -0.9710 C   0  0  0  0  0  0  0  0  0  0  0  0
   51.8829    0.0858   -0.0645 C   0  0  0  0  0  0  0  0  0  0  0  0
   52.5552    0.8618    0.8788 C   0  0  0  0  0  0  0  0  0  0  0  0
   51.8907    1.6009    1.9056 C   0  0  0  0  0  0  0  0  0  0  0  0
   52.8538    2.0522    2.7449 C   0  0  0  0  0  0  0  0  0  0  0  0
   54.1076    1.6100    2.2135 C   0  0  0  0  0  0  0  0  0  0  0  0
   55.3367    1.8957    2.7961 C   0  0  0  0  0  0  0  0  0  0  0  0
   55.3479    2.5554    4.1241 C   0  0  0  0  0  0  0  0  0  0  0  0
   55.8915    3.8277    4.2852 C   0  0  0  0  0  0  0  0  0  0  0  0
   55.8979    4.4399    5.5354 C   0  0  0  0  0  0  0  0  0  0  0  0
   56.5014    5.8089    5.6981 C   0  0  0  0  0  0  0  0  0  0  0  0
   55.3588    3.7676    6.6263 C   0  0  0  0  0  0  0  0  0  0  0  0
   54.8082    2.4961    6.4804 C   0  0  0  0  0  0  0  0  0  0  0  0
   54.2140    1.7916    7.6700 C   0  0  0  0  0  0  0  0  0  0  0  0
   54.8019    1.8973    5.2268 C   0  0  0  0  0  0  0  0  0  0  0  0
   56.5415    1.6307    2.1590 C   0  0  0  0  0  0  0  0  0  0  0  0
   57.8256    2.0084    2.6735 C   0  0  0  0  0  0  0  0  0  0  0  0
   58.7310    1.7435    1.7023 C   0  0  0  0  0  0  0  0  0  0  0  0
   58.0080    1.1595    0.6142 C   0  0  0  0  0  0  0  0  0  0  0  0
   56.6719    1.0714    0.9111 N   0  0  0  0  0  0  0  0  0  0  0  0
   53.9134    0.9026    1.0514 N   0  0  0  0  0  0  0  0  0  0  0  0
   55.2876   -2.8495   -4.0079 C   0  0  0  0  0  0  0  0  0  0  0  0
   55.5151   -2.3919   -5.3044 C   0  0  0  0  0  0  0  0  0  0  0  0
   55.5166   -3.2790   -6.3758 C   0  0  0  0  0  0  0  0  0  0  0  0
   55.7409   -2.7745   -7.7758 C   0  0  0  0  0  0  0  0  0  0  0  0
   55.2864   -4.6311   -6.1415 C   0  0  0  0  0  0  0  0  0  0  0  0
   55.0532   -5.1021   -4.8527 C   0  0  0  0  0  0  0  0  0  0  0  0
   54.8242   -6.5694   -4.6094 C   0  0  0  0  0  0  0  0  0  0  0  0
   55.0542   -4.2060   -3.7890 C   0  0  0  0  0  0  0  0  0  0  0  0
   59.6587    0.9161   -0.6905 H   0  0  0  0  0  0  0  0  0  0  0  0
   59.6336   -0.4156   -2.9141 H   0  0  0  0  0  0  0  0  0  0  0  0
   57.8190   -1.9787   -4.1518 H   0  0  0  0  0  0  0  0  0  0  0  0
   52.7136   -2.9735   -3.3818 H   0  0  0  0  0  0  0  0  0  0  0  0
   50.8111   -1.8050   -1.8697 H   0  0  0  0  0  0  0  0  0  0  0  0
   50.8224    1.7307    1.9724 H   0  0  0  0  0  0  0  0  0  0  0  0
   52.7390    2.6468    3.6366 H   0  0  0  0  0  0  0  0  0  0  0  0
   56.2943    4.3503    3.4245 H   0  0  0  0  0  0  0  0  0  0  0  0
   56.1732    6.2726    6.6283 H   0  0  0  0  0  0  0  0  0  0  0  0
   57.5911    5.7350    5.7174 H   0  0  0  0  0  0  0  0  0  0  0  0
   56.2225    6.4543    4.8644 H   0  0  0  0  0  0  0  0  0  0  0  0
   55.3636    4.2386    7.6040 H   0  0  0  0  0  0  0  0  0  0  0  0
   54.0412    0.7375    7.4536 H   0  0  0  0  0  0  0  0  0  0  0  0
   54.8767    1.8699    8.5329 H   0  0  0  0  0  0  0  0  0  0  0  0
   53.2589    2.2495    7.9361 H   0  0  0  0  0  0  0  0  0  0  0  0
   54.3844    0.9045    5.0995 H   0  0  0  0  0  0  0  0  0  0  0  0
   57.9987    2.4300    3.6502 H   0  0  0  0  0  0  0  0  0  0  0  0
   59.7976    1.9032    1.7116 H   0  0  0  0  0  0  0  0  0  0  0  0
   55.6758   -1.3332   -5.4764 H   0  0  0  0  0  0  0  0  0  0  0  0
   56.1917   -3.5465   -8.3997 H   0  0  0  0  0  0  0  0  0  0  0  0
   56.3899   -1.8984   -7.7730 H   0  0  0  0  0  0  0  0  0  0  0  0
   54.7868   -2.4885   -8.2246 H   0  0  0  0  0  0  0  0  0  0  0  0
   55.2867   -5.3270   -6.9743 H   0  0  0  0  0  0  0  0  0  0  0  0
   55.7812   -7.0747   -4.4597 H   0  0  0  0  0  0  0  0  0  0  0  0
   54.3272   -7.0312   -5.4629 H   0  0  0  0  0  0  0  0  0  0  0  0
   54.2151   -6.7252   -3.7188 H   0  0  0  0  0  0  0  0  0  0  0  0
   54.8847   -4.5614   -2.7784 H   0  0  0  0  0  0  0  0  0  0  0  0
   38.3762   -0.0712   -0.0826 C   0  0  0  0  0  0  0  0  0  0  0  0
   39.5927   -0.0679   -0.1058 C   0  0  0  0  0  0  0  0  0  0  0  0
   49.2546    0.0826   -0.0724 C   0  0  0  0  0  0  0  0  0  0  0  0
   50.4690    0.0863   -0.0627 C   0  0  0  0  0  0  0  0  0  0  0  0
   44.4241    0.0048   -0.1205 Ni  0  0  0  0  0  0  0  0  0  0  0  0
   41.0019   -0.0508   -0.1185 C   0  0  0  0  0  0  0  0  0  0  0  0
   41.6556    1.1843   -0.1045 C   0  0  0  0  0  0  0  0  0  0  0  0
   40.9645    2.4333   -0.0722 C   0  0  0  0  0  0  0  0  0  0  0  0
   41.9042    3.4030   -0.1783 C   0  0  0  0  0  0  0  0  0  0  0  0
   43.1685    2.7418   -0.2843 C   0  0  0  0  0  0  0  0  0  0  0  0
   43.0070    1.3769   -0.2056 N   0  0  0  0  0  0  0  0  0  0  0  0
   44.3695    3.4102   -0.4784 C   0  0  0  0  0  0  0  0  0  0  0  0
   45.5959    2.7611   -0.5099 C   0  0  0  0  0  0  0  0  0  0  0  0
   46.8436    3.4268   -0.7318 C   0  0  0  0  0  0  0  0  0  0  0  0
   47.8144    2.4910   -0.6034 C   0  0  0  0  0  0  0  0  0  0  0  0
   45.7980    1.4180   -0.2893 N   0  0  0  0  0  0  0  0  0  0  0  0
   47.1567    1.2548   -0.3205 C   0  0  0  0  0  0  0  0  0  0  0  0
   47.8409    0.0636   -0.0837 C   0  0  0  0  0  0  0  0  0  0  0  0
   47.1919   -1.1514    0.1328 C   0  0  0  0  0  0  0  0  0  0  0  0
   47.8855   -2.3682    0.4136 C   0  0  0  0  0  0  0  0  0  0  0  0
   46.9457   -3.3396    0.5022 C   0  0  0  0  0  0  0  0  0  0  0  0
   45.6810   -2.7138    0.2620 C   0  0  0  0  0  0  0  0  0  0  0  0
   44.4788   -3.4047    0.1987 C   0  0  0  0  0  0  0  0  0  0  0  0
   44.4949   -4.8794    0.3576 C   0  0  0  0  0  0  0  0  0  0  0  0
   43.8262   -5.4723    1.4272 C   0  0  0  0  0  0  0  0  0  0  0  0
   43.8324   -6.8543    1.5860 C   0  0  0  0  0  0  0  0  0  0  0  0
   43.1252   -7.4845    2.7553 C   0  0  0  0  0  0  0  0  0  0  0  0
   44.5133   -7.6426    0.6639 C   0  0  0  0  0  0  0  0  0  0  0  0
   45.1839   -7.0651   -0.4111 C   0  0  0  0  0  0  0  0  0  0  0  0
   45.9254   -7.9324   -1.3923 C   0  0  0  0  0  0  0  0  0  0  0  0
   45.1736   -5.6827   -0.5580 C   0  0  0  0  0  0  0  0  0  0  0  0
   43.2579   -2.7740    0.0027 C   0  0  0  0  0  0  0  0  0  0  0  0
   42.0165   -3.4744   -0.1219 C   0  0  0  0  0  0  0  0  0  0  0  0
   41.0457   -2.5339   -0.2088 C   0  0  0  0  0  0  0  0  0  0  0  0
   41.6946   -1.2640   -0.1491 C   0  0  0  0  0  0  0  0  0  0  0  0
   43.0516   -1.4139   -0.0520 N   0  0  0  0  0  0  0  0  0  0  0  0
   45.8405   -1.3612    0.0669 N   0  0  0  0  0  0  0  0  0  0  0  0
   44.3371    4.8821   -0.6598 C   0  0  0  0  0  0  0  0  0  0  0  0
   44.9704    5.7208    0.2554 C   0  0  0  0  0  0  0  0  0  0  0  0
   44.9348    7.1016    0.0893 C   0  0  0  0  0  0  0  0  0  0  0  0
   45.6327    7.9993    1.0751 C   0  0  0  0  0  0  0  0  0  0  0  0
   44.2648    7.6398   -1.0048 C   0  0  0  0  0  0  0  0  0  0  0  0
   43.6282    6.8149   -1.9279 C   0  0  0  0  0  0  0  0  0  0  0  0
   42.9226    7.4077   -3.1176 C   0  0  0  0  0  0  0  0  0  0  0  0
   43.6665    5.4366   -1.7494 C   0  0  0  0  0  0  0  0  0  0  0  0
   39.8959    2.5417    0.0130 H   0  0  0  0  0  0  0  0  0  0  0  0
   41.7639    4.4715   -0.1804 H   0  0  0  0  0  0  0  0  0  0  0  0
   46.9517    4.4746   -0.9595 H   0  0  0  0  0  0  0  0  0  0  0  0
   48.8822    2.6093   -0.6941 H   0  0  0  0  0  0  0  0  0  0  0  0
   48.9542   -2.4516    0.5287 H   0  0  0  0  0  0  0  0  0  0  0  0
   47.0855   -4.3870    0.7142 H   0  0  0  0  0  0  0  0  0  0  0  0
   43.3084   -4.8459    2.1453 H   0  0  0  0  0  0  0  0  0  0  0  0
   42.8085   -8.5000    2.5172 H   0  0  0  0  0  0  0  0  0  0  0  0
   43.7975   -7.5303    3.6151 H   0  0  0  0  0  0  0  0  0  0  0  0
   42.2507   -6.8991    3.0405 H   0  0  0  0  0  0  0  0  0  0  0  0
   44.5191   -8.7214    0.7811 H   0  0  0  0  0  0  0  0  0  0  0  0
   46.1151   -7.3959   -2.3219 H   0  0  0  0  0  0  0  0  0  0  0  0
   45.3565   -8.8356   -1.6156 H   0  0  0  0  0  0  0  0  0  0  0  0
   46.8860   -8.2346   -0.9690 H   0  0  0  0  0  0  0  0  0  0  0  0
   45.6791   -5.2216   -1.3994 H   0  0  0  0  0  0  0  0  0  0  0  0
   41.9117   -4.5467   -0.1439 H   0  0  0  0  0  0  0  0  0  0  0  0
   39.9819   -2.6750   -0.3044 H   0  0  0  0  0  0  0  0  0  0  0  0
   45.4768    5.2900    1.1122 H   0  0  0  0  0  0  0  0  0  0  0  0
   45.1774    8.9896    1.0904 H   0  0  0  0  0  0  0  0  0  0  0  0
   46.6828    8.1112    0.7953 H   0  0  0  0  0  0  0  0  0  0  0  0
   45.5936    7.5764    2.0792 H   0  0  0  0  0  0  0  0  0  0  0  0
   44.2343    8.7163   -1.1385 H   0  0  0  0  0  0  0  0  0  0  0  0
   42.4855    8.3746   -2.8670 H   0  0  0  0  0  0  0  0  0  0  0  0
   42.1337    6.7443   -3.4722 H   0  0  0  0  0  0  0  0  0  0  0  0
   43.6334    7.5581   -3.9334 H   0  0  0  0  0  0  0  0  0  0  0  0
   43.1829    4.7823   -2.4665 H   0  0  0  0  0  0  0  0  0  0  0  0
  2  3  4  0  0  0  0
  3  4  4  0  0  0  0
  4  5  2  0  0  0  0
  5  6  4  0  0  0  0
  1  7  1  0  0  0  0
  3  7  4  0  0  0  0
  6  7  4  0  0  0  0
  6  8  4  0  0  0  0
  8  9  4  0  0  0  0
  9 10  4  0  0  0  0
 10 11  2  0  0  0  0
  1 12  1  0  0  0  0
  9 12  4  0  0  0  0
 11 13  4  0  0  0  0
 12 13  4  0  0  0  0
 13 14  4  0  0  0  0
 14 15  4  0  0  0  0
 15 16  4  0  0  0  0
 16 17  2  0  0  0  0
 17 18  4  0  0  0  0
 18 19  4  0  0  0  0
 19 20  1  0  0  0  0
 20 21  4  0  0  0  0
 21 22  4  0  0  0  0
 22 23  1  0  0  0  0
 22 24  4  0  0  0  0
 24 25  4  0  0  0  0
 25 26  1  0  0  0  0
 20 27  4  0  0  0  0
 25 27  4  0  0  0  0
 19 28  4  0  0  0  0
 28 29  4  0  0  0  0
 29 30  2  0  0  0  0
  2 31  4  0  0  0  0
 30 31  4  0  0  0  0
  1 32  1  0  0  0  0
 28 32  4  0  0  0  0
 31 32  4  0  0  0  0
  1 33  1  0  0  0  0
 15 33  4  0  0  0  0
 18 33  4  0  0  0  0
  8 34  1  0  0  0  0
 34 35  4  0  0  0  0
 35 36  4  0  0  0  0
 36 37  1  0  0  0  0
 36 38  4  0  0  0  0
 38 39  4  0  0  0  0
 39 40  1  0  0  0  0
 34 41  4  0  0  0  0
 39 41  4  0  0  0  0
  2 42  1  0  0  0  0
  4 43  1  0  0  0  0
  5 44  1  0  0  0  0
 10 45  1  0  0  0  0
 11 46  1  0  0  0  0
 16 47  1  0  0  0  0
 17 48  1  0  0  0  0
 21 49  1  0  0  0  0
 23 50  1  0  0  0  0
 23 51  1  0  0  0  0
 23 52  1  0  0  0  0
 24 53  1  0  0  0  0
 26 54  1  0  0  0  0
 26 55  1  0  0  0  0
 26 56  1  0  0  0  0
 27 57  1  0  0  0  0
 29 58  1  0  0  0  0
 30 59  1  0  0  0  0
 35 60  1  0  0  0  0
 37 61  1  0  0  0  0
 37 62  1  0  0  0  0
 37 63  1  0  0  0  0
 38 64  1  0  0  0  0
 40 65  1  0  0  0  0
 40 66  1  0  0  0  0
 40 67  1  0  0  0  0
 41 68  1  0  0  0  0
 70 71  4  0  0  0  0
 71 72  4  0  0  0  0
 72 73  2  0  0  0  0
 73 74  4  0  0  0  0
 69 75  1  0  0  0  0
 71 75  4  0  0  0  0
 74 75  4  0  0  0  0
 74 76  4  0  0  0  0
 76 77  4  0  0  0  0
 77 78  4  0  0  0  0
 78 79  2  0  0  0  0
 69 80  1  0  0  0  0
 77 80  4  0  0  0  0
 79 81  4  0  0  0  0
 80 81  4  0  0  0  0
 81 82  4  0  0  0  0
 82 83  4  0  0  0  0
 83 84  4  0  0  0  0
 84 85  2  0  0  0  0
 85 86  4  0  0  0  0
 86 87  4  0  0  0  0
 87 88  1  0  0  0  0
 88 89  4  0  0  0  0
 89 90  4  0  0  0  0
 90 91  1  0  0  0  0
 90 92  4  0  0  0  0
 92 93  4  0  0  0  0
 93 94  1  0  0  0  0
 88 95  4  0  0  0  0
 93 95  4  0  0  0  0
 87 96  4  0  0  0  0
 96 97  4  0  0  0  0
 97 98  2  0  0  0  0
 70 99  4  0  0  0  0
 98 99  4  0  0  0  0
 69100  1  0  0  0  0
 96100  4  0  0  0  0
 99100  4  0  0  0  0
 69101  1  0  0  0  0
 83101  4  0  0  0  0
 86101  4  0  0  0  0
 76102  1  0  0  0  0
102103  4  0  0  0  0
103104  4  0  0  0  0
104105  1  0  0  0  0
104106  4  0  0  0  0
106107  4  0  0  0  0
107108  1  0  0  0  0
102109  4  0  0  0  0
107109  4  0  0  0  0
 70110  1  0  0  0  0
 72111  1  0  0  0  0
 73112  1  0  0  0  0
 78113  1  0  0  0  0
 79114  1  0  0  0  0
 84115  1  0  0  0  0
 85116  1  0  0  0  0
 89117  1  0  0  0  0
 91118  1  0  0  0  0
 91119  1  0  0  0  0
 91120  1  0  0  0  0
 92121  1  0  0  0  0
 94122  1  0  0  0  0
 94123  1  0  0  0  0
 94124  1  0  0  0  0
 95125  1  0  0  0  0
 97126  1  0  0  0  0
 98127  1  0  0  0  0
103128  1  0  0  0  0
105129  1  0  0  0  0
105130  1  0  0  0  0
105131  1  0  0  0  0
106132  1  0  0  0  0
108133  1  0  0  0  0
108134  1  0  0  0  0
108135  1  0  0  0  0
109136  1  0  0  0  0
 14137  4  0  0  0  0
137138  3  0  0  0  0
 82140  1  0  0  0  0
139140  3  0  0  0  0
138142  4  0  0  0  0
142143  4  0  0  0  0
143144  4  0  0  0  0
144145  2  0  0  0  0
145146  4  0  0  0  0
141147  1  0  0  0  0
143147  4  0  0  0  0
146147  4  0  0  0  0
146148  4  0  0  0  0
148149  4  0  0  0  0
149150  4  0  0  0  0
150151  2  0  0  0  0
141152  1  0  0  0  0
149152  4  0  0  0  0
151153  4  0  0  0  0
152153  4  0  0  0  0
139154  1  0  0  0  0
153154  4  0  0  0  0
154155  4  0  0  0  0
155156  4  0  0  0  0
156157  2  0  0  0  0
157158  4  0  0  0  0
158159  4  0  0  0  0
159160  1  0  0  0  0
160161  4  0  0  0  0
161162  4  0  0  0  0
162163  1  0  0  0  0
162164  4  0  0  0  0
164165  4  0  0  0  0
165166  1  0  0  0  0
160167  4  0  0  0  0
165167  4  0  0  0  0
159168  4  0  0  0  0
168169  4  0  0  0  0
169170  2  0  0  0  0
142171  4  0  0  0  0
170171  4  0  0  0  0
141172  1  0  0  0  0
168172  4  0  0  0  0
171172  4  0  0  0  0
141173  1  0  0  0  0
155173  4  0  0  0  0
158173  4  0  0  0  0
148174  1  0  0  0  0
174175  4  0  0  0  0
175176  4  0  0  0  0
176177  1  0  0  0  0
176178  4  0  0  0  0
178179  4  0  0  0  0
179180  1  0  0  0  0
174181  4  0  0  0  0
179181  4  0  0  0  0
144182  1  0  0  0  0
145183  1  0  0  0  0
150184  1  0  0  0  0
151185  1  0  0  0  0
156186  1  0  0  0  0
157187  1  0  0  0  0
161188  1  0  0  0  0
163189  1  0  0  0  0
163190  1  0  0  0  0
163191  1  0  0  0  0
164192  1  0  0  0  0
166193  1  0  0  0  0
166194  1  0  0  0  0
166195  1  0  0  0  0
167196  1  0  0  0  0
169197  1  0  0  0  0
170198  1  0  0  0  0
175199  1  0  0  0  0
177200  1  0  0  0  0
177201  1  0  0  0  0
177202  1  0  0  0  0
178203  1  0  0  0  0
180204  1  0  0  0  0
180205  1  0  0  0  0
180206  1  0  0  0  0
181207  1  0  0  0  0
M  END
