196

C 26.319035 -0.618551 0.567505
C 27.009580 -1.258426 -0.676818
C 26.360487 -1.786733 -1.766706
C 27.357105 -2.261860 -2.656285
C 28.582271 -2.019050 -2.075955
N 28.359574 -1.368789 -0.886234
C 30.005518 -2.431731 -2.645545
C 30.060475 -3.311791 -3.845386
C 30.626999 -2.800951 -5.029696
C 30.687976 -3.589073 -6.170985
O 31.243360 -3.132021 -7.332670
C 30.167345 -4.874131 -6.153583
O 30.214587 -5.647201 -7.284375
C 29.580535 -5.381075 -4.996330
O 29.044196 -6.638266 -5.011751
C 29.527415 -4.612406 -3.837296
C 31.135585 -1.939511 -2.061481
C 32.456077 -2.397859 -2.441680
C 33.354238 -1.747440 -1.712272
N 31.318357 -1.012685 -1.069049
C 32.655817 -0.828718 -0.836801
C 33.318513 0.008362 0.005778
C 32.525793 1.052877 0.899126
C 33.016532 2.248780 1.385836
C 32.000223 2.845203 2.174403
C 30.908475 2.004843 2.132287
N 31.222475 0.939540 1.319197
C 29.523330 2.215811 2.870086
C 29.445820 3.246387 3.929548
C 29.919219 2.993819 5.227639
C 29.831791 3.990870 6.186916
O 30.282047 3.765720 7.457234
C 29.287172 5.228011 5.863570
O 29.208209 6.199252 6.828191
C 28.830683 5.487589 4.575762
O 28.315574 6.728595 4.319677
C 28.905293 4.503919 3.602917
C 28.431995 1.507612 2.473280
C 27.145094 1.608089 3.140789
C 26.282559 0.816183 2.510985
C 26.980865 0.196794 1.410516
N 28.274263 0.614477 1.452232
H 25.268338 -0.827061 0.733831
H 25.290862 -1.823855 -1.908696
H 27.196015 -2.740582 -3.610650
H 29.085847 -0.998625 -0.281644
H 31.008925 -1.780825 -5.017703
H 31.557317 -2.234778 -7.140020
H 30.700478 -5.085060 -7.912128
H 29.285685 -6.972962 -5.892439
H 29.065412 -5.003979 -2.934445
H 32.684133 -3.163248 -3.160513
H 34.414136 -1.902327 -1.775968
H 34.001414 2.652246 1.198510
H 32.061905 3.780854 2.710419
H 30.564183 0.214897 1.037717
H 30.348651 2.024747 5.466184
H 30.112130 4.606565 7.921731
H 28.793070 6.952524 6.352125
H 28.082094 6.744710 3.372110
H 28.549844 4.667774 2.587499
H 26.920810 2.202061 4.008199
H 25.248231 0.669250 2.767315
C 63.527971 -0.691753 0.473107
C 62.837426 0.354092 1.402617
C 63.486519 1.278139 2.185624
C 62.489901 2.021424 2.867258
C 61.264734 1.519815 2.487616
N 61.487431 0.529439 1.561640
C 59.841488 1.968732 3.029106
C 59.786530 2.911700 4.180165
C 59.220006 4.185898 3.980251
C 59.159030 5.095046 5.027688
O 58.603645 6.333941 4.874236
C 59.679661 4.758269 6.267954
O 59.632418 5.660997 7.298201
C 60.266470 3.511245 6.470832
O 60.802809 3.213195 7.692279
C 60.319591 2.580068 5.437816
C 58.711420 1.525598 2.406978
C 57.390928 1.779718 2.945547
C 56.492767 1.235201 2.134017
N 58.528649 0.795152 1.262261
C 57.191189 0.616016 1.026267
C 56.528492 0.008362 0.005778
C 57.321213 -0.596821 -1.228255
C 56.830473 -0.770479 -2.507674
C 57.846783 -1.385736 -3.281637
C 58.938531 -1.554158 -2.457250
N 58.624531 -1.031882 -1.223065
C 60.323676 -2.216205 -2.845256
C 60.401185 -2.985742 -4.107143
C 59.927786 -4.305841 -4.185695
C 60.015215 -4.986693 -5.390171
O 59.564958 -6.273068 -5.488363
C 60.559834 -4.365534 -6.507862
O 60.638797 -5.057987 -7.688671
C 61.016322 -3.053650 -6.438660
O 61.531432 -2.496672 -7.576838
C 60.941712 -2.356325 -5.243765
C 61.415011 -2.008203 -2.060568
C 62.701912 -2.629681 -2.324061
C 63.564447 -2.216857 -1.400295
C 62.866140 -1.305237 -0.526439
N 61.572742 -1.241655 -0.941357
H 64.578667 -0.904752 0.633644
H 64.556143 1.406417 2.256927
H 62.650990 2.826560 3.568502
H 60.761159 0.036039 1.052615
H 58.838080 4.428249 2.989257
H 58.289688 6.370730 3.957281
H 59.146528 6.408934 6.910042
H 60.561320 3.982830 8.235690
H 60.781594 1.608159 5.592291
H 57.162873 2.285370 3.865796
H 55.432870 1.258332 2.299885
H 55.845591 -0.488606 -2.851801
H 57.785101 -1.671939 -4.321273
H 59.282822 -0.939668 -0.451162
H 59.498355 -4.778131 -3.306521
H 59.734875 -6.513607 -6.418373
H 61.053935 -4.409379 -8.299707
H 61.764911 -1.574927 -7.356543
H 61.297162 -1.332085 -5.149666
H 62.926195 -3.321908 -3.115279
H 64.598774 -2.501695 -1.321804
C 37.134087 0.021093 0.008303
C 35.881816 0.001912 0.003955
C 38.447755 0.020327 0.010235
C 39.950888 0.001912 0.003955
C 51.234457 0.021093 0.008303
C 49.982187 0.001912 0.003955
C 52.548125 0.020327 0.010235
C 54.051259 0.001912 0.003955
C 41.362969 -0.017240 -0.012253
C 42.147402 -1.363912 0.281233
C 41.612864 -2.533363 0.785818
C 42.650282 -3.498866 0.808409
C 43.790665 -2.886411 0.329826
N 43.491419 -1.569309 0.079800
C 45.192076 -3.578426 0.089485
C 45.199384 -5.042078 -0.138079
C 45.526052 -5.923181 0.910183
C 45.534298 -7.301071 0.685288
O 45.863544 -8.162286 1.700992
C 45.212565 -7.798181 -0.578152
O 45.213129 -9.144799 -0.832500
C 44.887089 -6.919749 -1.618746
O 44.585198 -7.455528 -2.850300
C 44.876346 -5.544623 -1.409262
C 46.327807 -2.835534 0.020181
C 47.619133 -3.430541 -0.257621
C 48.526075 -2.462209 -0.297372
N 46.535682 -1.490022 0.151680
C 47.862000 -1.200520 -0.034922
C 48.531350 -0.017240 -0.012253
C 47.748750 1.329856 0.279400
C 48.282476 2.493652 0.800490
C 47.247685 3.462358 0.816737
C 46.108477 2.856423 0.320562
N 46.409355 1.543522 0.051793
C 44.702137 3.546091 0.093657
C 44.659978 5.025540 0.039535
C 44.936419 5.718486 -1.150460
C 44.874951 7.106509 -1.157347
O 45.132716 7.796270 -2.311288
C 44.546704 7.802699 0.004693
O 44.483336 9.172210 -0.025357
C 44.281438 7.119398 1.186917
O 43.962958 7.850386 2.302233
C 44.336749 5.732569 1.213836
C 43.569885 2.798390 -0.001563
C 42.272120 3.396566 -0.250903
C 41.364914 2.427517 -0.288107
C 42.035031 1.163651 -0.054103
N 43.367435 1.449279 0.095299
H 40.584560 -2.686686 1.080428
H 42.567497 -4.531034 1.119874
H 44.162779 -0.855642 -0.191711
H 45.775192 -5.501310 1.883236
H 46.119042 -7.622193 2.471934
H 44.967774 -9.197323 -1.778855
H 44.405283 -6.698200 -3.440400
H 44.629988 -4.841212 -2.202998
H 47.821776 -4.474519 -0.418287
H 49.572049 -2.611302 -0.494604
H 49.307371 2.641276 1.112839
H 47.332151 4.489998 1.138824
H 45.738013 0.833568 -0.232329
H 45.186957 5.165879 -2.053627
H 44.988977 8.730386 -2.060833
H 44.226921 9.399383 0.893830
H 43.817698 7.202823 3.017166
H 44.128574 5.164563 2.117479
H 42.068365 4.442390 -0.399878
H 40.314607 2.577216 -0.460078
