 xtb: 6.5.1 (b24c23e)
          07292214353D

196216  0     0  0            999 V2000
   28.1299   -0.3416    0.1480 C   0  0  0  0  0  0  0  0  0  0  0  0
   28.7358   -1.1040   -0.8423 C   0  0  0  0  0  0  0  0  0  0  0  0
   28.0798   -1.8920   -1.8294 C   0  0  0  0  0  0  0  0  0  0  0  0
   29.0388   -2.4818   -2.6037 C   0  0  0  0  0  0  0  0  0  0  0  0
   30.3127   -2.0862   -2.1044 C   0  0  0  0  0  0  0  0  0  0  0  0
   30.0782   -1.2461   -1.0525 N   0  0  0  0  0  0  0  0  0  0  0  0
   31.5760   -2.4604   -2.5756 C   0  0  0  0  0  0  0  0  0  0  0  0
   31.6146   -3.3981   -3.7248 C   0  0  0  0  0  0  0  0  0  0  0  0
   32.2376   -3.0062   -4.9135 C   0  0  0  0  0  0  0  0  0  0  0  0
   32.2700   -3.8761   -5.9959 C   0  0  0  0  0  0  0  0  0  0  0  0
   32.8549   -3.5584   -7.1937 O   0  0  0  0  0  0  0  0  0  0  0  0
   31.6901   -5.1386   -5.8989 C   0  0  0  0  0  0  0  0  0  0  0  0
   31.7109   -6.0168   -6.9505 O   0  0  0  0  0  0  0  0  0  0  0  0
   31.0712   -5.5327   -4.7113 C   0  0  0  0  0  0  0  0  0  0  0  0
   30.5132   -6.7651   -4.6259 O   0  0  0  0  0  0  0  0  0  0  0  0
   31.0309   -4.6617   -3.6286 C   0  0  0  0  0  0  0  0  0  0  0  0
   32.7897   -2.0133   -2.0457 C   0  0  0  0  0  0  0  0  0  0  0  0
   34.0896   -2.4920   -2.4805 C   0  0  0  0  0  0  0  0  0  0  0  0
   35.0069   -1.8288   -1.7462 C   0  0  0  0  0  0  0  0  0  0  0  0
   32.9393   -1.0926   -1.0546 N   0  0  0  0  0  0  0  0  0  0  0  0
   34.2666   -0.9481   -0.8637 C   0  0  0  0  0  0  0  0  0  0  0  0
   34.8982   -0.0534    0.0227 C   0  0  0  0  0  0  0  0  0  0  0  0
   34.2606    0.8150    0.9276 C   0  0  0  0  0  0  0  0  0  0  0  0
   34.9003    1.7538    1.7800 C   0  0  0  0  0  0  0  0  0  0  0  0
   33.9348    2.3798    2.5184 C   0  0  0  0  0  0  0  0  0  0  0  0
   32.6750    1.8318    2.1488 C   0  0  0  0  0  0  0  0  0  0  0  0
   32.9230    0.9015    1.1740 N   0  0  0  0  0  0  0  0  0  0  0  0
   31.4159    2.1663    2.6590 C   0  0  0  0  0  0  0  0  0  0  0  0
   31.3785    3.1756    3.7448 C   0  0  0  0  0  0  0  0  0  0  0  0
   32.0685    2.9540    4.9375 C   0  0  0  0  0  0  0  0  0  0  0  0
   32.0324    3.9037    5.9517 C   0  0  0  0  0  0  0  0  0  0  0  0
   32.6948    3.6949    7.1157 O   0  0  0  0  0  0  0  0  0  0  0  0
   31.3096    5.0845    5.7736 C   0  0  0  0  0  0  0  0  0  0  0  0
   31.2957    6.0047    6.7887 O   0  0  0  0  0  0  0  0  0  0  0  0
   30.6225    5.3067    4.5829 C   0  0  0  0  0  0  0  0  0  0  0  0
   29.9390    6.4899    4.4794 O   0  0  0  0  0  0  0  0  0  0  0  0
   30.6517    4.3569    3.5697 C   0  0  0  0  0  0  0  0  0  0  0  0
   30.2064    1.6183    2.2164 C   0  0  0  0  0  0  0  0  0  0  0  0
   28.9094    1.9103    2.8068 C   0  0  0  0  0  0  0  0  0  0  0  0
   28.0007    1.2069    2.1011 C   0  0  0  0  0  0  0  0  0  0  0  0
   28.7420    0.4778    1.0876 C   0  0  0  0  0  0  0  0  0  0  0  0
   30.0679    0.7394    1.1959 N   0  0  0  0  0  0  0  0  0  0  0  0
   27.0462   -0.3935    0.1801 H   0  0  0  0  0  0  0  0  0  0  0  0
   27.0098   -1.9809   -1.9287 H   0  0  0  0  0  0  0  0  0  0  0  0
   28.8828   -3.1306   -3.4501 H   0  0  0  0  0  0  0  0  0  0  0  0
   30.8069   -0.7952   -0.5094 H   0  0  0  0  0  0  0  0  0  0  0  0
   32.6789   -2.0202   -5.0004 H   0  0  0  0  0  0  0  0  0  0  0  0
   33.2344   -2.6702   -7.1657 H   0  0  0  0  0  0  0  0  0  0  0  0
   32.1759   -5.5893   -7.6872 H   0  0  0  0  0  0  0  0  0  0  0  0
   30.6465   -7.2197   -5.4740 H   0  0  0  0  0  0  0  0  0  0  0  0
   30.5644   -4.9860   -2.7072 H   0  0  0  0  0  0  0  0  0  0  0  0
   34.2559   -3.2477   -3.2312 H   0  0  0  0  0  0  0  0  0  0  0  0
   36.0816   -1.9132   -1.7761 H   0  0  0  0  0  0  0  0  0  0  0  0
   35.9641    1.9256    1.8118 H   0  0  0  0  0  0  0  0  0  0  0  0
   34.0794    3.1582    3.2495 H   0  0  0  0  0  0  0  0  0  0  0  0
   32.2030    0.3582    0.7091 H   0  0  0  0  0  0  0  0  0  0  0  0
   32.6170    2.0343    5.0952 H   0  0  0  0  0  0  0  0  0  0  0  0
   32.5463    4.4618    7.6931 H   0  0  0  0  0  0  0  0  0  0  0  0
   30.7482    6.7540    6.5049 H   0  0  0  0  0  0  0  0  0  0  0  0
   29.4880    6.5527    3.6273 H   0  0  0  0  0  0  0  0  0  0  0  0
   30.1286    4.5446    2.6395 H   0  0  0  0  0  0  0  0  0  0  0  0
   28.7425    2.5539    3.6557 H   0  0  0  0  0  0  0  0  0  0  0  0
   26.9314    1.1589    2.2354 H   0  0  0  0  0  0  0  0  0  0  0  0
   61.7231   -0.1434    0.2862 C   0  0  0  0  0  0  0  0  0  0  0  0
   61.1127    0.6469    1.2515 C   0  0  0  0  0  0  0  0  0  0  0  0
   61.7643    1.4245    2.2498 C   0  0  0  0  0  0  0  0  0  0  0  0
   60.8022    2.0500    2.9915 C   0  0  0  0  0  0  0  0  0  0  0  0
   59.5307    1.6643    2.4786 C   0  0  0  0  0  0  0  0  0  0  0  0
   59.7696    0.8273    1.4254 N   0  0  0  0  0  0  0  0  0  0  0  0
   58.2667    2.0606    2.9294 C   0  0  0  0  0  0  0  0  0  0  0  0
   58.2277    2.9668    4.1042 C   0  0  0  0  0  0  0  0  0  0  0  0
   57.6431    4.2309    3.9857 C   0  0  0  0  0  0  0  0  0  0  0  0
   57.6085    5.0812    5.0836 C   0  0  0  0  0  0  0  0  0  0  0  0
   57.0594    6.3360    5.0408 O   0  0  0  0  0  0  0  0  0  0  0  0
   58.1480    4.6765    6.3020 C   0  0  0  0  0  0  0  0  0  0  0  0
   58.1230    5.4944    7.4012 O   0  0  0  0  0  0  0  0  0  0  0  0
   58.7296    3.4133    6.4224 C   0  0  0  0  0  0  0  0  0  0  0  0
   59.2484    3.0272    7.6136 O   0  0  0  0  0  0  0  0  0  0  0  0
   58.7724    2.5629    5.3235 C   0  0  0  0  0  0  0  0  0  0  0  0
   57.0544    1.6638    2.3586 C   0  0  0  0  0  0  0  0  0  0  0  0
   55.7518    2.0206    2.8916 C   0  0  0  0  0  0  0  0  0  0  0  0
   54.8371    1.4477    2.0820 C   0  0  0  0  0  0  0  0  0  0  0  0
   56.9084    0.8777    1.2571 N   0  0  0  0  0  0  0  0  0  0  0  0
   55.5815    0.7367    1.0608 C   0  0  0  0  0  0  0  0  0  0  0  0
   54.9525    0.0145    0.0275 C   0  0  0  0  0  0  0  0  0  0  0  0
   55.5910   -0.7264   -0.9837 C   0  0  0  0  0  0  0  0  0  0  0  0
   54.9512   -1.3987   -2.0590 C   0  0  0  0  0  0  0  0  0  0  0  0
   55.9192   -1.9827   -2.8274 C   0  0  0  0  0  0  0  0  0  0  0  0
   57.1813   -1.6970   -2.2360 C   0  0  0  0  0  0  0  0  0  0  0  0
   56.9310   -0.9273   -1.1304 N   0  0  0  0  0  0  0  0  0  0  0  0
   58.4444   -2.0947   -2.6871 C   0  0  0  0  0  0  0  0  0  0  0  0
   58.4868   -2.9374   -3.9070 C   0  0  0  0  0  0  0  0  0  0  0  0
   57.8367   -4.1717   -3.9371 C   0  0  0  0  0  0  0  0  0  0  0  0
   57.8759   -4.9533   -5.0860 C   0  0  0  0  0  0  0  0  0  0  0  0
   57.2518   -6.1558   -5.1232 O   0  0  0  0  0  0  0  0  0  0  0  0
   58.5621   -4.4989   -6.2134 C   0  0  0  0  0  0  0  0  0  0  0  0
   58.5797   -5.2883   -7.3332 O   0  0  0  0  0  0  0  0  0  0  0  0
   59.2099   -3.2664   -6.1839 C   0  0  0  0  0  0  0  0  0  0  0  0
   59.8589   -2.8856   -7.3292 O   0  0  0  0  0  0  0  0  0  0  0  0
   59.1775   -2.4858   -5.0354 C   0  0  0  0  0  0  0  0  0  0  0  0
   59.6544   -1.7508   -2.0737 C   0  0  0  0  0  0  0  0  0  0  0  0
   60.9566   -2.2380   -2.5015 C   0  0  0  0  0  0  0  0  0  0  0  0
   61.8629   -1.6920   -1.6657 C   0  0  0  0  0  0  0  0  0  0  0  0
   61.1156   -0.8781   -0.7236 C   0  0  0  0  0  0  0  0  0  0  0  0
   59.7886   -0.9455   -0.9935 N   0  0  0  0  0  0  0  0  0  0  0  0
   62.8070   -0.1820    0.3313 H   0  0  0  0  0  0  0  0  0  0  0  0
   62.8338    1.4936    2.3693 H   0  0  0  0  0  0  0  0  0  0  0  0
   60.9542    2.7247    3.8183 H   0  0  0  0  0  0  0  0  0  0  0  0
   59.0436    0.4047    0.8565 H   0  0  0  0  0  0  0  0  0  0  0  0
   57.2333    4.5574    3.0371 H   0  0  0  0  0  0  0  0  0  0  0  0
   56.7042    6.5255    4.1624 H   0  0  0  0  0  0  0  0  0  0  0  0
   57.6844    6.3221    7.1473 H   0  0  0  0  0  0  0  0  0  0  0  0
   59.1185    3.7486    8.2511 H   0  0  0  0  0  0  0  0  0  0  0  0
   59.2099    1.5790    5.4339 H   0  0  0  0  0  0  0  0  0  0  0  0
   55.5812    2.6128    3.7762 H   0  0  0  0  0  0  0  0  0  0  0  0
   53.7616    1.4803    2.1531 H   0  0  0  0  0  0  0  0  0  0  0  0
   53.8855   -1.4185   -2.2207 H   0  0  0  0  0  0  0  0  0  0  0  0
   55.7747   -2.5544   -3.7295 H   0  0  0  0  0  0  0  0  0  0  0  0
   57.6515   -0.5584   -0.5185 H   0  0  0  0  0  0  0  0  0  0  0  0
   57.3169   -4.5434   -3.0635 H   0  0  0  0  0  0  0  0  0  0  0  0
   57.3929   -6.5459   -6.0016 H   0  0  0  0  0  0  0  0  0  0  0  0
   59.0983   -4.8298   -8.0134 H   0  0  0  0  0  0  0  0  0  0  0  0
   60.2822   -2.0247   -7.2140 H   0  0  0  0  0  0  0  0  0  0  0  0
   59.6698   -1.5203   -5.0255 H   0  0  0  0  0  0  0  0  0  0  0  0
   61.1280   -2.9189   -3.3199 H   0  0  0  0  0  0  0  0  0  0  0  0
   62.9346   -1.8157   -1.6573 H   0  0  0  0  0  0  0  0  0  0  0  0
   37.5264    0.0215   -0.0016 C   0  0  0  0  0  0  0  0  0  0  0  0
   36.3053   -0.0114    0.0088 C   0  0  0  0  0  0  0  0  0  0  0  0
   38.8766    0.0453   -0.0215 C   0  0  0  0  0  0  0  0  0  0  0  0
   40.0982    0.0641   -0.0401 C   0  0  0  0  0  0  0  0  0  0  0  0
   50.9733    0.0492   -0.0654 C   0  0  0  0  0  0  0  0  0  0  0  0
   49.7519    0.0523   -0.0838 C   0  0  0  0  0  0  0  0  0  0  0  0
   52.3238    0.0388   -0.0414 C   0  0  0  0  0  0  0  0  0  0  0  0
   53.5450    0.0305   -0.0113 C   0  0  0  0  0  0  0  0  0  0  0  0
   41.5052    0.0652   -0.0521 C   0  0  0  0  0  0  0  0  0  0  0  0
   42.1257   -1.1971   -0.1085 C   0  0  0  0  0  0  0  0  0  0  0  0
   41.4707   -2.4558   -0.0975 C   0  0  0  0  0  0  0  0  0  0  0  0
   42.4288   -3.4297   -0.1707 C   0  0  0  0  0  0  0  0  0  0  0  0
   43.6976   -2.7926   -0.2420 C   0  0  0  0  0  0  0  0  0  0  0  0
   43.4637   -1.4442   -0.1895 N   0  0  0  0  0  0  0  0  0  0  0  0
   44.9532   -3.4049   -0.3401 C   0  0  0  0  0  0  0  0  0  0  0  0
   44.9662   -4.8863   -0.4167 C   0  0  0  0  0  0  0  0  0  0  0  0
   45.6309   -5.6298    0.5596 C   0  0  0  0  0  0  0  0  0  0  0  0
   45.6447   -7.0211    0.5164 C   0  0  0  0  0  0  0  0  0  0  0  0
   46.2793   -7.7546    1.4672 O   0  0  0  0  0  0  0  0  0  0  0  0
   44.9911   -7.6889   -0.5246 C   0  0  0  0  0  0  0  0  0  0  0  0
   44.9880   -9.0450   -0.5963 O   0  0  0  0  0  0  0  0  0  0  0  0
   44.3333   -6.9375   -1.5022 C   0  0  0  0  0  0  0  0  0  0  0  0
   43.7187   -7.6531   -2.4975 O   0  0  0  0  0  0  0  0  0  0  0  0
   44.3102   -5.5506   -1.4551 C   0  0  0  0  0  0  0  0  0  0  0  0
   46.1773   -2.7325   -0.3593 C   0  0  0  0  0  0  0  0  0  0  0  0
   47.4592   -3.3881   -0.5473 C   0  0  0  0  0  0  0  0  0  0  0  0
   48.3972   -2.4206   -0.4803 C   0  0  0  0  0  0  0  0  0  0  0  0
   46.3559   -1.3915   -0.2101 N   0  0  0  0  0  0  0  0  0  0  0  0
   47.6867   -1.1764   -0.2607 C   0  0  0  0  0  0  0  0  0  0  0  0
   48.3446    0.0574   -0.0919 C   0  0  0  0  0  0  0  0  0  0  0  0
   47.7247    1.3093    0.0777 C   0  0  0  0  0  0  0  0  0  0  0  0
   48.3807    2.5526    0.2729 C   0  0  0  0  0  0  0  0  0  0  0  0
   47.4232    3.5265    0.3477 C   0  0  0  0  0  0  0  0  0  0  0  0
   46.1532    2.9063    0.1926 C   0  0  0  0  0  0  0  0  0  0  0  0
   46.3860    1.5647    0.0477 N   0  0  0  0  0  0  0  0  0  0  0  0
   44.8981    3.5270    0.1954 C   0  0  0  0  0  0  0  0  0  0  0  0
   44.8913    5.0072    0.3048 C   0  0  0  0  0  0  0  0  0  0  0  0
   45.5284    5.7841   -0.6636 C   0  0  0  0  0  0  0  0  0  0  0  0
   45.5175    7.1704   -0.5643 C   0  0  0  0  0  0  0  0  0  0  0  0
   46.1269    7.9340   -1.5041 O   0  0  0  0  0  0  0  0  0  0  0  0
   44.8746    7.7854    0.5112 C   0  0  0  0  0  0  0  0  0  0  0  0
   44.8831    9.1536    0.5851 O   0  0  0  0  0  0  0  0  0  0  0  0
   44.2426    7.0099    1.4801 C   0  0  0  0  0  0  0  0  0  0  0  0
   43.6375    7.6842    2.5080 O   0  0  0  0  0  0  0  0  0  0  0  0
   44.2458    5.6243    1.3800 C   0  0  0  0  0  0  0  0  0  0  0  0
   43.6717    2.8653    0.1031 C   0  0  0  0  0  0  0  0  0  0  0  0
   42.3872    3.5400    0.0452 C   0  0  0  0  0  0  0  0  0  0  0  0
   41.4488    2.5722   -0.0156 C   0  0  0  0  0  0  0  0  0  0  0  0
   42.1617    1.3103   -0.0087 C   0  0  0  0  0  0  0  0  0  0  0  0
   43.4933    1.5170    0.0505 N   0  0  0  0  0  0  0  0  0  0  0  0
   40.4031   -2.5906   -0.0322 H   0  0  0  0  0  0  0  0  0  0  0  0
   42.2717   -4.4960   -0.1646 H   0  0  0  0  0  0  0  0  0  0  0  0
   44.1899   -0.7357   -0.1952 H   0  0  0  0  0  0  0  0  0  0  0  0
   46.1281   -5.1226    1.3787 H   0  0  0  0  0  0  0  0  0  0  0  0
   46.6979   -7.1848    2.1259 H   0  0  0  0  0  0  0  0  0  0  0  0
   44.4880   -9.3062   -1.3862 H   0  0  0  0  0  0  0  0  0  0  0  0
   43.2952   -7.0635   -3.1348 H   0  0  0  0  0  0  0  0  0  0  0  0
   43.8060   -4.9916   -2.2347 H   0  0  0  0  0  0  0  0  0  0  0  0
   47.5997   -4.4423   -0.7233 H   0  0  0  0  0  0  0  0  0  0  0  0
   49.4673   -2.5124   -0.5753 H   0  0  0  0  0  0  0  0  0  0  0  0
   49.4490    2.6762    0.3481 H   0  0  0  0  0  0  0  0  0  0  0  0
   47.5803    4.5810    0.5044 H   0  0  0  0  0  0  0  0  0  0  0  0
   45.6600    0.8653   -0.0655 H   0  0  0  0  0  0  0  0  0  0  0  0
   46.0156    5.3192   -1.5111 H   0  0  0  0  0  0  0  0  0  0  0  0
   46.0068    8.8674   -1.2632 H   0  0  0  0  0  0  0  0  0  0  0  0
   44.3959    9.4124    1.3834 H   0  0  0  0  0  0  0  0  0  0  0  0
   43.2214    7.0682    3.1253 H   0  0  0  0  0  0  0  0  0  0  0  0
   43.7647    5.0270    2.1455 H   0  0  0  0  0  0  0  0  0  0  0  0
   42.2438    4.6083    0.0367 H   0  0  0  0  0  0  0  0  0  0  0  0
   40.3769    2.6759   -0.0721 H   0  0  0  0  0  0  0  0  0  0  0  0
  1  2  4  0  0  0  0
  2  3  4  0  0  0  0
  3  4  2  0  0  0  0
  4  5  4  0  0  0  0
  2  6  4  0  0  0  0
  5  6  4  0  0  0  0
  5  7  4  0  0  0  0
  7  8  1  0  0  0  0
  8  9  4  0  0  0  0
  9 10  4  0  0  0  0
 10 11  1  0  0  0  0
 10 12  4  0  0  0  0
 12 13  1  0  0  0  0
 12 14  4  0  0  0  0
 14 15  1  0  0  0  0
  8 16  4  0  0  0  0
 14 16  4  0  0  0  0
  7 17  4  0  0  0  0
 17 18  1  0  0  0  0
 18 19  2  0  0  0  0
 17 20  4  0  0  0  0
 19 21  1  0  0  0  0
 20 21  4  0  0  0  0
 21 22  4  0  0  0  0
 22 23  4  0  0  0  0
 23 24  4  0  0  0  0
 24 25  2  0  0  0  0
 25 26  4  0  0  0  0
 23 27  4  0  0  0  0
 26 27  4  0  0  0  0
 26 28  4  0  0  0  0
 28 29  1  0  0  0  0
 29 30  4  0  0  0  0
 30 31  4  0  0  0  0
 31 32  1  0  0  0  0
 31 33  4  0  0  0  0
 33 34  1  0  0  0  0
 33 35  4  0  0  0  0
 35 36  1  0  0  0  0
 29 37  4  0  0  0  0
 35 37  4  0  0  0  0
 28 38  4  0  0  0  0
 38 39  1  0  0  0  0
 39 40  2  0  0  0  0
  1 41  4  0  0  0  0
 40 41  1  0  0  0  0
 38 42  4  0  0  0  0
 41 42  4  0  0  0  0
  1 43  1  0  0  0  0
  3 44  1  0  0  0  0
  4 45  1  0  0  0  0
  6 46  1  0  0  0  0
  9 47  1  0  0  0  0
 11 48  1  0  0  0  0
 13 49  1  0  0  0  0
 15 50  1  0  0  0  0
 16 51  1  0  0  0  0
 18 52  1  0  0  0  0
 19 53  1  0  0  0  0
 24 54  1  0  0  0  0
 25 55  1  0  0  0  0
 27 56  1  0  0  0  0
 30 57  1  0  0  0  0
 32 58  1  0  0  0  0
 34 59  1  0  0  0  0
 36 60  1  0  0  0  0
 37 61  1  0  0  0  0
 39 62  1  0  0  0  0
 40 63  1  0  0  0  0
 64 65  4  0  0  0  0
 65 66  4  0  0  0  0
 66 67  2  0  0  0  0
 67 68  4  0  0  0  0
 65 69  4  0  0  0  0
 68 69  4  0  0  0  0
 68 70  4  0  0  0  0
 70 71  1  0  0  0  0
 71 72  4  0  0  0  0
 72 73  4  0  0  0  0
 73 74  1  0  0  0  0
 73 75  4  0  0  0  0
 75 76  1  0  0  0  0
 75 77  4  0  0  0  0
 77 78  1  0  0  0  0
 71 79  4  0  0  0  0
 77 79  4  0  0  0  0
 70 80  4  0  0  0  0
 80 81  1  0  0  0  0
 81 82  2  0  0  0  0
 80 83  4  0  0  0  0
 82 84  1  0  0  0  0
 83 84  4  0  0  0  0
 84 85  4  0  0  0  0
 85 86  4  0  0  0  0
 86 87  4  0  0  0  0
 87 88  2  0  0  0  0
 88 89  4  0  0  0  0
 86 90  4  0  0  0  0
 89 90  4  0  0  0  0
 89 91  4  0  0  0  0
 91 92  1  0  0  0  0
 92 93  4  0  0  0  0
 93 94  4  0  0  0  0
 94 95  1  0  0  0  0
 94 96  4  0  0  0  0
 96 97  1  0  0  0  0
 96 98  4  0  0  0  0
 98 99  1  0  0  0  0
 92100  4  0  0  0  0
 98100  4  0  0  0  0
 91101  4  0  0  0  0
101102  1  0  0  0  0
102103  2  0  0  0  0
 64104  4  0  0  0  0
103104  1  0  0  0  0
101105  4  0  0  0  0
104105  4  0  0  0  0
 64106  1  0  0  0  0
 66107  1  0  0  0  0
 67108  1  0  0  0  0
 69109  1  0  0  0  0
 72110  1  0  0  0  0
 74111  1  0  0  0  0
 76112  1  0  0  0  0
 78113  1  0  0  0  0
 79114  1  0  0  0  0
 81115  1  0  0  0  0
 82116  1  0  0  0  0
 87117  1  0  0  0  0
 88118  1  0  0  0  0
 90119  1  0  0  0  0
 93120  1  0  0  0  0
 95121  1  0  0  0  0
 97122  1  0  0  0  0
 99123  1  0  0  0  0
100124  1  0  0  0  0
102125  1  0  0  0  0
103126  1  0  0  0  0
 22128  4  0  0  0  0
127128  3  0  0  0  0
127129  4  0  0  0  0
129130  3  0  0  0  0
131132  3  0  0  0  0
131133  4  0  0  0  0
 85134  4  0  0  0  0
133134  3  0  0  0  0
130135  4  0  0  0  0
135136  4  0  0  0  0
136137  4  0  0  0  0
137138  2  0  0  0  0
138139  4  0  0  0  0
136140  4  0  0  0  0
139140  4  0  0  0  0
139141  4  0  0  0  0
141142  1  0  0  0  0
142143  4  0  0  0  0
143144  4  0  0  0  0
144145  1  0  0  0  0
144146  4  0  0  0  0
146147  1  0  0  0  0
146148  4  0  0  0  0
148149  1  0  0  0  0
142150  4  0  0  0  0
148150  4  0  0  0  0
141151  4  0  0  0  0
151152  1  0  0  0  0
152153  2  0  0  0  0
151154  4  0  0  0  0
153155  1  0  0  0  0
154155  4  0  0  0  0
132156  4  0  0  0  0
155156  4  0  0  0  0
156157  4  0  0  0  0
157158  4  0  0  0  0
158159  2  0  0  0  0
159160  4  0  0  0  0
157161  4  0  0  0  0
160161  4  0  0  0  0
160162  4  0  0  0  0
162163  1  0  0  0  0
163164  4  0  0  0  0
164165  4  0  0  0  0
165166  1  0  0  0  0
165167  4  0  0  0  0
167168  1  0  0  0  0
167169  4  0  0  0  0
169170  1  0  0  0  0
163171  4  0  0  0  0
169171  4  0  0  0  0
162172  4  0  0  0  0
172173  1  0  0  0  0
173174  2  0  0  0  0
135175  4  0  0  0  0
174175  1  0  0  0  0
172176  4  0  0  0  0
175176  4  0  0  0  0
137177  1  0  0  0  0
138178  1  0  0  0  0
140179  1  0  0  0  0
143180  1  0  0  0  0
145181  1  0  0  0  0
147182  1  0  0  0  0
149183  1  0  0  0  0
150184  1  0  0  0  0
152185  1  0  0  0  0
153186  1  0  0  0  0
158187  1  0  0  0  0
159188  1  0  0  0  0
161189  1  0  0  0  0
164190  1  0  0  0  0
166191  1  0  0  0  0
168192  1  0  0  0  0
170193  1  0  0  0  0
171194  1  0  0  0  0
173195  1  0  0  0  0
174196  1  0  0  0  0
M  END
