 xtb: 6.5.1 (b24c23e)
          07292223063D

314348  0     0  0            999 V2000
   43.5664   -0.0947    0.0023 C   0  0  0  0  0  0  0  0  0  0  0  0
   44.1827   -1.1683    0.6321 C   0  0  0  0  0  0  0  0  0  0  0  0
   43.5393   -2.2865    1.2331 C   0  0  0  0  0  0  0  0  0  0  0  0
   44.5069   -3.1025    1.7481 C   0  0  0  0  0  0  0  0  0  0  0  0
   45.7726   -2.5044    1.4863 C   0  0  0  0  0  0  0  0  0  0  0  0
   45.5264   -1.3471    0.8035 N   0  0  0  0  0  0  0  0  0  0  0  0
   47.0380   -2.9928    1.8313 C   0  0  0  0  0  0  0  0  0  0  0  0
   48.2495   -2.3796    1.5049 C   0  0  0  0  0  0  0  0  0  0  0  0
   49.5482   -2.8780    1.9214 C   0  0  0  0  0  0  0  0  0  0  0  0
   50.4650   -2.0307    1.4101 C   0  0  0  0  0  0  0  0  0  0  0  0
   48.3991   -1.2393    0.7755 N   0  0  0  0  0  0  0  0  0  0  0  0
   49.7249   -1.0104    0.6929 C   0  0  0  0  0  0  0  0  0  0  0  0
   50.3571    0.0526    0.0157 C   0  0  0  0  0  0  0  0  0  0  0  0
   49.7154    1.1097   -0.6569 C   0  0  0  0  0  0  0  0  0  0  0  0
   50.3531    2.1694   -1.3549 C   0  0  0  0  0  0  0  0  0  0  0  0
   49.3809    2.9910   -1.8543 C   0  0  0  0  0  0  0  0  0  0  0  0
   48.1180    2.4612   -1.4693 C   0  0  0  0  0  0  0  0  0  0  0  0
   46.8535    2.9752   -1.7736 C   0  0  0  0  0  0  0  0  0  0  0  0
   46.8150    4.2462   -2.5374 C   0  0  0  0  0  0  0  0  0  0  0  0
   46.2142    4.2971   -3.7962 C   0  0  0  0  0  0  0  0  0  0  0  0
   46.1812    5.4856   -4.5098 C   0  0  0  0  0  0  0  0  0  0  0  0
   46.7421    6.6373   -3.9748 C   0  0  0  0  0  0  0  0  0  0  0  0
   47.3398    6.5955   -2.7225 C   0  0  0  0  0  0  0  0  0  0  0  0
   47.3795    5.4076   -2.0080 C   0  0  0  0  0  0  0  0  0  0  0  0
   45.6399    2.3796   -1.4135 C   0  0  0  0  0  0  0  0  0  0  0  0
   44.3324    2.9509   -1.6967 C   0  0  0  0  0  0  0  0  0  0  0  0
   43.4227    2.0870   -1.2028 C   0  0  0  0  0  0  0  0  0  0  0  0
   44.1732    0.9955   -0.6075 C   0  0  0  0  0  0  0  0  0  0  0  0
   45.5048    1.2098   -0.7453 N   0  0  0  0  0  0  0  0  0  0  0  0
   48.3725    1.3201   -0.7547 N   0  0  0  0  0  0  0  0  0  0  0  0
   47.0749   -4.2601    2.6024 C   0  0  0  0  0  0  0  0  0  0  0  0
   46.4758   -4.3407    3.8603 C   0  0  0  0  0  0  0  0  0  0  0  0
   46.5126   -5.5256    4.5799 C   0  0  0  0  0  0  0  0  0  0  0  0
   47.1422   -6.6443    4.0514 C   0  0  0  0  0  0  0  0  0  0  0  0
   47.7378   -6.5729    2.7994 C   0  0  0  0  0  0  0  0  0  0  0  0
   47.7071   -5.3886    2.0786 C   0  0  0  0  0  0  0  0  0  0  0  0
   42.4813   -0.1174   -0.0074 H   0  0  0  0  0  0  0  0  0  0  0  0
   42.4719   -2.4378    1.2564 H   0  0  0  0  0  0  0  0  0  0  0  0
   44.3632   -4.0415    2.2575 H   0  0  0  0  0  0  0  0  0  0  0  0
   46.2467   -0.7155    0.4698 H   0  0  0  0  0  0  0  0  0  0  0  0
   49.7135   -3.7499    2.5332 H   0  0  0  0  0  0  0  0  0  0  0  0
   51.5387   -2.0648    1.5030 H   0  0  0  0  0  0  0  0  0  0  0  0
   51.4206    2.2774   -1.4606 H   0  0  0  0  0  0  0  0  0  0  0  0
   49.5220    3.8804   -2.4464 H   0  0  0  0  0  0  0  0  0  0  0  0
   45.7875    3.3955   -4.2213 H   0  0  0  0  0  0  0  0  0  0  0  0
   45.7162    5.5122   -5.4891 H   0  0  0  0  0  0  0  0  0  0  0  0
   46.7135    7.5663   -4.5330 H   0  0  0  0  0  0  0  0  0  0  0  0
   47.7764    7.4930   -2.2985 H   0  0  0  0  0  0  0  0  0  0  0  0
   47.8343    5.3805   -1.0239 H   0  0  0  0  0  0  0  0  0  0  0  0
   44.1595    3.8913   -2.1948 H   0  0  0  0  0  0  0  0  0  0  0  0
   42.3463    2.1583   -1.2163 H   0  0  0  0  0  0  0  0  0  0  0  0
   47.6545    0.7181   -0.3652 H   0  0  0  0  0  0  0  0  0  0  0  0
   45.9963   -3.4640    4.2815 H   0  0  0  0  0  0  0  0  0  0  0  0
   46.0488   -5.5749    5.5589 H   0  0  0  0  0  0  0  0  0  0  0  0
   47.1689   -7.5702    4.6145 H   0  0  0  0  0  0  0  0  0  0  0  0
   48.2283   -7.4447    2.3807 H   0  0  0  0  0  0  0  0  0  0  0  0
   48.1614   -5.3383    1.0954 H   0  0  0  0  0  0  0  0  0  0  0  0
  124.7071    0.0548   -0.0781 C   0  0  0  0  0  0  0  0  0  0  0  0
  124.0840    1.0792   -0.7792 C   0  0  0  0  0  0  0  0  0  0  0  0
  124.7205    2.1067   -1.5305 C   0  0  0  0  0  0  0  0  0  0  0  0
  123.7473    2.9151   -2.0471 C   0  0  0  0  0  0  0  0  0  0  0  0
  122.4850    2.4129   -1.6199 C   0  0  0  0  0  0  0  0  0  0  0  0
  122.7387    1.3009   -0.8683 N   0  0  0  0  0  0  0  0  0  0  0  0
  121.2161    2.9267   -1.9107 C   0  0  0  0  0  0  0  0  0  0  0  0
  120.0086    2.3608   -1.4958 C   0  0  0  0  0  0  0  0  0  0  0  0
  118.7064    2.9460   -1.7604 C   0  0  0  0  0  0  0  0  0  0  0  0
  117.7951    2.1128   -1.2170 C   0  0  0  0  0  0  0  0  0  0  0  0
  119.8666    1.2078   -0.7851 N   0  0  0  0  0  0  0  0  0  0  0  0
  118.5420    1.0267   -0.6125 C   0  0  0  0  0  0  0  0  0  0  0  0
  117.9167   -0.0534    0.0438 C   0  0  0  0  0  0  0  0  0  0  0  0
  118.5656   -1.1176    0.6983 C   0  0  0  0  0  0  0  0  0  0  0  0
  117.9356   -2.2140    1.3445 C   0  0  0  0  0  0  0  0  0  0  0  0
  118.9132   -3.0105    1.8732 C   0  0  0  0  0  0  0  0  0  0  0  0
  120.1717   -2.4197    1.5715 C   0  0  0  0  0  0  0  0  0  0  0  0
  121.4395   -2.9015    1.9130 C   0  0  0  0  0  0  0  0  0  0  0  0
  121.4862   -4.1369    2.7329 C   0  0  0  0  0  0  0  0  0  0  0  0
  122.1051   -5.2882    2.2439 C   0  0  0  0  0  0  0  0  0  0  0  0
  122.1467   -6.4420    3.0121 C   0  0  0  0  0  0  0  0  0  0  0  0
  121.5761   -6.4596    4.2776 C   0  0  0  0  0  0  0  0  0  0  0  0
  120.9601   -5.3179    4.7719 C   0  0  0  0  0  0  0  0  0  0  0  0
  120.9118   -4.1637    4.0047 C   0  0  0  0  0  0  0  0  0  0  0  0
  122.6490   -2.3066    1.5388 C   0  0  0  0  0  0  0  0  0  0  0  0
  123.9595   -2.7938    1.9407 C   0  0  0  0  0  0  0  0  0  0  0  0
  124.8638   -1.9676    1.3772 C   0  0  0  0  0  0  0  0  0  0  0  0
  124.1069   -0.9692    0.6428 C   0  0  0  0  0  0  0  0  0  0  0  0
  122.7770   -1.1992    0.7703 N   0  0  0  0  0  0  0  0  0  0  0  0
  119.9094   -1.2835    0.8521 N   0  0  0  0  0  0  0  0  0  0  0  0
  121.1697    4.1675   -2.7231 C   0  0  0  0  0  0  0  0  0  0  0  0
  121.7631    5.3417   -2.2575 C   0  0  0  0  0  0  0  0  0  0  0  0
  121.7171    6.5002   -3.0183 C   0  0  0  0  0  0  0  0  0  0  0  0
  121.0839    6.4996   -4.2537 C   0  0  0  0  0  0  0  0  0  0  0  0
  120.4938    5.3347   -4.7253 C   0  0  0  0  0  0  0  0  0  0  0  0
  120.5338    4.1755   -3.9654 C   0  0  0  0  0  0  0  0  0  0  0  0
  125.7922    0.0652   -0.0996 H   0  0  0  0  0  0  0  0  0  0  0  0
  125.7873    2.2005   -1.6564 H   0  0  0  0  0  0  0  0  0  0  0  0
  123.8852    3.7794   -2.6764 H   0  0  0  0  0  0  0  0  0  0  0  0
  122.0223    0.7230   -0.4415 H   0  0  0  0  0  0  0  0  0  0  0  0
  118.5352    3.8751   -2.2794 H   0  0  0  0  0  0  0  0  0  0  0  0
  116.7210    2.2060   -1.2049 H   0  0  0  0  0  0  0  0  0  0  0  0
  116.8694   -2.3672    1.3896 H   0  0  0  0  0  0  0  0  0  0  0  0
  118.7787   -3.9318    2.4161 H   0  0  0  0  0  0  0  0  0  0  0  0
  122.5395   -5.2804    1.2505 H   0  0  0  0  0  0  0  0  0  0  0  0
  122.6259   -7.3322    2.6199 H   0  0  0  0  0  0  0  0  0  0  0  0
  121.6116   -7.3616    4.8778 H   0  0  0  0  0  0  0  0  0  0  0  0
  120.5159   -5.3251    5.7611 H   0  0  0  0  0  0  0  0  0  0  0  0
  120.4427   -3.2688    4.3985 H   0  0  0  0  0  0  0  0  0  0  0  0
  124.1378   -3.6453    2.5775 H   0  0  0  0  0  0  0  0  0  0  0  0
  125.9402   -1.9993    1.4417 H   0  0  0  0  0  0  0  0  0  0  0  0
  120.6230   -0.6629    0.4844 H   0  0  0  0  0  0  0  0  0  0  0  0
  122.2454    5.3485   -1.2862 H   0  0  0  0  0  0  0  0  0  0  0  0
  122.1765    7.4083   -2.6437 H   0  0  0  0  0  0  0  0  0  0  0  0
  121.0500    7.4056   -4.8480 H   0  0  0  0  0  0  0  0  0  0  0  0
  120.0005    5.3281   -5.6909 H   0  0  0  0  0  0  0  0  0  0  0  0
  120.0836    3.2633   -4.3408 H   0  0  0  0  0  0  0  0  0  0  0  0
   51.7627    0.0707    0.0048 C   0  0  0  0  0  0  0  0  0  0  0  0
   52.9872    0.0826   -0.0099 C   0  0  0  0  0  0  0  0  0  0  0  0
   54.3298    0.0883   -0.0245 C   0  0  0  0  0  0  0  0  0  0  0  0
   55.5605    0.0902   -0.0369 C   0  0  0  0  0  0  0  0  0  0  0  0
   56.8984    0.0894   -0.0480 C   0  0  0  0  0  0  0  0  0  0  0  0
   58.1292    0.0816   -0.0581 C   0  0  0  0  0  0  0  0  0  0  0  0
   59.4717    0.0779   -0.0610 C   0  0  0  0  0  0  0  0  0  0  0  0
   60.6965    0.0676   -0.0657 C   0  0  0  0  0  0  0  0  0  0  0  0
   70.3675   -0.0365    0.0632 C   0  0  0  0  0  0  0  0  0  0  0  0
   71.5927   -0.0469    0.0826 C   0  0  0  0  0  0  0  0  0  0  0  0
   72.9342   -0.0532    0.0962 C   0  0  0  0  0  0  0  0  0  0  0  0
   74.1656   -0.0517    0.1045 C   0  0  0  0  0  0  0  0  0  0  0  0
   75.5024   -0.0484    0.1061 C   0  0  0  0  0  0  0  0  0  0  0  0
   76.7338   -0.0415    0.1016 C   0  0  0  0  0  0  0  0  0  0  0  0
   78.0753   -0.0348    0.0911 C   0  0  0  0  0  0  0  0  0  0  0  0
   79.3006   -0.0271    0.0754 C   0  0  0  0  0  0  0  0  0  0  0  0
   88.9734   -0.0343    0.0636 C   0  0  0  0  0  0  0  0  0  0  0  0
   90.1987   -0.0408    0.0786 C   0  0  0  0  0  0  0  0  0  0  0  0
   91.5401   -0.0402    0.0925 C   0  0  0  0  0  0  0  0  0  0  0  0
   92.7715   -0.0397    0.0992 C   0  0  0  0  0  0  0  0  0  0  0  0
   94.1084   -0.0329    0.1009 C   0  0  0  0  0  0  0  0  0  0  0  0
   95.3398   -0.0293    0.0954 C   0  0  0  0  0  0  0  0  0  0  0  0
   96.6813   -0.0252    0.0817 C   0  0  0  0  0  0  0  0  0  0  0  0
   97.9065   -0.0226    0.0619 C   0  0  0  0  0  0  0  0  0  0  0  0
  107.5779   -0.0821   -0.0106 C   0  0  0  0  0  0  0  0  0  0  0  0
  108.8027   -0.0984    0.0037 C   0  0  0  0  0  0  0  0  0  0  0  0
  110.1449   -0.1084    0.0184 C   0  0  0  0  0  0  0  0  0  0  0  0
  111.3758   -0.1163    0.0304 C   0  0  0  0  0  0  0  0  0  0  0  0
  112.7135   -0.1178    0.0422 C   0  0  0  0  0  0  0  0  0  0  0  0
  113.9443   -0.1133    0.0502 C   0  0  0  0  0  0  0  0  0  0  0  0
  115.2868   -0.0997    0.0555 C   0  0  0  0  0  0  0  0  0  0  0  0
  116.5114   -0.0794    0.0539 C   0  0  0  0  0  0  0  0  0  0  0  0
   62.1012    0.0592   -0.0624 C   0  0  0  0  0  0  0  0  0  0  0  0
   62.7330    1.2120    0.4429 C   0  0  0  0  0  0  0  0  0  0  0  0
   62.0892    2.3652    0.9613 C   0  0  0  0  0  0  0  0  0  0  0  0
   63.0584    3.2576    1.3305 C   0  0  0  0  0  0  0  0  0  0  0  0
   64.3229    2.6763    1.0412 C   0  0  0  0  0  0  0  0  0  0  0  0
   64.0752    1.4369    0.5143 N   0  0  0  0  0  0  0  0  0  0  0  0
   65.5846    3.2400    1.2662 C   0  0  0  0  0  0  0  0  0  0  0  0
   66.8077    2.6162    1.0182 C   0  0  0  0  0  0  0  0  0  0  0  0
   68.0964    3.2537    1.2210 C   0  0  0  0  0  0  0  0  0  0  0  0
   69.0315    2.3423    0.8821 C   0  0  0  0  0  0  0  0  0  0  0  0
   66.9816    1.3503    0.5464 N   0  0  0  0  0  0  0  0  0  0  0  0
   68.3127    1.1553    0.4631 C   0  0  0  0  0  0  0  0  0  0  0  0
   68.9642   -0.0205    0.0370 C   0  0  0  0  0  0  0  0  0  0  0  0
   68.3313   -1.1910   -0.4254 C   0  0  0  0  0  0  0  0  0  0  0  0
   68.9728   -2.3870   -0.8387 C   0  0  0  0  0  0  0  0  0  0  0  0
   68.0039   -3.2699   -1.2311 C   0  0  0  0  0  0  0  0  0  0  0  0
   66.7421   -2.6342   -1.0753 C   0  0  0  0  0  0  0  0  0  0  0  0
   65.4816   -3.1755   -1.3544 C   0  0  0  0  0  0  0  0  0  0  0  0
   65.4643   -4.5449   -1.9281 C   0  0  0  0  0  0  0  0  0  0  0  0
   66.0573   -4.8003   -3.1651 C   0  0  0  0  0  0  0  0  0  0  0  0
   66.0363   -6.0789   -3.7018 C   0  0  0  0  0  0  0  0  0  0  0  0
   65.4297   -7.1172   -3.0083 C   0  0  0  0  0  0  0  0  0  0  0  0
   64.8411   -6.8717   -1.7751 C   0  0  0  0  0  0  0  0  0  0  0  0
   64.8551   -5.5934   -1.2376 C   0  0  0  0  0  0  0  0  0  0  0  0
   64.2589   -2.5382   -1.1384 C   0  0  0  0  0  0  0  0  0  0  0  0
   62.9730   -3.1166   -1.4853 C   0  0  0  0  0  0  0  0  0  0  0  0
   62.0373   -2.2166   -1.1186 C   0  0  0  0  0  0  0  0  0  0  0  0
   62.7534   -1.0866   -0.5607 C   0  0  0  0  0  0  0  0  0  0  0  0
   64.0839   -1.3024   -0.5939 N   0  0  0  0  0  0  0  0  0  0  0  0
   66.9907   -1.3832   -0.5763 N   0  0  0  0  0  0  0  0  0  0  0  0
   65.6010    4.6195    1.8152 C   0  0  0  0  0  0  0  0  0  0  0  0
   65.0510    5.6756    1.0876 C   0  0  0  0  0  0  0  0  0  0  0  0
   65.0692    6.9642    1.5999 C   0  0  0  0  0  0  0  0  0  0  0  0
   65.6298    7.2123    2.8455 C   0  0  0  0  0  0  0  0  0  0  0  0
   66.1756    6.1661    3.5768 C   0  0  0  0  0  0  0  0  0  0  0  0
   66.1647    4.8771    3.0654 C   0  0  0  0  0  0  0  0  0  0  0  0
   61.0211    2.4863    1.0420 H   0  0  0  0  0  0  0  0  0  0  0  0
   62.9127    4.2293    1.7733 H   0  0  0  0  0  0  0  0  0  0  0  0
   64.7931    0.7805    0.2262 H   0  0  0  0  0  0  0  0  0  0  0  0
   68.2434    4.2650    1.5638 H   0  0  0  0  0  0  0  0  0  0  0  0
   70.1051    2.4413    0.8969 H   0  0  0  0  0  0  0  0  0  0  0  0
   70.0391   -2.5450   -0.8291 H   0  0  0  0  0  0  0  0  0  0  0  0
   68.1479   -4.2764   -1.5884 H   0  0  0  0  0  0  0  0  0  0  0  0
   66.5201   -3.9878   -3.7144 H   0  0  0  0  0  0  0  0  0  0  0  0
   66.4946   -6.2646   -4.6669 H   0  0  0  0  0  0  0  0  0  0  0  0
   65.4156   -8.1165   -3.4283 H   0  0  0  0  0  0  0  0  0  0  0  0
   64.3689   -7.6800   -1.2280 H   0  0  0  0  0  0  0  0  0  0  0  0
   64.4052   -5.4053   -0.2692 H   0  0  0  0  0  0  0  0  0  0  0  0
   62.8284   -4.0753   -1.9562 H   0  0  0  0  0  0  0  0  0  0  0  0
   60.9653   -2.2823   -1.2141 H   0  0  0  0  0  0  0  0  0  0  0  0
   66.2743   -0.7019   -0.3487 H   0  0  0  0  0  0  0  0  0  0  0  0
   64.6239    5.4855    0.1091 H   0  0  0  0  0  0  0  0  0  0  0  0
   64.6445    7.7783    1.0231 H   0  0  0  0  0  0  0  0  0  0  0  0
   65.6414    8.2197    3.2456 H   0  0  0  0  0  0  0  0  0  0  0  0
   66.6118    6.3542    4.5516 H   0  0  0  0  0  0  0  0  0  0  0  0
   66.5808    4.0590    3.6426 H   0  0  0  0  0  0  0  0  0  0  0  0
   80.7040   -0.0185    0.0551 C   0  0  0  0  0  0  0  0  0  0  0  0
   81.3325    1.1402    0.5521 C   0  0  0  0  0  0  0  0  0  0  0  0
   80.6862    2.2863    1.0824 C   0  0  0  0  0  0  0  0  0  0  0  0
   81.6523    3.1926    1.4257 C   0  0  0  0  0  0  0  0  0  0  0  0
   82.9170    2.6263    1.1093 C   0  0  0  0  0  0  0  0  0  0  0  0
   82.6730    1.3817    0.5930 N   0  0  0  0  0  0  0  0  0  0  0  0
   84.1761    3.2074    1.3030 C   0  0  0  0  0  0  0  0  0  0  0  0
   85.4017    2.5958    1.0372 C   0  0  0  0  0  0  0  0  0  0  0  0
   86.6867    3.2479    1.2150 C   0  0  0  0  0  0  0  0  0  0  0  0
   87.6261    2.3419    0.8729 C   0  0  0  0  0  0  0  0  0  0  0  0
   85.5815    1.3277    0.5733 N   0  0  0  0  0  0  0  0  0  0  0  0
   86.9131    1.1447    0.4738 C   0  0  0  0  0  0  0  0  0  0  0  0
   87.5700   -0.0275    0.0460 C   0  0  0  0  0  0  0  0  0  0  0  0
   86.9415   -1.2014   -0.4141 C   0  0  0  0  0  0  0  0  0  0  0  0
   87.5878   -2.3890   -0.8434 C   0  0  0  0  0  0  0  0  0  0  0  0
   86.6217   -3.2755   -1.2347 C   0  0  0  0  0  0  0  0  0  0  0  0
   85.3569   -2.6510   -1.0602 C   0  0  0  0  0  0  0  0  0  0  0  0
   84.0978   -3.2011   -1.3293 C   0  0  0  0  0  0  0  0  0  0  0  0
   84.0870   -4.5624   -1.9222 C   0  0  0  0  0  0  0  0  0  0  0  0
   84.6644   -4.7920   -3.1716 C   0  0  0  0  0  0  0  0  0  0  0  0
   84.6497   -6.0623   -3.7278 C   0  0  0  0  0  0  0  0  0  0  0  0
   84.0652   -7.1180   -3.0415 C   0  0  0  0  0  0  0  0  0  0  0  0
   83.4927   -6.8982   -1.7961 C   0  0  0  0  0  0  0  0  0  0  0  0
   83.5002   -5.6282   -1.2390 C   0  0  0  0  0  0  0  0  0  0  0  0
   82.8721   -2.5799   -1.0869 C   0  0  0  0  0  0  0  0  0  0  0  0
   81.5870   -3.1693   -1.4173 C   0  0  0  0  0  0  0  0  0  0  0  0
   80.6477   -2.2850   -1.0224 C   0  0  0  0  0  0  0  0  0  0  0  0
   81.3607   -1.1526   -0.4656 C   0  0  0  0  0  0  0  0  0  0  0  0
   82.6924   -1.3520   -0.5252 N   0  0  0  0  0  0  0  0  0  0  0  0
   85.6010   -1.4026   -0.5530 N   0  0  0  0  0  0  0  0  0  0  0  0
   84.1868    4.5923    1.8382 C   0  0  0  0  0  0  0  0  0  0  0  0
   83.6081    5.6337    1.1114 C   0  0  0  0  0  0  0  0  0  0  0  0
   83.6228    6.9282    1.6087 C   0  0  0  0  0  0  0  0  0  0  0  0
   84.2083    7.1969    2.8384 C   0  0  0  0  0  0  0  0  0  0  0  0
   84.7821    6.1654    3.5692 C   0  0  0  0  0  0  0  0  0  0  0  0
   84.7746    4.8705    3.0727 C   0  0  0  0  0  0  0  0  0  0  0  0
   79.6187    2.3942    1.1873 H   0  0  0  0  0  0  0  0  0  0  0  0
   81.5045    4.1641    1.8682 H   0  0  0  0  0  0  0  0  0  0  0  0
   83.3919    0.7335    0.2894 H   0  0  0  0  0  0  0  0  0  0  0  0
   86.8288    4.2640    1.5456 H   0  0  0  0  0  0  0  0  0  0  0  0
   88.6987    2.4514    0.8719 H   0  0  0  0  0  0  0  0  0  0  0  0
   88.6554   -2.5389   -0.8459 H   0  0  0  0  0  0  0  0  0  0  0  0
   86.7695   -4.2776   -1.6028 H   0  0  0  0  0  0  0  0  0  0  0  0
   85.1100   -3.9658   -3.7147 H   0  0  0  0  0  0  0  0  0  0  0  0
   85.0955   -6.2278   -4.7023 H   0  0  0  0  0  0  0  0  0  0  0  0
   84.0560   -8.1108   -3.4768 H   0  0  0  0  0  0  0  0  0  0  0  0
   83.0380   -7.7203   -1.2545 H   0  0  0  0  0  0  0  0  0  0  0  0
   83.0630   -5.4603   -0.2611 H   0  0  0  0  0  0  0  0  0  0  0  0
   81.4447   -4.1243   -1.8965 H   0  0  0  0  0  0  0  0  0  0  0  0
   79.5749   -2.3627   -1.0987 H   0  0  0  0  0  0  0  0  0  0  0  0
   84.8820   -0.7285   -0.3125 H   0  0  0  0  0  0  0  0  0  0  0  0
   83.1617    5.4276    0.1449 H   0  0  0  0  0  0  0  0  0  0  0  0
   83.1760    7.7307    1.0324 H   0  0  0  0  0  0  0  0  0  0  0  0
   84.2175    8.2091    3.2266 H   0  0  0  0  0  0  0  0  0  0  0  0
   85.2376    6.3696    4.5317 H   0  0  0  0  0  0  0  0  0  0  0  0
   85.2128    4.0639    3.6498 H   0  0  0  0  0  0  0  0  0  0  0  0
   99.3099   -0.0231    0.0380 C   0  0  0  0  0  0  0  0  0  0  0  0
   99.9476    1.1318    0.5318 C   0  0  0  0  0  0  0  0  0  0  0  0
   99.3107    2.2794    1.0705 C   0  0  0  0  0  0  0  0  0  0  0  0
  100.2834    3.1801    1.4091 C   0  0  0  0  0  0  0  0  0  0  0  0
  101.5431    2.6098    1.0799 C   0  0  0  0  0  0  0  0  0  0  0  0
  101.2894    1.3674    0.5624 N   0  0  0  0  0  0  0  0  0  0  0  0
  102.8062    3.1858    1.2610 C   0  0  0  0  0  0  0  0  0  0  0  0
  104.0265    2.5703    0.9782 C   0  0  0  0  0  0  0  0  0  0  0  0
  105.3158    3.2192    1.1370 C   0  0  0  0  0  0  0  0  0  0  0  0
  106.2479    2.3094    0.7854 C   0  0  0  0  0  0  0  0  0  0  0  0
  104.1961    1.3009    0.5155 N   0  0  0  0  0  0  0  0  0  0  0  0
  105.5263    1.1127    0.4007 C   0  0  0  0  0  0  0  0  0  0  0  0
  106.1735   -0.0663   -0.0212 C   0  0  0  0  0  0  0  0  0  0  0  0
  105.5363   -1.2417   -0.4637 C   0  0  0  0  0  0  0  0  0  0  0  0
  106.1740   -2.4369   -0.8855 C   0  0  0  0  0  0  0  0  0  0  0  0
  105.2011   -3.3217   -1.2632 C   0  0  0  0  0  0  0  0  0  0  0  0
  103.9406   -2.6888   -1.0876 C   0  0  0  0  0  0  0  0  0  0  0  0
  102.6770   -3.2336   -1.3468 C   0  0  0  0  0  0  0  0  0  0  0  0
  102.6561   -4.5986   -1.9307 C   0  0  0  0  0  0  0  0  0  0  0  0
  103.2278   -4.8391   -3.1808 C   0  0  0  0  0  0  0  0  0  0  0  0
  103.2050   -6.1128   -3.7287 C   0  0  0  0  0  0  0  0  0  0  0  0
  102.6181   -7.1613   -3.0333 C   0  0  0  0  0  0  0  0  0  0  0  0
  102.0510   -6.9306   -1.7873 C   0  0  0  0  0  0  0  0  0  0  0  0
  102.0666   -5.6571   -1.2386 C   0  0  0  0  0  0  0  0  0  0  0  0
  101.4565   -2.6031   -1.1031 C   0  0  0  0  0  0  0  0  0  0  0  0
  100.1662   -3.1859   -1.4248 C   0  0  0  0  0  0  0  0  0  0  0  0
   99.2344   -2.2932   -1.0313 C   0  0  0  0  0  0  0  0  0  0  0  0
   99.9572   -1.1626   -0.4830 C   0  0  0  0  0  0  0  0  0  0  0  0
  101.2872   -1.3710   -0.5473 N   0  0  0  0  0  0  0  0  0  0  0  0
  104.1938   -1.4374   -0.5929 N   0  0  0  0  0  0  0  0  0  0  0  0
  102.8294    4.5678    1.8029 C   0  0  0  0  0  0  0  0  0  0  0  0
  102.2418    5.6155    1.0925 C   0  0  0  0  0  0  0  0  0  0  0  0
  102.2684    6.9067    1.5979 C   0  0  0  0  0  0  0  0  0  0  0  0
  102.8751    7.1660    2.8193 C   0  0  0  0  0  0  0  0  0  0  0  0
  103.4582    6.1282    3.5337 C   0  0  0  0  0  0  0  0  0  0  0  0
  103.4387    4.8367    3.0292 C   0  0  0  0  0  0  0  0  0  0  0  0
   98.2446    2.3913    1.1847 H   0  0  0  0  0  0  0  0  0  0  0  0
  100.1434    4.1506    1.8563 H   0  0  0  0  0  0  0  0  0  0  0  0
  102.0033    0.7171    0.2516 H   0  0  0  0  0  0  0  0  0  0  0  0
  105.4651    4.2361    1.4617 H   0  0  0  0  0  0  0  0  0  0  0  0
  107.3208    2.4157    0.7698 H   0  0  0  0  0  0  0  0  0  0  0  0
  107.2407   -2.5923   -0.8928 H   0  0  0  0  0  0  0  0  0  0  0  0
  105.3415   -4.3280   -1.6228 H   0  0  0  0  0  0  0  0  0  0  0  0
  103.6755   -4.0186   -3.7307 H   0  0  0  0  0  0  0  0  0  0  0  0
  103.6465   -6.2869   -4.7037 H   0  0  0  0  0  0  0  0  0  0  0  0
  102.6027   -8.1569   -3.4620 H   0  0  0  0  0  0  0  0  0  0  0  0
  101.5945   -7.7470   -1.2388 H   0  0  0  0  0  0  0  0  0  0  0  0
  101.6337   -5.4807   -0.2602 H   0  0  0  0  0  0  0  0  0  0  0  0
  100.0158   -4.1428   -1.8978 H   0  0  0  0  0  0  0  0  0  0  0  0
   98.1609   -2.3643   -1.1027 H   0  0  0  0  0  0  0  0  0  0  0  0
  103.4795   -0.7576   -0.3547 H   0  0  0  0  0  0  0  0  0  0  0  0
  101.7791    5.4171    0.1321 H   0  0  0  0  0  0  0  0  0  0  0  0
  101.8143    7.7142    1.0343 H   0  0  0  0  0  0  0  0  0  0  0  0
  102.8936    8.1755    3.2138 H   0  0  0  0  0  0  0  0  0  0  0  0
  103.9305    6.3250    4.4897 H   0  0  0  0  0  0  0  0  0  0  0  0
  103.8842    4.0251    3.5936 H   0  0  0  0  0  0  0  0  0  0  0  0
  1  2  4  0  0  0  0
  2  3  4  0  0  0  0
  3  4  2  0  0  0  0
  4  5  4  0  0  0  0
  2  6  4  0  0  0  0
  5  6  4  0  0  0  0
  5  7  4  0  0  0  0
  7  8  4  0  0  0  0
  8  9  1  0  0  0  0
  9 10  2  0  0  0  0
  8 11  4  0  0  0  0
 10 12  1  0  0  0  0
 11 12  4  0  0  0  0
 12 13  4  0  0  0  0
 13 14  4  0  0  0  0
 14 15  4  0  0  0  0
 15 16  2  0  0  0  0
 16 17  4  0  0  0  0
 17 18  4  0  0  0  0
 18 19  1  0  0  0  0
 19 20  4  0  0  0  0
 20 21  4  0  0  0  0
 21 22  4  0  0  0  0
 22 23  4  0  0  0  0
 19 24  4  0  0  0  0
 23 24  4  0  0  0  0
 18 25  4  0  0  0  0
 25 26  1  0  0  0  0
 26 27  2  0  0  0  0
  1 28  4  0  0  0  0
 27 28  1  0  0  0  0
 25 29  4  0  0  0  0
 28 29  4  0  0  0  0
 14 30  4  0  0  0  0
 17 30  4  0  0  0  0
  7 31  1  0  0  0  0
 31 32  4  0  0  0  0
 32 33  4  0  0  0  0
 33 34  4  0  0  0  0
 34 35  4  0  0  0  0
 31 36  4  0  0  0  0
 35 36  4  0  0  0  0
  1 37  1  0  0  0  0
  3 38  1  0  0  0  0
  4 39  1  0  0  0  0
  6 40  1  0  0  0  0
  9 41  1  0  0  0  0
 10 42  1  0  0  0  0
 15 43  1  0  0  0  0
 16 44  1  0  0  0  0
 20 45  1  0  0  0  0
 21 46  1  0  0  0  0
 22 47  1  0  0  0  0
 23 48  1  0  0  0  0
 24 49  1  0  0  0  0
 26 50  1  0  0  0  0
 27 51  1  0  0  0  0
 30 52  1  0  0  0  0
 32 53  1  0  0  0  0
 33 54  1  0  0  0  0
 34 55  1  0  0  0  0
 35 56  1  0  0  0  0
 36 57  1  0  0  0  0
 58 59  4  0  0  0  0
 59 60  4  0  0  0  0
 60 61  2  0  0  0  0
 61 62  4  0  0  0  0
 59 63  4  0  0  0  0
 62 63  4  0  0  0  0
 62 64  4  0  0  0  0
 64 65  4  0  0  0  0
 65 66  1  0  0  0  0
 66 67  2  0  0  0  0
 65 68  4  0  0  0  0
 67 69  1  0  0  0  0
 68 69  4  0  0  0  0
 69 70  4  0  0  0  0
 70 71  4  0  0  0  0
 71 72  4  0  0  0  0
 72 73  2  0  0  0  0
 73 74  4  0  0  0  0
 74 75  4  0  0  0  0
 75 76  1  0  0  0  0
 76 77  4  0  0  0  0
 77 78  4  0  0  0  0
 78 79  4  0  0  0  0
 79 80  4  0  0  0  0
 76 81  4  0  0  0  0
 80 81  4  0  0  0  0
 75 82  4  0  0  0  0
 82 83  1  0  0  0  0
 83 84  2  0  0  0  0
 58 85  4  0  0  0  0
 84 85  1  0  0  0  0
 82 86  4  0  0  0  0
 85 86  4  0  0  0  0
 71 87  4  0  0  0  0
 74 87  4  0  0  0  0
 64 88  1  0  0  0  0
 88 89  4  0  0  0  0
 89 90  4  0  0  0  0
 90 91  4  0  0  0  0
 91 92  4  0  0  0  0
 88 93  4  0  0  0  0
 92 93  4  0  0  0  0
 58 94  1  0  0  0  0
 60 95  1  0  0  0  0
 61 96  1  0  0  0  0
 63 97  1  0  0  0  0
 66 98  1  0  0  0  0
 67 99  1  0  0  0  0
 72100  1  0  0  0  0
 73101  1  0  0  0  0
 77102  1  0  0  0  0
 78103  1  0  0  0  0
 79104  1  0  0  0  0
 80105  1  0  0  0  0
 81106  1  0  0  0  0
 83107  1  0  0  0  0
 84108  1  0  0  0  0
 87109  1  0  0  0  0
 89110  1  0  0  0  0
 90111  1  0  0  0  0
 91112  1  0  0  0  0
 92113  1  0  0  0  0
 93114  1  0  0  0  0
 13115  4  0  0  0  0
115116  3  0  0  0  0
116117  4  0  0  0  0
117118  3  0  0  0  0
118119  4  0  0  0  0
119120  3  0  0  0  0
120121  4  0  0  0  0
121122  3  0  0  0  0
123124  3  0  0  0  0
124125  4  0  0  0  0
125126  3  0  0  0  0
126127  4  0  0  0  0
127128  3  0  0  0  0
128129  4  0  0  0  0
129130  3  0  0  0  0
131132  3  0  0  0  0
132133  4  0  0  0  0
133134  3  0  0  0  0
134135  4  0  0  0  0
135136  3  0  0  0  0
136137  4  0  0  0  0
137138  3  0  0  0  0
139140  3  0  0  0  0
140141  4  0  0  0  0
141142  3  0  0  0  0
142143  4  0  0  0  0
143144  3  0  0  0  0
144145  4  0  0  0  0
 70146  4  0  0  0  0
145146  3  0  0  0  0
122147  4  0  0  0  0
147148  4  0  0  0  0
148149  4  0  0  0  0
149150  2  0  0  0  0
150151  4  0  0  0  0
148152  4  0  0  0  0
151152  4  0  0  0  0
151153  4  0  0  0  0
153154  4  0  0  0  0
154155  1  0  0  0  0
155156  2  0  0  0  0
154157  4  0  0  0  0
156158  1  0  0  0  0
157158  4  0  0  0  0
123159  4  0  0  0  0
158159  4  0  0  0  0
159160  4  0  0  0  0
160161  4  0  0  0  0
161162  2  0  0  0  0
162163  4  0  0  0  0
163164  4  0  0  0  0
164165  1  0  0  0  0
165166  4  0  0  0  0
166167  4  0  0  0  0
167168  4  0  0  0  0
168169  4  0  0  0  0
165170  4  0  0  0  0
169170  4  0  0  0  0
164171  4  0  0  0  0
171172  1  0  0  0  0
172173  2  0  0  0  0
147174  4  0  0  0  0
173174  1  0  0  0  0
171175  4  0  0  0  0
174175  4  0  0  0  0
160176  4  0  0  0  0
163176  4  0  0  0  0
153177  1  0  0  0  0
177178  4  0  0  0  0
178179  4  0  0  0  0
179180  4  0  0  0  0
180181  4  0  0  0  0
177182  4  0  0  0  0
181182  4  0  0  0  0
149183  1  0  0  0  0
150184  1  0  0  0  0
152185  1  0  0  0  0
155186  1  0  0  0  0
156187  1  0  0  0  0
161188  1  0  0  0  0
162189  1  0  0  0  0
166190  1  0  0  0  0
167191  1  0  0  0  0
168192  1  0  0  0  0
169193  1  0  0  0  0
170194  1  0  0  0  0
172195  1  0  0  0  0
173196  1  0  0  0  0
176197  1  0  0  0  0
178198  1  0  0  0  0
179199  1  0  0  0  0
180200  1  0  0  0  0
181201  1  0  0  0  0
182202  1  0  0  0  0
130203  4  0  0  0  0
203204  4  0  0  0  0
204205  4  0  0  0  0
205206  2  0  0  0  0
206207  4  0  0  0  0
204208  4  0  0  0  0
207208  4  0  0  0  0
207209  4  0  0  0  0
209210  4  0  0  0  0
210211  1  0  0  0  0
211212  2  0  0  0  0
210213  4  0  0  0  0
212214  1  0  0  0  0
213214  4  0  0  0  0
131215  4  0  0  0  0
214215  4  0  0  0  0
215216  4  0  0  0  0
216217  4  0  0  0  0
217218  2  0  0  0  0
218219  4  0  0  0  0
219220  4  0  0  0  0
220221  1  0  0  0  0
221222  4  0  0  0  0
222223  4  0  0  0  0
223224  4  0  0  0  0
224225  4  0  0  0  0
221226  4  0  0  0  0
225226  4  0  0  0  0
220227  4  0  0  0  0
227228  1  0  0  0  0
228229  2  0  0  0  0
203230  4  0  0  0  0
229230  1  0  0  0  0
227231  4  0  0  0  0
230231  4  0  0  0  0
216232  4  0  0  0  0
219232  4  0  0  0  0
209233  1  0  0  0  0
233234  4  0  0  0  0
234235  4  0  0  0  0
235236  4  0  0  0  0
236237  4  0  0  0  0
233238  4  0  0  0  0
237238  4  0  0  0  0
205239  1  0  0  0  0
206240  1  0  0  0  0
208241  1  0  0  0  0
211242  1  0  0  0  0
212243  1  0  0  0  0
217244  1  0  0  0  0
218245  1  0  0  0  0
222246  1  0  0  0  0
223247  1  0  0  0  0
224248  1  0  0  0  0
225249  1  0  0  0  0
226250  1  0  0  0  0
228251  1  0  0  0  0
229252  1  0  0  0  0
232253  1  0  0  0  0
234254  1  0  0  0  0
235255  1  0  0  0  0
236256  1  0  0  0  0
237257  1  0  0  0  0
238258  1  0  0  0  0
138259  4  0  0  0  0
259260  4  0  0  0  0
260261  4  0  0  0  0
261262  2  0  0  0  0
262263  4  0  0  0  0
260264  4  0  0  0  0
263264  4  0  0  0  0
263265  4  0  0  0  0
265266  4  0  0  0  0
266267  1  0  0  0  0
267268  2  0  0  0  0
266269  4  0  0  0  0
268270  1  0  0  0  0
269270  4  0  0  0  0
139271  4  0  0  0  0
270271  4  0  0  0  0
271272  4  0  0  0  0
272273  4  0  0  0  0
273274  2  0  0  0  0
274275  4  0  0  0  0
275276  4  0  0  0  0
276277  1  0  0  0  0
277278  4  0  0  0  0
278279  4  0  0  0  0
279280  4  0  0  0  0
280281  4  0  0  0  0
277282  4  0  0  0  0
281282  4  0  0  0  0
276283  4  0  0  0  0
283284  1  0  0  0  0
284285  2  0  0  0  0
259286  4  0  0  0  0
285286  1  0  0  0  0
283287  4  0  0  0  0
286287  4  0  0  0  0
272288  4  0  0  0  0
275288  4  0  0  0  0
265289  1  0  0  0  0
289290  4  0  0  0  0
290291  4  0  0  0  0
291292  4  0  0  0  0
292293  4  0  0  0  0
289294  4  0  0  0  0
293294  4  0  0  0  0
261295  1  0  0  0  0
262296  1  0  0  0  0
264297  1  0  0  0  0
267298  1  0  0  0  0
268299  1  0  0  0  0
273300  1  0  0  0  0
274301  1  0  0  0  0
278302  1  0  0  0  0
279303  1  0  0  0  0
280304  1  0  0  0  0
281305  1  0  0  0  0
282306  1  0  0  0  0
284307  1  0  0  0  0
285308  1  0  0  0  0
288309  1  0  0  0  0
290310  1  0  0  0  0
291311  1  0  0  0  0
292312  1  0  0  0  0
293313  1  0  0  0  0
294314  1  0  0  0  0
M  END
