538

C 93.647343 0.017368 -0.122172
C 94.382098 -1.264869 -0.619660
C 93.787015 -2.357840 -1.206464
C 94.812474 -3.308232 -1.450774
C 95.998641 -2.763824 -0.997778
N 95.732152 -1.495848 -0.546068
C 97.416442 -3.470824 -0.973350
C 97.445631 -4.941643 -1.141736
C 97.739517 -5.512738 -2.387257
C 97.755121 -6.900782 -2.538793
C 97.475072 -7.716452 -1.439150
C 97.486301 -9.186706 -1.575682
O 97.724318 -9.760221 -2.632375
C 97.180389 -7.157378 -0.191711
C 97.165747 -5.769822 -0.047229
C 98.546372 -2.753719 -0.731077
C 99.847179 -3.384224 -0.635906
C 100.748441 -2.447309 -0.365449
N 98.743946 -1.415585 -0.515550
C 100.071818 -1.168086 -0.281863
C 100.737512 -0.013990 -0.010575
C 99.959409 1.367378 0.055526
C 100.501510 2.619953 -0.155679
C 99.474947 3.572292 0.061886
C 98.331713 2.873971 0.387847
N 98.623190 1.531321 0.329052
C 96.919340 3.500125 0.743898
C 96.879178 4.906062 1.200659
C 97.176033 5.229565 2.530428
C 97.147573 6.560193 2.954295
C 96.823625 7.567453 2.041266
C 96.789451 8.981148 2.466270
O 97.028773 9.343491 3.612496
C 96.526375 7.256461 0.710422
C 96.555737 5.925322 0.293857
C 95.794576 2.749854 0.615941
C 94.469924 3.257489 0.927724
C 93.585385 2.296280 0.679084
C 94.310105 1.140980 0.210176
N 95.632600 1.457033 0.203912
H 92.567862 -0.016589 -0.035320
H 92.734532 -2.466111 -1.419413
H 94.693339 -4.289137 -1.885470
H 96.426374 -0.832169 -0.210846
H 97.959171 -4.860899 -3.230675
H 97.986635 -7.333771 -3.507824
H 97.263500 -9.758545 -0.659506
H 96.962149 -7.777047 0.671768
H 96.940512 -5.313666 0.915055
H 100.059745 -4.431663 -0.753182
H 101.799713 -2.629687 -0.237256
H 101.525958 2.830074 -0.423094
H 99.562948 4.645881 -0.007026
H 97.939980 0.783635 0.419112
H 97.425888 4.432096 3.227600
H 97.377567 6.800048 3.988383
H 96.532445 9.714770 1.683498
H 96.271308 8.026999 -0.010356
H 96.324728 5.659918 -0.736756
H 94.237831 4.239212 1.299103
H 92.520510 2.359597 0.808693
C 227.935828 0.021823 -0.120823
C 227.201072 1.364660 0.176518
C 227.796156 2.599567 0.294556
C 226.770697 3.525854 0.618474
C 225.584530 2.821601 0.693396
N 225.851019 1.516022 0.365876
C 224.166728 3.396305 1.105903
C 224.137539 4.713495 1.781680
C 223.843654 5.879575 1.062147
C 223.828050 7.118545 1.706027
C 224.108099 7.187232 3.073439
C 224.096870 8.486281 3.775406
O 223.858853 9.549631 3.214329
C 224.402782 6.030089 3.801236
C 224.417424 4.795438 3.151757
C 223.036798 2.665252 0.909698
C 221.735992 3.137066 1.338633
C 220.834730 2.207487 1.043946
N 222.839225 1.432312 0.346746
C 221.511353 1.096753 0.403893
C 220.845658 -0.013990 -0.010575
C 221.623762 -1.200014 -0.721837
C 221.081661 -2.125052 -1.592388
C 222.108224 -3.038124 -1.939639
C 223.251457 -2.637906 -1.281058
N 222.959980 -1.488150 -0.585194
C 224.663831 -3.356398 -1.332144
C 224.703993 -4.779569 -1.731990
C 224.407138 -5.786376 -0.805016
C 224.435598 -7.128639 -1.190457
C 224.759546 -7.460254 -2.508875
C 224.793719 -8.872263 -2.939447
O 224.554398 -9.809572 -2.186735
C 225.056796 -6.463259 -3.443682
C 225.027434 -5.124622 -3.051883
C 225.788595 -2.661162 -1.022425
C 227.113246 -3.256486 -1.044599
C 227.997786 -2.318796 -0.718284
C 227.273066 -1.097427 -0.467577
N 225.950571 -1.356922 -0.648108
H 229.015308 0.001898 -0.029722
H 228.848639 2.807778 0.177434
H 226.889832 4.583140 0.800909
H 225.156797 0.777862 0.276644
H 223.624000 5.805071 -0.001196
H 223.596535 8.016344 1.139936
H 224.319670 8.453862 4.854910
H 224.621022 6.066698 4.863425
H 224.642659 3.882106 3.699383
H 221.523426 4.073634 1.822081
H 219.783458 2.288123 1.251776
H 220.057212 -2.151543 -1.931445
H 222.020223 -3.893169 -2.592509
H 223.643191 -0.916001 -0.095510
H 224.157282 -5.509577 0.217426
H 224.205603 -7.901829 -0.463102
H 225.050726 -9.048454 -3.997696
H 225.311863 -6.704556 -4.470827
H 225.258442 -4.332101 -3.762174
H 227.345340 -4.279329 -1.280170
H 229.062661 -2.443373 -0.645567
C 102.901552 0.000700 -0.000299
C 104.359778 -0.021137 -0.018172
C 105.493706 -0.041890 -0.019663
C 106.855088 -0.054480 -0.021854
C 108.129307 -0.044174 -0.026619
C 109.317769 -0.025376 -0.032775
C 110.670130 -0.000591 -0.016908
C 111.770397 0.000700 -0.000299
C 120.699416 0.000700 -0.000299
C 122.157642 -0.021137 -0.018172
C 123.291570 -0.041890 -0.019663
C 124.652952 -0.054480 -0.021854
C 125.927171 -0.044174 -0.026619
C 127.115633 -0.025376 -0.032775
C 128.467994 -0.000591 -0.016908
C 129.568261 0.000700 -0.000299
C 138.497280 0.000700 -0.000299
C 139.955506 -0.021137 -0.018172
C 141.089434 -0.041890 -0.019663
C 142.450816 -0.054480 -0.021854
C 143.725035 -0.044174 -0.026619
C 144.913497 -0.025376 -0.032775
C 146.265858 -0.000591 -0.016908
C 147.366125 0.000700 -0.000299
C 156.295144 0.000700 -0.000299
C 157.753371 -0.021137 -0.018172
C 158.887299 -0.041890 -0.019663
C 160.248680 -0.054480 -0.021854
C 161.522899 -0.044174 -0.026619
C 162.711362 -0.025376 -0.032775
C 164.063722 -0.000591 -0.016908
C 165.163990 0.000700 -0.000299
C 174.093009 0.000700 -0.000299
C 175.551235 -0.021137 -0.018172
C 176.685163 -0.041890 -0.019663
C 178.046545 -0.054480 -0.021854
C 179.320763 -0.044174 -0.026619
C 180.509226 -0.025376 -0.032775
C 181.861587 -0.000591 -0.016908
C 182.961854 0.000700 -0.000299
C 191.890873 0.000700 -0.000299
C 193.349099 -0.021137 -0.018172
C 194.483027 -0.041890 -0.019663
C 195.844409 -0.054480 -0.021854
C 197.118628 -0.044174 -0.026619
C 198.307090 -0.025376 -0.032775
C 199.659451 -0.000591 -0.016908
C 200.759718 0.000700 -0.000299
C 209.688737 0.000700 -0.000299
C 211.146963 -0.021137 -0.018172
C 212.280891 -0.041890 -0.019663
C 213.642273 -0.054480 -0.021854
C 214.916492 -0.044174 -0.026619
C 216.104954 -0.025376 -0.032775
C 217.457315 -0.000591 -0.016908
C 218.557582 0.000700 -0.000299
C 112.698917 0.004632 0.003630
C 113.483625 0.874024 -1.063264
C 112.942092 1.470860 -2.176607
C 113.981139 2.168332 -2.839012
C 115.132324 1.972782 -2.115101
N 114.830566 1.146549 -1.058594
C 116.550675 2.589285 -2.451107
C 116.588349 3.769816 -3.350137
C 116.813337 3.614536 -4.723132
C 116.856031 4.729085 -5.564483
C 116.668456 6.004300 -5.028336
C 116.711465 7.197586 -5.898215
O 116.872761 7.135621 -7.111479
C 116.436722 6.173020 -3.660659
C 116.397136 5.054511 -2.825296
C 117.681514 2.069097 -1.904275
C 118.987732 2.618927 -2.198782
C 119.899230 1.916605 -1.536296
N 117.880686 1.026307 -1.037846
C 119.221103 0.883588 -0.778784
C 119.903196 0.004632 0.003630
C 119.127097 -1.104351 0.839116
C 119.706241 -2.116533 1.582596
C 118.665045 -2.841343 2.206936
C 117.472767 -2.253302 1.829654
N 117.761923 -1.217967 0.970525
C 116.038774 -2.686909 2.337324
C 115.975904 -3.783171 3.331476
C 115.851681 -5.105475 2.884523
C 115.818869 -6.154394 3.802080
C 115.896459 -5.874069 5.171245
C 115.850068 -6.998473 6.125827
O 115.918397 -6.848372 7.339631
C 116.010747 -4.558383 5.628866
C 116.055463 -3.512924 4.704514
C 114.909951 -2.093721 1.872511
C 113.601949 -2.458126 2.375435
C 112.694718 -1.710865 1.760980
C 113.374473 -0.852107 0.813380
N 114.713773 -1.117612 0.935488
H 111.910829 1.417390 -2.481197
H 113.895402 2.750663 -3.741739
H 115.503220 0.758997 -0.407544
H 116.962079 2.616328 -5.123775
H 117.038657 4.595423 -6.625725
H 116.583185 8.171702 -5.394985
H 116.286379 7.156981 -3.230159
H 116.223807 5.166340 -1.755699
H 119.200196 3.450535 -2.844928
H 120.956161 2.103156 -1.574095
H 120.762411 -2.308409 1.686815
H 118.777025 -3.686013 2.874337
H 117.073058 -0.620190 0.517452
H 115.780933 -5.295647 1.813702
H 115.733485 -7.171253 3.432676
H 115.748877 -8.003821 5.684157
H 116.066233 -4.341848 6.692457
H 116.148560 -2.482178 5.037226
H 113.389416 -3.197454 3.126249
H 111.637437 -1.762787 1.943278
C 130.496781 0.004632 0.003630
C 131.281489 0.874024 -1.063264
C 130.739956 1.470860 -2.176607
C 131.779004 2.168332 -2.839012
C 132.930188 1.972782 -2.115101
N 132.628430 1.146549 -1.058594
C 134.348539 2.589285 -2.451107
C 134.386214 3.769816 -3.350137
C 134.611201 3.614536 -4.723132
C 134.653896 4.729085 -5.564483
C 134.466320 6.004300 -5.028336
C 134.509329 7.197586 -5.898215
O 134.670625 7.135621 -7.111479
C 134.234586 6.173020 -3.660659
C 134.195000 5.054511 -2.825296
C 135.479378 2.069097 -1.904275
C 136.785596 2.618927 -2.198782
C 137.697095 1.916605 -1.536296
N 135.678550 1.026307 -1.037846
C 137.018967 0.883588 -0.778784
C 137.701061 0.004632 0.003630
C 136.924961 -1.104351 0.839116
C 137.504105 -2.116533 1.582596
C 136.462910 -2.841343 2.206936
C 135.270631 -2.253302 1.829654
N 135.559787 -1.217967 0.970525
C 133.836638 -2.686909 2.337324
C 133.773768 -3.783171 3.331476
C 133.649545 -5.105475 2.884523
C 133.616733 -6.154394 3.802080
C 133.694323 -5.874069 5.171245
C 133.647932 -6.998473 6.125827
O 133.716261 -6.848372 7.339631
C 133.808611 -4.558383 5.628866
C 133.853327 -3.512924 4.704514
C 132.707815 -2.093721 1.872511
C 131.399813 -2.458126 2.375435
C 130.492582 -1.710865 1.760980
C 131.172337 -0.852107 0.813380
N 132.511637 -1.117612 0.935488
H 129.708693 1.417390 -2.481197
H 131.693266 2.750663 -3.741739
H 133.301085 0.758997 -0.407544
H 134.759943 2.616328 -5.123775
H 134.836522 4.595423 -6.625725
H 134.381049 8.171702 -5.394985
H 134.084243 7.156981 -3.230159
H 134.021671 5.166340 -1.755699
H 136.998060 3.450535 -2.844928
H 138.754025 2.103156 -1.574095
H 138.560275 -2.308409 1.686815
H 136.574889 -3.686013 2.874337
H 134.870922 -0.620190 0.517452
H 133.578797 -5.295647 1.813702
H 133.531349 -7.171253 3.432676
H 133.546741 -8.003821 5.684157
H 133.864097 -4.341848 6.692457
H 133.946425 -2.482178 5.037226
H 131.187280 -3.197454 3.126249
H 129.435302 -1.762787 1.943278
C 148.294645 0.004632 0.003630
C 149.079354 0.874024 -1.063264
C 148.537820 1.470860 -2.176607
C 149.576868 2.168332 -2.839012
C 150.728052 1.972782 -2.115101
N 150.426294 1.146549 -1.058594
C 152.146404 2.589285 -2.451107
C 152.184078 3.769816 -3.350137
C 152.409065 3.614536 -4.723132
C 152.451760 4.729085 -5.564483
C 152.264184 6.004300 -5.028336
C 152.307193 7.197586 -5.898215
O 152.468489 7.135621 -7.111479
C 152.032451 6.173020 -3.660659
C 151.992865 5.054511 -2.825296
C 153.277243 2.069097 -1.904275
C 154.583460 2.618927 -2.198782
C 155.494959 1.916605 -1.536296
N 153.476414 1.026307 -1.037846
C 154.816831 0.883588 -0.778784
C 155.498925 0.004632 0.003630
C 154.722825 -1.104351 0.839116
C 155.301969 -2.116533 1.582596
C 154.260774 -2.841343 2.206936
C 153.068495 -2.253302 1.829654
N 153.357651 -1.217967 0.970525
C 151.634503 -2.686909 2.337324
C 151.571632 -3.783171 3.331476
C 151.447409 -5.105475 2.884523
C 151.414598 -6.154394 3.802080
C 151.492187 -5.874069 5.171245
C 151.445796 -6.998473 6.125827
O 151.514125 -6.848372 7.339631
C 151.606475 -4.558383 5.628866
C 151.651191 -3.512924 4.704514
C 150.505680 -2.093721 1.872511
C 149.197677 -2.458126 2.375435
C 148.290446 -1.710865 1.760980
C 148.970202 -0.852107 0.813380
N 150.309501 -1.117612 0.935488
H 147.506558 1.417390 -2.481197
H 149.491131 2.750663 -3.741739
H 151.098949 0.758997 -0.407544
H 152.557808 2.616328 -5.123775
H 152.634386 4.595423 -6.625725
H 152.178913 8.171702 -5.394985
H 151.882107 7.156981 -3.230159
H 151.819535 5.166340 -1.755699
H 154.795925 3.450535 -2.844928
H 156.551890 2.103156 -1.574095
H 156.358139 -2.308409 1.686815
H 154.372753 -3.686013 2.874337
H 152.668787 -0.620190 0.517452
H 151.376661 -5.295647 1.813702
H 151.329213 -7.171253 3.432676
H 151.344605 -8.003821 5.684157
H 151.661961 -4.341848 6.692457
H 151.744289 -2.482178 5.037226
H 148.985145 -3.197454 3.126249
H 147.233166 -1.762787 1.943278
C 166.092509 0.004632 0.003630
C 166.877218 0.874024 -1.063264
C 166.335684 1.470860 -2.176607
C 167.374732 2.168332 -2.839012
C 168.525916 1.972782 -2.115101
N 168.224158 1.146549 -1.058594
C 169.944268 2.589285 -2.451107
C 169.981942 3.769816 -3.350137
C 170.206929 3.614536 -4.723132
C 170.249624 4.729085 -5.564483
C 170.062048 6.004300 -5.028336
C 170.105058 7.197586 -5.898215
O 170.266353 7.135621 -7.111479
C 169.830315 6.173020 -3.660659
C 169.790729 5.054511 -2.825296
C 171.075107 2.069097 -1.904275
C 172.381325 2.618927 -2.198782
C 173.292823 1.916605 -1.536296
N 171.274278 1.026307 -1.037846
C 172.614695 0.883588 -0.778784
C 173.296789 0.004632 0.003630
C 172.520690 -1.104351 0.839116
C 173.099834 -2.116533 1.582596
C 172.058638 -2.841343 2.206936
C 170.866359 -2.253302 1.829654
N 171.155516 -1.217967 0.970525
C 169.432367 -2.686909 2.337324
C 169.369496 -3.783171 3.331476
C 169.245273 -5.105475 2.884523
C 169.212462 -6.154394 3.802080
C 169.290052 -5.874069 5.171245
C 169.243660 -6.998473 6.125827
O 169.311989 -6.848372 7.339631
C 169.404340 -4.558383 5.628866
C 169.449056 -3.512924 4.704514
C 168.303544 -2.093721 1.872511
C 166.995541 -2.458126 2.375435
C 166.088310 -1.710865 1.760980
C 166.768066 -0.852107 0.813380
N 168.107366 -1.117612 0.935488
H 165.304422 1.417390 -2.481197
H 167.288995 2.750663 -3.741739
H 168.896813 0.758997 -0.407544
H 170.355672 2.616328 -5.123775
H 170.432250 4.595423 -6.625725
H 169.976777 8.171702 -5.394985
H 169.679972 7.156981 -3.230159
H 169.617399 5.166340 -1.755699
H 172.593789 3.450535 -2.844928
H 174.349754 2.103156 -1.574095
H 174.156004 -2.308409 1.686815
H 172.170618 -3.686013 2.874337
H 170.466651 -0.620190 0.517452
H 169.174526 -5.295647 1.813702
H 169.127077 -7.171253 3.432676
H 169.142470 -8.003821 5.684157
H 169.459825 -4.341848 6.692457
H 169.542153 -2.482178 5.037226
H 166.783009 -3.197454 3.126249
H 165.031030 -1.762787 1.943278
C 183.890374 0.004632 0.003630
C 184.675082 0.874024 -1.063264
C 184.133549 1.470860 -2.176607
C 185.172596 2.168332 -2.839012
C 186.323780 1.972782 -2.115101
N 186.022022 1.146549 -1.058594
C 187.742132 2.589285 -2.451107
C 187.779806 3.769816 -3.350137
C 188.004793 3.614536 -4.723132
C 188.047488 4.729085 -5.564483
C 187.859912 6.004300 -5.028336
C 187.902922 7.197586 -5.898215
O 188.064217 7.135621 -7.111479
C 187.628179 6.173020 -3.660659
C 187.588593 5.054511 -2.825296
C 188.872971 2.069097 -1.904275
C 190.179189 2.618927 -2.198782
C 191.090687 1.916605 -1.536296
N 189.072143 1.026307 -1.037846
C 190.412560 0.883588 -0.778784
C 191.094653 0.004632 0.003630
C 190.318554 -1.104351 0.839116
C 190.897698 -2.116533 1.582596
C 189.856502 -2.841343 2.206936
C 188.664224 -2.253302 1.829654
N 188.953380 -1.217967 0.970525
C 187.230231 -2.686909 2.337324
C 187.167361 -3.783171 3.331476
C 187.043138 -5.105475 2.884523
C 187.010326 -6.154394 3.802080
C 187.087916 -5.874069 5.171245
C 187.041525 -6.998473 6.125827
O 187.109853 -6.848372 7.339631
C 187.202204 -4.558383 5.628866
C 187.246920 -3.512924 4.704514
C 186.101408 -2.093721 1.872511
C 184.793406 -2.458126 2.375435
C 183.886174 -1.710865 1.760980
C 184.565930 -0.852107 0.813380
N 185.905230 -1.117612 0.935488
H 183.102286 1.417390 -2.481197
H 185.086859 2.750663 -3.741739
H 186.694677 0.758997 -0.407544
H 188.153536 2.616328 -5.123775
H 188.230114 4.595423 -6.625725
H 187.774641 8.171702 -5.394985
H 187.477836 7.156981 -3.230159
H 187.415264 5.166340 -1.755699
H 190.391653 3.450535 -2.844928
H 192.147618 2.103156 -1.574095
H 191.953868 -2.308409 1.686815
H 189.968482 -3.686013 2.874337
H 188.264515 -0.620190 0.517452
H 186.972390 -5.295647 1.813702
H 186.924942 -7.171253 3.432676
H 186.940334 -8.003821 5.684157
H 187.257690 -4.341848 6.692457
H 187.340017 -2.482178 5.037226
H 184.580873 -3.197454 3.126249
H 182.828894 -1.762787 1.943278
C 201.688238 0.004632 0.003630
C 202.472946 0.874024 -1.063264
C 201.931413 1.470860 -2.176607
C 202.970460 2.168332 -2.839012
C 204.121645 1.972782 -2.115101
N 203.819887 1.146549 -1.058594
C 205.539996 2.589285 -2.451107
C 205.577670 3.769816 -3.350137
C 205.802658 3.614536 -4.723132
C 205.845352 4.729085 -5.564483
C 205.657777 6.004300 -5.028336
C 205.700786 7.197586 -5.898215
O 205.862082 7.135621 -7.111479
C 205.426043 6.173020 -3.660659
C 205.386457 5.054511 -2.825296
C 206.670835 2.069097 -1.904275
C 207.977053 2.618927 -2.198782
C 208.888551 1.916605 -1.536296
N 206.870007 1.026307 -1.037846
C 208.210424 0.883588 -0.778784
C 208.892517 0.004632 0.003630
C 208.116418 -1.104351 0.839116
C 208.695562 -2.116533 1.582596
C 207.654366 -2.841343 2.206936
C 206.462088 -2.253302 1.829654
N 206.751244 -1.217967 0.970525
C 205.028095 -2.686909 2.337324
C 204.965225 -3.783171 3.331476
C 204.841002 -5.105475 2.884523
C 204.808190 -6.154394 3.802080
C 204.885780 -5.874069 5.171245
C 204.839389 -6.998473 6.125827
O 204.907718 -6.848372 7.339631
C 205.000068 -4.558383 5.628866
C 205.044784 -3.512924 4.704514
C 203.899272 -2.093721 1.872511
C 202.591270 -2.458126 2.375435
C 201.684039 -1.710865 1.760980
C 202.363794 -0.852107 0.813380
N 203.703094 -1.117612 0.935488
H 200.900150 1.417390 -2.481197
H 202.884723 2.750663 -3.741739
H 204.492541 0.758997 -0.407544
H 205.951400 2.616328 -5.123775
H 206.027979 4.595423 -6.625725
H 205.572506 8.171702 -5.394985
H 205.275700 7.156981 -3.230159
H 205.213128 5.166340 -1.755699
H 208.189517 3.450535 -2.844928
H 209.945482 2.103156 -1.574095
H 209.751732 -2.308409 1.686815
H 207.766346 -3.686013 2.874337
H 206.062379 -0.620190 0.517452
H 204.770254 -5.295647 1.813702
H 204.722806 -7.171253 3.432676
H 204.738198 -8.003821 5.684157
H 205.055554 -4.341848 6.692457
H 205.137881 -2.482178 5.037226
H 202.378737 -3.197454 3.126249
H 200.626759 -1.762787 1.943278
