132

Ni 13.578880 -0.030076 0.000443
C 10.245741 0.120936 0.106853
C 10.912553 1.277882 0.085453
C 10.264182 2.583500 0.084249
C 11.207822 3.505571 0.076288
C 12.512969 2.830521 0.074220
N 12.332987 1.414295 0.079255
C 13.706919 3.455412 0.104137
C 13.744443 4.934116 0.111652
C 13.535104 5.649390 -1.075322
C 13.556758 7.047729 -1.072384
O 13.342481 7.728907 -2.270772
C 13.789822 7.743388 0.127767
O 13.805451 9.138921 0.123701
C 14.003597 7.027375 1.319859
O 14.236443 7.710073 2.512500
C 13.981121 5.626145 1.306466
C 15.005126 2.731307 0.142493
C 16.304400 3.400833 0.273917
C 17.238726 2.473664 0.259262
N 15.139750 1.443533 0.041907
C 16.545621 1.199762 0.107734
C 17.140830 -0.000947 -0.000662
C 16.387871 -1.266478 -0.180813
C 16.953160 -2.428419 -0.485941
C 15.905664 -3.427479 -0.516139
C 14.763974 -2.813312 -0.230082
N 14.977725 -1.416594 -0.003793
C 13.454864 -3.507026 -0.111613
C 13.436048 -4.985807 -0.130219
C 13.582678 -5.703810 1.063189
C 13.561394 -7.102271 1.054332
O 13.703122 -7.787556 2.261063
C 13.398067 -7.794238 -0.159653
O 13.381236 -9.189672 -0.160669
C 13.256163 -7.074457 -1.360198
O 13.098723 -7.753860 -2.567407
C 13.274335 -5.673145 -1.340184
C 12.292190 -2.841851 0.010481
C 10.968260 -3.450022 0.129197
C 10.109249 -2.451378 0.180931
C 10.875360 -1.208747 0.100938
N 12.150093 -1.423500 0.000494
H 9.162857 0.153721 0.131473
H 9.199555 2.779260 0.093363
H 11.024142 4.572220 0.082846
H 13.351372 5.119068 -2.002013
H 13.347455 8.740347 -2.323747
H 13.955824 9.679176 0.966708
H 14.392756 7.217748 3.384421
H 14.143847 5.075545 2.225125
H 16.487966 4.463393 0.363830
H 18.302514 2.656840 0.334017
H 18.002812 -2.613328 -0.667914
H 16.040557 -4.482245 -0.719082
H 13.709853 -5.176054 2.000638
H 13.684806 -8.798622 2.311430
H 13.267343 -9.727789 -1.011096
H 12.998884 -7.259561 -3.446825
H 13.163996 -5.119662 -2.265228
H 10.716368 -4.502181 0.163690
H 9.034251 -2.549182 0.264377
Ni 31.854636 0.027870 0.003738
C 35.187775 -0.134230 0.092345
C 34.520963 -1.281295 -0.060051
C 35.169334 -2.578363 -0.209234
C 34.225694 -3.493589 -0.321656
C 32.920547 -2.822655 -0.247197
N 33.100529 -1.416126 -0.081671
C 31.726597 -3.446910 -0.288301
C 31.689073 -4.916936 -0.448439
C 31.898412 -5.493062 -1.708837
C 31.876758 -6.882723 -1.864414
O 32.091035 -7.423680 -3.132288
C 31.643694 -7.709931 -0.750847
O 31.628065 -9.096010 -0.913063
C 31.429918 -7.133650 0.514720
O 31.197073 -7.947129 1.622294
C 31.452395 -5.739932 0.660237
C 30.428389 -2.731819 -0.168119
C 29.129116 -3.411926 -0.113429
C 28.194790 -2.489071 -0.022899
N 30.293766 -1.440942 -0.122092
C 28.887895 -1.206203 -0.029059
C 28.292686 -0.000947 -0.000662
C 29.045645 1.276848 -0.036210
C 28.480356 2.465887 -0.207670
C 29.527852 3.461931 -0.124434
C 30.669541 2.819299 0.090165
N 30.455791 1.405933 0.156685
C 31.978652 3.495114 0.286500
C 31.997468 4.966474 0.435628
C 31.850838 5.544582 1.702727
C 31.872122 6.935036 1.852437
O 31.730393 7.479126 3.129065
C 32.035449 7.760143 0.724706
O 32.052280 9.146699 0.881863
C 32.177353 7.181077 -0.549685
O 32.334793 7.992934 -1.672107
C 32.159180 5.786526 -0.688633
C 33.141326 2.820387 0.332413
C 34.465256 3.411182 0.519297
C 35.324267 2.413111 0.457507
C 34.558156 1.187555 0.237182
N 33.283423 1.412308 0.161727
H 36.270659 -0.169594 0.113091
H 36.233961 -2.773894 -0.222367
H 34.409374 -4.554107 -0.436040
H 32.082144 -4.861122 -2.569447
H 32.086061 -8.422597 -3.299563
H 31.477692 -9.728334 -0.136725
H 31.040760 -7.556805 2.544399
H 31.289669 -5.297007 1.635384
H 28.945550 -4.477830 -0.144532
H 27.131002 -2.679540 0.030612
H 27.430704 2.670229 -0.367512
H 29.392958 4.532902 -0.206517
H 31.723663 4.913972 2.574316
H 31.748710 8.477968 3.293708
H 32.166173 9.777741 0.097910
H 32.434631 7.601498 -2.601884
H 32.269520 5.341460 -1.670450
H 34.717148 4.452651 0.672826
H 36.399265 2.500826 0.551500
C 18.216395 0.014673 0.010264
C 19.674621 -0.007164 -0.007610
C 20.808549 -0.027917 -0.009101
C 22.169931 -0.040507 -0.011292
C 23.444150 -0.030201 -0.016057
C 24.632612 -0.011403 -0.022213
C 25.984973 0.013382 -0.006345
C 27.085240 0.014673 0.010264
