452

C 29.745538 -0.000836 -0.000715
C 30.479972 -1.377994 -0.072601
C 29.892826 -2.621658 -0.137518
C 30.944744 -3.577556 -0.187419
C 32.133197 -2.880370 -0.151031
N 31.841504 -1.544691 -0.081304
C 33.564552 -3.498692 -0.183316
C 34.687113 -2.753886 -0.144433
C 35.972099 -3.406352 -0.178503
C 36.909383 -2.465123 -0.129366
N 34.908944 -1.411669 -0.074357
C 36.258323 -1.167256 -0.061604
C 36.955084 0.000496 -0.000644
C 36.180419 1.392784 0.072043
C 36.743998 2.653323 0.137857
C 35.685974 3.597481 0.187145
C 34.508062 2.887551 0.150073
N 34.813411 1.550415 0.080264
C 33.075265 3.512113 0.182671
C 31.957745 2.762505 0.143536
C 30.653976 3.387227 0.176142
C 29.737493 2.423173 0.125816
C 30.431547 1.157537 0.059753
N 31.767629 1.418763 0.073392
H 28.662822 0.007382 -0.000289
H 28.832150 -2.819325 -0.147835
H 30.845480 -4.650619 -0.243435
H 32.521529 -0.788653 -0.041841
H 33.642595 -4.578126 -0.239675
H 36.137060 -4.467266 -0.233894
H 37.967422 -2.652522 -0.139153
H 37.799372 2.878098 0.149597
H 35.774401 4.671577 0.243223
H 34.134708 0.792574 0.040699
H 32.994033 4.590993 0.238988
H 30.468001 4.444382 0.231324
H 28.670611 2.552574 0.132567
C 235.433340 0.001808 -0.000886
C 234.698907 1.358344 -0.248961
C 235.286053 2.583386 -0.472988
C 234.234134 3.524969 -0.645183
C 233.045682 2.838223 -0.519599
N 233.337375 1.522545 -0.278990
C 231.614327 3.447285 -0.630990
C 230.491765 2.713632 -0.496819
C 229.206779 3.356326 -0.614363
C 228.269496 2.429193 -0.444808
N 230.269934 1.391515 -0.255024
C 228.920556 1.150761 -0.211002
C 228.223794 0.000496 -0.000644
C 228.998459 -1.370942 0.250168
C 228.434881 -2.612604 0.477250
C 229.492905 -3.542623 0.647331
C 230.670816 -2.843326 0.519433
N 230.365468 -1.526214 0.278556
C 232.103613 -3.458536 0.631935
C 233.221134 -2.720153 0.496898
C 234.524903 -3.335521 0.609428
C 235.441386 -2.385903 0.435765
C 234.747331 -1.139219 0.207781
N 233.411249 -1.396533 0.254841
H 236.516057 -0.006287 0.000592
H 236.346729 2.778092 -0.508593
H 234.333399 4.581963 -0.838483
H 232.657350 0.777827 -0.142802
H 231.536284 4.510553 -0.825448
H 229.041818 4.401353 -0.805484
H 227.211456 2.613784 -0.478571
H 227.379507 -2.834012 0.517747
H 229.404478 -4.600634 0.840825
H 231.044171 -0.779721 0.142034
H 232.184845 -4.521260 0.826281
H 234.710877 -4.376846 0.799859
H 236.508267 -2.513367 0.459071
C 40.808271 -0.001995 0.002584
C 42.173259 -0.015671 -0.011232
C 43.937235 -0.003485 -0.018075
C 44.594752 -0.006819 -0.028217
C 46.174386 0.007667 -0.036398
C 47.284699 0.007607 -0.027112
C 48.867918 0.031618 -0.002571
C 50.011998 0.035100 0.011028
C 51.354242 0.019950 0.014131
C 52.474949 -0.001995 0.002584
C 62.286654 -0.001995 0.002584
C 63.651642 -0.015671 -0.011232
C 65.415618 -0.003485 -0.018075
C 66.073135 -0.006819 -0.028217
C 67.652768 0.007667 -0.036398
C 68.763082 0.007607 -0.027112
C 70.346301 0.031618 -0.002571
C 71.490381 0.035100 0.011028
C 72.832624 0.019950 0.014131
C 73.953331 -0.001995 0.002584
C 83.765037 -0.001995 0.002584
C 85.130025 -0.015671 -0.011232
C 86.894000 -0.003485 -0.018075
C 87.551518 -0.006819 -0.028217
C 89.131151 0.007667 -0.036398
C 90.241465 0.007607 -0.027112
C 91.824684 0.031618 -0.002571
C 92.968764 0.035100 0.011028
C 94.311007 0.019950 0.014131
C 95.431714 -0.001995 0.002584
C 105.243420 -0.001995 0.002584
C 106.608408 -0.015671 -0.011232
C 108.372383 -0.003485 -0.018075
C 109.029901 -0.006819 -0.028217
C 110.609534 0.007667 -0.036398
C 111.719848 0.007607 -0.027112
C 113.303067 0.031618 -0.002571
C 114.447147 0.035100 0.011028
C 115.789390 0.019950 0.014131
C 116.910097 -0.001995 0.002584
C 126.721803 -0.001995 0.002584
C 128.086791 -0.015671 -0.011232
C 129.850766 -0.003485 -0.018075
C 130.508283 -0.006819 -0.028217
C 132.087917 0.007667 -0.036398
C 133.198231 0.007607 -0.027112
C 134.781450 0.031618 -0.002571
C 135.925530 0.035100 0.011028
C 137.267773 0.019950 0.014131
C 138.388480 -0.001995 0.002584
C 148.200185 -0.001995 0.002584
C 149.565173 -0.015671 -0.011232
C 151.329149 -0.003485 -0.018075
C 151.986666 -0.006819 -0.028217
C 153.566300 0.007667 -0.036398
C 154.676613 0.007607 -0.027112
C 156.259832 0.031618 -0.002571
C 157.403912 0.035100 0.011028
C 158.746156 0.019950 0.014131
C 159.866863 -0.001995 0.002584
C 169.678568 -0.001995 0.002584
C 171.043556 -0.015671 -0.011232
C 172.807532 -0.003485 -0.018075
C 173.465049 -0.006819 -0.028217
C 175.044682 0.007667 -0.036398
C 176.154996 0.007607 -0.027112
C 177.738215 0.031618 -0.002571
C 178.882295 0.035100 0.011028
C 180.224538 0.019950 0.014131
C 181.345245 -0.001995 0.002584
C 191.156951 -0.001995 0.002584
C 192.521939 -0.015671 -0.011232
C 194.285914 -0.003485 -0.018075
C 194.943432 -0.006819 -0.028217
C 196.523065 0.007667 -0.036398
C 197.633379 0.007607 -0.027112
C 199.216598 0.031618 -0.002571
C 200.360678 0.035100 0.011028
C 201.702921 0.019950 0.014131
C 202.823628 -0.001995 0.002584
C 212.635334 -0.001995 0.002584
C 214.000322 -0.015671 -0.011232
C 215.764297 -0.003485 -0.018075
C 216.421815 -0.006819 -0.028217
C 218.001448 0.007667 -0.036398
C 219.111762 0.007607 -0.027112
C 220.694981 0.031618 -0.002571
C 221.839061 0.035100 0.011028
C 223.181304 0.019950 0.014131
C 224.302011 -0.001995 0.002584
C 53.760403 0.000496 -0.000642
C 54.540443 1.388031 -0.017967
C 53.988339 2.654132 -0.033791
C 55.056955 3.586756 -0.045423
C 56.227863 2.863128 -0.036363
N 55.909170 1.530101 -0.019721
C 57.660235 3.477796 -0.044010
C 58.785860 2.739743 -0.034802
C 60.066158 3.403141 -0.043056
C 61.010608 2.468168 -0.031394
N 59.015850 1.399252 -0.018095
C 60.367582 1.165698 -0.015170
C 61.069795 0.000496 -0.000642
C 60.289756 -1.387039 0.016639
C 60.841861 -2.653142 0.032375
C 59.773243 -3.585765 0.044012
C 58.602336 -2.862136 0.035040
N 58.921029 -1.529108 0.018437
C 57.169964 -3.476803 0.042732
C 56.044339 -2.738751 0.033530
C 54.764041 -3.402148 0.041828
C 53.819591 -2.467175 0.030165
C 54.462617 -1.164706 0.013896
N 55.814349 -1.398260 0.016797
H 52.935136 2.889355 -0.036745
H 54.980326 4.663257 -0.058870
H 56.573983 0.759492 -0.010095
H 57.737124 4.559135 -0.057484
H 60.223304 4.466685 -0.056308
H 62.067502 2.662372 -0.033803
H 61.895063 -2.888365 0.035270
H 59.849873 -4.662266 0.057405
H 58.256215 -0.758499 0.008853
H 57.093075 -4.558142 0.056234
H 54.606895 -4.465692 0.055109
H 52.762697 -2.661379 0.032602
C 75.238786 0.000496 -0.000642
C 76.018826 1.388031 -0.017967
C 75.466721 2.654132 -0.033791
C 76.535338 3.586756 -0.045423
C 77.706246 2.863128 -0.036363
N 77.387553 1.530101 -0.019721
C 79.138618 3.477796 -0.044010
C 80.264243 2.739743 -0.034802
C 81.544541 3.403141 -0.043056
C 82.488991 2.468168 -0.031394
N 80.494233 1.399252 -0.018095
C 81.845965 1.165698 -0.015170
C 82.548178 0.000496 -0.000642
C 81.768138 -1.387039 0.016639
C 82.320243 -2.653142 0.032375
C 81.251626 -3.585765 0.044012
C 80.080719 -2.862136 0.035040
N 80.399412 -1.529108 0.018437
C 78.648347 -3.476803 0.042732
C 77.522722 -2.738751 0.033530
C 76.242424 -3.402148 0.041828
C 75.297973 -2.467175 0.030165
C 75.941000 -1.164706 0.013896
N 77.292732 -1.398260 0.016797
H 74.413519 2.889355 -0.036745
H 76.458709 4.663257 -0.058870
H 78.052366 0.759492 -0.010095
H 79.215506 4.559135 -0.057484
H 81.701687 4.466685 -0.056308
H 83.545885 2.662372 -0.033803
H 83.373446 -2.888365 0.035270
H 81.328256 -4.662266 0.057405
H 79.734598 -0.758499 0.008853
H 78.571458 -4.558142 0.056234
H 76.085278 -4.465692 0.055109
H 74.241080 -2.661379 0.032602
C 96.717169 0.000496 -0.000642
C 97.497209 1.388031 -0.017967
C 96.945104 2.654132 -0.033791
C 98.013721 3.586756 -0.045423
C 99.184629 2.863128 -0.036363
N 98.865936 1.530101 -0.019721
C 100.617001 3.477796 -0.044010
C 101.742626 2.739743 -0.034802
C 103.022923 3.403141 -0.043056
C 103.967374 2.468168 -0.031394
N 101.972615 1.399252 -0.018095
C 103.324347 1.165698 -0.015170
C 104.026561 0.000496 -0.000642
C 103.246521 -1.387039 0.016639
C 103.798626 -2.653142 0.032375
C 102.730009 -3.585765 0.044012
C 101.559101 -2.862136 0.035040
N 101.877794 -1.529108 0.018437
C 100.126729 -3.476803 0.042732
C 99.001105 -2.738751 0.033530
C 97.720807 -3.402148 0.041828
C 96.776356 -2.467175 0.030165
C 97.419383 -1.164706 0.013896
N 98.771115 -1.398260 0.016797
H 95.891901 2.889355 -0.036745
H 97.937091 4.663257 -0.058870
H 99.530749 0.759492 -0.010095
H 100.693889 4.559135 -0.057484
H 103.180070 4.466685 -0.056308
H 105.024268 2.662372 -0.033803
H 104.851829 -2.888365 0.035270
H 102.806638 -4.662266 0.057405
H 101.212981 -0.758499 0.008853
H 100.049841 -4.558142 0.056234
H 97.563661 -4.465692 0.055109
H 95.719462 -2.661379 0.032602
C 118.195552 0.000496 -0.000642
C 118.975592 1.388031 -0.017967
C 118.423487 2.654132 -0.033791
C 119.492104 3.586756 -0.045423
C 120.663012 2.863128 -0.036363
N 120.344319 1.530101 -0.019721
C 122.095384 3.477796 -0.044010
C 123.221009 2.739743 -0.034802
C 124.501306 3.403141 -0.043056
C 125.445757 2.468168 -0.031394
N 123.450998 1.399252 -0.018095
C 124.802730 1.165698 -0.015170
C 125.504944 0.000496 -0.000642
C 124.724904 -1.387039 0.016639
C 125.277009 -2.653142 0.032375
C 124.208392 -3.585765 0.044012
C 123.037484 -2.862136 0.035040
N 123.356177 -1.529108 0.018437
C 121.605112 -3.476803 0.042732
C 120.479487 -2.738751 0.033530
C 119.199190 -3.402148 0.041828
C 118.254739 -2.467175 0.030165
C 118.897765 -1.164706 0.013896
N 120.249498 -1.398260 0.016797
H 117.370284 2.889355 -0.036745
H 119.415474 4.663257 -0.058870
H 121.009132 0.759492 -0.010095
H 122.172272 4.559135 -0.057484
H 124.658452 4.466685 -0.056308
H 126.502650 2.662372 -0.033803
H 126.330211 -2.888365 0.035270
H 124.285021 -4.662266 0.057405
H 122.691364 -0.758499 0.008853
H 121.528224 -4.558142 0.056234
H 119.042044 -4.465692 0.055109
H 117.197845 -2.661379 0.032602
C 139.673935 0.000496 -0.000642
C 140.453975 1.388031 -0.017967
C 139.901870 2.654132 -0.033791
C 140.970487 3.586756 -0.045423
C 142.141394 2.863128 -0.036363
N 141.822701 1.530101 -0.019721
C 143.573766 3.477796 -0.044010
C 144.699391 2.739743 -0.034802
C 145.979689 3.403141 -0.043056
C 146.924140 2.468168 -0.031394
N 144.929381 1.399252 -0.018095
C 146.281113 1.165698 -0.015170
C 146.983327 0.000496 -0.000642
C 146.203287 -1.387039 0.016639
C 146.755392 -2.653142 0.032375
C 145.686775 -3.585765 0.044012
C 144.515867 -2.862136 0.035040
N 144.834560 -1.529108 0.018437
C 143.083495 -3.476803 0.042732
C 141.957870 -2.738751 0.033530
C 140.677572 -3.402148 0.041828
C 139.733122 -2.467175 0.030165
C 140.376148 -1.164706 0.013896
N 141.727880 -1.398260 0.016797
H 138.848667 2.889355 -0.036745
H 140.893857 4.663257 -0.058870
H 142.487515 0.759492 -0.010095
H 143.650655 4.559135 -0.057484
H 146.136835 4.466685 -0.056308
H 147.981033 2.662372 -0.033803
H 147.808594 -2.888365 0.035270
H 145.763404 -4.662266 0.057405
H 144.169746 -0.758499 0.008853
H 143.006607 -4.558142 0.056234
H 140.520427 -4.465692 0.055109
H 138.676228 -2.661379 0.032602
C 161.152317 0.000496 -0.000642
C 161.932357 1.388031 -0.017967
C 161.380253 2.654132 -0.033791
C 162.448869 3.586756 -0.045423
C 163.619777 2.863128 -0.036363
N 163.301084 1.530101 -0.019721
C 165.052149 3.477796 -0.044010
C 166.177774 2.739743 -0.034802
C 167.458072 3.403141 -0.043056
C 168.402522 2.468168 -0.031394
N 166.407764 1.399252 -0.018095
C 167.759496 1.165698 -0.015170
C 168.461709 0.000496 -0.000642
C 167.681670 -1.387039 0.016639
C 168.233775 -2.653142 0.032375
C 167.165157 -3.585765 0.044012
C 165.994250 -2.862136 0.035040
N 166.312943 -1.529108 0.018437
C 164.561878 -3.476803 0.042732
C 163.436253 -2.738751 0.033530
C 162.155955 -3.402148 0.041828
C 161.211505 -2.467175 0.030165
C 161.854531 -1.164706 0.013896
N 163.206263 -1.398260 0.016797
H 160.327050 2.889355 -0.036745
H 162.372240 4.663257 -0.058870
H 163.965897 0.759492 -0.010095
H 165.129038 4.559135 -0.057484
H 167.615218 4.466685 -0.056308
H 169.459416 2.662372 -0.033803
H 169.286977 -2.888365 0.035270
H 167.241787 -4.662266 0.057405
H 165.648129 -0.758499 0.008853
H 164.484989 -4.558142 0.056234
H 161.998809 -4.465692 0.055109
H 160.154611 -2.661379 0.032602
C 182.630700 0.000496 -0.000642
C 183.410740 1.388031 -0.017967
C 182.858635 2.654132 -0.033791
C 183.927252 3.586756 -0.045423
C 185.098160 2.863128 -0.036363
N 184.779467 1.530101 -0.019721
C 186.530532 3.477796 -0.044010
C 187.656157 2.739743 -0.034802
C 188.936455 3.403141 -0.043056
C 189.880905 2.468168 -0.031394
N 187.886147 1.399252 -0.018095
C 189.237879 1.165698 -0.015170
C 189.940092 0.000496 -0.000642
C 189.160052 -1.387039 0.016639
C 189.712157 -2.653142 0.032375
C 188.643540 -3.585765 0.044012
C 187.472633 -2.862136 0.035040
N 187.791326 -1.529108 0.018437
C 186.040261 -3.476803 0.042732
C 184.914636 -2.738751 0.033530
C 183.634338 -3.402148 0.041828
C 182.689888 -2.467175 0.030165
C 183.332914 -1.164706 0.013896
N 184.684646 -1.398260 0.016797
H 181.805433 2.889355 -0.036745
H 183.850623 4.663257 -0.058870
H 185.444280 0.759492 -0.010095
H 186.607420 4.559135 -0.057484
H 189.093601 4.466685 -0.056308
H 190.937799 2.662372 -0.033803
H 190.765360 -2.888365 0.035270
H 188.720170 -4.662266 0.057405
H 187.126512 -0.758499 0.008853
H 185.963372 -4.558142 0.056234
H 183.477192 -4.465692 0.055109
H 181.632994 -2.661379 0.032602
C 204.109083 0.000496 -0.000642
C 204.889123 1.388031 -0.017967
C 204.337018 2.654132 -0.033791
C 205.405635 3.586756 -0.045423
C 206.576543 2.863128 -0.036363
N 206.257850 1.530101 -0.019721
C 208.008915 3.477796 -0.044010
C 209.134540 2.739743 -0.034802
C 210.414838 3.403141 -0.043056
C 211.359288 2.468168 -0.031394
N 209.364530 1.399252 -0.018095
C 210.716261 1.165698 -0.015170
C 211.418475 0.000496 -0.000642
C 210.638435 -1.387039 0.016639
C 211.190540 -2.653142 0.032375
C 210.121923 -3.585765 0.044012
C 208.951015 -2.862136 0.035040
N 209.269709 -1.529108 0.018437
C 207.518644 -3.476803 0.042732
C 206.393019 -2.738751 0.033530
C 205.112721 -3.402148 0.041828
C 204.168270 -2.467175 0.030165
C 204.811297 -1.164706 0.013896
N 206.163029 -1.398260 0.016797
H 203.283815 2.889355 -0.036745
H 205.329005 4.663257 -0.058870
H 206.922663 0.759492 -0.010095
H 208.085803 4.559135 -0.057484
H 210.571984 4.466685 -0.056308
H 212.416182 2.662372 -0.033803
H 212.243743 -2.888365 0.035270
H 210.198552 -4.662266 0.057405
H 208.604895 -0.758499 0.008853
H 207.441755 -4.558142 0.056234
H 204.955575 -4.465692 0.055109
H 203.111377 -2.661379 0.032602
