 xtb: 6.5.1 (b24c23e)
          07272219353D

188208  0     0  0            999 V2000
   26.4167    0.0967    0.0492 C   0  0  0  0  0  0  0  0  0  0  0  0
   27.0265    1.3432   -0.0062 C   0  0  0  0  0  0  0  0  0  0  0  0
   26.3760    2.6090   -0.0179 C   0  0  0  0  0  0  0  0  0  0  0  0
   27.3381    3.5762   -0.0927 C   0  0  0  0  0  0  0  0  0  0  0  0
   28.6075    2.9315   -0.1390 C   0  0  0  0  0  0  0  0  0  0  0  0
   28.3690    1.5885   -0.0734 N   0  0  0  0  0  0  0  0  0  0  0  0
   29.8704    3.5304   -0.2132 C   0  0  0  0  0  0  0  0  0  0  0  0
   29.8976    5.0099   -0.3045 C   0  0  0  0  0  0  0  0  0  0  0  0
   30.5238    5.7708    0.6854 C   0  0  0  0  0  0  0  0  0  0  0  0
   30.5412    7.1518    0.6072 C   0  0  0  0  0  0  0  0  0  0  0  0
   29.9338    7.8008   -0.4719 C   0  0  0  0  0  0  0  0  0  0  0  0
   29.9487    9.2218   -0.5560 C   0  0  0  0  0  0  0  0  0  0  0  0
   29.9596   10.3704   -0.6255 N   0  0  0  0  0  0  0  0  0  0  0  0
   29.3096    7.0437   -1.4678 C   0  0  0  0  0  0  0  0  0  0  0  0
   29.2909    5.6634   -1.3798 C   0  0  0  0  0  0  0  0  0  0  0  0
   31.0868    2.8430   -0.2100 C   0  0  0  0  0  0  0  0  0  0  0  0
   32.3820    3.4850   -0.3473 C   0  0  0  0  0  0  0  0  0  0  0  0
   33.3034    2.5009   -0.2983 C   0  0  0  0  0  0  0  0  0  0  0  0
   31.2425    1.4951   -0.1019 N   0  0  0  0  0  0  0  0  0  0  0  0
   32.5697    1.2598   -0.1414 C   0  0  0  0  0  0  0  0  0  0  0  0
   33.2073    0.0071   -0.0366 C   0  0  0  0  0  0  0  0  0  0  0  0
   32.5715   -1.2439    0.0748 C   0  0  0  0  0  0  0  0  0  0  0  0
   33.2163   -2.5030    0.2001 C   0  0  0  0  0  0  0  0  0  0  0  0
   32.2496   -3.4682    0.2592 C   0  0  0  0  0  0  0  0  0  0  0  0
   30.9833   -2.8271    0.1630 C   0  0  0  0  0  0  0  0  0  0  0  0
   31.2297   -1.4835    0.0634 N   0  0  0  0  0  0  0  0  0  0  0  0
   29.7209   -3.4301    0.1915 C   0  0  0  0  0  0  0  0  0  0  0  0
   29.6901   -4.9094    0.2695 C   0  0  0  0  0  0  0  0  0  0  0  0
   29.0729   -5.5505    1.3465 C   0  0  0  0  0  0  0  0  0  0  0  0
   29.0445   -6.9312    1.4231 C   0  0  0  0  0  0  0  0  0  0  0  0
   29.6320   -7.7017    0.4152 C   0  0  0  0  0  0  0  0  0  0  0  0
   29.6036   -9.1230    0.4893 C   0  0  0  0  0  0  0  0  0  0  0  0
   29.5818  -10.2721    0.5484 N   0  0  0  0  0  0  0  0  0  0  0  0
   30.2485   -7.0656   -0.6664 C   0  0  0  0  0  0  0  0  0  0  0  0
   30.2780   -5.6843   -0.7336 C   0  0  0  0  0  0  0  0  0  0  0  0
   28.5031   -2.7423    0.1509 C   0  0  0  0  0  0  0  0  0  0  0  0
   27.1984   -3.3859    0.1284 C   0  0  0  0  0  0  0  0  0  0  0  0
   26.2846   -2.3956    0.0932 C   0  0  0  0  0  0  0  0  0  0  0  0
   27.0296   -1.1488    0.0806 C   0  0  0  0  0  0  0  0  0  0  0  0
   28.3623   -1.3966    0.1067 N   0  0  0  0  0  0  0  0  0  0  0  0
   25.3316    0.1066    0.0660 H   0  0  0  0  0  0  0  0  0  0  0  0
   25.3078    2.7480    0.0311 H   0  0  0  0  0  0  0  0  0  0  0  0
   27.1880    4.6435   -0.1055 H   0  0  0  0  0  0  0  0  0  0  0  0
   29.0934    0.8782   -0.0721 H   0  0  0  0  0  0  0  0  0  0  0  0
   30.9845    5.2720    1.5305 H   0  0  0  0  0  0  0  0  0  0  0  0
   31.0231    7.7357    1.3827 H   0  0  0  0  0  0  0  0  0  0  0  0
   28.8419    7.5429   -2.3084 H   0  0  0  0  0  0  0  0  0  0  0  0
   28.8168    5.0796   -2.1609 H   0  0  0  0  0  0  0  0  0  0  0  0
   32.5422    4.5430   -0.4774 H   0  0  0  0  0  0  0  0  0  0  0  0
   34.3764    2.5797   -0.3675 H   0  0  0  0  0  0  0  0  0  0  0  0
   34.2844   -2.6421    0.2437 H   0  0  0  0  0  0  0  0  0  0  0  0
   32.3978   -4.5298    0.3709 H   0  0  0  0  0  0  0  0  0  0  0  0
   30.5072   -0.7741   -0.0027 H   0  0  0  0  0  0  0  0  0  0  0  0
   28.6281   -4.9569    2.1372 H   0  0  0  0  0  0  0  0  0  0  0  0
   28.5689   -7.4208    2.2649 H   0  0  0  0  0  0  0  0  0  0  0  0
   30.7012   -7.6593   -1.4519 H   0  0  0  0  0  0  0  0  0  0  0  0
   30.7444   -5.1956   -1.5816 H   0  0  0  0  0  0  0  0  0  0  0  0
   27.0293   -4.4506    0.1258 H   0  0  0  0  0  0  0  0  0  0  0  0
   25.2087   -2.4697    0.0674 H   0  0  0  0  0  0  0  0  0  0  0  0
   65.2164   -0.0706    0.0733 C   0  0  0  0  0  0  0  0  0  0  0  0
   64.6057   -1.2791    0.3818 C   0  0  0  0  0  0  0  0  0  0  0  0
   65.2554   -2.4975    0.7265 C   0  0  0  0  0  0  0  0  0  0  0  0
   64.2921   -3.4421    0.9419 C   0  0  0  0  0  0  0  0  0  0  0  0
   63.0226   -2.8328    0.7272 C   0  0  0  0  0  0  0  0  0  0  0  0
   63.2624   -1.5285    0.4015 N   0  0  0  0  0  0  0  0  0  0  0  0
   61.7585   -3.4215    0.8472 C   0  0  0  0  0  0  0  0  0  0  0  0
   61.7284   -4.8650    1.1846 C   0  0  0  0  0  0  0  0  0  0  0  0
   61.1191   -5.3073    2.3611 C   0  0  0  0  0  0  0  0  0  0  0  0
   61.0931   -6.6536    2.6781 C   0  0  0  0  0  0  0  0  0  0  0  0
   61.6749   -7.5882    1.8163 C   0  0  0  0  0  0  0  0  0  0  0  0
   61.6473   -8.9750    2.1364 C   0  0  0  0  0  0  0  0  0  0  0  0
   61.6259  -10.0961    2.3955 N   0  0  0  0  0  0  0  0  0  0  0  0
   62.2843   -7.1509    0.6365 C   0  0  0  0  0  0  0  0  0  0  0  0
   62.3119   -5.8026    0.3290 C   0  0  0  0  0  0  0  0  0  0  0  0
   60.5426   -2.7570    0.6691 C   0  0  0  0  0  0  0  0  0  0  0  0
   59.2453   -3.4044    0.7487 C   0  0  0  0  0  0  0  0  0  0  0  0
   58.3251   -2.4457    0.5167 C   0  0  0  0  0  0  0  0  0  0  0  0
   60.3888   -1.4368    0.3747 N   0  0  0  0  0  0  0  0  0  0  0  0
   59.0615   -1.2181    0.2843 C   0  0  0  0  0  0  0  0  0  0  0  0
   58.4250    0.0078    0.0021 C   0  0  0  0  0  0  0  0  0  0  0  0
   59.0618    1.2311   -0.2803 C   0  0  0  0  0  0  0  0  0  0  0  0
   58.4183    2.4702   -0.5396 C   0  0  0  0  0  0  0  0  0  0  0  0
   59.3860    3.4091   -0.7666 C   0  0  0  0  0  0  0  0  0  0  0  0
   60.6519    2.7684   -0.6619 C   0  0  0  0  0  0  0  0  0  0  0  0
   60.4038    1.4556   -0.3597 N   0  0  0  0  0  0  0  0  0  0  0  0
   61.9155    3.3525   -0.8032 C   0  0  0  0  0  0  0  0  0  0  0  0
   61.9524    4.7928   -1.1495 C   0  0  0  0  0  0  0  0  0  0  0  0
   62.5675    5.7092   -0.2927 C   0  0  0  0  0  0  0  0  0  0  0  0
   62.6074    7.0547   -0.6103 C   0  0  0  0  0  0  0  0  0  0  0  0
   62.0337    7.5113   -1.8008 C   0  0  0  0  0  0  0  0  0  0  0  0
   62.0768    8.8950   -2.1322 C   0  0  0  0  0  0  0  0  0  0  0  0
   62.1123   10.0130   -2.4019 N   0  0  0  0  0  0  0  0  0  0  0  0
   61.4182    6.5985   -2.6625 C   0  0  0  0  0  0  0  0  0  0  0  0
   61.3772    5.2549   -2.3357 C   0  0  0  0  0  0  0  0  0  0  0  0
   63.1322    2.6808   -0.6401 C   0  0  0  0  0  0  0  0  0  0  0  0
   64.4376    3.2895   -0.8470 C   0  0  0  0  0  0  0  0  0  0  0  0
   65.3505    2.3296   -0.5978 C   0  0  0  0  0  0  0  0  0  0  0  0
   64.6044    1.1327   -0.2510 C   0  0  0  0  0  0  0  0  0  0  0  0
   63.2718    1.3793   -0.2954 N   0  0  0  0  0  0  0  0  0  0  0  0
   66.3016   -0.0777    0.0860 H   0  0  0  0  0  0  0  0  0  0  0  0
   66.3240   -2.6204    0.8020 H   0  0  0  0  0  0  0  0  0  0  0  0
   64.4413   -4.4691    1.2334 H   0  0  0  0  0  0  0  0  0  0  0  0
   62.5384   -0.8451    0.2063 H   0  0  0  0  0  0  0  0  0  0  0  0
   60.6777   -4.5845    3.0379 H   0  0  0  0  0  0  0  0  0  0  0  0
   60.6233   -6.9886    3.5954 H   0  0  0  0  0  0  0  0  0  0  0  0
   62.7326   -7.8728   -0.0361 H   0  0  0  0  0  0  0  0  0  0  0  0
   62.7738   -5.4691   -0.5935 H   0  0  0  0  0  0  0  0  0  0  0  0
   59.0825   -4.4522    0.9420 H   0  0  0  0  0  0  0  0  0  0  0  0
   57.2511   -2.5367    0.4902 H   0  0  0  0  0  0  0  0  0  0  0  0
   57.3502    2.6161   -0.5431 H   0  0  0  0  0  0  0  0  0  0  0  0
   59.2389    4.4558   -0.9771 H   0  0  0  0  0  0  0  0  0  0  0  0
   61.1257    0.7588   -0.2077 H   0  0  0  0  0  0  0  0  0  0  0  0
   63.0023    5.3612    0.6374 H   0  0  0  0  0  0  0  0  0  0  0  0
   63.0819    7.7598    0.0621 H   0  0  0  0  0  0  0  0  0  0  0  0
   60.9761    6.9479   -3.5882 H   0  0  0  0  0  0  0  0  0  0  0  0
   60.9123    4.5489   -3.0146 H   0  0  0  0  0  0  0  0  0  0  0  0
   64.6075    4.3084   -1.1556 H   0  0  0  0  0  0  0  0  0  0  0  0
   66.4263    2.3918   -0.6450 H   0  0  0  0  0  0  0  0  0  0  0  0
   38.4103   -0.0583   -0.0381 C   0  0  0  0  0  0  0  0  0  0  0  0
   37.1820   -0.0442   -0.0445 C   0  0  0  0  0  0  0  0  0  0  0  0
   35.8374   -0.0274   -0.0448 C   0  0  0  0  0  0  0  0  0  0  0  0
   34.6136   -0.0105   -0.0428 C   0  0  0  0  0  0  0  0  0  0  0  0
   39.7547   -0.0673   -0.0378 C   0  0  0  0  0  0  0  0  0  0  0  0
   40.9788   -0.0742   -0.0332 C   0  0  0  0  0  0  0  0  0  0  0  0
   54.4502    0.0284   -0.0058 C   0  0  0  0  0  0  0  0  0  0  0  0
   53.2218    0.0229   -0.0069 C   0  0  0  0  0  0  0  0  0  0  0  0
   51.8774    0.0119   -0.0090 C   0  0  0  0  0  0  0  0  0  0  0  0
   50.6533    0.0003   -0.0141 C   0  0  0  0  0  0  0  0  0  0  0  0
   55.7948    0.0288   -0.0044 C   0  0  0  0  0  0  0  0  0  0  0  0
   57.0188    0.0221   -0.0031 C   0  0  0  0  0  0  0  0  0  0  0  0
   42.3842   -0.0699   -0.0352 C   0  0  0  0  0  0  0  0  0  0  0  0
   43.0049    0.8466   -0.9057 C   0  0  0  0  0  0  0  0  0  0  0  0
   42.3503    1.7736   -1.7573 C   0  0  0  0  0  0  0  0  0  0  0  0
   43.3100    2.4517   -2.4577 C   0  0  0  0  0  0  0  0  0  0  0  0
   44.5795    1.9512   -2.0588 C   0  0  0  0  0  0  0  0  0  0  0  0
   44.3446    0.9922   -1.1105 N   0  0  0  0  0  0  0  0  0  0  0  0
   45.8358    2.3604   -2.5229 C   0  0  0  0  0  0  0  0  0  0  0  0
   45.8397    3.3832   -3.5968 C   0  0  0  0  0  0  0  0  0  0  0  0
   45.2380    3.1166   -4.8290 C   0  0  0  0  0  0  0  0  0  0  0  0
   45.2441    4.0646   -5.8364 C   0  0  0  0  0  0  0  0  0  0  0  0
   45.8499    5.3068   -5.6259 C   0  0  0  0  0  0  0  0  0  0  0  0
   45.8558    6.2856   -6.6595 C   0  0  0  0  0  0  0  0  0  0  0  0
   45.8617    7.0748   -7.4968 N   0  0  0  0  0  0  0  0  0  0  0  0
   46.4496    5.5803   -4.3929 C   0  0  0  0  0  0  0  0  0  0  0  0
   46.4450    4.6253   -3.3922 C   0  0  0  0  0  0  0  0  0  0  0  0
   47.0659    1.8853   -2.0644 C   0  0  0  0  0  0  0  0  0  0  0  0
   48.3473    2.2942   -2.6122 C   0  0  0  0  0  0  0  0  0  0  0  0
   49.2913    1.6348   -1.9096 C   0  0  0  0  0  0  0  0  0  0  0  0
   47.2520    0.9780   -1.0668 N   0  0  0  0  0  0  0  0  0  0  0  0
   48.5851    0.8163   -0.9437 C   0  0  0  0  0  0  0  0  0  0  0  0
   49.2482   -0.0156   -0.0195 C   0  0  0  0  0  0  0  0  0  0  0  0
   48.6272   -0.8752    0.9070 C   0  0  0  0  0  0  0  0  0  0  0  0
   49.2811   -1.6960    1.8621 C   0  0  0  0  0  0  0  0  0  0  0  0
   48.3214   -2.3840    2.5528 C   0  0  0  0  0  0  0  0  0  0  0  0
   47.0527   -2.0095    2.0316 C   0  0  0  0  0  0  0  0  0  0  0  0
   47.2881   -1.0877    1.0472 N   0  0  0  0  0  0  0  0  0  0  0  0
   45.7964   -2.4704    2.4445 C   0  0  0  0  0  0  0  0  0  0  0  0
   45.7901   -3.5029    3.5091 C   0  0  0  0  0  0  0  0  0  0  0  0
   46.4056   -4.7397    3.3023 C   0  0  0  0  0  0  0  0  0  0  0  0
   46.3980   -5.7053    4.2929 C   0  0  0  0  0  0  0  0  0  0  0  0
   45.7766   -5.4473    5.5183 C   0  0  0  0  0  0  0  0  0  0  0  0
   45.7701   -6.4375    6.5411 C   0  0  0  0  0  0  0  0  0  0  0  0
   45.7645   -7.2376    7.3680 N   0  0  0  0  0  0  0  0  0  0  0  0
   45.1619   -4.2099    5.7317 C   0  0  0  0  0  0  0  0  0  0  0  0
   45.1682   -3.2513    4.7345 C   0  0  0  0  0  0  0  0  0  0  0  0
   44.5670   -2.0412    1.9404 C   0  0  0  0  0  0  0  0  0  0  0  0
   43.2873   -2.5923    2.3501 C   0  0  0  0  0  0  0  0  0  0  0  0
   42.3432   -1.9223    1.6577 C   0  0  0  0  0  0  0  0  0  0  0  0
   43.0477   -0.9714    0.8206 C   0  0  0  0  0  0  0  0  0  0  0  0
   44.3804   -1.0739    1.0013 N   0  0  0  0  0  0  0  0  0  0  0  0
   41.2816    1.9019   -1.8171 H   0  0  0  0  0  0  0  0  0  0  0  0
   43.1543    3.2365   -3.1796 H   0  0  0  0  0  0  0  0  0  0  0  0
   45.0687    0.4691   -0.6297 H   0  0  0  0  0  0  0  0  0  0  0  0
   44.7788    2.1496   -5.0011 H   0  0  0  0  0  0  0  0  0  0  0  0
   44.7814    3.8474   -6.7920 H   0  0  0  0  0  0  0  0  0  0  0  0
   46.9166    6.5436   -4.2249 H   0  0  0  0  0  0  0  0  0  0  0  0
   46.9007    4.8454   -2.4335 H   0  0  0  0  0  0  0  0  0  0  0  0
   48.4842    2.9806   -3.4319 H   0  0  0  0  0  0  0  0  0  0  0  0
   50.3630    1.6730   -2.0207 H   0  0  0  0  0  0  0  0  0  0  0  0
   50.3491   -1.7433    2.0003 H   0  0  0  0  0  0  0  0  0  0  0  0
   48.4768   -3.0820    3.3591 H   0  0  0  0  0  0  0  0  0  0  0  0
   46.5642   -0.6264    0.5064 H   0  0  0  0  0  0  0  0  0  0  0  0
   46.8769   -4.9491    2.3486 H   0  0  0  0  0  0  0  0  0  0  0  0
   46.8718   -6.6649    4.1223 H   0  0  0  0  0  0  0  0  0  0  0  0
   44.6822   -4.0051    6.6816 H   0  0  0  0  0  0  0  0  0  0  0  0
   44.7008   -2.2886    4.9078 H   0  0  0  0  0  0  0  0  0  0  0  0
   43.1518   -3.3925    3.0594 H   0  0  0  0  0  0  0  0  0  0  0  0
   41.2724   -2.0453    1.6860 H   0  0  0  0  0  0  0  0  0  0  0  0
  1  2  4  0  0  0  0
  2  3  4  0  0  0  0
  3  4  2  0  0  0  0
  4  5  4  0  0  0  0
  2  6  4  0  0  0  0
  5  6  4  0  0  0  0
  5  7  4  0  0  0  0
  7  8  1  0  0  0  0
  8  9  4  0  0  0  0
  9 10  4  0  0  0  0
 10 11  4  0  0  0  0
 11 12  1  0  0  0  0
 12 13  3  0  0  0  0
 11 14  4  0  0  0  0
  8 15  4  0  0  0  0
 14 15  4  0  0  0  0
  7 16  4  0  0  0  0
 16 17  1  0  0  0  0
 17 18  2  0  0  0  0
 16 19  4  0  0  0  0
 18 20  1  0  0  0  0
 19 20  4  0  0  0  0
 20 21  4  0  0  0  0
 21 22  4  0  0  0  0
 22 23  4  0  0  0  0
 23 24  2  0  0  0  0
 24 25  4  0  0  0  0
 22 26  4  0  0  0  0
 25 26  4  0  0  0  0
 25 27  4  0  0  0  0
 27 28  1  0  0  0  0
 28 29  4  0  0  0  0
 29 30  4  0  0  0  0
 30 31  4  0  0  0  0
 31 32  1  0  0  0  0
 32 33  3  0  0  0  0
 31 34  4  0  0  0  0
 28 35  4  0  0  0  0
 34 35  4  0  0  0  0
 27 36  4  0  0  0  0
 36 37  1  0  0  0  0
 37 38  2  0  0  0  0
  1 39  4  0  0  0  0
 38 39  1  0  0  0  0
 36 40  4  0  0  0  0
 39 40  4  0  0  0  0
  1 41  1  0  0  0  0
  3 42  1  0  0  0  0
  4 43  1  0  0  0  0
  6 44  1  0  0  0  0
  9 45  1  0  0  0  0
 10 46  1  0  0  0  0
 14 47  1  0  0  0  0
 15 48  1  0  0  0  0
 17 49  1  0  0  0  0
 18 50  1  0  0  0  0
 23 51  1  0  0  0  0
 24 52  1  0  0  0  0
 26 53  1  0  0  0  0
 29 54  1  0  0  0  0
 30 55  1  0  0  0  0
 34 56  1  0  0  0  0
 35 57  1  0  0  0  0
 37 58  1  0  0  0  0
 38 59  1  0  0  0  0
 60 61  4  0  0  0  0
 61 62  4  0  0  0  0
 62 63  2  0  0  0  0
 63 64  4  0  0  0  0
 61 65  4  0  0  0  0
 64 65  4  0  0  0  0
 64 66  4  0  0  0  0
 66 67  1  0  0  0  0
 67 68  4  0  0  0  0
 68 69  4  0  0  0  0
 69 70  4  0  0  0  0
 70 71  1  0  0  0  0
 71 72  3  0  0  0  0
 70 73  4  0  0  0  0
 67 74  4  0  0  0  0
 73 74  4  0  0  0  0
 66 75  4  0  0  0  0
 75 76  1  0  0  0  0
 76 77  2  0  0  0  0
 75 78  4  0  0  0  0
 77 79  1  0  0  0  0
 78 79  4  0  0  0  0
 79 80  4  0  0  0  0
 80 81  4  0  0  0  0
 81 82  4  0  0  0  0
 82 83  2  0  0  0  0
 83 84  4  0  0  0  0
 81 85  4  0  0  0  0
 84 85  4  0  0  0  0
 84 86  4  0  0  0  0
 86 87  1  0  0  0  0
 87 88  4  0  0  0  0
 88 89  4  0  0  0  0
 89 90  4  0  0  0  0
 90 91  1  0  0  0  0
 91 92  3  0  0  0  0
 90 93  4  0  0  0  0
 87 94  4  0  0  0  0
 93 94  4  0  0  0  0
 86 95  4  0  0  0  0
 95 96  1  0  0  0  0
 96 97  2  0  0  0  0
 60 98  4  0  0  0  0
 97 98  1  0  0  0  0
 95 99  4  0  0  0  0
 98 99  4  0  0  0  0
 60100  1  0  0  0  0
 62101  1  0  0  0  0
 63102  1  0  0  0  0
 65103  1  0  0  0  0
 68104  1  0  0  0  0
 69105  1  0  0  0  0
 73106  1  0  0  0  0
 74107  1  0  0  0  0
 76108  1  0  0  0  0
 77109  1  0  0  0  0
 82110  1  0  0  0  0
 83111  1  0  0  0  0
 85112  1  0  0  0  0
 88113  1  0  0  0  0
 89114  1  0  0  0  0
 93115  1  0  0  0  0
 94116  1  0  0  0  0
 96117  1  0  0  0  0
 97118  1  0  0  0  0
119120  3  0  0  0  0
120121  4  0  0  0  0
 21122  4  0  0  0  0
121122  3  0  0  0  0
119123  4  0  0  0  0
123124  3  0  0  0  0
125126  3  0  0  0  0
126127  4  0  0  0  0
127128  3  0  0  0  0
125129  4  0  0  0  0
 80130  4  0  0  0  0
129130  3  0  0  0  0
124131  4  0  0  0  0
131132  4  0  0  0  0
132133  4  0  0  0  0
133134  2  0  0  0  0
134135  4  0  0  0  0
132136  4  0  0  0  0
135136  4  0  0  0  0
135137  4  0  0  0  0
137138  1  0  0  0  0
138139  4  0  0  0  0
139140  4  0  0  0  0
140141  4  0  0  0  0
141142  1  0  0  0  0
142143  3  0  0  0  0
141144  4  0  0  0  0
138145  4  0  0  0  0
144145  4  0  0  0  0
137146  4  0  0  0  0
146147  1  0  0  0  0
147148  2  0  0  0  0
146149  4  0  0  0  0
148150  1  0  0  0  0
149150  4  0  0  0  0
128151  4  0  0  0  0
150151  4  0  0  0  0
151152  4  0  0  0  0
152153  4  0  0  0  0
153154  2  0  0  0  0
154155  4  0  0  0  0
152156  4  0  0  0  0
155156  4  0  0  0  0
155157  4  0  0  0  0
157158  1  0  0  0  0
158159  4  0  0  0  0
159160  4  0  0  0  0
160161  4  0  0  0  0
161162  1  0  0  0  0
162163  3  0  0  0  0
161164  4  0  0  0  0
158165  4  0  0  0  0
164165  4  0  0  0  0
157166  4  0  0  0  0
166167  1  0  0  0  0
167168  2  0  0  0  0
131169  4  0  0  0  0
168169  1  0  0  0  0
166170  4  0  0  0  0
169170  4  0  0  0  0
133171  1  0  0  0  0
134172  1  0  0  0  0
136173  1  0  0  0  0
139174  1  0  0  0  0
140175  1  0  0  0  0
144176  1  0  0  0  0
145177  1  0  0  0  0
147178  1  0  0  0  0
148179  1  0  0  0  0
153180  1  0  0  0  0
154181  1  0  0  0  0
156182  1  0  0  0  0
159183  1  0  0  0  0
160184  1  0  0  0  0
164185  1  0  0  0  0
165186  1  0  0  0  0
167187  1  0  0  0  0
168188  1  0  0  0  0
M  END
