 xtb: 6.5.1 (b24c23e)
          07292222343D

274313  0     0  0            999 V2000
   54.2119    0.0598   -0.0569 Co  0  0  0  0  0  0  0  0  0  0  0  0
   50.8502    0.1752   -0.1830 C   0  0  0  0  0  0  0  0  0  0  0  0
   51.4910    0.8205    0.8542 C   0  0  0  0  0  0  0  0  0  0  0  0
   50.8204    1.4999    1.9198 C   0  0  0  0  0  0  0  0  0  0  0  0
   51.7735    2.1627    2.6185 C   0  0  0  0  0  0  0  0  0  0  0  0
   53.0226    1.9056    1.9636 C   0  0  0  0  0  0  0  0  0  0  0  0
   52.8466    1.0201    0.9317 N   0  0  0  0  0  0  0  0  0  0  0  0
   54.2097    2.5761    2.2402 C   0  0  0  0  0  0  0  0  0  0  0  0
   54.2120    3.6649    3.2385 C   0  0  0  0  0  0  0  0  0  0  0  0
   53.3375    4.7496    3.1188 C   0  0  0  0  0  0  0  0  0  0  0  0
   53.3479    5.7728    4.0469 C   0  0  0  0  0  0  0  0  0  0  0  0
   54.2319    5.7401    5.1329 C   0  0  0  0  0  0  0  0  0  0  0  0
   54.1662    6.7603    6.0691 N   0  0  0  0  0  0  0  0  0  0  0  0
   55.3249    7.0529    6.9020 C   0  0  0  0  0  0  0  0  0  0  0  0
   55.0982    4.6508    5.2663 C   0  0  0  0  0  0  0  0  0  0  0  0
   55.0898    3.6365    4.3247 C   0  0  0  0  0  0  0  0  0  0  0  0
   55.3915    2.2561    1.5847 C   0  0  0  0  0  0  0  0  0  0  0  0
   56.6250    2.9654    1.7441 C   0  0  0  0  0  0  0  0  0  0  0  0
   57.5767    2.2474    1.0982 C   0  0  0  0  0  0  0  0  0  0  0  0
   55.5770    1.1528    0.7839 N   0  0  0  0  0  0  0  0  0  0  0  0
   56.9208    1.1073    0.5417 C   0  0  0  0  0  0  0  0  0  0  0  0
   57.5957    0.0156   -0.0135 C   0  0  0  0  0  0  0  0  0  0  0  0
   56.9080   -1.0738   -0.5588 C   0  0  0  0  0  0  0  0  0  0  0  0
   57.5463   -2.2508   -1.0550 C   0  0  0  0  0  0  0  0  0  0  0  0
   56.5872   -2.9789   -1.6784 C   0  0  0  0  0  0  0  0  0  0  0  0
   55.3699   -2.2315   -1.5786 C   0  0  0  0  0  0  0  0  0  0  0  0
   55.5682   -1.0990   -0.8212 N   0  0  0  0  0  0  0  0  0  0  0  0
   54.2037   -2.5310   -2.2696 C   0  0  0  0  0  0  0  0  0  0  0  0
   54.1919   -3.6636   -3.2177 C   0  0  0  0  0  0  0  0  0  0  0  0
   55.1156   -3.7347   -4.2629 C   0  0  0  0  0  0  0  0  0  0  0  0
   55.1050   -4.7902   -5.1582 C   0  0  0  0  0  0  0  0  0  0  0  0
   54.1709   -5.8210   -5.0179 C   0  0  0  0  0  0  0  0  0  0  0  0
   54.0856   -6.8775   -5.9113 N   0  0  0  0  0  0  0  0  0  0  0  0
   55.2603   -7.2742   -6.6759 C   0  0  0  0  0  0  0  0  0  0  0  0
   53.2392   -5.7526   -3.9742 C   0  0  0  0  0  0  0  0  0  0  0  0
   53.2489   -4.6889   -3.0929 C   0  0  0  0  0  0  0  0  0  0  0  0
   53.0443   -1.7810   -2.0950 C   0  0  0  0  0  0  0  0  0  0  0  0
   51.8326   -1.9760   -2.8355 C   0  0  0  0  0  0  0  0  0  0  0  0
   50.8850   -1.2061   -2.2479 C   0  0  0  0  0  0  0  0  0  0  0  0
   51.5212   -0.5352   -1.1559 C   0  0  0  0  0  0  0  0  0  0  0  0
   52.8593   -0.8409   -1.1156 N   0  0  0  0  0  0  0  0  0  0  0  0
   49.7683    0.2182   -0.2284 H   0  0  0  0  0  0  0  0  0  0  0  0
   49.7566    1.4647    2.0939 H   0  0  0  0  0  0  0  0  0  0  0  0
   51.6529    2.7747    3.4977 H   0  0  0  0  0  0  0  0  0  0  0  0
   52.6626    4.8011    2.2714 H   0  0  0  0  0  0  0  0  0  0  0  0
   52.6703    6.6129    3.9362 H   0  0  0  0  0  0  0  0  0  0  0  0
   53.7306    7.5992    5.7052 H   0  0  0  0  0  0  0  0  0  0  0  0
   56.2275    7.2021    6.2983 H   0  0  0  0  0  0  0  0  0  0  0  0
   55.4950    6.2377    7.6064 H   0  0  0  0  0  0  0  0  0  0  0  0
   55.1137    7.9619    7.4652 H   0  0  0  0  0  0  0  0  0  0  0  0
   55.7792    4.5874    6.1062 H   0  0  0  0  0  0  0  0  0  0  0  0
   55.7595    2.7919    4.4461 H   0  0  0  0  0  0  0  0  0  0  0  0
   56.7381    3.8942    2.2795 H   0  0  0  0  0  0  0  0  0  0  0  0
   58.6313    2.4525    1.0076 H   0  0  0  0  0  0  0  0  0  0  0  0
   58.5942   -2.4757   -0.9365 H   0  0  0  0  0  0  0  0  0  0  0  0
   56.6864   -3.9354   -2.1655 H   0  0  0  0  0  0  0  0  0  0  0  0
   55.8372   -2.9352   -4.3918 H   0  0  0  0  0  0  0  0  0  0  0  0
   55.8239   -4.8040   -5.9683 H   0  0  0  0  0  0  0  0  0  0  0  0
   53.5851   -7.6722   -5.5323 H   0  0  0  0  0  0  0  0  0  0  0  0
   55.5099   -6.5029   -7.4057 H   0  0  0  0  0  0  0  0  0  0  0  0
   55.0201   -8.1940   -7.2092 H   0  0  0  0  0  0  0  0  0  0  0  0
   56.1248   -7.4479   -6.0249 H   0  0  0  0  0  0  0  0  0  0  0  0
   52.5078   -6.5457   -3.8598 H   0  0  0  0  0  0  0  0  0  0  0  0
   52.5338   -4.6605   -2.2781 H   0  0  0  0  0  0  0  0  0  0  0  0
   51.7320   -2.6197   -3.6944 H   0  0  0  0  0  0  0  0  0  0  0  0
   49.8445   -1.0976   -2.5100 H   0  0  0  0  0  0  0  0  0  0  0  0
   94.3312    0.0341   -0.0265 Co  0  0  0  0  0  0  0  0  0  0  0  0
   97.6930    0.1298   -0.1730 C   0  0  0  0  0  0  0  0  0  0  0  0
   97.0508   -1.0229   -0.5748 C   0  0  0  0  0  0  0  0  0  0  0  0
   97.7200   -2.2104   -1.0095 C   0  0  0  0  0  0  0  0  0  0  0  0
   96.7658   -3.0343   -1.5060 C   0  0  0  0  0  0  0  0  0  0  0  0
   95.5173   -2.3388   -1.3934 C   0  0  0  0  0  0  0  0  0  0  0  0
   95.6948   -1.1407   -0.7511 N   0  0  0  0  0  0  0  0  0  0  0  0
   94.3283   -2.7545   -1.9842 C   0  0  0  0  0  0  0  0  0  0  0  0
   94.3256   -3.9622   -2.8349 C   0  0  0  0  0  0  0  0  0  0  0  0
   95.1944   -4.0723   -3.9252 C   0  0  0  0  0  0  0  0  0  0  0  0
   95.1832   -5.1964   -4.7282 C   0  0  0  0  0  0  0  0  0  0  0  0
   94.3043   -6.2536   -4.4609 C   0  0  0  0  0  0  0  0  0  0  0  0
   94.3683   -7.3843   -5.2606 N   0  0  0  0  0  0  0  0  0  0  0  0
   93.2109   -8.2628   -5.3633 C   0  0  0  0  0  0  0  0  0  0  0  0
   93.4447   -6.1564   -3.3625 C   0  0  0  0  0  0  0  0  0  0  0  0
   93.4537   -5.0210   -2.5710 C   0  0  0  0  0  0  0  0  0  0  0  0
   93.1457   -2.0489   -1.8056 C   0  0  0  0  0  0  0  0  0  0  0  0
   91.9084   -2.3627   -2.4542 C   0  0  0  0  0  0  0  0  0  0  0  0
   90.9578   -1.5812   -1.8848 C   0  0  0  0  0  0  0  0  0  0  0  0
   92.9630   -1.0294   -0.8998 N   0  0  0  0  0  0  0  0  0  0  0  0
   91.6183   -0.7885   -0.8974 C   0  0  0  0  0  0  0  0  0  0  0  0
   90.9477   -0.0094    0.0509 C   0  0  0  0  0  0  0  0  0  0  0  0
   91.6397    0.7671    0.9863 C   0  0  0  0  0  0  0  0  0  0  0  0
   91.0062    1.5131    2.0261 C   0  0  0  0  0  0  0  0  0  0  0  0
   91.9663    2.2891    2.5872 C   0  0  0  0  0  0  0  0  0  0  0  0
   93.1795    2.0278    1.8727 C   0  0  0  0  0  0  0  0  0  0  0  0
   92.9783    1.0336    0.9418 N   0  0  0  0  0  0  0  0  0  0  0  0
   94.3443    2.7719    2.0017 C   0  0  0  0  0  0  0  0  0  0  0  0
   94.3563    3.9531    2.8887 C   0  0  0  0  0  0  0  0  0  0  0  0
   93.4288    4.9842    2.7225 C   0  0  0  0  0  0  0  0  0  0  0  0
   93.4395    6.0973    3.5450 C   0  0  0  0  0  0  0  0  0  0  0  0
   94.3775    6.1993    4.5767 C   0  0  0  0  0  0  0  0  0  0  0  0
   94.4637    7.3115    5.3999 N   0  0  0  0  0  0  0  0  0  0  0  0
   93.2884    8.1447    5.6150 C   0  0  0  0  0  0  0  0  0  0  0  0
   95.3124    5.1701    4.7457 C   0  0  0  0  0  0  0  0  0  0  0  0
   95.3025    4.0687    3.9119 C   0  0  0  0  0  0  0  0  0  0  0  0
   95.5017    2.4337    1.3069 C   0  0  0  0  0  0  0  0  0  0  0  0
   96.7137    3.1988    1.3278 C   0  0  0  0  0  0  0  0  0  0  0  0
   97.6605    2.4517    0.7105 C   0  0  0  0  0  0  0  0  0  0  0  0
   97.0232    1.2369    0.3038 C   0  0  0  0  0  0  0  0  0  0  0  0
   95.6856    1.2671    0.6120 N   0  0  0  0  0  0  0  0  0  0  0  0
   98.7750    0.1636   -0.2259 H   0  0  0  0  0  0  0  0  0  0  0  0
   98.7838   -2.3737   -0.9390 H   0  0  0  0  0  0  0  0  0  0  0  0
   96.8852   -4.0243   -1.9155 H   0  0  0  0  0  0  0  0  0  0  0  0
   95.8653   -3.2529   -4.1589 H   0  0  0  0  0  0  0  0  0  0  0  0
   95.8561   -5.2640   -5.5766 H   0  0  0  0  0  0  0  0  0  0  0  0
   94.7968   -7.2039   -6.1605 H   0  0  0  0  0  0  0  0  0  0  0  0
   92.3051   -7.7060   -5.6293 H   0  0  0  0  0  0  0  0  0  0  0  0
   93.0489   -8.7805   -4.4170 H   0  0  0  0  0  0  0  0  0  0  0  0
   93.4182   -9.0039   -6.1352 H   0  0  0  0  0  0  0  0  0  0  0  0
   92.7685   -6.9664   -3.1181 H   0  0  0  0  0  0  0  0  0  0  0  0
   92.7892   -4.9631   -1.7157 H   0  0  0  0  0  0  0  0  0  0  0  0
   91.7920   -3.0865   -3.2445 H   0  0  0  0  0  0  0  0  0  0  0  0
   89.9013   -1.5415   -2.0964 H   0  0  0  0  0  0  0  0  0  0  0  0
   89.9605    1.4441    2.2798 H   0  0  0  0  0  0  0  0  0  0  0  0
   91.8705    2.9793    3.4097 H   0  0  0  0  0  0  0  0  0  0  0  0
   92.7041    4.9244    1.9177 H   0  0  0  0  0  0  0  0  0  0  0  0
   92.7176    6.8869    3.3759 H   0  0  0  0  0  0  0  0  0  0  0  0
   94.9675    7.1255    6.2587 H   0  0  0  0  0  0  0  0  0  0  0  0
   93.0329    8.6756    4.6971 H   0  0  0  0  0  0  0  0  0  0  0  0
   93.5313    8.8770    6.3851 H   0  0  0  0  0  0  0  0  0  0  0  0
   92.4268    7.5499    5.9393 H   0  0  0  0  0  0  0  0  0  0  0  0
   96.0466    5.2422    5.5412 H   0  0  0  0  0  0  0  0  0  0  0  0
   96.0203    3.2708    4.0683 H   0  0  0  0  0  0  0  0  0  0  0  0
   96.8151    4.1811    1.7604 H   0  0  0  0  0  0  0  0  0  0  0  0
   98.7011    2.6819    0.5446 H   0  0  0  0  0  0  0  0  0  0  0  0
   60.2199    0.0037   -0.0142 C   0  0  0  0  0  0  0  0  0  0  0  0
   58.9966    0.0065   -0.0119 C   0  0  0  0  0  0  0  0  0  0  0  0
   61.5670    0.0022   -0.0172 C   0  0  0  0  0  0  0  0  0  0  0  0
   62.7904    0.0013   -0.0244 C   0  0  0  0  0  0  0  0  0  0  0  0
   73.6016    0.0142   -0.0169 C   0  0  0  0  0  0  0  0  0  0  0  0
   72.3781    0.0159   -0.0277 C   0  0  0  0  0  0  0  0  0  0  0  0
   74.9484    0.0142   -0.0092 C   0  0  0  0  0  0  0  0  0  0  0  0
   76.1721    0.0140   -0.0065 C   0  0  0  0  0  0  0  0  0  0  0  0
   86.9766   -0.0034    0.0743 C   0  0  0  0  0  0  0  0  0  0  0  0
   85.7532    0.0013    0.0650 C   0  0  0  0  0  0  0  0  0  0  0  0
   88.3237   -0.0104    0.0750 C   0  0  0  0  0  0  0  0  0  0  0  0
   89.5470   -0.0122    0.0681 C   0  0  0  0  0  0  0  0  0  0  0  0
   67.5845    0.0222   -0.0372 Co  0  0  0  0  0  0  0  0  0  0  0  0
   64.1910    0.0046   -0.0253 C   0  0  0  0  0  0  0  0  0  0  0  0
   64.8745   -1.1199   -0.4996 C   0  0  0  0  0  0  0  0  0  0  0  0
   64.2182   -2.2911   -0.9853 C   0  0  0  0  0  0  0  0  0  0  0  0
   65.1729   -3.0551   -1.5707 C   0  0  0  0  0  0  0  0  0  0  0  0
   66.4105   -2.3503   -1.4298 C   0  0  0  0  0  0  0  0  0  0  0  0
   66.2197   -1.1831   -0.7275 N   0  0  0  0  0  0  0  0  0  0  0  0
   67.5852   -2.6997   -2.0842 C   0  0  0  0  0  0  0  0  0  0  0  0
   67.5827   -3.8737   -2.9869 C   0  0  0  0  0  0  0  0  0  0  0  0
   67.3620   -5.1598   -2.4882 C   0  0  0  0  0  0  0  0  0  0  0  0
   67.3610   -6.2531   -3.3338 C   0  0  0  0  0  0  0  0  0  0  0  0
   67.5666   -6.0894   -4.7093 C   0  0  0  0  0  0  0  0  0  0  0  0
   67.6020   -7.2202   -5.5112 N   0  0  0  0  0  0  0  0  0  0  0  0
   67.3202   -7.1040   -6.9357 C   0  0  0  0  0  0  0  0  0  0  0  0
   67.7941   -4.8045   -5.2111 C   0  0  0  0  0  0  0  0  0  0  0  0
   67.8035   -3.7159   -4.3557 C   0  0  0  0  0  0  0  0  0  0  0  0
   68.7620   -1.9825   -1.9183 C   0  0  0  0  0  0  0  0  0  0  0  0
   70.0060   -2.3341   -2.5338 C   0  0  0  0  0  0  0  0  0  0  0  0
   70.9625   -1.5767   -1.9439 C   0  0  0  0  0  0  0  0  0  0  0  0
   68.9520   -0.9820   -0.9922 N   0  0  0  0  0  0  0  0  0  0  0  0
   70.2999   -0.7677   -0.9714 C   0  0  0  0  0  0  0  0  0  0  0  0
   70.9777    0.0255   -0.0395 C   0  0  0  0  0  0  0  0  0  0  0  0
   70.2964    0.8303    0.8799 C   0  0  0  0  0  0  0  0  0  0  0  0
   70.9485    1.6136    1.8795 C   0  0  0  0  0  0  0  0  0  0  0  0
   69.9909    2.3834    2.4536 C   0  0  0  0  0  0  0  0  0  0  0  0
   68.7614    2.0755    1.7892 C   0  0  0  0  0  0  0  0  0  0  0  0
   68.9528    1.0712    0.8689 N   0  0  0  0  0  0  0  0  0  0  0  0
   67.5771    2.7802    1.9659 C   0  0  0  0  0  0  0  0  0  0  0  0
   67.5687    3.9652    2.8471 C   0  0  0  0  0  0  0  0  0  0  0  0
   66.6826    4.0464    3.9240 C   0  0  0  0  0  0  0  0  0  0  0  0
   66.6736    5.1466    4.7632 C   0  0  0  0  0  0  0  0  0  0  0  0
   67.5566    6.2075    4.5394 C   0  0  0  0  0  0  0  0  0  0  0  0
   67.5529    7.3568    5.3132 N   0  0  0  0  0  0  0  0  0  0  0  0
   67.0398    7.3122    6.6756 C   0  0  0  0  0  0  0  0  0  0  0  0
   68.4362    6.1385    3.4513 C   0  0  0  0  0  0  0  0  0  0  0  0
   68.4462    5.0313    2.6253 C   0  0  0  0  0  0  0  0  0  0  0  0
   66.3971    2.3939    1.3414 C   0  0  0  0  0  0  0  0  0  0  0  0
   65.1645    3.1153    1.4302 C   0  0  0  0  0  0  0  0  0  0  0  0
   64.2102    2.3272    0.8755 C   0  0  0  0  0  0  0  0  0  0  0  0
   64.8674    1.1378    0.4387 C   0  0  0  0  0  0  0  0  0  0  0  0
   66.2121    1.2107    0.6654 N   0  0  0  0  0  0  0  0  0  0  0  0
   63.1597   -2.4789   -0.9037 H   0  0  0  0  0  0  0  0  0  0  0  0
   65.0535   -4.0000   -2.0751 H   0  0  0  0  0  0  0  0  0  0  0  0
   67.2102   -5.3025   -1.4239 H   0  0  0  0  0  0  0  0  0  0  0  0
   67.2005   -7.2485   -2.9332 H   0  0  0  0  0  0  0  0  0  0  0  0
   67.1355   -8.0141   -5.0893 H   0  0  0  0  0  0  0  0  0  0  0  0
   66.3704   -6.5881   -7.1176 H   0  0  0  0  0  0  0  0  0  0  0  0
   68.1247   -6.5609   -7.4332 H   0  0  0  0  0  0  0  0  0  0  0  0
   67.2694   -8.1101   -7.3520 H   0  0  0  0  0  0  0  0  0  0  0  0
   67.9652   -4.6473   -6.2689 H   0  0  0  0  0  0  0  0  0  0  0  0
   67.9645   -2.7219   -4.7586 H   0  0  0  0  0  0  0  0  0  0  0  0
   70.1266   -3.0855   -3.2970 H   0  0  0  0  0  0  0  0  0  0  0  0
   72.0251   -1.5686   -2.1264 H   0  0  0  0  0  0  0  0  0  0  0  0
   72.0031    1.5722    2.0997 H   0  0  0  0  0  0  0  0  0  0  0  0
   70.0988    3.0951    3.2559 H   0  0  0  0  0  0  0  0  0  0  0  0
   66.0070    3.2211    4.1208 H   0  0  0  0  0  0  0  0  0  0  0  0
   65.9771    5.1737    5.5922 H   0  0  0  0  0  0  0  0  0  0  0  0
   68.4143    7.8842    5.2399 H   0  0  0  0  0  0  0  0  0  0  0  0
   67.5144    6.5146    7.2586 H   0  0  0  0  0  0  0  0  0  0  0  0
   67.2469    8.2738    7.1451 H   0  0  0  0  0  0  0  0  0  0  0  0
   65.9606    7.1547    6.6639 H   0  0  0  0  0  0  0  0  0  0  0  0
   69.1129    6.9646    3.2599 H   0  0  0  0  0  0  0  0  0  0  0  0
   69.1251    4.9976    1.7803 H   0  0  0  0  0  0  0  0  0  0  0  0
   65.0525    4.0972    1.8603 H   0  0  0  0  0  0  0  0  0  0  0  0
   63.1544    2.5186    0.7701 H   0  0  0  0  0  0  0  0  0  0  0  0
   80.9627    0.0227    0.0095 Co  0  0  0  0  0  0  0  0  0  0  0  0
   77.5722    0.0197   -0.0069 C   0  0  0  0  0  0  0  0  0  0  0  0
   78.2584   -1.0853   -0.5226 C   0  0  0  0  0  0  0  0  0  0  0  0
   77.6149   -2.2637   -1.0077 C   0  0  0  0  0  0  0  0  0  0  0  0
   78.5747   -3.0084   -1.6112 C   0  0  0  0  0  0  0  0  0  0  0  0
   79.7973   -2.2728   -1.5016 C   0  0  0  0  0  0  0  0  0  0  0  0
   79.6006   -1.1250   -0.7703 N   0  0  0  0  0  0  0  0  0  0  0  0
   80.9780   -2.6067   -2.1544 C   0  0  0  0  0  0  0  0  0  0  0  0
   80.9883   -3.7528   -3.0849 C   0  0  0  0  0  0  0  0  0  0  0  0
   81.8950   -4.8040   -2.9134 C   0  0  0  0  0  0  0  0  0  0  0  0
   81.9051   -5.8782   -3.7814 C   0  0  0  0  0  0  0  0  0  0  0  0
   81.0162   -5.9283   -4.8631 C   0  0  0  0  0  0  0  0  0  0  0  0
   81.0350   -7.0464   -5.6803 N   0  0  0  0  0  0  0  0  0  0  0  0
   80.5028   -6.9674   -7.0337 C   0  0  0  0  0  0  0  0  0  0  0  0
   80.1036   -4.8829   -5.0365 C   0  0  0  0  0  0  0  0  0  0  0  0
   80.0928   -3.8161   -4.1552 C   0  0  0  0  0  0  0  0  0  0  0  0
   82.1531   -1.8932   -1.9465 C   0  0  0  0  0  0  0  0  0  0  0  0
   83.3857   -2.1485   -2.6273 C   0  0  0  0  0  0  0  0  0  0  0  0
   84.3386   -1.4160   -1.9982 C   0  0  0  0  0  0  0  0  0  0  0  0
   82.3363   -0.9470   -0.9658 N   0  0  0  0  0  0  0  0  0  0  0  0
   83.6805   -0.7057   -0.9497 C   0  0  0  0  0  0  0  0  0  0  0  0
   84.3532    0.0109    0.0465 C   0  0  0  0  0  0  0  0  0  0  0  0
   83.6617    0.7458    1.0157 C   0  0  0  0  0  0  0  0  0  0  0  0
   84.2979    1.4664    2.0707 C   0  0  0  0  0  0  0  0  0  0  0  0
   83.3398    2.2347    2.6474 C   0  0  0  0  0  0  0  0  0  0  0  0
   82.1255    1.9848    1.9332 C   0  0  0  0  0  0  0  0  0  0  0  0
   82.3230    1.0157    0.9790 N   0  0  0  0  0  0  0  0  0  0  0  0
   80.9529    2.7152    2.0943 C   0  0  0  0  0  0  0  0  0  0  0  0
   80.9576    3.8892    2.9897 C   0  0  0  0  0  0  0  0  0  0  0  0
   80.0475    3.9936    4.0442 C   0  0  0  0  0  0  0  0  0  0  0  0
   80.0522    5.0897    4.8889 C   0  0  0  0  0  0  0  0  0  0  0  0
   80.9743    6.1228    4.6940 C   0  0  0  0  0  0  0  0  0  0  0  0
   80.9870    7.2688    5.4721 N   0  0  0  0  0  0  0  0  0  0  0  0
   80.4287    7.2405    6.8169 C   0  0  0  0  0  0  0  0  0  0  0  0
   81.8808    6.0293    3.6300 C   0  0  0  0  0  0  0  0  0  0  0  0
   81.8763    4.9265    2.7986 C   0  0  0  0  0  0  0  0  0  0  0  0
   79.7799    2.3643    1.4377 C   0  0  0  0  0  0  0  0  0  0  0  0
   78.5510    3.0924    1.5298 C   0  0  0  0  0  0  0  0  0  0  0  0
   77.5952    2.3197    0.9562 C   0  0  0  0  0  0  0  0  0  0  0  0
   78.2486    1.1361    0.4977 C   0  0  0  0  0  0  0  0  0  0  0  0
   79.5916    1.1969    0.7339 N   0  0  0  0  0  0  0  0  0  0  0  0
   76.5637   -2.4772   -0.8991 H   0  0  0  0  0  0  0  0  0  0  0  0
   78.4724   -3.9702   -2.0868 H   0  0  0  0  0  0  0  0  0  0  0  0
   82.5813   -4.7858   -2.0739 H   0  0  0  0  0  0  0  0  0  0  0  0
   82.6047   -6.6932   -3.6283 H   0  0  0  0  0  0  0  0  0  0  0  0
   81.9104   -7.5537   -5.6361 H   0  0  0  0  0  0  0  0  0  0  0  0
   79.4209   -6.8334   -7.0029 H   0  0  0  0  0  0  0  0  0  0  0  0
   80.9529   -6.1412   -7.5959 H   0  0  0  0  0  0  0  0  0  0  0  0
   80.7235   -7.9084   -7.5375 H   0  0  0  0  0  0  0  0  0  0  0  0
   79.3994   -4.8963   -5.8592 H   0  0  0  0  0  0  0  0  0  0  0  0
   79.3937   -3.0021   -4.3135 H   0  0  0  0  0  0  0  0  0  0  0  0
   83.4995   -2.8041   -3.4753 H   0  0  0  0  0  0  0  0  0  0  0  0
   85.3942   -1.3577   -2.2101 H   0  0  0  0  0  0  0  0  0  0  0  0
   85.3442    1.3920    2.3202 H   0  0  0  0  0  0  0  0  0  0  0  0
   83.4379    2.9093    3.4824 H   0  0  0  0  0  0  0  0  0  0  0  0
   79.3414    3.1893    4.2202 H   0  0  0  0  0  0  0  0  0  0  0  0
   79.3358    5.1355    5.6999 H   0  0  0  0  0  0  0  0  0  0  0  0
   81.8674    7.7671    5.4267 H   0  0  0  0  0  0  0  0  0  0  0  0
   80.8522    6.4232    7.4117 H   0  0  0  0  0  0  0  0  0  0  0  0
   80.6582    8.1918    7.2968 H   0  0  0  0  0  0  0  0  0  0  0  0
   79.3450    7.1259    6.7695 H   0  0  0  0  0  0  0  0  0  0  0  0
   82.5894    6.8335    3.4615 H   0  0  0  0  0  0  0  0  0  0  0  0
   82.5767    4.8740    1.9723 H   0  0  0  0  0  0  0  0  0  0  0  0
   78.4415    4.0670    1.9769 H   0  0  0  0  0  0  0  0  0  0  0  0
   76.5411    2.5191    0.8489 H   0  0  0  0  0  0  0  0  0  0  0  0
  2  3  4  0  0  0  0
  3  4  4  0  0  0  0
  4  5  2  0  0  0  0
  5  6  4  0  0  0  0
  1  7  1  0  0  0  0
  3  7  4  0  0  0  0
  6  7  4  0  0  0  0
  6  8  4  0  0  0  0
  8  9  1  0  0  0  0
  9 10  4  0  0  0  0
 10 11  4  0  0  0  0
 11 12  4  0  0  0  0
 12 13  1  0  0  0  0
 13 14  1  0  0  0  0
 12 15  4  0  0  0  0
  9 16  4  0  0  0  0
 15 16  4  0  0  0  0
  8 17  4  0  0  0  0
 17 18  4  0  0  0  0
 18 19  2  0  0  0  0
  1 20  1  0  0  0  0
 17 20  4  0  0  0  0
 19 21  4  0  0  0  0
 20 21  4  0  0  0  0
 21 22  4  0  0  0  0
 22 23  4  0  0  0  0
 23 24  4  0  0  0  0
 24 25  2  0  0  0  0
 25 26  4  0  0  0  0
  1 27  1  0  0  0  0
 23 27  4  0  0  0  0
 26 27  4  0  0  0  0
 26 28  4  0  0  0  0
 28 29  1  0  0  0  0
 29 30  4  0  0  0  0
 30 31  4  0  0  0  0
 31 32  4  0  0  0  0
 32 33  1  0  0  0  0
 33 34  1  0  0  0  0
 32 35  4  0  0  0  0
 29 36  4  0  0  0  0
 35 36  4  0  0  0  0
 28 37  4  0  0  0  0
 37 38  4  0  0  0  0
 38 39  2  0  0  0  0
  2 40  4  0  0  0  0
 39 40  4  0  0  0  0
  1 41  1  0  0  0  0
 37 41  4  0  0  0  0
 40 41  4  0  0  0  0
  2 42  1  0  0  0  0
  4 43  1  0  0  0  0
  5 44  1  0  0  0  0
 10 45  1  0  0  0  0
 11 46  1  0  0  0  0
 13 47  1  0  0  0  0
 14 48  1  0  0  0  0
 14 49  1  0  0  0  0
 14 50  1  0  0  0  0
 15 51  1  0  0  0  0
 16 52  1  0  0  0  0
 18 53  1  0  0  0  0
 19 54  1  0  0  0  0
 24 55  1  0  0  0  0
 25 56  1  0  0  0  0
 30 57  1  0  0  0  0
 31 58  1  0  0  0  0
 33 59  1  0  0  0  0
 34 60  1  0  0  0  0
 34 61  1  0  0  0  0
 34 62  1  0  0  0  0
 35 63  1  0  0  0  0
 36 64  1  0  0  0  0
 38 65  1  0  0  0  0
 39 66  1  0  0  0  0
 68 69  4  0  0  0  0
 69 70  4  0  0  0  0
 70 71  2  0  0  0  0
 71 72  4  0  0  0  0
 67 73  1  0  0  0  0
 69 73  4  0  0  0  0
 72 73  4  0  0  0  0
 72 74  4  0  0  0  0
 74 75  1  0  0  0  0
 75 76  4  0  0  0  0
 76 77  4  0  0  0  0
 77 78  4  0  0  0  0
 78 79  1  0  0  0  0
 79 80  1  0  0  0  0
 78 81  4  0  0  0  0
 75 82  4  0  0  0  0
 81 82  4  0  0  0  0
 74 83  4  0  0  0  0
 83 84  4  0  0  0  0
 84 85  2  0  0  0  0
 67 86  1  0  0  0  0
 83 86  4  0  0  0  0
 85 87  4  0  0  0  0
 86 87  4  0  0  0  0
 87 88  4  0  0  0  0
 88 89  4  0  0  0  0
 89 90  4  0  0  0  0
 90 91  2  0  0  0  0
 91 92  4  0  0  0  0
 67 93  1  0  0  0  0
 89 93  4  0  0  0  0
 92 93  4  0  0  0  0
 92 94  4  0  0  0  0
 94 95  1  0  0  0  0
 95 96  4  0  0  0  0
 96 97  4  0  0  0  0
 97 98  4  0  0  0  0
 98 99  1  0  0  0  0
 99100  1  0  0  0  0
 98101  4  0  0  0  0
 95102  4  0  0  0  0
101102  4  0  0  0  0
 94103  4  0  0  0  0
103104  4  0  0  0  0
104105  2  0  0  0  0
 68106  4  0  0  0  0
105106  4  0  0  0  0
 67107  1  0  0  0  0
103107  4  0  0  0  0
106107  4  0  0  0  0
 68108  1  0  0  0  0
 70109  1  0  0  0  0
 71110  1  0  0  0  0
 76111  1  0  0  0  0
 77112  1  0  0  0  0
 79113  1  0  0  0  0
 80114  1  0  0  0  0
 80115  1  0  0  0  0
 80116  1  0  0  0  0
 81117  1  0  0  0  0
 82118  1  0  0  0  0
 84119  1  0  0  0  0
 85120  1  0  0  0  0
 90121  1  0  0  0  0
 91122  1  0  0  0  0
 96123  1  0  0  0  0
 97124  1  0  0  0  0
 99125  1  0  0  0  0
100126  1  0  0  0  0
100127  1  0  0  0  0
100128  1  0  0  0  0
101129  1  0  0  0  0
102130  1  0  0  0  0
104131  1  0  0  0  0
105132  1  0  0  0  0
 22134  4  0  0  0  0
133134  3  0  0  0  0
133135  4  0  0  0  0
135136  3  0  0  0  0
137138  3  0  0  0  0
137139  4  0  0  0  0
139140  3  0  0  0  0
141142  3  0  0  0  0
141143  4  0  0  0  0
 88144  4  0  0  0  0
143144  3  0  0  0  0
136146  4  0  0  0  0
146147  4  0  0  0  0
147148  4  0  0  0  0
148149  2  0  0  0  0
149150  4  0  0  0  0
145151  1  0  0  0  0
147151  4  0  0  0  0
150151  4  0  0  0  0
150152  4  0  0  0  0
152153  1  0  0  0  0
153154  4  0  0  0  0
154155  4  0  0  0  0
155156  4  0  0  0  0
156157  1  0  0  0  0
157158  1  0  0  0  0
156159  4  0  0  0  0
153160  4  0  0  0  0
159160  4  0  0  0  0
152161  4  0  0  0  0
161162  4  0  0  0  0
162163  2  0  0  0  0
145164  1  0  0  0  0
161164  4  0  0  0  0
163165  4  0  0  0  0
164165  4  0  0  0  0
138166  4  0  0  0  0
165166  4  0  0  0  0
166167  4  0  0  0  0
167168  4  0  0  0  0
168169  2  0  0  0  0
169170  4  0  0  0  0
145171  1  0  0  0  0
167171  4  0  0  0  0
170171  4  0  0  0  0
170172  4  0  0  0  0
172173  1  0  0  0  0
173174  4  0  0  0  0
174175  4  0  0  0  0
175176  4  0  0  0  0
176177  1  0  0  0  0
177178  1  0  0  0  0
176179  4  0  0  0  0
173180  4  0  0  0  0
179180  4  0  0  0  0
172181  4  0  0  0  0
181182  4  0  0  0  0
182183  2  0  0  0  0
146184  4  0  0  0  0
183184  4  0  0  0  0
145185  1  0  0  0  0
181185  4  0  0  0  0
184185  4  0  0  0  0
148186  1  0  0  0  0
149187  1  0  0  0  0
154188  1  0  0  0  0
155189  1  0  0  0  0
157190  1  0  0  0  0
158191  1  0  0  0  0
158192  1  0  0  0  0
158193  1  0  0  0  0
159194  1  0  0  0  0
160195  1  0  0  0  0
162196  1  0  0  0  0
163197  1  0  0  0  0
168198  1  0  0  0  0
169199  1  0  0  0  0
174200  1  0  0  0  0
175201  1  0  0  0  0
177202  1  0  0  0  0
178203  1  0  0  0  0
178204  1  0  0  0  0
178205  1  0  0  0  0
179206  1  0  0  0  0
180207  1  0  0  0  0
182208  1  0  0  0  0
183209  1  0  0  0  0
140211  4  0  0  0  0
211212  4  0  0  0  0
212213  4  0  0  0  0
213214  2  0  0  0  0
214215  4  0  0  0  0
210216  1  0  0  0  0
212216  4  0  0  0  0
215216  4  0  0  0  0
215217  4  0  0  0  0
217218  1  0  0  0  0
218219  4  0  0  0  0
219220  4  0  0  0  0
220221  4  0  0  0  0
221222  1  0  0  0  0
222223  1  0  0  0  0
221224  4  0  0  0  0
218225  4  0  0  0  0
224225  4  0  0  0  0
217226  4  0  0  0  0
226227  4  0  0  0  0
227228  2  0  0  0  0
210229  1  0  0  0  0
226229  4  0  0  0  0
228230  4  0  0  0  0
229230  4  0  0  0  0
142231  4  0  0  0  0
230231  4  0  0  0  0
231232  4  0  0  0  0
232233  4  0  0  0  0
233234  2  0  0  0  0
234235  4  0  0  0  0
210236  1  0  0  0  0
232236  4  0  0  0  0
235236  4  0  0  0  0
235237  4  0  0  0  0
237238  1  0  0  0  0
238239  4  0  0  0  0
239240  4  0  0  0  0
240241  4  0  0  0  0
241242  1  0  0  0  0
242243  1  0  0  0  0
241244  4  0  0  0  0
238245  4  0  0  0  0
244245  4  0  0  0  0
237246  4  0  0  0  0
246247  4  0  0  0  0
247248  2  0  0  0  0
211249  4  0  0  0  0
248249  4  0  0  0  0
210250  1  0  0  0  0
246250  4  0  0  0  0
249250  4  0  0  0  0
213251  1  0  0  0  0
214252  1  0  0  0  0
219253  1  0  0  0  0
220254  1  0  0  0  0
222255  1  0  0  0  0
223256  1  0  0  0  0
223257  1  0  0  0  0
223258  1  0  0  0  0
224259  1  0  0  0  0
225260  1  0  0  0  0
227261  1  0  0  0  0
228262  1  0  0  0  0
233263  1  0  0  0  0
234264  1  0  0  0  0
239265  1  0  0  0  0
240266  1  0  0  0  0
242267  1  0  0  0  0
243268  1  0  0  0  0
243269  1  0  0  0  0
243270  1  0  0  0  0
244271  1  0  0  0  0
245272  1  0  0  0  0
247273  1  0  0  0  0
248274  1  0  0  0  0
M  END
