 xtb: 6.5.1 (b24c23e)
          07292223073D

232271  0     0  0            999 V2000
   33.3498   -0.0179   -0.0231 Co  0  0  0  0  0  0  0  0  0  0  0  0
   29.9791   -0.0559   -0.0658 C   0  0  0  0  0  0  0  0  0  0  0  0
   30.6500   -1.2533   -0.1924 C   0  0  0  0  0  0  0  0  0  0  0  0
   30.0002   -2.5200   -0.3419 C   0  0  0  0  0  0  0  0  0  0  0  0
   30.9603   -3.4660   -0.2185 C   0  0  0  0  0  0  0  0  0  0  0  0
   32.1979   -2.7760    0.0013 C   0  0  0  0  0  0  0  0  0  0  0  0
   32.0031   -1.4187   -0.0346 N   0  0  0  0  0  0  0  0  0  0  0  0
   33.3792   -3.3972    0.3835 C   0  0  0  0  0  0  0  0  0  0  0  0
   33.3907   -4.8684    0.5605 C   0  0  0  0  0  0  0  0  0  0  0  0
   33.5809   -5.4453    1.8149 C   0  0  0  0  0  0  0  0  0  0  0  0
   33.5811   -6.8268    1.9285 C   0  0  0  0  0  0  0  0  0  0  0  0
   33.4117   -7.6389    0.8902 N   0  0  0  0  0  0  0  0  0  0  0  0
   33.2321   -7.0959   -0.3094 C   0  0  0  0  0  0  0  0  0  0  0  0
   33.2114   -5.7265   -0.5231 C   0  0  0  0  0  0  0  0  0  0  0  0
   34.5476   -2.6845    0.6032 C   0  0  0  0  0  0  0  0  0  0  0  0
   35.7940   -3.2806    0.9812 C   0  0  0  0  0  0  0  0  0  0  0  0
   36.7391   -2.3169    0.8684 C   0  0  0  0  0  0  0  0  0  0  0  0
   34.7249   -1.3512    0.3085 N   0  0  0  0  0  0  0  0  0  0  0  0
   36.0701   -1.1374    0.4180 C   0  0  0  0  0  0  0  0  0  0  0  0
   36.7390    0.0130   -0.0075 C   0  0  0  0  0  0  0  0  0  0  0  0
   36.0506    1.1547   -0.4245 C   0  0  0  0  0  0  0  0  0  0  0  0
   36.6957    2.3430   -0.8862 C   0  0  0  0  0  0  0  0  0  0  0  0
   35.7346    3.2929   -0.9855 C   0  0  0  0  0  0  0  0  0  0  0  0
   34.5058    2.6818   -0.5768 C   0  0  0  0  0  0  0  0  0  0  0  0
   34.7035    1.3489   -0.2986 N   0  0  0  0  0  0  0  0  0  0  0  0
   33.3167    3.3695   -0.3846 C   0  0  0  0  0  0  0  0  0  0  0  0
   33.3058    4.8411   -0.5350 C   0  0  0  0  0  0  0  0  0  0  0  0
   32.4805    5.4706   -1.4663 C   0  0  0  0  0  0  0  0  0  0  0  0
   32.5082    6.8524   -1.5685 C   0  0  0  0  0  0  0  0  0  0  0  0
   33.2864    7.6195   -0.8117 N   0  0  0  0  0  0  0  0  0  0  0  0
   34.0749    7.0277    0.0797 C   0  0  0  0  0  0  0  0  0  0  0  0
   34.1221    5.6534    0.2517 C   0  0  0  0  0  0  0  0  0  0  0  0
   32.1363    2.7138   -0.0600 C   0  0  0  0  0  0  0  0  0  0  0  0
   30.8858    3.3721    0.1821 C   0  0  0  0  0  0  0  0  0  0  0  0
   29.9426    2.4040    0.2602 C   0  0  0  0  0  0  0  0  0  0  0  0
   30.6196    1.1556    0.0822 C   0  0  0  0  0  0  0  0  0  0  0  0
   31.9714    1.3523   -0.0491 N   0  0  0  0  0  0  0  0  0  0  0  0
   28.8956   -0.0685   -0.0759 H   0  0  0  0  0  0  0  0  0  0  0  0
   28.9411   -2.6481   -0.4993 H   0  0  0  0  0  0  0  0  0  0  0  0
   30.8508   -4.5379   -0.2486 H   0  0  0  0  0  0  0  0  0  0  0  0
   33.7118   -4.8216    2.6910 H   0  0  0  0  0  0  0  0  0  0  0  0
   33.7232   -7.3006    2.8954 H   0  0  0  0  0  0  0  0  0  0  0  0
   33.0988   -7.7855   -1.1379 H   0  0  0  0  0  0  0  0  0  0  0  0
   33.0727   -5.3277   -1.5209 H   0  0  0  0  0  0  0  0  0  0  0  0
   35.9216   -4.3108    1.2707 H   0  0  0  0  0  0  0  0  0  0  0  0
   37.7994   -2.3871    1.0503 H   0  0  0  0  0  0  0  0  0  0  0  0
   37.7505    2.4257   -1.0926 H   0  0  0  0  0  0  0  0  0  0  0  0
   35.8370    4.3173   -1.3047 H   0  0  0  0  0  0  0  0  0  0  0  0
   31.8386    4.8849   -2.1136 H   0  0  0  0  0  0  0  0  0  0  0  0
   31.8778    7.3648   -2.2894 H   0  0  0  0  0  0  0  0  0  0  0  0
   34.6972    7.6809    0.6846 H   0  0  0  0  0  0  0  0  0  0  0  0
   34.7721    5.2155    0.9998 H   0  0  0  0  0  0  0  0  0  0  0  0
   30.7597    4.4387    0.2738 H   0  0  0  0  0  0  0  0  0  0  0  0
   28.8806    2.5059    0.4174 H   0  0  0  0  0  0  0  0  0  0  0  0
   81.2006    0.0338   -0.0250 Co  0  0  0  0  0  0  0  0  0  0  0  0
   84.5766    0.0456   -0.0786 C   0  0  0  0  0  0  0  0  0  0  0  0
   83.9104    1.1577   -0.5461 C   0  0  0  0  0  0  0  0  0  0  0  0
   84.5693    2.3235   -1.0516 C   0  0  0  0  0  0  0  0  0  0  0  0
   83.6134    3.2661   -1.2220 C   0  0  0  0  0  0  0  0  0  0  0  0
   82.3695    2.6721   -0.8271 C   0  0  0  0  0  0  0  0  0  0  0  0
   82.5567    1.3649   -0.4563 N   0  0  0  0  0  0  0  0  0  0  0  0
   81.1839    3.3788   -0.6804 C   0  0  0  0  0  0  0  0  0  0  0  0
   81.1775    4.8343   -0.9590 C   0  0  0  0  0  0  0  0  0  0  0  0
   80.9645    5.7638    0.0575 C   0  0  0  0  0  0  0  0  0  0  0  0
   80.9677    7.1147   -0.2526 C   0  0  0  0  0  0  0  0  0  0  0  0
   81.1612    7.5744   -1.4846 N   0  0  0  0  0  0  0  0  0  0  0  0
   81.3630    6.6938   -2.4593 C   0  0  0  0  0  0  0  0  0  0  0  0
   81.3825    5.3240   -2.2477 C   0  0  0  0  0  0  0  0  0  0  0  0
   80.0049    2.7672   -0.2851 C   0  0  0  0  0  0  0  0  0  0  0  0
   78.7550    3.4538   -0.1507 C   0  0  0  0  0  0  0  0  0  0  0  0
   77.8055    2.5053    0.0299 C   0  0  0  0  0  0  0  0  0  0  0  0
   79.8245    1.4094   -0.1430 N   0  0  0  0  0  0  0  0  0  0  0  0
   78.4763    1.2440    0.0033 C   0  0  0  0  0  0  0  0  0  0  0  0
   77.8047    0.0189   -0.0026 C   0  0  0  0  0  0  0  0  0  0  0  0
   78.4892   -1.1990   -0.0022 C   0  0  0  0  0  0  0  0  0  0  0  0
   77.8351   -2.4685   -0.0390 C   0  0  0  0  0  0  0  0  0  0  0  0
   78.7949   -3.4051    0.1519 C   0  0  0  0  0  0  0  0  0  0  0  0
   80.0315   -2.7016    0.3135 C   0  0  0  0  0  0  0  0  0  0  0  0
   79.8384   -1.3480    0.1561 N   0  0  0  0  0  0  0  0  0  0  0  0
   81.2261   -3.3042    0.6772 C   0  0  0  0  0  0  0  0  0  0  0  0
   81.2366   -4.7531    0.9777 C   0  0  0  0  0  0  0  0  0  0  0  0
   82.0236   -5.6396    0.2433 C   0  0  0  0  0  0  0  0  0  0  0  0
   81.9964   -6.9886    0.5601 C   0  0  0  0  0  0  0  0  0  0  0  0
   81.2545   -7.4867    1.5440 N   0  0  0  0  0  0  0  0  0  0  0  0
   80.5037   -6.6481    2.2508 C   0  0  0  0  0  0  0  0  0  0  0  0
   80.4587   -5.2848    2.0056 C   0  0  0  0  0  0  0  0  0  0  0  0
   82.4136   -2.5896    0.7598 C   0  0  0  0  0  0  0  0  0  0  0  0
   83.6669   -3.1562    1.1648 C   0  0  0  0  0  0  0  0  0  0  0  0
   84.6122   -2.2134    0.9421 C   0  0  0  0  0  0  0  0  0  0  0  0
   83.9336   -1.0685    0.4156 C   0  0  0  0  0  0  0  0  0  0  0  0
   82.5797   -1.2874    0.3633 N   0  0  0  0  0  0  0  0  0  0  0  0
   85.6601    0.0507   -0.0935 H   0  0  0  0  0  0  0  0  0  0  0  0
   85.6308    2.3971   -1.2268 H   0  0  0  0  0  0  0  0  0  0  0  0
   83.7287    4.2820   -1.5634 H   0  0  0  0  0  0  0  0  0  0  0  0
   80.8126    5.4343    1.0784 H   0  0  0  0  0  0  0  0  0  0  0  0
   80.8078    7.8590    0.5221 H   0  0  0  0  0  0  0  0  0  0  0  0
   81.5156    7.1002   -3.4549 H   0  0  0  0  0  0  0  0  0  0  0  0
   81.5400    4.6419   -3.0746 H   0  0  0  0  0  0  0  0  0  0  0  0
   78.6293    4.5224   -0.2121 H   0  0  0  0  0  0  0  0  0  0  0  0
   76.7420    2.6302    0.1548 H   0  0  0  0  0  0  0  0  0  0  0  0
   76.7760   -2.6069   -0.1855 H   0  0  0  0  0  0  0  0  0  0  0  0
   78.6872   -4.4770    0.1824 H   0  0  0  0  0  0  0  0  0  0  0  0
   82.6352   -5.2799   -0.5755 H   0  0  0  0  0  0  0  0  0  0  0  0
   82.5963   -7.6991   -0.0010 H   0  0  0  0  0  0  0  0  0  0  0  0
   79.9110   -7.0847    3.0493 H   0  0  0  0  0  0  0  0  0  0  0  0
   79.8398   -4.6370    2.6150 H   0  0  0  0  0  0  0  0  0  0  0  0
   83.7926   -4.1499    1.5632 H   0  0  0  0  0  0  0  0  0  0  0  0
   85.6764   -2.2701    1.1070 H   0  0  0  0  0  0  0  0  0  0  0  0
   41.9384    0.0404   -0.0292 C   0  0  0  0  0  0  0  0  0  0  0  0
   40.7095    0.0354   -0.0273 C   0  0  0  0  0  0  0  0  0  0  0  0
   39.3661    0.0298   -0.0213 C   0  0  0  0  0  0  0  0  0  0  0  0
   38.1420    0.0225   -0.0144 C   0  0  0  0  0  0  0  0  0  0  0  0
   43.2816    0.0412   -0.0353 C   0  0  0  0  0  0  0  0  0  0  0  0
   44.5060    0.0374   -0.0390 C   0  0  0  0  0  0  0  0  0  0  0  0
   57.8913    0.0356   -0.0004 C   0  0  0  0  0  0  0  0  0  0  0  0
   56.6617    0.0360   -0.0038 C   0  0  0  0  0  0  0  0  0  0  0  0
   55.3199    0.0324   -0.0102 C   0  0  0  0  0  0  0  0  0  0  0  0
   54.0950    0.0278   -0.0171 C   0  0  0  0  0  0  0  0  0  0  0  0
   59.2331    0.0341    0.0004 C   0  0  0  0  0  0  0  0  0  0  0  0
   60.4581    0.0308   -0.0011 C   0  0  0  0  0  0  0  0  0  0  0  0
   73.8346   -0.0022   -0.0134 C   0  0  0  0  0  0  0  0  0  0  0  0
   72.6054   -0.0060   -0.0145 C   0  0  0  0  0  0  0  0  0  0  0  0
   71.2626   -0.0083   -0.0181 C   0  0  0  0  0  0  0  0  0  0  0  0
   70.0378   -0.0094   -0.0184 C   0  0  0  0  0  0  0  0  0  0  0  0
   75.1777    0.0030   -0.0085 C   0  0  0  0  0  0  0  0  0  0  0  0
   76.4021    0.0114   -0.0066 C   0  0  0  0  0  0  0  0  0  0  0  0
   49.3012    0.0287   -0.0337 Co  0  0  0  0  0  0  0  0  0  0  0  0
   45.9077    0.0318   -0.0412 C   0  0  0  0  0  0  0  0  0  0  0  0
   46.5869   -0.6249    0.9896 C   0  0  0  0  0  0  0  0  0  0  0  0
   45.9343   -1.2655    2.0867 C   0  0  0  0  0  0  0  0  0  0  0  0
   46.8878   -1.9634    2.7512 C   0  0  0  0  0  0  0  0  0  0  0  0
   48.1168   -1.7527    2.0488 C   0  0  0  0  0  0  0  0  0  0  0  0
   47.9298   -0.8751    1.0068 N   0  0  0  0  0  0  0  0  0  0  0  0
   49.2942   -2.4429    2.3040 C   0  0  0  0  0  0  0  0  0  0  0  0
   49.2935   -3.5133    3.3249 C   0  0  0  0  0  0  0  0  0  0  0  0
   48.4505   -4.6187    3.2157 C   0  0  0  0  0  0  0  0  0  0  0  0
   48.4935   -5.6000    4.1936 C   0  0  0  0  0  0  0  0  0  0  0  0
   49.3017   -5.5379    5.2469 N   0  0  0  0  0  0  0  0  0  0  0  0
   50.1047   -4.4849    5.3614 C   0  0  0  0  0  0  0  0  0  0  0  0
   50.1392   -3.4569    4.4324 C   0  0  0  0  0  0  0  0  0  0  0  0
   50.4744   -2.1562    1.6329 C   0  0  0  0  0  0  0  0  0  0  0  0
   51.7041   -2.8644    1.8222 C   0  0  0  0  0  0  0  0  0  0  0  0
   52.6629   -2.1611    1.1716 C   0  0  0  0  0  0  0  0  0  0  0  0
   50.6666   -1.0740    0.8055 N   0  0  0  0  0  0  0  0  0  0  0  0
   52.0124   -1.0369    0.5774 C   0  0  0  0  0  0  0  0  0  0  0  0
   52.6947    0.0235   -0.0273 C   0  0  0  0  0  0  0  0  0  0  0  0
   52.0149    1.0774   -0.6463 C   0  0  0  0  0  0  0  0  0  0  0  0
   52.6679    2.1978   -1.2449 C   0  0  0  0  0  0  0  0  0  0  0  0
   51.7151    2.8861   -1.9203 C   0  0  0  0  0  0  0  0  0  0  0  0
   50.4861    2.1754   -1.7369 C   0  0  0  0  0  0  0  0  0  0  0  0
   50.6729    1.1025   -0.8970 N   0  0  0  0  0  0  0  0  0  0  0  0
   49.3098    2.4551   -2.4183 C   0  0  0  0  0  0  0  0  0  0  0  0
   49.3178    3.5104   -3.4547 C   0  0  0  0  0  0  0  0  0  0  0  0
   50.1667    3.4321   -4.5583 C   0  0  0  0  0  0  0  0  0  0  0  0
   50.1393    4.4441   -5.5046 C   0  0  0  0  0  0  0  0  0  0  0  0
   49.3405    5.5022   -5.4102 N   0  0  0  0  0  0  0  0  0  0  0  0
   48.5307    5.5864   -4.3598 C   0  0  0  0  0  0  0  0  0  0  0  0
   48.4808    4.6222   -3.3654 C   0  0  0  0  0  0  0  0  0  0  0  0
   48.1280    1.7761   -2.1544 C   0  0  0  0  0  0  0  0  0  0  0  0
   46.8984    1.9931   -2.8542 C   0  0  0  0  0  0  0  0  0  0  0  0
   45.9396    1.3155   -2.1768 C   0  0  0  0  0  0  0  0  0  0  0  0
   46.5898    0.6778   -1.0765 C   0  0  0  0  0  0  0  0  0  0  0  0
   47.9360    0.9085   -1.1046 N   0  0  0  0  0  0  0  0  0  0  0  0
   44.8807   -1.1890    2.3017 H   0  0  0  0  0  0  0  0  0  0  0  0
   46.7789   -2.5701    3.6353 H   0  0  0  0  0  0  0  0  0  0  0  0
   47.7841   -4.7176    2.3672 H   0  0  0  0  0  0  0  0  0  0  0  0
   47.8519   -6.4738    4.1272 H   0  0  0  0  0  0  0  0  0  0  0  0
   50.7504   -4.4612    6.2343 H   0  0  0  0  0  0  0  0  0  0  0  0
   50.8022   -2.6115    4.5727 H   0  0  0  0  0  0  0  0  0  0  0  0
   51.8100   -3.7774    2.3851 H   0  0  0  0  0  0  0  0  0  0  0  0
   53.7184   -2.3674    1.0977 H   0  0  0  0  0  0  0  0  0  0  0  0
   53.7211    2.4109   -1.1584 H   0  0  0  0  0  0  0  0  0  0  0  0
   51.8245    3.7917   -2.4943 H   0  0  0  0  0  0  0  0  0  0  0  0
   50.8267    2.5817   -4.6820 H   0  0  0  0  0  0  0  0  0  0  0  0
   50.7873    4.4029   -6.3752 H   0  0  0  0  0  0  0  0  0  0  0  0
   47.8929    6.4640   -4.3096 H   0  0  0  0  0  0  0  0  0  0  0  0
   47.8135    4.7394   -2.5199 H   0  0  0  0  0  0  0  0  0  0  0  0
   46.7923    2.5917   -3.7442 H   0  0  0  0  0  0  0  0  0  0  0  0
   44.8840    1.2501   -2.3857 H   0  0  0  0  0  0  0  0  0  0  0  0
   65.2476    0.0141   -0.0059 Co  0  0  0  0  0  0  0  0  0  0  0  0
   61.8581    0.0223   -0.0065 C   0  0  0  0  0  0  0  0  0  0  0  0
   62.5403   -0.6392    1.0202 C   0  0  0  0  0  0  0  0  0  0  0  0
   61.8945   -1.2773    2.1227 C   0  0  0  0  0  0  0  0  0  0  0  0
   62.8494   -1.9860    2.7743 C   0  0  0  0  0  0  0  0  0  0  0  0
   64.0722   -1.7858    2.0574 C   0  0  0  0  0  0  0  0  0  0  0  0
   63.8804   -0.9003    1.0228 N   0  0  0  0  0  0  0  0  0  0  0  0
   65.2433   -2.4967    2.2819 C   0  0  0  0  0  0  0  0  0  0  0  0
   65.2435   -3.5786    3.2899 C   0  0  0  0  0  0  0  0  0  0  0  0
   64.3653   -4.6579    3.1957 C   0  0  0  0  0  0  0  0  0  0  0  0
   64.4031   -5.6459    4.1667 C   0  0  0  0  0  0  0  0  0  0  0  0
   65.2394   -5.6151    5.1994 N   0  0  0  0  0  0  0  0  0  0  0  0
   66.0782   -4.5889    5.2979 C   0  0  0  0  0  0  0  0  0  0  0  0
   66.1200   -3.5565    4.3745 C   0  0  0  0  0  0  0  0  0  0  0  0
   66.4150   -2.2179    1.5907 C   0  0  0  0  0  0  0  0  0  0  0  0
   67.6365   -2.9500    1.7353 C   0  0  0  0  0  0  0  0  0  0  0  0
   68.5938   -2.2442    1.0842 C   0  0  0  0  0  0  0  0  0  0  0  0
   66.6085   -1.1189    0.7869 N   0  0  0  0  0  0  0  0  0  0  0  0
   67.9511   -1.0926    0.5361 C   0  0  0  0  0  0  0  0  0  0  0  0
   68.6368   -0.0079   -0.0207 C   0  0  0  0  0  0  0  0  0  0  0  0
   67.9568    1.0780   -0.5821 C   0  0  0  0  0  0  0  0  0  0  0  0
   68.6042    2.2238   -1.1366 C   0  0  0  0  0  0  0  0  0  0  0  0
   67.6517    2.9248   -1.8002 C   0  0  0  0  0  0  0  0  0  0  0  0
   66.4278    2.1978   -1.6529 C   0  0  0  0  0  0  0  0  0  0  0  0
   66.6161    1.1029   -0.8435 N   0  0  0  0  0  0  0  0  0  0  0  0
   65.2565    2.4773   -2.3451 C   0  0  0  0  0  0  0  0  0  0  0  0
   65.2641    3.5478   -3.3652 C   0  0  0  0  0  0  0  0  0  0  0  0
   66.1338    3.5012   -4.4545 C   0  0  0  0  0  0  0  0  0  0  0  0
   66.0995    4.5228   -5.3902 C   0  0  0  0  0  0  0  0  0  0  0  0
   65.2752    5.5614   -5.2986 N   0  0  0  0  0  0  0  0  0  0  0  0
   64.4465    5.6161   -4.2608 C   0  0  0  0  0  0  0  0  0  0  0  0
   64.4015    4.6401   -3.2780 C   0  0  0  0  0  0  0  0  0  0  0  0
   64.0792    1.7822   -2.1055 C   0  0  0  0  0  0  0  0  0  0  0  0
   62.8522    1.9961   -2.8114 C   0  0  0  0  0  0  0  0  0  0  0  0
   61.8926    1.3115   -2.1419 C   0  0  0  0  0  0  0  0  0  0  0  0
   62.5400    0.6710   -1.0414 C   0  0  0  0  0  0  0  0  0  0  0  0
   63.8850    0.9047   -1.0639 N   0  0  0  0  0  0  0  0  0  0  0  0
   60.8442   -1.1919    2.3504 H   0  0  0  0  0  0  0  0  0  0  0  0
   62.7444   -2.5936    3.6583 H   0  0  0  0  0  0  0  0  0  0  0  0
   63.6751   -4.7316    2.3637 H   0  0  0  0  0  0  0  0  0  0  0  0
   63.7329   -6.4988    4.1123 H   0  0  0  0  0  0  0  0  0  0  0  0
   66.7458   -4.5906    6.1544 H   0  0  0  0  0  0  0  0  0  0  0  0
   66.8115   -2.7324    4.5030 H   0  0  0  0  0  0  0  0  0  0  0  0
   67.7387   -3.8795    2.2712 H   0  0  0  0  0  0  0  0  0  0  0  0
   69.6444   -2.4643    0.9849 H   0  0  0  0  0  0  0  0  0  0  0  0
   69.6546    2.4436   -1.0335 H   0  0  0  0  0  0  0  0  0  0  0  0
   67.7584    3.8490   -2.3443 H   0  0  0  0  0  0  0  0  0  0  0  0
   66.8143    2.6670   -4.5767 H   0  0  0  0  0  0  0  0  0  0  0  0
   66.7624    4.5056   -6.2504 H   0  0  0  0  0  0  0  0  0  0  0  0
   63.7880    6.4783   -4.2123 H   0  0  0  0  0  0  0  0  0  0  0  0
   63.7176    4.7327   -2.4427 H   0  0  0  0  0  0  0  0  0  0  0  0
   62.7478    2.5979   -3.6994 H   0  0  0  0  0  0  0  0  0  0  0  0
   60.8383    1.2431   -2.3563 H   0  0  0  0  0  0  0  0  0  0  0  0
  2  3  4  0  0  0  0
  3  4  1  0  0  0  0
  4  5  2  0  0  0  0
  5  6  4  0  0  0  0
  1  7  1  0  0  0  0
  3  7  4  0  0  0  0
  6  7  4  0  0  0  0
  6  8  4  0  0  0  0
  8  9  1  0  0  0  0
  9 10  4  0  0  0  0
 10 11  4  0  0  0  0
 11 12  4  0  0  0  0
 12 13  4  0  0  0  0
  9 14  4  0  0  0  0
 13 14  4  0  0  0  0
  8 15  4  0  0  0  0
 15 16  4  0  0  0  0
 16 17  2  0  0  0  0
  1 18  1  0  0  0  0
 15 18  4  0  0  0  0
 17 19  4  0  0  0  0
 18 19  4  0  0  0  0
 19 20  4  0  0  0  0
 20 21  4  0  0  0  0
 21 22  4  0  0  0  0
 22 23  2  0  0  0  0
 23 24  4  0  0  0  0
  1 25  1  0  0  0  0
 21 25  4  0  0  0  0
 24 25  4  0  0  0  0
 24 26  4  0  0  0  0
 26 27  1  0  0  0  0
 27 28  4  0  0  0  0
 28 29  4  0  0  0  0
 29 30  4  0  0  0  0
 30 31  4  0  0  0  0
 27 32  4  0  0  0  0
 31 32  4  0  0  0  0
 26 33  4  0  0  0  0
 33 34  4  0  0  0  0
 34 35  2  0  0  0  0
  2 36  4  0  0  0  0
 35 36  1  0  0  0  0
  1 37  1  0  0  0  0
 33 37  4  0  0  0  0
 36 37  4  0  0  0  0
  2 38  1  0  0  0  0
  4 39  1  0  0  0  0
  5 40  1  0  0  0  0
 10 41  1  0  0  0  0
 11 42  1  0  0  0  0
 13 43  1  0  0  0  0
 14 44  1  0  0  0  0
 16 45  1  0  0  0  0
 17 46  1  0  0  0  0
 22 47  1  0  0  0  0
 23 48  1  0  0  0  0
 28 49  1  0  0  0  0
 29 50  1  0  0  0  0
 31 51  1  0  0  0  0
 32 52  1  0  0  0  0
 34 53  1  0  0  0  0
 35 54  1  0  0  0  0
 56 57  4  0  0  0  0
 57 58  1  0  0  0  0
 58 59  2  0  0  0  0
 59 60  4  0  0  0  0
 55 61  1  0  0  0  0
 57 61  4  0  0  0  0
 60 61  4  0  0  0  0
 60 62  4  0  0  0  0
 62 63  1  0  0  0  0
 63 64  4  0  0  0  0
 64 65  4  0  0  0  0
 65 66  4  0  0  0  0
 66 67  4  0  0  0  0
 63 68  4  0  0  0  0
 67 68  4  0  0  0  0
 62 69  4  0  0  0  0
 69 70  4  0  0  0  0
 70 71  2  0  0  0  0
 55 72  1  0  0  0  0
 69 72  4  0  0  0  0
 71 73  4  0  0  0  0
 72 73  4  0  0  0  0
 73 74  4  0  0  0  0
 74 75  4  0  0  0  0
 75 76  4  0  0  0  0
 76 77  2  0  0  0  0
 77 78  4  0  0  0  0
 55 79  1  0  0  0  0
 75 79  4  0  0  0  0
 78 79  4  0  0  0  0
 78 80  4  0  0  0  0
 80 81  1  0  0  0  0
 81 82  4  0  0  0  0
 82 83  4  0  0  0  0
 83 84  4  0  0  0  0
 84 85  4  0  0  0  0
 81 86  4  0  0  0  0
 85 86  4  0  0  0  0
 80 87  4  0  0  0  0
 87 88  4  0  0  0  0
 88 89  2  0  0  0  0
 56 90  4  0  0  0  0
 89 90  1  0  0  0  0
 55 91  1  0  0  0  0
 87 91  4  0  0  0  0
 90 91  4  0  0  0  0
 56 92  1  0  0  0  0
 58 93  1  0  0  0  0
 59 94  1  0  0  0  0
 64 95  1  0  0  0  0
 65 96  1  0  0  0  0
 67 97  1  0  0  0  0
 68 98  1  0  0  0  0
 70 99  1  0  0  0  0
 71100  1  0  0  0  0
 76101  1  0  0  0  0
 77102  1  0  0  0  0
 82103  1  0  0  0  0
 83104  1  0  0  0  0
 85105  1  0  0  0  0
 86106  1  0  0  0  0
 88107  1  0  0  0  0
 89108  1  0  0  0  0
109110  3  0  0  0  0
110111  4  0  0  0  0
 20112  4  0  0  0  0
111112  3  0  0  0  0
109113  4  0  0  0  0
113114  3  0  0  0  0
115116  3  0  0  0  0
116117  4  0  0  0  0
117118  3  0  0  0  0
115119  4  0  0  0  0
119120  3  0  0  0  0
121122  3  0  0  0  0
122123  4  0  0  0  0
123124  3  0  0  0  0
121125  4  0  0  0  0
 74126  4  0  0  0  0
125126  3  0  0  0  0
114128  4  0  0  0  0
128129  4  0  0  0  0
129130  4  0  0  0  0
130131  2  0  0  0  0
131132  4  0  0  0  0
127133  1  0  0  0  0
129133  4  0  0  0  0
132133  4  0  0  0  0
132134  4  0  0  0  0
134135  1  0  0  0  0
135136  4  0  0  0  0
136137  4  0  0  0  0
137138  4  0  0  0  0
138139  4  0  0  0  0
135140  4  0  0  0  0
139140  4  0  0  0  0
134141  4  0  0  0  0
141142  4  0  0  0  0
142143  2  0  0  0  0
127144  1  0  0  0  0
141144  4  0  0  0  0
143145  4  0  0  0  0
144145  4  0  0  0  0
118146  4  0  0  0  0
145146  4  0  0  0  0
146147  4  0  0  0  0
147148  4  0  0  0  0
148149  2  0  0  0  0
149150  4  0  0  0  0
127151  1  0  0  0  0
147151  4  0  0  0  0
150151  4  0  0  0  0
150152  4  0  0  0  0
152153  1  0  0  0  0
153154  4  0  0  0  0
154155  4  0  0  0  0
155156  4  0  0  0  0
156157  4  0  0  0  0
153158  4  0  0  0  0
157158  4  0  0  0  0
152159  4  0  0  0  0
159160  4  0  0  0  0
160161  2  0  0  0  0
128162  4  0  0  0  0
161162  4  0  0  0  0
127163  1  0  0  0  0
159163  4  0  0  0  0
162163  4  0  0  0  0
130164  1  0  0  0  0
131165  1  0  0  0  0
136166  1  0  0  0  0
137167  1  0  0  0  0
139168  1  0  0  0  0
140169  1  0  0  0  0
142170  1  0  0  0  0
143171  1  0  0  0  0
148172  1  0  0  0  0
149173  1  0  0  0  0
154174  1  0  0  0  0
155175  1  0  0  0  0
157176  1  0  0  0  0
158177  1  0  0  0  0
160178  1  0  0  0  0
161179  1  0  0  0  0
120181  4  0  0  0  0
181182  4  0  0  0  0
182183  4  0  0  0  0
183184  2  0  0  0  0
184185  4  0  0  0  0
180186  1  0  0  0  0
182186  4  0  0  0  0
185186  4  0  0  0  0
185187  4  0  0  0  0
187188  1  0  0  0  0
188189  4  0  0  0  0
189190  4  0  0  0  0
190191  4  0  0  0  0
191192  4  0  0  0  0
188193  4  0  0  0  0
192193  4  0  0  0  0
187194  4  0  0  0  0
194195  4  0  0  0  0
195196  2  0  0  0  0
180197  1  0  0  0  0
194197  4  0  0  0  0
196198  4  0  0  0  0
197198  4  0  0  0  0
124199  4  0  0  0  0
198199  4  0  0  0  0
199200  4  0  0  0  0
200201  4  0  0  0  0
201202  2  0  0  0  0
202203  4  0  0  0  0
180204  1  0  0  0  0
200204  4  0  0  0  0
203204  4  0  0  0  0
203205  4  0  0  0  0
205206  1  0  0  0  0
206207  4  0  0  0  0
207208  4  0  0  0  0
208209  4  0  0  0  0
209210  4  0  0  0  0
206211  4  0  0  0  0
210211  4  0  0  0  0
205212  4  0  0  0  0
212213  4  0  0  0  0
213214  2  0  0  0  0
181215  4  0  0  0  0
214215  4  0  0  0  0
180216  1  0  0  0  0
212216  4  0  0  0  0
215216  4  0  0  0  0
183217  1  0  0  0  0
184218  1  0  0  0  0
189219  1  0  0  0  0
190220  1  0  0  0  0
192221  1  0  0  0  0
193222  1  0  0  0  0
195223  1  0  0  0  0
196224  1  0  0  0  0
201225  1  0  0  0  0
202226  1  0  0  0  0
207227  1  0  0  0  0
208228  1  0  0  0  0
210229  1  0  0  0  0
211230  1  0  0  0  0
213231  1  0  0  0  0
214232  1  0  0  0  0
M  END
