 xtb: 6.5.1 (b24c23e)
          07302210483D

181210  0     0  0            999 V2000
   32.2619   -0.1908   -0.1501 Zn  0  0  0  0  0  0  0  0  0  0  0  0
   28.8436   -0.1084   -0.1243 C   0  0  0  0  0  0  0  0  0  0  0  0
   29.4908    0.7570    0.7491 C   0  0  0  0  0  0  0  0  0  0  0  0
   28.8394    1.6688    1.6476 C   0  0  0  0  0  0  0  0  0  0  0  0
   29.8163    2.3262    2.3229 C   0  0  0  0  0  0  0  0  0  0  0  0
   31.0723    1.8219    1.8424 C   0  0  0  0  0  0  0  0  0  0  0  0
   30.8458    0.8763    0.8930 N   0  0  0  0  0  0  0  0  0  0  0  0
   32.3383    2.2453    2.2884 C   0  0  0  0  0  0  0  0  0  0  0  0
   32.3675    3.2422    3.2888 C   0  0  0  0  0  0  0  0  0  0  0  0
   32.3900    4.0986    4.1486 C   0  0  0  0  0  0  0  0  0  0  0  0
   32.4123    5.0929    5.1529 C   0  0  0  0  0  0  0  0  0  0  0  0
   33.6198    5.5818    5.6656 C   0  0  0  0  0  0  0  0  0  0  0  0
   33.5860    6.5543    6.6489 C   0  0  0  0  0  0  0  0  0  0  0  0
   32.4546    7.0554    7.1387 N   0  0  0  0  0  0  0  0  0  0  0  0
   31.3025    6.5962    6.6563 C   0  0  0  0  0  0  0  0  0  0  0  0
   31.2268    5.6258    5.6734 C   0  0  0  0  0  0  0  0  0  0  0  0
   33.5756    1.7628    1.8245 C   0  0  0  0  0  0  0  0  0  0  0  0
   34.8567    2.2094    2.2892 C   0  0  0  0  0  0  0  0  0  0  0  0
   35.7950    1.5094    1.6002 C   0  0  0  0  0  0  0  0  0  0  0  0
   33.7504    0.8059    0.8689 N   0  0  0  0  0  0  0  0  0  0  0  0
   35.0930    0.6307    0.7110 C   0  0  0  0  0  0  0  0  0  0  0  0
   35.7049   -0.2672   -0.1836 C   0  0  0  0  0  0  0  0  0  0  0  0
   35.0356   -1.1381   -1.0636 C   0  0  0  0  0  0  0  0  0  0  0  0
   35.6804   -2.0492   -1.9633 C   0  0  0  0  0  0  0  0  0  0  0  0
   34.6986   -2.7106   -2.6295 C   0  0  0  0  0  0  0  0  0  0  0  0
   33.4479   -2.2070   -2.1410 C   0  0  0  0  0  0  0  0  0  0  0  0
   33.6836   -1.2549   -1.1937 N   0  0  0  0  0  0  0  0  0  0  0  0
   32.1820   -2.6367   -2.5793 C   0  0  0  0  0  0  0  0  0  0  0  0
   32.1513   -3.6430   -3.5702 C   0  0  0  0  0  0  0  0  0  0  0  0
   32.1242   -4.5106   -4.4184 C   0  0  0  0  0  0  0  0  0  0  0  0
   32.1093   -5.5240   -5.4035 C   0  0  0  0  0  0  0  0  0  0  0  0
   33.3006   -6.0573   -5.9105 C   0  0  0  0  0  0  0  0  0  0  0  0
   33.2357   -7.0464   -6.8752 C   0  0  0  0  0  0  0  0  0  0  0  0
   32.0886   -7.5234   -7.3526 N   0  0  0  0  0  0  0  0  0  0  0  0
   30.9520   -7.0215   -6.8762 C   0  0  0  0  0  0  0  0  0  0  0  0
   30.9073   -6.0310   -5.9114 C   0  0  0  0  0  0  0  0  0  0  0  0
   30.9447   -2.1512   -2.1169 C   0  0  0  0  0  0  0  0  0  0  0  0
   29.6586   -2.5947   -2.5774 C   0  0  0  0  0  0  0  0  0  0  0  0
   28.7252   -1.8870   -1.8915 C   0  0  0  0  0  0  0  0  0  0  0  0
   29.4337   -1.0056   -1.0060 C   0  0  0  0  0  0  0  0  0  0  0  0
   30.7789   -1.1917   -1.1690 N   0  0  0  0  0  0  0  0  0  0  0  0
   27.7583   -0.0812   -0.1160 H   0  0  0  0  0  0  0  0  0  0  0  0
   27.7707    1.7824    1.7409 H   0  0  0  0  0  0  0  0  0  0  0  0
   29.7074    3.0863    3.0804 H   0  0  0  0  0  0  0  0  0  0  0  0
   34.5645    5.2019    5.2957 H   0  0  0  0  0  0  0  0  0  0  0  0
   34.5079    6.9510    7.0644 H   0  0  0  0  0  0  0  0  0  0  0  0
   30.3984    7.0264    7.0777 H   0  0  0  0  0  0  0  0  0  0  0  0
   30.2666    5.2807    5.3094 H   0  0  0  0  0  0  0  0  0  0  0  0
   35.0099    2.9627    3.0455 H   0  0  0  0  0  0  0  0  0  0  0  0
   36.8683    1.5764    1.6808 H   0  0  0  0  0  0  0  0  0  0  0  0
   36.7478   -2.1631   -2.0657 H   0  0  0  0  0  0  0  0  0  0  0  0
   34.8036   -3.4725   -3.3855 H   0  0  0  0  0  0  0  0  0  0  0  0
   34.2568   -5.6979   -5.5499 H   0  0  0  0  0  0  0  0  0  0  0  0
   34.1445   -7.4779   -7.2851 H   0  0  0  0  0  0  0  0  0  0  0  0
   30.0345   -7.4331   -7.2871 H   0  0  0  0  0  0  0  0  0  0  0  0
   29.9584   -5.6514   -5.5522 H   0  0  0  0  0  0  0  0  0  0  0  0
   29.5014   -3.3513   -3.3299 H   0  0  0  0  0  0  0  0  0  0  0  0
   27.6510   -1.9479   -1.9693 H   0  0  0  0  0  0  0  0  0  0  0  0
   59.2691   -0.2996   -0.1532 Zn  0  0  0  0  0  0  0  0  0  0  0  0
   62.6885   -0.3008   -0.1098 C   0  0  0  0  0  0  0  0  0  0  0  0
   62.0730   -1.5087   -0.4146 C   0  0  0  0  0  0  0  0  0  0  0  0
   62.7565   -2.7366   -0.7111 C   0  0  0  0  0  0  0  0  0  0  0  0
   61.8037   -3.6725   -0.9533 C   0  0  0  0  0  0  0  0  0  0  0  0
   60.5306   -3.0245   -0.8055 C   0  0  0  0  0  0  0  0  0  0  0  0
   60.7231   -1.7189   -0.4808 N   0  0  0  0  0  0  0  0  0  0  0  0
   59.2803   -3.6490   -0.9700 C   0  0  0  0  0  0  0  0  0  0  0  0
   59.2829   -5.0188   -1.3149 C   0  0  0  0  0  0  0  0  0  0  0  0
   59.2842   -6.1944   -1.6163 C   0  0  0  0  0  0  0  0  0  0  0  0
   59.2723   -7.5622   -1.9718 C   0  0  0  0  0  0  0  0  0  0  0  0
   58.0675   -8.2503   -2.1603 C   0  0  0  0  0  0  0  0  0  0  0  0
   58.1067   -9.5878   -2.5105 C   0  0  0  0  0  0  0  0  0  0  0  0
   59.2411  -10.2630   -2.6794 N   0  0  0  0  0  0  0  0  0  0  0  0
   60.3905   -9.6164   -2.5016 C   0  0  0  0  0  0  0  0  0  0  0  0
   60.4608   -8.2799   -2.1510 C   0  0  0  0  0  0  0  0  0  0  0  0
   58.0267   -3.0276   -0.8239 C   0  0  0  0  0  0  0  0  0  0  0  0
   56.7624   -3.6832   -0.9910 C   0  0  0  0  0  0  0  0  0  0  0  0
   55.7994   -2.7511   -0.7694 C   0  0  0  0  0  0  0  0  0  0  0  0
   57.8177   -1.7181   -0.5060 N   0  0  0  0  0  0  0  0  0  0  0  0
   56.4696   -1.5203   -0.4671 C   0  0  0  0  0  0  0  0  0  0  0  0
   55.8253   -0.3003   -0.1875 C   0  0  0  0  0  0  0  0  0  0  0  0
   56.4629    0.9210    0.1013 C   0  0  0  0  0  0  0  0  0  0  0  0
   55.7859    2.1531    0.3820 C   0  0  0  0  0  0  0  0  0  0  0  0
   56.7436    3.0878    0.6153 C   0  0  0  0  0  0  0  0  0  0  0  0
   58.0115    2.4319    0.4787 C   0  0  0  0  0  0  0  0  0  0  0  0
   57.8098    1.1200    0.1659 N   0  0  0  0  0  0  0  0  0  0  0  0
   59.2617    3.0543    0.6469 C   0  0  0  0  0  0  0  0  0  0  0  0
   59.2611    4.4280    0.9757 C   0  0  0  0  0  0  0  0  0  0  0  0
   59.2675    5.6087    1.2566 C   0  0  0  0  0  0  0  0  0  0  0  0
   59.2787    6.9820    1.5907 C   0  0  0  0  0  0  0  0  0  0  0  0
   58.0885    7.7025    1.7468 C   0  0  0  0  0  0  0  0  0  0  0  0
   58.1554    9.0446    2.0755 C   0  0  0  0  0  0  0  0  0  0  0  0
   59.3031    9.6943    2.2530 N   0  0  0  0  0  0  0  0  0  0  0  0
   60.4389    9.0167    2.1058 C   0  0  0  0  0  0  0  0  0  0  0  0
   60.4816    7.6733    1.7786 C   0  0  0  0  0  0  0  0  0  0  0  0
   60.5153    2.4273    0.5179 C   0  0  0  0  0  0  0  0  0  0  0  0
   61.7848    3.0756    0.6940 C   0  0  0  0  0  0  0  0  0  0  0  0
   62.7428    2.1373    0.4836 C   0  0  0  0  0  0  0  0  0  0  0  0
   62.0663    0.9082    0.1765 C   0  0  0  0  0  0  0  0  0  0  0  0
   60.7152    1.1197    0.2068 N   0  0  0  0  0  0  0  0  0  0  0  0
   63.7741   -0.3012   -0.0955 H   0  0  0  0  0  0  0  0  0  0  0  0
   63.8286   -2.8550   -0.7293 H   0  0  0  0  0  0  0  0  0  0  0  0
   61.9393   -4.7115   -1.2093 H   0  0  0  0  0  0  0  0  0  0  0  0
   57.1210   -7.7388   -2.0332 H   0  0  0  0  0  0  0  0  0  0  0  0
   57.1871  -10.1454   -2.6633 H   0  0  0  0  0  0  0  0  0  0  0  0
   61.2970  -10.1969   -2.6473 H   0  0  0  0  0  0  0  0  0  0  0  0
   61.4192   -7.7930   -2.0167 H   0  0  0  0  0  0  0  0  0  0  0  0
   56.6360   -4.7236   -1.2454 H   0  0  0  0  0  0  0  0  0  0  0  0
   54.7292   -2.8776   -0.8072 H   0  0  0  0  0  0  0  0  0  0  0  0
   54.7149    2.2784    0.3972 H   0  0  0  0  0  0  0  0  0  0  0  0
   56.6117    4.1301    0.8591 H   0  0  0  0  0  0  0  0  0  0  0  0
   57.1316    7.2130    1.6116 H   0  0  0  0  0  0  0  0  0  0  0  0
   57.2475    9.6274    2.2028 H   0  0  0  0  0  0  0  0  0  0  0  0
   61.3572    9.5770    2.2574 H   0  0  0  0  0  0  0  0  0  0  0  0
   61.4295    7.1605    1.6687 H   0  0  0  0  0  0  0  0  0  0  0  0
   61.9149    4.1161    0.9464 H   0  0  0  0  0  0  0  0  0  0  0  0
   63.8141    2.2552    0.5290 H   0  0  0  0  0  0  0  0  0  0  0  0
   38.3352   -0.3308   -0.2156 C   0  0  0  0  0  0  0  0  0  0  0  0
   37.1149   -0.2986   -0.2003 C   0  0  0  0  0  0  0  0  0  0  0  0
   39.6879   -0.3592   -0.2321 C   0  0  0  0  0  0  0  0  0  0  0  0
   40.9083   -0.3861   -0.2551 C   0  0  0  0  0  0  0  0  0  0  0  0
   51.8425   -0.3395   -0.2339 C   0  0  0  0  0  0  0  0  0  0  0  0
   50.6218   -0.3641   -0.2514 C   0  0  0  0  0  0  0  0  0  0  0  0
   53.1949   -0.3206   -0.2184 C   0  0  0  0  0  0  0  0  0  0  0  0
   54.4157   -0.3037   -0.2012 C   0  0  0  0  0  0  0  0  0  0  0  0
   45.7649   -0.4319   -0.2948 Zn  0  0  0  0  0  0  0  0  0  0  0  0
   42.3180   -0.4099   -0.2739 C   0  0  0  0  0  0  0  0  0  0  0  0
   42.9584    0.3062   -1.3026 C   0  0  0  0  0  0  0  0  0  0  0  0
   42.2840    1.0302   -2.3397 C   0  0  0  0  0  0  0  0  0  0  0  0
   43.2438    1.5703   -3.1350 C   0  0  0  0  0  0  0  0  0  0  0  0
   44.5098    1.1841   -2.5844 C   0  0  0  0  0  0  0  0  0  0  0  0
   44.3060    0.4174   -1.4756 N   0  0  0  0  0  0  0  0  0  0  0  0
   45.7619    1.5535   -3.1085 C   0  0  0  0  0  0  0  0  0  0  0  0
   45.7602    2.3346   -4.2859 C   0  0  0  0  0  0  0  0  0  0  0  0
   45.7568    2.9861   -5.3099 C   0  0  0  0  0  0  0  0  0  0  0  0
   45.7522    3.7388   -6.5063 C   0  0  0  0  0  0  0  0  0  0  0  0
   46.9454    4.1635   -7.1028 C   0  0  0  0  0  0  0  0  0  0  0  0
   46.8857    4.8905   -8.2783 C   0  0  0  0  0  0  0  0  0  0  0  0
   45.7422    5.2110   -8.8787 N   0  0  0  0  0  0  0  0  0  0  0  0
   44.6035    4.8117   -8.3177 C   0  0  0  0  0  0  0  0  0  0  0  0
   44.5538    4.0812   -7.1439 C   0  0  0  0  0  0  0  0  0  0  0  0
   47.0151    1.2109   -2.5692 C   0  0  0  0  0  0  0  0  0  0  0  0
   48.2792    1.6253   -3.1031 C   0  0  0  0  0  0  0  0  0  0  0  0
   49.2408    1.0923   -2.3051 C   0  0  0  0  0  0  0  0  0  0  0  0
   47.2216    0.4376   -1.4653 N   0  0  0  0  0  0  0  0  0  0  0  0
   48.5693    0.3447   -1.2830 C   0  0  0  0  0  0  0  0  0  0  0  0
   49.2127   -0.3896   -0.2690 C   0  0  0  0  0  0  0  0  0  0  0  0
   48.5724   -1.1579    0.7216 C   0  0  0  0  0  0  0  0  0  0  0  0
   49.2472   -1.9228    1.7286 C   0  0  0  0  0  0  0  0  0  0  0  0
   48.2876   -2.5200    2.4825 C   0  0  0  0  0  0  0  0  0  0  0  0
   47.0215   -2.1189    1.9429 C   0  0  0  0  0  0  0  0  0  0  0  0
   47.2251   -1.2949    0.8758 N   0  0  0  0  0  0  0  0  0  0  0  0
   45.7695   -2.5119    2.4496 C   0  0  0  0  0  0  0  0  0  0  0  0
   45.7724   -3.3918    3.5551 C   0  0  0  0  0  0  0  0  0  0  0  0
   45.7785   -4.1603    4.4945 C   0  0  0  0  0  0  0  0  0  0  0  0
   45.7893   -5.0616    5.5834 C   0  0  0  0  0  0  0  0  0  0  0  0
   44.5992   -5.5249    6.1568 C   0  0  0  0  0  0  0  0  0  0  0  0
   44.6662   -6.4114    7.2168 C   0  0  0  0  0  0  0  0  0  0  0  0
   45.8139   -6.8518    7.7260 N   0  0  0  0  0  0  0  0  0  0  0  0
   46.9498   -6.4157    7.1869 C   0  0  0  0  0  0  0  0  0  0  0  0
   46.9923   -5.5295    6.1256 C   0  0  0  0  0  0  0  0  0  0  0  0
   44.5162   -2.1102    1.9530 C   0  0  0  0  0  0  0  0  0  0  0  0
   43.2519   -2.5006    2.5046 C   0  0  0  0  0  0  0  0  0  0  0  0
   42.2900   -1.9063    1.7516 C   0  0  0  0  0  0  0  0  0  0  0  0
   42.9613   -1.1548    0.7322 C   0  0  0  0  0  0  0  0  0  0  0  0
   44.3094   -1.2939    0.8808 N   0  0  0  0  0  0  0  0  0  0  0  0
   41.2132    1.1080   -2.4411 H   0  0  0  0  0  0  0  0  0  0  0  0
   43.1141    2.1792   -4.0156 H   0  0  0  0  0  0  0  0  0  0  0  0
   47.8992    3.9239   -6.6485 H   0  0  0  0  0  0  0  0  0  0  0  0
   47.7961    5.2322   -8.7624 H   0  0  0  0  0  0  0  0  0  0  0  0
   43.6890    5.0898   -8.8336 H   0  0  0  0  0  0  0  0  0  0  0  0
   43.6037    3.7759   -6.7224 H   0  0  0  0  0  0  0  0  0  0  0  0
   48.4068    2.2461   -3.9757 H   0  0  0  0  0  0  0  0  0  0  0  0
   50.3110    1.1886   -2.3961 H   0  0  0  0  0  0  0  0  0  0  0  0
   50.3179   -1.9907    1.8373 H   0  0  0  0  0  0  0  0  0  0  0  0
   48.4182   -3.1725    3.3311 H   0  0  0  0  0  0  0  0  0  0  0  0
   43.6420   -5.1928    5.7732 H   0  0  0  0  0  0  0  0  0  0  0  0
   43.7581   -6.7870    7.6797 H   0  0  0  0  0  0  0  0  0  0  0  0
   47.8681   -6.7947    7.6263 H   0  0  0  0  0  0  0  0  0  0  0  0
   47.9404   -5.2011    5.7170 H   0  0  0  0  0  0  0  0  0  0  0  0
   43.1248   -3.1452    3.3599 H   0  0  0  0  0  0  0  0  0  0  0  0
   41.2197   -1.9691    1.8671 H   0  0  0  0  0  0  0  0  0  0  0  0
  2  3  4  0  0  0  0
  3  4  4  0  0  0  0
  4  5  2  0  0  0  0
  5  6  4  0  0  0  0
  1  7  1  0  0  0  0
  3  7  4  0  0  0  0
  6  7  4  0  0  0  0
  6  8  4  0  0  0  0
  8  9  1  0  0  0  0
  9 10  3  0  0  0  0
 10 11  1  0  0  0  0
 11 12  4  0  0  0  0
 12 13  4  0  0  0  0
 13 14  4  0  0  0  0
 14 15  4  0  0  0  0
 11 16  4  0  0  0  0
 15 16  4  0  0  0  0
  8 17  4  0  0  0  0
 17 18  4  0  0  0  0
 18 19  2  0  0  0  0
  1 20  1  0  0  0  0
 17 20  4  0  0  0  0
 19 21  4  0  0  0  0
 20 21  4  0  0  0  0
 21 22  4  0  0  0  0
 22 23  4  0  0  0  0
 23 24  4  0  0  0  0
 24 25  2  0  0  0  0
 25 26  4  0  0  0  0
  1 27  1  0  0  0  0
 23 27  4  0  0  0  0
 26 27  4  0  0  0  0
 26 28  4  0  0  0  0
 28 29  1  0  0  0  0
 29 30  3  0  0  0  0
 30 31  1  0  0  0  0
 31 32  4  0  0  0  0
 32 33  4  0  0  0  0
 33 34  4  0  0  0  0
 34 35  4  0  0  0  0
 31 36  4  0  0  0  0
 35 36  4  0  0  0  0
 28 37  4  0  0  0  0
 37 38  4  0  0  0  0
 38 39  2  0  0  0  0
  2 40  4  0  0  0  0
 39 40  4  0  0  0  0
  1 41  1  0  0  0  0
 37 41  4  0  0  0  0
 40 41  4  0  0  0  0
  2 42  1  0  0  0  0
  4 43  1  0  0  0  0
  5 44  1  0  0  0  0
 12 45  1  0  0  0  0
 13 46  1  0  0  0  0
 15 47  1  0  0  0  0
 16 48  1  0  0  0  0
 18 49  1  0  0  0  0
 19 50  1  0  0  0  0
 24 51  1  0  0  0  0
 25 52  1  0  0  0  0
 32 53  1  0  0  0  0
 33 54  1  0  0  0  0
 35 55  1  0  0  0  0
 36 56  1  0  0  0  0
 38 57  1  0  0  0  0
 39 58  1  0  0  0  0
 60 61  4  0  0  0  0
 61 62  4  0  0  0  0
 62 63  2  0  0  0  0
 63 64  4  0  0  0  0
 59 65  1  0  0  0  0
 61 65  4  0  0  0  0
 64 65  4  0  0  0  0
 64 66  4  0  0  0  0
 66 67  1  0  0  0  0
 67 68  3  0  0  0  0
 68 69  1  0  0  0  0
 69 70  4  0  0  0  0
 70 71  4  0  0  0  0
 71 72  4  0  0  0  0
 72 73  4  0  0  0  0
 69 74  4  0  0  0  0
 73 74  4  0  0  0  0
 66 75  4  0  0  0  0
 75 76  4  0  0  0  0
 76 77  2  0  0  0  0
 59 78  1  0  0  0  0
 75 78  4  0  0  0  0
 77 79  4  0  0  0  0
 78 79  4  0  0  0  0
 79 80  4  0  0  0  0
 80 81  4  0  0  0  0
 81 82  4  0  0  0  0
 82 83  2  0  0  0  0
 83 84  4  0  0  0  0
 59 85  1  0  0  0  0
 81 85  4  0  0  0  0
 84 85  4  0  0  0  0
 84 86  4  0  0  0  0
 86 87  1  0  0  0  0
 87 88  3  0  0  0  0
 88 89  1  0  0  0  0
 89 90  4  0  0  0  0
 90 91  4  0  0  0  0
 91 92  4  0  0  0  0
 92 93  4  0  0  0  0
 89 94  4  0  0  0  0
 93 94  4  0  0  0  0
 86 95  4  0  0  0  0
 95 96  4  0  0  0  0
 96 97  2  0  0  0  0
 60 98  4  0  0  0  0
 97 98  4  0  0  0  0
 59 99  1  0  0  0  0
 95 99  4  0  0  0  0
 98 99  4  0  0  0  0
 60100  1  0  0  0  0
 62101  1  0  0  0  0
 63102  1  0  0  0  0
 70103  1  0  0  0  0
 71104  1  0  0  0  0
 73105  1  0  0  0  0
 74106  1  0  0  0  0
 76107  1  0  0  0  0
 77108  1  0  0  0  0
 82109  1  0  0  0  0
 83110  1  0  0  0  0
 90111  1  0  0  0  0
 91112  1  0  0  0  0
 93113  1  0  0  0  0
 94114  1  0  0  0  0
 96115  1  0  0  0  0
 97116  1  0  0  0  0
 22118  1  0  0  0  0
117118  3  0  0  0  0
117119  4  0  0  0  0
119120  3  0  0  0  0
121122  3  0  0  0  0
121123  4  0  0  0  0
 80124  1  0  0  0  0
123124  3  0  0  0  0
120126  1  0  0  0  0
126127  4  0  0  0  0
127128  4  0  0  0  0
128129  2  0  0  0  0
129130  4  0  0  0  0
125131  1  0  0  0  0
127131  4  0  0  0  0
130131  4  0  0  0  0
130132  4  0  0  0  0
132133  1  0  0  0  0
133134  3  0  0  0  0
134135  1  0  0  0  0
135136  4  0  0  0  0
136137  4  0  0  0  0
137138  4  0  0  0  0
138139  4  0  0  0  0
135140  4  0  0  0  0
139140  4  0  0  0  0
132141  4  0  0  0  0
141142  4  0  0  0  0
142143  2  0  0  0  0
125144  1  0  0  0  0
141144  4  0  0  0  0
143145  4  0  0  0  0
144145  4  0  0  0  0
122146  1  0  0  0  0
145146  4  0  0  0  0
146147  4  0  0  0  0
147148  4  0  0  0  0
148149  2  0  0  0  0
149150  4  0  0  0  0
125151  1  0  0  0  0
147151  4  0  0  0  0
150151  4  0  0  0  0
150152  4  0  0  0  0
152153  1  0  0  0  0
153154  3  0  0  0  0
154155  1  0  0  0  0
155156  4  0  0  0  0
156157  4  0  0  0  0
157158  4  0  0  0  0
158159  4  0  0  0  0
155160  4  0  0  0  0
159160  4  0  0  0  0
152161  4  0  0  0  0
161162  4  0  0  0  0
162163  2  0  0  0  0
126164  4  0  0  0  0
163164  4  0  0  0  0
125165  1  0  0  0  0
161165  4  0  0  0  0
164165  4  0  0  0  0
128166  1  0  0  0  0
129167  1  0  0  0  0
136168  1  0  0  0  0
137169  1  0  0  0  0
139170  1  0  0  0  0
140171  1  0  0  0  0
142172  1  0  0  0  0
143173  1  0  0  0  0
148174  1  0  0  0  0
149175  1  0  0  0  0
156176  1  0  0  0  0
157177  1  0  0  0  0
159178  1  0  0  0  0
160179  1  0  0  0  0
162180  1  0  0  0  0
163181  1  0  0  0  0
M  END
