 xtb: 6.5.1 (b24c23e)
          07302204033D

183212  0     0  0            999 V2000
   34.2638    0.0308    0.0268 Ni  0  0  0  0  0  0  0  0  0  0  0  0
   30.8789    0.0804    0.1063 C   0  0  0  0  0  0  0  0  0  0  0  0
   31.5282    1.0892   -0.5764 C   0  0  0  0  0  0  0  0  0  0  0  0
   30.8583    2.1282   -1.2964 C   0  0  0  0  0  0  0  0  0  0  0  0
   31.8148    2.9931   -1.7112 C   0  0  0  0  0  0  0  0  0  0  0  0
   33.0674    2.4909   -1.2282 C   0  0  0  0  0  0  0  0  0  0  0  0
   32.8854    1.2950   -0.5793 N   0  0  0  0  0  0  0  0  0  0  0  0
   34.2745    3.1740   -1.3235 C   0  0  0  0  0  0  0  0  0  0  0  0
   34.2900    4.5308   -1.9141 C   0  0  0  0  0  0  0  0  0  0  0  0
   35.0867    4.8099   -3.0277 C   0  0  0  0  0  0  0  0  0  0  0  0
   35.1099    6.0759   -3.5845 C   0  0  0  0  0  0  0  0  0  0  0  0
   34.3444    7.1020   -3.0245 C   0  0  0  0  0  0  0  0  0  0  0  0
   34.3378    8.3610   -3.6000 N   0  0  0  0  0  0  0  0  0  0  0  0
   33.5413    6.8303   -1.9139 C   0  0  0  0  0  0  0  0  0  0  0  0
   33.5157    5.5584   -1.3697 C   0  0  0  0  0  0  0  0  0  0  0  0
   35.4725    2.6284   -0.8762 C   0  0  0  0  0  0  0  0  0  0  0  0
   36.7182    3.3324   -0.8637 C   0  0  0  0  0  0  0  0  0  0  0  0
   37.6686    2.4405   -0.4909 C   0  0  0  0  0  0  0  0  0  0  0  0
   35.6535    1.3297   -0.4580 N   0  0  0  0  0  0  0  0  0  0  0  0
   37.0033    1.1966   -0.2735 C   0  0  0  0  0  0  0  0  0  0  0  0
   37.6697   -0.0062   -0.0210 C   0  0  0  0  0  0  0  0  0  0  0  0
   36.9861   -1.1968    0.2425 C   0  0  0  0  0  0  0  0  0  0  0  0
   37.6305   -2.4566    0.4292 C   0  0  0  0  0  0  0  0  0  0  0  0
   36.6702   -3.3336    0.8124 C   0  0  0  0  0  0  0  0  0  0  0  0
   35.4408   -2.6033    0.8675 C   0  0  0  0  0  0  0  0  0  0  0  0
   35.6389   -1.3036    0.4597 N   0  0  0  0  0  0  0  0  0  0  0  0
   34.2456   -3.1236    1.3512 C   0  0  0  0  0  0  0  0  0  0  0  0
   34.2437   -4.4878    1.9242 C   0  0  0  0  0  0  0  0  0  0  0  0
   35.0773   -4.8078    2.9992 C   0  0  0  0  0  0  0  0  0  0  0  0
   35.0807   -6.0809    3.5403 C   0  0  0  0  0  0  0  0  0  0  0  0
   34.2563   -7.0730    3.0033 C   0  0  0  0  0  0  0  0  0  0  0  0
   34.2298   -8.3377    3.5653 N   0  0  0  0  0  0  0  0  0  0  0  0
   33.4161   -6.7602    1.9315 C   0  0  0  0  0  0  0  0  0  0  0  0
   33.4115   -5.4817    1.4028 C   0  0  0  0  0  0  0  0  0  0  0  0
   33.0558   -2.4049    1.3159 C   0  0  0  0  0  0  0  0  0  0  0  0
   31.8134   -2.8733    1.8559 C   0  0  0  0  0  0  0  0  0  0  0  0
   30.8652   -1.9745    1.4981 C   0  0  0  0  0  0  0  0  0  0  0  0
   31.5305   -0.9501    0.7532 C   0  0  0  0  0  0  0  0  0  0  0  0
   32.8793   -1.1975    0.6872 N   0  0  0  0  0  0  0  0  0  0  0  0
   29.7955    0.0970    0.1336 H   0  0  0  0  0  0  0  0  0  0  0  0
   29.7925    2.1732   -1.4552 H   0  0  0  0  0  0  0  0  0  0  0  0
   31.6950    3.8921   -2.2937 H   0  0  0  0  0  0  0  0  0  0  0  0
   35.6783    4.0168   -3.4718 H   0  0  0  0  0  0  0  0  0  0  0  0
   35.7237    6.2772   -4.4557 H   0  0  0  0  0  0  0  0  0  0  0  0
   35.1520    8.5804   -4.1516 H   0  0  0  0  0  0  0  0  0  0  0  0
   34.0489    9.1070   -2.9875 H   0  0  0  0  0  0  0  0  0  0  0  0
   32.9426    7.6220   -1.4769 H   0  0  0  0  0  0  0  0  0  0  0  0
   32.9054    5.3612   -0.4951 H   0  0  0  0  0  0  0  0  0  0  0  0
   36.8400    4.3767   -1.1011 H   0  0  0  0  0  0  0  0  0  0  0  0
   38.7272    2.6002   -0.3668 H   0  0  0  0  0  0  0  0  0  0  0  0
   38.6826   -2.6359    0.2784 H   0  0  0  0  0  0  0  0  0  0  0  0
   36.7753   -4.3836    1.0322 H   0  0  0  0  0  0  0  0  0  0  0  0
   35.7138   -4.0409    3.4270 H   0  0  0  0  0  0  0  0  0  0  0  0
   35.7241   -6.3137    4.3818 H   0  0  0  0  0  0  0  0  0  0  0  0
   35.0567   -8.5907    4.0824 H   0  0  0  0  0  0  0  0  0  0  0  0
   33.8909   -9.0665    2.9578 H   0  0  0  0  0  0  0  0  0  0  0  0
   32.7715   -7.5254    1.5128 H   0  0  0  0  0  0  0  0  0  0  0  0
   32.7709   -5.2525    0.5582 H   0  0  0  0  0  0  0  0  0  0  0  0
   31.6946   -3.7738    2.4364 H   0  0  0  0  0  0  0  0  0  0  0  0
   29.8078   -1.9877    1.7100 H   0  0  0  0  0  0  0  0  0  0  0  0
   55.9717   -0.0319    0.0610 Ni  0  0  0  0  0  0  0  0  0  0  0  0
   59.3633   -0.0047    0.1571 C   0  0  0  0  0  0  0  0  0  0  0  0
   58.7095   -1.1110    0.6588 C   0  0  0  0  0  0  0  0  0  0  0  0
   59.3837   -2.2603    1.1797 C   0  0  0  0  0  0  0  0  0  0  0  0
   58.4253   -3.0891    1.6571 C   0  0  0  0  0  0  0  0  0  0  0  0
   57.1668   -2.4383    1.4398 C   0  0  0  0  0  0  0  0  0  0  0  0
   57.3495   -1.2420    0.7918 N   0  0  0  0  0  0  0  0  0  0  0  0
   55.9484   -2.9414    1.8793 C   0  0  0  0  0  0  0  0  0  0  0  0
   55.9352   -4.1942    2.6695 C   0  0  0  0  0  0  0  0  0  0  0  0
   55.2431   -5.3176    2.2110 C   0  0  0  0  0  0  0  0  0  0  0  0
   55.2265   -6.4893    2.9467 C   0  0  0  0  0  0  0  0  0  0  0  0
   55.8925   -6.5565    4.1731 C   0  0  0  0  0  0  0  0  0  0  0  0
   55.9088   -7.7382    4.8945 N   0  0  0  0  0  0  0  0  0  0  0  0
   56.5911   -5.4387    4.6362 C   0  0  0  0  0  0  0  0  0  0  0  0
   56.6114   -4.2742    3.8892 C   0  0  0  0  0  0  0  0  0  0  0  0
   54.7404   -2.3097    1.6110 C   0  0  0  0  0  0  0  0  0  0  0  0
   53.4777   -2.7667    2.1064 C   0  0  0  0  0  0  0  0  0  0  0  0
   52.5312   -1.9562    1.5745 C   0  0  0  0  0  0  0  0  0  0  0  0
   54.5704   -1.1998    0.8146 N   0  0  0  0  0  0  0  0  0  0  0  0
   53.2171   -1.0019    0.7636 C   0  0  0  0  0  0  0  0  0  0  0  0
   52.5609   -0.0426   -0.0103 C   0  0  0  0  0  0  0  0  0  0  0  0
   53.2426    0.9147   -0.7642 C   0  0  0  0  0  0  0  0  0  0  0  0
   52.5855    1.8549   -1.6143 C   0  0  0  0  0  0  0  0  0  0  0  0
   53.5492    2.6618   -2.1205 C   0  0  0  0  0  0  0  0  0  0  0  0
   54.7926    2.2197   -1.5662 C   0  0  0  0  0  0  0  0  0  0  0  0
   54.5959    1.1189   -0.7631 N   0  0  0  0  0  0  0  0  0  0  0  0
   56.0059    2.8606   -1.7840 C   0  0  0  0  0  0  0  0  0  0  0  0
   56.0218    4.0991   -2.5962 C   0  0  0  0  0  0  0  0  0  0  0  0
   55.2940    5.2235   -2.1995 C   0  0  0  0  0  0  0  0  0  0  0  0
   55.3050    6.3796   -2.9596 C   0  0  0  0  0  0  0  0  0  0  0  0
   56.0362    6.4298   -4.1491 C   0  0  0  0  0  0  0  0  0  0  0  0
   56.0784    7.5960   -4.8941 N   0  0  0  0  0  0  0  0  0  0  0  0
   56.7720    5.3115   -4.5494 C   0  0  0  0  0  0  0  0  0  0  0  0
   56.7638    4.1629   -3.7781 C   0  0  0  0  0  0  0  0  0  0  0  0
   57.2053    2.3806   -1.2718 C   0  0  0  0  0  0  0  0  0  0  0  0
   58.4634    3.0507   -1.4225 C   0  0  0  0  0  0  0  0  0  0  0  0
   59.4055    2.2446   -0.8787 C   0  0  0  0  0  0  0  0  0  0  0  0
   58.7213    1.0885   -0.3867 C   0  0  0  0  0  0  0  0  0  0  0  0
   57.3694    1.1946   -0.6006 N   0  0  0  0  0  0  0  0  0  0  0  0
   60.4467    0.0046    0.1890 H   0  0  0  0  0  0  0  0  0  0  0  0
   60.4533   -2.3984    1.1697 H   0  0  0  0  0  0  0  0  0  0  0  0
   58.5466   -4.0585    2.1125 H   0  0  0  0  0  0  0  0  0  0  0  0
   54.7293   -5.2747    1.2569 H   0  0  0  0  0  0  0  0  0  0  0  0
   54.6949   -7.3586    2.5752 H   0  0  0  0  0  0  0  0  0  0  0  0
   55.1463   -8.3666    4.6972 H   0  0  0  0  0  0  0  0  0  0  0  0
   56.1042   -7.6328    5.8774 H   0  0  0  0  0  0  0  0  0  0  0  0
   57.1130   -5.4862    5.5857 H   0  0  0  0  0  0  0  0  0  0  0  0
   57.1407   -3.4049    4.2639 H   0  0  0  0  0  0  0  0  0  0  0  0
   53.3429   -3.5957    2.7819 H   0  0  0  0  0  0  0  0  0  0  0  0
   51.4626   -1.9877    1.7141 H   0  0  0  0  0  0  0  0  0  0  0  0
   51.5233    1.8782   -1.7975 H   0  0  0  0  0  0  0  0  0  0  0  0
   53.4379    3.4798   -2.8133 H   0  0  0  0  0  0  0  0  0  0  0  0
   54.7297    5.1945   -1.2738 H   0  0  0  0  0  0  0  0  0  0  0  0
   54.7444    7.2499   -2.6361 H   0  0  0  0  0  0  0  0  0  0  0  0
   55.2999    8.2196   -4.7520 H   0  0  0  0  0  0  0  0  0  0  0  0
   56.3285    7.4727   -5.8623 H   0  0  0  0  0  0  0  0  0  0  0  0
   57.3451    5.3461   -5.4695 H   0  0  0  0  0  0  0  0  0  0  0  0
   57.3229    3.2927   -4.1043 H   0  0  0  0  0  0  0  0  0  0  0  0
   58.5949    4.0173   -1.8812 H   0  0  0  0  0  0  0  0  0  0  0  0
   60.4701    2.4014   -0.8071 H   0  0  0  0  0  0  0  0  0  0  0  0
   39.0780   -0.0194   -0.0356 C   0  0  0  0  0  0  0  0  0  0  0  0
   40.2945   -0.0271   -0.0440 C   0  0  0  0  0  0  0  0  0  0  0  0
   49.9357   -0.0388   -0.0411 C   0  0  0  0  0  0  0  0  0  0  0  0
   51.1514   -0.0412   -0.0301 C   0  0  0  0  0  0  0  0  0  0  0  0
   45.1155   -0.0290   -0.0239 Ni  0  0  0  0  0  0  0  0  0  0  0  0
   41.7029   -0.0324   -0.0476 C   0  0  0  0  0  0  0  0  0  0  0  0
   42.3792    1.0497   -0.6182 C   0  0  0  0  0  0  0  0  0  0  0  0
   41.7154    2.1614   -1.2193 C   0  0  0  0  0  0  0  0  0  0  0  0
   42.6681    3.0868   -1.4881 C   0  0  0  0  0  0  0  0  0  0  0  0
   43.9167    2.5291   -1.0682 C   0  0  0  0  0  0  0  0  0  0  0  0
   43.7304    1.2605   -0.5658 N   0  0  0  0  0  0  0  0  0  0  0  0
   45.1145    3.2324   -1.0515 C   0  0  0  0  0  0  0  0  0  0  0  0
   45.1095    4.6608   -1.4524 C   0  0  0  0  0  0  0  0  0  0  0  0
   44.8161    5.0407   -2.7629 C   0  0  0  0  0  0  0  0  0  0  0  0
   44.8104    6.3760   -3.1278 C   0  0  0  0  0  0  0  0  0  0  0  0
   45.0977    7.3629   -2.1819 C   0  0  0  0  0  0  0  0  0  0  0  0
   45.0434    8.7024   -2.5304 N   0  0  0  0  0  0  0  0  0  0  0  0
   45.3826    6.9898   -0.8661 C   0  0  0  0  0  0  0  0  0  0  0  0
   45.3946    5.6524   -0.5116 C   0  0  0  0  0  0  0  0  0  0  0  0
   46.3173    2.6563   -0.6641 C   0  0  0  0  0  0  0  0  0  0  0  0
   47.5717    3.3449   -0.6818 C   0  0  0  0  0  0  0  0  0  0  0  0
   48.5284    2.4243   -0.4102 C   0  0  0  0  0  0  0  0  0  0  0  0
   46.5041    1.3272   -0.3577 N   0  0  0  0  0  0  0  0  0  0  0  0
   47.8579    1.1765   -0.2304 C   0  0  0  0  0  0  0  0  0  0  0  0
   48.5266   -0.0345   -0.0373 C   0  0  0  0  0  0  0  0  0  0  0  0
   47.8531   -1.2410    0.1687 C   0  0  0  0  0  0  0  0  0  0  0  0
   48.5148   -2.4980    0.3088 C   0  0  0  0  0  0  0  0  0  0  0  0
   47.5577   -3.4108    0.6066 C   0  0  0  0  0  0  0  0  0  0  0  0
   46.3147   -2.7044    0.6604 C   0  0  0  0  0  0  0  0  0  0  0  0
   46.5025   -1.3792    0.3387 N   0  0  0  0  0  0  0  0  0  0  0  0
   45.1117   -3.2737    1.0613 C   0  0  0  0  0  0  0  0  0  0  0  0
   45.1084   -4.6789    1.5251 C   0  0  0  0  0  0  0  0  0  0  0  0
   44.3069   -5.6341    0.8943 C   0  0  0  0  0  0  0  0  0  0  0  0
   44.3090   -6.9520    1.3149 C   0  0  0  0  0  0  0  0  0  0  0  0
   45.1162   -7.3449    2.3855 C   0  0  0  0  0  0  0  0  0  0  0  0
   45.0872   -8.6529    2.8386 N   0  0  0  0  0  0  0  0  0  0  0  0
   45.9086   -6.3929    3.0321 C   0  0  0  0  0  0  0  0  0  0  0  0
   45.9078   -5.0790    2.5991 C   0  0  0  0  0  0  0  0  0  0  0  0
   43.9111   -2.5737    1.0369 C   0  0  0  0  0  0  0  0  0  0  0  0
   42.6676   -3.0998    1.5094 C   0  0  0  0  0  0  0  0  0  0  0  0
   41.7123   -2.1919    1.1912 C   0  0  0  0  0  0  0  0  0  0  0  0
   42.3746   -1.1110    0.5355 C   0  0  0  0  0  0  0  0  0  0  0  0
   43.7253   -1.3248    0.4883 N   0  0  0  0  0  0  0  0  0  0  0  0
   40.6539    2.2198   -1.3959 H   0  0  0  0  0  0  0  0  0  0  0  0
   42.5422    4.0661   -1.9199 H   0  0  0  0  0  0  0  0  0  0  0  0
   44.6080    4.2794   -3.5067 H   0  0  0  0  0  0  0  0  0  0  0  0
   44.5858    6.6602   -4.1501 H   0  0  0  0  0  0  0  0  0  0  0  0
   45.1639    8.8900   -3.5131 H   0  0  0  0  0  0  0  0  0  0  0  0
   45.5720    9.3174   -1.9324 H   0  0  0  0  0  0  0  0  0  0  0  0
   45.5948    7.7522   -0.1245 H   0  0  0  0  0  0  0  0  0  0  0  0
   45.6102    5.3691    0.5129 H   0  0  0  0  0  0  0  0  0  0  0  0
   47.6968    4.3937   -0.8964 H   0  0  0  0  0  0  0  0  0  0  0  0
   49.5956    2.5622   -0.3442 H   0  0  0  0  0  0  0  0  0  0  0  0
   49.5752   -2.6501    0.1873 H   0  0  0  0  0  0  0  0  0  0  0  0
   47.6744   -4.4699    0.7691 H   0  0  0  0  0  0  0  0  0  0  0  0
   43.6928   -5.3413    0.0497 H   0  0  0  0  0  0  0  0  0  0  0  0
   43.6881   -7.6854    0.8119 H   0  0  0  0  0  0  0  0  0  0  0  0
   45.9028   -8.9413    3.3553 H   0  0  0  0  0  0  0  0  0  0  0  0
   44.7769   -9.3300    2.1599 H   0  0  0  0  0  0  0  0  0  0  0  0
   46.5254   -6.6891    3.8736 H   0  0  0  0  0  0  0  0  0  0  0  0
   46.5185   -4.3443    3.1123 H   0  0  0  0  0  0  0  0  0  0  0  0
   42.5498   -4.0390    2.0248 H   0  0  0  0  0  0  0  0  0  0  0  0
   40.6527   -2.2364    1.3833 H   0  0  0  0  0  0  0  0  0  0  0  0
  2  3  4  0  0  0  0
  3  4  4  0  0  0  0
  4  5  2  0  0  0  0
  5  6  4  0  0  0  0
  1  7  1  0  0  0  0
  3  7  4  0  0  0  0
  6  7  4  0  0  0  0
  6  8  4  0  0  0  0
  8  9  1  0  0  0  0
  9 10  4  0  0  0  0
 10 11  4  0  0  0  0
 11 12  4  0  0  0  0
 12 13  1  0  0  0  0
 12 14  4  0  0  0  0
  9 15  4  0  0  0  0
 14 15  4  0  0  0  0
  8 16  4  0  0  0  0
 16 17  4  0  0  0  0
 17 18  2  0  0  0  0
  1 19  1  0  0  0  0
 16 19  4  0  0  0  0
 18 20  4  0  0  0  0
 19 20  4  0  0  0  0
 20 21  4  0  0  0  0
 21 22  4  0  0  0  0
 22 23  4  0  0  0  0
 23 24  2  0  0  0  0
 24 25  4  0  0  0  0
  1 26  1  0  0  0  0
 22 26  4  0  0  0  0
 25 26  4  0  0  0  0
 25 27  4  0  0  0  0
 27 28  1  0  0  0  0
 28 29  4  0  0  0  0
 29 30  4  0  0  0  0
 30 31  4  0  0  0  0
 31 32  1  0  0  0  0
 31 33  4  0  0  0  0
 28 34  4  0  0  0  0
 33 34  4  0  0  0  0
 27 35  4  0  0  0  0
 35 36  4  0  0  0  0
 36 37  2  0  0  0  0
  2 38  4  0  0  0  0
 37 38  4  0  0  0  0
  1 39  1  0  0  0  0
 35 39  4  0  0  0  0
 38 39  4  0  0  0  0
  2 40  1  0  0  0  0
  4 41  1  0  0  0  0
  5 42  1  0  0  0  0
 10 43  1  0  0  0  0
 11 44  1  0  0  0  0
 13 45  1  0  0  0  0
 13 46  1  0  0  0  0
 14 47  1  0  0  0  0
 15 48  1  0  0  0  0
 17 49  1  0  0  0  0
 18 50  1  0  0  0  0
 23 51  1  0  0  0  0
 24 52  1  0  0  0  0
 29 53  1  0  0  0  0
 30 54  1  0  0  0  0
 32 55  1  0  0  0  0
 32 56  1  0  0  0  0
 33 57  1  0  0  0  0
 34 58  1  0  0  0  0
 36 59  1  0  0  0  0
 37 60  1  0  0  0  0
 62 63  4  0  0  0  0
 63 64  4  0  0  0  0
 64 65  2  0  0  0  0
 65 66  4  0  0  0  0
 61 67  1  0  0  0  0
 63 67  4  0  0  0  0
 66 67  4  0  0  0  0
 66 68  4  0  0  0  0
 68 69  1  0  0  0  0
 69 70  4  0  0  0  0
 70 71  4  0  0  0  0
 71 72  4  0  0  0  0
 72 73  1  0  0  0  0
 72 74  4  0  0  0  0
 69 75  4  0  0  0  0
 74 75  4  0  0  0  0
 68 76  4  0  0  0  0
 76 77  4  0  0  0  0
 77 78  2  0  0  0  0
 61 79  1  0  0  0  0
 76 79  4  0  0  0  0
 78 80  4  0  0  0  0
 79 80  4  0  0  0  0
 80 81  4  0  0  0  0
 81 82  4  0  0  0  0
 82 83  4  0  0  0  0
 83 84  2  0  0  0  0
 84 85  4  0  0  0  0
 61 86  1  0  0  0  0
 82 86  4  0  0  0  0
 85 86  4  0  0  0  0
 85 87  4  0  0  0  0
 87 88  1  0  0  0  0
 88 89  4  0  0  0  0
 89 90  4  0  0  0  0
 90 91  4  0  0  0  0
 91 92  1  0  0  0  0
 91 93  4  0  0  0  0
 88 94  4  0  0  0  0
 93 94  4  0  0  0  0
 87 95  4  0  0  0  0
 95 96  4  0  0  0  0
 96 97  2  0  0  0  0
 62 98  4  0  0  0  0
 97 98  4  0  0  0  0
 61 99  1  0  0  0  0
 95 99  4  0  0  0  0
 98 99  4  0  0  0  0
 62100  1  0  0  0  0
 64101  1  0  0  0  0
 65102  1  0  0  0  0
 70103  1  0  0  0  0
 71104  1  0  0  0  0
 73105  1  0  0  0  0
 73106  1  0  0  0  0
 74107  1  0  0  0  0
 75108  1  0  0  0  0
 77109  1  0  0  0  0
 78110  1  0  0  0  0
 83111  1  0  0  0  0
 84112  1  0  0  0  0
 89113  1  0  0  0  0
 90114  1  0  0  0  0
 92115  1  0  0  0  0
 92116  1  0  0  0  0
 93117  1  0  0  0  0
 94118  1  0  0  0  0
 96119  1  0  0  0  0
 97120  1  0  0  0  0
 21121  4  0  0  0  0
121122  3  0  0  0  0
 81124  4  0  0  0  0
123124  3  0  0  0  0
122126  4  0  0  0  0
126127  4  0  0  0  0
127128  4  0  0  0  0
128129  2  0  0  0  0
129130  4  0  0  0  0
125131  1  0  0  0  0
127131  4  0  0  0  0
130131  4  0  0  0  0
130132  4  0  0  0  0
132133  1  0  0  0  0
133134  4  0  0  0  0
134135  4  0  0  0  0
135136  4  0  0  0  0
136137  1  0  0  0  0
136138  4  0  0  0  0
133139  4  0  0  0  0
138139  4  0  0  0  0
132140  4  0  0  0  0
140141  4  0  0  0  0
141142  2  0  0  0  0
125143  1  0  0  0  0
140143  4  0  0  0  0
142144  4  0  0  0  0
143144  4  0  0  0  0
123145  4  0  0  0  0
144145  4  0  0  0  0
145146  4  0  0  0  0
146147  4  0  0  0  0
147148  2  0  0  0  0
148149  4  0  0  0  0
125150  1  0  0  0  0
146150  4  0  0  0  0
149150  4  0  0  0  0
149151  4  0  0  0  0
151152  1  0  0  0  0
152153  4  0  0  0  0
153154  4  0  0  0  0
154155  4  0  0  0  0
155156  1  0  0  0  0
155157  4  0  0  0  0
152158  4  0  0  0  0
157158  4  0  0  0  0
151159  4  0  0  0  0
159160  4  0  0  0  0
160161  2  0  0  0  0
126162  4  0  0  0  0
161162  4  0  0  0  0
125163  1  0  0  0  0
159163  4  0  0  0  0
162163  4  0  0  0  0
128164  1  0  0  0  0
129165  1  0  0  0  0
134166  1  0  0  0  0
135167  1  0  0  0  0
137168  1  0  0  0  0
137169  1  0  0  0  0
138170  1  0  0  0  0
139171  1  0  0  0  0
141172  1  0  0  0  0
142173  1  0  0  0  0
147174  1  0  0  0  0
148175  1  0  0  0  0
153176  1  0  0  0  0
154177  1  0  0  0  0
156178  1  0  0  0  0
156179  1  0  0  0  0
157180  1  0  0  0  0
158181  1  0  0  0  0
160182  1  0  0  0  0
161183  1  0  0  0  0
M  END
