 xtb: 6.5.1 (b24c23e)
          07272213513D

180200  0     0  0            999 V2000
   28.0391    0.0537    0.0616 C   0  0  0  0  0  0  0  0  0  0  0  0
   28.6434    1.2248    0.4994 C   0  0  0  0  0  0  0  0  0  0  0  0
   27.9848    2.3989    0.9625 C   0  0  0  0  0  0  0  0  0  0  0  0
   28.9413    3.3184    1.2883 C   0  0  0  0  0  0  0  0  0  0  0  0
   30.2166    2.7403    1.0266 C   0  0  0  0  0  0  0  0  0  0  0  0
   29.9850    1.4754    0.5625 N   0  0  0  0  0  0  0  0  0  0  0  0
   31.4758    3.3172    1.2189 C   0  0  0  0  0  0  0  0  0  0  0  0
   31.5072    4.7197    1.7007 C   0  0  0  0  0  0  0  0  0  0  0  0
   30.9594    5.7193    0.9931 C   0  0  0  0  0  0  0  0  0  0  0  0
   30.9667    7.1484    1.4703 C   0  0  0  0  0  0  0  0  0  0  0  0
   31.9417    7.3428    2.5466 N   0  0  0  0  0  0  0  0  0  0  0  0
   32.3222    6.2927    3.3413 C   0  0  0  0  0  0  0  0  0  0  0  0
   32.1664    5.0110    2.9658 C   0  0  0  0  0  0  0  0  0  0  0  0
   32.6926    2.6681    0.9864 C   0  0  0  0  0  0  0  0  0  0  0  0
   33.9910    3.2977    1.1497 C   0  0  0  0  0  0  0  0  0  0  0  0
   34.9116    2.3673    0.8236 C   0  0  0  0  0  0  0  0  0  0  0  0
   32.8449    1.3881    0.5557 N   0  0  0  0  0  0  0  0  0  0  0  0
   34.1751    1.1738    0.4522 C   0  0  0  0  0  0  0  0  0  0  0  0
   34.8069   -0.0113    0.0419 C   0  0  0  0  0  0  0  0  0  0  0  0
   34.1813   -1.1981   -0.3711 C   0  0  0  0  0  0  0  0  0  0  0  0
   34.8345   -2.4008   -0.7542 C   0  0  0  0  0  0  0  0  0  0  0  0
   33.8742   -3.3179   -1.0784 C   0  0  0  0  0  0  0  0  0  0  0  0
   32.6030   -2.7011   -0.9124 C   0  0  0  0  0  0  0  0  0  0  0  0
   32.8404   -1.4238   -0.4790 N   0  0  0  0  0  0  0  0  0  0  0  0
   31.3440   -3.2764   -1.1182 C   0  0  0  0  0  0  0  0  0  0  0  0
   31.3211   -4.6804   -1.5933 C   0  0  0  0  0  0  0  0  0  0  0  0
   30.7348   -5.6542   -0.8806 C   0  0  0  0  0  0  0  0  0  0  0  0
   30.6880   -7.0848   -1.3502 C   0  0  0  0  0  0  0  0  0  0  0  0
   31.6678   -7.3258   -2.4131 N   0  0  0  0  0  0  0  0  0  0  0  0
   32.0869   -6.2966   -3.2167 C   0  0  0  0  0  0  0  0  0  0  0  0
   31.9753   -5.0069   -2.8531 C   0  0  0  0  0  0  0  0  0  0  0  0
   30.1271   -2.6204   -0.9044 C   0  0  0  0  0  0  0  0  0  0  0  0
   28.8226   -3.2000   -1.1834 C   0  0  0  0  0  0  0  0  0  0  0  0
   27.9090   -2.2664   -0.8482 C   0  0  0  0  0  0  0  0  0  0  0  0
   28.6541   -1.1129   -0.3759 C   0  0  0  0  0  0  0  0  0  0  0  0
   29.9854   -1.3582   -0.4324 N   0  0  0  0  0  0  0  0  0  0  0  0
   26.9536    0.0598    0.0629 H   0  0  0  0  0  0  0  0  0  0  0  0
   26.9146    2.5097    1.0378 H   0  0  0  0  0  0  0  0  0  0  0  0
   28.7845    4.3085    1.6848 H   0  0  0  0  0  0  0  0  0  0  0  0
   30.7154    0.8196    0.3060 H   0  0  0  0  0  0  0  0  0  0  0  0
   30.4715    5.5449    0.0411 H   0  0  0  0  0  0  0  0  0  0  0  0
   29.9571    7.4413    1.8153 H   0  0  0  0  0  0  0  0  0  0  0  0
   31.2344    7.8215    0.6445 H   0  0  0  0  0  0  0  0  0  0  0  0
   31.8785    8.2442    2.9970 H   0  0  0  0  0  0  0  0  0  0  0  0
   32.8330    6.5767    4.2558 H   0  0  0  0  0  0  0  0  0  0  0  0
   32.5174    4.1963    3.5831 H   0  0  0  0  0  0  0  0  0  0  0  0
   34.1532    4.3165    1.4627 H   0  0  0  0  0  0  0  0  0  0  0  0
   35.9863    2.4562    0.8182 H   0  0  0  0  0  0  0  0  0  0  0  0
   35.9039   -2.5374   -0.7695 H   0  0  0  0  0  0  0  0  0  0  0  0
   34.0286   -4.3353   -1.3994 H   0  0  0  0  0  0  0  0  0  0  0  0
   32.1119   -0.7524   -0.2595 H   0  0  0  0  0  0  0  0  0  0  0  0
   30.2499   -5.4545    0.0678 H   0  0  0  0  0  0  0  0  0  0  0  0
   29.6715   -7.3369   -1.7066 H   0  0  0  0  0  0  0  0  0  0  0  0
   30.9174   -7.7636   -0.5179 H   0  0  0  0  0  0  0  0  0  0  0  0
   31.5691   -8.2261   -2.8598 H   0  0  0  0  0  0  0  0  0  0  0  0
   32.5914   -6.6065   -4.1263 H   0  0  0  0  0  0  0  0  0  0  0  0
   32.3544   -4.2111   -3.4786 H   0  0  0  0  0  0  0  0  0  0  0  0
   28.6535   -4.1823   -1.5945 H   0  0  0  0  0  0  0  0  0  0  0  0
   26.8333   -2.3201   -0.9126 H   0  0  0  0  0  0  0  0  0  0  0  0
   56.5181   -0.0636   -0.0446 C   0  0  0  0  0  0  0  0  0  0  0  0
   55.9122   -1.2834   -0.3146 C   0  0  0  0  0  0  0  0  0  0  0  0
   56.5681   -2.5248   -0.5498 C   0  0  0  0  0  0  0  0  0  0  0  0
   55.6102   -3.4691   -0.7900 C   0  0  0  0  0  0  0  0  0  0  0  0
   54.3370   -2.8339   -0.7205 C   0  0  0  0  0  0  0  0  0  0  0  0
   54.5708   -1.5212   -0.4190 N   0  0  0  0  0  0  0  0  0  0  0  0
   53.0776   -3.4127   -0.9052 C   0  0  0  0  0  0  0  0  0  0  0  0
   53.0428   -4.8521   -1.2610 C   0  0  0  0  0  0  0  0  0  0  0  0
   53.6210   -5.3180   -2.3784 C   0  0  0  0  0  0  0  0  0  0  0  0
   53.6123   -6.7794   -2.7455 C   0  0  0  0  0  0  0  0  0  0  0  0
   52.6038   -7.5130   -1.9766 N   0  0  0  0  0  0  0  0  0  0  0  0
   52.1892   -7.0532   -0.7536 C   0  0  0  0  0  0  0  0  0  0  0  0
   52.3464   -5.7729   -0.3738 C   0  0  0  0  0  0  0  0  0  0  0  0
   51.8624   -2.7325   -0.7752 C   0  0  0  0  0  0  0  0  0  0  0  0
   50.5655   -3.3358   -1.0267 C   0  0  0  0  0  0  0  0  0  0  0  0
   49.6454   -2.3777   -0.7926 C   0  0  0  0  0  0  0  0  0  0  0  0
   51.7104   -1.4306   -0.4167 N   0  0  0  0  0  0  0  0  0  0  0  0
   50.3808   -1.1885   -0.4054 C   0  0  0  0  0  0  0  0  0  0  0  0
   49.7491    0.0146   -0.0517 C   0  0  0  0  0  0  0  0  0  0  0  0
   50.3764    1.2199    0.3006 C   0  0  0  0  0  0  0  0  0  0  0  0
   49.7261    2.4259    0.6779 C   0  0  0  0  0  0  0  0  0  0  0  0
   50.6878    3.3691    0.9105 C   0  0  0  0  0  0  0  0  0  0  0  0
   51.9569    2.7704    0.6757 C   0  0  0  0  0  0  0  0  0  0  0  0
   51.7173    1.4701    0.3196 N   0  0  0  0  0  0  0  0  0  0  0  0
   53.2160    3.3692    0.7976 C   0  0  0  0  0  0  0  0  0  0  0  0
   53.2389    4.8049    1.1653 C   0  0  0  0  0  0  0  0  0  0  0  0
   53.8474    5.2382    2.2798 C   0  0  0  0  0  0  0  0  0  0  0  0
   53.8960    6.6948    2.6608 C   0  0  0  0  0  0  0  0  0  0  0  0
   52.8944    7.4693    1.9227 N   0  0  0  0  0  0  0  0  0  0  0  0
   52.4499    7.0398    0.6985 C   0  0  0  0  0  0  0  0  0  0  0  0
   52.5599    5.7603    0.3003 C   0  0  0  0  0  0  0  0  0  0  0  0
   54.4321    2.7073    0.5981 C   0  0  0  0  0  0  0  0  0  0  0  0
   55.7364    3.3474    0.6668 C   0  0  0  0  0  0  0  0  0  0  0  0
   56.6494    2.3816    0.4383 C   0  0  0  0  0  0  0  0  0  0  0  0
   55.9041    1.1555    0.2152 C   0  0  0  0  0  0  0  0  0  0  0  0
   54.5731    1.3916    0.3069 N   0  0  0  0  0  0  0  0  0  0  0  0
   57.6036   -0.0721   -0.0394 H   0  0  0  0  0  0  0  0  0  0  0  0
   57.6372   -2.6647   -0.5281 H   0  0  0  0  0  0  0  0  0  0  0  0
   55.7649   -4.5170   -0.9899 H   0  0  0  0  0  0  0  0  0  0  0  0
   53.8421   -0.8271   -0.2904 H   0  0  0  0  0  0  0  0  0  0  0  0
   54.1364   -4.6630   -3.0713 H   0  0  0  0  0  0  0  0  0  0  0  0
   54.6129   -7.2211   -2.5780 H   0  0  0  0  0  0  0  0  0  0  0  0
   53.3797   -6.9002   -3.8122 H   0  0  0  0  0  0  0  0  0  0  0  0
   52.6600   -8.5157   -2.0815 H   0  0  0  0  0  0  0  0  0  0  0  0
   51.6514   -7.7800   -0.1530 H   0  0  0  0  0  0  0  0  0  0  0  0
   51.9687   -5.4158    0.5736 H   0  0  0  0  0  0  0  0  0  0  0  0
   50.4045   -4.3525   -1.3472 H   0  0  0  0  0  0  0  0  0  0  0  0
   48.5718   -2.4410   -0.8720 H   0  0  0  0  0  0  0  0  0  0  0  0
   48.6576    2.5440    0.7611 H   0  0  0  0  0  0  0  0  0  0  0  0
   50.5362    4.3895    1.2228 H   0  0  0  0  0  0  0  0  0  0  0  0
   52.4439    0.7938    0.1091 H   0  0  0  0  0  0  0  0  0  0  0  0
   54.3504    4.5578    2.9570 H   0  0  0  0  0  0  0  0  0  0  0  0
   54.9063    7.1049    2.4740 H   0  0  0  0  0  0  0  0  0  0  0  0
   53.6917    6.8122    3.7335 H   0  0  0  0  0  0  0  0  0  0  0  0
   52.9903    8.4683    2.0347 H   0  0  0  0  0  0  0  0  0  0  0  0
   51.9281    7.7915    0.1148 H   0  0  0  0  0  0  0  0  0  0  0  0
   52.1610    5.4300   -0.6484 H   0  0  0  0  0  0  0  0  0  0  0  0
   55.9057    4.3961    0.8512 H   0  0  0  0  0  0  0  0  0  0  0  0
   57.7249    2.4628    0.4064 H   0  0  0  0  0  0  0  0  0  0  0  0
   36.2253   -0.0236    0.0362 C   0  0  0  0  0  0  0  0  0  0  0  0
   37.4396   -0.0339    0.0289 C   0  0  0  0  0  0  0  0  0  0  0  0
   47.1164    0.0360   -0.0279 C   0  0  0  0  0  0  0  0  0  0  0  0
   48.3306    0.0272   -0.0434 C   0  0  0  0  0  0  0  0  0  0  0  0
   38.8572   -0.0399    0.0195 C   0  0  0  0  0  0  0  0  0  0  0  0
   39.4841   -0.1953    1.2655 C   0  0  0  0  0  0  0  0  0  0  0  0
   38.8387   -0.3335    2.5234 C   0  0  0  0  0  0  0  0  0  0  0  0
   39.8061   -0.4548    3.4819 C   0  0  0  0  0  0  0  0  0  0  0  0
   41.0733   -0.4014    2.8372 C   0  0  0  0  0  0  0  0  0  0  0  0
   40.8272   -0.2382    1.5003 N   0  0  0  0  0  0  0  0  0  0  0  0
   42.3337   -0.4735    3.4386 C   0  0  0  0  0  0  0  0  0  0  0  0
   42.3610   -0.6889    4.9067 C   0  0  0  0  0  0  0  0  0  0  0  0
   41.8595   -1.8023    5.4624 C   0  0  0  0  0  0  0  0  0  0  0  0
   41.9253   -2.0671    6.9435 C   0  0  0  0  0  0  0  0  0  0  0  0
   42.2145   -0.8394    7.6893 N   0  0  0  0  0  0  0  0  0  0  0  0
   42.8677    0.2061    7.0899 C   0  0  0  0  0  0  0  0  0  0  0  0
   42.9442    0.3406    5.7541 C   0  0  0  0  0  0  0  0  0  0  0  0
   43.5553   -0.3639    2.7694 C   0  0  0  0  0  0  0  0  0  0  0  0
   44.8466   -0.4989    3.4207 C   0  0  0  0  0  0  0  0  0  0  0  0
   45.7788   -0.3513    2.4571 C   0  0  0  0  0  0  0  0  0  0  0  0
   43.7231   -0.1516    1.4377 N   0  0  0  0  0  0  0  0  0  0  0  0
   45.0563   -0.1350    1.2182 C   0  0  0  0  0  0  0  0  0  0  0  0
   45.6986    0.0419   -0.0177 C   0  0  0  0  0  0  0  0  0  0  0  0
   45.0717    0.2110   -1.2619 C   0  0  0  0  0  0  0  0  0  0  0  0
   45.7170    0.3632   -2.5183 C   0  0  0  0  0  0  0  0  0  0  0  0
   44.7494    0.4825   -3.4769 C   0  0  0  0  0  0  0  0  0  0  0  0
   43.4822    0.4137   -2.8338 C   0  0  0  0  0  0  0  0  0  0  0  0
   43.7283    0.2460   -1.4975 N   0  0  0  0  0  0  0  0  0  0  0  0
   42.2219    0.4721   -3.4371 C   0  0  0  0  0  0  0  0  0  0  0  0
   42.1948    0.6859   -4.9056 C   0  0  0  0  0  0  0  0  0  0  0  0
   42.6799    1.8065   -5.4608 C   0  0  0  0  0  0  0  0  0  0  0  0
   42.6131    2.0687   -6.9425 C   0  0  0  0  0  0  0  0  0  0  0  0
   42.3504    0.8345   -7.6872 N   0  0  0  0  0  0  0  0  0  0  0  0
   41.7114   -0.2205   -7.0892 C   0  0  0  0  0  0  0  0  0  0  0  0
   41.6308   -0.3539   -5.7535 C   0  0  0  0  0  0  0  0  0  0  0  0
   41.0006    0.3504   -2.7699 C   0  0  0  0  0  0  0  0  0  0  0  0
   39.7091    0.4673   -3.4242 C   0  0  0  0  0  0  0  0  0  0  0  0
   38.7769    0.3203   -2.4605 C   0  0  0  0  0  0  0  0  0  0  0  0
   39.4996    0.1222   -1.2186 C   0  0  0  0  0  0  0  0  0  0  0  0
   40.8328    0.1468   -1.4367 N   0  0  0  0  0  0  0  0  0  0  0  0
   37.7700   -0.3330    2.6660 H   0  0  0  0  0  0  0  0  0  0  0  0
   39.6607   -0.5625    4.5444 H   0  0  0  0  0  0  0  0  0  0  0  0
   41.5460   -0.1548    0.7892 H   0  0  0  0  0  0  0  0  0  0  0  0
   41.4475   -2.6042    4.8607 H   0  0  0  0  0  0  0  0  0  0  0  0
   42.6930   -2.8335    7.1610 H   0  0  0  0  0  0  0  0  0  0  0  0
   40.9640   -2.4623    7.2995 H   0  0  0  0  0  0  0  0  0  0  0  0
   42.4216   -0.9941    8.6654 H   0  0  0  0  0  0  0  0  0  0  0  0
   43.2430    0.9588    7.7758 H   0  0  0  0  0  0  0  0  0  0  0  0
   43.3955    1.2118    5.3010 H   0  0  0  0  0  0  0  0  0  0  0  0
   44.9959   -0.6939    4.4706 H   0  0  0  0  0  0  0  0  0  0  0  0
   46.8529   -0.3894    2.5465 H   0  0  0  0  0  0  0  0  0  0  0  0
   46.7857    0.3724   -2.6599 H   0  0  0  0  0  0  0  0  0  0  0  0
   44.8949    0.5980   -4.5386 H   0  0  0  0  0  0  0  0  0  0  0  0
   43.0097    0.1523   -0.7877 H   0  0  0  0  0  0  0  0  0  0  0  0
   43.0779    2.6152   -4.8588 H   0  0  0  0  0  0  0  0  0  0  0  0
   41.8308    2.8193   -7.1629 H   0  0  0  0  0  0  0  0  0  0  0  0
   43.5672    2.4824   -7.2963 H   0  0  0  0  0  0  0  0  0  0  0  0
   42.1465    0.9835   -8.6649 H   0  0  0  0  0  0  0  0  0  0  0  0
   41.3518   -0.9806   -7.7755 H   0  0  0  0  0  0  0  0  0  0  0  0
   41.1916   -1.2314   -5.3009 H   0  0  0  0  0  0  0  0  0  0  0  0
   39.5595    0.6508   -4.4761 H   0  0  0  0  0  0  0  0  0  0  0  0
   37.7027    0.3478   -2.5518 H   0  0  0  0  0  0  0  0  0  0  0  0
  1  2  4  0  0  0  0
  2  3  4  0  0  0  0
  3  4  2  0  0  0  0
  4  5  4  0  0  0  0
  2  6  4  0  0  0  0
  5  6  4  0  0  0  0
  5  7  4  0  0  0  0
  7  8  1  0  0  0  0
  8  9  2  0  0  0  0
  9 10  1  0  0  0  0
 10 11  1  0  0  0  0
 11 12  1  0  0  0  0
  8 13  1  0  0  0  0
 12 13  2  0  0  0  0
  7 14  4  0  0  0  0
 14 15  1  0  0  0  0
 15 16  2  0  0  0  0
 14 17  4  0  0  0  0
 16 18  1  0  0  0  0
 17 18  4  0  0  0  0
 18 19  4  0  0  0  0
 19 20  4  0  0  0  0
 20 21  4  0  0  0  0
 21 22  2  0  0  0  0
 22 23  4  0  0  0  0
 20 24  4  0  0  0  0
 23 24  4  0  0  0  0
 23 25  4  0  0  0  0
 25 26  1  0  0  0  0
 26 27  2  0  0  0  0
 27 28  1  0  0  0  0
 28 29  1  0  0  0  0
 29 30  1  0  0  0  0
 26 31  1  0  0  0  0
 30 31  2  0  0  0  0
 25 32  4  0  0  0  0
 32 33  1  0  0  0  0
 33 34  2  0  0  0  0
  1 35  4  0  0  0  0
 34 35  1  0  0  0  0
 32 36  4  0  0  0  0
 35 36  4  0  0  0  0
  1 37  1  0  0  0  0
  3 38  1  0  0  0  0
  4 39  1  0  0  0  0
  6 40  1  0  0  0  0
  9 41  1  0  0  0  0
 10 42  1  0  0  0  0
 10 43  1  0  0  0  0
 11 44  1  0  0  0  0
 12 45  1  0  0  0  0
 13 46  1  0  0  0  0
 15 47  1  0  0  0  0
 16 48  1  0  0  0  0
 21 49  1  0  0  0  0
 22 50  1  0  0  0  0
 24 51  1  0  0  0  0
 27 52  1  0  0  0  0
 28 53  1  0  0  0  0
 28 54  1  0  0  0  0
 29 55  1  0  0  0  0
 30 56  1  0  0  0  0
 31 57  1  0  0  0  0
 33 58  1  0  0  0  0
 34 59  1  0  0  0  0
 60 61  4  0  0  0  0
 61 62  4  0  0  0  0
 62 63  2  0  0  0  0
 63 64  4  0  0  0  0
 61 65  4  0  0  0  0
 64 65  4  0  0  0  0
 64 66  4  0  0  0  0
 66 67  1  0  0  0  0
 67 68  2  0  0  0  0
 68 69  1  0  0  0  0
 69 70  1  0  0  0  0
 70 71  1  0  0  0  0
 67 72  1  0  0  0  0
 71 72  2  0  0  0  0
 66 73  4  0  0  0  0
 73 74  1  0  0  0  0
 74 75  2  0  0  0  0
 73 76  4  0  0  0  0
 75 77  1  0  0  0  0
 76 77  4  0  0  0  0
 77 78  4  0  0  0  0
 78 79  4  0  0  0  0
 79 80  4  0  0  0  0
 80 81  2  0  0  0  0
 81 82  4  0  0  0  0
 79 83  4  0  0  0  0
 82 83  4  0  0  0  0
 82 84  4  0  0  0  0
 84 85  1  0  0  0  0
 85 86  2  0  0  0  0
 86 87  1  0  0  0  0
 87 88  1  0  0  0  0
 88 89  1  0  0  0  0
 85 90  1  0  0  0  0
 89 90  2  0  0  0  0
 84 91  4  0  0  0  0
 91 92  1  0  0  0  0
 92 93  2  0  0  0  0
 60 94  4  0  0  0  0
 93 94  1  0  0  0  0
 91 95  4  0  0  0  0
 94 95  4  0  0  0  0
 60 96  1  0  0  0  0
 62 97  1  0  0  0  0
 63 98  1  0  0  0  0
 65 99  1  0  0  0  0
 68100  1  0  0  0  0
 69101  1  0  0  0  0
 69102  1  0  0  0  0
 70103  1  0  0  0  0
 71104  1  0  0  0  0
 72105  1  0  0  0  0
 74106  1  0  0  0  0
 75107  1  0  0  0  0
 80108  1  0  0  0  0
 81109  1  0  0  0  0
 83110  1  0  0  0  0
 86111  1  0  0  0  0
 87112  1  0  0  0  0
 87113  1  0  0  0  0
 88114  1  0  0  0  0
 89115  1  0  0  0  0
 90116  1  0  0  0  0
 92117  1  0  0  0  0
 93118  1  0  0  0  0
 19119  1  0  0  0  0
119120  3  0  0  0  0
 78122  1  0  0  0  0
121122  3  0  0  0  0
120123  1  0  0  0  0
123124  4  0  0  0  0
124125  4  0  0  0  0
125126  2  0  0  0  0
126127  4  0  0  0  0
124128  4  0  0  0  0
127128  4  0  0  0  0
127129  4  0  0  0  0
129130  1  0  0  0  0
130131  2  0  0  0  0
131132  1  0  0  0  0
132133  1  0  0  0  0
133134  1  0  0  0  0
130135  1  0  0  0  0
134135  2  0  0  0  0
129136  4  0  0  0  0
136137  1  0  0  0  0
137138  2  0  0  0  0
136139  4  0  0  0  0
138140  1  0  0  0  0
139140  4  0  0  0  0
121141  1  0  0  0  0
140141  4  0  0  0  0
141142  4  0  0  0  0
142143  4  0  0  0  0
143144  2  0  0  0  0
144145  4  0  0  0  0
142146  4  0  0  0  0
145146  4  0  0  0  0
145147  4  0  0  0  0
147148  1  0  0  0  0
148149  2  0  0  0  0
149150  1  0  0  0  0
150151  1  0  0  0  0
151152  1  0  0  0  0
148153  1  0  0  0  0
152153  2  0  0  0  0
147154  4  0  0  0  0
154155  1  0  0  0  0
155156  2  0  0  0  0
123157  4  0  0  0  0
156157  1  0  0  0  0
154158  4  0  0  0  0
157158  4  0  0  0  0
125159  1  0  0  0  0
126160  1  0  0  0  0
128161  1  0  0  0  0
131162  1  0  0  0  0
132163  1  0  0  0  0
132164  1  0  0  0  0
133165  1  0  0  0  0
134166  1  0  0  0  0
135167  1  0  0  0  0
137168  1  0  0  0  0
138169  1  0  0  0  0
143170  1  0  0  0  0
144171  1  0  0  0  0
146172  1  0  0  0  0
149173  1  0  0  0  0
150174  1  0  0  0  0
150175  1  0  0  0  0
151176  1  0  0  0  0
152177  1  0  0  0  0
153178  1  0  0  0  0
155179  1  0  0  0  0
156180  1  0  0  0  0
M  END
