 xtb: 6.5.1 (b24c23e)
          07302205423D

234273  0     0  0            999 V2000
   43.3111   -0.0008    0.0094 Ni  0  0  0  0  0  0  0  0  0  0  0  0
   39.9139   -0.0275   -0.0083 C   0  0  0  0  0  0  0  0  0  0  0  0
   40.5707   -1.2336   -0.1336 C   0  0  0  0  0  0  0  0  0  0  0  0
   39.8932   -2.4881   -0.2565 C   0  0  0  0  0  0  0  0  0  0  0  0
   40.8510   -3.4431   -0.3003 C   0  0  0  0  0  0  0  0  0  0  0  0
   42.1135   -2.7697   -0.2109 C   0  0  0  0  0  0  0  0  0  0  0  0
   41.9313   -1.4126   -0.1144 N   0  0  0  0  0  0  0  0  0  0  0  0
   43.3345   -3.4283   -0.1622 C   0  0  0  0  0  0  0  0  0  0  0  0
   44.5453   -2.7609   -0.0446 C   0  0  0  0  0  0  0  0  0  0  0  0
   45.8136   -3.4240   -0.0158 C   0  0  0  0  0  0  0  0  0  0  0  0
   46.7598   -2.4567    0.0404 C   0  0  0  0  0  0  0  0  0  0  0  0
   44.7144   -1.3947   -0.0058 N   0  0  0  0  0  0  0  0  0  0  0  0
   46.0684   -1.2069    0.0370 C   0  0  0  0  0  0  0  0  0  0  0  0
   46.7275    0.0251    0.0252 C   0  0  0  0  0  0  0  0  0  0  0  0
   46.0488    1.2463    0.0115 C   0  0  0  0  0  0  0  0  0  0  0  0
   46.7191    2.5069   -0.0241 C   0  0  0  0  0  0  0  0  0  0  0  0
   45.7573    3.4595    0.0195 C   0  0  0  0  0  0  0  0  0  0  0  0
   44.5014    2.7762    0.0900 C   0  0  0  0  0  0  0  0  0  0  0  0
   43.2792    3.4269    0.1831 C   0  0  0  0  0  0  0  0  0  0  0  0
   43.2672    4.9087    0.2619 C   0  0  0  0  0  0  0  0  0  0  0  0
   42.6849    5.6660   -0.7549 C   0  0  0  0  0  0  0  0  0  0  0  0
   42.6763    7.0508   -0.6793 C   0  0  0  0  0  0  0  0  0  0  0  0
   43.2426    7.6939    0.4128 C   0  0  0  0  0  0  0  0  0  0  0  0
   43.8216    6.9466    1.4295 C   0  0  0  0  0  0  0  0  0  0  0  0
   43.8374    5.5619    1.3549 C   0  0  0  0  0  0  0  0  0  0  0  0
   42.0672    2.7501    0.2055 C   0  0  0  0  0  0  0  0  0  0  0  0
   40.7953    3.3989    0.3341 C   0  0  0  0  0  0  0  0  0  0  0  0
   39.8529    2.4294    0.2747 C   0  0  0  0  0  0  0  0  0  0  0  0
   40.5500    1.1892    0.1211 C   0  0  0  0  0  0  0  0  0  0  0  0
   41.9073    1.3910    0.0986 N   0  0  0  0  0  0  0  0  0  0  0  0
   44.6920    1.4126    0.0605 N   0  0  0  0  0  0  0  0  0  0  0  0
   43.3449   -4.9110   -0.2384 C   0  0  0  0  0  0  0  0  0  0  0  0
   42.9430   -5.5598   -1.4060 C   0  0  0  0  0  0  0  0  0  0  0  0
   42.9557   -6.9449   -1.4768 C   0  0  0  0  0  0  0  0  0  0  0  0
   43.3639   -7.6960   -0.3830 C   0  0  0  0  0  0  0  0  0  0  0  0
   43.7626   -7.0567    0.7829 C   0  0  0  0  0  0  0  0  0  0  0  0
   43.7563   -5.6717    0.8561 C   0  0  0  0  0  0  0  0  0  0  0  0
   38.8301   -0.0370   -0.0070 H   0  0  0  0  0  0  0  0  0  0  0  0
   38.8215   -2.6024   -0.2930 H   0  0  0  0  0  0  0  0  0  0  0  0
   40.7278   -4.5114   -0.3736 H   0  0  0  0  0  0  0  0  0  0  0  0
   45.9518   -4.4923   -0.0479 H   0  0  0  0  0  0  0  0  0  0  0  0
   47.8320   -2.5634    0.0718 H   0  0  0  0  0  0  0  0  0  0  0  0
   47.7887    2.6302   -0.0777 H   0  0  0  0  0  0  0  0  0  0  0  0
   45.8761    4.5305   -0.0010 H   0  0  0  0  0  0  0  0  0  0  0  0
   42.2515    5.1649   -1.6134 H   0  0  0  0  0  0  0  0  0  0  0  0
   42.2257    7.6303   -1.4775 H   0  0  0  0  0  0  0  0  0  0  0  0
   43.2329    8.7764    0.4716 H   0  0  0  0  0  0  0  0  0  0  0  0
   44.2628    7.4443    2.2860 H   0  0  0  0  0  0  0  0  0  0  0  0
   44.2809    4.9785    2.1542 H   0  0  0  0  0  0  0  0  0  0  0  0
   40.6559    4.4604    0.4589 H   0  0  0  0  0  0  0  0  0  0  0  0
   38.7802    2.5242    0.3312 H   0  0  0  0  0  0  0  0  0  0  0  0
   42.6334   -4.9735   -2.2640 H   0  0  0  0  0  0  0  0  0  0  0  0
   42.6460   -7.4397   -2.3906 H   0  0  0  0  0  0  0  0  0  0  0  0
   43.3714   -8.7786   -0.4392 H   0  0  0  0  0  0  0  0  0  0  0  0
   44.0798   -7.6392    1.6408 H   0  0  0  0  0  0  0  0  0  0  0  0
   44.0586   -5.1730    1.7702 H   0  0  0  0  0  0  0  0  0  0  0  0
   83.6110    0.0563    0.0214 Ni  0  0  0  0  0  0  0  0  0  0  0  0
   87.0079    0.0771    0.0415 C   0  0  0  0  0  0  0  0  0  0  0  0
   86.3544    1.2887   -0.0391 C   0  0  0  0  0  0  0  0  0  0  0  0
   87.0352    2.5459   -0.1014 C   0  0  0  0  0  0  0  0  0  0  0  0
   86.0795    3.5038   -0.1186 C   0  0  0  0  0  0  0  0  0  0  0  0
   84.8149    2.8298   -0.0726 C   0  0  0  0  0  0  0  0  0  0  0  0
   84.9939    1.4694   -0.0294 N   0  0  0  0  0  0  0  0  0  0  0  0
   83.5945    3.4886   -0.0099 C   0  0  0  0  0  0  0  0  0  0  0  0
   82.3816    2.8193    0.0713 C   0  0  0  0  0  0  0  0  0  0  0  0
   81.1141    3.4830    0.1189 C   0  0  0  0  0  0  0  0  0  0  0  0
   80.1663    2.5158    0.1342 C   0  0  0  0  0  0  0  0  0  0  0  0
   82.2101    1.4529    0.0556 N   0  0  0  0  0  0  0  0  0  0  0  0
   80.8558    1.2659    0.0854 C   0  0  0  0  0  0  0  0  0  0  0  0
   80.1947    0.0365    0.0228 C   0  0  0  0  0  0  0  0  0  0  0  0
   80.8711   -1.1842   -0.0430 C   0  0  0  0  0  0  0  0  0  0  0  0
   80.1983   -2.4404   -0.1381 C   0  0  0  0  0  0  0  0  0  0  0  0
   81.1581   -3.3960   -0.1368 C   0  0  0  0  0  0  0  0  0  0  0  0
   82.4151   -2.7194   -0.0308 C   0  0  0  0  0  0  0  0  0  0  0  0
   83.6357   -3.3763    0.0384 C   0  0  0  0  0  0  0  0  0  0  0  0
   83.6449   -4.8601    0.0494 C   0  0  0  0  0  0  0  0  0  0  0  0
   84.2377   -5.5713   -0.9943 C   0  0  0  0  0  0  0  0  0  0  0  0
   84.2440   -6.9581   -0.9817 C   0  0  0  0  0  0  0  0  0  0  0  0
   83.6645   -7.6494    0.0735 C   0  0  0  0  0  0  0  0  0  0  0  0
   83.0751   -6.9482    1.1167 C   0  0  0  0  0  0  0  0  0  0  0  0
   83.0620   -5.5615    1.1053 C   0  0  0  0  0  0  0  0  0  0  0  0
   84.8486   -2.7034    0.1015 C   0  0  0  0  0  0  0  0  0  0  0  0
   86.1183   -3.3599    0.2125 C   0  0  0  0  0  0  0  0  0  0  0  0
   87.0625   -2.3904    0.2099 C   0  0  0  0  0  0  0  0  0  0  0  0
   86.3688   -1.1430    0.1074 C   0  0  0  0  0  0  0  0  0  0  0  0
   85.0115   -1.3411    0.0604 N   0  0  0  0  0  0  0  0  0  0  0  0
   82.2274   -1.3554    0.0018 N   0  0  0  0  0  0  0  0  0  0  0  0
   83.5873    4.9730   -0.0260 C   0  0  0  0  0  0  0  0  0  0  0  0
   84.0088    5.6682   -1.1595 C   0  0  0  0  0  0  0  0  0  0  0  0
   83.9992    7.0550   -1.1739 C   0  0  0  0  0  0  0  0  0  0  0  0
   83.5740    7.7618   -0.0572 C   0  0  0  0  0  0  0  0  0  0  0  0
   83.1557    7.0762    1.0751 C   0  0  0  0  0  0  0  0  0  0  0  0
   83.1594    5.6894    1.0919 C   0  0  0  0  0  0  0  0  0  0  0  0
   88.0916    0.0845    0.0566 H   0  0  0  0  0  0  0  0  0  0  0  0
   88.1074    2.6595   -0.1195 H   0  0  0  0  0  0  0  0  0  0  0  0
   86.2054    4.5739   -0.1464 H   0  0  0  0  0  0  0  0  0  0  0  0
   80.9773    4.5519    0.1269 H   0  0  0  0  0  0  0  0  0  0  0  0
   79.0941    2.6231    0.1647 H   0  0  0  0  0  0  0  0  0  0  0  0
   79.1286   -2.5587   -0.2002 H   0  0  0  0  0  0  0  0  0  0  0  0
   81.0371   -4.4645   -0.2076 H   0  0  0  0  0  0  0  0  0  0  0  0
   84.6813   -5.0326   -1.8242 H   0  0  0  0  0  0  0  0  0  0  0  0
   84.7030   -7.5014   -1.8002 H   0  0  0  0  0  0  0  0  0  0  0  0
   83.6721   -8.7335    0.0829 H   0  0  0  0  0  0  0  0  0  0  0  0
   82.6237   -7.4836    1.9446 H   0  0  0  0  0  0  0  0  0  0  0  0
   82.6108   -5.0145    1.9256 H   0  0  0  0  0  0  0  0  0  0  0  0
   86.2550   -4.4264    0.2884 H   0  0  0  0  0  0  0  0  0  0  0  0
   88.1344   -2.4898    0.2737 H   0  0  0  0  0  0  0  0  0  0  0  0
   84.3313    5.1167   -2.0357 H   0  0  0  0  0  0  0  0  0  0  0  0
   84.3244    7.5860   -2.0616 H   0  0  0  0  0  0  0  0  0  0  0  0
   83.5687    8.8458   -0.0694 H   0  0  0  0  0  0  0  0  0  0  0  0
   82.8251    7.6239    1.9507 H   0  0  0  0  0  0  0  0  0  0  0  0
   82.8422    5.1547    1.9802 H   0  0  0  0  0  0  0  0  0  0  0  0
   49.3548    0.0379    0.0164 C   0  0  0  0  0  0  0  0  0  0  0  0
   48.1332    0.0347    0.0210 C   0  0  0  0  0  0  0  0  0  0  0  0
   50.7050    0.0398    0.0117 C   0  0  0  0  0  0  0  0  0  0  0  0
   51.9266    0.0391    0.0107 C   0  0  0  0  0  0  0  0  0  0  0  0
   62.7854    0.0488    0.0190 C   0  0  0  0  0  0  0  0  0  0  0  0
   61.5636    0.0503    0.0238 C   0  0  0  0  0  0  0  0  0  0  0  0
   64.1356    0.0457    0.0131 C   0  0  0  0  0  0  0  0  0  0  0  0
   65.3574    0.0402    0.0078 C   0  0  0  0  0  0  0  0  0  0  0  0
   76.2172    0.0302    0.0225 C   0  0  0  0  0  0  0  0  0  0  0  0
   74.9956    0.0311    0.0242 C   0  0  0  0  0  0  0  0  0  0  0  0
   77.5674    0.0305    0.0218 C   0  0  0  0  0  0  0  0  0  0  0  0
   78.7890    0.0297    0.0201 C   0  0  0  0  0  0  0  0  0  0  0  0
   56.7455    0.0435    0.0239 Ni  0  0  0  0  0  0  0  0  0  0  0  0
   53.3314    0.0389    0.0119 C   0  0  0  0  0  0  0  0  0  0  0  0
   54.0049   -1.1738    0.1860 C   0  0  0  0  0  0  0  0  0  0  0  0
   53.3385   -2.4177    0.4033 C   0  0  0  0  0  0  0  0  0  0  0  0
   54.2954   -3.3775    0.3965 C   0  0  0  0  0  0  0  0  0  0  0  0
   55.5427   -2.7157    0.1644 C   0  0  0  0  0  0  0  0  0  0  0  0
   55.3564   -1.3545    0.0806 N   0  0  0  0  0  0  0  0  0  0  0  0
   56.7494   -3.3775   -0.0219 C   0  0  0  0  0  0  0  0  0  0  0  0
   57.9542   -2.7080   -0.1903 C   0  0  0  0  0  0  0  0  0  0  0  0
   59.2029   -3.3604   -0.4410 C   0  0  0  0  0  0  0  0  0  0  0  0
   60.1573   -2.3982   -0.4247 C   0  0  0  0  0  0  0  0  0  0  0  0
   58.1373   -1.3488   -0.0713 N   0  0  0  0  0  0  0  0  0  0  0  0
   59.4881   -1.1619   -0.1743 C   0  0  0  0  0  0  0  0  0  0  0  0
   60.1587    0.0482    0.0274 C   0  0  0  0  0  0  0  0  0  0  0  0
   59.4833    1.2549    0.2337 C   0  0  0  0  0  0  0  0  0  0  0  0
   60.1477    2.4909    0.4966 C   0  0  0  0  0  0  0  0  0  0  0  0
   59.1902    3.4498    0.5197 C   0  0  0  0  0  0  0  0  0  0  0  0
   57.9445    2.7964    0.2572 C   0  0  0  0  0  0  0  0  0  0  0  0
   56.7396    3.4640    0.0801 C   0  0  0  0  0  0  0  0  0  0  0  0
   56.7353    4.9460    0.1058 C   0  0  0  0  0  0  0  0  0  0  0  0
   55.9795    5.6343    1.0559 C   0  0  0  0  0  0  0  0  0  0  0  0
   55.9752    7.0208    1.0775 C   0  0  0  0  0  0  0  0  0  0  0  0
   56.7201    7.7359    0.1496 C   0  0  0  0  0  0  0  0  0  0  0  0
   57.4731    7.0584   -0.7997 C   0  0  0  0  0  0  0  0  0  0  0  0
   57.4839    5.6719   -0.8217 C   0  0  0  0  0  0  0  0  0  0  0  0
   55.5369    2.7993   -0.1225 C   0  0  0  0  0  0  0  0  0  0  0  0
   54.2904    3.4571   -0.3693 C   0  0  0  0  0  0  0  0  0  0  0  0
   53.3364    2.4944   -0.3851 C   0  0  0  0  0  0  0  0  0  0  0  0
   54.0039    1.2527   -0.1590 C   0  0  0  0  0  0  0  0  0  0  0  0
   55.3538    1.4373   -0.0413 N   0  0  0  0  0  0  0  0  0  0  0  0
   58.1321    1.4383    0.1291 N   0  0  0  0  0  0  0  0  0  0  0  0
   56.7500   -4.8599   -0.0434 C   0  0  0  0  0  0  0  0  0  0  0  0
   56.0265   -5.5522   -1.0155 C   0  0  0  0  0  0  0  0  0  0  0  0
   56.0293   -6.9388   -1.0356 C   0  0  0  0  0  0  0  0  0  0  0  0
   56.7479   -7.6493   -0.0836 C   0  0  0  0  0  0  0  0  0  0  0  0
   57.4677   -6.9675    0.8882 C   0  0  0  0  0  0  0  0  0  0  0  0
   57.4729   -5.5809    0.9079 C   0  0  0  0  0  0  0  0  0  0  0  0
   52.2747   -2.5271    0.5393 H   0  0  0  0  0  0  0  0  0  0  0  0
   54.1773   -4.4395    0.5377 H   0  0  0  0  0  0  0  0  0  0  0  0
   59.3235   -4.4181   -0.6095 H   0  0  0  0  0  0  0  0  0  0  0  0
   61.2211   -2.5014   -0.5653 H   0  0  0  0  0  0  0  0  0  0  0  0
   61.2108    2.5957    0.6420 H   0  0  0  0  0  0  0  0  0  0  0  0
   59.3070    4.5059    0.7004 H   0  0  0  0  0  0  0  0  0  0  0  0
   55.4068    5.0772    1.7890 H   0  0  0  0  0  0  0  0  0  0  0  0
   55.3875    7.5453    1.8227 H   0  0  0  0  0  0  0  0  0  0  0  0
   56.7136    8.8199    0.1661 H   0  0  0  0  0  0  0  0  0  0  0  0
   58.0543    7.6123   -1.5285 H   0  0  0  0  0  0  0  0  0  0  0  0
   58.0618    5.1443   -1.5723 H   0  0  0  0  0  0  0  0  0  0  0  0
   54.1700    4.5183   -0.5141 H   0  0  0  0  0  0  0  0  0  0  0  0
   52.2738    2.6007   -0.5330 H   0  0  0  0  0  0  0  0  0  0  0  0
   55.4742   -4.9980   -1.7662 H   0  0  0  0  0  0  0  0  0  0  0  0
   55.4683   -7.4667   -1.7988 H   0  0  0  0  0  0  0  0  0  0  0  0
   56.7465   -8.7333   -0.0987 H   0  0  0  0  0  0  0  0  0  0  0  0
   58.0276   -7.5182    1.6359 H   0  0  0  0  0  0  0  0  0  0  0  0
   58.0264   -5.0495    1.6741 H   0  0  0  0  0  0  0  0  0  0  0  0
   70.1765    0.0339    0.0185 Ni  0  0  0  0  0  0  0  0  0  0  0  0
   66.7624    0.0374    0.0068 C   0  0  0  0  0  0  0  0  0  0  0  0
   67.4333   -1.1802    0.1558 C   0  0  0  0  0  0  0  0  0  0  0  0
   66.7634   -2.4262    0.3501 C   0  0  0  0  0  0  0  0  0  0  0  0
   67.7185   -3.3877    0.3336 C   0  0  0  0  0  0  0  0  0  0  0  0
   68.9682   -2.7248    0.1185 C   0  0  0  0  0  0  0  0  0  0  0  0
   68.7848   -1.3619    0.0535 N   0  0  0  0  0  0  0  0  0  0  0  0
   70.1748   -3.3862   -0.0682 C   0  0  0  0  0  0  0  0  0  0  0  0
   71.3813   -2.7169   -0.2256 C   0  0  0  0  0  0  0  0  0  0  0  0
   72.6292   -3.3693   -0.4800 C   0  0  0  0  0  0  0  0  0  0  0  0
   73.5851   -2.4089   -0.4537 C   0  0  0  0  0  0  0  0  0  0  0  0
   71.5662   -1.3595   -0.0932 N   0  0  0  0  0  0  0  0  0  0  0  0
   72.9176   -1.1740   -0.1926 C   0  0  0  0  0  0  0  0  0  0  0  0
   73.5908    0.0317    0.0247 C   0  0  0  0  0  0  0  0  0  0  0  0
   72.9184    1.2375    0.2452 C   0  0  0  0  0  0  0  0  0  0  0  0
   73.5861    2.4692    0.5200 C   0  0  0  0  0  0  0  0  0  0  0  0
   72.6310    3.4303    0.5517 C   0  0  0  0  0  0  0  0  0  0  0  0
   71.3837    2.7823    0.2838 C   0  0  0  0  0  0  0  0  0  0  0  0
   70.1795    3.4543    0.1186 C   0  0  0  0  0  0  0  0  0  0  0  0
   70.1816    4.9361    0.1629 C   0  0  0  0  0  0  0  0  0  0  0  0
   69.4412    5.6155    1.1314 C   0  0  0  0  0  0  0  0  0  0  0  0
   69.4490    7.0015    1.1747 C   0  0  0  0  0  0  0  0  0  0  0  0
   70.1899    7.7248    0.2498 C   0  0  0  0  0  0  0  0  0  0  0  0
   70.9264    7.0560   -0.7185 C   0  0  0  0  0  0  0  0  0  0  0  0
   70.9258    5.6700   -0.7617 C   0  0  0  0  0  0  0  0  0  0  0  0
   68.9744    2.7950   -0.0857 C   0  0  0  0  0  0  0  0  0  0  0  0
   67.7283    3.4598   -0.3156 C   0  0  0  0  0  0  0  0  0  0  0  0
   66.7717    2.5001   -0.3413 C   0  0  0  0  0  0  0  0  0  0  0  0
   67.4371    1.2531   -0.1395 C   0  0  0  0  0  0  0  0  0  0  0  0
   68.7879    1.4323   -0.0241 N   0  0  0  0  0  0  0  0  0  0  0  0
   71.5678    1.4254    0.1420 N   0  0  0  0  0  0  0  0  0  0  0  0
   70.1765   -4.8686   -0.1017 C   0  0  0  0  0  0  0  0  0  0  0  0
   69.4630   -5.5548   -1.0851 C   0  0  0  0  0  0  0  0  0  0  0  0
   69.4710   -6.9411   -1.1172 C   0  0  0  0  0  0  0  0  0  0  0  0
   70.1845   -7.6575   -0.1658 C   0  0  0  0  0  0  0  0  0  0  0  0
   70.8938   -6.9817    0.8179 C   0  0  0  0  0  0  0  0  0  0  0  0
   70.8939   -5.5953    0.8495 C   0  0  0  0  0  0  0  0  0  0  0  0
   65.6986   -2.5356    0.4788 H   0  0  0  0  0  0  0  0  0  0  0  0
   67.5977   -4.4514    0.4577 H   0  0  0  0  0  0  0  0  0  0  0  0
   72.7482   -4.4256   -0.6580 H   0  0  0  0  0  0  0  0  0  0  0  0
   74.6491   -2.5123   -0.5936 H   0  0  0  0  0  0  0  0  0  0  0  0
   74.6494    2.5703    0.6665 H   0  0  0  0  0  0  0  0  0  0  0  0
   72.7510    4.4844    0.7415 H   0  0  0  0  0  0  0  0  0  0  0  0
   68.8719    5.0516    1.8620 H   0  0  0  0  0  0  0  0  0  0  0  0
   68.8750    7.5191    1.9352 H   0  0  0  0  0  0  0  0  0  0  0  0
   70.1934    8.8083    0.2838 H   0  0  0  0  0  0  0  0  0  0  0  0
   71.5042    7.6165   -1.4449 H   0  0  0  0  0  0  0  0  0  0  0  0
   71.4922    5.1493   -1.5258 H   0  0  0  0  0  0  0  0  0  0  0  0
   67.6106    4.5235   -0.4432 H   0  0  0  0  0  0  0  0  0  0  0  0
   65.7087    2.6111   -0.4824 H   0  0  0  0  0  0  0  0  0  0  0  0
   68.9148   -4.9960   -1.8356 H   0  0  0  0  0  0  0  0  0  0  0  0
   68.9183   -7.4644   -1.8896 H   0  0  0  0  0  0  0  0  0  0  0  0
   70.1880   -8.7413   -0.1909 H   0  0  0  0  0  0  0  0  0  0  0  0
   71.4500   -7.5369    1.5652 H   0  0  0  0  0  0  0  0  0  0  0  0
   71.4396   -5.0686    1.6245 H   0  0  0  0  0  0  0  0  0  0  0  0
  2  3  4  0  0  0  0
  3  4  4  0  0  0  0
  4  5  2  0  0  0  0
  5  6  4  0  0  0  0
  1  7  1  0  0  0  0
  3  7  4  0  0  0  0
  6  7  4  0  0  0  0
  6  8  4  0  0  0  0
  8  9  4  0  0  0  0
  9 10  4  0  0  0  0
 10 11  2  0  0  0  0
  1 12  1  0  0  0  0
  9 12  4  0  0  0  0
 11 13  4  0  0  0  0
 12 13  4  0  0  0  0
 13 14  4  0  0  0  0
 14 15  4  0  0  0  0
 15 16  4  0  0  0  0
 16 17  2  0  0  0  0
 17 18  4  0  0  0  0
 18 19  4  0  0  0  0
 19 20  1  0  0  0  0
 20 21  4  0  0  0  0
 21 22  4  0  0  0  0
 22 23  4  0  0  0  0
 23 24  4  0  0  0  0
 20 25  4  0  0  0  0
 24 25  4  0  0  0  0
 19 26  4  0  0  0  0
 26 27  4  0  0  0  0
 27 28  2  0  0  0  0
  2 29  4  0  0  0  0
 28 29  4  0  0  0  0
  1 30  1  0  0  0  0
 26 30  4  0  0  0  0
 29 30  4  0  0  0  0
  1 31  1  0  0  0  0
 15 31  4  0  0  0  0
 18 31  4  0  0  0  0
  8 32  1  0  0  0  0
 32 33  4  0  0  0  0
 33 34  4  0  0  0  0
 34 35  4  0  0  0  0
 35 36  4  0  0  0  0
 32 37  4  0  0  0  0
 36 37  4  0  0  0  0
  2 38  1  0  0  0  0
  4 39  1  0  0  0  0
  5 40  1  0  0  0  0
 10 41  1  0  0  0  0
 11 42  1  0  0  0  0
 16 43  1  0  0  0  0
 17 44  1  0  0  0  0
 21 45  1  0  0  0  0
 22 46  1  0  0  0  0
 23 47  1  0  0  0  0
 24 48  1  0  0  0  0
 25 49  1  0  0  0  0
 27 50  1  0  0  0  0
 28 51  1  0  0  0  0
 33 52  1  0  0  0  0
 34 53  1  0  0  0  0
 35 54  1  0  0  0  0
 36 55  1  0  0  0  0
 37 56  1  0  0  0  0
 58 59  4  0  0  0  0
 59 60  4  0  0  0  0
 60 61  2  0  0  0  0
 61 62  4  0  0  0  0
 57 63  1  0  0  0  0
 59 63  4  0  0  0  0
 62 63  4  0  0  0  0
 62 64  4  0  0  0  0
 64 65  4  0  0  0  0
 65 66  4  0  0  0  0
 66 67  2  0  0  0  0
 57 68  1  0  0  0  0
 65 68  4  0  0  0  0
 67 69  4  0  0  0  0
 68 69  4  0  0  0  0
 69 70  4  0  0  0  0
 70 71  4  0  0  0  0
 71 72  4  0  0  0  0
 72 73  2  0  0  0  0
 73 74  4  0  0  0  0
 74 75  4  0  0  0  0
 75 76  1  0  0  0  0
 76 77  4  0  0  0  0
 77 78  4  0  0  0  0
 78 79  4  0  0  0  0
 79 80  4  0  0  0  0
 76 81  4  0  0  0  0
 80 81  4  0  0  0  0
 75 82  4  0  0  0  0
 82 83  4  0  0  0  0
 83 84  2  0  0  0  0
 58 85  4  0  0  0  0
 84 85  4  0  0  0  0
 57 86  1  0  0  0  0
 82 86  4  0  0  0  0
 85 86  4  0  0  0  0
 57 87  1  0  0  0  0
 71 87  4  0  0  0  0
 74 87  4  0  0  0  0
 64 88  1  0  0  0  0
 88 89  4  0  0  0  0
 89 90  4  0  0  0  0
 90 91  4  0  0  0  0
 91 92  4  0  0  0  0
 88 93  4  0  0  0  0
 92 93  4  0  0  0  0
 58 94  1  0  0  0  0
 60 95  1  0  0  0  0
 61 96  1  0  0  0  0
 66 97  1  0  0  0  0
 67 98  1  0  0  0  0
 72 99  1  0  0  0  0
 73100  1  0  0  0  0
 77101  1  0  0  0  0
 78102  1  0  0  0  0
 79103  1  0  0  0  0
 80104  1  0  0  0  0
 81105  1  0  0  0  0
 83106  1  0  0  0  0
 84107  1  0  0  0  0
 89108  1  0  0  0  0
 90109  1  0  0  0  0
 91110  1  0  0  0  0
 92111  1  0  0  0  0
 93112  1  0  0  0  0
 14114  4  0  0  0  0
113114  3  0  0  0  0
113115  4  0  0  0  0
115116  3  0  0  0  0
117118  3  0  0  0  0
117119  4  0  0  0  0
119120  3  0  0  0  0
121122  3  0  0  0  0
121123  4  0  0  0  0
 70124  4  0  0  0  0
123124  3  0  0  0  0
116126  4  0  0  0  0
126127  4  0  0  0  0
127128  4  0  0  0  0
128129  2  0  0  0  0
129130  4  0  0  0  0
125131  1  0  0  0  0
127131  4  0  0  0  0
130131  4  0  0  0  0
130132  4  0  0  0  0
132133  4  0  0  0  0
133134  4  0  0  0  0
134135  2  0  0  0  0
125136  1  0  0  0  0
133136  4  0  0  0  0
135137  4  0  0  0  0
136137  4  0  0  0  0
118138  4  0  0  0  0
137138  4  0  0  0  0
138139  4  0  0  0  0
139140  4  0  0  0  0
140141  2  0  0  0  0
141142  4  0  0  0  0
142143  4  0  0  0  0
143144  1  0  0  0  0
144145  4  0  0  0  0
145146  4  0  0  0  0
146147  4  0  0  0  0
147148  4  0  0  0  0
144149  4  0  0  0  0
148149  4  0  0  0  0
143150  4  0  0  0  0
150151  4  0  0  0  0
151152  2  0  0  0  0
126153  4  0  0  0  0
152153  4  0  0  0  0
125154  1  0  0  0  0
150154  4  0  0  0  0
153154  4  0  0  0  0
125155  1  0  0  0  0
139155  4  0  0  0  0
142155  4  0  0  0  0
132156  1  0  0  0  0
156157  4  0  0  0  0
157158  4  0  0  0  0
158159  4  0  0  0  0
159160  4  0  0  0  0
156161  4  0  0  0  0
160161  4  0  0  0  0
128162  1  0  0  0  0
129163  1  0  0  0  0
134164  1  0  0  0  0
135165  1  0  0  0  0
140166  1  0  0  0  0
141167  1  0  0  0  0
145168  1  0  0  0  0
146169  1  0  0  0  0
147170  1  0  0  0  0
148171  1  0  0  0  0
149172  1  0  0  0  0
151173  1  0  0  0  0
152174  1  0  0  0  0
157175  1  0  0  0  0
158176  1  0  0  0  0
159177  1  0  0  0  0
160178  1  0  0  0  0
161179  1  0  0  0  0
120181  4  0  0  0  0
181182  4  0  0  0  0
182183  4  0  0  0  0
183184  2  0  0  0  0
184185  4  0  0  0  0
180186  1  0  0  0  0
182186  4  0  0  0  0
185186  4  0  0  0  0
185187  4  0  0  0  0
187188  4  0  0  0  0
188189  4  0  0  0  0
189190  2  0  0  0  0
180191  1  0  0  0  0
188191  4  0  0  0  0
190192  4  0  0  0  0
191192  4  0  0  0  0
122193  4  0  0  0  0
192193  4  0  0  0  0
193194  4  0  0  0  0
194195  4  0  0  0  0
195196  2  0  0  0  0
196197  4  0  0  0  0
197198  4  0  0  0  0
198199  1  0  0  0  0
199200  4  0  0  0  0
200201  4  0  0  0  0
201202  4  0  0  0  0
202203  4  0  0  0  0
199204  4  0  0  0  0
203204  4  0  0  0  0
198205  4  0  0  0  0
205206  4  0  0  0  0
206207  2  0  0  0  0
181208  4  0  0  0  0
207208  4  0  0  0  0
180209  1  0  0  0  0
205209  4  0  0  0  0
208209  4  0  0  0  0
180210  1  0  0  0  0
194210  4  0  0  0  0
197210  4  0  0  0  0
187211  1  0  0  0  0
211212  4  0  0  0  0
212213  4  0  0  0  0
213214  4  0  0  0  0
214215  4  0  0  0  0
211216  4  0  0  0  0
215216  4  0  0  0  0
183217  1  0  0  0  0
184218  1  0  0  0  0
189219  1  0  0  0  0
190220  1  0  0  0  0
195221  1  0  0  0  0
196222  1  0  0  0  0
200223  1  0  0  0  0
201224  1  0  0  0  0
202225  1  0  0  0  0
203226  1  0  0  0  0
204227  1  0  0  0  0
206228  1  0  0  0  0
207229  1  0  0  0  0
212230  1  0  0  0  0
213231  1  0  0  0  0
214232  1  0  0  0  0
215233  1  0  0  0  0
216234  1  0  0  0  0
M  END
