 xtb: 6.5.1 (b24c23e)
          07302204103D

 74 89  0     0  0            999 V2000
    9.0681   -0.0399   -0.0149 Cu  0  0  0  0  0  0  0  0  0  0  0  0
    5.6443   -0.0434   -0.0536 C   0  0  0  0  0  0  0  0  0  0  0  0
    6.2839   -0.9178   -0.9208 C   0  0  0  0  0  0  0  0  0  0  0  0
    5.6212   -1.8154   -1.8273 C   0  0  0  0  0  0  0  0  0  0  0  0
    6.5892   -2.5038   -2.4819 C   0  0  0  0  0  0  0  0  0  0  0  0
    7.8513   -2.0329   -1.9806 C   0  0  0  0  0  0  0  0  0  0  0  0
    7.6348   -1.0685   -1.0397 N   0  0  0  0  0  0  0  0  0  0  0  0
    9.0946   -2.4972   -2.3851 C   0  0  0  0  0  0  0  0  0  0  0  0
   10.3274   -2.0630   -1.9197 C   0  0  0  0  0  0  0  0  0  0  0  0
   11.5962   -2.5677   -2.3622 C   0  0  0  0  0  0  0  0  0  0  0  0
   12.5523   -1.8802   -1.6874 C   0  0  0  0  0  0  0  0  0  0  0  0
   10.5290   -1.0856   -0.9838 N   0  0  0  0  0  0  0  0  0  0  0  0
   11.8742   -0.9517   -0.8287 C   0  0  0  0  0  0  0  0  0  0  0  0
   12.5128   -0.0281    0.0146 C   0  0  0  0  0  0  0  0  0  0  0  0
   11.8536    0.8876    0.8507 C   0  0  0  0  0  0  0  0  0  0  0  0
   12.5104    1.8166    1.7252 C   0  0  0  0  0  0  0  0  0  0  0  0
   11.5381    2.4933    2.3876 C   0  0  0  0  0  0  0  0  0  0  0  0
   10.2807    1.9829    1.9202 C   0  0  0  0  0  0  0  0  0  0  0  0
   10.5051    1.0111    0.9837 N   0  0  0  0  0  0  0  0  0  0  0  0
    9.0369    2.4099    2.3622 C   0  0  0  0  0  0  0  0  0  0  0  0
    7.8042    1.9442    1.9283 C   0  0  0  0  0  0  0  0  0  0  0  0
    6.5303    2.4125    2.4013 C   0  0  0  0  0  0  0  0  0  0  0  0
    5.5785    1.7255    1.7219 C   0  0  0  0  0  0  0  0  0  0  0  0
    6.2630    0.8306    0.8291 C   0  0  0  0  0  0  0  0  0  0  0  0
    7.6107    0.9823    0.9798 N   0  0  0  0  0  0  0  0  0  0  0  0
    4.5592   -0.0436   -0.0662 H   0  0  0  0  0  0  0  0  0  0  0  0
    4.5509   -1.8966   -1.9364 H   0  0  0  0  0  0  0  0  0  0  0  0
    6.4754   -3.2651   -3.2378 H   0  0  0  0  0  0  0  0  0  0  0  0
    9.1047   -3.2767   -3.1402 H   0  0  0  0  0  0  0  0  0  0  0  0
   11.7245   -3.3466   -3.0973 H   0  0  0  0  0  0  0  0  0  0  0  0
   13.6237   -1.9813   -1.7589 H   0  0  0  0  0  0  0  0  0  0  0  0
   13.5798    1.9244    1.8155 H   0  0  0  0  0  0  0  0  0  0  0  0
   11.6485    3.2689    3.1291 H   0  0  0  0  0  0  0  0  0  0  0  0
    9.0283    3.1864    3.1204 H   0  0  0  0  0  0  0  0  0  0  0  0
    6.3980    3.1716    3.1563 H   0  0  0  0  0  0  0  0  0  0  0  0
    4.5059    1.8057    1.8057 H   0  0  0  0  0  0  0  0  0  0  0  0
   19.9982    0.0396    0.0158 Cu  0  0  0  0  0  0  0  0  0  0  0  0
   23.4220    0.0682   -0.0104 C   0  0  0  0  0  0  0  0  0  0  0  0
   22.7824    1.2986   -0.0637 C   0  0  0  0  0  0  0  0  0  0  0  0
   23.4450    2.5725   -0.1305 C   0  0  0  0  0  0  0  0  0  0  0  0
   22.4770    3.5222   -0.1516 C   0  0  0  0  0  0  0  0  0  0  0  0
   21.2149    2.8365   -0.0975 C   0  0  0  0  0  0  0  0  0  0  0  0
   21.4314    1.4900   -0.0503 N   0  0  0  0  0  0  0  0  0  0  0  0
   19.9716    3.4522   -0.0844 C   0  0  0  0  0  0  0  0  0  0  0  0
   18.7388    2.8179   -0.0322 C   0  0  0  0  0  0  0  0  0  0  0  0
   17.4701    3.4889   -0.0201 C   0  0  0  0  0  0  0  0  0  0  0  0
   16.5140    2.5263    0.0166 C   0  0  0  0  0  0  0  0  0  0  0  0
   18.5372    1.4651    0.0026 N   0  0  0  0  0  0  0  0  0  0  0  0
   17.1920    1.2617    0.0272 C   0  0  0  0  0  0  0  0  0  0  0  0
   16.5534    0.0109    0.0297 C   0  0  0  0  0  0  0  0  0  0  0  0
   17.2127   -1.2290    0.0322 C   0  0  0  0  0  0  0  0  0  0  0  0
   16.5559   -2.5047    0.0541 C   0  0  0  0  0  0  0  0  0  0  0  0
   17.5281   -3.4510    0.0888 C   0  0  0  0  0  0  0  0  0  0  0  0
   18.7856   -2.7589    0.0865 C   0  0  0  0  0  0  0  0  0  0  0  0
   18.5612   -1.4098    0.0475 N   0  0  0  0  0  0  0  0  0  0  0  0
   20.0293   -3.3722    0.1262 C   0  0  0  0  0  0  0  0  0  0  0  0
   21.2621   -2.7357    0.1185 C   0  0  0  0  0  0  0  0  0  0  0  0
   22.5360   -3.4004    0.1534 C   0  0  0  0  0  0  0  0  0  0  0  0
   23.4878   -2.4351    0.1130 C   0  0  0  0  0  0  0  0  0  0  0  0
   22.8032   -1.1723    0.0545 C   0  0  0  0  0  0  0  0  0  0  0  0
   21.4555   -1.3859    0.0639 N   0  0  0  0  0  0  0  0  0  0  0  0
   24.5070    0.0768   -0.0196 H   0  0  0  0  0  0  0  0  0  0  0  0
   24.5153    2.7060   -0.1565 H   0  0  0  0  0  0  0  0  0  0  0  0
   22.5909    4.5940   -0.1986 H   0  0  0  0  0  0  0  0  0  0  0  0
   19.9615    4.5369   -0.1186 H   0  0  0  0  0  0  0  0  0  0  0  0
   17.3417    4.5598   -0.0399 H   0  0  0  0  0  0  0  0  0  0  0  0
   15.4425    2.6492    0.0318 H   0  0  0  0  0  0  0  0  0  0  0  0
   15.4865   -2.6452    0.0484 H   0  0  0  0  0  0  0  0  0  0  0  0
   17.4178   -4.5237    0.1156 H   0  0  0  0  0  0  0  0  0  0  0  0
   20.0379   -4.4568    0.1647 H   0  0  0  0  0  0  0  0  0  0  0  0
   22.6683   -4.4700    0.2012 H   0  0  0  0  0  0  0  0  0  0  0  0
   24.5604   -2.5508    0.1210 H   0  0  0  0  0  0  0  0  0  0  0  0
   13.9256   -0.0183    0.0223 C   0  0  0  0  0  0  0  0  0  0  0  0
   15.1407   -0.0015    0.0288 C   0  0  0  0  0  0  0  0  0  0  0  0
  2  3  4  0  0  0  0
  3  4  1  0  0  0  0
  4  5  2  0  0  0  0
  5  6  1  0  0  0  0
  1  7  1  0  0  0  0
  3  7  4  0  0  0  0
  6  7  4  0  0  0  0
  6  8  4  0  0  0  0
  8  9  4  0  0  0  0
  9 10  4  0  0  0  0
 10 11  2  0  0  0  0
  1 12  1  0  0  0  0
  9 12  4  0  0  0  0
 11 13  4  0  0  0  0
 12 13  4  0  0  0  0
 13 14  4  0  0  0  0
 14 15  4  0  0  0  0
 15 16  4  0  0  0  0
 16 17  2  0  0  0  0
 17 18  4  0  0  0  0
  1 19  1  0  0  0  0
 15 19  4  0  0  0  0
 18 19  4  0  0  0  0
 18 20  4  0  0  0  0
 20 21  4  0  0  0  0
 21 22  1  0  0  0  0
 22 23  2  0  0  0  0
  2 24  4  0  0  0  0
 23 24  1  0  0  0  0
  1 25  1  0  0  0  0
 21 25  4  0  0  0  0
 24 25  4  0  0  0  0
  2 26  1  0  0  0  0
  4 27  1  0  0  0  0
  5 28  1  0  0  0  0
  8 29  1  0  0  0  0
 10 30  1  0  0  0  0
 11 31  1  0  0  0  0
 16 32  1  0  0  0  0
 17 33  1  0  0  0  0
 20 34  1  0  0  0  0
 22 35  1  0  0  0  0
 23 36  1  0  0  0  0
 38 39  4  0  0  0  0
 39 40  1  0  0  0  0
 40 41  2  0  0  0  0
 41 42  1  0  0  0  0
 37 43  1  0  0  0  0
 39 43  4  0  0  0  0
 42 43  4  0  0  0  0
 42 44  4  0  0  0  0
 44 45  4  0  0  0  0
 45 46  4  0  0  0  0
 46 47  2  0  0  0  0
 37 48  1  0  0  0  0
 45 48  4  0  0  0  0
 47 49  4  0  0  0  0
 48 49  4  0  0  0  0
 49 50  4  0  0  0  0
 50 51  4  0  0  0  0
 51 52  4  0  0  0  0
 52 53  2  0  0  0  0
 53 54  4  0  0  0  0
 37 55  1  0  0  0  0
 51 55  4  0  0  0  0
 54 55  4  0  0  0  0
 54 56  4  0  0  0  0
 56 57  4  0  0  0  0
 57 58  1  0  0  0  0
 58 59  2  0  0  0  0
 38 60  4  0  0  0  0
 59 60  1  0  0  0  0
 37 61  1  0  0  0  0
 57 61  4  0  0  0  0
 60 61  4  0  0  0  0
 38 62  1  0  0  0  0
 40 63  1  0  0  0  0
 41 64  1  0  0  0  0
 44 65  1  0  0  0  0
 46 66  1  0  0  0  0
 47 67  1  0  0  0  0
 52 68  1  0  0  0  0
 53 69  1  0  0  0  0
 56 70  1  0  0  0  0
 58 71  1  0  0  0  0
 59 72  1  0  0  0  0
 14 73  4  0  0  0  0
 50 74  4  0  0  0  0
 73 74  3  0  0  0  0
M  END
