 xtb: 6.5.1 (b24c23e)
          07302209433D

197226  0     0  0            999 V2000
   30.6899    0.0135   -0.0638 Cu  0  0  0  0  0  0  0  0  0  0  0  0
   27.2864    0.0512   -0.1814 C   0  0  0  0  0  0  0  0  0  0  0  0
   27.9223    1.2827   -0.1372 C   0  0  0  0  0  0  0  0  0  0  0  0
   27.2476    2.5487   -0.1010 C   0  0  0  0  0  0  0  0  0  0  0  0
   28.2063    3.5055   -0.0377 C   0  0  0  0  0  0  0  0  0  0  0  0
   29.4770    2.8325   -0.0449 C   0  0  0  0  0  0  0  0  0  0  0  0
   29.2729    1.4835   -0.0991 N   0  0  0  0  0  0  0  0  0  0  0  0
   30.7212    3.4636    0.0233 C   0  0  0  0  0  0  0  0  0  0  0  0
   30.7371    4.9486    0.0721 C   0  0  0  0  0  0  0  0  0  0  0  0
   30.2428    5.6918   -0.9996 C   0  0  0  0  0  0  0  0  0  0  0  0
   30.2651    7.0810   -0.9533 C   0  0  0  0  0  0  0  0  0  0  0  0
   29.7957    7.8136   -1.9928 O   0  0  0  0  0  0  0  0  0  0  0  0
   30.7749    7.7314    0.1715 C   0  0  0  0  0  0  0  0  0  0  0  0
   30.7813    9.1017    0.1899 O   0  0  0  0  0  0  0  0  0  0  0  0
   31.2637    6.9888    1.2432 C   0  0  0  0  0  0  0  0  0  0  0  0
   31.7436    7.6968    2.3139 O   0  0  0  0  0  0  0  0  0  0  0  0
   31.2509    5.6003    1.1963 C   0  0  0  0  0  0  0  0  0  0  0  0
   31.9527    2.8064    0.0499 C   0  0  0  0  0  0  0  0  0  0  0  0
   33.2315    3.4586    0.0625 C   0  0  0  0  0  0  0  0  0  0  0  0
   34.1762    2.4840    0.0648 C   0  0  0  0  0  0  0  0  0  0  0  0
   32.1398    1.4491    0.0345 N   0  0  0  0  0  0  0  0  0  0  0  0
   33.4829    1.2313    0.0473 C   0  0  0  0  0  0  0  0  0  0  0  0
   34.1174   -0.0236    0.0298 C   0  0  0  0  0  0  0  0  0  0  0  0
   33.4576   -1.2645   -0.0116 C   0  0  0  0  0  0  0  0  0  0  0  0
   34.1257   -2.5304   -0.0547 C   0  0  0  0  0  0  0  0  0  0  0  0
   33.1619   -3.4846   -0.0994 C   0  0  0  0  0  0  0  0  0  0  0  0
   31.8962   -2.8073   -0.0764 C   0  0  0  0  0  0  0  0  0  0  0  0
   32.1102   -1.4545   -0.0306 N   0  0  0  0  0  0  0  0  0  0  0  0
   30.6514   -3.4375   -0.1262 C   0  0  0  0  0  0  0  0  0  0  0  0
   30.6360   -4.9228   -0.1521 C   0  0  0  0  0  0  0  0  0  0  0  0
   31.1553   -5.6480    0.9203 C   0  0  0  0  0  0  0  0  0  0  0  0
   31.1405   -7.0378    0.8950 C   0  0  0  0  0  0  0  0  0  0  0  0
   31.6367   -7.7522    1.9345 O   0  0  0  0  0  0  0  0  0  0  0  0
   30.6110   -7.7074   -0.2093 C   0  0  0  0  0  0  0  0  0  0  0  0
   30.6140   -9.0779   -0.2088 O   0  0  0  0  0  0  0  0  0  0  0  0
   30.0947   -6.9832   -1.2806 C   0  0  0  0  0  0  0  0  0  0  0  0
   29.5956   -7.7096   -2.3303 O   0  0  0  0  0  0  0  0  0  0  0  0
   30.1016   -5.5940   -1.2551 C   0  0  0  0  0  0  0  0  0  0  0  0
   29.4198   -2.7783   -0.1573 C   0  0  0  0  0  0  0  0  0  0  0  0
   28.1354   -3.4243   -0.1649 C   0  0  0  0  0  0  0  0  0  0  0  0
   27.1963   -2.4459   -0.1871 C   0  0  0  0  0  0  0  0  0  0  0  0
   27.8971   -1.1940   -0.1823 C   0  0  0  0  0  0  0  0  0  0  0  0
   29.2432   -1.4244   -0.1600 N   0  0  0  0  0  0  0  0  0  0  0  0
   26.2015    0.0626   -0.2044 H   0  0  0  0  0  0  0  0  0  0  0  0
   26.1764    2.6742   -0.1154 H   0  0  0  0  0  0  0  0  0  0  0  0
   28.0724    4.5737    0.0191 H   0  0  0  0  0  0  0  0  0  0  0  0
   29.8576    5.1978   -1.8821 H   0  0  0  0  0  0  0  0  0  0  0  0
   29.9003    8.7543   -1.7741 H   0  0  0  0  0  0  0  0  0  0  0  0
   31.1653    9.3870    1.0343 H   0  0  0  0  0  0  0  0  0  0  0  0
   32.0593    7.1012    3.0061 H   0  0  0  0  0  0  0  0  0  0  0  0
   31.6226    5.0283    2.0384 H   0  0  0  0  0  0  0  0  0  0  0  0
   33.3837    4.5258    0.0549 H   0  0  0  0  0  0  0  0  0  0  0  0
   35.2488    2.5943    0.0710 H   0  0  0  0  0  0  0  0  0  0  0  0
   35.1959   -2.6619   -0.0562 H   0  0  0  0  0  0  0  0  0  0  0  0
   33.2928   -4.5531   -0.1554 H   0  0  0  0  0  0  0  0  0  0  0  0
   31.5567   -5.1390    1.7870 H   0  0  0  0  0  0  0  0  0  0  0  0
   31.5388   -8.6966    1.7293 H   0  0  0  0  0  0  0  0  0  0  0  0
   30.2160   -9.3775   -1.0416 H   0  0  0  0  0  0  0  0  0  0  0  0
   29.2618   -7.1259   -3.0240 H   0  0  0  0  0  0  0  0  0  0  0  0
   29.7110   -5.0371   -2.0988 H   0  0  0  0  0  0  0  0  0  0  0  0
   27.9783   -4.4907   -0.1422 H   0  0  0  0  0  0  0  0  0  0  0  0
   26.1226   -2.5489   -0.1971 H   0  0  0  0  0  0  0  0  0  0  0  0
   62.7653   -0.0431   -0.0510 Cu  0  0  0  0  0  0  0  0  0  0  0  0
   66.1684   -0.0691   -0.1848 C   0  0  0  0  0  0  0  0  0  0  0  0
   65.5313   -1.2972   -0.2765 C   0  0  0  0  0  0  0  0  0  0  0  0
   66.2048   -2.5597   -0.3844 C   0  0  0  0  0  0  0  0  0  0  0  0
   65.2454   -3.5170   -0.4264 C   0  0  0  0  0  0  0  0  0  0  0  0
   63.9754   -2.8467   -0.3548 C   0  0  0  0  0  0  0  0  0  0  0  0
   64.1806   -1.5002   -0.2575 N   0  0  0  0  0  0  0  0  0  0  0  0
   62.7309   -3.4806   -0.3557 C   0  0  0  0  0  0  0  0  0  0  0  0
   62.7133   -4.9617   -0.4738 C   0  0  0  0  0  0  0  0  0  0  0  0
   63.2038   -5.5810   -1.6231 C   0  0  0  0  0  0  0  0  0  0  0  0
   63.1794   -6.9667   -1.7324 C   0  0  0  0  0  0  0  0  0  0  0  0
   63.6449   -7.5791   -2.8486 O   0  0  0  0  0  0  0  0  0  0  0  0
   62.6716   -7.7380   -0.6859 C   0  0  0  0  0  0  0  0  0  0  0  0
   62.6633   -9.1019   -0.8205 O   0  0  0  0  0  0  0  0  0  0  0  0
   62.1866   -7.1193    0.4635 C   0  0  0  0  0  0  0  0  0  0  0  0
   61.7086   -7.9419    1.4499 O   0  0  0  0  0  0  0  0  0  0  0  0
   62.2013   -5.7342    0.5719 C   0  0  0  0  0  0  0  0  0  0  0  0
   61.5002   -2.8295   -0.2529 C   0  0  0  0  0  0  0  0  0  0  0  0
   60.2209   -3.4779   -0.3131 C   0  0  0  0  0  0  0  0  0  0  0  0
   59.2772   -2.5092   -0.1980 C   0  0  0  0  0  0  0  0  0  0  0  0
   61.3146   -1.4791   -0.1128 N   0  0  0  0  0  0  0  0  0  0  0  0
   59.9716   -1.2634   -0.0730 C   0  0  0  0  0  0  0  0  0  0  0  0
   59.3381   -0.0146    0.0564 C   0  0  0  0  0  0  0  0  0  0  0  0
   59.9992    1.2220    0.1584 C   0  0  0  0  0  0  0  0  0  0  0  0
   59.3326    2.4846    0.2674 C   0  0  0  0  0  0  0  0  0  0  0  0
   60.2974    3.4367    0.3307 C   0  0  0  0  0  0  0  0  0  0  0  0
   61.5622    2.7605    0.2673 C   0  0  0  0  0  0  0  0  0  0  0  0
   61.3468    1.4117    0.1554 N   0  0  0  0  0  0  0  0  0  0  0  0
   62.8071    3.3918    0.2833 C   0  0  0  0  0  0  0  0  0  0  0  0
   62.8234    4.8701    0.4307 C   0  0  0  0  0  0  0  0  0  0  0  0
   62.3189    5.4636    1.5878 C   0  0  0  0  0  0  0  0  0  0  0  0
   62.3341    6.8467    1.7256 C   0  0  0  0  0  0  0  0  0  0  0  0
   61.8528    7.4334    2.8487 O   0  0  0  0  0  0  0  0  0  0  0  0
   62.8482    7.6419    0.7001 C   0  0  0  0  0  0  0  0  0  0  0  0
   62.8454    9.0028    0.8616 O   0  0  0  0  0  0  0  0  0  0  0  0
   63.3491    7.0491   -0.4559 C   0  0  0  0  0  0  0  0  0  0  0  0
   63.8332    7.8943   -1.4201 O   0  0  0  0  0  0  0  0  0  0  0  0
   63.3428    5.6664   -0.5932 C   0  0  0  0  0  0  0  0  0  0  0  0
   64.0376    2.7402    0.1688 C   0  0  0  0  0  0  0  0  0  0  0  0
   65.3224    3.3827    0.2257 C   0  0  0  0  0  0  0  0  0  0  0  0
   66.2605    2.4129    0.0881 C   0  0  0  0  0  0  0  0  0  0  0  0
   65.5587    1.1686   -0.0435 C   0  0  0  0  0  0  0  0  0  0  0  0
   64.2128    1.3951    0.0121 N   0  0  0  0  0  0  0  0  0  0  0  0
   67.2532   -0.0784   -0.2132 H   0  0  0  0  0  0  0  0  0  0  0  0
   67.2759   -2.6836   -0.4155 H   0  0  0  0  0  0  0  0  0  0  0  0
   65.3784   -4.5849   -0.4904 H   0  0  0  0  0  0  0  0  0  0  0  0
   63.5876   -4.9919   -2.4460 H   0  0  0  0  0  0  0  0  0  0  0  0
   63.5389   -8.5381   -2.7364 H   0  0  0  0  0  0  0  0  0  0  0  0
   62.2810   -9.4791   -0.0121 H   0  0  0  0  0  0  0  0  0  0  0  0
   61.3946   -7.4266    2.2045 H   0  0  0  0  0  0  0  0  0  0  0  0
   61.8324   -5.2594    1.4735 H   0  0  0  0  0  0  0  0  0  0  0  0
   60.0678   -4.5371   -0.4424 H   0  0  0  0  0  0  0  0  0  0  0  0
   58.2044   -2.6186   -0.2029 H   0  0  0  0  0  0  0  0  0  0  0  0
   58.2625    2.6160    0.2867 H   0  0  0  0  0  0  0  0  0  0  0  0
   60.1679    4.5045    0.4018 H   0  0  0  0  0  0  0  0  0  0  0  0
   61.9288    4.8557    2.3938 H   0  0  0  0  0  0  0  0  0  0  0  0
   61.9463    8.3957    2.7540 H   0  0  0  0  0  0  0  0  0  0  0  0
   63.2295    9.3991    0.0634 H   0  0  0  0  0  0  0  0  0  0  0  0
   64.1548    7.3966   -2.1832 H   0  0  0  0  0  0  0  0  0  0  0  0
   63.7218    5.2127   -1.5015 H   0  0  0  0  0  0  0  0  0  0  0  0
   65.4800    4.4400    0.3665 H   0  0  0  0  0  0  0  0  0  0  0  0
   67.3342    2.5161    0.0832 H   0  0  0  0  0  0  0  0  0  0  0  0
   39.3197   -0.0495    0.0514 C   0  0  0  0  0  0  0  0  0  0  0  0
   38.0914   -0.0487    0.0536 C   0  0  0  0  0  0  0  0  0  0  0  0
   36.7469   -0.0432    0.0497 C   0  0  0  0  0  0  0  0  0  0  0  0
   35.5231   -0.0369    0.0427 C   0  0  0  0  0  0  0  0  0  0  0  0
   40.6641   -0.0477    0.0457 C   0  0  0  0  0  0  0  0  0  0  0  0
   41.8881   -0.0422    0.0364 C   0  0  0  0  0  0  0  0  0  0  0  0
   55.3643    0.0111    0.0834 C   0  0  0  0  0  0  0  0  0  0  0  0
   54.1360    0.0135    0.0806 C   0  0  0  0  0  0  0  0  0  0  0  0
   52.7917    0.0122    0.0735 C   0  0  0  0  0  0  0  0  0  0  0  0
   51.5678    0.0082    0.0611 C   0  0  0  0  0  0  0  0  0  0  0  0
   56.7088    0.0055    0.0797 C   0  0  0  0  0  0  0  0  0  0  0  0
   57.9326   -0.0018    0.0727 C   0  0  0  0  0  0  0  0  0  0  0  0
   46.7282   -0.0148    0.0169 Cu  0  0  0  0  0  0  0  0  0  0  0  0
   43.2930   -0.0347    0.0262 C   0  0  0  0  0  0  0  0  0  0  0  0
   43.9352    1.2121    0.1387 C   0  0  0  0  0  0  0  0  0  0  0  0
   43.2512    2.4580    0.3091 C   0  0  0  0  0  0  0  0  0  0  0  0
   44.2017    3.4260    0.3628 C   0  0  0  0  0  0  0  0  0  0  0  0
   45.4730    2.7763    0.2183 C   0  0  0  0  0  0  0  0  0  0  0  0
   45.2777    1.4266    0.0910 N   0  0  0  0  0  0  0  0  0  0  0  0
   46.7095    3.4263    0.2285 C   0  0  0  0  0  0  0  0  0  0  0  0
   46.6999    4.9084    0.3079 C   0  0  0  0  0  0  0  0  0  0  0  0
   47.2991    5.5614    1.3855 C   0  0  0  0  0  0  0  0  0  0  0  0
   47.2951    6.9509    1.4736 C   0  0  0  0  0  0  0  0  0  0  0  0
   47.8669    7.5969    2.5233 O   0  0  0  0  0  0  0  0  0  0  0  0
   46.6916    7.7082    0.4645 C   0  0  0  0  0  0  0  0  0  0  0  0
   46.6761    9.0656    0.5182 O   0  0  0  0  0  0  0  0  0  0  0  0
   46.0971    7.0470   -0.6135 C   0  0  0  0  0  0  0  0  0  0  0  0
   45.5275    7.8475   -1.5703 O   0  0  0  0  0  0  0  0  0  0  0  0
   46.0911    5.6618   -0.6976 C   0  0  0  0  0  0  0  0  0  0  0  0
   47.9534    2.7936    0.1703 C   0  0  0  0  0  0  0  0  0  0  0  0
   49.2188    3.4686    0.1188 C   0  0  0  0  0  0  0  0  0  0  0  0
   50.1798    2.5106    0.0740 C   0  0  0  0  0  0  0  0  0  0  0  0
   48.1628    1.4402    0.1396 N   0  0  0  0  0  0  0  0  0  0  0  0
   49.5080    1.2466    0.0850 C   0  0  0  0  0  0  0  0  0  0  0  0
   50.1629    0.0019    0.0464 C   0  0  0  0  0  0  0  0  0  0  0  0
   49.5209   -1.2480   -0.0141 C   0  0  0  0  0  0  0  0  0  0  0  0
   50.2045   -2.5062   -0.0164 C   0  0  0  0  0  0  0  0  0  0  0  0
   49.2542   -3.4716   -0.1022 C   0  0  0  0  0  0  0  0  0  0  0  0
   47.9832   -2.8072   -0.1589 C   0  0  0  0  0  0  0  0  0  0  0  0
   48.1785   -1.4530   -0.0953 N   0  0  0  0  0  0  0  0  0  0  0  0
   46.7470   -3.4509   -0.2449 C   0  0  0  0  0  0  0  0  0  0  0  0
   46.7568   -4.9311   -0.3715 C   0  0  0  0  0  0  0  0  0  0  0  0
   47.3587   -5.5297   -1.4790 C   0  0  0  0  0  0  0  0  0  0  0  0
   47.3560   -6.9137   -1.6062 C   0  0  0  0  0  0  0  0  0  0  0  0
   47.9217   -7.5075   -2.6836 O   0  0  0  0  0  0  0  0  0  0  0  0
   46.7575   -7.7007   -0.6200 C   0  0  0  0  0  0  0  0  0  0  0  0
   46.7826   -9.0786   -0.7832 O   0  0  0  0  0  0  0  0  0  0  0  0
   46.1892   -7.1056    0.5044 C   0  0  0  0  0  0  0  0  0  0  0  0
   45.6332   -7.8716    1.4870 O   0  0  0  0  0  0  0  0  0  0  0  0
   46.1723   -5.7199    0.6194 C   0  0  0  0  0  0  0  0  0  0  0  0
   45.5032   -2.8168   -0.2209 C   0  0  0  0  0  0  0  0  0  0  0  0
   44.2382   -3.4797   -0.3633 C   0  0  0  0  0  0  0  0  0  0  0  0
   43.2769   -2.5248   -0.2819 C   0  0  0  0  0  0  0  0  0  0  0  0
   43.9479   -1.2729   -0.1015 C   0  0  0  0  0  0  0  0  0  0  0  0
   45.2933   -1.4715   -0.0711 N   0  0  0  0  0  0  0  0  0  0  0  0
   42.1813    2.5681    0.3856 H   0  0  0  0  0  0  0  0  0  0  0  0
   44.0580    4.4850    0.5045 H   0  0  0  0  0  0  0  0  0  0  0  0
   47.7584    4.9837    2.1797 H   0  0  0  0  0  0  0  0  0  0  0  0
   48.2508    6.9703    3.1506 H   0  0  0  0  0  0  0  0  0  0  0  0
   46.2149    9.3944   -0.2702 H   0  0  0  0  0  0  0  0  0  0  0  0
   45.1416    7.3155   -2.2782 H   0  0  0  0  0  0  0  0  0  0  0  0
   45.6348    5.1730   -1.5505 H   0  0  0  0  0  0  0  0  0  0  0  0
   49.3523    4.5382    0.1037 H   0  0  0  0  0  0  0  0  0  0  0  0
   51.2492    2.6397    0.0262 H   0  0  0  0  0  0  0  0  0  0  0  0
   51.2742   -2.6260    0.0470 H   0  0  0  0  0  0  0  0  0  0  0  0
   49.3969   -4.5400   -0.1122 H   0  0  0  0  0  0  0  0  0  0  0  0
   47.8079   -4.9267   -2.2575 H   0  0  0  0  0  0  0  0  0  0  0  0
   47.8219   -8.4697   -2.5887 H   0  0  0  0  0  0  0  0  0  0  0  0
   45.9323   -9.4683   -0.5413 H   0  0  0  0  0  0  0  0  0  0  0  0
   45.9456   -8.7846    1.4172 H   0  0  0  0  0  0  0  0  0  0  0  0
   45.7276   -5.2682    1.4967 H   0  0  0  0  0  0  0  0  0  0  0  0
   44.1061   -4.5383   -0.5178 H   0  0  0  0  0  0  0  0  0  0  0  0
   42.2075   -2.6467   -0.3467 H   0  0  0  0  0  0  0  0  0  0  0  0
  2  3  4  0  0  0  0
  3  4  1  0  0  0  0
  4  5  2  0  0  0  0
  5  6  4  0  0  0  0
  1  7  1  0  0  0  0
  3  7  4  0  0  0  0
  6  7  4  0  0  0  0
  6  8  4  0  0  0  0
  8  9  1  0  0  0  0
  9 10  4  0  0  0  0
 10 11  4  0  0  0  0
 11 12  1  0  0  0  0
 11 13  4  0  0  0  0
 13 14  1  0  0  0  0
 13 15  4  0  0  0  0
 15 16  1  0  0  0  0
  9 17  4  0  0  0  0
 15 17  4  0  0  0  0
  8 18  4  0  0  0  0
 18 19  4  0  0  0  0
 19 20  2  0  0  0  0
  1 21  1  0  0  0  0
 18 21  4  0  0  0  0
 20 22  4  0  0  0  0
 21 22  4  0  0  0  0
 22 23  4  0  0  0  0
 23 24  4  0  0  0  0
 24 25  4  0  0  0  0
 25 26  2  0  0  0  0
 26 27  4  0  0  0  0
  1 28  1  0  0  0  0
 24 28  4  0  0  0  0
 27 28  4  0  0  0  0
 27 29  4  0  0  0  0
 29 30  1  0  0  0  0
 30 31  4  0  0  0  0
 31 32  4  0  0  0  0
 32 33  1  0  0  0  0
 32 34  4  0  0  0  0
 34 35  1  0  0  0  0
 34 36  4  0  0  0  0
 36 37  1  0  0  0  0
 30 38  4  0  0  0  0
 36 38  4  0  0  0  0
 29 39  4  0  0  0  0
 39 40  4  0  0  0  0
 40 41  2  0  0  0  0
  2 42  4  0  0  0  0
 41 42  1  0  0  0  0
  1 43  1  0  0  0  0
 39 43  4  0  0  0  0
 42 43  4  0  0  0  0
  2 44  1  0  0  0  0
  4 45  1  0  0  0  0
  5 46  1  0  0  0  0
 10 47  1  0  0  0  0
 12 48  1  0  0  0  0
 14 49  1  0  0  0  0
 16 50  1  0  0  0  0
 17 51  1  0  0  0  0
 19 52  1  0  0  0  0
 20 53  1  0  0  0  0
 25 54  1  0  0  0  0
 26 55  1  0  0  0  0
 31 56  1  0  0  0  0
 33 57  1  0  0  0  0
 35 58  1  0  0  0  0
 37 59  1  0  0  0  0
 38 60  1  0  0  0  0
 40 61  1  0  0  0  0
 41 62  1  0  0  0  0
 64 65  4  0  0  0  0
 65 66  1  0  0  0  0
 66 67  2  0  0  0  0
 67 68  4  0  0  0  0
 63 69  1  0  0  0  0
 65 69  4  0  0  0  0
 68 69  4  0  0  0  0
 68 70  4  0  0  0  0
 70 71  1  0  0  0  0
 71 72  4  0  0  0  0
 72 73  4  0  0  0  0
 73 74  1  0  0  0  0
 73 75  4  0  0  0  0
 75 76  1  0  0  0  0
 75 77  4  0  0  0  0
 77 78  1  0  0  0  0
 71 79  4  0  0  0  0
 77 79  4  0  0  0  0
 70 80  4  0  0  0  0
 80 81  4  0  0  0  0
 81 82  2  0  0  0  0
 63 83  1  0  0  0  0
 80 83  4  0  0  0  0
 82 84  4  0  0  0  0
 83 84  4  0  0  0  0
 84 85  4  0  0  0  0
 85 86  4  0  0  0  0
 86 87  4  0  0  0  0
 87 88  2  0  0  0  0
 88 89  4  0  0  0  0
 63 90  1  0  0  0  0
 86 90  4  0  0  0  0
 89 90  4  0  0  0  0
 89 91  4  0  0  0  0
 91 92  1  0  0  0  0
 92 93  4  0  0  0  0
 93 94  4  0  0  0  0
 94 95  1  0  0  0  0
 94 96  4  0  0  0  0
 96 97  1  0  0  0  0
 96 98  4  0  0  0  0
 98 99  1  0  0  0  0
 92100  4  0  0  0  0
 98100  4  0  0  0  0
 91101  4  0  0  0  0
101102  4  0  0  0  0
102103  2  0  0  0  0
 64104  4  0  0  0  0
103104  1  0  0  0  0
 63105  1  0  0  0  0
101105  4  0  0  0  0
104105  4  0  0  0  0
 64106  1  0  0  0  0
 66107  1  0  0  0  0
 67108  1  0  0  0  0
 72109  1  0  0  0  0
 74110  1  0  0  0  0
 76111  1  0  0  0  0
 78112  1  0  0  0  0
 79113  1  0  0  0  0
 81114  1  0  0  0  0
 82115  1  0  0  0  0
 87116  1  0  0  0  0
 88117  1  0  0  0  0
 93118  1  0  0  0  0
 95119  1  0  0  0  0
 97120  1  0  0  0  0
 99121  1  0  0  0  0
100122  1  0  0  0  0
102123  1  0  0  0  0
103124  1  0  0  0  0
125126  3  0  0  0  0
126127  4  0  0  0  0
 23128  4  0  0  0  0
127128  3  0  0  0  0
125129  4  0  0  0  0
129130  3  0  0  0  0
131132  3  0  0  0  0
132133  4  0  0  0  0
133134  3  0  0  0  0
131135  4  0  0  0  0
 85136  4  0  0  0  0
135136  3  0  0  0  0
130138  4  0  0  0  0
138139  4  0  0  0  0
139140  4  0  0  0  0
140141  2  0  0  0  0
141142  4  0  0  0  0
137143  1  0  0  0  0
139143  4  0  0  0  0
142143  4  0  0  0  0
142144  4  0  0  0  0
144145  1  0  0  0  0
145146  4  0  0  0  0
146147  4  0  0  0  0
147148  1  0  0  0  0
147149  4  0  0  0  0
149150  1  0  0  0  0
149151  4  0  0  0  0
151152  1  0  0  0  0
145153  4  0  0  0  0
151153  4  0  0  0  0
144154  4  0  0  0  0
154155  4  0  0  0  0
155156  2  0  0  0  0
137157  1  0  0  0  0
154157  4  0  0  0  0
156158  4  0  0  0  0
157158  4  0  0  0  0
134159  4  0  0  0  0
158159  4  0  0  0  0
159160  4  0  0  0  0
160161  4  0  0  0  0
161162  2  0  0  0  0
162163  4  0  0  0  0
137164  1  0  0  0  0
160164  4  0  0  0  0
163164  4  0  0  0  0
163165  4  0  0  0  0
165166  1  0  0  0  0
166167  4  0  0  0  0
167168  4  0  0  0  0
168169  1  0  0  0  0
168170  4  0  0  0  0
170171  1  0  0  0  0
170172  4  0  0  0  0
172173  1  0  0  0  0
166174  4  0  0  0  0
172174  4  0  0  0  0
165175  4  0  0  0  0
175176  4  0  0  0  0
176177  2  0  0  0  0
138178  4  0  0  0  0
177178  4  0  0  0  0
137179  1  0  0  0  0
175179  4  0  0  0  0
178179  4  0  0  0  0
140180  1  0  0  0  0
141181  1  0  0  0  0
146182  1  0  0  0  0
148183  1  0  0  0  0
150184  1  0  0  0  0
152185  1  0  0  0  0
153186  1  0  0  0  0
155187  1  0  0  0  0
156188  1  0  0  0  0
161189  1  0  0  0  0
162190  1  0  0  0  0
167191  1  0  0  0  0
169192  1  0  0  0  0
171193  1  0  0  0  0
173194  1  0  0  0  0
174195  1  0  0  0  0
176196  1  0  0  0  0
177197  1  0  0  0  0
M  END
