 xtb: 6.5.1 (b24c23e)
          07292219493D

177206  0     0  0            999 V2000
   33.7497   -0.0526   -0.1463 Fe  0  0  0  0  0  0  0  0  0  0  0  0
   30.3865   -0.0558   -0.5210 C   0  0  0  0  0  0  0  0  0  0  0  0
   31.0150   -1.2726   -0.3496 C   0  0  0  0  0  0  0  0  0  0  0  0
   30.3199   -2.5209   -0.2612 C   0  0  0  0  0  0  0  0  0  0  0  0
   31.2642   -3.4814   -0.1205 C   0  0  0  0  0  0  0  0  0  0  0  0
   32.5369   -2.8204   -0.1574 C   0  0  0  0  0  0  0  0  0  0  0  0
   32.3675   -1.4652   -0.2519 N   0  0  0  0  0  0  0  0  0  0  0  0
   33.7604   -3.4826   -0.1797 C   0  0  0  0  0  0  0  0  0  0  0  0
   33.7755   -4.9637   -0.1606 C   0  0  0  0  0  0  0  0  0  0  0  0
   33.1522   -5.6989   -1.1695 C   0  0  0  0  0  0  0  0  0  0  0  0
   33.1753   -7.0848   -1.1532 C   0  0  0  0  0  0  0  0  0  0  0  0
   33.8209   -7.7535   -0.1157 C   0  0  0  0  0  0  0  0  0  0  0  0
   33.8653   -9.1095   -0.0596 O   0  0  0  0  0  0  0  0  0  0  0  0
   34.4458   -7.0312    0.8994 C   0  0  0  0  0  0  0  0  0  0  0  0
   34.4252   -5.6484    0.8699 C   0  0  0  0  0  0  0  0  0  0  0  0
   34.9742   -2.8116   -0.2544 C   0  0  0  0  0  0  0  0  0  0  0  0
   36.2385   -3.4629   -0.4267 C   0  0  0  0  0  0  0  0  0  0  0  0
   37.1824   -2.4907   -0.4262 C   0  0  0  0  0  0  0  0  0  0  0  0
   35.1470   -1.4511   -0.1765 N   0  0  0  0  0  0  0  0  0  0  0  0
   36.4941   -1.2509   -0.2458 C   0  0  0  0  0  0  0  0  0  0  0  0
   37.1500   -0.0322   -0.0337 C   0  0  0  0  0  0  0  0  0  0  0  0
   36.4691    1.1664    0.2141 C   0  0  0  0  0  0  0  0  0  0  0  0
   37.1317    2.4005    0.4991 C   0  0  0  0  0  0  0  0  0  0  0  0
   36.1679    3.3480    0.5895 C   0  0  0  0  0  0  0  0  0  0  0  0
   34.9174    2.6906    0.3485 C   0  0  0  0  0  0  0  0  0  0  0  0
   35.1199    1.3458    0.1452 N   0  0  0  0  0  0  0  0  0  0  0  0
   33.7107    3.3595    0.1988 C   0  0  0  0  0  0  0  0  0  0  0  0
   33.6949    4.8334    0.3635 C   0  0  0  0  0  0  0  0  0  0  0  0
   33.9873    5.4115    1.6009 C   0  0  0  0  0  0  0  0  0  0  0  0
   33.9751    6.7859    1.7606 C   0  0  0  0  0  0  0  0  0  0  0  0
   33.6763    7.6056    0.6737 C   0  0  0  0  0  0  0  0  0  0  0  0
   33.6779    8.9503    0.8643 O   0  0  0  0  0  0  0  0  0  0  0  0
   33.3884    7.0429   -0.5675 C   0  0  0  0  0  0  0  0  0  0  0  0
   33.3957    5.6645   -0.7161 C   0  0  0  0  0  0  0  0  0  0  0  0
   32.5243    2.7111   -0.1319 C   0  0  0  0  0  0  0  0  0  0  0  0
   31.2718    3.3805   -0.3349 C   0  0  0  0  0  0  0  0  0  0  0  0
   30.3470    2.4200   -0.5703 C   0  0  0  0  0  0  0  0  0  0  0  0
   31.0297    1.1643   -0.4854 C   0  0  0  0  0  0  0  0  0  0  0  0
   32.3642    1.3565   -0.2393 N   0  0  0  0  0  0  0  0  0  0  0  0
   29.3102   -0.0564   -0.6526 H   0  0  0  0  0  0  0  0  0  0  0  0
   29.2472   -2.6278   -0.2917 H   0  0  0  0  0  0  0  0  0  0  0  0
   31.1224   -4.5434   -0.0022 H   0  0  0  0  0  0  0  0  0  0  0  0
   32.6631   -5.1804   -1.9866 H   0  0  0  0  0  0  0  0  0  0  0  0
   32.6961   -7.6510   -1.9447 H   0  0  0  0  0  0  0  0  0  0  0  0
   33.3991   -9.5085   -0.8065 H   0  0  0  0  0  0  0  0  0  0  0  0
   34.9415   -7.5643    1.7013 H   0  0  0  0  0  0  0  0  0  0  0  0
   34.9029   -5.0862    1.6645 H   0  0  0  0  0  0  0  0  0  0  0  0
   36.3757   -4.5253   -0.5458 H   0  0  0  0  0  0  0  0  0  0  0  0
   38.2510   -2.5927   -0.5246 H   0  0  0  0  0  0  0  0  0  0  0  0
   38.1983    2.5158    0.6036 H   0  0  0  0  0  0  0  0  0  0  0  0
   36.2861    4.4028    0.7763 H   0  0  0  0  0  0  0  0  0  0  0  0
   34.2100    4.7732    2.4485 H   0  0  0  0  0  0  0  0  0  0  0  0
   34.1946    7.2374    2.7201 H   0  0  0  0  0  0  0  0  0  0  0  0
   33.4494    9.4216    0.0519 H   0  0  0  0  0  0  0  0  0  0  0  0
   33.1620    7.6847   -1.4122 H   0  0  0  0  0  0  0  0  0  0  0  0
   33.1857    5.2284   -1.6863 H   0  0  0  0  0  0  0  0  0  0  0  0
   31.1270    4.4476   -0.2894 H   0  0  0  0  0  0  0  0  0  0  0  0
   29.2917    2.5312   -0.7629 H   0  0  0  0  0  0  0  0  0  0  0  0
   55.4054    0.0077   -0.2274 Fe  0  0  0  0  0  0  0  0  0  0  0  0
   58.7273   -0.0863   -0.8372 C   0  0  0  0  0  0  0  0  0  0  0  0
   58.1389    1.1531   -0.6808 C   0  0  0  0  0  0  0  0  0  0  0  0
   58.8679    2.3850   -0.6945 C   0  0  0  0  0  0  0  0  0  0  0  0
   57.9666    3.3716   -0.4743 C   0  0  0  0  0  0  0  0  0  0  0  0
   56.6809    2.7434   -0.3727 C   0  0  0  0  0  0  0  0  0  0  0  0
   56.8079    1.3826   -0.4556 N   0  0  0  0  0  0  0  0  0  0  0  0
   55.4756    3.4348   -0.3007 C   0  0  0  0  0  0  0  0  0  0  0  0
   55.4913    4.9158   -0.2988 C   0  0  0  0  0  0  0  0  0  0  0  0
   56.0493    5.6282   -1.3609 C   0  0  0  0  0  0  0  0  0  0  0  0
   56.0465    7.0144   -1.3625 C   0  0  0  0  0  0  0  0  0  0  0  0
   55.4872    7.7061   -0.2905 C   0  0  0  0  0  0  0  0  0  0  0  0
   55.4649    9.0629   -0.2509 O   0  0  0  0  0  0  0  0  0  0  0  0
   54.9275    7.0065    0.7774 C   0  0  0  0  0  0  0  0  0  0  0  0
   54.9266    5.6233    0.7659 C   0  0  0  0  0  0  0  0  0  0  0  0
   54.2434    2.7925   -0.2962 C   0  0  0  0  0  0  0  0  0  0  0  0
   52.9899    3.4720   -0.4322 C   0  0  0  0  0  0  0  0  0  0  0  0
   52.0268    2.5188   -0.4264 C   0  0  0  0  0  0  0  0  0  0  0  0
   54.0422    1.4369   -0.2130 N   0  0  0  0  0  0  0  0  0  0  0  0
   52.6902    1.2644   -0.2605 C   0  0  0  0  0  0  0  0  0  0  0  0
   52.0120    0.0524   -0.0758 C   0  0  0  0  0  0  0  0  0  0  0  0
   52.6754   -1.1535    0.1916 C   0  0  0  0  0  0  0  0  0  0  0  0
   51.9985   -2.3563    0.5628 C   0  0  0  0  0  0  0  0  0  0  0  0
   52.9539   -3.2958    0.7625 C   0  0  0  0  0  0  0  0  0  0  0  0
   54.2131   -2.6685    0.4902 C   0  0  0  0  0  0  0  0  0  0  0  0
   54.0240   -1.3450    0.1691 N   0  0  0  0  0  0  0  0  0  0  0  0
   55.4138   -3.3596    0.4058 C   0  0  0  0  0  0  0  0  0  0  0  0
   55.4171   -4.8069    0.7279 C   0  0  0  0  0  0  0  0  0  0  0  0
   55.1437   -5.2390    2.0277 C   0  0  0  0  0  0  0  0  0  0  0  0
   55.1470   -6.5866    2.3407 C   0  0  0  0  0  0  0  0  0  0  0  0
   55.4153   -7.5263    1.3469 C   0  0  0  0  0  0  0  0  0  0  0  0
   55.4070   -8.8406    1.6877 O   0  0  0  0  0  0  0  0  0  0  0  0
   55.6801   -7.1099    0.0444 C   0  0  0  0  0  0  0  0  0  0  0  0
   55.6832   -5.7569   -0.2581 C   0  0  0  0  0  0  0  0  0  0  0  0
   56.5964   -2.7634   -0.0237 C   0  0  0  0  0  0  0  0  0  0  0  0
   57.8277   -3.4692   -0.2324 C   0  0  0  0  0  0  0  0  0  0  0  0
   58.7390   -2.5554   -0.6425 C   0  0  0  0  0  0  0  0  0  0  0  0
   58.0750   -1.2867   -0.6435 C   0  0  0  0  0  0  0  0  0  0  0  0
   56.7614   -1.4303   -0.2800 N   0  0  0  0  0  0  0  0  0  0  0  0
   59.7877   -0.1175   -1.0616 H   0  0  0  0  0  0  0  0  0  0  0  0
   59.9344    2.4637   -0.8347 H   0  0  0  0  0  0  0  0  0  0  0  0
   58.1457    4.4311   -0.3895 H   0  0  0  0  0  0  0  0  0  0  0  0
   56.4680    5.0921   -2.2052 H   0  0  0  0  0  0  0  0  0  0  0  0
   56.4736    7.5629   -2.1951 H   0  0  0  0  0  0  0  0  0  0  0  0
   55.8766    9.4456   -1.0374 H   0  0  0  0  0  0  0  0  0  0  0  0
   54.4976    7.5574    1.6047 H   0  0  0  0  0  0  0  0  0  0  0  0
   54.4979    5.0782    1.5994 H   0  0  0  0  0  0  0  0  0  0  0  0
   52.8723    4.5375   -0.5435 H   0  0  0  0  0  0  0  0  0  0  0  0
   50.9605    2.6432   -0.5198 H   0  0  0  0  0  0  0  0  0  0  0  0
   50.9301   -2.4536    0.6665 H   0  0  0  0  0  0  0  0  0  0  0  0
   52.8260   -4.3288    1.0422 H   0  0  0  0  0  0  0  0  0  0  0  0
   54.9426   -4.5063    2.8012 H   0  0  0  0  0  0  0  0  0  0  0  0
   54.9435   -6.9253    3.3490 H   0  0  0  0  0  0  0  0  0  0  0  0
   55.6047   -9.4034    0.9271 H   0  0  0  0  0  0  0  0  0  0  0  0
   55.8805   -7.8453   -0.7275 H   0  0  0  0  0  0  0  0  0  0  0  0
   55.8744   -5.4348   -1.2757 H   0  0  0  0  0  0  0  0  0  0  0  0
   57.9679   -4.5267   -0.0780 H   0  0  0  0  0  0  0  0  0  0  0  0
   59.7764   -2.7038   -0.8972 H   0  0  0  0  0  0  0  0  0  0  0  0
   38.5534   -0.0189   -0.0386 C   0  0  0  0  0  0  0  0  0  0  0  0
   39.7723   -0.0143   -0.0455 C   0  0  0  0  0  0  0  0  0  0  0  0
   49.3894    0.0530   -0.1056 C   0  0  0  0  0  0  0  0  0  0  0  0
   50.6089    0.0539   -0.0917 C   0  0  0  0  0  0  0  0  0  0  0  0
   44.5804    0.0194   -0.0844 Fe  0  0  0  0  0  0  0  0  0  0  0  0
   41.1746   -0.0067   -0.0541 C   0  0  0  0  0  0  0  0  0  0  0  0
   41.8470    0.9833    0.6754 C   0  0  0  0  0  0  0  0  0  0  0  0
   41.1913    1.9464    1.5011 C   0  0  0  0  0  0  0  0  0  0  0  0
   42.1462    2.8144    1.9195 C   0  0  0  0  0  0  0  0  0  0  0  0
   43.3796    2.3825    1.3351 C   0  0  0  0  0  0  0  0  0  0  0  0
   43.1877    1.2239    0.6243 N   0  0  0  0  0  0  0  0  0  0  0  0
   44.5725    3.0962    1.3950 C   0  0  0  0  0  0  0  0  0  0  0  0
   44.5759    4.4205    2.0537 C   0  0  0  0  0  0  0  0  0  0  0  0
   45.4303    4.6734    3.1309 C   0  0  0  0  0  0  0  0  0  0  0  0
   45.4337    5.9055    3.7590 C   0  0  0  0  0  0  0  0  0  0  0  0
   44.5835    6.9141    3.3080 C   0  0  0  0  0  0  0  0  0  0  0  0
   44.6161    8.1119    3.9440 O   0  0  0  0  0  0  0  0  0  0  0  0
   43.7307    6.6789    2.2315 C   0  0  0  0  0  0  0  0  0  0  0  0
   43.7264    5.4377    1.6152 C   0  0  0  0  0  0  0  0  0  0  0  0
   45.7643    2.6131    0.8647 C   0  0  0  0  0  0  0  0  0  0  0  0
   46.9934    3.3464    0.8396 C   0  0  0  0  0  0  0  0  0  0  0  0
   47.9515    2.4863    0.4139 C   0  0  0  0  0  0  0  0  0  0  0  0
   45.9628    1.3390    0.3923 N   0  0  0  0  0  0  0  0  0  0  0  0
   47.3036    1.2377    0.1678 C   0  0  0  0  0  0  0  0  0  0  0  0
   47.9873    0.0447   -0.1093 C   0  0  0  0  0  0  0  0  0  0  0  0
   47.3194   -1.1575   -0.3840 C   0  0  0  0  0  0  0  0  0  0  0  0
   47.9833   -2.3948   -0.6457 C   0  0  0  0  0  0  0  0  0  0  0  0
   47.0315   -3.2678   -1.0599 C   0  0  0  0  0  0  0  0  0  0  0  0
   45.7904   -2.5542   -1.0607 C   0  0  0  0  0  0  0  0  0  0  0  0
   45.9770   -1.2785   -0.5889 N   0  0  0  0  0  0  0  0  0  0  0  0
   44.5952   -3.0565   -1.5656 C   0  0  0  0  0  0  0  0  0  0  0  0
   44.6053   -4.3823   -2.2219 C   0  0  0  0  0  0  0  0  0  0  0  0
   43.7854   -5.4127   -1.7587 C   0  0  0  0  0  0  0  0  0  0  0  0
   43.7958   -6.6558   -2.3712 C   0  0  0  0  0  0  0  0  0  0  0  0
   44.6246   -6.8795   -3.4686 C   0  0  0  0  0  0  0  0  0  0  0  0
   44.6622   -8.0791   -4.1015 O   0  0  0  0  0  0  0  0  0  0  0  0
   45.4447   -5.8575   -3.9445 C   0  0  0  0  0  0  0  0  0  0  0  0
   45.4359   -4.6236   -3.3201 C   0  0  0  0  0  0  0  0  0  0  0  0
   43.3919   -2.3632   -1.4803 C   0  0  0  0  0  0  0  0  0  0  0  0
   42.1540   -2.8176   -2.0381 C   0  0  0  0  0  0  0  0  0  0  0  0
   41.1933   -1.9645   -1.6029 C   0  0  0  0  0  0  0  0  0  0  0  0
   41.8492   -0.9881   -0.7929 C   0  0  0  0  0  0  0  0  0  0  0  0
   43.1946   -1.2064   -0.7677 N   0  0  0  0  0  0  0  0  0  0  0  0
   40.1381    1.9457    1.7303 H   0  0  0  0  0  0  0  0  0  0  0  0
   42.0328    3.6666    2.5696 H   0  0  0  0  0  0  0  0  0  0  0  0
   46.0813    3.8848    3.4914 H   0  0  0  0  0  0  0  0  0  0  0  0
   46.0876    6.1003    4.6000 H   0  0  0  0  0  0  0  0  0  0  0  0
   43.9875    8.7358    3.5567 H   0  0  0  0  0  0  0  0  0  0  0  0
   43.0751    7.4685    1.8801 H   0  0  0  0  0  0  0  0  0  0  0  0
   43.0725    5.2615    0.7684 H   0  0  0  0  0  0  0  0  0  0  0  0
   47.1019    4.3840    1.1101 H   0  0  0  0  0  0  0  0  0  0  0  0
   49.0050    2.6696    0.2821 H   0  0  0  0  0  0  0  0  0  0  0  0
   49.0421   -2.5613   -0.5330 H   0  0  0  0  0  0  0  0  0  0  0  0
   47.1514   -4.3024   -1.3372 H   0  0  0  0  0  0  0  0  0  0  0  0
   43.1502   -5.2451   -0.8961 H   0  0  0  0  0  0  0  0  0  0  0  0
   43.1636   -7.4555   -2.0005 H   0  0  0  0  0  0  0  0  0  0  0  0
   44.0552   -8.7124   -3.6952 H   0  0  0  0  0  0  0  0  0  0  0  0
   46.0798   -6.0437   -4.8017 H   0  0  0  0  0  0  0  0  0  0  0  0
   46.0635   -3.8249   -3.6994 H   0  0  0  0  0  0  0  0  0  0  0  0
   42.0421   -3.6736   -2.6833 H   0  0  0  0  0  0  0  0  0  0  0  0
   40.1354   -1.9828   -1.8092 H   0  0  0  0  0  0  0  0  0  0  0  0
  2  3  4  0  0  0  0
  3  4  4  0  0  0  0
  4  5  2  0  0  0  0
  5  6  4  0  0  0  0
  1  7  1  0  0  0  0
  3  7  4  0  0  0  0
  6  7  4  0  0  0  0
  6  8  4  0  0  0  0
  8  9  1  0  0  0  0
  9 10  4  0  0  0  0
 10 11  4  0  0  0  0
 11 12  4  0  0  0  0
 12 13  1  0  0  0  0
 12 14  4  0  0  0  0
  9 15  4  0  0  0  0
 14 15  4  0  0  0  0
  8 16  4  0  0  0  0
 16 17  4  0  0  0  0
 17 18  2  0  0  0  0
  1 19  1  0  0  0  0
 16 19  4  0  0  0  0
 18 20  4  0  0  0  0
 19 20  4  0  0  0  0
 20 21  4  0  0  0  0
 21 22  4  0  0  0  0
 22 23  4  0  0  0  0
 23 24  2  0  0  0  0
 24 25  4  0  0  0  0
  1 26  1  0  0  0  0
 22 26  4  0  0  0  0
 25 26  4  0  0  0  0
 25 27  4  0  0  0  0
 27 28  1  0  0  0  0
 28 29  4  0  0  0  0
 29 30  4  0  0  0  0
 30 31  4  0  0  0  0
 31 32  1  0  0  0  0
 31 33  4  0  0  0  0
 28 34  4  0  0  0  0
 33 34  4  0  0  0  0
 27 35  4  0  0  0  0
 35 36  4  0  0  0  0
 36 37  2  0  0  0  0
  2 38  4  0  0  0  0
 37 38  4  0  0  0  0
  1 39  1  0  0  0  0
 35 39  4  0  0  0  0
 38 39  4  0  0  0  0
  2 40  1  0  0  0  0
  4 41  1  0  0  0  0
  5 42  1  0  0  0  0
 10 43  1  0  0  0  0
 11 44  1  0  0  0  0
 13 45  1  0  0  0  0
 14 46  1  0  0  0  0
 15 47  1  0  0  0  0
 17 48  1  0  0  0  0
 18 49  1  0  0  0  0
 23 50  1  0  0  0  0
 24 51  1  0  0  0  0
 29 52  1  0  0  0  0
 30 53  1  0  0  0  0
 32 54  1  0  0  0  0
 33 55  1  0  0  0  0
 34 56  1  0  0  0  0
 36 57  1  0  0  0  0
 37 58  1  0  0  0  0
 60 61  4  0  0  0  0
 61 62  4  0  0  0  0
 62 63  2  0  0  0  0
 63 64  4  0  0  0  0
 59 65  1  0  0  0  0
 61 65  4  0  0  0  0
 64 65  4  0  0  0  0
 64 66  4  0  0  0  0
 66 67  1  0  0  0  0
 67 68  4  0  0  0  0
 68 69  4  0  0  0  0
 69 70  4  0  0  0  0
 70 71  1  0  0  0  0
 70 72  4  0  0  0  0
 67 73  4  0  0  0  0
 72 73  4  0  0  0  0
 66 74  4  0  0  0  0
 74 75  4  0  0  0  0
 75 76  2  0  0  0  0
 59 77  1  0  0  0  0
 74 77  4  0  0  0  0
 76 78  4  0  0  0  0
 77 78  4  0  0  0  0
 78 79  4  0  0  0  0
 79 80  4  0  0  0  0
 80 81  4  0  0  0  0
 81 82  2  0  0  0  0
 82 83  4  0  0  0  0
 59 84  1  0  0  0  0
 80 84  4  0  0  0  0
 83 84  4  0  0  0  0
 83 85  4  0  0  0  0
 85 86  1  0  0  0  0
 86 87  4  0  0  0  0
 87 88  4  0  0  0  0
 88 89  4  0  0  0  0
 89 90  1  0  0  0  0
 89 91  4  0  0  0  0
 86 92  4  0  0  0  0
 91 92  4  0  0  0  0
 85 93  4  0  0  0  0
 93 94  4  0  0  0  0
 94 95  2  0  0  0  0
 60 96  4  0  0  0  0
 95 96  4  0  0  0  0
 59 97  1  0  0  0  0
 93 97  4  0  0  0  0
 96 97  4  0  0  0  0
 60 98  1  0  0  0  0
 62 99  1  0  0  0  0
 63100  1  0  0  0  0
 68101  1  0  0  0  0
 69102  1  0  0  0  0
 71103  1  0  0  0  0
 72104  1  0  0  0  0
 73105  1  0  0  0  0
 75106  1  0  0  0  0
 76107  1  0  0  0  0
 81108  1  0  0  0  0
 82109  1  0  0  0  0
 87110  1  0  0  0  0
 88111  1  0  0  0  0
 90112  1  0  0  0  0
 91113  1  0  0  0  0
 92114  1  0  0  0  0
 94115  1  0  0  0  0
 95116  1  0  0  0  0
 21117  1  0  0  0  0
117118  3  0  0  0  0
 79120  4  0  0  0  0
119120  3  0  0  0  0
118122  4  0  0  0  0
122123  4  0  0  0  0
123124  4  0  0  0  0
124125  2  0  0  0  0
125126  4  0  0  0  0
121127  1  0  0  0  0
123127  4  0  0  0  0
126127  4  0  0  0  0
126128  4  0  0  0  0
128129  1  0  0  0  0
129130  4  0  0  0  0
130131  4  0  0  0  0
131132  4  0  0  0  0
132133  1  0  0  0  0
132134  4  0  0  0  0
129135  4  0  0  0  0
134135  4  0  0  0  0
128136  4  0  0  0  0
136137  4  0  0  0  0
137138  2  0  0  0  0
121139  1  0  0  0  0
136139  4  0  0  0  0
138140  4  0  0  0  0
139140  4  0  0  0  0
119141  4  0  0  0  0
140141  4  0  0  0  0
141142  4  0  0  0  0
142143  4  0  0  0  0
143144  2  0  0  0  0
144145  4  0  0  0  0
121146  1  0  0  0  0
142146  4  0  0  0  0
145146  4  0  0  0  0
145147  4  0  0  0  0
147148  1  0  0  0  0
148149  4  0  0  0  0
149150  4  0  0  0  0
150151  4  0  0  0  0
151152  1  0  0  0  0
151153  4  0  0  0  0
148154  4  0  0  0  0
153154  4  0  0  0  0
147155  4  0  0  0  0
155156  4  0  0  0  0
156157  2  0  0  0  0
122158  4  0  0  0  0
157158  4  0  0  0  0
121159  1  0  0  0  0
155159  4  0  0  0  0
158159  4  0  0  0  0
124160  1  0  0  0  0
125161  1  0  0  0  0
130162  1  0  0  0  0
131163  1  0  0  0  0
133164  1  0  0  0  0
134165  1  0  0  0  0
135166  1  0  0  0  0
137167  1  0  0  0  0
138168  1  0  0  0  0
143169  1  0  0  0  0
144170  1  0  0  0  0
149171  1  0  0  0  0
150172  1  0  0  0  0
152173  1  0  0  0  0
153174  1  0  0  0  0
154175  1  0  0  0  0
156176  1  0  0  0  0
157177  1  0  0  0  0
M  END
