 xtb: 6.5.1 (b24c23e)
          07302201073D

122145  0     0  0            999 V2000
   17.2562   -0.0535   -0.0201 Co  0  0  0  0  0  0  0  0  0  0  0  0
   13.8851   -0.0620   -0.1604 C   0  0  0  0  0  0  0  0  0  0  0  0
   14.5421   -1.2697   -0.0607 C   0  0  0  0  0  0  0  0  0  0  0  0
   13.8816   -2.5360    0.0339 C   0  0  0  0  0  0  0  0  0  0  0  0
   14.8415   -3.4839   -0.0782 C   0  0  0  0  0  0  0  0  0  0  0  0
   16.0857   -2.7938   -0.2581 C   0  0  0  0  0  0  0  0  0  0  0  0
   15.8989   -1.4378   -0.1792 N   0  0  0  0  0  0  0  0  0  0  0  0
   17.2832   -3.4123   -0.5921 C   0  0  0  0  0  0  0  0  0  0  0  0
   17.2971   -4.8719   -0.8316 C   0  0  0  0  0  0  0  0  0  0  0  0
   18.1112   -5.7057   -0.0589 C   0  0  0  0  0  0  0  0  0  0  0  0
   18.1272   -7.0711   -0.2777 C   0  0  0  0  0  0  0  0  0  0  0  0
   17.3273   -7.6067   -1.2830 C   0  0  0  0  0  0  0  0  0  0  0  0
   17.3430   -9.0403   -1.5195 N   0  0  0  0  0  0  0  0  0  0  0  0
   16.6362   -9.4679   -2.3955 O   0  0  0  0  0  0  0  0  0  0  0  0
   18.0602   -9.7116   -0.8236 O   0  0  0  0  0  0  0  0  0  0  0  0
   16.5127   -6.7938   -2.0658 C   0  0  0  0  0  0  0  0  0  0  0  0
   16.4987   -5.4304   -1.8344 C   0  0  0  0  0  0  0  0  0  0  0  0
   18.4671   -2.6995   -0.7187 C   0  0  0  0  0  0  0  0  0  0  0  0
   19.7119   -3.2728   -1.1343 C   0  0  0  0  0  0  0  0  0  0  0  0
   20.6560   -2.3151   -0.9713 C   0  0  0  0  0  0  0  0  0  0  0  0
   18.6382   -1.3792   -0.3738 N   0  0  0  0  0  0  0  0  0  0  0  0
   19.9855   -1.1605   -0.4627 C   0  0  0  0  0  0  0  0  0  0  0  0
   20.6488   -0.0245    0.0031 C   0  0  0  0  0  0  0  0  0  0  0  0
   19.9565    1.0950    0.4686 C   0  0  0  0  0  0  0  0  0  0  0  0
   20.5931    2.2443    1.0289 C   0  0  0  0  0  0  0  0  0  0  0  0
   19.6278    3.1802    1.1982 C   0  0  0  0  0  0  0  0  0  0  0  0
   18.4059    2.6017    0.7261 C   0  0  0  0  0  0  0  0  0  0  0  0
   18.6102    1.2968    0.3420 N   0  0  0  0  0  0  0  0  0  0  0  0
   17.2188    3.3025    0.5665 C   0  0  0  0  0  0  0  0  0  0  0  0
   17.1962    4.7542    0.8480 C   0  0  0  0  0  0  0  0  0  0  0  0
   16.3246    5.2711    1.8115 C   0  0  0  0  0  0  0  0  0  0  0  0
   16.2971    6.6276    2.0792 C   0  0  0  0  0  0  0  0  0  0  0  0
   17.1450    7.4759    1.3730 C   0  0  0  0  0  0  0  0  0  0  0  0
   17.1155    8.9028    1.6457 N   0  0  0  0  0  0  0  0  0  0  0  0
   16.3404    9.2944    2.4798 O   0  0  0  0  0  0  0  0  0  0  0  0
   17.8664    9.6051    1.0193 O   0  0  0  0  0  0  0  0  0  0  0  0
   18.0192    6.9820    0.4091 C   0  0  0  0  0  0  0  0  0  0  0  0
   18.0429    5.6232    0.1529 C   0  0  0  0  0  0  0  0  0  0  0  0
   16.0499    2.6803    0.1468 C   0  0  0  0  0  0  0  0  0  0  0  0
   14.8145    3.3649   -0.1019 C   0  0  0  0  0  0  0  0  0  0  0  0
   13.8755    2.4132   -0.3124 C   0  0  0  0  0  0  0  0  0  0  0  0
   14.5394    1.1499   -0.2005 C   0  0  0  0  0  0  0  0  0  0  0  0
   15.8844    1.3261    0.0124 N   0  0  0  0  0  0  0  0  0  0  0  0
   12.8025   -0.0653   -0.2012 H   0  0  0  0  0  0  0  0  0  0  0  0
   12.8188   -2.6623    0.1642 H   0  0  0  0  0  0  0  0  0  0  0  0
   14.7309   -4.5556   -0.0471 H   0  0  0  0  0  0  0  0  0  0  0  0
   18.7210   -5.2771    0.7279 H   0  0  0  0  0  0  0  0  0  0  0  0
   18.7492   -7.7264    0.3202 H   0  0  0  0  0  0  0  0  0  0  0  0
   15.9033   -7.2353   -2.8452 H   0  0  0  0  0  0  0  0  0  0  0  0
   15.8781   -4.7850   -2.4450 H   0  0  0  0  0  0  0  0  0  0  0  0
   19.8359   -4.2781   -1.5026 H   0  0  0  0  0  0  0  0  0  0  0  0
   21.7144   -2.3725   -1.1674 H   0  0  0  0  0  0  0  0  0  0  0  0
   21.6442    2.3119    1.2583 H   0  0  0  0  0  0  0  0  0  0  0  0
   19.7241    4.1732    1.6059 H   0  0  0  0  0  0  0  0  0  0  0  0
   15.6778    4.5985    2.3627 H   0  0  0  0  0  0  0  0  0  0  0  0
   15.6292    7.0368    2.8276 H   0  0  0  0  0  0  0  0  0  0  0  0
   18.6661    7.6643   -0.1292 H   0  0  0  0  0  0  0  0  0  0  0  0
   18.7092    5.2279   -0.6050 H   0  0  0  0  0  0  0  0  0  0  0  0
   14.6953    4.4362   -0.1110 H   0  0  0  0  0  0  0  0  0  0  0  0
   12.8235    2.5344   -0.5147 H   0  0  0  0  0  0  0  0  0  0  0  0
   28.0718    0.0571    0.0015 Co  0  0  0  0  0  0  0  0  0  0  0  0
   31.4429    0.1177   -0.1255 C   0  0  0  0  0  0  0  0  0  0  0  0
   30.7859    1.1999    0.4199 C   0  0  0  0  0  0  0  0  0  0  0  0
   31.4463    2.3382    0.9826 C   0  0  0  0  0  0  0  0  0  0  0  0
   30.4865    3.2590    1.2340 C   0  0  0  0  0  0  0  0  0  0  0  0
   29.2423    2.6867    0.8084 C   0  0  0  0  0  0  0  0  0  0  0  0
   29.4291    1.4001    0.3729 N   0  0  0  0  0  0  0  0  0  0  0  0
   28.0447    3.3854    0.7305 C   0  0  0  0  0  0  0  0  0  0  0  0
   28.0309    4.8283    1.0558 C   0  0  0  0  0  0  0  0  0  0  0  0
   27.2165    5.3116    2.0845 C   0  0  0  0  0  0  0  0  0  0  0  0
   27.2006    6.6595    2.3937 C   0  0  0  0  0  0  0  0  0  0  0  0
   28.0010    7.5328    1.6629 C   0  0  0  0  0  0  0  0  0  0  0  0
   27.9856    8.9504    1.9814 N   0  0  0  0  0  0  0  0  0  0  0  0
   28.6939    9.6750    1.3309 O   0  0  0  0  0  0  0  0  0  0  0  0
   27.2667    9.3122    2.8767 O   0  0  0  0  0  0  0  0  0  0  0  0
   28.8158    7.0726    0.6326 C   0  0  0  0  0  0  0  0  0  0  0  0
   28.8297    5.7219    0.3359 C   0  0  0  0  0  0  0  0  0  0  0  0
   26.8609    2.7720    0.3457 C   0  0  0  0  0  0  0  0  0  0  0  0
   25.6162    3.4594    0.1753 C   0  0  0  0  0  0  0  0  0  0  0  0
   24.6721    2.5103   -0.0325 C   0  0  0  0  0  0  0  0  0  0  0  0
   26.6899    1.4188    0.1705 N   0  0  0  0  0  0  0  0  0  0  0  0
   25.3425    1.2493    0.0061 C   0  0  0  0  0  0  0  0  0  0  0  0
   24.6792    0.0215    0.0120 C   0  0  0  0  0  0  0  0  0  0  0  0
   25.3716   -1.1908    0.0240 C   0  0  0  0  0  0  0  0  0  0  0  0
   24.7351   -2.4665    0.1126 C   0  0  0  0  0  0  0  0  0  0  0  0
   25.7003   -3.3975   -0.0813 C   0  0  0  0  0  0  0  0  0  0  0  0
   26.9222   -2.6842   -0.3023 C   0  0  0  0  0  0  0  0  0  0  0  0
   26.7178   -1.3305   -0.1692 N   0  0  0  0  0  0  0  0  0  0  0  0
   28.1093   -3.2739   -0.7132 C   0  0  0  0  0  0  0  0  0  0  0  0
   28.1319   -4.7253   -0.9965 C   0  0  0  0  0  0  0  0  0  0  0  0
   29.0039   -5.5657   -0.2974 C   0  0  0  0  0  0  0  0  0  0  0  0
   29.0315   -6.9235   -0.5580 C   0  0  0  0  0  0  0  0  0  0  0  0
   28.1832   -7.4453   -1.5303 C   0  0  0  0  0  0  0  0  0  0  0  0
   28.2128   -8.8703   -1.8127 N   0  0  0  0  0  0  0  0  0  0  0  0
   28.9883   -9.5460   -1.1866 O   0  0  0  0  0  0  0  0  0  0  0  0
   27.4610   -9.2868   -2.6557 O   0  0  0  0  0  0  0  0  0  0  0  0
   27.3086   -6.6261   -2.2383 C   0  0  0  0  0  0  0  0  0  0  0  0
   27.2848   -5.2704   -1.9663 C   0  0  0  0  0  0  0  0  0  0  0  0
   29.2781   -2.5398   -0.8690 C   0  0  0  0  0  0  0  0  0  0  0  0
   30.5136   -3.0811   -1.3565 C   0  0  0  0  0  0  0  0  0  0  0  0
   31.4525   -2.1199   -1.1947 C   0  0  0  0  0  0  0  0  0  0  0  0
   30.7886   -0.9908   -0.6172 C   0  0  0  0  0  0  0  0  0  0  0  0
   29.4436   -1.2339   -0.4858 N   0  0  0  0  0  0  0  0  0  0  0  0
   32.5256    0.1360   -0.1620 H   0  0  0  0  0  0  0  0  0  0  0  0
   32.5091    2.4065    1.1507 H   0  0  0  0  0  0  0  0  0  0  0  0
   30.5970    4.2408    1.6648 H   0  0  0  0  0  0  0  0  0  0  0  0
   26.6065    4.6193    2.6529 H   0  0  0  0  0  0  0  0  0  0  0  0
   26.5784    7.0428    3.1934 H   0  0  0  0  0  0  0  0  0  0  0  0
   29.4256    7.7740    0.0759 H   0  0  0  0  0  0  0  0  0  0  0  0
   29.4504    5.3525   -0.4721 H   0  0  0  0  0  0  0  0  0  0  0  0
   25.4921    4.5294    0.2108 H   0  0  0  0  0  0  0  0  0  0  0  0
   23.6137    2.6370   -0.1929 H   0  0  0  0  0  0  0  0  0  0  0  0
   23.6840   -2.6152    0.3000 H   0  0  0  0  0  0  0  0  0  0  0  0
   25.6041   -4.4709   -0.0755 H   0  0  0  0  0  0  0  0  0  0  0  0
   29.6510   -5.1488    0.4654 H   0  0  0  0  0  0  0  0  0  0  0  0
   29.6997   -7.5835   -0.0179 H   0  0  0  0  0  0  0  0  0  0  0  0
   26.6614   -7.0569   -2.9929 H   0  0  0  0  0  0  0  0  0  0  0  0
   26.6183   -4.6199   -2.5205 H   0  0  0  0  0  0  0  0  0  0  0  0
   30.6327   -4.0707   -1.7667 H   0  0  0  0  0  0  0  0  0  0  0  0
   32.5045   -2.1563   -1.4278 H   0  0  0  0  0  0  0  0  0  0  0  0
   22.0559   -0.0100    0.0103 C   0  0  0  0  0  0  0  0  0  0  0  0
   23.2721    0.0053    0.0133 C   0  0  0  0  0  0  0  0  0  0  0  0
  2  3  4  0  0  0  0
  3  4  1  0  0  0  0
  4  5  2  0  0  0  0
  5  6  4  0  0  0  0
  1  7  1  0  0  0  0
  3  7  4  0  0  0  0
  6  7  4  0  0  0  0
  6  8  4  0  0  0  0
  8  9  1  0  0  0  0
  9 10  4  0  0  0  0
 10 11  4  0  0  0  0
 11 12  4  0  0  0  0
 12 13  1  0  0  0  0
 13 14  2  0  0  0  0
 13 15  2  0  0  0  0
 14 15  1  0  0  0  0
 12 16  4  0  0  0  0
  9 17  4  0  0  0  0
 16 17  4  0  0  0  0
  8 18  4  0  0  0  0
 18 19  4  0  0  0  0
 19 20  2  0  0  0  0
  1 21  1  0  0  0  0
 18 21  4  0  0  0  0
 20 22  4  0  0  0  0
 21 22  4  0  0  0  0
 22 23  4  0  0  0  0
 23 24  4  0  0  0  0
 24 25  4  0  0  0  0
 25 26  2  0  0  0  0
 26 27  4  0  0  0  0
  1 28  1  0  0  0  0
 24 28  4  0  0  0  0
 27 28  4  0  0  0  0
 27 29  4  0  0  0  0
 29 30  1  0  0  0  0
 30 31  4  0  0  0  0
 31 32  4  0  0  0  0
 32 33  4  0  0  0  0
 33 34  1  0  0  0  0
 34 35  2  0  0  0  0
 34 36  2  0  0  0  0
 35 36  1  0  0  0  0
 33 37  4  0  0  0  0
 30 38  4  0  0  0  0
 37 38  4  0  0  0  0
 29 39  4  0  0  0  0
 39 40  4  0  0  0  0
 40 41  2  0  0  0  0
  2 42  4  0  0  0  0
 41 42  1  0  0  0  0
  1 43  1  0  0  0  0
 39 43  4  0  0  0  0
 42 43  4  0  0  0  0
  2 44  1  0  0  0  0
  4 45  1  0  0  0  0
  5 46  1  0  0  0  0
 10 47  1  0  0  0  0
 11 48  1  0  0  0  0
 16 49  1  0  0  0  0
 17 50  1  0  0  0  0
 19 51  1  0  0  0  0
 20 52  1  0  0  0  0
 25 53  1  0  0  0  0
 26 54  1  0  0  0  0
 31 55  1  0  0  0  0
 32 56  1  0  0  0  0
 37 57  1  0  0  0  0
 38 58  1  0  0  0  0
 40 59  1  0  0  0  0
 41 60  1  0  0  0  0
 62 63  4  0  0  0  0
 63 64  1  0  0  0  0
 64 65  2  0  0  0  0
 65 66  4  0  0  0  0
 61 67  1  0  0  0  0
 63 67  4  0  0  0  0
 66 67  4  0  0  0  0
 66 68  4  0  0  0  0
 68 69  1  0  0  0  0
 69 70  4  0  0  0  0
 70 71  4  0  0  0  0
 71 72  4  0  0  0  0
 72 73  1  0  0  0  0
 73 74  2  0  0  0  0
 73 75  2  0  0  0  0
 74 75  1  0  0  0  0
 72 76  4  0  0  0  0
 69 77  4  0  0  0  0
 76 77  4  0  0  0  0
 68 78  4  0  0  0  0
 78 79  4  0  0  0  0
 79 80  2  0  0  0  0
 61 81  1  0  0  0  0
 78 81  4  0  0  0  0
 80 82  4  0  0  0  0
 81 82  4  0  0  0  0
 82 83  4  0  0  0  0
 83 84  4  0  0  0  0
 84 85  4  0  0  0  0
 85 86  2  0  0  0  0
 86 87  4  0  0  0  0
 61 88  1  0  0  0  0
 84 88  4  0  0  0  0
 87 88  4  0  0  0  0
 87 89  4  0  0  0  0
 89 90  1  0  0  0  0
 90 91  4  0  0  0  0
 91 92  4  0  0  0  0
 92 93  4  0  0  0  0
 93 94  1  0  0  0  0
 94 95  2  0  0  0  0
 94 96  2  0  0  0  0
 95 96  1  0  0  0  0
 93 97  4  0  0  0  0
 90 98  4  0  0  0  0
 97 98  4  0  0  0  0
 89 99  4  0  0  0  0
 99100  4  0  0  0  0
100101  2  0  0  0  0
 62102  4  0  0  0  0
101102  1  0  0  0  0
 61103  1  0  0  0  0
 99103  4  0  0  0  0
102103  4  0  0  0  0
 62104  1  0  0  0  0
 64105  1  0  0  0  0
 65106  1  0  0  0  0
 70107  1  0  0  0  0
 71108  1  0  0  0  0
 76109  1  0  0  0  0
 77110  1  0  0  0  0
 79111  1  0  0  0  0
 80112  1  0  0  0  0
 85113  1  0  0  0  0
 86114  1  0  0  0  0
 91115  1  0  0  0  0
 92116  1  0  0  0  0
 97117  1  0  0  0  0
 98118  1  0  0  0  0
100119  1  0  0  0  0
101120  1  0  0  0  0
 23121  1  0  0  0  0
 83122  1  0  0  0  0
121122  3  0  0  0  0
M  END
