 xtb: 6.5.1 (b24c23e)
          07292216563D

195224  0     0  0            999 V2000
   26.9302    0.0046   -0.0460 Fe  0  0  0  0  0  0  0  0  0  0  0  0
   23.5408    0.0665   -0.1486 C   0  0  0  0  0  0  0  0  0  0  0  0
   24.2056    1.2742   -0.1040 C   0  0  0  0  0  0  0  0  0  0  0  0
   23.5394    2.5414   -0.0815 C   0  0  0  0  0  0  0  0  0  0  0  0
   24.5001    3.4813    0.0779 C   0  0  0  0  0  0  0  0  0  0  0  0
   25.7541    2.7868    0.1379 C   0  0  0  0  0  0  0  0  0  0  0  0
   25.5611    1.4380    0.0123 N   0  0  0  0  0  0  0  0  0  0  0  0
   26.9747    3.4084    0.3794 C   0  0  0  0  0  0  0  0  0  0  0  0
   26.9903    4.8764    0.5828 C   0  0  0  0  0  0  0  0  0  0  0  0
   27.3544    5.4114    1.8217 C   0  0  0  0  0  0  0  0  0  0  0  0
   27.3589    6.7794    2.0154 C   0  0  0  0  0  0  0  0  0  0  0  0
   27.0055    7.6427    0.9732 C   0  0  0  0  0  0  0  0  0  0  0  0
   27.0180    9.0988    1.2052 C   0  0  0  0  0  0  0  0  0  0  0  0
   27.3195    9.6064    2.2548 O   0  0  0  0  0  0  0  0  0  0  0  0
   26.6469    7.1085   -0.2667 C   0  0  0  0  0  0  0  0  0  0  0  0
   26.6372    5.7381   -0.4586 C   0  0  0  0  0  0  0  0  0  0  0  0
   28.1772    2.7192    0.4367 C   0  0  0  0  0  0  0  0  0  0  0  0
   29.4486    3.3515    0.6308 C   0  0  0  0  0  0  0  0  0  0  0  0
   30.3885    2.3843    0.5089 C   0  0  0  0  0  0  0  0  0  0  0  0
   28.3433    1.3729    0.2125 N   0  0  0  0  0  0  0  0  0  0  0  0
   29.6901    1.1662    0.2397 C   0  0  0  0  0  0  0  0  0  0  0  0
   30.3418   -0.0480   -0.0112 C   0  0  0  0  0  0  0  0  0  0  0  0
   29.6564   -1.2453   -0.2512 C   0  0  0  0  0  0  0  0  0  0  0  0
   30.3193   -2.4836   -0.5174 C   0  0  0  0  0  0  0  0  0  0  0  0
   29.3531   -3.4280   -0.6130 C   0  0  0  0  0  0  0  0  0  0  0  0
   28.1023   -2.7626   -0.3984 C   0  0  0  0  0  0  0  0  0  0  0  0
   28.3045   -1.4162   -0.2088 N   0  0  0  0  0  0  0  0  0  0  0  0
   26.8753   -3.4105   -0.3746 C   0  0  0  0  0  0  0  0  0  0  0  0
   26.8483   -4.8840   -0.5202 C   0  0  0  0  0  0  0  0  0  0  0  0
   26.1951   -5.4718   -1.6070 C   0  0  0  0  0  0  0  0  0  0  0  0
   26.1659   -6.8479   -1.7463 C   0  0  0  0  0  0  0  0  0  0  0  0
   26.7850   -7.6643   -0.7969 C   0  0  0  0  0  0  0  0  0  0  0  0
   26.7628   -9.1336   -0.9192 C   0  0  0  0  0  0  0  0  0  0  0  0
   27.2796   -9.8788   -0.1269 O   0  0  0  0  0  0  0  0  0  0  0  0
   27.4378   -7.0762    0.2915 C   0  0  0  0  0  0  0  0  0  0  0  0
   27.4722   -5.7016    0.4267 C   0  0  0  0  0  0  0  0  0  0  0  0
   25.6665   -2.7368   -0.2334 C   0  0  0  0  0  0  0  0  0  0  0  0
   24.3887   -3.3870   -0.1764 C   0  0  0  0  0  0  0  0  0  0  0  0
   23.4543   -2.4090   -0.1266 C   0  0  0  0  0  0  0  0  0  0  0  0
   24.1624   -1.1647   -0.1359 C   0  0  0  0  0  0  0  0  0  0  0  0
   25.5157   -1.3784   -0.1694 N   0  0  0  0  0  0  0  0  0  0  0  0
   22.4573    0.0861   -0.1805 H   0  0  0  0  0  0  0  0  0  0  0  0
   22.4722    2.6729   -0.1629 H   0  0  0  0  0  0  0  0  0  0  0  0
   24.3812    4.5493    0.1614 H   0  0  0  0  0  0  0  0  0  0  0  0
   27.6180    4.7435    2.6339 H   0  0  0  0  0  0  0  0  0  0  0  0
   27.6336    7.2034    2.9753 H   0  0  0  0  0  0  0  0  0  0  0  0
   26.7218    9.7038    0.3217 H   0  0  0  0  0  0  0  0  0  0  0  0
   26.3755    7.7715   -1.0817 H   0  0  0  0  0  0  0  0  0  0  0  0
   26.3685    5.3261   -1.4247 H   0  0  0  0  0  0  0  0  0  0  0  0
   29.5936    4.4030    0.8175 H   0  0  0  0  0  0  0  0  0  0  0  0
   31.4602    2.4735    0.5837 H   0  0  0  0  0  0  0  0  0  0  0  0
   31.3866   -2.5991   -0.6154 H   0  0  0  0  0  0  0  0  0  0  0  0
   29.4662   -4.4800   -0.8180 H   0  0  0  0  0  0  0  0  0  0  0  0
   25.7232   -4.8400   -2.3511 H   0  0  0  0  0  0  0  0  0  0  0  0
   25.6608   -7.2958   -2.5960 H   0  0  0  0  0  0  0  0  0  0  0  0
   26.2222   -9.5083   -1.8144 H   0  0  0  0  0  0  0  0  0  0  0  0
   27.9132   -7.7183    1.0251 H   0  0  0  0  0  0  0  0  0  0  0  0
   27.9687   -5.2488    1.2775 H   0  0  0  0  0  0  0  0  0  0  0  0
   24.2390   -4.4544   -0.1704 H   0  0  0  0  0  0  0  0  0  0  0  0
   22.3808   -2.5015   -0.0820 H   0  0  0  0  0  0  0  0  0  0  0  0
   64.0487   -0.0228   -0.0653 Fe  0  0  0  0  0  0  0  0  0  0  0  0
   67.4393   -0.0688   -0.1600 C   0  0  0  0  0  0  0  0  0  0  0  0
   66.7760   -1.2723   -0.2775 C   0  0  0  0  0  0  0  0  0  0  0  0
   67.4443   -2.5307   -0.4183 C   0  0  0  0  0  0  0  0  0  0  0  0
   66.4842   -3.4842   -0.3934 C   0  0  0  0  0  0  0  0  0  0  0  0
   65.2283   -2.8047   -0.2539 C   0  0  0  0  0  0  0  0  0  0  0  0
   65.4199   -1.4511   -0.1935 N   0  0  0  0  0  0  0  0  0  0  0  0
   64.0053   -3.4534   -0.1236 C   0  0  0  0  0  0  0  0  0  0  0  0
   63.9883   -4.9356   -0.1283 C   0  0  0  0  0  0  0  0  0  0  0  0
   63.6034   -5.6381    1.0171 C   0  0  0  0  0  0  0  0  0  0  0  0
   63.5968   -7.0197    1.0175 C   0  0  0  0  0  0  0  0  0  0  0  0
   63.9686   -7.7292   -0.1292 C   0  0  0  0  0  0  0  0  0  0  0  0
   63.9532   -9.2035   -0.1037 C   0  0  0  0  0  0  0  0  0  0  0  0
   63.6340   -9.8527    0.8591 O   0  0  0  0  0  0  0  0  0  0  0  0
   64.3477   -7.0274   -1.2758 C   0  0  0  0  0  0  0  0  0  0  0  0
   64.3598   -5.6437   -1.2739 C   0  0  0  0  0  0  0  0  0  0  0  0
   62.7999   -2.7787    0.0028 C   0  0  0  0  0  0  0  0  0  0  0  0
   61.5266   -3.4329    0.0698 C   0  0  0  0  0  0  0  0  0  0  0  0
   60.5863   -2.4583    0.0668 C   0  0  0  0  0  0  0  0  0  0  0  0
   62.6348   -1.4140   -0.0252 N   0  0  0  0  0  0  0  0  0  0  0  0
   61.2866   -1.2138   -0.0000 C   0  0  0  0  0  0  0  0  0  0  0  0
   60.6365    0.0249   -0.0625 C   0  0  0  0  0  0  0  0  0  0  0  0
   61.3221    1.2451   -0.0884 C   0  0  0  0  0  0  0  0  0  0  0  0
   60.6590    2.5099   -0.1527 C   0  0  0  0  0  0  0  0  0  0  0  0
   61.6247    3.4577   -0.0935 C   0  0  0  0  0  0  0  0  0  0  0  0
   62.8757    2.7668    0.0119 C   0  0  0  0  0  0  0  0  0  0  0  0
   62.6738    1.4074   -0.0127 N   0  0  0  0  0  0  0  0  0  0  0  0
   64.1032    3.4041    0.1251 C   0  0  0  0  0  0  0  0  0  0  0  0
   64.1298    4.8832    0.1961 C   0  0  0  0  0  0  0  0  0  0  0  0
   64.7701    5.6230   -0.8021 C   0  0  0  0  0  0  0  0  0  0  0  0
   64.7962    7.0049   -0.7425 C   0  0  0  0  0  0  0  0  0  0  0  0
   64.1866    7.6746    0.3211 C   0  0  0  0  0  0  0  0  0  0  0  0
   64.2037    9.1463    0.4095 C   0  0  0  0  0  0  0  0  0  0  0  0
   63.6937    9.7689    1.3053 O   0  0  0  0  0  0  0  0  0  0  0  0
   63.5476    6.9343    1.3213 C   0  0  0  0  0  0  0  0  0  0  0  0
   63.5166    5.5544    1.2580 C   0  0  0  0  0  0  0  0  0  0  0  0
   65.3125    2.7177    0.1551 C   0  0  0  0  0  0  0  0  0  0  0  0
   66.5907    3.3542    0.2955 C   0  0  0  0  0  0  0  0  0  0  0  0
   67.5252    2.3797    0.2000 C   0  0  0  0  0  0  0  0  0  0  0  0
   66.8168    1.1487    0.0194 C   0  0  0  0  0  0  0  0  0  0  0  0
   65.4634    1.3641    0.0231 N   0  0  0  0  0  0  0  0  0  0  0  0
   68.5229   -0.0830   -0.1932 H   0  0  0  0  0  0  0  0  0  0  0  0
   68.5124   -2.6493   -0.5078 H   0  0  0  0  0  0  0  0  0  0  0  0
   66.6042   -4.5537   -0.4521 H   0  0  0  0  0  0  0  0  0  0  0  0
   63.3248   -5.0898    1.9098 H   0  0  0  0  0  0  0  0  0  0  0  0
   63.3062   -7.5734    1.9038 H   0  0  0  0  0  0  0  0  0  0  0  0
   64.2643   -9.6792   -1.0581 H   0  0  0  0  0  0  0  0  0  0  0  0
   64.6331   -7.5704   -2.1710 H   0  0  0  0  0  0  0  0  0  0  0  0
   64.6446   -5.1009   -2.1682 H   0  0  0  0  0  0  0  0  0  0  0  0
   61.3814   -4.5004    0.0966 H   0  0  0  0  0  0  0  0  0  0  0  0
   59.5134   -2.5574    0.1011 H   0  0  0  0  0  0  0  0  0  0  0  0
   59.5918    2.6395   -0.2327 H   0  0  0  0  0  0  0  0  0  0  0  0
   61.5111    4.5289   -0.1271 H   0  0  0  0  0  0  0  0  0  0  0  0
   65.2340    5.1059   -1.6345 H   0  0  0  0  0  0  0  0  0  0  0  0
   65.2907    7.5717   -1.5246 H   0  0  0  0  0  0  0  0  0  0  0  0
   64.7325    9.6471   -0.4294 H   0  0  0  0  0  0  0  0  0  0  0  0
   63.0799    7.4630    2.1448 H   0  0  0  0  0  0  0  0  0  0  0  0
   63.0305    4.9826    2.0403 H   0  0  0  0  0  0  0  0  0  0  0  0
   66.7407    4.4100    0.4523 H   0  0  0  0  0  0  0  0  0  0  0  0
   68.5990    2.4657    0.2510 H   0  0  0  0  0  0  0  0  0  0  0  0
   31.7421   -0.0645   -0.0135 C   0  0  0  0  0  0  0  0  0  0  0  0
   32.9688   -0.0710   -0.0118 C   0  0  0  0  0  0  0  0  0  0  0  0
   34.3079   -0.0788   -0.0065 C   0  0  0  0  0  0  0  0  0  0  0  0
   35.5411   -0.0771   -0.0027 C   0  0  0  0  0  0  0  0  0  0  0  0
   36.8751   -0.0711    0.0058 C   0  0  0  0  0  0  0  0  0  0  0  0
   38.1084   -0.0601    0.0095 C   0  0  0  0  0  0  0  0  0  0  0  0
   39.4470   -0.0553    0.0133 C   0  0  0  0  0  0  0  0  0  0  0  0
   40.6742   -0.0477    0.0175 C   0  0  0  0  0  0  0  0  0  0  0  0
   50.3041    0.0235   -0.1380 C   0  0  0  0  0  0  0  0  0  0  0  0
   51.5308    0.0352   -0.1531 C   0  0  0  0  0  0  0  0  0  0  0  0
   52.8699    0.0428   -0.1611 C   0  0  0  0  0  0  0  0  0  0  0  0
   54.1029    0.0508   -0.1589 C   0  0  0  0  0  0  0  0  0  0  0  0
   55.4374    0.0541   -0.1514 C   0  0  0  0  0  0  0  0  0  0  0  0
   56.6703    0.0546   -0.1369 C   0  0  0  0  0  0  0  0  0  0  0  0
   58.0096    0.0513   -0.1126 C   0  0  0  0  0  0  0  0  0  0  0  0
   59.2358    0.0421   -0.0887 C   0  0  0  0  0  0  0  0  0  0  0  0
   45.4895   -0.0216   -0.0224 Fe  0  0  0  0  0  0  0  0  0  0  0  0
   42.0731   -0.0408    0.0159 C   0  0  0  0  0  0  0  0  0  0  0  0
   42.7407    1.1756    0.2125 C   0  0  0  0  0  0  0  0  0  0  0  0
   42.0638    2.4203    0.3975 C   0  0  0  0  0  0  0  0  0  0  0  0
   43.0163    3.3394    0.6893 C   0  0  0  0  0  0  0  0  0  0  0  0
   44.2704    2.6479    0.6854 C   0  0  0  0  0  0  0  0  0  0  0  0
   44.0879    1.3286    0.3513 N   0  0  0  0  0  0  0  0  0  0  0  0
   45.4830    3.2358    1.0245 C   0  0  0  0  0  0  0  0  0  0  0  0
   45.4778    4.6419    1.4892 C   0  0  0  0  0  0  0  0  0  0  0  0
   46.1581    5.6290    0.7702 C   0  0  0  0  0  0  0  0  0  0  0  0
   46.1512    6.9393    1.2084 C   0  0  0  0  0  0  0  0  0  0  0  0
   45.4708    7.2904    2.3789 C   0  0  0  0  0  0  0  0  0  0  0  0
   45.4850    8.6953    2.8290 C   0  0  0  0  0  0  0  0  0  0  0  0
   46.0529    9.5793    2.2411 O   0  0  0  0  0  0  0  0  0  0  0  0
   44.7922    6.3043    3.0986 C   0  0  0  0  0  0  0  0  0  0  0  0
   44.7924    4.9938    2.6551 C   0  0  0  0  0  0  0  0  0  0  0  0
   46.6998    2.5701    0.9441 C   0  0  0  0  0  0  0  0  0  0  0  0
   47.9557    3.1482    1.3183 C   0  0  0  0  0  0  0  0  0  0  0  0
   48.9126    2.2465    0.9900 C   0  0  0  0  0  0  0  0  0  0  0  0
   46.8866    1.3060    0.4405 N   0  0  0  0  0  0  0  0  0  0  0  0
   48.2363    1.1184    0.4315 C   0  0  0  0  0  0  0  0  0  0  0  0
   48.9050    0.0110   -0.1074 C   0  0  0  0  0  0  0  0  0  0  0  0
   48.2313   -1.1131   -0.6033 C   0  0  0  0  0  0  0  0  0  0  0  0
   48.9001   -2.2363   -1.1801 C   0  0  0  0  0  0  0  0  0  0  0  0
   47.9474   -3.1670   -1.4314 C   0  0  0  0  0  0  0  0  0  0  0  0
   46.7019   -2.6086   -0.9978 C   0  0  0  0  0  0  0  0  0  0  0  0
   46.8879   -1.3311   -0.5297 N   0  0  0  0  0  0  0  0  0  0  0  0
   45.4958   -3.2987   -1.0055 C   0  0  0  0  0  0  0  0  0  0  0  0
   45.4978   -4.7159   -1.4354 C   0  0  0  0  0  0  0  0  0  0  0  0
   46.2246   -5.6701   -0.7187 C   0  0  0  0  0  0  0  0  0  0  0  0
   46.2249   -6.9949   -1.1182 C   0  0  0  0  0  0  0  0  0  0  0  0
   45.5045   -7.3891   -2.2481 C   0  0  0  0  0  0  0  0  0  0  0  0
   45.4924   -8.7938   -2.6985 C   0  0  0  0  0  0  0  0  0  0  0  0
   44.8904   -9.1794   -3.6673 O   0  0  0  0  0  0  0  0  0  0  0  0
   44.7804   -6.4330   -2.9677 C   0  0  0  0  0  0  0  0  0  0  0  0
   44.7736   -5.1118   -2.5638 C   0  0  0  0  0  0  0  0  0  0  0  0
   44.2868   -2.7209   -0.6388 C   0  0  0  0  0  0  0  0  0  0  0  0
   43.0406   -3.4258   -0.6011 C   0  0  0  0  0  0  0  0  0  0  0  0
   42.0828   -2.5086   -0.3213 C   0  0  0  0  0  0  0  0  0  0  0  0
   42.7497   -1.2532   -0.1767 C   0  0  0  0  0  0  0  0  0  0  0  0
   44.0960   -1.3959   -0.3313 N   0  0  0  0  0  0  0  0  0  0  0  0
   40.9977    2.5574    0.3158 H   0  0  0  0  0  0  0  0  0  0  0  0
   42.8910    4.3919    0.8843 H   0  0  0  0  0  0  0  0  0  0  0  0
   46.6778    5.3610   -0.1427 H   0  0  0  0  0  0  0  0  0  0  0  0
   46.6714    7.7129    0.6539 H   0  0  0  0  0  0  0  0  0  0  0  0
   44.9215    8.8788    3.7685 H   0  0  0  0  0  0  0  0  0  0  0  0
   44.2642    6.5679    4.0093 H   0  0  0  0  0  0  0  0  0  0  0  0
   44.2738    4.2277    3.2205 H   0  0  0  0  0  0  0  0  0  0  0  0
   48.0801    4.1168    1.7740 H   0  0  0  0  0  0  0  0  0  0  0  0
   49.9811    2.3245    1.1096 H   0  0  0  0  0  0  0  0  0  0  0  0
   49.9612   -2.2921   -1.3618 H   0  0  0  0  0  0  0  0  0  0  0  0
   48.0673   -4.1423   -1.8741 H   0  0  0  0  0  0  0  0  0  0  0  0
   46.7765   -5.3678    0.1642 H   0  0  0  0  0  0  0  0  0  0  0  0
   46.7862   -7.7312   -0.5523 H   0  0  0  0  0  0  0  0  0  0  0  0
   46.0913   -9.4813   -2.0641 H   0  0  0  0  0  0  0  0  0  0  0  0
   44.2272   -6.7479   -3.8460 H   0  0  0  0  0  0  0  0  0  0  0  0
   44.2201   -4.3705   -3.1290 H   0  0  0  0  0  0  0  0  0  0  0  0
   42.9233   -4.4843   -0.7658 H   0  0  0  0  0  0  0  0  0  0  0  0
   41.0196   -2.6543   -0.2194 H   0  0  0  0  0  0  0  0  0  0  0  0
  2  3  4  0  0  0  0
  3  4  4  0  0  0  0
  4  5  2  0  0  0  0
  5  6  4  0  0  0  0
  1  7  1  0  0  0  0
  3  7  4  0  0  0  0
  6  7  4  0  0  0  0
  6  8  4  0  0  0  0
  8  9  1  0  0  0  0
  9 10  4  0  0  0  0
 10 11  4  0  0  0  0
 11 12  4  0  0  0  0
 12 13  1  0  0  0  0
 13 14  2  0  0  0  0
 12 15  4  0  0  0  0
  9 16  4  0  0  0  0
 15 16  4  0  0  0  0
  8 17  4  0  0  0  0
 17 18  4  0  0  0  0
 18 19  2  0  0  0  0
  1 20  1  0  0  0  0
 17 20  4  0  0  0  0
 19 21  4  0  0  0  0
 20 21  4  0  0  0  0
 21 22  4  0  0  0  0
 22 23  4  0  0  0  0
 23 24  4  0  0  0  0
 24 25  2  0  0  0  0
 25 26  4  0  0  0  0
  1 27  1  0  0  0  0
 23 27  4  0  0  0  0
 26 27  4  0  0  0  0
 26 28  4  0  0  0  0
 28 29  1  0  0  0  0
 29 30  4  0  0  0  0
 30 31  4  0  0  0  0
 31 32  4  0  0  0  0
 32 33  1  0  0  0  0
 33 34  2  0  0  0  0
 32 35  4  0  0  0  0
 29 36  4  0  0  0  0
 35 36  4  0  0  0  0
 28 37  4  0  0  0  0
 37 38  4  0  0  0  0
 38 39  2  0  0  0  0
  2 40  4  0  0  0  0
 39 40  4  0  0  0  0
  1 41  1  0  0  0  0
 37 41  4  0  0  0  0
 40 41  4  0  0  0  0
  2 42  1  0  0  0  0
  4 43  1  0  0  0  0
  5 44  1  0  0  0  0
 10 45  1  0  0  0  0
 11 46  1  0  0  0  0
 13 47  1  0  0  0  0
 15 48  1  0  0  0  0
 16 49  1  0  0  0  0
 18 50  1  0  0  0  0
 19 51  1  0  0  0  0
 24 52  1  0  0  0  0
 25 53  1  0  0  0  0
 30 54  1  0  0  0  0
 31 55  1  0  0  0  0
 33 56  1  0  0  0  0
 35 57  1  0  0  0  0
 36 58  1  0  0  0  0
 38 59  1  0  0  0  0
 39 60  1  0  0  0  0
 62 63  4  0  0  0  0
 63 64  4  0  0  0  0
 64 65  2  0  0  0  0
 65 66  4  0  0  0  0
 61 67  1  0  0  0  0
 63 67  4  0  0  0  0
 66 67  4  0  0  0  0
 66 68  4  0  0  0  0
 68 69  1  0  0  0  0
 69 70  4  0  0  0  0
 70 71  4  0  0  0  0
 71 72  4  0  0  0  0
 72 73  1  0  0  0  0
 73 74  2  0  0  0  0
 72 75  4  0  0  0  0
 69 76  4  0  0  0  0
 75 76  4  0  0  0  0
 68 77  4  0  0  0  0
 77 78  4  0  0  0  0
 78 79  2  0  0  0  0
 61 80  1  0  0  0  0
 77 80  4  0  0  0  0
 79 81  4  0  0  0  0
 80 81  4  0  0  0  0
 81 82  4  0  0  0  0
 82 83  4  0  0  0  0
 83 84  4  0  0  0  0
 84 85  2  0  0  0  0
 85 86  4  0  0  0  0
 61 87  1  0  0  0  0
 83 87  4  0  0  0  0
 86 87  4  0  0  0  0
 86 88  4  0  0  0  0
 88 89  1  0  0  0  0
 89 90  4  0  0  0  0
 90 91  4  0  0  0  0
 91 92  4  0  0  0  0
 92 93  1  0  0  0  0
 93 94  2  0  0  0  0
 92 95  4  0  0  0  0
 89 96  4  0  0  0  0
 95 96  4  0  0  0  0
 88 97  4  0  0  0  0
 97 98  4  0  0  0  0
 98 99  2  0  0  0  0
 62100  4  0  0  0  0
 99100  4  0  0  0  0
 61101  1  0  0  0  0
 97101  4  0  0  0  0
100101  4  0  0  0  0
 62102  1  0  0  0  0
 64103  1  0  0  0  0
 65104  1  0  0  0  0
 70105  1  0  0  0  0
 71106  1  0  0  0  0
 73107  1  0  0  0  0
 75108  1  0  0  0  0
 76109  1  0  0  0  0
 78110  1  0  0  0  0
 79111  1  0  0  0  0
 84112  1  0  0  0  0
 85113  1  0  0  0  0
 90114  1  0  0  0  0
 91115  1  0  0  0  0
 93116  1  0  0  0  0
 95117  1  0  0  0  0
 96118  1  0  0  0  0
 98119  1  0  0  0  0
 99120  1  0  0  0  0
 22121  4  0  0  0  0
121122  3  0  0  0  0
122123  4  0  0  0  0
123124  3  0  0  0  0
124125  4  0  0  0  0
125126  3  0  0  0  0
126127  4  0  0  0  0
127128  3  0  0  0  0
129130  3  0  0  0  0
130131  4  0  0  0  0
131132  3  0  0  0  0
132133  4  0  0  0  0
133134  3  0  0  0  0
134135  4  0  0  0  0
 82136  4  0  0  0  0
135136  3  0  0  0  0
128138  4  0  0  0  0
138139  4  0  0  0  0
139140  4  0  0  0  0
140141  2  0  0  0  0
141142  4  0  0  0  0
137143  1  0  0  0  0
139143  4  0  0  0  0
142143  4  0  0  0  0
142144  4  0  0  0  0
144145  1  0  0  0  0
145146  4  0  0  0  0
146147  4  0  0  0  0
147148  4  0  0  0  0
148149  1  0  0  0  0
149150  2  0  0  0  0
148151  4  0  0  0  0
145152  4  0  0  0  0
151152  4  0  0  0  0
144153  4  0  0  0  0
153154  4  0  0  0  0
154155  2  0  0  0  0
137156  1  0  0  0  0
153156  4  0  0  0  0
155157  4  0  0  0  0
156157  4  0  0  0  0
129158  4  0  0  0  0
157158  4  0  0  0  0
158159  4  0  0  0  0
159160  4  0  0  0  0
160161  2  0  0  0  0
161162  4  0  0  0  0
137163  1  0  0  0  0
159163  4  0  0  0  0
162163  4  0  0  0  0
162164  4  0  0  0  0
164165  1  0  0  0  0
165166  4  0  0  0  0
166167  4  0  0  0  0
167168  4  0  0  0  0
168169  1  0  0  0  0
169170  2  0  0  0  0
168171  4  0  0  0  0
165172  4  0  0  0  0
171172  4  0  0  0  0
164173  4  0  0  0  0
173174  4  0  0  0  0
174175  2  0  0  0  0
138176  4  0  0  0  0
175176  4  0  0  0  0
137177  1  0  0  0  0
173177  4  0  0  0  0
176177  4  0  0  0  0
140178  1  0  0  0  0
141179  1  0  0  0  0
146180  1  0  0  0  0
147181  1  0  0  0  0
149182  1  0  0  0  0
151183  1  0  0  0  0
152184  1  0  0  0  0
154185  1  0  0  0  0
155186  1  0  0  0  0
160187  1  0  0  0  0
161188  1  0  0  0  0
166189  1  0  0  0  0
167190  1  0  0  0  0
169191  1  0  0  0  0
171192  1  0  0  0  0
172193  1  0  0  0  0
174194  1  0  0  0  0
175195  1  0  0  0  0
M  END
