 xtb: 6.5.1 (b24c23e)
          07262213343D

266300  0     0  0            999 V2000
   51.8133    0.0208   -0.0204 C   0  0  0  0  0  0  0  0  0  0  0  0
   52.4215   -1.2100   -0.2315 C   0  0  0  0  0  0  0  0  0  0  0  0
   51.7917   -2.4688   -0.4512 C   0  0  0  0  0  0  0  0  0  0  0  0
   52.7722   -3.4058   -0.6180 C   0  0  0  0  0  0  0  0  0  0  0  0
   54.0318   -2.7496   -0.5046 C   0  0  0  0  0  0  0  0  0  0  0  0
   53.7688   -1.4308   -0.2708 N   0  0  0  0  0  0  0  0  0  0  0  0
   55.2928   -3.3234   -0.6140 C   0  0  0  0  0  0  0  0  0  0  0  0
   56.5224   -2.6898   -0.5037 C   0  0  0  0  0  0  0  0  0  0  0  0
   57.7885   -3.3860   -0.6470 C   0  0  0  0  0  0  0  0  0  0  0  0
   58.7538   -2.4593   -0.4763 C   0  0  0  0  0  0  0  0  0  0  0  0
   56.7388   -1.3700   -0.2531 N   0  0  0  0  0  0  0  0  0  0  0  0
   58.0754   -1.2005   -0.2266 C   0  0  0  0  0  0  0  0  0  0  0  0
   58.7495    0.0175   -0.0018 C   0  0  0  0  0  0  0  0  0  0  0  0
   58.1147    1.2555    0.2133 C   0  0  0  0  0  0  0  0  0  0  0  0
   58.7357    2.5100    0.4566 C   0  0  0  0  0  0  0  0  0  0  0  0
   57.7508    3.4461    0.6117 C   0  0  0  0  0  0  0  0  0  0  0  0
   56.4970    2.7887    0.4721 C   0  0  0  0  0  0  0  0  0  0  0  0
   56.7690    1.4688    0.2332 N   0  0  0  0  0  0  0  0  0  0  0  0
   55.2373    3.3683    0.5634 C   0  0  0  0  0  0  0  0  0  0  0  0
   54.0066    2.7354    0.4453 C   0  0  0  0  0  0  0  0  0  0  0  0
   52.7328    3.4287    0.5612 C   0  0  0  0  0  0  0  0  0  0  0  0
   51.7741    2.4947    0.3999 C   0  0  0  0  0  0  0  0  0  0  0  0
   52.4633    1.2321    0.1854 C   0  0  0  0  0  0  0  0  0  0  0  0
   53.8044    1.4162    0.2182 N   0  0  0  0  0  0  0  0  0  0  0  0
   50.7286    0.0285   -0.0190 H   0  0  0  0  0  0  0  0  0  0  0  0
   50.7245   -2.6217   -0.4767 H   0  0  0  0  0  0  0  0  0  0  0  0
   52.6486   -4.4610   -0.8038 H   0  0  0  0  0  0  0  0  0  0  0  0
   54.4716   -0.7100   -0.1452 H   0  0  0  0  0  0  0  0  0  0  0  0
   55.3089   -4.3908   -0.8101 H   0  0  0  0  0  0  0  0  0  0  0  0
   57.8914   -4.4399   -0.8529 H   0  0  0  0  0  0  0  0  0  0  0  0
   59.8235   -2.5866   -0.5175 H   0  0  0  0  0  0  0  0  0  0  0  0
   59.8009    2.6658    0.5098 H   0  0  0  0  0  0  0  0  0  0  0  0
   57.8708    4.4996    0.8085 H   0  0  0  0  0  0  0  0  0  0  0  0
   56.0694    0.7469    0.0946 H   0  0  0  0  0  0  0  0  0  0  0  0
   55.2245    4.4369    0.7528 H   0  0  0  0  0  0  0  0  0  0  0  0
   52.6235    4.4868    0.7419 H   0  0  0  0  0  0  0  0  0  0  0  0
   50.7021    2.6142    0.4186 H   0  0  0  0  0  0  0  0  0  0  0  0
  124.9668    0.0157    0.0136 C   0  0  0  0  0  0  0  0  0  0  0  0
  124.3537    1.2331   -0.2538 C   0  0  0  0  0  0  0  0  0  0  0  0
  124.9785    2.4850   -0.5216 C   0  0  0  0  0  0  0  0  0  0  0  0
  123.9943    3.4094   -0.7319 C   0  0  0  0  0  0  0  0  0  0  0  0
  122.7375    2.7518   -0.5989 C   0  0  0  0  0  0  0  0  0  0  0  0
  123.0056    1.4450   -0.3101 N   0  0  0  0  0  0  0  0  0  0  0  0
  121.4740    3.3137   -0.7380 C   0  0  0  0  0  0  0  0  0  0  0  0
  120.2476    2.6775   -0.6093 C   0  0  0  0  0  0  0  0  0  0  0  0
  118.9780    3.3594   -0.7865 C   0  0  0  0  0  0  0  0  0  0  0  0
  118.0175    2.4339   -0.5847 C   0  0  0  0  0  0  0  0  0  0  0  0
  120.0381    1.3671   -0.3082 N   0  0  0  0  0  0  0  0  0  0  0  0
  118.7026    1.1903   -0.2823 C   0  0  0  0  0  0  0  0  0  0  0  0
  118.0344   -0.0222   -0.0148 C   0  0  0  0  0  0  0  0  0  0  0  0
  118.6733   -1.2476    0.2521 C   0  0  0  0  0  0  0  0  0  0  0  0
  118.0565   -2.4949    0.5399 C   0  0  0  0  0  0  0  0  0  0  0  0
  119.0450   -3.4175    0.7448 C   0  0  0  0  0  0  0  0  0  0  0  0
  120.2967   -2.7588    0.5916 C   0  0  0  0  0  0  0  0  0  0  0  0
  120.0199   -1.4518    0.2941 N   0  0  0  0  0  0  0  0  0  0  0  0
  121.5590   -3.3250    0.7216 C   0  0  0  0  0  0  0  0  0  0  0  0
  122.7865   -2.6890    0.5864 C   0  0  0  0  0  0  0  0  0  0  0  0
  124.0637   -3.3678    0.7438 C   0  0  0  0  0  0  0  0  0  0  0  0
  125.0177   -2.4360    0.5460 C   0  0  0  0  0  0  0  0  0  0  0  0
  124.3224   -1.1890    0.2690 C   0  0  0  0  0  0  0  0  0  0  0  0
  122.9821   -1.3803    0.3008 N   0  0  0  0  0  0  0  0  0  0  0  0
  126.0516    0.0141    0.0219 H   0  0  0  0  0  0  0  0  0  0  0  0
  126.0451    2.6425   -0.5472 H   0  0  0  0  0  0  0  0  0  0  0  0
  124.1140    4.4568   -0.9597 H   0  0  0  0  0  0  0  0  0  0  0  0
  122.3057    0.7264   -0.1588 H   0  0  0  0  0  0  0  0  0  0  0  0
  121.4529    4.3724   -0.9764 H   0  0  0  0  0  0  0  0  0  0  0  0
  118.8697    4.4037   -1.0341 H   0  0  0  0  0  0  0  0  0  0  0  0
  116.9472    2.5523   -0.6367 H   0  0  0  0  0  0  0  0  0  0  0  0
  116.9915   -2.6549    0.5869 H   0  0  0  0  0  0  0  0  0  0  0  0
  118.9290   -4.4626    0.9842 H   0  0  0  0  0  0  0  0  0  0  0  0
  120.7168   -0.7320    0.1335 H   0  0  0  0  0  0  0  0  0  0  0  0
  121.5771   -4.3839    0.9588 H   0  0  0  0  0  0  0  0  0  0  0  0
  124.1781   -4.4156    0.9743 H   0  0  0  0  0  0  0  0  0  0  0  0
  126.0903   -2.5474    0.5777 H   0  0  0  0  0  0  0  0  0  0  0  0
   60.1575    0.0118    0.0075 C   0  0  0  0  0  0  0  0  0  0  0  0
   61.3751    0.0069    0.0178 C   0  0  0  0  0  0  0  0  0  0  0  0
   71.2043    0.0018   -0.0039 C   0  0  0  0  0  0  0  0  0  0  0  0
   72.4222    0.0069   -0.0010 C   0  0  0  0  0  0  0  0  0  0  0  0
   82.2455    0.0013    0.0304 C   0  0  0  0  0  0  0  0  0  0  0  0
   83.4632    0.0010    0.0270 C   0  0  0  0  0  0  0  0  0  0  0  0
   93.2981   -0.0124   -0.0240 C   0  0  0  0  0  0  0  0  0  0  0  0
   94.5166   -0.0138   -0.0248 C   0  0  0  0  0  0  0  0  0  0  0  0
  104.3606    0.0006    0.0053 C   0  0  0  0  0  0  0  0  0  0  0  0
  105.5789   -0.0011    0.0045 C   0  0  0  0  0  0  0  0  0  0  0  0
  115.4089   -0.0251   -0.0006 C   0  0  0  0  0  0  0  0  0  0  0  0
  116.6263   -0.0226   -0.0105 C   0  0  0  0  0  0  0  0  0  0  0  0
   62.7824    0.0088    0.0210 C   0  0  0  0  0  0  0  0  0  0  0  0
   63.4239    1.2390   -0.2209 C   0  0  0  0  0  0  0  0  0  0  0  0
   62.8159    2.4939   -0.4869 C   0  0  0  0  0  0  0  0  0  0  0  0
   63.8120    3.4146   -0.6689 C   0  0  0  0  0  0  0  0  0  0  0  0
   65.0576    2.7454   -0.5226 C   0  0  0  0  0  0  0  0  0  0  0  0
   64.7721    1.4353   -0.2522 N   0  0  0  0  0  0  0  0  0  0  0  0
   66.3231    3.3106   -0.6406 C   0  0  0  0  0  0  0  0  0  0  0  0
   67.5555    2.6871   -0.5216 C   0  0  0  0  0  0  0  0  0  0  0  0
   68.8164    3.3885   -0.6835 C   0  0  0  0  0  0  0  0  0  0  0  0
   69.7885    2.4695   -0.5076 C   0  0  0  0  0  0  0  0  0  0  0  0
   67.7819    1.3723   -0.2528 N   0  0  0  0  0  0  0  0  0  0  0  0
   69.1191    1.2112   -0.2359 C   0  0  0  0  0  0  0  0  0  0  0  0
   69.7979   -0.0030   -0.0018 C   0  0  0  0  0  0  0  0  0  0  0  0
   69.1568   -1.2335    0.2390 C   0  0  0  0  0  0  0  0  0  0  0  0
   69.7648   -2.4891    0.5030 C   0  0  0  0  0  0  0  0  0  0  0  0
   68.7687   -3.4084    0.6895 C   0  0  0  0  0  0  0  0  0  0  0  0
   67.5228   -2.7381    0.5479 C   0  0  0  0  0  0  0  0  0  0  0  0
   67.8087   -1.4284    0.2755 N   0  0  0  0  0  0  0  0  0  0  0  0
   66.2575   -3.3015    0.6716 C   0  0  0  0  0  0  0  0  0  0  0  0
   65.0248   -2.6775    0.5537 C   0  0  0  0  0  0  0  0  0  0  0  0
   63.7641   -3.3784    0.7200 C   0  0  0  0  0  0  0  0  0  0  0  0
   62.7916   -2.4609    0.5402 C   0  0  0  0  0  0  0  0  0  0  0  0
   63.4603   -1.2036    0.2621 C   0  0  0  0  0  0  0  0  0  0  0  0
   64.7983   -1.3642    0.2799 N   0  0  0  0  0  0  0  0  0  0  0  0
   61.7524    2.6615   -0.5372 H   0  0  0  0  0  0  0  0  0  0  0  0
   63.7033    4.4648   -0.8884 H   0  0  0  0  0  0  0  0  0  0  0  0
   65.4599    0.7045   -0.1019 H   0  0  0  0  0  0  0  0  0  0  0  0
   66.3369    4.3738   -0.8597 H   0  0  0  0  0  0  0  0  0  0  0  0
   68.9117    4.4401   -0.9045 H   0  0  0  0  0  0  0  0  0  0  0  0
   70.8573    2.6017   -0.5589 H   0  0  0  0  0  0  0  0  0  0  0  0
   70.8283   -2.6577    0.5487 H   0  0  0  0  0  0  0  0  0  0  0  0
   68.8772   -4.4586    0.9090 H   0  0  0  0  0  0  0  0  0  0  0  0
   67.1207   -0.6972    0.1274 H   0  0  0  0  0  0  0  0  0  0  0  0
   66.2432   -4.3642    0.8932 H   0  0  0  0  0  0  0  0  0  0  0  0
   63.6694   -4.4289    0.9461 H   0  0  0  0  0  0  0  0  0  0  0  0
   61.7230   -2.5932    0.5929 H   0  0  0  0  0  0  0  0  0  0  0  0
   73.8287    0.0113    0.0032 C   0  0  0  0  0  0  0  0  0  0  0  0
   74.4696    1.2470    0.2173 C   0  0  0  0  0  0  0  0  0  0  0  0
   73.8610    2.5074    0.4549 C   0  0  0  0  0  0  0  0  0  0  0  0
   74.8567    3.4319    0.6175 C   0  0  0  0  0  0  0  0  0  0  0  0
   76.1027    2.7600    0.4866 C   0  0  0  0  0  0  0  0  0  0  0  0
   75.8176    1.4439    0.2460 N   0  0  0  0  0  0  0  0  0  0  0  0
   77.3683    3.3278    0.5885 C   0  0  0  0  0  0  0  0  0  0  0  0
   78.6002    2.7012    0.4800 C   0  0  0  0  0  0  0  0  0  0  0  0
   79.8622    3.4064    0.6153 C   0  0  0  0  0  0  0  0  0  0  0  0
   80.8332    2.4827    0.4589 C   0  0  0  0  0  0  0  0  0  0  0  0
   78.8246    1.3795    0.2465 N   0  0  0  0  0  0  0  0  0  0  0  0
   80.1618    1.2173    0.2275 C   0  0  0  0  0  0  0  0  0  0  0  0
   80.8391   -0.0038    0.0306 C   0  0  0  0  0  0  0  0  0  0  0  0
   80.1989   -1.2421   -0.1690 C   0  0  0  0  0  0  0  0  0  0  0  0
   80.8083   -2.5046   -0.3938 C   0  0  0  0  0  0  0  0  0  0  0  0
   79.8128   -3.4297   -0.5541 C   0  0  0  0  0  0  0  0  0  0  0  0
   78.5665   -2.7561   -0.4345 C   0  0  0  0  0  0  0  0  0  0  0  0
   78.8511   -1.4387   -0.2007 N   0  0  0  0  0  0  0  0  0  0  0  0
   77.3009   -3.3220   -0.5444 C   0  0  0  0  0  0  0  0  0  0  0  0
   76.0692   -2.6930   -0.4474 C   0  0  0  0  0  0  0  0  0  0  0  0
   74.8077   -3.3961   -0.5974 C   0  0  0  0  0  0  0  0  0  0  0  0
   73.8365   -2.4717   -0.4467 C   0  0  0  0  0  0  0  0  0  0  0  0
   74.5068   -1.2083   -0.2024 C   0  0  0  0  0  0  0  0  0  0  0  0
   75.8440   -1.3718   -0.2113 N   0  0  0  0  0  0  0  0  0  0  0  0
   72.7975    2.6759    0.5003 H   0  0  0  0  0  0  0  0  0  0  0  0
   74.7478    4.4866    0.8139 H   0  0  0  0  0  0  0  0  0  0  0  0
   76.5062    0.7106    0.1121 H   0  0  0  0  0  0  0  0  0  0  0  0
   77.3830    4.3961    0.7814 H   0  0  0  0  0  0  0  0  0  0  0  0
   79.9588    4.4637    0.8062 H   0  0  0  0  0  0  0  0  0  0  0  0
   81.9025    2.6157    0.4992 H   0  0  0  0  0  0  0  0  0  0  0  0
   81.8722   -2.6737   -0.4324 H   0  0  0  0  0  0  0  0  0  0  0  0
   79.9221   -4.4858   -0.7423 H   0  0  0  0  0  0  0  0  0  0  0  0
   78.1624   -0.7040   -0.0753 H   0  0  0  0  0  0  0  0  0  0  0  0
   77.2857   -4.3906   -0.7356 H   0  0  0  0  0  0  0  0  0  0  0  0
   74.7115   -4.4524   -0.7938 H   0  0  0  0  0  0  0  0  0  0  0  0
   72.7677   -2.6034   -0.4986 H   0  0  0  0  0  0  0  0  0  0  0  0
   84.8696    0.0055    0.0208 C   0  0  0  0  0  0  0  0  0  0  0  0
   85.5103    1.2192   -0.2945 C   0  0  0  0  0  0  0  0  0  0  0  0
   84.9031    2.4578   -0.6303 C   0  0  0  0  0  0  0  0  0  0  0  0
   85.9005    3.3609   -0.8804 C   0  0  0  0  0  0  0  0  0  0  0  0
   87.1455    2.6967   -0.7074 C   0  0  0  0  0  0  0  0  0  0  0  0
   86.8585    1.4076   -0.3514 N   0  0  0  0  0  0  0  0  0  0  0  0
   88.4120    3.2448   -0.8810 C   0  0  0  0  0  0  0  0  0  0  0  0
   89.6438    2.6256   -0.7358 C   0  0  0  0  0  0  0  0  0  0  0  0
   90.9030    3.3090   -0.9697 C   0  0  0  0  0  0  0  0  0  0  0  0
   91.8760    2.4044   -0.7348 C   0  0  0  0  0  0  0  0  0  0  0  0
   89.8726    1.3348   -0.3685 N   0  0  0  0  0  0  0  0  0  0  0  0
   91.2100    1.1733   -0.3538 C   0  0  0  0  0  0  0  0  0  0  0  0
   91.8918   -0.0161   -0.0187 C   0  0  0  0  0  0  0  0  0  0  0  0
   91.2481   -1.2211    0.3269 C   0  0  0  0  0  0  0  0  0  0  0  0
   91.8525   -2.4520    0.6935 C   0  0  0  0  0  0  0  0  0  0  0  0
   90.8547   -3.3543    0.9433 C   0  0  0  0  0  0  0  0  0  0  0  0
   89.6106   -2.6972    0.7398 C   0  0  0  0  0  0  0  0  0  0  0  0
   89.8995   -1.4120    0.3702 N   0  0  0  0  0  0  0  0  0  0  0  0
   88.3448   -3.2531    0.8915 C   0  0  0  0  0  0  0  0  0  0  0  0
   87.1121   -2.6425    0.7196 C   0  0  0  0  0  0  0  0  0  0  0  0
   85.8512   -3.3340    0.9202 C   0  0  0  0  0  0  0  0  0  0  0  0
   84.8787   -2.4309    0.6773 C   0  0  0  0  0  0  0  0  0  0  0  0
   85.5481   -1.1919    0.3278 C   0  0  0  0  0  0  0  0  0  0  0  0
   86.8856   -1.3496    0.3614 N   0  0  0  0  0  0  0  0  0  0  0  0
   83.8396    2.6265   -0.6781 H   0  0  0  0  0  0  0  0  0  0  0  0
   85.7930    4.3959   -1.1636 H   0  0  0  0  0  0  0  0  0  0  0  0
   87.5452    0.6845   -0.1631 H   0  0  0  0  0  0  0  0  0  0  0  0
   88.4276    4.2903   -1.1736 H   0  0  0  0  0  0  0  0  0  0  0  0
   90.9966    4.3394   -1.2748 H   0  0  0  0  0  0  0  0  0  0  0  0
   92.9437    2.5296   -0.8117 H   0  0  0  0  0  0  0  0  0  0  0  0
   92.9151   -2.6175    0.7607 H   0  0  0  0  0  0  0  0  0  0  0  0
   90.9609   -4.3842    1.2444 H   0  0  0  0  0  0  0  0  0  0  0  0
   89.2137   -0.6941    0.1597 H   0  0  0  0  0  0  0  0  0  0  0  0
   88.3308   -4.2976    1.1873 H   0  0  0  0  0  0  0  0  0  0  0  0
   85.7564   -4.3687    1.2103 H   0  0  0  0  0  0  0  0  0  0  0  0
   83.8096   -2.5613    0.7296 H   0  0  0  0  0  0  0  0  0  0  0  0
   95.9228   -0.0074   -0.0248 C   0  0  0  0  0  0  0  0  0  0  0  0
   96.5660    1.2455   -0.0755 C   0  0  0  0  0  0  0  0  0  0  0  0
   95.9618    2.5292   -0.1139 C   0  0  0  0  0  0  0  0  0  0  0  0
   96.9597    3.4636   -0.1724 C   0  0  0  0  0  0  0  0  0  0  0  0
   98.2035    2.7754   -0.1661 C   0  0  0  0  0  0  0  0  0  0  0  0
   97.9146    1.4398   -0.1026 N   0  0  0  0  0  0  0  0  0  0  0  0
   99.4687    3.3503   -0.2230 C   0  0  0  0  0  0  0  0  0  0  0  0
  100.7027    2.7191   -0.2032 C   0  0  0  0  0  0  0  0  0  0  0  0
  101.9607    3.4390   -0.2858 C   0  0  0  0  0  0  0  0  0  0  0  0
  102.9361    2.5088   -0.2251 C   0  0  0  0  0  0  0  0  0  0  0  0
  100.9342    1.3822   -0.0974 N   0  0  0  0  0  0  0  0  0  0  0  0
  102.2722    1.2251   -0.1007 C   0  0  0  0  0  0  0  0  0  0  0  0
  102.9545   -0.0054    0.0033 C   0  0  0  0  0  0  0  0  0  0  0  0
  102.3119   -1.2552    0.1044 C   0  0  0  0  0  0  0  0  0  0  0  0
  102.9168   -2.5327    0.2347 C   0  0  0  0  0  0  0  0  0  0  0  0
  101.9192   -3.4679    0.2876 C   0  0  0  0  0  0  0  0  0  0  0  0
  100.6754   -2.7857    0.1952 C   0  0  0  0  0  0  0  0  0  0  0  0
  100.9637   -1.4526    0.0917 N   0  0  0  0  0  0  0  0  0  0  0  0
   99.4102   -3.3635    0.1963 C   0  0  0  0  0  0  0  0  0  0  0  0
   98.1769   -2.7350    0.1227 C   0  0  0  0  0  0  0  0  0  0  0  0
   96.9197   -3.4608    0.1146 C   0  0  0  0  0  0  0  0  0  0  0  0
   95.9441   -2.5310    0.0518 C   0  0  0  0  0  0  0  0  0  0  0  0
   96.6066   -1.2409    0.0259 C   0  0  0  0  0  0  0  0  0  0  0  0
   97.9444   -1.3952    0.0616 N   0  0  0  0  0  0  0  0  0  0  0  0
   94.8995    2.7079   -0.0946 H   0  0  0  0  0  0  0  0  0  0  0  0
   96.8536    4.5359   -0.2144 H   0  0  0  0  0  0  0  0  0  0  0  0
   98.6001    0.6918   -0.0785 H   0  0  0  0  0  0  0  0  0  0  0  0
   99.4808    4.4339   -0.2910 H   0  0  0  0  0  0  0  0  0  0  0  0
  102.0521    4.5097   -0.3800 H   0  0  0  0  0  0  0  0  0  0  0  0
  104.0041    2.6501   -0.2642 H   0  0  0  0  0  0  0  0  0  0  0  0
  103.9792   -2.7058    0.2860 H   0  0  0  0  0  0  0  0  0  0  0  0
  102.0255   -4.5366    0.3843 H   0  0  0  0  0  0  0  0  0  0  0  0
  100.2782   -0.7083    0.0142 H   0  0  0  0  0  0  0  0  0  0  0  0
   99.3974   -4.4471    0.2638 H   0  0  0  0  0  0  0  0  0  0  0  0
   96.8289   -4.5352    0.1495 H   0  0  0  0  0  0  0  0  0  0  0  0
   94.8767   -2.6774    0.0186 H   0  0  0  0  0  0  0  0  0  0  0  0
  106.9852    0.0017    0.0037 C   0  0  0  0  0  0  0  0  0  0  0  0
  107.6305    1.2263    0.2649 C   0  0  0  0  0  0  0  0  0  0  0  0
  107.0271    2.4792    0.5505 C   0  0  0  0  0  0  0  0  0  0  0  0
  108.0261    3.3949    0.7395 C   0  0  0  0  0  0  0  0  0  0  0  0
  109.2695    2.7247    0.5782 C   0  0  0  0  0  0  0  0  0  0  0  0
  108.9792    1.4185    0.2934 N   0  0  0  0  0  0  0  0  0  0  0  0
  110.5364    3.2867    0.6930 C   0  0  0  0  0  0  0  0  0  0  0  0
  111.7674    2.6633    0.5579 C   0  0  0  0  0  0  0  0  0  0  0  0
  113.0304    3.3625    0.7145 C   0  0  0  0  0  0  0  0  0  0  0  0
  114.0003    2.4443    0.5237 C   0  0  0  0  0  0  0  0  0  0  0  0
  111.9899    1.3508    0.2774 N   0  0  0  0  0  0  0  0  0  0  0  0
  113.3274    1.1884    0.2489 C   0  0  0  0  0  0  0  0  0  0  0  0
  114.0016   -0.0254    0.0055 C   0  0  0  0  0  0  0  0  0  0  0  0
  113.3575   -1.2541   -0.2355 C   0  0  0  0  0  0  0  0  0  0  0  0
  113.9628   -2.5103   -0.5023 C   0  0  0  0  0  0  0  0  0  0  0  0
  112.9643   -3.4268   -0.6923 C   0  0  0  0  0  0  0  0  0  0  0  0
  111.7202   -2.7537   -0.5498 C   0  0  0  0  0  0  0  0  0  0  0  0
  112.0089   -1.4459   -0.2720 N   0  0  0  0  0  0  0  0  0  0  0  0
  110.4530   -3.3118   -0.6815 C   0  0  0  0  0  0  0  0  0  0  0  0
  109.2227   -2.6844   -0.5627 C   0  0  0  0  0  0  0  0  0  0  0  0
  107.9604   -3.3784   -0.7435 C   0  0  0  0  0  0  0  0  0  0  0  0
  106.9907   -2.4595   -0.5553 C   0  0  0  0  0  0  0  0  0  0  0  0
  107.6622   -1.2086   -0.2567 C   0  0  0  0  0  0  0  0  0  0  0  0
  108.9990   -1.3734   -0.2724 N   0  0  0  0  0  0  0  0  0  0  0  0
  105.9645    2.6492    0.6076 H   0  0  0  0  0  0  0  0  0  0  0  0
  107.9212    4.4425    0.9725 H   0  0  0  0  0  0  0  0  0  0  0  0
  109.6648    0.6884    0.1296 H   0  0  0  0  0  0  0  0  0  0  0  0
  110.5531    4.3477    0.9225 H   0  0  0  0  0  0  0  0  0  0  0  0
  113.1283    4.4123    0.9423 H   0  0  0  0  0  0  0  0  0  0  0  0
  115.0695    2.5753    0.5670 H   0  0  0  0  0  0  0  0  0  0  0  0
  115.0262   -2.6811   -0.5473 H   0  0  0  0  0  0  0  0  0  0  0  0
  113.0702   -4.4766   -0.9149 H   0  0  0  0  0  0  0  0  0  0  0  0
  111.3225   -0.7137   -0.1219 H   0  0  0  0  0  0  0  0  0  0  0  0
  110.4358   -4.3726   -0.9122 H   0  0  0  0  0  0  0  0  0  0  0  0
  107.8626   -4.4253   -0.9847 H   0  0  0  0  0  0  0  0  0  0  0  0
  105.9220   -2.5873   -0.6148 H   0  0  0  0  0  0  0  0  0  0  0  0
  1  2  4  0  0  0  0
  2  3  4  0  0  0  0
  3  4  2  0  0  0  0
  4  5  4  0  0  0  0
  2  6  4  0  0  0  0
  5  6  4  0  0  0  0
  5  7  4  0  0  0  0
  7  8  4  0  0  0  0
  8  9  1  0  0  0  0
  9 10  2  0  0  0  0
  8 11  4  0  0  0  0
 10 12  1  0  0  0  0
 11 12  4  0  0  0  0
 12 13  4  0  0  0  0
 13 14  4  0  0  0  0
 14 15  4  0  0  0  0
 15 16  2  0  0  0  0
 16 17  4  0  0  0  0
 14 18  4  0  0  0  0
 17 18  4  0  0  0  0
 17 19  4  0  0  0  0
 19 20  4  0  0  0  0
 20 21  1  0  0  0  0
 21 22  2  0  0  0  0
  1 23  4  0  0  0  0
 22 23  1  0  0  0  0
 20 24  4  0  0  0  0
 23 24  4  0  0  0  0
  1 25  1  0  0  0  0
  3 26  1  0  0  0  0
  4 27  1  0  0  0  0
  6 28  1  0  0  0  0
  7 29  1  0  0  0  0
  9 30  1  0  0  0  0
 10 31  1  0  0  0  0
 15 32  1  0  0  0  0
 16 33  1  0  0  0  0
 18 34  1  0  0  0  0
 19 35  1  0  0  0  0
 21 36  1  0  0  0  0
 22 37  1  0  0  0  0
 38 39  4  0  0  0  0
 39 40  4  0  0  0  0
 40 41  2  0  0  0  0
 41 42  4  0  0  0  0
 39 43  4  0  0  0  0
 42 43  4  0  0  0  0
 42 44  4  0  0  0  0
 44 45  4  0  0  0  0
 45 46  1  0  0  0  0
 46 47  2  0  0  0  0
 45 48  4  0  0  0  0
 47 49  1  0  0  0  0
 48 49  4  0  0  0  0
 49 50  4  0  0  0  0
 50 51  4  0  0  0  0
 51 52  4  0  0  0  0
 52 53  2  0  0  0  0
 53 54  4  0  0  0  0
 51 55  4  0  0  0  0
 54 55  4  0  0  0  0
 54 56  4  0  0  0  0
 56 57  4  0  0  0  0
 57 58  1  0  0  0  0
 58 59  2  0  0  0  0
 38 60  4  0  0  0  0
 59 60  1  0  0  0  0
 57 61  4  0  0  0  0
 60 61  4  0  0  0  0
 38 62  1  0  0  0  0
 40 63  1  0  0  0  0
 41 64  1  0  0  0  0
 43 65  1  0  0  0  0
 44 66  1  0  0  0  0
 46 67  1  0  0  0  0
 47 68  1  0  0  0  0
 52 69  1  0  0  0  0
 53 70  1  0  0  0  0
 55 71  1  0  0  0  0
 56 72  1  0  0  0  0
 58 73  1  0  0  0  0
 59 74  1  0  0  0  0
 13 75  4  0  0  0  0
 75 76  3  0  0  0  0
 77 78  3  0  0  0  0
 79 80  3  0  0  0  0
 81 82  3  0  0  0  0
 83 84  3  0  0  0  0
 50 86  4  0  0  0  0
 85 86  3  0  0  0  0
 76 87  4  0  0  0  0
 87 88  4  0  0  0  0
 88 89  4  0  0  0  0
 89 90  2  0  0  0  0
 90 91  4  0  0  0  0
 88 92  4  0  0  0  0
 91 92  4  0  0  0  0
 91 93  4  0  0  0  0
 93 94  4  0  0  0  0
 94 95  1  0  0  0  0
 95 96  2  0  0  0  0
 94 97  4  0  0  0  0
 96 98  1  0  0  0  0
 97 98  4  0  0  0  0
 77 99  4  0  0  0  0
 98 99  4  0  0  0  0
 99100  4  0  0  0  0
100101  4  0  0  0  0
101102  2  0  0  0  0
102103  4  0  0  0  0
100104  4  0  0  0  0
103104  4  0  0  0  0
103105  4  0  0  0  0
105106  4  0  0  0  0
106107  1  0  0  0  0
107108  2  0  0  0  0
 87109  4  0  0  0  0
108109  1  0  0  0  0
106110  4  0  0  0  0
109110  4  0  0  0  0
 89111  1  0  0  0  0
 90112  1  0  0  0  0
 92113  1  0  0  0  0
 93114  1  0  0  0  0
 95115  1  0  0  0  0
 96116  1  0  0  0  0
101117  1  0  0  0  0
102118  1  0  0  0  0
104119  1  0  0  0  0
105120  1  0  0  0  0
107121  1  0  0  0  0
108122  1  0  0  0  0
 78123  4  0  0  0  0
123124  4  0  0  0  0
124125  4  0  0  0  0
125126  2  0  0  0  0
126127  4  0  0  0  0
124128  4  0  0  0  0
127128  4  0  0  0  0
127129  4  0  0  0  0
129130  4  0  0  0  0
130131  1  0  0  0  0
131132  2  0  0  0  0
130133  4  0  0  0  0
132134  1  0  0  0  0
133134  4  0  0  0  0
 79135  4  0  0  0  0
134135  4  0  0  0  0
135136  4  0  0  0  0
136137  4  0  0  0  0
137138  2  0  0  0  0
138139  4  0  0  0  0
136140  4  0  0  0  0
139140  4  0  0  0  0
139141  4  0  0  0  0
141142  4  0  0  0  0
142143  1  0  0  0  0
143144  2  0  0  0  0
123145  4  0  0  0  0
144145  1  0  0  0  0
142146  4  0  0  0  0
145146  4  0  0  0  0
125147  1  0  0  0  0
126148  1  0  0  0  0
128149  1  0  0  0  0
129150  1  0  0  0  0
131151  1  0  0  0  0
132152  1  0  0  0  0
137153  1  0  0  0  0
138154  1  0  0  0  0
140155  1  0  0  0  0
141156  1  0  0  0  0
143157  1  0  0  0  0
144158  1  0  0  0  0
 80159  4  0  0  0  0
159160  4  0  0  0  0
160161  4  0  0  0  0
161162  2  0  0  0  0
162163  4  0  0  0  0
160164  4  0  0  0  0
163164  4  0  0  0  0
163165  4  0  0  0  0
165166  4  0  0  0  0
166167  1  0  0  0  0
167168  2  0  0  0  0
166169  4  0  0  0  0
168170  1  0  0  0  0
169170  4  0  0  0  0
 81171  4  0  0  0  0
170171  4  0  0  0  0
171172  4  0  0  0  0
172173  4  0  0  0  0
173174  2  0  0  0  0
174175  4  0  0  0  0
172176  4  0  0  0  0
175176  4  0  0  0  0
175177  4  0  0  0  0
177178  4  0  0  0  0
178179  1  0  0  0  0
179180  2  0  0  0  0
159181  4  0  0  0  0
180181  1  0  0  0  0
178182  4  0  0  0  0
181182  4  0  0  0  0
161183  1  0  0  0  0
162184  1  0  0  0  0
164185  1  0  0  0  0
165186  1  0  0  0  0
167187  1  0  0  0  0
168188  1  0  0  0  0
173189  1  0  0  0  0
174190  1  0  0  0  0
176191  1  0  0  0  0
177192  1  0  0  0  0
179193  1  0  0  0  0
180194  1  0  0  0  0
 82195  4  0  0  0  0
195196  4  0  0  0  0
196197  4  0  0  0  0
197198  2  0  0  0  0
198199  4  0  0  0  0
196200  4  0  0  0  0
199200  4  0  0  0  0
199201  4  0  0  0  0
201202  4  0  0  0  0
202203  1  0  0  0  0
203204  2  0  0  0  0
202205  4  0  0  0  0
204206  1  0  0  0  0
205206  4  0  0  0  0
 83207  4  0  0  0  0
206207  4  0  0  0  0
207208  4  0  0  0  0
208209  4  0  0  0  0
209210  2  0  0  0  0
210211  4  0  0  0  0
208212  4  0  0  0  0
211212  4  0  0  0  0
211213  4  0  0  0  0
213214  4  0  0  0  0
214215  1  0  0  0  0
215216  2  0  0  0  0
195217  4  0  0  0  0
216217  1  0  0  0  0
214218  4  0  0  0  0
217218  4  0  0  0  0
197219  1  0  0  0  0
198220  1  0  0  0  0
200221  1  0  0  0  0
201222  1  0  0  0  0
203223  1  0  0  0  0
204224  1  0  0  0  0
209225  1  0  0  0  0
210226  1  0  0  0  0
212227  1  0  0  0  0
213228  1  0  0  0  0
215229  1  0  0  0  0
216230  1  0  0  0  0
 84231  4  0  0  0  0
231232  4  0  0  0  0
232233  4  0  0  0  0
233234  2  0  0  0  0
234235  4  0  0  0  0
232236  4  0  0  0  0
235236  4  0  0  0  0
235237  4  0  0  0  0
237238  4  0  0  0  0
238239  1  0  0  0  0
239240  2  0  0  0  0
238241  4  0  0  0  0
240242  1  0  0  0  0
241242  4  0  0  0  0
 85243  4  0  0  0  0
242243  4  0  0  0  0
243244  4  0  0  0  0
244245  4  0  0  0  0
245246  2  0  0  0  0
246247  4  0  0  0  0
244248  4  0  0  0  0
247248  4  0  0  0  0
247249  4  0  0  0  0
249250  4  0  0  0  0
250251  1  0  0  0  0
251252  2  0  0  0  0
231253  4  0  0  0  0
252253  1  0  0  0  0
250254  4  0  0  0  0
253254  4  0  0  0  0
233255  1  0  0  0  0
234256  1  0  0  0  0
236257  1  0  0  0  0
237258  1  0  0  0  0
239259  1  0  0  0  0
240260  1  0  0  0  0
245261  1  0  0  0  0
246262  1  0  0  0  0
248263  1  0  0  0  0
249264  1  0  0  0  0
251265  1  0  0  0  0
252266  1  0  0  0  0
M  END
