 xtb: 6.5.1 (b24c23e)
          07292222363D

138157  0     0  0            999 V2000
   16.3505    0.0458   -0.0197 Co  0  0  0  0  0  0  0  0  0  0  0  0
   12.9819    0.1301   -0.1166 C   0  0  0  0  0  0  0  0  0  0  0  0
   13.6258    0.8284    0.8828 C   0  0  0  0  0  0  0  0  0  0  0  0
   12.9534    1.5678    1.9065 C   0  0  0  0  0  0  0  0  0  0  0  0
   13.9054    2.2682    2.5682 C   0  0  0  0  0  0  0  0  0  0  0  0
   15.1563    1.9685    1.9354 C   0  0  0  0  0  0  0  0  0  0  0  0
   14.9824    1.0268    0.9539 N   0  0  0  0  0  0  0  0  0  0  0  0
   16.3469    2.6373    2.1972 C   0  0  0  0  0  0  0  0  0  0  0  0
   16.3439    3.7740    3.1412 C   0  0  0  0  0  0  0  0  0  0  0  0
   15.4995    4.8699    2.9371 C   0  0  0  0  0  0  0  0  0  0  0  0
   15.5010    5.9368    3.8147 C   0  0  0  0  0  0  0  0  0  0  0  0
   16.3394    5.9346    4.9368 C   0  0  0  0  0  0  0  0  0  0  0  0
   16.3395    7.0481    5.7618 N   0  0  0  0  0  0  0  0  0  0  0  0
   16.8041    6.9322    7.1372 C   0  0  0  0  0  0  0  0  0  0  0  0
   17.1887    4.8433    5.1438 C   0  0  0  0  0  0  0  0  0  0  0  0
   17.1880    3.7834    4.2537 C   0  0  0  0  0  0  0  0  0  0  0  0
   17.5360    2.2707    1.5813 C   0  0  0  0  0  0  0  0  0  0  0  0
   18.7774    2.9647    1.7455 C   0  0  0  0  0  0  0  0  0  0  0  0
   19.7309    2.2088    1.1476 C   0  0  0  0  0  0  0  0  0  0  0  0
   17.7201    1.1347    0.8269 N   0  0  0  0  0  0  0  0  0  0  0  0
   19.0678    1.0633    0.6119 C   0  0  0  0  0  0  0  0  0  0  0  0
   19.7382   -0.0413    0.0783 C   0  0  0  0  0  0  0  0  0  0  0  0
   19.0482   -1.1248   -0.4732 C   0  0  0  0  0  0  0  0  0  0  0  0
   19.6883   -2.3025   -0.9661 C   0  0  0  0  0  0  0  0  0  0  0  0
   18.7301   -3.0350   -1.5846 C   0  0  0  0  0  0  0  0  0  0  0  0
   17.5109   -2.2912   -1.4827 C   0  0  0  0  0  0  0  0  0  0  0  0
   17.7069   -1.1536   -0.7321 N   0  0  0  0  0  0  0  0  0  0  0  0
   16.3410   -2.6124   -2.1567 C   0  0  0  0  0  0  0  0  0  0  0  0
   16.3327   -3.7575   -3.0908 C   0  0  0  0  0  0  0  0  0  0  0  0
   17.2285   -3.8149   -4.1606 C   0  0  0  0  0  0  0  0  0  0  0  0
   17.2136   -4.8741   -5.0513 C   0  0  0  0  0  0  0  0  0  0  0  0
   16.2955   -5.9160   -4.8879 C   0  0  0  0  0  0  0  0  0  0  0  0
   16.2697   -7.0243   -5.7193 N   0  0  0  0  0  0  0  0  0  0  0  0
   16.7866   -6.9227   -7.0773 C   0  0  0  0  0  0  0  0  0  0  0  0
   15.4077   -5.8729   -3.8053 C   0  0  0  0  0  0  0  0  0  0  0  0
   15.4221   -4.8061   -2.9276 C   0  0  0  0  0  0  0  0  0  0  0  0
   15.1750   -1.8745   -1.9823 C   0  0  0  0  0  0  0  0  0  0  0  0
   13.9567   -2.1060   -2.7009 C   0  0  0  0  0  0  0  0  0  0  0  0
   13.0074   -1.3300   -2.1246 C   0  0  0  0  0  0  0  0  0  0  0  0
   13.6498   -0.6177   -1.0632 C   0  0  0  0  0  0  0  0  0  0  0  0
   14.9903   -0.9117   -1.0248 N   0  0  0  0  0  0  0  0  0  0  0  0
   11.8996    0.1671   -0.1573 H   0  0  0  0  0  0  0  0  0  0  0  0
   11.8887    1.5455    2.0776 H   0  0  0  0  0  0  0  0  0  0  0  0
   13.7839    2.9316    3.4092 H   0  0  0  0  0  0  0  0  0  0  0  0
   14.8538    4.8920    2.0661 H   0  0  0  0  0  0  0  0  0  0  0  0
   14.8508    6.7869    3.6367 H   0  0  0  0  0  0  0  0  0  0  0  0
   15.4915    7.5963    5.6838 H   0  0  0  0  0  0  0  0  0  0  0  0
   17.8788    6.7463    7.1544 H   0  0  0  0  0  0  0  0  0  0  0  0
   16.2896    6.1241    7.6697 H   0  0  0  0  0  0  0  0  0  0  0  0
   16.6059    7.8786    7.6403 H   0  0  0  0  0  0  0  0  0  0  0  0
   17.8530    4.8154    5.9987 H   0  0  0  0  0  0  0  0  0  0  0  0
   17.8380    2.9345    4.4362 H   0  0  0  0  0  0  0  0  0  0  0  0
   18.8938    3.9097    2.2507 H   0  0  0  0  0  0  0  0  0  0  0  0
   20.7905    2.3934    1.0738 H   0  0  0  0  0  0  0  0  0  0  0  0
   20.7371   -2.5236   -0.8494 H   0  0  0  0  0  0  0  0  0  0  0  0
   18.8301   -3.9923   -2.0698 H   0  0  0  0  0  0  0  0  0  0  0  0
   17.9316   -3.0027   -4.3106 H   0  0  0  0  0  0  0  0  0  0  0  0
   17.9182   -4.8838   -5.8737 H   0  0  0  0  0  0  0  0  0  0  0  0
   15.3930   -7.5295   -5.6751 H   0  0  0  0  0  0  0  0  0  0  0  0
   16.3434   -6.0763   -7.6143 H   0  0  0  0  0  0  0  0  0  0  0  0
   16.5440   -7.8478   -7.6001 H   0  0  0  0  0  0  0  0  0  0  0  0
   17.8710   -6.8068   -7.0575 H   0  0  0  0  0  0  0  0  0  0  0  0
   14.7043   -6.6860   -3.6600 H   0  0  0  0  0  0  0  0  0  0  0  0
   14.7341   -4.7906   -2.0894 H   0  0  0  0  0  0  0  0  0  0  0  0
   13.8535   -2.7778   -3.5377 H   0  0  0  0  0  0  0  0  0  0  0  0
   11.9627   -1.2402   -2.3770 H   0  0  0  0  0  0  0  0  0  0  0  0
   32.2946    0.0088   -0.0489 Co  0  0  0  0  0  0  0  0  0  0  0  0
   35.6635    0.0859   -0.1534 C   0  0  0  0  0  0  0  0  0  0  0  0
   35.0198   -1.0410   -0.6189 C   0  0  0  0  0  0  0  0  0  0  0  0
   35.6927   -2.1999   -1.1200 C   0  0  0  0  0  0  0  0  0  0  0  0
   34.7406   -2.9985   -1.6591 C   0  0  0  0  0  0  0  0  0  0  0  0
   33.4893   -2.3169   -1.5018 C   0  0  0  0  0  0  0  0  0  0  0  0
   33.6630   -1.1543   -0.7957 N   0  0  0  0  0  0  0  0  0  0  0  0
   32.2982   -2.7194   -2.0956 C   0  0  0  0  0  0  0  0  0  0  0  0
   32.3010   -3.8889   -2.9988 C   0  0  0  0  0  0  0  0  0  0  0  0
   33.1416   -3.9273   -4.1157 C   0  0  0  0  0  0  0  0  0  0  0  0
   33.1398   -5.0169   -4.9648 C   0  0  0  0  0  0  0  0  0  0  0  0
   32.3050   -6.1136   -4.7143 C   0  0  0  0  0  0  0  0  0  0  0  0
   32.3043   -7.1620   -5.6204 N   0  0  0  0  0  0  0  0  0  0  0  0
   31.8439   -8.4799   -5.2054 C   0  0  0  0  0  0  0  0  0  0  0  0
   31.4596   -6.0790   -3.6012 C   0  0  0  0  0  0  0  0  0  0  0  0
   31.4603   -4.9786   -2.7616 C   0  0  0  0  0  0  0  0  0  0  0  0
   31.1087   -2.0399   -1.8702 C   0  0  0  0  0  0  0  0  0  0  0  0
   29.8669   -2.3535   -2.5099 C   0  0  0  0  0  0  0  0  0  0  0  0
   28.9134   -1.6058   -1.9019 C   0  0  0  0  0  0  0  0  0  0  0  0
   30.9247   -1.0556   -0.9264 N   0  0  0  0  0  0  0  0  0  0  0  0
   29.5768   -0.8315   -0.9023 C   0  0  0  0  0  0  0  0  0  0  0  0
   28.9065   -0.0686    0.0583 C   0  0  0  0  0  0  0  0  0  0  0  0
   29.5964    0.7075    0.9942 C   0  0  0  0  0  0  0  0  0  0  0  0
   28.9559    1.4473    2.0343 C   0  0  0  0  0  0  0  0  0  0  0  0
   29.9138    2.2115    2.6136 C   0  0  0  0  0  0  0  0  0  0  0  0
   31.1335    1.9480    1.9113 C   0  0  0  0  0  0  0  0  0  0  0  0
   30.9378    0.9662    0.9660 N   0  0  0  0  0  0  0  0  0  0  0  0
   32.3038    2.6746    2.0791 C   0  0  0  0  0  0  0  0  0  0  0  0
   32.3120    3.8362    2.9928 C   0  0  0  0  0  0  0  0  0  0  0  0
   31.4192    4.8948    2.8123 C   0  0  0  0  0  0  0  0  0  0  0  0
   31.4338    5.9950    3.6518 C   0  0  0  0  0  0  0  0  0  0  0  0
   32.3482    6.0607    4.7075 C   0  0  0  0  0  0  0  0  0  0  0  0
   32.3732    7.1136    5.6081 N   0  0  0  0  0  0  0  0  0  0  0  0
   31.8613    8.4181    5.2107 C   0  0  0  0  0  0  0  0  0  0  0  0
   33.2329    4.9927    4.9046 C   0  0  0  0  0  0  0  0  0  0  0  0
   33.2190    3.9036    4.0548 C   0  0  0  0  0  0  0  0  0  0  0  0
   33.4706    2.3422    1.3990 C   0  0  0  0  0  0  0  0  0  0  0  0
   34.6895    3.0929    1.4706 C   0  0  0  0  0  0  0  0  0  0  0  0
   35.6387    2.3615    0.8386 C   0  0  0  0  0  0  0  0  0  0  0  0
   34.9957    1.1716    0.3725 C   0  0  0  0  0  0  0  0  0  0  0  0
   33.6551    1.1984    0.6670 N   0  0  0  0  0  0  0  0  0  0  0  0
   36.7458    0.1178   -0.1987 H   0  0  0  0  0  0  0  0  0  0  0  0
   36.7575   -2.3611   -1.0625 H   0  0  0  0  0  0  0  0  0  0  0  0
   34.8623   -3.9631   -2.1248 H   0  0  0  0  0  0  0  0  0  0  0  0
   33.7847   -3.0807   -4.3298 H   0  0  0  0  0  0  0  0  0  0  0  0
   33.7870   -5.0276   -5.8356 H   0  0  0  0  0  0  0  0  0  0  0  0
   33.1501   -7.2036   -6.1759 H   0  0  0  0  0  0  0  0  0  0  0  0
   30.7699   -8.4583   -5.0163 H   0  0  0  0  0  0  0  0  0  0  0  0
   32.3624   -8.8222   -4.3025 H   0  0  0  0  0  0  0  0  0  0  0  0
   32.0405   -9.1770   -6.0199 H   0  0  0  0  0  0  0  0  0  0  0  0
   30.7981   -6.9088   -3.3846 H   0  0  0  0  0  0  0  0  0  0  0  0
   30.8133   -4.9723   -1.8912 H   0  0  0  0  0  0  0  0  0  0  0  0
   29.7503   -3.0534   -3.3212 H   0  0  0  0  0  0  0  0  0  0  0  0
   27.8534   -1.5754   -2.0968 H   0  0  0  0  0  0  0  0  0  0  0  0
   27.9069    1.3823    2.2750 H   0  0  0  0  0  0  0  0  0  0  0  0
   29.8135    2.8954    3.4406 H   0  0  0  0  0  0  0  0  0  0  0  0
   30.7188    4.8656    1.9846 H   0  0  0  0  0  0  0  0  0  0  0  0
   30.7315    6.8014    3.4795 H   0  0  0  0  0  0  0  0  0  0  0  0
   33.2483    7.1785    6.1137 H   0  0  0  0  0  0  0  0  0  0  0  0
   32.3093    8.7566    4.2695 H   0  0  0  0  0  0  0  0  0  0  0  0
   32.1023    9.1294    6.0007 H   0  0  0  0  0  0  0  0  0  0  0  0
   30.7772    8.3763    5.0974 H   0  0  0  0  0  0  0  0  0  0  0  0
   33.9335    5.0266    5.7323 H   0  0  0  0  0  0  0  0  0  0  0  0
   33.9047    3.0807    4.2247 H   0  0  0  0  0  0  0  0  0  0  0  0
   34.7931    4.0552    1.9455 H   0  0  0  0  0  0  0  0  0  0  0  0
   36.6837    2.5876    0.6972 H   0  0  0  0  0  0  0  0  0  0  0  0
   24.9369   -0.0914    0.1092 C   0  0  0  0  0  0  0  0  0  0  0  0
   23.7077   -0.0921    0.1131 C   0  0  0  0  0  0  0  0  0  0  0  0
   22.3645   -0.0791    0.1070 C   0  0  0  0  0  0  0  0  0  0  0  0
   21.1400   -0.0638    0.0971 C   0  0  0  0  0  0  0  0  0  0  0  0
   26.2802   -0.0896    0.0990 C   0  0  0  0  0  0  0  0  0  0  0  0
   27.5047   -0.0822    0.0837 C   0  0  0  0  0  0  0  0  0  0  0  0
  2  3  4  0  0  0  0
  3  4  4  0  0  0  0
  4  5  2  0  0  0  0
  5  6  4  0  0  0  0
  1  7  1  0  0  0  0
  3  7  4  0  0  0  0
  6  7  4  0  0  0  0
  6  8  4  0  0  0  0
  8  9  1  0  0  0  0
  9 10  4  0  0  0  0
 10 11  4  0  0  0  0
 11 12  4  0  0  0  0
 12 13  1  0  0  0  0
 13 14  1  0  0  0  0
 12 15  4  0  0  0  0
  9 16  4  0  0  0  0
 15 16  4  0  0  0  0
  8 17  4  0  0  0  0
 17 18  4  0  0  0  0
 18 19  2  0  0  0  0
  1 20  1  0  0  0  0
 17 20  4  0  0  0  0
 19 21  4  0  0  0  0
 20 21  4  0  0  0  0
 21 22  4  0  0  0  0
 22 23  4  0  0  0  0
 23 24  4  0  0  0  0
 24 25  2  0  0  0  0
 25 26  4  0  0  0  0
  1 27  1  0  0  0  0
 23 27  4  0  0  0  0
 26 27  4  0  0  0  0
 26 28  4  0  0  0  0
 28 29  1  0  0  0  0
 29 30  4  0  0  0  0
 30 31  4  0  0  0  0
 31 32  4  0  0  0  0
 32 33  1  0  0  0  0
 33 34  1  0  0  0  0
 32 35  4  0  0  0  0
 29 36  4  0  0  0  0
 35 36  4  0  0  0  0
 28 37  4  0  0  0  0
 37 38  4  0  0  0  0
 38 39  2  0  0  0  0
  2 40  4  0  0  0  0
 39 40  4  0  0  0  0
  1 41  1  0  0  0  0
 37 41  4  0  0  0  0
 40 41  4  0  0  0  0
  2 42  1  0  0  0  0
  4 43  1  0  0  0  0
  5 44  1  0  0  0  0
 10 45  1  0  0  0  0
 11 46  1  0  0  0  0
 13 47  1  0  0  0  0
 14 48  1  0  0  0  0
 14 49  1  0  0  0  0
 14 50  1  0  0  0  0
 15 51  1  0  0  0  0
 16 52  1  0  0  0  0
 18 53  1  0  0  0  0
 19 54  1  0  0  0  0
 24 55  1  0  0  0  0
 25 56  1  0  0  0  0
 30 57  1  0  0  0  0
 31 58  1  0  0  0  0
 33 59  1  0  0  0  0
 34 60  1  0  0  0  0
 34 61  1  0  0  0  0
 34 62  1  0  0  0  0
 35 63  1  0  0  0  0
 36 64  1  0  0  0  0
 38 65  1  0  0  0  0
 39 66  1  0  0  0  0
 68 69  4  0  0  0  0
 69 70  4  0  0  0  0
 70 71  2  0  0  0  0
 71 72  4  0  0  0  0
 67 73  1  0  0  0  0
 69 73  4  0  0  0  0
 72 73  4  0  0  0  0
 72 74  4  0  0  0  0
 74 75  1  0  0  0  0
 75 76  4  0  0  0  0
 76 77  4  0  0  0  0
 77 78  4  0  0  0  0
 78 79  1  0  0  0  0
 79 80  1  0  0  0  0
 78 81  4  0  0  0  0
 75 82  4  0  0  0  0
 81 82  4  0  0  0  0
 74 83  4  0  0  0  0
 83 84  4  0  0  0  0
 84 85  2  0  0  0  0
 67 86  1  0  0  0  0
 83 86  4  0  0  0  0
 85 87  4  0  0  0  0
 86 87  4  0  0  0  0
 87 88  4  0  0  0  0
 88 89  4  0  0  0  0
 89 90  4  0  0  0  0
 90 91  2  0  0  0  0
 91 92  4  0  0  0  0
 67 93  1  0  0  0  0
 89 93  4  0  0  0  0
 92 93  4  0  0  0  0
 92 94  4  0  0  0  0
 94 95  1  0  0  0  0
 95 96  4  0  0  0  0
 96 97  4  0  0  0  0
 97 98  4  0  0  0  0
 98 99  1  0  0  0  0
 99100  1  0  0  0  0
 98101  4  0  0  0  0
 95102  4  0  0  0  0
101102  4  0  0  0  0
 94103  4  0  0  0  0
103104  4  0  0  0  0
104105  2  0  0  0  0
 68106  4  0  0  0  0
105106  4  0  0  0  0
 67107  1  0  0  0  0
103107  4  0  0  0  0
106107  4  0  0  0  0
 68108  1  0  0  0  0
 70109  1  0  0  0  0
 71110  1  0  0  0  0
 76111  1  0  0  0  0
 77112  1  0  0  0  0
 79113  1  0  0  0  0
 80114  1  0  0  0  0
 80115  1  0  0  0  0
 80116  1  0  0  0  0
 81117  1  0  0  0  0
 82118  1  0  0  0  0
 84119  1  0  0  0  0
 85120  1  0  0  0  0
 90121  1  0  0  0  0
 91122  1  0  0  0  0
 96123  1  0  0  0  0
 97124  1  0  0  0  0
 99125  1  0  0  0  0
100126  1  0  0  0  0
100127  1  0  0  0  0
100128  1  0  0  0  0
101129  1  0  0  0  0
102130  1  0  0  0  0
104131  1  0  0  0  0
105132  1  0  0  0  0
133134  3  0  0  0  0
134135  4  0  0  0  0
 22136  4  0  0  0  0
135136  3  0  0  0  0
133137  4  0  0  0  0
 88138  4  0  0  0  0
137138  3  0  0  0  0
M  END
