 xtb: 6.5.1 (b24c23e)
          07302206523D

196216  0     0  0            999 V2000
   32.2906   -0.0825    0.0135 C   0  0  0  0  0  0  0  0  0  0  0  0
   32.9024   -1.3188   -0.1479 C   0  0  0  0  0  0  0  0  0  0  0  0
   32.2534   -2.5785   -0.2825 C   0  0  0  0  0  0  0  0  0  0  0  0
   33.2174   -3.5353   -0.4303 C   0  0  0  0  0  0  0  0  0  0  0  0
   34.4867   -2.8895   -0.3987 C   0  0  0  0  0  0  0  0  0  0  0  0
   34.2459   -1.5574   -0.2179 N   0  0  0  0  0  0  0  0  0  0  0  0
   35.7510   -3.4807   -0.4993 C   0  0  0  0  0  0  0  0  0  0  0  0
   36.9663   -2.7969   -0.4126 C   0  0  0  0  0  0  0  0  0  0  0  0
   38.2653   -3.4281   -0.5654 C   0  0  0  0  0  0  0  0  0  0  0  0
   39.1838   -2.4504   -0.4250 C   0  0  0  0  0  0  0  0  0  0  0  0
   37.1172   -1.4607   -0.2040 N   0  0  0  0  0  0  0  0  0  0  0  0
   38.4449   -1.2227   -0.2000 C   0  0  0  0  0  0  0  0  0  0  0  0
   39.0778    0.0228   -0.0207 C   0  0  0  0  0  0  0  0  0  0  0  0
   38.4415    1.2650    0.1546 C   0  0  0  0  0  0  0  0  0  0  0  0
   39.0849    2.5144    0.3614 C   0  0  0  0  0  0  0  0  0  0  0  0
   38.1171    3.4704    0.4964 C   0  0  0  0  0  0  0  0  0  0  0  0
   36.8511    2.8342    0.3664 C   0  0  0  0  0  0  0  0  0  0  0  0
   35.5872    3.4271    0.4577 C   0  0  0  0  0  0  0  0  0  0  0  0
   35.5511    4.8929    0.6710 C   0  0  0  0  0  0  0  0  0  0  0  0
   36.1180    5.7620   -0.2652 C   0  0  0  0  0  0  0  0  0  0  0  0
   36.0810    7.1290   -0.0610 C   0  0  0  0  0  0  0  0  0  0  0  0
   35.4818    7.6533    1.0859 C   0  0  0  0  0  0  0  0  0  0  0  0
   35.4714    9.1251    1.2627 C   0  0  0  0  0  0  0  0  0  0  0  0
   34.8748    9.5255    2.3960 O   0  0  0  0  0  0  0  0  0  0  0  0
   35.9464    9.9078    0.4797 O   0  0  0  0  0  0  0  0  0  0  0  0
   34.9160    6.7901    2.0249 C   0  0  0  0  0  0  0  0  0  0  0  0
   34.9494    5.4227    1.8157 C   0  0  0  0  0  0  0  0  0  0  0  0
   34.3714    2.7403    0.3678 C   0  0  0  0  0  0  0  0  0  0  0  0
   33.0652    3.3802    0.4077 C   0  0  0  0  0  0  0  0  0  0  0  0
   32.1535    2.3950    0.2848 C   0  0  0  0  0  0  0  0  0  0  0  0
   32.9012    1.1560    0.1590 C   0  0  0  0  0  0  0  0  0  0  0  0
   34.2334    1.4036    0.2051 N   0  0  0  0  0  0  0  0  0  0  0  0
   37.0992    1.5022    0.1671 N   0  0  0  0  0  0  0  0  0  0  0  0
   35.7831   -4.9463   -0.7209 C   0  0  0  0  0  0  0  0  0  0  0  0
   35.2126   -5.4966   -1.8716 C   0  0  0  0  0  0  0  0  0  0  0  0
   35.2445   -6.8630   -2.0888 C   0  0  0  0  0  0  0  0  0  0  0  0
   35.8440   -7.7040   -1.1508 C   0  0  0  0  0  0  0  0  0  0  0  0
   35.9053   -9.1736   -1.3370 C   0  0  0  0  0  0  0  0  0  0  0  0
   35.3295   -9.5956   -2.4729 O   0  0  0  0  0  0  0  0  0  0  0  0
   36.4158   -9.9370   -0.5569 O   0  0  0  0  0  0  0  0  0  0  0  0
   36.4103   -7.1591    0.0032 C   0  0  0  0  0  0  0  0  0  0  0  0
   36.3827   -5.7930    0.2151 C   0  0  0  0  0  0  0  0  0  0  0  0
   31.2054   -0.0949    0.0221 H   0  0  0  0  0  0  0  0  0  0  0  0
   31.1847   -2.7206   -0.2617 H   0  0  0  0  0  0  0  0  0  0  0  0
   33.0694   -4.5972   -0.5419 H   0  0  0  0  0  0  0  0  0  0  0  0
   34.9700   -0.8507   -0.1438 H   0  0  0  0  0  0  0  0  0  0  0  0
   38.4300   -4.4744   -0.7657 H   0  0  0  0  0  0  0  0  0  0  0  0
   40.2583   -2.5245   -0.4748 H   0  0  0  0  0  0  0  0  0  0  0  0
   40.1532    2.6523    0.4068 H   0  0  0  0  0  0  0  0  0  0  0  0
   38.2639    4.5220    0.6811 H   0  0  0  0  0  0  0  0  0  0  0  0
   36.5712    5.3585   -1.1637 H   0  0  0  0  0  0  0  0  0  0  0  0
   36.5136    7.8091   -0.7866 H   0  0  0  0  0  0  0  0  0  0  0  0
   34.9105   10.4950    2.4355 H   0  0  0  0  0  0  0  0  0  0  0  0
   34.4530    7.1923    2.9182 H   0  0  0  0  0  0  0  0  0  0  0  0
   34.5221    4.7514    2.5520 H   0  0  0  0  0  0  0  0  0  0  0  0
   32.8945    4.4405    0.5018 H   0  0  0  0  0  0  0  0  0  0  0  0
   31.0774    2.4684    0.2682 H   0  0  0  0  0  0  0  0  0  0  0  0
   36.3772    0.7974    0.0586 H   0  0  0  0  0  0  0  0  0  0  0  0
   34.7590   -4.8418   -2.6072 H   0  0  0  0  0  0  0  0  0  0  0  0
   34.8067   -7.2811   -2.9876 H   0  0  0  0  0  0  0  0  0  0  0  0
   35.4141  -10.5618   -2.5193 H   0  0  0  0  0  0  0  0  0  0  0  0
   36.8698   -7.8227    0.7275 H   0  0  0  0  0  0  0  0  0  0  0  0
   36.8130   -5.3731    1.1171 H   0  0  0  0  0  0  0  0  0  0  0  0
   65.9320    0.0714    0.0602 C   0  0  0  0  0  0  0  0  0  0  0  0
   65.3168    1.2537    0.4505 C   0  0  0  0  0  0  0  0  0  0  0  0
   65.9613    2.4462    0.8849 C   0  0  0  0  0  0  0  0  0  0  0  0
   64.9947    3.3727    1.1563 C   0  0  0  0  0  0  0  0  0  0  0  0
   63.7282    2.7792    0.8864 C   0  0  0  0  0  0  0  0  0  0  0  0
   63.9730    1.4998    0.4756 N   0  0  0  0  0  0  0  0  0  0  0  0
   62.4624    3.3595    1.0236 C   0  0  0  0  0  0  0  0  0  0  0  0
   61.2501    2.7077    0.7823 C   0  0  0  0  0  0  0  0  0  0  0  0
   59.9516    3.3521    0.8702 C   0  0  0  0  0  0  0  0  0  0  0  0
   59.0355    2.4061    0.5784 C   0  0  0  0  0  0  0  0  0  0  0  0
   61.1021    1.4043    0.4212 N   0  0  0  0  0  0  0  0  0  0  0  0
   59.7755    1.1892    0.3039 C   0  0  0  0  0  0  0  0  0  0  0  0
   59.1448   -0.0295   -0.0136 C   0  0  0  0  0  0  0  0  0  0  0  0
   59.7844   -1.2398   -0.3365 C   0  0  0  0  0  0  0  0  0  0  0  0
   59.1458   -2.4707   -0.6442 C   0  0  0  0  0  0  0  0  0  0  0  0
   60.1166   -3.3891   -0.9327 C   0  0  0  0  0  0  0  0  0  0  0  0
   61.3793   -2.7437   -0.8171 C   0  0  0  0  0  0  0  0  0  0  0  0
   62.6445   -3.3075   -1.0149 C   0  0  0  0  0  0  0  0  0  0  0  0
   62.6837   -4.7209   -1.4573 C   0  0  0  0  0  0  0  0  0  0  0  0
   62.0883   -5.1017   -2.6633 C   0  0  0  0  0  0  0  0  0  0  0  0
   62.1314   -6.4199   -3.0779 C   0  0  0  0  0  0  0  0  0  0  0  0
   62.7653   -7.3844   -2.2921 C   0  0  0  0  0  0  0  0  0  0  0  0
   62.7829   -8.7848   -2.7777 C   0  0  0  0  0  0  0  0  0  0  0  0
   63.4165   -9.6316   -1.9521 O   0  0  0  0  0  0  0  0  0  0  0  0
   62.2830   -9.1532   -3.8103 O   0  0  0  0  0  0  0  0  0  0  0  0
   63.3578   -7.0106   -1.0855 C   0  0  0  0  0  0  0  0  0  0  0  0
   63.3181   -5.6897   -0.6751 C   0  0  0  0  0  0  0  0  0  0  0  0
   63.8585   -2.6375   -0.8269 C   0  0  0  0  0  0  0  0  0  0  0  0
   65.1656   -3.2218   -1.0860 C   0  0  0  0  0  0  0  0  0  0  0  0
   66.0747   -2.2751   -0.7791 C   0  0  0  0  0  0  0  0  0  0  0  0
   65.3243   -1.1091   -0.3463 C   0  0  0  0  0  0  0  0  0  0  0  0
   63.9931   -1.3605   -0.3981 N   0  0  0  0  0  0  0  0  0  0  0  0
   61.1270   -1.4505   -0.4441 N   0  0  0  0  0  0  0  0  0  0  0  0
   62.4225    4.7756    1.4599 C   0  0  0  0  0  0  0  0  0  0  0  0
   63.0217    5.7723    0.6854 C   0  0  0  0  0  0  0  0  0  0  0  0
   62.9828    7.0957    1.0885 C   0  0  0  0  0  0  0  0  0  0  0  0
   62.3472    7.4429    2.2810 C   0  0  0  0  0  0  0  0  0  0  0  0
   62.2779    8.8451    2.7574 C   0  0  0  0  0  0  0  0  0  0  0  0
   62.8841    9.7205    1.9411 O   0  0  0  0  0  0  0  0  0  0  0  0
   61.7357    9.1910    3.7763 O   0  0  0  0  0  0  0  0  0  0  0  0
   61.7507    6.4498    3.0604 C   0  0  0  0  0  0  0  0  0  0  0  0
   61.7856    5.1292    2.6527 C   0  0  0  0  0  0  0  0  0  0  0  0
   67.0171    0.0813    0.0744 H   0  0  0  0  0  0  0  0  0  0  0  0
   67.0290    2.5643    0.9788 H   0  0  0  0  0  0  0  0  0  0  0  0
   65.1393    4.3771    1.5199 H   0  0  0  0  0  0  0  0  0  0  0  0
   63.2514    0.8314    0.2271 H   0  0  0  0  0  0  0  0  0  0  0  0
   59.7862    4.3901    1.1087 H   0  0  0  0  0  0  0  0  0  0  0  0
   57.9620    2.4990    0.5383 H   0  0  0  0  0  0  0  0  0  0  0  0
   58.0787   -2.6240   -0.6393 H   0  0  0  0  0  0  0  0  0  0  0  0
   59.9744   -4.4253   -1.1928 H   0  0  0  0  0  0  0  0  0  0  0  0
   61.6086   -4.3522   -3.2826 H   0  0  0  0  0  0  0  0  0  0  0  0
   61.6776   -6.7204   -4.0160 H   0  0  0  0  0  0  0  0  0  0  0  0
   63.3832  -10.5212   -2.3398 H   0  0  0  0  0  0  0  0  0  0  0  0
   63.8470   -7.7565   -0.4703 H   0  0  0  0  0  0  0  0  0  0  0  0
   63.7667   -5.4022    0.2691 H   0  0  0  0  0  0  0  0  0  0  0  0
   65.3388   -4.2165   -1.4641 H   0  0  0  0  0  0  0  0  0  0  0  0
   67.1506   -2.3269   -0.8387 H   0  0  0  0  0  0  0  0  0  0  0  0
   61.8461   -0.7559   -0.2711 H   0  0  0  0  0  0  0  0  0  0  0  0
   63.5030    5.5048   -0.2486 H   0  0  0  0  0  0  0  0  0  0  0  0
   63.4431    7.8637    0.4783 H   0  0  0  0  0  0  0  0  0  0  0  0
   62.7912   10.6093    2.3209 H   0  0  0  0  0  0  0  0  0  0  0  0
   61.2629    6.7305    3.9875 H   0  0  0  0  0  0  0  0  0  0  0  0
   61.3321    4.3581    3.2648 H   0  0  0  0  0  0  0  0  0  0  0  0
   41.7074    0.0558   -0.0033 C   0  0  0  0  0  0  0  0  0  0  0  0
   40.4861    0.0405   -0.0150 C   0  0  0  0  0  0  0  0  0  0  0  0
   43.0583    0.0663    0.0110 C   0  0  0  0  0  0  0  0  0  0  0  0
   44.2796    0.0704    0.0301 C   0  0  0  0  0  0  0  0  0  0  0  0
   55.1638   -0.0493    0.0149 C   0  0  0  0  0  0  0  0  0  0  0  0
   53.9426   -0.0311    0.0294 C   0  0  0  0  0  0  0  0  0  0  0  0
   56.5150   -0.0548    0.0003 C   0  0  0  0  0  0  0  0  0  0  0  0
   57.7363   -0.0485   -0.0109 C   0  0  0  0  0  0  0  0  0  0  0  0
   45.6872    0.0710    0.0470 C   0  0  0  0  0  0  0  0  0  0  0  0
   46.3208    1.0322   -0.7617 C   0  0  0  0  0  0  0  0  0  0  0  0
   45.6783    1.9743   -1.6070 C   0  0  0  0  0  0  0  0  0  0  0  0
   46.6473    2.7270   -2.2113 C   0  0  0  0  0  0  0  0  0  0  0  0
   47.9109    2.2713   -1.7449 C   0  0  0  0  0  0  0  0  0  0  0  0
   47.6628    1.2409   -0.8785 N   0  0  0  0  0  0  0  0  0  0  0  0
   49.1743    2.7521   -2.1093 C   0  0  0  0  0  0  0  0  0  0  0  0
   50.3953    2.2377   -1.6677 C   0  0  0  0  0  0  0  0  0  0  0  0
   51.6868    2.8006   -2.0206 C   0  0  0  0  0  0  0  0  0  0  0  0
   52.6165    2.0300   -1.4197 C   0  0  0  0  0  0  0  0  0  0  0  0
   50.5609    1.1635   -0.8494 N   0  0  0  0  0  0  0  0  0  0  0  0
   51.8917    1.0060   -0.6928 C   0  0  0  0  0  0  0  0  0  0  0  0
   52.5351   -0.0052    0.0459 C   0  0  0  0  0  0  0  0  0  0  0  0
   51.9006   -0.9980    0.8149 C   0  0  0  0  0  0  0  0  0  0  0  0
   52.5414   -2.0196    1.5633 C   0  0  0  0  0  0  0  0  0  0  0  0
   51.5726   -2.7446    2.2013 C   0  0  0  0  0  0  0  0  0  0  0  0
   50.3110   -2.1824    1.8637 C   0  0  0  0  0  0  0  0  0  0  0  0
   49.0490   -2.6162    2.2874 C   0  0  0  0  0  0  0  0  0  0  0  0
   49.0292   -3.7361    3.2591 C   0  0  0  0  0  0  0  0  0  0  0  0
   48.4098   -4.9468    2.9380 C   0  0  0  0  0  0  0  0  0  0  0  0
   48.3918   -5.9849    3.8512 C   0  0  0  0  0  0  0  0  0  0  0  0
   48.9881   -5.8308    5.1042 C   0  0  0  0  0  0  0  0  0  0  0  0
   48.9380   -6.9701    6.0516 C   0  0  0  0  0  0  0  0  0  0  0  0
   49.5359   -6.7180    7.2261 O   0  0  0  0  0  0  0  0  0  0  0  0
   48.4177   -8.0303    5.8141 O   0  0  0  0  0  0  0  0  0  0  0  0
   49.6078   -4.6239    5.4298 C   0  0  0  0  0  0  0  0  0  0  0  0
   49.6298   -3.5884    4.5122 C   0  0  0  0  0  0  0  0  0  0  0  0
   47.8274   -2.0799    1.8752 C   0  0  0  0  0  0  0  0  0  0  0  0
   46.5364   -2.5318    2.3636 C   0  0  0  0  0  0  0  0  0  0  0  0
   45.6066   -1.7895    1.7282 C   0  0  0  0  0  0  0  0  0  0  0  0
   46.3311   -0.8752    0.8671 C   0  0  0  0  0  0  0  0  0  0  0  0
   47.6615   -1.0664    0.9827 N   0  0  0  0  0  0  0  0  0  0  0  0
   50.5594   -1.1380    1.0146 N   0  0  0  0  0  0  0  0  0  0  0  0
   49.1984    3.8982   -3.0495 C   0  0  0  0  0  0  0  0  0  0  0  0
   48.6061    5.1151   -2.7013 C   0  0  0  0  0  0  0  0  0  0  0  0
   48.6285    6.1799   -3.5831 C   0  0  0  0  0  0  0  0  0  0  0  0
   49.2386    6.0469   -4.8318 C   0  0  0  0  0  0  0  0  0  0  0  0
   49.2319    7.2150   -5.7447 C   0  0  0  0  0  0  0  0  0  0  0  0
   49.8473    6.9857   -6.9144 O   0  0  0  0  0  0  0  0  0  0  0  0
   48.7283    8.2782   -5.4850 O   0  0  0  0  0  0  0  0  0  0  0  0
   49.8302    4.8337   -5.1850 C   0  0  0  0  0  0  0  0  0  0  0  0
   49.8109    3.7709   -4.2990 C   0  0  0  0  0  0  0  0  0  0  0  0
   44.6109    2.0542   -1.7349 H   0  0  0  0  0  0  0  0  0  0  0  0
   46.5015    3.5209   -2.9254 H   0  0  0  0  0  0  0  0  0  0  0  0
   48.3811    0.7064   -0.4014 H   0  0  0  0  0  0  0  0  0  0  0  0
   51.8395    3.6748   -2.6326 H   0  0  0  0  0  0  0  0  0  0  0  0
   53.6900    2.1284   -1.4432 H   0  0  0  0  0  0  0  0  0  0  0  0
   53.6077   -2.1738    1.6013 H   0  0  0  0  0  0  0  0  0  0  0  0
   51.7163   -3.5999    2.8411 H   0  0  0  0  0  0  0  0  0  0  0  0
   47.9566   -5.0726    1.9614 H   0  0  0  0  0  0  0  0  0  0  0  0
   47.9166   -6.9287    3.6071 H   0  0  0  0  0  0  0  0  0  0  0  0
   49.4582   -7.5075    7.7859 H   0  0  0  0  0  0  0  0  0  0  0  0
   50.0691   -4.4985    6.4023 H   0  0  0  0  0  0  0  0  0  0  0  0
   50.0996   -2.6460    4.7707 H   0  0  0  0  0  0  0  0  0  0  0  0
   46.3836   -3.3036    3.1003 H   0  0  0  0  0  0  0  0  0  0  0  0
   44.5334   -1.8286    1.8240 H   0  0  0  0  0  0  0  0  0  0  0  0
   49.8423   -0.5541    0.5973 H   0  0  0  0  0  0  0  0  0  0  0  0
   48.1438    5.2255   -1.7269 H   0  0  0  0  0  0  0  0  0  0  0  0
   48.1754    7.1287   -3.3170 H   0  0  0  0  0  0  0  0  0  0  0  0
   49.7994    7.7937   -7.4508 H   0  0  0  0  0  0  0  0  0  0  0  0
   50.3021    4.7248   -6.1543 H   0  0  0  0  0  0  0  0  0  0  0  0
   50.2588    2.8241   -4.5787 H   0  0  0  0  0  0  0  0  0  0  0  0
  1  2  4  0  0  0  0
  2  3  4  0  0  0  0
  3  4  2  0  0  0  0
  4  5  4  0  0  0  0
  2  6  4  0  0  0  0
  5  6  4  0  0  0  0
  5  7  4  0  0  0  0
  7  8  4  0  0  0  0
  8  9  1  0  0  0  0
  9 10  2  0  0  0  0
  8 11  4  0  0  0  0
 10 12  1  0  0  0  0
 11 12  4  0  0  0  0
 12 13  4  0  0  0  0
 13 14  4  0  0  0  0
 14 15  4  0  0  0  0
 15 16  2  0  0  0  0
 16 17  4  0  0  0  0
 17 18  4  0  0  0  0
 18 19  1  0  0  0  0
 19 20  4  0  0  0  0
 20 21  4  0  0  0  0
 21 22  4  0  0  0  0
 22 23  1  0  0  0  0
 23 24  4  0  0  0  0
 23 25  2  0  0  0  0
 22 26  4  0  0  0  0
 19 27  4  0  0  0  0
 26 27  4  0  0  0  0
 18 28  4  0  0  0  0
 28 29  1  0  0  0  0
 29 30  2  0  0  0  0
  1 31  4  0  0  0  0
 30 31  1  0  0  0  0
 28 32  4  0  0  0  0
 31 32  4  0  0  0  0
 14 33  4  0  0  0  0
 17 33  4  0  0  0  0
  7 34  1  0  0  0  0
 34 35  4  0  0  0  0
 35 36  4  0  0  0  0
 36 37  4  0  0  0  0
 37 38  1  0  0  0  0
 38 39  4  0  0  0  0
 38 40  2  0  0  0  0
 37 41  4  0  0  0  0
 34 42  4  0  0  0  0
 41 42  4  0  0  0  0
  1 43  1  0  0  0  0
  3 44  1  0  0  0  0
  4 45  1  0  0  0  0
  6 46  1  0  0  0  0
  9 47  1  0  0  0  0
 10 48  1  0  0  0  0
 15 49  1  0  0  0  0
 16 50  1  0  0  0  0
 20 51  1  0  0  0  0
 21 52  1  0  0  0  0
 24 53  1  0  0  0  0
 26 54  1  0  0  0  0
 27 55  1  0  0  0  0
 29 56  1  0  0  0  0
 30 57  1  0  0  0  0
 33 58  1  0  0  0  0
 35 59  1  0  0  0  0
 36 60  1  0  0  0  0
 39 61  1  0  0  0  0
 41 62  1  0  0  0  0
 42 63  1  0  0  0  0
 64 65  4  0  0  0  0
 65 66  4  0  0  0  0
 66 67  2  0  0  0  0
 67 68  4  0  0  0  0
 65 69  4  0  0  0  0
 68 69  4  0  0  0  0
 68 70  4  0  0  0  0
 70 71  4  0  0  0  0
 71 72  1  0  0  0  0
 72 73  2  0  0  0  0
 71 74  4  0  0  0  0
 73 75  1  0  0  0  0
 74 75  4  0  0  0  0
 75 76  4  0  0  0  0
 76 77  4  0  0  0  0
 77 78  4  0  0  0  0
 78 79  2  0  0  0  0
 79 80  4  0  0  0  0
 80 81  4  0  0  0  0
 81 82  1  0  0  0  0
 82 83  4  0  0  0  0
 83 84  4  0  0  0  0
 84 85  4  0  0  0  0
 85 86  1  0  0  0  0
 86 87  4  0  0  0  0
 86 88  2  0  0  0  0
 85 89  4  0  0  0  0
 82 90  4  0  0  0  0
 89 90  4  0  0  0  0
 81 91  4  0  0  0  0
 91 92  1  0  0  0  0
 92 93  2  0  0  0  0
 64 94  4  0  0  0  0
 93 94  1  0  0  0  0
 91 95  4  0  0  0  0
 94 95  4  0  0  0  0
 77 96  4  0  0  0  0
 80 96  4  0  0  0  0
 70 97  1  0  0  0  0
 97 98  4  0  0  0  0
 98 99  4  0  0  0  0
 99100  4  0  0  0  0
100101  1  0  0  0  0
101102  4  0  0  0  0
101103  2  0  0  0  0
100104  4  0  0  0  0
 97105  4  0  0  0  0
104105  4  0  0  0  0
 64106  1  0  0  0  0
 66107  1  0  0  0  0
 67108  1  0  0  0  0
 69109  1  0  0  0  0
 72110  1  0  0  0  0
 73111  1  0  0  0  0
 78112  1  0  0  0  0
 79113  1  0  0  0  0
 83114  1  0  0  0  0
 84115  1  0  0  0  0
 87116  1  0  0  0  0
 89117  1  0  0  0  0
 90118  1  0  0  0  0
 92119  1  0  0  0  0
 93120  1  0  0  0  0
 96121  1  0  0  0  0
 98122  1  0  0  0  0
 99123  1  0  0  0  0
102124  1  0  0  0  0
104125  1  0  0  0  0
105126  1  0  0  0  0
 13128  4  0  0  0  0
127128  3  0  0  0  0
127129  4  0  0  0  0
129130  3  0  0  0  0
131132  3  0  0  0  0
131133  4  0  0  0  0
 76134  4  0  0  0  0
133134  3  0  0  0  0
130135  4  0  0  0  0
135136  4  0  0  0  0
136137  4  0  0  0  0
137138  2  0  0  0  0
138139  4  0  0  0  0
136140  4  0  0  0  0
139140  4  0  0  0  0
139141  4  0  0  0  0
141142  4  0  0  0  0
142143  1  0  0  0  0
143144  2  0  0  0  0
142145  4  0  0  0  0
144146  1  0  0  0  0
145146  4  0  0  0  0
132147  4  0  0  0  0
146147  4  0  0  0  0
147148  4  0  0  0  0
148149  4  0  0  0  0
149150  2  0  0  0  0
150151  4  0  0  0  0
151152  4  0  0  0  0
152153  1  0  0  0  0
153154  4  0  0  0  0
154155  4  0  0  0  0
155156  4  0  0  0  0
156157  1  0  0  0  0
157158  4  0  0  0  0
157159  2  0  0  0  0
156160  4  0  0  0  0
153161  4  0  0  0  0
160161  4  0  0  0  0
152162  4  0  0  0  0
162163  1  0  0  0  0
163164  2  0  0  0  0
135165  4  0  0  0  0
164165  1  0  0  0  0
162166  4  0  0  0  0
165166  4  0  0  0  0
148167  4  0  0  0  0
151167  4  0  0  0  0
141168  1  0  0  0  0
168169  4  0  0  0  0
169170  4  0  0  0  0
170171  4  0  0  0  0
171172  1  0  0  0  0
172173  4  0  0  0  0
172174  2  0  0  0  0
171175  4  0  0  0  0
168176  4  0  0  0  0
175176  4  0  0  0  0
137177  1  0  0  0  0
138178  1  0  0  0  0
140179  1  0  0  0  0
143180  1  0  0  0  0
144181  1  0  0  0  0
149182  1  0  0  0  0
150183  1  0  0  0  0
154184  1  0  0  0  0
155185  1  0  0  0  0
158186  1  0  0  0  0
160187  1  0  0  0  0
161188  1  0  0  0  0
163189  1  0  0  0  0
164190  1  0  0  0  0
167191  1  0  0  0  0
169192  1  0  0  0  0
170193  1  0  0  0  0
173194  1  0  0  0  0
175195  1  0  0  0  0
176196  1  0  0  0  0
M  END
