 xtb: 6.5.1 (b24c23e)
          07302204143D

122141  0     0  0            999 V2000
   17.1393    0.0564   -0.0708 Ni  0  0  0  0  0  0  0  0  0  0  0  0
   13.7494    0.1087   -0.1748 C   0  0  0  0  0  0  0  0  0  0  0  0
   14.4152    1.3162   -0.1447 C   0  0  0  0  0  0  0  0  0  0  0  0
   13.7511    2.5841   -0.1399 C   0  0  0  0  0  0  0  0  0  0  0  0
   14.7100    3.5238    0.0289 C   0  0  0  0  0  0  0  0  0  0  0  0
   15.9618    2.8297    0.1141 C   0  0  0  0  0  0  0  0  0  0  0  0
   15.7721    1.4765   -0.0133 N   0  0  0  0  0  0  0  0  0  0  0  0
   17.1734    3.4472    0.3959 C   0  0  0  0  0  0  0  0  0  0  0  0
   17.1921    4.9139    0.6106 C   0  0  0  0  0  0  0  0  0  0  0  0
   17.5219    5.4403    1.8625 C   0  0  0  0  0  0  0  0  0  0  0  0
   17.5415    6.8078    2.0596 C   0  0  0  0  0  0  0  0  0  0  0  0
   17.2372    7.6785    1.0081 C   0  0  0  0  0  0  0  0  0  0  0  0
   17.2676    9.1341    1.2435 C   0  0  0  0  0  0  0  0  0  0  0  0
   17.5343    9.6342    2.3058 O   0  0  0  0  0  0  0  0  0  0  0  0
   16.9100    7.1526   -0.2438 C   0  0  0  0  0  0  0  0  0  0  0  0
   16.8850    5.7830   -0.4392 C   0  0  0  0  0  0  0  0  0  0  0  0
   18.3726    2.7516    0.4754 C   0  0  0  0  0  0  0  0  0  0  0  0
   19.6366    3.3748    0.7271 C   0  0  0  0  0  0  0  0  0  0  0  0
   20.5806    2.4143    0.5855 C   0  0  0  0  0  0  0  0  0  0  0  0
   18.5420    1.4132    0.2024 N   0  0  0  0  0  0  0  0  0  0  0  0
   19.8947    1.2097    0.2418 C   0  0  0  0  0  0  0  0  0  0  0  0
   20.5511    0.0184   -0.0762 C   0  0  0  0  0  0  0  0  0  0  0  0
   19.8661   -1.1644   -0.3627 C   0  0  0  0  0  0  0  0  0  0  0  0
   20.5198   -2.3886   -0.6998 C   0  0  0  0  0  0  0  0  0  0  0  0
   19.5562   -3.3375   -0.7764 C   0  0  0  0  0  0  0  0  0  0  0  0
   18.3136   -2.6876   -0.4890 C   0  0  0  0  0  0  0  0  0  0  0  0
   18.5113   -1.3428   -0.2783 N   0  0  0  0  0  0  0  0  0  0  0  0
   17.0951   -3.3511   -0.4136 C   0  0  0  0  0  0  0  0  0  0  0  0
   17.0871   -4.8265   -0.5395 C   0  0  0  0  0  0  0  0  0  0  0  0
   16.3981   -5.4464   -1.5853 C   0  0  0  0  0  0  0  0  0  0  0  0
   16.3968   -6.8250   -1.7032 C   0  0  0  0  0  0  0  0  0  0  0  0
   17.0806   -7.6116   -0.7731 C   0  0  0  0  0  0  0  0  0  0  0  0
   17.0930   -9.0826   -0.8753 C   0  0  0  0  0  0  0  0  0  0  0  0
   17.6666   -9.8022   -0.0987 O   0  0  0  0  0  0  0  0  0  0  0  0
   17.7684   -6.9914    0.2752 C   0  0  0  0  0  0  0  0  0  0  0  0
   17.7746   -5.6146    0.3886 C   0  0  0  0  0  0  0  0  0  0  0  0
   15.8889   -2.6856   -0.2372 C   0  0  0  0  0  0  0  0  0  0  0  0
   14.6162   -3.3402   -0.1472 C   0  0  0  0  0  0  0  0  0  0  0  0
   13.6773   -2.3664   -0.1019 C   0  0  0  0  0  0  0  0  0  0  0  0
   14.3775   -1.1189   -0.1420 C   0  0  0  0  0  0  0  0  0  0  0  0
   15.7338   -1.3228   -0.1905 N   0  0  0  0  0  0  0  0  0  0  0  0
   12.6663    0.1255   -0.2070 H   0  0  0  0  0  0  0  0  0  0  0  0
   12.6852    2.7159   -0.2366 H   0  0  0  0  0  0  0  0  0  0  0  0
   14.5917    4.5924    0.1055 H   0  0  0  0  0  0  0  0  0  0  0  0
   17.7490    4.7668    2.6810 H   0  0  0  0  0  0  0  0  0  0  0  0
   17.7918    7.2257    3.0288 H   0  0  0  0  0  0  0  0  0  0  0  0
   17.0211    9.7455    0.3493 H   0  0  0  0  0  0  0  0  0  0  0  0
   16.6762    7.8215   -1.0657 H   0  0  0  0  0  0  0  0  0  0  0  0
   16.6420    5.3767   -1.4146 H   0  0  0  0  0  0  0  0  0  0  0  0
   19.7761    4.4166    0.9648 H   0  0  0  0  0  0  0  0  0  0  0  0
   21.6489    2.5016    0.6971 H   0  0  0  0  0  0  0  0  0  0  0  0
   21.5807   -2.4947   -0.8565 H   0  0  0  0  0  0  0  0  0  0  0  0
   19.6657   -4.3825   -1.0160 H   0  0  0  0  0  0  0  0  0  0  0  0
   15.8777   -4.8380   -2.3164 H   0  0  0  0  0  0  0  0  0  0  0  0
   15.8649   -7.2983   -2.5221 H   0  0  0  0  0  0  0  0  0  0  0  0
   16.5215   -9.4842   -1.7392 H   0  0  0  0  0  0  0  0  0  0  0  0
   18.2941   -7.6103    0.9943 H   0  0  0  0  0  0  0  0  0  0  0  0
   18.3004   -5.1363    1.2073 H   0  0  0  0  0  0  0  0  0  0  0  0
   14.4728   -4.4082   -0.1217 H   0  0  0  0  0  0  0  0  0  0  0  0
   12.6051   -2.4637   -0.0412 H   0  0  0  0  0  0  0  0  0  0  0  0
   27.9985   -0.0457   -0.0777 Ni  0  0  0  0  0  0  0  0  0  0  0  0
   31.3884   -0.0827   -0.1885 C   0  0  0  0  0  0  0  0  0  0  0  0
   30.7226   -1.2822   -0.3306 C   0  0  0  0  0  0  0  0  0  0  0  0
   31.3867   -2.5378   -0.5065 C   0  0  0  0  0  0  0  0  0  0  0  0
   30.4278   -3.4920   -0.4733 C   0  0  0  0  0  0  0  0  0  0  0  0
   29.1759   -2.8171   -0.2900 C   0  0  0  0  0  0  0  0  0  0  0  0
   29.3657   -1.4595   -0.2234 N   0  0  0  0  0  0  0  0  0  0  0  0
   27.9644   -3.4684   -0.0991 C   0  0  0  0  0  0  0  0  0  0  0  0
   27.9457   -4.9508   -0.0954 C   0  0  0  0  0  0  0  0  0  0  0  0
   27.6159   -5.6501    1.0687 C   0  0  0  0  0  0  0  0  0  0  0  0
   27.5963   -7.0317    1.0691 C   0  0  0  0  0  0  0  0  0  0  0  0
   27.9005   -7.7438   -0.0956 C   0  0  0  0  0  0  0  0  0  0  0  0
   27.8701   -9.2181   -0.0700 C   0  0  0  0  0  0  0  0  0  0  0  0
   27.6035   -9.8644    0.9103 O   0  0  0  0  0  0  0  0  0  0  0  0
   28.2278   -7.0450   -1.2599 C   0  0  0  0  0  0  0  0  0  0  0  0
   28.2527   -5.6615   -1.2583 C   0  0  0  0  0  0  0  0  0  0  0  0
   26.7652   -2.7913    0.0787 C   0  0  0  0  0  0  0  0  0  0  0  0
   25.5012   -3.4440    0.2391 C   0  0  0  0  0  0  0  0  0  0  0  0
   24.5572   -2.4731    0.2357 C   0  0  0  0  0  0  0  0  0  0  0  0
   26.5958   -1.4276   -0.0009 N   0  0  0  0  0  0  0  0  0  0  0  0
   25.2431   -1.2318    0.0670 C   0  0  0  0  0  0  0  0  0  0  0  0
   24.5867   -0.0073   -0.0780 C   0  0  0  0  0  0  0  0  0  0  0  0
   25.2717    1.2042   -0.1931 C   0  0  0  0  0  0  0  0  0  0  0  0
   24.6180    2.4639   -0.3526 C   0  0  0  0  0  0  0  0  0  0  0  0
   25.5816    3.4141   -0.2933 C   0  0  0  0  0  0  0  0  0  0  0  0
   26.8242    2.7299   -0.1013 C   0  0  0  0  0  0  0  0  0  0  0  0
   26.6264    1.3687   -0.0841 N   0  0  0  0  0  0  0  0  0  0  0  0
   28.0427    3.3758    0.0678 C   0  0  0  0  0  0  0  0  0  0  0  0
   28.0507    4.8541    0.1534 C   0  0  0  0  0  0  0  0  0  0  0  0
   28.7397    5.6167   -0.7935 C   0  0  0  0  0  0  0  0  0  0  0  0
   28.7409    6.9980   -0.7139 C   0  0  0  0  0  0  0  0  0  0  0  0
   28.0571    7.6441    0.3187 C   0  0  0  0  0  0  0  0  0  0  0  0
   28.0446    9.1146    0.4270 C   0  0  0  0  0  0  0  0  0  0  0  0
   27.4709    9.7163    1.2981 O   0  0  0  0  0  0  0  0  0  0  0  0
   27.3692    6.8809    1.2680 C   0  0  0  0  0  0  0  0  0  0  0  0
   27.3631    5.5020    1.1842 C   0  0  0  0  0  0  0  0  0  0  0  0
   29.2489    2.6920    0.1476 C   0  0  0  0  0  0  0  0  0  0  0  0
   30.5216    3.3271    0.3300 C   0  0  0  0  0  0  0  0  0  0  0  0
   31.4604    2.3568    0.2362 C   0  0  0  0  0  0  0  0  0  0  0  0
   30.7602    1.1277    0.0188 C   0  0  0  0  0  0  0  0  0  0  0  0
   29.4040    1.3364   -0.0002 N   0  0  0  0  0  0  0  0  0  0  0  0
   32.4715   -0.0948   -0.2228 H   0  0  0  0  0  0  0  0  0  0  0  0
   32.4525   -2.6545   -0.6211 H   0  0  0  0  0  0  0  0  0  0  0  0
   30.5460   -4.5606   -0.5497 H   0  0  0  0  0  0  0  0  0  0  0  0
   27.3889   -5.1000    1.9749 H   0  0  0  0  0  0  0  0  0  0  0  0
   27.3460   -7.5833    1.9689 H   0  0  0  0  0  0  0  0  0  0  0  0
   28.1166   -9.6959   -1.0421 H   0  0  0  0  0  0  0  0  0  0  0  0
   28.4615   -7.5900   -2.1687 H   0  0  0  0  0  0  0  0  0  0  0  0
   28.4957   -5.1205   -2.1659 H   0  0  0  0  0  0  0  0  0  0  0  0
   25.3617   -4.5090    0.3260 H   0  0  0  0  0  0  0  0  0  0  0  0
   23.4889   -2.5753    0.3338 H   0  0  0  0  0  0  0  0  0  0  0  0
   23.5571    2.5913   -0.4926 H   0  0  0  0  0  0  0  0  0  0  0  0
   25.4721    4.4826   -0.3817 H   0  0  0  0  0  0  0  0  0  0  0  0
   29.2601    5.1186   -1.6038 H   0  0  0  0  0  0  0  0  0  0  0  0
   29.2729    7.5831   -1.4571 H   0  0  0  0  0  0  0  0  0  0  0  0
   28.6161    9.6353   -0.3708 H   0  0  0  0  0  0  0  0  0  0  0  0
   26.8434    7.3911    2.0678 H   0  0  0  0  0  0  0  0  0  0  0  0
   26.8373    4.9120    1.9264 H   0  0  0  0  0  0  0  0  0  0  0  0
   30.6650    4.3806    0.5073 H   0  0  0  0  0  0  0  0  0  0  0  0
   32.5326    2.4444    0.3101 H   0  0  0  0  0  0  0  0  0  0  0  0
   21.9609    0.0067   -0.0891 C   0  0  0  0  0  0  0  0  0  0  0  0
   23.1769    0.0061   -0.0891 C   0  0  0  0  0  0  0  0  0  0  0  0
  2  3  4  0  0  0  0
  3  4  4  0  0  0  0
  4  5  2  0  0  0  0
  5  6  4  0  0  0  0
  1  7  1  0  0  0  0
  3  7  4  0  0  0  0
  6  7  4  0  0  0  0
  6  8  4  0  0  0  0
  8  9  1  0  0  0  0
  9 10  4  0  0  0  0
 10 11  4  0  0  0  0
 11 12  4  0  0  0  0
 12 13  1  0  0  0  0
 13 14  2  0  0  0  0
 12 15  4  0  0  0  0
  9 16  4  0  0  0  0
 15 16  4  0  0  0  0
  8 17  4  0  0  0  0
 17 18  4  0  0  0  0
 18 19  2  0  0  0  0
  1 20  1  0  0  0  0
 17 20  4  0  0  0  0
 19 21  4  0  0  0  0
 20 21  4  0  0  0  0
 21 22  4  0  0  0  0
 22 23  4  0  0  0  0
 23 24  4  0  0  0  0
 24 25  2  0  0  0  0
 25 26  4  0  0  0  0
  1 27  1  0  0  0  0
 23 27  4  0  0  0  0
 26 27  4  0  0  0  0
 26 28  4  0  0  0  0
 28 29  1  0  0  0  0
 29 30  4  0  0  0  0
 30 31  4  0  0  0  0
 31 32  4  0  0  0  0
 32 33  1  0  0  0  0
 33 34  2  0  0  0  0
 32 35  4  0  0  0  0
 29 36  4  0  0  0  0
 35 36  4  0  0  0  0
 28 37  4  0  0  0  0
 37 38  4  0  0  0  0
 38 39  2  0  0  0  0
  2 40  4  0  0  0  0
 39 40  4  0  0  0  0
  1 41  1  0  0  0  0
 37 41  4  0  0  0  0
 40 41  4  0  0  0  0
  2 42  1  0  0  0  0
  4 43  1  0  0  0  0
  5 44  1  0  0  0  0
 10 45  1  0  0  0  0
 11 46  1  0  0  0  0
 13 47  1  0  0  0  0
 15 48  1  0  0  0  0
 16 49  1  0  0  0  0
 18 50  1  0  0  0  0
 19 51  1  0  0  0  0
 24 52  1  0  0  0  0
 25 53  1  0  0  0  0
 30 54  1  0  0  0  0
 31 55  1  0  0  0  0
 33 56  1  0  0  0  0
 35 57  1  0  0  0  0
 36 58  1  0  0  0  0
 38 59  1  0  0  0  0
 39 60  1  0  0  0  0
 62 63  4  0  0  0  0
 63 64  4  0  0  0  0
 64 65  2  0  0  0  0
 65 66  4  0  0  0  0
 61 67  1  0  0  0  0
 63 67  4  0  0  0  0
 66 67  4  0  0  0  0
 66 68  4  0  0  0  0
 68 69  1  0  0  0  0
 69 70  4  0  0  0  0
 70 71  4  0  0  0  0
 71 72  4  0  0  0  0
 72 73  1  0  0  0  0
 73 74  2  0  0  0  0
 72 75  4  0  0  0  0
 69 76  4  0  0  0  0
 75 76  4  0  0  0  0
 68 77  4  0  0  0  0
 77 78  4  0  0  0  0
 78 79  2  0  0  0  0
 61 80  1  0  0  0  0
 77 80  4  0  0  0  0
 79 81  4  0  0  0  0
 80 81  4  0  0  0  0
 81 82  4  0  0  0  0
 82 83  4  0  0  0  0
 83 84  4  0  0  0  0
 84 85  2  0  0  0  0
 85 86  4  0  0  0  0
 61 87  1  0  0  0  0
 83 87  4  0  0  0  0
 86 87  4  0  0  0  0
 86 88  4  0  0  0  0
 88 89  1  0  0  0  0
 89 90  4  0  0  0  0
 90 91  4  0  0  0  0
 91 92  4  0  0  0  0
 92 93  1  0  0  0  0
 93 94  2  0  0  0  0
 92 95  4  0  0  0  0
 89 96  4  0  0  0  0
 95 96  4  0  0  0  0
 88 97  4  0  0  0  0
 97 98  4  0  0  0  0
 98 99  2  0  0  0  0
 62100  4  0  0  0  0
 99100  4  0  0  0  0
 61101  1  0  0  0  0
 97101  4  0  0  0  0
100101  4  0  0  0  0
 62102  1  0  0  0  0
 64103  1  0  0  0  0
 65104  1  0  0  0  0
 70105  1  0  0  0  0
 71106  1  0  0  0  0
 73107  1  0  0  0  0
 75108  1  0  0  0  0
 76109  1  0  0  0  0
 78110  1  0  0  0  0
 79111  1  0  0  0  0
 84112  1  0  0  0  0
 85113  1  0  0  0  0
 90114  1  0  0  0  0
 91115  1  0  0  0  0
 93116  1  0  0  0  0
 95117  1  0  0  0  0
 96118  1  0  0  0  0
 98119  1  0  0  0  0
 99120  1  0  0  0  0
 22121  4  0  0  0  0
 82122  4  0  0  0  0
121122  3  0  0  0  0
M  END
