242

Cu 44.792852 0.027876 -0.032305
C 41.462567 -0.122854 -0.182102
C 42.128689 -1.279917 -0.148924
C 41.479599 -2.585204 -0.137586
C 42.419334 -3.505523 -0.034361
C 43.723909 -2.830380 0.018355
N 43.546122 -1.415358 -0.057374
C 44.912597 -3.450782 0.166072
C 44.947572 -4.925856 0.279072
C 44.754953 -5.726997 -0.856960
C 44.780709 -7.120320 -0.746252
C 45.003467 -7.723285 0.499628
O 45.029263 -9.110351 0.622267
C 45.200768 -6.925746 1.632296
C 45.171575 -5.532132 1.524591
C 46.208022 -2.722151 0.229208
C 47.502012 -3.377639 0.456239
C 48.437133 -2.451374 0.413013
N 46.347517 -1.443746 0.046652
C 47.750000 -1.192748 0.150623
C 48.346764 -0.001816 -0.028436
C 47.591577 1.243511 -0.305463
C 48.148097 2.370541 -0.730032
C 47.103741 3.372717 -0.793055
C 45.975606 2.794392 -0.400968
N 46.192169 1.419377 -0.075507
C 44.677957 3.505765 -0.267516
C 44.687214 4.987221 -0.217356
C 45.302215 5.649275 0.857175
C 45.319997 7.045931 0.906735
C 44.732849 7.792584 -0.118848
O 44.752489 9.183316 -0.052480
C 44.131807 7.135624 -1.202592
C 44.110334 5.739213 -1.252599
C 43.509348 2.842690 -0.181454
C 42.186818 3.444432 -0.019902
C 41.327260 2.444614 -0.008427
C 42.091082 1.206743 -0.148834
N 43.364431 1.425761 -0.251132
H 40.379408 -0.155304 -0.208480
H 40.416205 -2.781454 -0.186730
H 42.231406 -4.570355 0.013309
H 44.581856 -5.271490 -1.824489
H 44.627169 -7.729837 -1.627785
H 44.883407 -9.715191 -0.178201
H 45.374796 -7.386681 2.596690
H 45.323595 -4.925540 2.409113
H 47.682512 -4.431535 0.623153
H 49.497814 -2.625724 0.538592
H 49.191113 2.531376 -0.966151
H 47.230736 4.405481 -1.089098
H 45.758364 5.083085 1.659180
H 45.785745 7.548551 1.745883
H 44.329137 9.752726 -0.776856
H 43.682899 7.705950 -2.005528
H 43.647368 5.243034 -2.097944
H 41.934323 4.491962 0.077142
H 40.254284 2.538236 0.097468
Cu 88.951810 -0.031756 -0.028005
C 92.282095 0.095924 -0.197878
C 91.615973 1.245775 -0.331053
C 92.265063 2.539184 -0.507108
C 91.325329 3.464793 -0.536992
C 90.020753 2.804198 -0.387957
N 90.198540 1.392951 -0.259882
C 88.832065 3.439374 -0.330779
C 88.797091 4.915400 -0.430584
C 88.989709 5.545261 -1.669806
C 88.963954 6.940052 -1.760149
C 88.741195 7.715531 -0.613670
O 88.715399 9.105843 -0.691308
C 88.543895 7.088752 0.621706
C 88.573088 5.694104 0.715063
C 87.536640 2.727340 -0.163756
C 86.242650 3.408620 -0.033120
C 85.307529 2.485736 0.056997
N 87.397145 1.435969 -0.161005
C 85.994662 1.202486 -0.022098
C 85.397898 -0.001816 -0.028436
C 86.153085 -1.274005 -0.123924
C 85.596566 -2.450289 -0.382401
C 86.640921 -3.451139 -0.300985
C 87.769056 -2.822542 0.004071
N 87.552493 -1.415058 0.128885
C 89.066706 -3.507408 0.238206
C 89.057448 -4.966341 0.500399
C 88.442447 -5.467378 1.658800
C 88.424666 -6.842473 1.908232
C 89.011814 -7.728546 1.000386
O 88.992174 -9.095368 1.265601
C 89.612855 -7.233873 -0.166403
C 89.634329 -5.859084 -0.416242
C 90.235314 -2.838846 0.228243
C 91.557845 -3.411185 0.474459
C 92.417402 -2.420064 0.342366
C 91.653581 -1.215144 0.025809
N 90.380231 -1.446574 -0.044007
H 93.365254 0.124253 -0.228639
H 93.328457 2.726354 -0.583899
H 91.513257 4.525447 -0.642592
H 89.162806 4.955651 -2.561972
H 89.117494 7.416785 -2.720013
H 88.861256 9.589578 -1.570273
H 88.369866 7.683284 1.509990
H 88.421068 5.220694 1.677465
H 86.062150 4.475560 -0.019140
H 84.246849 2.676300 0.156261
H 84.553550 -2.643337 -0.593001
H 86.513926 -4.515693 -0.445789
H 87.986298 -4.791978 2.371274
H 87.958917 -7.219496 2.810811
H 89.415526 -9.762816 0.630415
H 90.061763 -7.913499 -0.879205
H 90.097294 -5.489324 -1.324031
H 91.810340 -4.433953 0.720792
H 93.490378 -2.497524 0.460598
C 52.140996 0.010916 -0.025911
C 50.888726 -0.008265 -0.030259
C 53.454665 0.010150 -0.023978
C 54.957798 -0.008265 -0.030259
C 66.133100 0.010916 -0.025911
C 64.880830 -0.008265 -0.030259
C 67.446769 0.010150 -0.023978
C 68.949902 -0.008265 -0.030259
C 80.125205 0.010916 -0.025911
C 78.872934 -0.008265 -0.030259
C 81.438873 0.010150 -0.023978
C 82.942006 -0.008265 -0.030259
Cu 59.852184 0.021761 -0.041784
C 56.430589 0.002718 0.032120
C 57.087530 0.983096 0.679741
C 56.448113 2.037319 1.470225
C 57.387852 2.843714 1.923416
C 58.684688 2.354061 1.448763
N 58.504617 1.172855 0.663864
C 59.869311 2.949560 1.696414
C 59.900084 4.207894 2.471029
C 60.202384 4.183733 3.844146
C 60.244896 5.376914 4.573252
C 59.993484 6.599903 3.934751
O 60.042511 7.781529 4.671738
C 59.694788 6.625353 2.561444
C 59.648046 5.433482 1.831921
C 61.168043 2.409364 1.224967
C 62.438062 3.139923 1.319306
C 63.391575 2.350884 0.866899
N 61.335726 1.219663 0.735756
C 62.736174 1.107333 0.481427
C 63.352280 0.002718 0.032120
C 62.602891 -1.212163 -0.355843
C 63.142024 -2.418585 -0.481045
C 62.108494 -3.298762 -0.991636
C 61.009273 -2.568433 -1.146897
N 61.231069 -1.216027 -0.750326
C 59.751040 -3.064052 -1.757159
C 59.813883 -4.260857 -2.631450
C 59.136760 -5.441539 -2.277341
C 59.202892 -6.566229 -3.106562
C 59.946455 -6.522184 -4.294698
O 60.015375 -7.634021 -5.131023
C 60.627514 -5.351002 -4.645265
C 60.566492 -4.225900 -3.816043
C 58.575798 -2.433335 -1.563450
C 57.298949 -2.788030 -2.178183
C 56.410684 -1.946581 -1.689876
C 57.108414 -1.046211 -0.763933
N 58.374467 -1.322846 -0.687835
H 55.391917 2.162902 1.665518
H 57.205795 3.714103 2.541599
H 60.401577 3.243179 4.347477
H 60.475211 5.351917 5.633671
H 59.854967 8.682969 4.235554
H 59.501388 7.566891 2.058991
H 59.420740 5.463735 0.771206
H 62.586908 4.145448 1.692607
H 64.442369 2.603265 0.809770
H 64.168857 -2.693372 -0.277080
H 62.226483 -4.346000 -1.238944
H 58.560576 -5.488389 -1.360501
H 58.675371 -7.469828 -2.825543
H 59.548205 -8.502431 -4.895272
H 61.204792 -5.312477 -5.560569
H 61.097067 -3.325263 -4.101171
H 57.095126 -3.569640 -2.899565
H 55.360097 -1.935694 -1.950056
Cu 73.844288 0.021761 -0.041784
C 70.422693 0.002718 0.032120
C 71.079634 0.983096 0.679741
C 70.440217 2.037319 1.470225
C 71.379956 2.843714 1.923416
C 72.676792 2.354061 1.448763
N 72.496721 1.172855 0.663864
C 73.861415 2.949560 1.696414
C 73.892188 4.207894 2.471029
C 74.194488 4.183733 3.844146
C 74.237000 5.376914 4.573252
C 73.985589 6.599903 3.934751
O 74.034615 7.781529 4.671738
C 73.686892 6.625353 2.561444
C 73.640150 5.433482 1.831921
C 75.160147 2.409364 1.224967
C 76.430166 3.139923 1.319306
C 77.383679 2.350884 0.866899
N 75.327830 1.219663 0.735756
C 76.728278 1.107333 0.481427
C 77.344384 0.002718 0.032120
C 76.594995 -1.212163 -0.355843
C 77.134128 -2.418585 -0.481045
C 76.100599 -3.298762 -0.991636
C 75.001377 -2.568433 -1.146897
N 75.223173 -1.216027 -0.750326
C 73.743144 -3.064052 -1.757159
C 73.805987 -4.260857 -2.631450
C 73.128864 -5.441539 -2.277341
C 73.194996 -6.566229 -3.106562
C 73.938559 -6.522184 -4.294698
O 74.007479 -7.634021 -5.131023
C 74.619618 -5.351002 -4.645265
C 74.558596 -4.225900 -3.816043
C 72.567902 -2.433335 -1.563450
C 71.291053 -2.788030 -2.178183
C 70.402788 -1.946581 -1.689876
C 71.100518 -1.046211 -0.763933
N 72.366571 -1.322846 -0.687835
H 69.384021 2.162902 1.665518
H 71.197899 3.714103 2.541599
H 74.393681 3.243179 4.347477
H 74.467315 5.351917 5.633671
H 73.847071 8.682969 4.235554
H 73.493492 7.566891 2.058991
H 73.412844 5.463735 0.771206
H 76.579013 4.145448 1.692607
H 78.434473 2.603265 0.809770
H 78.160961 -2.693372 -0.277080
H 76.218587 -4.346000 -1.238944
H 72.552680 -5.488389 -1.360501
H 72.667475 -7.469828 -2.825543
H 73.540309 -8.502431 -4.895272
H 75.196896 -5.312477 -5.560569
H 75.089171 -3.325263 -4.101171
H 71.087230 -3.569640 -2.899565
H 69.352201 -1.935694 -1.950056
