574

C 127.384906 0.015772 -0.123666
C 128.119661 -1.266464 -0.621154
C 127.524578 -2.359436 -1.207959
C 128.550036 -3.309827 -1.452268
C 129.736203 -2.765419 -0.999272
N 129.469715 -1.497443 -0.547562
C 131.154005 -3.472420 -0.974844
C 131.183194 -4.943239 -1.143231
C 131.477080 -5.514333 -2.388751
C 131.492684 -6.902377 -2.540287
C 131.212635 -7.718048 -1.440644
C 131.223864 -9.188301 -1.577176
O 131.461881 -9.761817 -2.633869
C 130.917952 -7.158973 -0.193205
C 130.903309 -5.771418 -0.048724
C 132.283935 -2.755315 -0.732571
C 133.584741 -3.385820 -0.637400
C 134.486004 -2.448905 -0.366943
N 132.481509 -1.417181 -0.517044
C 133.809380 -1.169682 -0.283357
C 134.475075 -0.015586 -0.012069
C 133.696971 1.365782 0.054032
C 134.239072 2.618358 -0.157173
C 133.212509 3.570697 0.060392
C 132.069276 2.872376 0.386353
N 132.360753 1.529725 0.327558
C 130.656903 3.498529 0.742403
C 130.616740 4.904467 1.199165
C 130.913596 5.227970 2.528934
C 130.885136 6.558598 2.952801
C 130.561187 7.565858 2.039772
C 130.527014 8.979553 2.464776
O 130.766336 9.341895 3.611002
C 130.263938 7.254865 0.708928
C 130.293299 5.923726 0.292363
C 129.532139 2.748258 0.614447
C 128.207487 3.255893 0.926230
C 127.322948 2.294685 0.677590
C 128.047668 1.139384 0.208682
N 129.370163 1.455438 0.202417
H 126.305425 -0.018185 -0.036814
H 126.472095 -2.467707 -1.420907
H 128.430902 -4.290733 -1.886964
H 130.163937 -0.833764 -0.212341
H 131.696734 -4.862494 -3.232169
H 131.724198 -7.335366 -3.509318
H 131.001063 -9.760141 -0.661000
H 130.699712 -7.778643 0.670274
H 130.678074 -5.315262 0.913561
H 133.797307 -4.433259 -0.754677
H 135.537275 -2.631283 -0.238750
H 135.263521 2.828478 -0.424589
H 133.300511 4.644286 -0.008521
H 131.677543 0.782040 0.417618
H 131.163451 4.430500 3.226105
H 131.115130 6.798452 3.986889
H 130.270007 9.713175 1.682004
H 130.008870 8.025404 -0.011850
H 130.062291 5.658323 -0.738250
H 127.975394 4.237617 1.297609
H 126.258073 2.358001 0.807198
C 240.118182 0.020227 -0.122318
C 239.383426 1.363065 0.175024
C 239.978510 2.597971 0.293062
C 238.953051 3.524258 0.616980
C 237.766884 2.820005 0.691902
N 238.033373 1.514427 0.364382
C 236.349082 3.394710 1.104409
C 236.319893 4.711899 1.780185
C 236.026007 5.877979 1.060653
C 236.010404 7.116950 1.704533
C 236.290453 7.185637 3.071945
C 236.279223 8.484686 3.773912
O 236.041207 9.548035 3.212834
C 236.585136 6.028494 3.799741
C 236.599778 4.793843 3.150262
C 235.219152 2.663656 0.908203
C 233.918346 3.135471 1.337138
C 233.017083 2.205892 1.042452
N 235.021579 1.430716 0.345252
C 233.693707 1.095158 0.402399
C 233.028012 -0.015586 -0.012069
C 233.806116 -1.201610 -0.723332
C 233.264015 -2.126648 -1.593882
C 234.290578 -3.039720 -1.941133
C 235.433811 -2.639502 -1.282553
N 235.142334 -1.489745 -0.586688
C 236.846184 -3.357994 -1.333638
C 236.886347 -4.781164 -1.733484
C 236.589492 -5.787971 -0.806511
C 236.617952 -7.130235 -1.191951
C 236.941900 -7.461849 -2.510369
C 236.976073 -8.873858 -2.940942
O 236.736752 -9.811168 -2.188229
C 237.239149 -6.464855 -3.445176
C 237.209788 -5.126217 -3.053377
C 237.970948 -2.662757 -1.023919
C 239.295600 -3.258081 -1.046093
C 240.180139 -2.320391 -0.719778
C 239.455420 -1.099023 -0.469071
N 238.132925 -1.358518 -0.649602
H 241.197662 0.000303 -0.031216
H 241.030993 2.806182 0.175939
H 239.072186 4.581545 0.799415
H 237.339151 0.776266 0.275150
H 235.806354 5.803476 -0.002690
H 235.778889 8.014748 1.138442
H 236.502024 8.452266 4.853415
H 236.803376 6.065102 4.861931
H 236.825013 3.880511 3.697889
H 233.705780 4.072039 1.820587
H 231.965812 2.286527 1.250281
H 232.239566 -2.153138 -1.932940
H 234.202576 -3.894764 -2.594004
H 235.825544 -0.917597 -0.097004
H 236.339636 -5.511172 0.215932
H 236.387957 -7.903424 -0.464596
H 237.233080 -9.050049 -3.999190
H 237.494217 -6.706151 -4.472321
H 237.440796 -4.333697 -3.763668
H 239.527694 -4.280925 -1.281665
H 241.245015 -2.444968 -0.647061
C 137.603030 -0.003149 -0.009628
C 136.350760 -0.022330 -0.013976
C 138.916699 -0.003915 -0.007695
C 140.419832 -0.022330 -0.013976
C 150.577673 -0.003149 -0.009628
C 149.325403 -0.022330 -0.013976
C 151.891342 -0.003915 -0.007695
C 153.394475 -0.022330 -0.013976
C 163.552316 -0.003149 -0.009628
C 162.300046 -0.022330 -0.013976
C 164.865985 -0.003915 -0.007695
C 166.369118 -0.022330 -0.013976
C 176.526959 -0.003149 -0.009628
C 175.274689 -0.022330 -0.013976
C 177.840628 -0.003915 -0.007695
C 179.343761 -0.022330 -0.013976
C 189.501602 -0.003149 -0.009628
C 188.249332 -0.022330 -0.013976
C 190.815271 -0.003915 -0.007695
C 192.318404 -0.022330 -0.013976
C 202.476245 -0.003149 -0.009628
C 201.223975 -0.022330 -0.013976
C 203.789914 -0.003915 -0.007695
C 205.293047 -0.022330 -0.013976
C 215.450889 -0.003149 -0.009628
C 214.198618 -0.022330 -0.013976
C 216.764557 -0.003915 -0.007695
C 218.267690 -0.022330 -0.013976
C 228.425532 -0.003149 -0.009628
C 227.173261 -0.022330 -0.013976
C 229.739200 -0.003915 -0.007695
C 231.242333 -0.022330 -0.013976
C 141.230315 0.006229 0.004571
C 142.015023 0.875620 -1.062324
C 141.473490 1.472456 -2.175667
C 142.512537 2.169929 -2.838072
C 143.663721 1.974378 -2.114161
N 143.361963 1.148146 -1.057653
C 145.082073 2.590881 -2.450166
C 145.119747 3.771413 -3.349196
C 145.344734 3.616132 -4.722192
C 145.387429 4.730681 -5.563542
C 145.199853 6.005896 -5.027395
C 145.242863 7.199183 -5.897274
O 145.404159 7.137218 -7.110539
C 144.968120 6.174616 -3.659718
C 144.928534 5.056107 -2.824355
C 146.212912 2.070693 -1.903335
C 147.519130 2.620524 -2.197841
C 148.430628 1.918201 -1.535356
N 146.412084 1.027904 -1.036906
C 147.752501 0.885184 -0.777844
C 148.434594 0.006229 0.004571
C 147.658495 -1.102755 0.840057
C 148.237639 -2.114937 1.583537
C 147.196443 -2.839747 2.207876
C 146.004165 -2.251706 1.830594
N 146.293321 -1.216371 0.971466
C 144.570172 -2.685313 2.338264
C 144.507302 -3.781575 3.332416
C 144.383079 -5.103879 2.885463
C 144.350267 -6.152798 3.803021
C 144.427857 -5.872472 5.172185
C 144.381466 -6.996877 6.126767
O 144.449795 -6.846775 7.340572
C 144.542145 -4.556787 5.629806
C 144.586861 -3.511328 4.705454
C 143.441349 -2.092124 1.873452
C 142.133347 -2.456529 2.376376
C 141.226116 -1.709269 1.761921
C 141.905871 -0.850510 0.814320
N 143.245171 -1.116016 0.936429
H 140.442227 1.418986 -2.480257
H 142.426800 2.752260 -3.740798
H 144.034618 0.760594 -0.406603
H 145.493477 2.617925 -5.122835
H 145.570055 4.597019 -6.624785
H 145.114582 8.173299 -5.394044
H 144.817777 7.158577 -3.229219
H 144.755205 5.167936 -1.754758
H 147.731594 3.452131 -2.843988
H 149.487559 2.104752 -1.573154
H 149.293809 -2.306813 1.687755
H 147.308423 -3.684416 2.875278
H 145.604456 -0.618593 0.518392
H 144.312331 -5.294050 1.814642
H 144.264883 -7.169657 3.433616
H 144.280275 -8.002224 5.685098
H 144.597631 -4.340252 6.693397
H 144.679958 -2.480582 5.038167
H 141.920814 -3.195858 3.127190
H 140.168835 -1.761191 1.944218
C 154.204958 0.006229 0.004571
C 154.989666 0.875620 -1.062324
C 154.448133 1.472456 -2.175667
C 155.487180 2.169929 -2.838072
C 156.638364 1.974378 -2.114161
N 156.336606 1.148146 -1.057653
C 158.056716 2.590881 -2.450166
C 158.094390 3.771413 -3.349196
C 158.319377 3.616132 -4.722192
C 158.362072 4.730681 -5.563542
C 158.174496 6.005896 -5.027395
C 158.217506 7.199183 -5.897274
O 158.378802 7.137218 -7.110539
C 157.942763 6.174616 -3.659718
C 157.903177 5.056107 -2.824355
C 159.187555 2.070693 -1.903335
C 160.493773 2.620524 -2.197841
C 161.405271 1.918201 -1.535356
N 159.386727 1.027904 -1.036906
C 160.727144 0.885184 -0.777844
C 161.409237 0.006229 0.004571
C 160.633138 -1.102755 0.840057
C 161.212282 -2.114937 1.583537
C 160.171086 -2.839747 2.207876
C 158.978808 -2.251706 1.830594
N 159.267964 -1.216371 0.971466
C 157.544815 -2.685313 2.338264
C 157.481945 -3.781575 3.332416
C 157.357722 -5.103879 2.885463
C 157.324910 -6.152798 3.803021
C 157.402500 -5.872472 5.172185
C 157.356109 -6.996877 6.126767
O 157.424438 -6.846775 7.340572
C 157.516788 -4.556787 5.629806
C 157.561504 -3.511328 4.705454
C 156.415992 -2.092124 1.873452
C 155.107990 -2.456529 2.376376
C 154.200759 -1.709269 1.761921
C 154.880514 -0.850510 0.814320
N 156.219814 -1.116016 0.936429
H 153.416870 1.418986 -2.480257
H 155.401443 2.752260 -3.740798
H 157.009261 0.760594 -0.406603
H 158.468120 2.617925 -5.122835
H 158.544698 4.597019 -6.624785
H 158.089225 8.173299 -5.394044
H 157.792420 7.158577 -3.229219
H 157.729848 5.167936 -1.754758
H 160.706237 3.452131 -2.843988
H 162.462202 2.104752 -1.573154
H 162.268452 -2.306813 1.687755
H 160.283066 -3.684416 2.875278
H 158.579099 -0.618593 0.518392
H 157.286974 -5.294050 1.814642
H 157.239526 -7.169657 3.433616
H 157.254918 -8.002224 5.685098
H 157.572274 -4.340252 6.693397
H 157.654601 -2.480582 5.038167
H 154.895457 -3.195858 3.127190
H 153.143478 -1.761191 1.944218
C 167.179601 0.006229 0.004571
C 167.964309 0.875620 -1.062324
C 167.422776 1.472456 -2.175667
C 168.461823 2.169929 -2.838072
C 169.613007 1.974378 -2.114161
N 169.311249 1.148146 -1.057653
C 171.031359 2.590881 -2.450166
C 171.069033 3.771413 -3.349196
C 171.294020 3.616132 -4.722192
C 171.336715 4.730681 -5.563542
C 171.149139 6.005896 -5.027395
C 171.192149 7.199183 -5.897274
O 171.353445 7.137218 -7.110539
C 170.917406 6.174616 -3.659718
C 170.877820 5.056107 -2.824355
C 172.162198 2.070693 -1.903335
C 173.468416 2.620524 -2.197841
C 174.379914 1.918201 -1.535356
N 172.361370 1.027904 -1.036906
C 173.701787 0.885184 -0.777844
C 174.383880 0.006229 0.004571
C 173.607781 -1.102755 0.840057
C 174.186925 -2.114937 1.583537
C 173.145729 -2.839747 2.207876
C 171.953451 -2.251706 1.830594
N 172.242607 -1.216371 0.971466
C 170.519458 -2.685313 2.338264
C 170.456588 -3.781575 3.332416
C 170.332365 -5.103879 2.885463
C 170.299553 -6.152798 3.803021
C 170.377143 -5.872472 5.172185
C 170.330752 -6.996877 6.126767
O 170.399081 -6.846775 7.340572
C 170.491431 -4.556787 5.629806
C 170.536147 -3.511328 4.705454
C 169.390635 -2.092124 1.873452
C 168.082633 -2.456529 2.376376
C 167.175402 -1.709269 1.761921
C 167.855157 -0.850510 0.814320
N 169.194457 -1.116016 0.936429
H 166.391513 1.418986 -2.480257
H 168.376086 2.752260 -3.740798
H 169.983904 0.760594 -0.406603
H 171.442763 2.617925 -5.122835
H 171.519341 4.597019 -6.624785
H 171.063868 8.173299 -5.394044
H 170.767063 7.158577 -3.229219
H 170.704491 5.167936 -1.754758
H 173.680880 3.452131 -2.843988
H 175.436845 2.104752 -1.573154
H 175.243095 -2.306813 1.687755
H 173.257709 -3.684416 2.875278
H 171.553742 -0.618593 0.518392
H 170.261617 -5.294050 1.814642
H 170.214169 -7.169657 3.433616
H 170.229561 -8.002224 5.685098
H 170.546917 -4.340252 6.693397
H 170.629244 -2.480582 5.038167
H 167.870100 -3.195858 3.127190
H 166.118121 -1.761191 1.944218
C 180.154244 0.006229 0.004571
C 180.938952 0.875620 -1.062324
C 180.397419 1.472456 -2.175667
C 181.436466 2.169929 -2.838072
C 182.587650 1.974378 -2.114161
N 182.285893 1.148146 -1.057653
C 184.006002 2.590881 -2.450166
C 184.043676 3.771413 -3.349196
C 184.268663 3.616132 -4.722192
C 184.311358 4.730681 -5.563542
C 184.123782 6.005896 -5.027395
C 184.166792 7.199183 -5.897274
O 184.328088 7.137218 -7.110539
C 183.892049 6.174616 -3.659718
C 183.852463 5.056107 -2.824355
C 185.136841 2.070693 -1.903335
C 186.443059 2.620524 -2.197841
C 187.354557 1.918201 -1.535356
N 185.336013 1.027904 -1.036906
C 186.676430 0.885184 -0.777844
C 187.358523 0.006229 0.004571
C 186.582424 -1.102755 0.840057
C 187.161568 -2.114937 1.583537
C 186.120372 -2.839747 2.207876
C 184.928094 -2.251706 1.830594
N 185.217250 -1.216371 0.971466
C 183.494101 -2.685313 2.338264
C 183.431231 -3.781575 3.332416
C 183.307008 -5.103879 2.885463
C 183.274196 -6.152798 3.803021
C 183.351786 -5.872472 5.172185
C 183.305395 -6.996877 6.126767
O 183.373724 -6.846775 7.340572
C 183.466074 -4.556787 5.629806
C 183.510790 -3.511328 4.705454
C 182.365278 -2.092124 1.873452
C 181.057276 -2.456529 2.376376
C 180.150045 -1.709269 1.761921
C 180.829800 -0.850510 0.814320
N 182.169100 -1.116016 0.936429
H 179.366156 1.418986 -2.480257
H 181.350729 2.752260 -3.740798
H 182.958547 0.760594 -0.406603
H 184.417406 2.617925 -5.122835
H 184.493984 4.597019 -6.624785
H 184.038511 8.173299 -5.394044
H 183.741706 7.158577 -3.229219
H 183.679134 5.167936 -1.754758
H 186.655523 3.452131 -2.843988
H 188.411488 2.104752 -1.573154
H 188.217738 -2.306813 1.687755
H 186.232352 -3.684416 2.875278
H 184.528385 -0.618593 0.518392
H 183.236260 -5.294050 1.814642
H 183.188812 -7.169657 3.433616
H 183.204204 -8.002224 5.685098
H 183.521560 -4.340252 6.693397
H 183.603887 -2.480582 5.038167
H 180.844743 -3.195858 3.127190
H 179.092764 -1.761191 1.944218
C 193.128887 0.006229 0.004571
C 193.913595 0.875620 -1.062324
C 193.372062 1.472456 -2.175667
C 194.411109 2.169929 -2.838072
C 195.562294 1.974378 -2.114161
N 195.260536 1.148146 -1.057653
C 196.980645 2.590881 -2.450166
C 197.018319 3.771413 -3.349196
C 197.243306 3.616132 -4.722192
C 197.286001 4.730681 -5.563542
C 197.098426 6.005896 -5.027395
C 197.141435 7.199183 -5.897274
O 197.302731 7.137218 -7.110539
C 196.866692 6.174616 -3.659718
C 196.827106 5.056107 -2.824355
C 198.111484 2.070693 -1.903335
C 199.417702 2.620524 -2.197841
C 200.329200 1.918201 -1.535356
N 198.310656 1.027904 -1.036906
C 199.651073 0.885184 -0.777844
C 200.333166 0.006229 0.004571
C 199.557067 -1.102755 0.840057
C 200.136211 -2.114937 1.583537
C 199.095015 -2.839747 2.207876
C 197.902737 -2.251706 1.830594
N 198.191893 -1.216371 0.971466
C 196.468744 -2.685313 2.338264
C 196.405874 -3.781575 3.332416
C 196.281651 -5.103879 2.885463
C 196.248839 -6.152798 3.803021
C 196.326429 -5.872472 5.172185
C 196.280038 -6.996877 6.126767
O 196.348367 -6.846775 7.340572
C 196.440717 -4.556787 5.629806
C 196.485433 -3.511328 4.705454
C 195.339921 -2.092124 1.873452
C 194.031919 -2.456529 2.376376
C 193.124688 -1.709269 1.761921
C 193.804443 -0.850510 0.814320
N 195.143743 -1.116016 0.936429
H 192.340799 1.418986 -2.480257
H 194.325372 2.752260 -3.740798
H 195.933190 0.760594 -0.406603
H 197.392049 2.617925 -5.122835
H 197.468627 4.597019 -6.624785
H 197.013155 8.173299 -5.394044
H 196.716349 7.158577 -3.229219
H 196.653777 5.167936 -1.754758
H 199.630166 3.452131 -2.843988
H 201.386131 2.104752 -1.573154
H 201.192381 -2.306813 1.687755
H 199.206995 -3.684416 2.875278
H 197.503028 -0.618593 0.518392
H 196.210903 -5.294050 1.814642
H 196.163455 -7.169657 3.433616
H 196.178847 -8.002224 5.685098
H 196.496203 -4.340252 6.693397
H 196.578530 -2.480582 5.038167
H 193.819386 -3.195858 3.127190
H 192.067407 -1.761191 1.944218
C 206.103530 0.006229 0.004571
C 206.888238 0.875620 -1.062324
C 206.346705 1.472456 -2.175667
C 207.385752 2.169929 -2.838072
C 208.536937 1.974378 -2.114161
N 208.235179 1.148146 -1.057653
C 209.955288 2.590881 -2.450166
C 209.992962 3.771413 -3.349196
C 210.217949 3.616132 -4.722192
C 210.260644 4.730681 -5.563542
C 210.073069 6.005896 -5.027395
C 210.116078 7.199183 -5.897274
O 210.277374 7.137218 -7.110539
C 209.841335 6.174616 -3.659718
C 209.801749 5.056107 -2.824355
C 211.086127 2.070693 -1.903335
C 212.392345 2.620524 -2.197841
C 213.303843 1.918201 -1.535356
N 211.285299 1.027904 -1.036906
C 212.625716 0.885184 -0.777844
C 213.307809 0.006229 0.004571
C 212.531710 -1.102755 0.840057
C 213.110854 -2.114937 1.583537
C 212.069658 -2.839747 2.207876
C 210.877380 -2.251706 1.830594
N 211.166536 -1.216371 0.971466
C 209.443387 -2.685313 2.338264
C 209.380517 -3.781575 3.332416
C 209.256294 -5.103879 2.885463
C 209.223482 -6.152798 3.803021
C 209.301072 -5.872472 5.172185
C 209.254681 -6.996877 6.126767
O 209.323010 -6.846775 7.340572
C 209.415360 -4.556787 5.629806
C 209.460076 -3.511328 4.705454
C 208.314564 -2.092124 1.873452
C 207.006562 -2.456529 2.376376
C 206.099331 -1.709269 1.761921
C 206.779086 -0.850510 0.814320
N 208.118386 -1.116016 0.936429
H 205.315442 1.418986 -2.480257
H 207.300015 2.752260 -3.740798
H 208.907833 0.760594 -0.406603
H 210.366692 2.617925 -5.122835
H 210.443270 4.597019 -6.624785
H 209.987798 8.173299 -5.394044
H 209.690992 7.158577 -3.229219
H 209.628420 5.167936 -1.754758
H 212.604809 3.452131 -2.843988
H 214.360774 2.104752 -1.573154
H 214.167024 -2.306813 1.687755
H 212.181638 -3.684416 2.875278
H 210.477671 -0.618593 0.518392
H 209.185546 -5.294050 1.814642
H 209.138098 -7.169657 3.433616
H 209.153490 -8.002224 5.685098
H 209.470846 -4.340252 6.693397
H 209.553173 -2.480582 5.038167
H 206.794029 -3.195858 3.127190
H 205.042050 -1.761191 1.944218
C 219.078173 0.006229 0.004571
C 219.862881 0.875620 -1.062324
C 219.321348 1.472456 -2.175667
C 220.360395 2.169929 -2.838072
C 221.511580 1.974378 -2.114161
N 221.209822 1.148146 -1.057653
C 222.929931 2.590881 -2.450166
C 222.967605 3.771413 -3.349196
C 223.192593 3.616132 -4.722192
C 223.235287 4.730681 -5.563542
C 223.047712 6.005896 -5.027395
C 223.090721 7.199183 -5.897274
O 223.252017 7.137218 -7.110539
C 222.815978 6.174616 -3.659718
C 222.776392 5.056107 -2.824355
C 224.060770 2.070693 -1.903335
C 225.366988 2.620524 -2.197841
C 226.278486 1.918201 -1.535356
N 224.259942 1.027904 -1.036906
C 225.600359 0.885184 -0.777844
C 226.282452 0.006229 0.004571
C 225.506353 -1.102755 0.840057
C 226.085497 -2.114937 1.583537
C 225.044301 -2.839747 2.207876
C 223.852023 -2.251706 1.830594
N 224.141179 -1.216371 0.971466
C 222.418030 -2.685313 2.338264
C 222.355160 -3.781575 3.332416
C 222.230937 -5.103879 2.885463
C 222.198125 -6.152798 3.803021
C 222.275715 -5.872472 5.172185
C 222.229324 -6.996877 6.126767
O 222.297653 -6.846775 7.340572
C 222.390003 -4.556787 5.629806
C 222.434719 -3.511328 4.705454
C 221.289207 -2.092124 1.873452
C 219.981205 -2.456529 2.376376
C 219.073974 -1.709269 1.761921
C 219.753729 -0.850510 0.814320
N 221.093029 -1.116016 0.936429
H 218.290085 1.418986 -2.480257
H 220.274658 2.752260 -3.740798
H 221.882476 0.760594 -0.406603
H 223.341335 2.617925 -5.122835
H 223.417913 4.597019 -6.624785
H 222.962441 8.173299 -5.394044
H 222.665635 7.158577 -3.229219
H 222.603063 5.167936 -1.754758
H 225.579452 3.452131 -2.843988
H 227.335417 2.104752 -1.573154
H 227.141667 -2.306813 1.687755
H 225.156281 -3.684416 2.875278
H 223.452314 -0.618593 0.518392
H 222.160189 -5.294050 1.814642
H 222.112741 -7.169657 3.433616
H 222.128133 -8.002224 5.685098
H 222.445489 -4.340252 6.693397
H 222.527816 -2.480582 5.038167
H 219.768672 -3.195858 3.127190
H 218.016693 -1.761191 1.944218
