 xtb: 6.5.1 (b24c23e)
          07302208113D

278317  0     0  0            999 V2000
   43.4395    0.0879    0.0217 Co  0  0  0  0  0  0  0  0  0  0  0  0
   40.0724    0.2249    0.0715 C   0  0  0  0  0  0  0  0  0  0  0  0
   40.7223   -0.3527    1.1415 C   0  0  0  0  0  0  0  0  0  0  0  0
   40.0573   -0.9388    2.2654 C   0  0  0  0  0  0  0  0  0  0  0  0
   41.0142   -1.2170    3.1818 C   0  0  0  0  0  0  0  0  0  0  0  0
   42.2616   -0.7818    2.6235 C   0  0  0  0  0  0  0  0  0  0  0  0
   42.0793   -0.3224    1.3443 N   0  0  0  0  0  0  0  0  0  0  0  0
   43.4550   -0.7070    3.3297 C   0  0  0  0  0  0  0  0  0  0  0  0
   43.4661   -1.0630    4.7662 C   0  0  0  0  0  0  0  0  0  0  0  0
   42.6527   -0.3758    5.6710 C   0  0  0  0  0  0  0  0  0  0  0  0
   42.6606   -0.7075    7.0157 C   0  0  0  0  0  0  0  0  0  0  0  0
   43.4852   -1.7358    7.4423 C   0  0  0  0  0  0  0  0  0  0  0  0
   43.5020   -2.1592    9.1437 S   0  0  0  0  0  0  0  0  0  0  0  0
   43.0758   -1.0545    9.9521 O   0  0  0  0  0  0  0  0  0  0  0  0
   42.3028   -3.2549    9.1254 O   0  0  0  0  0  0  0  0  0  0  0  0
   44.7223   -2.8275    9.4859 O   0  0  0  0  0  0  0  0  0  0  0  0
   44.3058   -2.4328    6.5704 C   0  0  0  0  0  0  0  0  0  0  0  0
   44.2940   -2.0893    5.2287 C   0  0  0  0  0  0  0  0  0  0  0  0
   44.6370   -0.2975    2.7293 C   0  0  0  0  0  0  0  0  0  0  0  0
   45.8765   -0.1145    3.4228 C   0  0  0  0  0  0  0  0  0  0  0  0
   46.8232    0.1074    2.4790 C   0  0  0  0  0  0  0  0  0  0  0  0
   44.8139   -0.1176    1.3774 N   0  0  0  0  0  0  0  0  0  0  0  0
   46.1593    0.0632    1.2147 C   0  0  0  0  0  0  0  0  0  0  0  0
   46.8282    0.0278   -0.0116 C   0  0  0  0  0  0  0  0  0  0  0  0
   46.1353   -0.0055   -1.2248 C   0  0  0  0  0  0  0  0  0  0  0  0
   46.7714   -0.1061   -2.4999 C   0  0  0  0  0  0  0  0  0  0  0  0
   45.8102    0.1048   -3.4316 C   0  0  0  0  0  0  0  0  0  0  0  0
   44.5919    0.3495   -2.7194 C   0  0  0  0  0  0  0  0  0  0  0  0
   44.7923    0.2061   -1.3657 N   0  0  0  0  0  0  0  0  0  0  0  0
   43.4176    0.7993   -3.3054 C   0  0  0  0  0  0  0  0  0  0  0  0
   43.4074    1.1084   -4.7527 C   0  0  0  0  0  0  0  0  0  0  0  0
   42.5213    0.4499   -5.6092 C   0  0  0  0  0  0  0  0  0  0  0  0
   42.5057    0.7401   -6.9635 C   0  0  0  0  0  0  0  0  0  0  0  0
   43.3823    1.6969   -7.4487 C   0  0  0  0  0  0  0  0  0  0  0  0
   43.3565    2.0823   -9.1590 S   0  0  0  0  0  0  0  0  0  0  0  0
   43.8711    3.3991   -9.3970 O   0  0  0  0  0  0  0  0  0  0  0  0
   44.4739    1.0147   -9.6599 O   0  0  0  0  0  0  0  0  0  0  0  0
   42.0949    1.7259   -9.7370 O   0  0  0  0  0  0  0  0  0  0  0  0
   44.2689    2.3704   -6.6240 C   0  0  0  0  0  0  0  0  0  0  0  0
   44.2793    2.0689   -5.2723 C   0  0  0  0  0  0  0  0  0  0  0  0
   42.2532    0.9794   -2.5696 C   0  0  0  0  0  0  0  0  0  0  0  0
   41.0295    1.5048   -3.1018 C   0  0  0  0  0  0  0  0  0  0  0  0
   40.0859    1.3454   -2.1442 C   0  0  0  0  0  0  0  0  0  0  0  0
   40.7351    0.7317   -1.0256 C   0  0  0  0  0  0  0  0  0  0  0  0
   42.0764    0.5739   -1.2722 N   0  0  0  0  0  0  0  0  0  0  0  0
   38.9903    0.2747    0.0902 H   0  0  0  0  0  0  0  0  0  0  0  0
   38.9935   -1.1030    2.3282 H   0  0  0  0  0  0  0  0  0  0  0  0
   40.8990   -1.6701    4.1530 H   0  0  0  0  0  0  0  0  0  0  0  0
   42.0247    0.4342    5.3189 H   0  0  0  0  0  0  0  0  0  0  0  0
   42.0424   -0.1745    7.7273 H   0  0  0  0  0  0  0  0  0  0  0  0
   42.0777   -3.5180   10.0261 H   0  0  0  0  0  0  0  0  0  0  0  0
   44.9426   -3.2269    6.9394 H   0  0  0  0  0  0  0  0  0  0  0  0
   44.9201   -2.6290    4.5278 H   0  0  0  0  0  0  0  0  0  0  0  0
   45.9955   -0.1519    4.4934 H   0  0  0  0  0  0  0  0  0  0  0  0
   47.8801    0.2747    2.6097 H   0  0  0  0  0  0  0  0  0  0  0  0
   47.8206   -0.3057   -2.6462 H   0  0  0  0  0  0  0  0  0  0  0  0
   45.9070    0.1006   -4.5050 H   0  0  0  0  0  0  0  0  0  0  0  0
   41.8512   -0.3030   -5.2111 H   0  0  0  0  0  0  0  0  0  0  0  0
   41.8226    0.2368   -7.6360 H   0  0  0  0  0  0  0  0  0  0  0  0
   44.7054    1.1831  -10.5814 H   0  0  0  0  0  0  0  0  0  0  0  0
   44.9316    3.1216   -7.0350 H   0  0  0  0  0  0  0  0  0  0  0  0
   44.9551    2.5942   -4.6076 H   0  0  0  0  0  0  0  0  0  0  0  0
   40.9202    1.9360   -4.0836 H   0  0  0  0  0  0  0  0  0  0  0  0
   39.0396    1.6037   -2.1770 H   0  0  0  0  0  0  0  0  0  0  0  0
   98.9867    0.0880   -0.0023 Co  0  0  0  0  0  0  0  0  0  0  0  0
  102.3549    0.2081   -0.0084 C   0  0  0  0  0  0  0  0  0  0  0  0
  101.7015    0.0693   -1.2141 C   0  0  0  0  0  0  0  0  0  0  0  0
  102.3634   -0.0586   -2.4768 C   0  0  0  0  0  0  0  0  0  0  0  0
  101.4052    0.0289   -3.4290 C   0  0  0  0  0  0  0  0  0  0  0  0
  100.1596    0.2282   -2.7466 C   0  0  0  0  0  0  0  0  0  0  0  0
  100.3440    0.1749   -1.3883 N   0  0  0  0  0  0  0  0  0  0  0  0
   98.9658    0.5608   -3.3722 C   0  0  0  0  0  0  0  0  0  0  0  0
   98.9534    0.7661   -4.8380 C   0  0  0  0  0  0  0  0  0  0  0  0
   99.7659    1.7417   -5.4215 C   0  0  0  0  0  0  0  0  0  0  0  0
   99.7589    1.9343   -6.7930 C   0  0  0  0  0  0  0  0  0  0  0  0
   98.9359    1.1375   -7.5723 C   0  0  0  0  0  0  0  0  0  0  0  0
   98.9220    1.3760   -9.3091 S   0  0  0  0  0  0  0  0  0  0  0  0
   99.3502    2.7014   -9.6485 O   0  0  0  0  0  0  0  0  0  0  0  0
  100.1197    0.3489   -9.6961 O   0  0  0  0  0  0  0  0  0  0  0  0
   97.7026    0.8837   -9.8784 O   0  0  0  0  0  0  0  0  0  0  0  0
   98.1157    0.1655   -7.0229 C   0  0  0  0  0  0  0  0  0  0  0  0
   98.1267   -0.0150   -5.6497 C   0  0  0  0  0  0  0  0  0  0  0  0
   97.7844    0.7150   -2.6605 C   0  0  0  0  0  0  0  0  0  0  0  0
   96.5429    1.1382   -3.2350 C   0  0  0  0  0  0  0  0  0  0  0  0
   95.5976    0.9896   -2.2755 C   0  0  0  0  0  0  0  0  0  0  0  0
   97.6100    0.3774   -1.3390 N   0  0  0  0  0  0  0  0  0  0  0  0
   96.2640    0.4819   -1.1185 C   0  0  0  0  0  0  0  0  0  0  0  0
   95.5986   -0.0036    0.0093 C   0  0  0  0  0  0  0  0  0  0  0  0
   96.2935   -0.4744    1.1255 C   0  0  0  0  0  0  0  0  0  0  0  0
   95.6599   -1.0319    2.2780 C   0  0  0  0  0  0  0  0  0  0  0  0
   96.6224   -1.1721    3.2215 C   0  0  0  0  0  0  0  0  0  0  0  0
   97.8394   -0.6847    2.6452 C   0  0  0  0  0  0  0  0  0  0  0  0
   97.6377   -0.3289    1.3316 N   0  0  0  0  0  0  0  0  0  0  0  0
   99.0151   -0.4802    3.3530 C   0  0  0  0  0  0  0  0  0  0  0  0
   99.0285   -0.7203    4.8134 C   0  0  0  0  0  0  0  0  0  0  0  0
   99.9144   -1.6481    5.3674 C   0  0  0  0  0  0  0  0  0  0  0  0
   99.9355   -1.8712    6.7343 C   0  0  0  0  0  0  0  0  0  0  0  0
   99.0644   -1.1543    7.5384 C   0  0  0  0  0  0  0  0  0  0  0  0
   99.0990   -1.4175    9.2717 S   0  0  0  0  0  0  0  0  0  0  0  0
   98.5916   -0.2761    9.9756 O   0  0  0  0  0  0  0  0  0  0  0  0
   97.9783   -2.5905    9.3573 O   0  0  0  0  0  0  0  0  0  0  0  0
  100.3615   -1.9632    9.6727 O   0  0  0  0  0  0  0  0  0  0  0  0
   98.1777   -0.2248    7.0195 C   0  0  0  0  0  0  0  0  0  0  0  0
   98.1618   -0.0132    5.6509 C   0  0  0  0  0  0  0  0  0  0  0  0
  100.1786   -0.0467    2.7312 C   0  0  0  0  0  0  0  0  0  0  0  0
  101.4047    0.2450    3.4153 C   0  0  0  0  0  0  0  0  0  0  0  0
  102.3471    0.4415    2.4635 C   0  0  0  0  0  0  0  0  0  0  0  0
  101.6949    0.2799    1.1996 C   0  0  0  0  0  0  0  0  0  0  0  0
  100.3535    0.0459    1.3744 N   0  0  0  0  0  0  0  0  0  0  0  0
  103.4372    0.2569   -0.0097 H   0  0  0  0  0  0  0  0  0  0  0  0
  103.4266   -0.1909   -2.5983 H   0  0  0  0  0  0  0  0  0  0  0  0
  101.5182   -0.0294   -4.4994 H   0  0  0  0  0  0  0  0  0  0  0  0
  100.3930    2.3630   -4.7927 H   0  0  0  0  0  0  0  0  0  0  0  0
  100.3767    2.6943   -7.2547 H   0  0  0  0  0  0  0  0  0  0  0  0
  100.3243    0.4142  -10.6368 H   0  0  0  0  0  0  0  0  0  0  0  0
   97.4801   -0.4350   -7.6614 H   0  0  0  0  0  0  0  0  0  0  0  0
   97.5011   -0.7775   -5.2005 H   0  0  0  0  0  0  0  0  0  0  0  0
   96.4219    1.5015   -4.2425 H   0  0  0  0  0  0  0  0  0  0  0  0
   94.5399    1.1898   -2.3338 H   0  0  0  0  0  0  0  0  0  0  0  0
   94.6110   -1.2720    2.3432 H   0  0  0  0  0  0  0  0  0  0  0  0
   96.5272   -1.5647    4.2207 H   0  0  0  0  0  0  0  0  0  0  0  0
  100.5803   -2.2059    4.7195 H   0  0  0  0  0  0  0  0  0  0  0  0
  100.6188   -2.5866    7.1742 H   0  0  0  0  0  0  0  0  0  0  0  0
   97.7415   -2.7575   10.2777 H   0  0  0  0  0  0  0  0  0  0  0  0
   97.5194    0.3269    7.6787 H   0  0  0  0  0  0  0  0  0  0  0  0
   97.4859    0.7198    5.2261 H   0  0  0  0  0  0  0  0  0  0  0  0
  101.5163    0.2892    4.4865 H   0  0  0  0  0  0  0  0  0  0  0  0
  103.3944    0.6669    2.5860 H   0  0  0  0  0  0  0  0  0  0  0  0
   48.2304    0.0160   -0.0246 C   0  0  0  0  0  0  0  0  0  0  0  0
   49.4553    0.0038   -0.0378 C   0  0  0  0  0  0  0  0  0  0  0  0
   50.7967   -0.0042   -0.0449 C   0  0  0  0  0  0  0  0  0  0  0  0
   52.0282   -0.0160   -0.0506 C   0  0  0  0  0  0  0  0  0  0  0  0
   53.3646   -0.0182   -0.0538 C   0  0  0  0  0  0  0  0  0  0  0  0
   54.5963   -0.0230   -0.0548 C   0  0  0  0  0  0  0  0  0  0  0  0
   55.9372   -0.0243   -0.0545 C   0  0  0  0  0  0  0  0  0  0  0  0
   57.1627   -0.0237   -0.0510 C   0  0  0  0  0  0  0  0  0  0  0  0
   66.7467   -0.0437   -0.0037 C   0  0  0  0  0  0  0  0  0  0  0  0
   67.9725   -0.0473    0.0013 C   0  0  0  0  0  0  0  0  0  0  0  0
   69.3127   -0.0513    0.0058 C   0  0  0  0  0  0  0  0  0  0  0  0
   70.5448   -0.0508    0.0088 C   0  0  0  0  0  0  0  0  0  0  0  0
   71.8803   -0.0508    0.0081 C   0  0  0  0  0  0  0  0  0  0  0  0
   73.1124   -0.0481    0.0087 C   0  0  0  0  0  0  0  0  0  0  0  0
   74.4526   -0.0469    0.0059 C   0  0  0  0  0  0  0  0  0  0  0  0
   75.6784   -0.0438    0.0035 C   0  0  0  0  0  0  0  0  0  0  0  0
   85.2621   -0.0700    0.0218 C   0  0  0  0  0  0  0  0  0  0  0  0
   86.4870   -0.0729    0.0292 C   0  0  0  0  0  0  0  0  0  0  0  0
   87.8290   -0.0731    0.0340 C   0  0  0  0  0  0  0  0  0  0  0  0
   89.0600   -0.0725    0.0357 C   0  0  0  0  0  0  0  0  0  0  0  0
   90.3975   -0.0653    0.0351 C   0  0  0  0  0  0  0  0  0  0  0  0
   91.6283   -0.0545    0.0316 C   0  0  0  0  0  0  0  0  0  0  0  0
   92.9708   -0.0397    0.0267 C   0  0  0  0  0  0  0  0  0  0  0  0
   94.1950   -0.0241    0.0185 C   0  0  0  0  0  0  0  0  0  0  0  0
   61.9549   -0.0336   -0.0253 Co  0  0  0  0  0  0  0  0  0  0  0  0
   58.5635   -0.0230   -0.0485 C   0  0  0  0  0  0  0  0  0  0  0  0
   59.2446    0.8431    0.8132 C   0  0  0  0  0  0  0  0  0  0  0  0
   58.5966    1.7225    1.7333 C   0  0  0  0  0  0  0  0  0  0  0  0
   59.5507    2.5618    2.2059 C   0  0  0  0  0  0  0  0  0  0  0  0
   60.7764    2.1950    1.5636 C   0  0  0  0  0  0  0  0  0  0  0  0
   60.5869    1.0933    0.7637 N   0  0  0  0  0  0  0  0  0  0  0  0
   61.9521    2.9311    1.6299 C   0  0  0  0  0  0  0  0  0  0  0  0
   61.9507    4.2217    2.3540 C   0  0  0  0  0  0  0  0  0  0  0  0
   62.8147    4.4245    3.4332 C   0  0  0  0  0  0  0  0  0  0  0  0
   62.8192    5.6312    4.1130 C   0  0  0  0  0  0  0  0  0  0  0  0
   61.9546    6.6311    3.6984 C   0  0  0  0  0  0  0  0  0  0  0  0
   61.9675    8.1677    4.5435 S   0  0  0  0  0  0  0  0  0  0  0  0
   61.4959    9.2245    3.6971 O   0  0  0  0  0  0  0  0  0  0  0  0
   60.8043    7.8509    5.6315 O   0  0  0  0  0  0  0  0  0  0  0  0
   63.2076    8.3474    5.2375 O   0  0  0  0  0  0  0  0  0  0  0  0
   61.0902    6.4618    2.6290 C   0  0  0  0  0  0  0  0  0  0  0  0
   61.0894    5.2490    1.9601 C   0  0  0  0  0  0  0  0  0  0  0  0
   63.1297    2.4923    1.0406 C   0  0  0  0  0  0  0  0  0  0  0  0
   64.3576    3.2289    1.0326 C   0  0  0  0  0  0  0  0  0  0  0  0
   65.3149    2.3855    0.5746 C   0  0  0  0  0  0  0  0  0  0  0  0
   63.3212    1.2367    0.5128 N   0  0  0  0  0  0  0  0  0  0  0  0
   64.6659    1.1447    0.2927 C   0  0  0  0  0  0  0  0  0  0  0  0
   65.3465   -0.0386   -0.0129 C   0  0  0  0  0  0  0  0  0  0  0  0
   64.6613   -1.2163   -0.3304 C   0  0  0  0  0  0  0  0  0  0  0  0
   65.3047   -2.4614   -0.6056 C   0  0  0  0  0  0  0  0  0  0  0  0
   64.3491   -3.2941   -1.0866 C   0  0  0  0  0  0  0  0  0  0  0  0
   63.1278   -2.5473   -1.1130 C   0  0  0  0  0  0  0  0  0  0  0  0
   63.3207   -1.2950   -0.5786 N   0  0  0  0  0  0  0  0  0  0  0  0
   61.9560   -2.9737   -1.7230 C   0  0  0  0  0  0  0  0  0  0  0  0
   61.9572   -4.2593   -2.4559 C   0  0  0  0  0  0  0  0  0  0  0  0
   62.8368   -4.4607   -3.5227 C   0  0  0  0  0  0  0  0  0  0  0  0
   62.8443   -5.6631   -4.2103 C   0  0  0  0  0  0  0  0  0  0  0  0
   61.9671   -6.6600   -3.8159 C   0  0  0  0  0  0  0  0  0  0  0  0
   61.9840   -8.1919   -4.6695 S   0  0  0  0  0  0  0  0  0  0  0  0
   61.4961   -9.2508   -3.8351 O   0  0  0  0  0  0  0  0  0  0  0  0
   60.8367   -7.8641   -5.7712 O   0  0  0  0  0  0  0  0  0  0  0  0
   63.2322   -8.3737   -5.3481 O   0  0  0  0  0  0  0  0  0  0  0  0
   61.0872   -6.4922   -2.7588 C   0  0  0  0  0  0  0  0  0  0  0  0
   61.0837   -5.2839   -2.0819 C   0  0  0  0  0  0  0  0  0  0  0  0
   60.7833   -2.2326   -1.6639 C   0  0  0  0  0  0  0  0  0  0  0  0
   59.5610   -2.5927   -2.3164 C   0  0  0  0  0  0  0  0  0  0  0  0
   58.6044   -1.7585   -1.8399 C   0  0  0  0  0  0  0  0  0  0  0  0
   59.2484   -0.8865   -0.9099 C   0  0  0  0  0  0  0  0  0  0  0  0
   60.5909   -1.1345   -0.8591 N   0  0  0  0  0  0  0  0  0  0  0  0
   57.5447    1.6965    1.9679 H   0  0  0  0  0  0  0  0  0  0  0  0
   59.4441    3.3603    2.9219 H   0  0  0  0  0  0  0  0  0  0  0  0
   63.4755    3.6252    3.7478 H   0  0  0  0  0  0  0  0  0  0  0  0
   63.4848    5.7994    4.9503 H   0  0  0  0  0  0  0  0  0  0  0  0
   60.5316    8.6640    6.0740 H   0  0  0  0  0  0  0  0  0  0  0  0
   60.4366    7.2694    2.3242 H   0  0  0  0  0  0  0  0  0  0  0  0
   60.4303    5.1002    1.1128 H   0  0  0  0  0  0  0  0  0  0  0  0
   64.4638    4.2557    1.3422 H   0  0  0  0  0  0  0  0  0  0  0  0
   66.3688    2.5693    0.4424 H   0  0  0  0  0  0  0  0  0  0  0  0
   66.3542   -2.6551   -0.4540 H   0  0  0  0  0  0  0  0  0  0  0  0
   64.4521   -4.3205   -1.3989 H   0  0  0  0  0  0  0  0  0  0  0  0
   63.5077   -3.6639   -3.8215 H   0  0  0  0  0  0  0  0  0  0  0  0
   63.5219   -5.8302   -5.0381 H   0  0  0  0  0  0  0  0  0  0  0  0
   60.5660   -8.6735   -6.2214 H   0  0  0  0  0  0  0  0  0  0  0  0
   60.4241   -7.2977   -2.4693 H   0  0  0  0  0  0  0  0  0  0  0  0
   60.4129   -5.1366   -1.2436 H   0  0  0  0  0  0  0  0  0  0  0  0
   59.4576   -3.3848   -3.0401 H   0  0  0  0  0  0  0  0  0  0  0  0
   57.5535   -1.7306   -2.0787 H   0  0  0  0  0  0  0  0  0  0  0  0
   80.4696   -0.0357   -0.0260 Co  0  0  0  0  0  0  0  0  0  0  0  0
   77.0787   -0.0429   -0.0018 C   0  0  0  0  0  0  0  0  0  0  0  0
   77.7643    0.8539    0.8240 C   0  0  0  0  0  0  0  0  0  0  0  0
   77.1200    1.7604    1.7206 C   0  0  0  0  0  0  0  0  0  0  0  0
   78.0776    2.6072    2.1711 C   0  0  0  0  0  0  0  0  0  0  0  0
   79.3016    2.2199    1.5369 C   0  0  0  0  0  0  0  0  0  0  0  0
   79.1078    1.0944    0.7700 N   0  0  0  0  0  0  0  0  0  0  0  0
   80.4774    2.9559    1.5787 C   0  0  0  0  0  0  0  0  0  0  0  0
   80.4815    4.2619    2.2746 C   0  0  0  0  0  0  0  0  0  0  0  0
   81.3533    4.4866    3.3432 C   0  0  0  0  0  0  0  0  0  0  0  0
   81.3559    5.7038    4.0043 C   0  0  0  0  0  0  0  0  0  0  0  0
   80.4822    6.6921    3.5812 C   0  0  0  0  0  0  0  0  0  0  0  0
   80.4868    8.2393    4.4072 S   0  0  0  0  0  0  0  0  0  0  0  0
   80.0044    9.2818    3.5493 O   0  0  0  0  0  0  0  0  0  0  0  0
   79.3295    7.9267    5.5026 O   0  0  0  0  0  0  0  0  0  0  0  0
   81.7274    8.4365    5.0954 O   0  0  0  0  0  0  0  0  0  0  0  0
   79.6128    6.5024    2.5193 C   0  0  0  0  0  0  0  0  0  0  0  0
   79.6140    5.2795    1.8691 C   0  0  0  0  0  0  0  0  0  0  0  0
   81.6512    2.5015    0.9912 C   0  0  0  0  0  0  0  0  0  0  0  0
   82.8776    3.2386    0.9484 C   0  0  0  0  0  0  0  0  0  0  0  0
   83.8315    2.3828    0.5058 C   0  0  0  0  0  0  0  0  0  0  0  0
   81.8395    1.2301    0.5042 N   0  0  0  0  0  0  0  0  0  0  0  0
   83.1823    1.1327    0.2702 C   0  0  0  0  0  0  0  0  0  0  0  0
   83.8601   -0.0631    0.0130 C   0  0  0  0  0  0  0  0  0  0  0  0
   83.1724   -1.2493   -0.2592 C   0  0  0  0  0  0  0  0  0  0  0  0
   83.8128   -2.5024   -0.5039 C   0  0  0  0  0  0  0  0  0  0  0  0
   82.8571   -3.3421   -0.9723 C   0  0  0  0  0  0  0  0  0  0  0  0
   81.6379   -2.5931   -1.0189 C   0  0  0  0  0  0  0  0  0  0  0  0
   81.8304   -1.3325   -0.5060 N   0  0  0  0  0  0  0  0  0  0  0  0
   80.4666   -3.0313   -1.6233 C   0  0  0  0  0  0  0  0  0  0  0  0
   80.4710   -4.3242   -2.3432 C   0  0  0  0  0  0  0  0  0  0  0  0
   81.3520   -4.5320   -3.4076 C   0  0  0  0  0  0  0  0  0  0  0  0
   81.3553   -5.7357   -4.0928 C   0  0  0  0  0  0  0  0  0  0  0  0
   80.4727   -6.7278   -3.6981 C   0  0  0  0  0  0  0  0  0  0  0  0
   80.4774   -8.2580   -4.5549 S   0  0  0  0  0  0  0  0  0  0  0  0
   79.9771   -9.3137   -3.7239 O   0  0  0  0  0  0  0  0  0  0  0  0
   79.3369   -7.9142   -5.6587 O   0  0  0  0  0  0  0  0  0  0  0  0
   81.7250   -8.4513   -5.2316 O   0  0  0  0  0  0  0  0  0  0  0  0
   79.5941   -6.5551   -2.6409 C   0  0  0  0  0  0  0  0  0  0  0  0
   79.5950   -5.3455   -1.9662 C   0  0  0  0  0  0  0  0  0  0  0  0
   79.2931   -2.2920   -1.5747 C   0  0  0  0  0  0  0  0  0  0  0  0
   78.0677   -2.6669   -2.2135 C   0  0  0  0  0  0  0  0  0  0  0  0
   77.1115   -1.8272   -1.7461 C   0  0  0  0  0  0  0  0  0  0  0  0
   77.7588   -0.9353   -0.8375 C   0  0  0  0  0  0  0  0  0  0  0  0
   79.1009   -1.1815   -0.7861 N   0  0  0  0  0  0  0  0  0  0  0  0
   76.0682    1.7444    1.9563 H   0  0  0  0  0  0  0  0  0  0  0  0
   77.9743    3.4245    2.8662 H   0  0  0  0  0  0  0  0  0  0  0  0
   82.0204    3.6959    3.6657 H   0  0  0  0  0  0  0  0  0  0  0  0
   82.0259    5.8884    4.8345 H   0  0  0  0  0  0  0  0  0  0  0  0
   79.0525    8.7427    5.9370 H   0  0  0  0  0  0  0  0  0  0  0  0
   78.9528    7.3017    2.2064 H   0  0  0  0  0  0  0  0  0  0  0  0
   78.9502    5.1143    1.0286 H   0  0  0  0  0  0  0  0  0  0  0  0
   82.9850    4.2748    1.2249 H   0  0  0  0  0  0  0  0  0  0  0  0
   84.8837    2.5641    0.3568 H   0  0  0  0  0  0  0  0  0  0  0  0
   84.8615   -2.6951   -0.3451 H   0  0  0  0  0  0  0  0  0  0  0  0
   82.9587   -4.3745   -1.2644 H   0  0  0  0  0  0  0  0  0  0  0  0
   82.0261   -3.7383   -3.7077 H   0  0  0  0  0  0  0  0  0  0  0  0
   82.0326   -5.9069   -4.9201 H   0  0  0  0  0  0  0  0  0  0  0  0
   79.0732   -8.7159   -6.1268 H   0  0  0  0  0  0  0  0  0  0  0  0
   78.9272   -7.3573   -2.3506 H   0  0  0  0  0  0  0  0  0  0  0  0
   78.9243   -5.1943   -1.1285 H   0  0  0  0  0  0  0  0  0  0  0  0
   77.9621   -3.4710   -2.9234 H   0  0  0  0  0  0  0  0  0  0  0  0
   76.0595   -1.8057   -1.9805 H   0  0  0  0  0  0  0  0  0  0  0  0
  2  3  4  0  0  0  0
  3  4  1  0  0  0  0
  4  5  2  0  0  0  0
  5  6  4  0  0  0  0
  1  7  1  0  0  0  0
  3  7  4  0  0  0  0
  6  7  4  0  0  0  0
  6  8  4  0  0  0  0
  8  9  1  0  0  0  0
  9 10  4  0  0  0  0
 10 11  4  0  0  0  0
 11 12  4  0  0  0  0
 12 13  1  0  0  0  0
 13 14  2  0  0  0  0
 13 15  1  0  0  0  0
 13 16  2  0  0  0  0
 12 17  4  0  0  0  0
  9 18  4  0  0  0  0
 17 18  4  0  0  0  0
  8 19  4  0  0  0  0
 19 20  4  0  0  0  0
 20 21  2  0  0  0  0
  1 22  1  0  0  0  0
 19 22  4  0  0  0  0
 21 23  4  0  0  0  0
 22 23  4  0  0  0  0
 23 24  4  0  0  0  0
 24 25  4  0  0  0  0
 25 26  4  0  0  0  0
 26 27  2  0  0  0  0
 27 28  4  0  0  0  0
  1 29  1  0  0  0  0
 25 29  4  0  0  0  0
 28 29  4  0  0  0  0
 28 30  4  0  0  0  0
 30 31  1  0  0  0  0
 31 32  4  0  0  0  0
 32 33  4  0  0  0  0
 33 34  4  0  0  0  0
 34 35  1  0  0  0  0
 35 36  2  0  0  0  0
 35 37  1  0  0  0  0
 35 38  2  0  0  0  0
 34 39  4  0  0  0  0
 31 40  4  0  0  0  0
 39 40  4  0  0  0  0
 30 41  4  0  0  0  0
 41 42  4  0  0  0  0
 42 43  2  0  0  0  0
  2 44  4  0  0  0  0
 43 44  1  0  0  0  0
  1 45  1  0  0  0  0
 41 45  4  0  0  0  0
 44 45  4  0  0  0  0
  2 46  1  0  0  0  0
  4 47  1  0  0  0  0
  5 48  1  0  0  0  0
 10 49  1  0  0  0  0
 11 50  1  0  0  0  0
 15 51  1  0  0  0  0
 17 52  1  0  0  0  0
 18 53  1  0  0  0  0
 20 54  1  0  0  0  0
 21 55  1  0  0  0  0
 26 56  1  0  0  0  0
 27 57  1  0  0  0  0
 32 58  1  0  0  0  0
 33 59  1  0  0  0  0
 37 60  1  0  0  0  0
 39 61  1  0  0  0  0
 40 62  1  0  0  0  0
 42 63  1  0  0  0  0
 43 64  1  0  0  0  0
 66 67  4  0  0  0  0
 67 68  1  0  0  0  0
 68 69  2  0  0  0  0
 69 70  4  0  0  0  0
 65 71  1  0  0  0  0
 67 71  4  0  0  0  0
 70 71  4  0  0  0  0
 70 72  4  0  0  0  0
 72 73  1  0  0  0  0
 73 74  4  0  0  0  0
 74 75  4  0  0  0  0
 75 76  4  0  0  0  0
 76 77  1  0  0  0  0
 77 78  2  0  0  0  0
 77 79  1  0  0  0  0
 77 80  2  0  0  0  0
 76 81  4  0  0  0  0
 73 82  4  0  0  0  0
 81 82  4  0  0  0  0
 72 83  4  0  0  0  0
 83 84  4  0  0  0  0
 84 85  2  0  0  0  0
 65 86  1  0  0  0  0
 83 86  4  0  0  0  0
 85 87  4  0  0  0  0
 86 87  4  0  0  0  0
 87 88  4  0  0  0  0
 88 89  4  0  0  0  0
 89 90  4  0  0  0  0
 90 91  2  0  0  0  0
 91 92  4  0  0  0  0
 65 93  1  0  0  0  0
 89 93  4  0  0  0  0
 92 93  4  0  0  0  0
 92 94  4  0  0  0  0
 94 95  1  0  0  0  0
 95 96  4  0  0  0  0
 96 97  4  0  0  0  0
 97 98  4  0  0  0  0
 98 99  1  0  0  0  0
 99100  2  0  0  0  0
 99101  1  0  0  0  0
 99102  2  0  0  0  0
 98103  4  0  0  0  0
 95104  4  0  0  0  0
103104  4  0  0  0  0
 94105  4  0  0  0  0
105106  4  0  0  0  0
106107  2  0  0  0  0
 66108  4  0  0  0  0
107108  1  0  0  0  0
 65109  1  0  0  0  0
105109  4  0  0  0  0
108109  4  0  0  0  0
 66110  1  0  0  0  0
 68111  1  0  0  0  0
 69112  1  0  0  0  0
 74113  1  0  0  0  0
 75114  1  0  0  0  0
 79115  1  0  0  0  0
 81116  1  0  0  0  0
 82117  1  0  0  0  0
 84118  1  0  0  0  0
 85119  1  0  0  0  0
 90120  1  0  0  0  0
 91121  1  0  0  0  0
 96122  1  0  0  0  0
 97123  1  0  0  0  0
101124  1  0  0  0  0
103125  1  0  0  0  0
104126  1  0  0  0  0
106127  1  0  0  0  0
107128  1  0  0  0  0
 24129  4  0  0  0  0
129130  3  0  0  0  0
130131  4  0  0  0  0
131132  3  0  0  0  0
132133  4  0  0  0  0
133134  3  0  0  0  0
134135  4  0  0  0  0
135136  3  0  0  0  0
137138  3  0  0  0  0
138139  4  0  0  0  0
139140  3  0  0  0  0
140141  4  0  0  0  0
141142  3  0  0  0  0
142143  4  0  0  0  0
143144  3  0  0  0  0
145146  3  0  0  0  0
146147  4  0  0  0  0
147148  3  0  0  0  0
148149  4  0  0  0  0
149150  3  0  0  0  0
150151  4  0  0  0  0
 88152  4  0  0  0  0
151152  3  0  0  0  0
136154  4  0  0  0  0
154155  4  0  0  0  0
155156  4  0  0  0  0
156157  2  0  0  0  0
157158  4  0  0  0  0
153159  1  0  0  0  0
155159  4  0  0  0  0
158159  4  0  0  0  0
158160  4  0  0  0  0
160161  1  0  0  0  0
161162  4  0  0  0  0
162163  4  0  0  0  0
163164  4  0  0  0  0
164165  1  0  0  0  0
165166  2  0  0  0  0
165167  1  0  0  0  0
165168  2  0  0  0  0
164169  4  0  0  0  0
161170  4  0  0  0  0
169170  4  0  0  0  0
160171  4  0  0  0  0
171172  4  0  0  0  0
172173  2  0  0  0  0
153174  1  0  0  0  0
171174  4  0  0  0  0
173175  4  0  0  0  0
174175  4  0  0  0  0
137176  4  0  0  0  0
175176  4  0  0  0  0
176177  4  0  0  0  0
177178  4  0  0  0  0
178179  2  0  0  0  0
179180  4  0  0  0  0
153181  1  0  0  0  0
177181  4  0  0  0  0
180181  4  0  0  0  0
180182  4  0  0  0  0
182183  1  0  0  0  0
183184  4  0  0  0  0
184185  4  0  0  0  0
185186  4  0  0  0  0
186187  1  0  0  0  0
187188  2  0  0  0  0
187189  1  0  0  0  0
187190  2  0  0  0  0
186191  4  0  0  0  0
183192  4  0  0  0  0
191192  4  0  0  0  0
182193  4  0  0  0  0
193194  4  0  0  0  0
194195  2  0  0  0  0
154196  4  0  0  0  0
195196  4  0  0  0  0
153197  1  0  0  0  0
193197  4  0  0  0  0
196197  4  0  0  0  0
156198  1  0  0  0  0
157199  1  0  0  0  0
162200  1  0  0  0  0
163201  1  0  0  0  0
167202  1  0  0  0  0
169203  1  0  0  0  0
170204  1  0  0  0  0
172205  1  0  0  0  0
173206  1  0  0  0  0
178207  1  0  0  0  0
179208  1  0  0  0  0
184209  1  0  0  0  0
185210  1  0  0  0  0
189211  1  0  0  0  0
191212  1  0  0  0  0
192213  1  0  0  0  0
194214  1  0  0  0  0
195215  1  0  0  0  0
144217  4  0  0  0  0
217218  4  0  0  0  0
218219  4  0  0  0  0
219220  2  0  0  0  0
220221  4  0  0  0  0
216222  1  0  0  0  0
218222  4  0  0  0  0
221222  4  0  0  0  0
221223  4  0  0  0  0
223224  1  0  0  0  0
224225  4  0  0  0  0
225226  4  0  0  0  0
226227  4  0  0  0  0
227228  1  0  0  0  0
228229  2  0  0  0  0
228230  1  0  0  0  0
228231  2  0  0  0  0
227232  4  0  0  0  0
224233  4  0  0  0  0
232233  4  0  0  0  0
223234  4  0  0  0  0
234235  4  0  0  0  0
235236  2  0  0  0  0
216237  1  0  0  0  0
234237  4  0  0  0  0
236238  4  0  0  0  0
237238  4  0  0  0  0
145239  4  0  0  0  0
238239  4  0  0  0  0
239240  4  0  0  0  0
240241  4  0  0  0  0
241242  2  0  0  0  0
242243  4  0  0  0  0
216244  1  0  0  0  0
240244  4  0  0  0  0
243244  4  0  0  0  0
243245  4  0  0  0  0
245246  1  0  0  0  0
246247  4  0  0  0  0
247248  4  0  0  0  0
248249  4  0  0  0  0
249250  1  0  0  0  0
250251  2  0  0  0  0
250252  1  0  0  0  0
250253  2  0  0  0  0
249254  4  0  0  0  0
246255  4  0  0  0  0
254255  4  0  0  0  0
245256  4  0  0  0  0
256257  4  0  0  0  0
257258  2  0  0  0  0
217259  4  0  0  0  0
258259  4  0  0  0  0
216260  1  0  0  0  0
256260  4  0  0  0  0
259260  4  0  0  0  0
219261  1  0  0  0  0
220262  1  0  0  0  0
225263  1  0  0  0  0
226264  1  0  0  0  0
230265  1  0  0  0  0
232266  1  0  0  0  0
233267  1  0  0  0  0
235268  1  0  0  0  0
236269  1  0  0  0  0
241270  1  0  0  0  0
242271  1  0  0  0  0
247272  1  0  0  0  0
248273  1  0  0  0  0
252274  1  0  0  0  0
254275  1  0  0  0  0
255276  1  0  0  0  0
257277  1  0  0  0  0
258278  1  0  0  0  0
M  END
