 xtb: 6.5.1 (b24c23e)
          07292222453D

191220  0     0  0            999 V2000
   29.5278    0.0093   -0.0194 Co  0  0  0  0  0  0  0  0  0  0  0  0
   26.1560    0.0626   -0.1361 C   0  0  0  0  0  0  0  0  0  0  0  0
   26.8330    1.2593   -0.2283 C   0  0  0  0  0  0  0  0  0  0  0  0
   26.1863    2.5292   -0.3630 C   0  0  0  0  0  0  0  0  0  0  0  0
   27.1454    3.4712   -0.2079 C   0  0  0  0  0  0  0  0  0  0  0  0
   28.3797    2.7750    0.0114 C   0  0  0  0  0  0  0  0  0  0  0  0
   28.1841    1.4190   -0.0473 N   0  0  0  0  0  0  0  0  0  0  0  0
   29.5620    3.3915    0.3993 C   0  0  0  0  0  0  0  0  0  0  0  0
   29.5771    4.8613    0.5866 C   0  0  0  0  0  0  0  0  0  0  0  0
   29.7802    5.4105    1.8554 C   0  0  0  0  0  0  0  0  0  0  0  0
   29.7951    6.7816    2.0260 C   0  0  0  0  0  0  0  0  0  0  0  0
   29.6125    7.6330    0.9313 C   0  0  0  0  0  0  0  0  0  0  0  0
   29.6373    9.0927    1.1387 C   0  0  0  0  0  0  0  0  0  0  0  0
   29.8086    9.6132    2.2110 O   0  0  0  0  0  0  0  0  0  0  0  0
   29.4114    7.0838   -0.3372 C   0  0  0  0  0  0  0  0  0  0  0  0
   29.3915    5.7107   -0.5068 C   0  0  0  0  0  0  0  0  0  0  0  0
   30.7318    2.6777    0.6077 C   0  0  0  0  0  0  0  0  0  0  0  0
   31.9814    3.2781    0.9681 C   0  0  0  0  0  0  0  0  0  0  0  0
   32.9265    2.3156    0.8480 C   0  0  0  0  0  0  0  0  0  0  0  0
   30.9073    1.3438    0.3145 N   0  0  0  0  0  0  0  0  0  0  0  0
   32.2530    1.1324    0.4150 C   0  0  0  0  0  0  0  0  0  0  0  0
   32.9209   -0.0313    0.0239 C   0  0  0  0  0  0  0  0  0  0  0  0
   32.2327   -1.1856   -0.3578 C   0  0  0  0  0  0  0  0  0  0  0  0
   32.8830   -2.3859   -0.7793 C   0  0  0  0  0  0  0  0  0  0  0  0
   31.9198   -3.3327   -0.8833 C   0  0  0  0  0  0  0  0  0  0  0  0
   30.6847   -2.7067   -0.5175 C   0  0  0  0  0  0  0  0  0  0  0  0
   30.8826   -1.3703   -0.2563 N   0  0  0  0  0  0  0  0  0  0  0  0
   29.4844   -3.3842   -0.3627 C   0  0  0  0  0  0  0  0  0  0  0  0
   29.4675   -4.8554   -0.5158 C   0  0  0  0  0  0  0  0  0  0  0  0
   28.6684   -5.4540   -1.4940 C   0  0  0  0  0  0  0  0  0  0  0  0
   28.6581   -6.8291   -1.6456 C   0  0  0  0  0  0  0  0  0  0  0  0
   29.4429   -7.6343   -0.8167 C   0  0  0  0  0  0  0  0  0  0  0  0
   29.4495   -9.1022   -0.9575 C   0  0  0  0  0  0  0  0  0  0  0  0
   30.1068   -9.8375   -0.2664 O   0  0  0  0  0  0  0  0  0  0  0  0
   30.2395   -7.0359    0.1652 C   0  0  0  0  0  0  0  0  0  0  0  0
   30.2544   -5.6623    0.3118 C   0  0  0  0  0  0  0  0  0  0  0  0
   28.2975   -2.7189   -0.0835 C   0  0  0  0  0  0  0  0  0  0  0  0
   27.0363   -3.3711    0.1167 C   0  0  0  0  0  0  0  0  0  0  0  0
   26.0967   -2.3979    0.1664 C   0  0  0  0  0  0  0  0  0  0  0  0
   26.7869   -1.1533    0.0147 C   0  0  0  0  0  0  0  0  0  0  0  0
   28.1410   -1.3568   -0.0770 N   0  0  0  0  0  0  0  0  0  0  0  0
   25.0731    0.0799   -0.1721 H   0  0  0  0  0  0  0  0  0  0  0  0
   25.1295    2.6614   -0.5315 H   0  0  0  0  0  0  0  0  0  0  0  0
   27.0369    4.5436   -0.2172 H   0  0  0  0  0  0  0  0  0  0  0  0
   29.9117    4.7524    2.7068 H   0  0  0  0  0  0  0  0  0  0  0  0
   29.9473    7.2175    3.0076 H   0  0  0  0  0  0  0  0  0  0  0  0
   29.4837    9.6872    0.2128 H   0  0  0  0  0  0  0  0  0  0  0  0
   29.2725    7.7374   -1.1922 H   0  0  0  0  0  0  0  0  0  0  0  0
   29.2475    5.2865   -1.4941 H   0  0  0  0  0  0  0  0  0  0  0  0
   32.1111    4.3100    1.2507 H   0  0  0  0  0  0  0  0  0  0  0  0
   33.9886    2.3878    1.0178 H   0  0  0  0  0  0  0  0  0  0  0  0
   33.9419   -2.4775   -0.9590 H   0  0  0  0  0  0  0  0  0  0  0  0
   32.0246   -4.3632   -1.1808 H   0  0  0  0  0  0  0  0  0  0  0  0
   28.0689   -4.8308   -2.1480 H   0  0  0  0  0  0  0  0  0  0  0  0
   28.0405   -7.2849   -2.4126 H   0  0  0  0  0  0  0  0  0  0  0  0
   28.7893   -9.4855   -1.7648 H   0  0  0  0  0  0  0  0  0  0  0  0
   30.8428   -7.6694    0.8066 H   0  0  0  0  0  0  0  0  0  0  0  0
   30.8643   -5.2021    1.0809 H   0  0  0  0  0  0  0  0  0  0  0  0
   26.9015   -4.4370    0.2035 H   0  0  0  0  0  0  0  0  0  0  0  0
   25.0297   -2.4935    0.2899 H   0  0  0  0  0  0  0  0  0  0  0  0
   61.4369   -0.0294   -0.0631 Co  0  0  0  0  0  0  0  0  0  0  0  0
   64.8114   -0.0651   -0.1839 C   0  0  0  0  0  0  0  0  0  0  0  0
   64.1358   -1.2404   -0.4294 C   0  0  0  0  0  0  0  0  0  0  0  0
   64.7873   -2.4815   -0.7193 C   0  0  0  0  0  0  0  0  0  0  0  0
   63.8298   -3.4372   -0.6937 C   0  0  0  0  0  0  0  0  0  0  0  0
   62.5911   -2.7763   -0.4016 C   0  0  0  0  0  0  0  0  0  0  0  0
   62.7836   -1.4238   -0.2807 N   0  0  0  0  0  0  0  0  0  0  0  0
   61.4031   -3.4399   -0.1276 C   0  0  0  0  0  0  0  0  0  0  0  0
   61.3873   -4.9216   -0.1420 C   0  0  0  0  0  0  0  0  0  0  0  0
   61.1485   -5.6364    1.0350 C   0  0  0  0  0  0  0  0  0  0  0  0
   61.1302   -7.0179    1.0190 C   0  0  0  0  0  0  0  0  0  0  0  0
   61.3457   -7.7146   -0.1746 C   0  0  0  0  0  0  0  0  0  0  0  0
   61.3150   -9.1887   -0.1669 C   0  0  0  0  0  0  0  0  0  0  0  0
   61.1105   -9.8487    0.8194 O   0  0  0  0  0  0  0  0  0  0  0  0
   61.5835   -7.0001   -1.3511 C   0  0  0  0  0  0  0  0  0  0  0  0
   61.6060   -5.6167   -1.3338 C   0  0  0  0  0  0  0  0  0  0  0  0
   60.2257   -2.7619    0.1474 C   0  0  0  0  0  0  0  0  0  0  0  0
   58.9699   -3.4098    0.3820 C   0  0  0  0  0  0  0  0  0  0  0  0
   58.0249   -2.4403    0.3868 C   0  0  0  0  0  0  0  0  0  0  0  0
   60.0532   -1.3993    0.0525 N   0  0  0  0  0  0  0  0  0  0  0  0
   58.7046   -1.2049    0.1566 C   0  0  0  0  0  0  0  0  0  0  0  0
   58.0409    0.0074   -0.0444 C   0  0  0  0  0  0  0  0  0  0  0  0
   58.7307    1.2079   -0.2232 C   0  0  0  0  0  0  0  0  0  0  0  0
   58.0806    2.4609   -0.4433 C   0  0  0  0  0  0  0  0  0  0  0  0
   59.0441    3.4115   -0.3937 C   0  0  0  0  0  0  0  0  0  0  0  0
   60.2794    2.7339   -0.1372 C   0  0  0  0  0  0  0  0  0  0  0  0
   60.0815    1.3730   -0.0930 N   0  0  0  0  0  0  0  0  0  0  0  0
   61.4814    3.3796    0.1113 C   0  0  0  0  0  0  0  0  0  0  0  0
   61.4969    4.8572    0.1882 C   0  0  0  0  0  0  0  0  0  0  0  0
   62.2797    5.6024   -0.6982 C   0  0  0  0  0  0  0  0  0  0  0  0
   62.2888    6.9843   -0.6334 C   0  0  0  0  0  0  0  0  0  0  0  0
   61.5189    7.6489    0.3243 C   0  0  0  0  0  0  0  0  0  0  0  0
   61.5117    9.1207    0.4146 C   0  0  0  0  0  0  0  0  0  0  0  0
   60.8674    9.7384    1.2234 O   0  0  0  0  0  0  0  0  0  0  0  0
   60.7382    6.9033    1.2138 C   0  0  0  0  0  0  0  0  0  0  0  0
   60.7247    5.5236    1.1445 C   0  0  0  0  0  0  0  0  0  0  0  0
   62.6702    2.6809    0.2731 C   0  0  0  0  0  0  0  0  0  0  0  0
   63.9337    3.2985    0.5527 C   0  0  0  0  0  0  0  0  0  0  0  0
   64.8731    2.3295    0.4510 C   0  0  0  0  0  0  0  0  0  0  0  0
   64.1805    1.1190    0.1299 C   0  0  0  0  0  0  0  0  0  0  0  0
   62.8258    1.3322    0.0790 N   0  0  0  0  0  0  0  0  0  0  0  0
   65.8942   -0.0766   -0.2230 H   0  0  0  0  0  0  0  0  0  0  0  0
   65.8461   -2.5892   -0.8931 H   0  0  0  0  0  0  0  0  0  0  0  0
   63.9416   -4.4995   -0.8378 H   0  0  0  0  0  0  0  0  0  0  0  0
   60.9910   -5.0985    1.9630 H   0  0  0  0  0  0  0  0  0  0  0  0
   60.9496   -7.5814    1.9281 H   0  0  0  0  0  0  0  0  0  0  0  0
   61.4975   -9.6535   -1.1594 H   0  0  0  0  0  0  0  0  0  0  0  0
   61.7482   -7.5330   -2.2819 H   0  0  0  0  0  0  0  0  0  0  0  0
   61.7776   -5.0639   -2.2505 H   0  0  0  0  0  0  0  0  0  0  0  0
   58.8369   -4.4726    0.5009 H   0  0  0  0  0  0  0  0  0  0  0  0
   56.9594   -2.5370    0.5186 H   0  0  0  0  0  0  0  0  0  0  0  0
   57.0215    2.5806   -0.6048 H   0  0  0  0  0  0  0  0  0  0  0  0
   58.9398    4.4766   -0.5202 H   0  0  0  0  0  0  0  0  0  0  0  0
   62.8673    5.0899   -1.4515 H   0  0  0  0  0  0  0  0  0  0  0  0
   62.8934    7.5553   -1.3304 H   0  0  0  0  0  0  0  0  0  0  0  0
   62.1581    9.6263   -0.3345 H   0  0  0  0  0  0  0  0  0  0  0  0
   60.1464    7.4278    1.9563 H   0  0  0  0  0  0  0  0  0  0  0  0
   60.1271    4.9478    1.8421 H   0  0  0  0  0  0  0  0  0  0  0  0
   64.0698    4.3408    0.7916 H   0  0  0  0  0  0  0  0  0  0  0  0
   65.9413    2.4069    0.5766 H   0  0  0  0  0  0  0  0  0  0  0  0
   38.1193   -0.0520   -0.0061 C   0  0  0  0  0  0  0  0  0  0  0  0
   36.8900   -0.0522    0.0012 C   0  0  0  0  0  0  0  0  0  0  0  0
   35.5474   -0.0481    0.0100 C   0  0  0  0  0  0  0  0  0  0  0  0
   34.3229   -0.0413    0.0183 C   0  0  0  0  0  0  0  0  0  0  0  0
   39.4615   -0.0499   -0.0107 C   0  0  0  0  0  0  0  0  0  0  0  0
   40.6865   -0.0453   -0.0116 C   0  0  0  0  0  0  0  0  0  0  0  0
   54.0698    0.0299   -0.0655 C   0  0  0  0  0  0  0  0  0  0  0  0
   52.8409    0.0306   -0.0619 C   0  0  0  0  0  0  0  0  0  0  0  0
   51.4977    0.0229   -0.0580 C   0  0  0  0  0  0  0  0  0  0  0  0
   50.2733    0.0165   -0.0507 C   0  0  0  0  0  0  0  0  0  0  0  0
   55.4134    0.0261   -0.0622 C   0  0  0  0  0  0  0  0  0  0  0  0
   56.6374    0.0194   -0.0549 C   0  0  0  0  0  0  0  0  0  0  0  0
   45.4793   -0.0128   -0.0355 Co  0  0  0  0  0  0  0  0  0  0  0  0
   42.0869   -0.0389   -0.0088 C   0  0  0  0  0  0  0  0  0  0  0  0
   42.7628    1.1840    0.0581 C   0  0  0  0  0  0  0  0  0  0  0  0
   42.1077    2.4527    0.0837 C   0  0  0  0  0  0  0  0  0  0  0  0
   43.0575    3.3736    0.3804 C   0  0  0  0  0  0  0  0  0  0  0  0
   44.2870    2.6591    0.5427 C   0  0  0  0  0  0  0  0  0  0  0  0
   44.1037    1.3227    0.2772 N   0  0  0  0  0  0  0  0  0  0  0  0
   45.4620    3.2165    1.0295 C   0  0  0  0  0  0  0  0  0  0  0  0
   45.4523    4.6242    1.4825 C   0  0  0  0  0  0  0  0  0  0  0  0
   46.3010    5.5648    0.8909 C   0  0  0  0  0  0  0  0  0  0  0  0
   46.2851    6.8803    1.3123 C   0  0  0  0  0  0  0  0  0  0  0  0
   45.4267    7.2839    2.3401 C   0  0  0  0  0  0  0  0  0  0  0  0
   45.4315    8.6938    2.7737 C   0  0  0  0  0  0  0  0  0  0  0  0
   46.1357    9.5399    2.2864 O   0  0  0  0  0  0  0  0  0  0  0  0
   44.5812    6.3443    2.9344 C   0  0  0  0  0  0  0  0  0  0  0  0
   44.5912    5.0288    2.5063 C   0  0  0  0  0  0  0  0  0  0  0  0
   46.6456    2.4938    1.0964 C   0  0  0  0  0  0  0  0  0  0  0  0
   47.8746    3.0019    1.6267 C   0  0  0  0  0  0  0  0  0  0  0  0
   48.8360    2.0986    1.3157 C   0  0  0  0  0  0  0  0  0  0  0  0
   46.8403    1.2504    0.5416 N   0  0  0  0  0  0  0  0  0  0  0  0
   48.1881    1.0379    0.6118 C   0  0  0  0  0  0  0  0  0  0  0  0
   48.8718    0.0053   -0.0371 C   0  0  0  0  0  0  0  0  0  0  0  0
   48.1927   -1.0427   -0.6665 C   0  0  0  0  0  0  0  0  0  0  0  0
   48.8430   -2.0986   -1.3745 C   0  0  0  0  0  0  0  0  0  0  0  0
   47.8927   -3.0272   -1.6448 C   0  0  0  0  0  0  0  0  0  0  0  0
   46.6679   -2.5359   -1.0907 C   0  0  0  0  0  0  0  0  0  0  0  0
   46.8533   -1.2856   -0.5507 N   0  0  0  0  0  0  0  0  0  0  0  0
   45.4962   -3.2756   -0.9932 C   0  0  0  0  0  0  0  0  0  0  0  0
   45.5039   -4.6903   -1.4233 C   0  0  0  0  0  0  0  0  0  0  0  0
   46.3799   -5.6038   -0.8301 C   0  0  0  0  0  0  0  0  0  0  0  0
   46.3860   -6.9286   -1.2285 C   0  0  0  0  0  0  0  0  0  0  0  0
   45.5211   -7.3647   -2.2349 C   0  0  0  0  0  0  0  0  0  0  0  0
   45.5104   -8.7705   -2.6813 C   0  0  0  0  0  0  0  0  0  0  0  0
   44.7870   -9.1907   -3.5470 O   0  0  0  0  0  0  0  0  0  0  0  0
   44.6477   -6.4499   -2.8320 C   0  0  0  0  0  0  0  0  0  0  0  0
   44.6364   -5.1288   -2.4286 C   0  0  0  0  0  0  0  0  0  0  0  0
   44.3172   -2.7236   -0.5114 C   0  0  0  0  0  0  0  0  0  0  0  0
   43.0929   -3.4473   -0.3466 C   0  0  0  0  0  0  0  0  0  0  0  0
   42.1314   -2.5304   -0.0784 C   0  0  0  0  0  0  0  0  0  0  0  0
   42.7750   -1.2554   -0.0650 C   0  0  0  0  0  0  0  0  0  0  0  0
   44.1205   -1.3854   -0.2601 N   0  0  0  0  0  0  0  0  0  0  0  0
   41.0550    2.6022   -0.0944 H   0  0  0  0  0  0  0  0  0  0  0  0
   42.9458    4.4408    0.4823 H   0  0  0  0  0  0  0  0  0  0  0  0
   46.9587    5.2574    0.0857 H   0  0  0  0  0  0  0  0  0  0  0  0
   46.9350    7.6180    0.8540 H   0  0  0  0  0  0  0  0  0  0  0  0
   44.7230    8.9197    3.5987 H   0  0  0  0  0  0  0  0  0  0  0  0
   43.9145    6.6484    3.7347 H   0  0  0  0  0  0  0  0  0  0  0  0
   43.9418    4.2990    2.9766 H   0  0  0  0  0  0  0  0  0  0  0  0
   47.9783    3.9321    2.1610 H   0  0  0  0  0  0  0  0  0  0  0  0
   49.8920    2.1363    1.5293 H   0  0  0  0  0  0  0  0  0  0  0  0
   49.8931   -2.1170   -1.6179 H   0  0  0  0  0  0  0  0  0  0  0  0
   48.0014   -3.9619   -2.1704 H   0  0  0  0  0  0  0  0  0  0  0  0
   47.0439   -5.2706   -0.0404 H   0  0  0  0  0  0  0  0  0  0  0  0
   47.0646   -7.6326   -0.7579 H   0  0  0  0  0  0  0  0  0  0  0  0
   46.2339   -9.4238   -2.1489 H   0  0  0  0  0  0  0  0  0  0  0  0
   43.9825   -6.7968   -3.6154 H   0  0  0  0  0  0  0  0  0  0  0  0
   43.9673   -4.4193   -2.9020 H   0  0  0  0  0  0  0  0  0  0  0  0
   42.9918   -4.5168   -0.4320 H   0  0  0  0  0  0  0  0  0  0  0  0
   41.0780   -2.6864    0.0893 H   0  0  0  0  0  0  0  0  0  0  0  0
  2  3  4  0  0  0  0
  3  4  1  0  0  0  0
  4  5  2  0  0  0  0
  5  6  4  0  0  0  0
  1  7  1  0  0  0  0
  3  7  4  0  0  0  0
  6  7  4  0  0  0  0
  6  8  4  0  0  0  0
  8  9  1  0  0  0  0
  9 10  4  0  0  0  0
 10 11  4  0  0  0  0
 11 12  4  0  0  0  0
 12 13  1  0  0  0  0
 13 14  2  0  0  0  0
 12 15  4  0  0  0  0
  9 16  4  0  0  0  0
 15 16  4  0  0  0  0
  8 17  4  0  0  0  0
 17 18  4  0  0  0  0
 18 19  2  0  0  0  0
  1 20  1  0  0  0  0
 17 20  4  0  0  0  0
 19 21  4  0  0  0  0
 20 21  4  0  0  0  0
 21 22  4  0  0  0  0
 22 23  4  0  0  0  0
 23 24  4  0  0  0  0
 24 25  2  0  0  0  0
 25 26  4  0  0  0  0
  1 27  1  0  0  0  0
 23 27  4  0  0  0  0
 26 27  4  0  0  0  0
 26 28  4  0  0  0  0
 28 29  1  0  0  0  0
 29 30  4  0  0  0  0
 30 31  4  0  0  0  0
 31 32  4  0  0  0  0
 32 33  1  0  0  0  0
 33 34  2  0  0  0  0
 32 35  4  0  0  0  0
 29 36  4  0  0  0  0
 35 36  4  0  0  0  0
 28 37  4  0  0  0  0
 37 38  4  0  0  0  0
 38 39  2  0  0  0  0
  2 40  4  0  0  0  0
 39 40  1  0  0  0  0
  1 41  1  0  0  0  0
 37 41  4  0  0  0  0
 40 41  4  0  0  0  0
  2 42  1  0  0  0  0
  4 43  1  0  0  0  0
  5 44  1  0  0  0  0
 10 45  1  0  0  0  0
 11 46  1  0  0  0  0
 13 47  1  0  0  0  0
 15 48  1  0  0  0  0
 16 49  1  0  0  0  0
 18 50  1  0  0  0  0
 19 51  1  0  0  0  0
 24 52  1  0  0  0  0
 25 53  1  0  0  0  0
 30 54  1  0  0  0  0
 31 55  1  0  0  0  0
 33 56  1  0  0  0  0
 35 57  1  0  0  0  0
 36 58  1  0  0  0  0
 38 59  1  0  0  0  0
 39 60  1  0  0  0  0
 62 63  4  0  0  0  0
 63 64  1  0  0  0  0
 64 65  2  0  0  0  0
 65 66  4  0  0  0  0
 61 67  1  0  0  0  0
 63 67  4  0  0  0  0
 66 67  4  0  0  0  0
 66 68  4  0  0  0  0
 68 69  1  0  0  0  0
 69 70  4  0  0  0  0
 70 71  4  0  0  0  0
 71 72  4  0  0  0  0
 72 73  1  0  0  0  0
 73 74  2  0  0  0  0
 72 75  4  0  0  0  0
 69 76  4  0  0  0  0
 75 76  4  0  0  0  0
 68 77  4  0  0  0  0
 77 78  4  0  0  0  0
 78 79  2  0  0  0  0
 61 80  1  0  0  0  0
 77 80  4  0  0  0  0
 79 81  4  0  0  0  0
 80 81  4  0  0  0  0
 81 82  4  0  0  0  0
 82 83  4  0  0  0  0
 83 84  4  0  0  0  0
 84 85  2  0  0  0  0
 85 86  4  0  0  0  0
 61 87  1  0  0  0  0
 83 87  4  0  0  0  0
 86 87  4  0  0  0  0
 86 88  4  0  0  0  0
 88 89  1  0  0  0  0
 89 90  4  0  0  0  0
 90 91  4  0  0  0  0
 91 92  4  0  0  0  0
 92 93  1  0  0  0  0
 93 94  2  0  0  0  0
 92 95  4  0  0  0  0
 89 96  4  0  0  0  0
 95 96  4  0  0  0  0
 88 97  4  0  0  0  0
 97 98  4  0  0  0  0
 98 99  2  0  0  0  0
 62100  4  0  0  0  0
 99100  1  0  0  0  0
 61101  1  0  0  0  0
 97101  4  0  0  0  0
100101  4  0  0  0  0
 62102  1  0  0  0  0
 64103  1  0  0  0  0
 65104  1  0  0  0  0
 70105  1  0  0  0  0
 71106  1  0  0  0  0
 73107  1  0  0  0  0
 75108  1  0  0  0  0
 76109  1  0  0  0  0
 78110  1  0  0  0  0
 79111  1  0  0  0  0
 84112  1  0  0  0  0
 85113  1  0  0  0  0
 90114  1  0  0  0  0
 91115  1  0  0  0  0
 93116  1  0  0  0  0
 95117  1  0  0  0  0
 96118  1  0  0  0  0
 98119  1  0  0  0  0
 99120  1  0  0  0  0
121122  3  0  0  0  0
122123  4  0  0  0  0
 22124  4  0  0  0  0
123124  3  0  0  0  0
121125  4  0  0  0  0
125126  3  0  0  0  0
127128  3  0  0  0  0
128129  4  0  0  0  0
129130  3  0  0  0  0
127131  4  0  0  0  0
 82132  4  0  0  0  0
131132  3  0  0  0  0
126134  4  0  0  0  0
134135  4  0  0  0  0
135136  4  0  0  0  0
136137  2  0  0  0  0
137138  4  0  0  0  0
133139  1  0  0  0  0
135139  4  0  0  0  0
138139  4  0  0  0  0
138140  4  0  0  0  0
140141  1  0  0  0  0
141142  4  0  0  0  0
142143  4  0  0  0  0
143144  4  0  0  0  0
144145  1  0  0  0  0
145146  2  0  0  0  0
144147  4  0  0  0  0
141148  4  0  0  0  0
147148  4  0  0  0  0
140149  4  0  0  0  0
149150  4  0  0  0  0
150151  2  0  0  0  0
133152  1  0  0  0  0
149152  4  0  0  0  0
151153  4  0  0  0  0
152153  4  0  0  0  0
130154  4  0  0  0  0
153154  4  0  0  0  0
154155  4  0  0  0  0
155156  4  0  0  0  0
156157  2  0  0  0  0
157158  4  0  0  0  0
133159  1  0  0  0  0
155159  4  0  0  0  0
158159  4  0  0  0  0
158160  4  0  0  0  0
160161  1  0  0  0  0
161162  4  0  0  0  0
162163  4  0  0  0  0
163164  4  0  0  0  0
164165  1  0  0  0  0
165166  2  0  0  0  0
164167  4  0  0  0  0
161168  4  0  0  0  0
167168  4  0  0  0  0
160169  4  0  0  0  0
169170  4  0  0  0  0
170171  2  0  0  0  0
134172  4  0  0  0  0
171172  4  0  0  0  0
133173  1  0  0  0  0
169173  4  0  0  0  0
172173  4  0  0  0  0
136174  1  0  0  0  0
137175  1  0  0  0  0
142176  1  0  0  0  0
143177  1  0  0  0  0
145178  1  0  0  0  0
147179  1  0  0  0  0
148180  1  0  0  0  0
150181  1  0  0  0  0
151182  1  0  0  0  0
156183  1  0  0  0  0
157184  1  0  0  0  0
162185  1  0  0  0  0
163186  1  0  0  0  0
165187  1  0  0  0  0
167188  1  0  0  0  0
168189  1  0  0  0  0
170190  1  0  0  0  0
171191  1  0  0  0  0
M  END
