 xtb: 6.5.1 (b24c23e)
          07282216103D

420468  0     0  0            999 V2000
  106.0609   -0.0100   -0.0646 C   0  0  0  0  0  0  0  0  0  0  0  0
  106.6708    0.7384   -1.0648 C   0  0  0  0  0  0  0  0  0  0  0  0
  106.0294    1.5054   -2.0760 C   0  0  0  0  0  0  0  0  0  0  0  0
  107.0020    2.0790   -2.8484 C   0  0  0  0  0  0  0  0  0  0  0  0
  108.2630    1.6775   -2.3314 C   0  0  0  0  0  0  0  0  0  0  0  0
  108.0178    0.8732   -1.2601 N   0  0  0  0  0  0  0  0  0  0  0  0
  109.5335    2.0326   -2.8188 C   0  0  0  0  0  0  0  0  0  0  0  0
  109.5613    2.8870   -3.9434 C   0  0  0  0  0  0  0  0  0  0  0  0
  109.5808    3.6244   -4.9069 C   0  0  0  0  0  0  0  0  0  0  0  0
  109.6116    4.4856   -6.0273 C   0  0  0  0  0  0  0  0  0  0  0  0
  108.4319    4.9140   -6.6474 C   0  0  0  0  0  0  0  0  0  0  0  0
  108.5176    5.7588   -7.7396 C   0  0  0  0  0  0  0  0  0  0  0  0
  109.6739    6.1907   -8.2364 N   0  0  0  0  0  0  0  0  0  0  0  0
  110.7998    5.7882   -7.6526 C   0  0  0  0  0  0  0  0  0  0  0  0
  110.8237    4.9440   -6.5568 C   0  0  0  0  0  0  0  0  0  0  0  0
  110.7602    1.6131   -2.2787 C   0  0  0  0  0  0  0  0  0  0  0  0
  112.0442    2.0109   -2.8212 C   0  0  0  0  0  0  0  0  0  0  0  0
  112.9813    1.4246   -2.0469 C   0  0  0  0  0  0  0  0  0  0  0  0
  110.9297    0.8054   -1.2037 N   0  0  0  0  0  0  0  0  0  0  0  0
  112.2651    0.6714   -1.0357 C   0  0  0  0  0  0  0  0  0  0  0  0
  112.9105   -0.0635   -0.0244 C   0  0  0  0  0  0  0  0  0  0  0  0
  112.2758   -0.7961    0.9966 C   0  0  0  0  0  0  0  0  0  0  0  0
  112.9091   -1.5564    2.0137 C   0  0  0  0  0  0  0  0  0  0  0  0
  111.9318   -2.1279    2.7832 C   0  0  0  0  0  0  0  0  0  0  0  0
  110.6757   -1.7332    2.2540 C   0  0  0  0  0  0  0  0  0  0  0  0
  110.9299   -0.9293    1.1798 N   0  0  0  0  0  0  0  0  0  0  0  0
  109.4064   -2.1019    2.7337 C   0  0  0  0  0  0  0  0  0  0  0  0
  109.3788   -2.9562    3.8571 C   0  0  0  0  0  0  0  0  0  0  0  0
  109.3583   -3.6959    4.8192 C   0  0  0  0  0  0  0  0  0  0  0  0
  109.3315   -4.5607    5.9366 C   0  0  0  0  0  0  0  0  0  0  0  0
  110.5147   -5.0159    6.5306 C   0  0  0  0  0  0  0  0  0  0  0  0
  110.4343   -5.8632    7.6212 C   0  0  0  0  0  0  0  0  0  0  0  0
  109.2797   -6.2724    8.1410 N   0  0  0  0  0  0  0  0  0  0  0  0
  108.1505   -5.8437    7.5825 C   0  0  0  0  0  0  0  0  0  0  0  0
  108.1213   -4.9955    6.4900 C   0  0  0  0  0  0  0  0  0  0  0  0
  108.1785   -1.6935    2.1828 C   0  0  0  0  0  0  0  0  0  0  0  0
  106.8874   -2.0965    2.7127 C   0  0  0  0  0  0  0  0  0  0  0  0
  105.9570   -1.5113    1.9313 C   0  0  0  0  0  0  0  0  0  0  0  0
  106.6829   -0.7544    0.9263 C   0  0  0  0  0  0  0  0  0  0  0  0
  108.0231   -0.8900    1.1119 N   0  0  0  0  0  0  0  0  0  0  0  0
  104.9757   -0.0047   -0.0674 H   0  0  0  0  0  0  0  0  0  0  0  0
  104.9610    1.5994   -2.1875 H   0  0  0  0  0  0  0  0  0  0  0  0
  106.8682    2.7238   -3.7022 H   0  0  0  0  0  0  0  0  0  0  0  0
  108.7335    0.4369   -0.6885 H   0  0  0  0  0  0  0  0  0  0  0  0
  107.4686    4.5868   -6.2749 H   0  0  0  0  0  0  0  0  0  0  0  0
  107.6184    6.1065   -8.2399 H   0  0  0  0  0  0  0  0  0  0  0  0
  111.7252    6.1593   -8.0835 H   0  0  0  0  0  0  0  0  0  0  0  0
  111.7638    4.6409   -6.1120 H   0  0  0  0  0  0  0  0  0  0  0  0
  112.1808    2.6530   -3.6767 H   0  0  0  0  0  0  0  0  0  0  0  0
  114.0547    1.4864   -2.1272 H   0  0  0  0  0  0  0  0  0  0  0  0
  113.9759   -1.6540    2.1327 H   0  0  0  0  0  0  0  0  0  0  0  0
  112.0618   -2.7686    3.6405 H   0  0  0  0  0  0  0  0  0  0  0  0
  110.2177   -0.4999    0.5984 H   0  0  0  0  0  0  0  0  0  0  0  0
  111.4767   -4.7076    6.1391 H   0  0  0  0  0  0  0  0  0  0  0  0
  111.3363   -6.2318    8.1013 H   0  0  0  0  0  0  0  0  0  0  0  0
  107.2267   -6.1967    8.0318 H   0  0  0  0  0  0  0  0  0  0  0  0
  107.1786   -4.6709    6.0663 H   0  0  0  0  0  0  0  0  0  0  0  0
  106.7457   -2.7391    3.5671 H   0  0  0  0  0  0  0  0  0  0  0  0
  104.8820   -1.5670    2.0010 H   0  0  0  0  0  0  0  0  0  0  0  0
  178.7265   -0.1577    0.0398 C   0  0  0  0  0  0  0  0  0  0  0  0
  178.1281   -0.8378    1.0943 C   0  0  0  0  0  0  0  0  0  0  0  0
  178.7809   -1.5325    2.1495 C   0  0  0  0  0  0  0  0  0  0  0  0
  177.8169   -2.0576    2.9660 C   0  0  0  0  0  0  0  0  0  0  0  0
  176.5501   -1.6980    2.4325 C   0  0  0  0  0  0  0  0  0  0  0  0
  176.7833   -0.9652    1.3086 N   0  0  0  0  0  0  0  0  0  0  0  0
  175.2851   -2.0306    2.9491 C   0  0  0  0  0  0  0  0  0  0  0  0
  175.2697   -2.8077    4.1287 C   0  0  0  0  0  0  0  0  0  0  0  0
  175.2585   -3.4761    5.1415 C   0  0  0  0  0  0  0  0  0  0  0  0
  175.2343   -4.2553    6.3206 C   0  0  0  0  0  0  0  0  0  0  0  0
  176.4169   -4.6957    6.9263 C   0  0  0  0  0  0  0  0  0  0  0  0
  176.3363   -5.4581    8.0780 C   0  0  0  0  0  0  0  0  0  0  0  0
  175.1822   -5.7978    8.6464 N   0  0  0  0  0  0  0  0  0  0  0  0
  174.0534   -5.3826    8.0770 C   0  0  0  0  0  0  0  0  0  0  0  0
  174.0245   -4.6171    6.9250 C   0  0  0  0  0  0  0  0  0  0  0  0
  174.0518   -1.6600    2.3888 C   0  0  0  0  0  0  0  0  0  0  0  0
  172.7751   -2.0462    2.9561 C   0  0  0  0  0  0  0  0  0  0  0  0
  171.8279   -1.5180    2.1528 C   0  0  0  0  0  0  0  0  0  0  0  0
  173.8679   -0.9159    1.2708 N   0  0  0  0  0  0  0  0  0  0  0  0
  172.5304   -0.8086    1.1013 C   0  0  0  0  0  0  0  0  0  0  0  0
  171.8715   -0.1261    0.0617 C   0  0  0  0  0  0  0  0  0  0  0  0
  172.4956    0.5625   -0.9964 C   0  0  0  0  0  0  0  0  0  0  0  0
  171.8523    1.2775   -2.0395 C   0  0  0  0  0  0  0  0  0  0  0  0
  172.8214    1.8023   -2.8515 C   0  0  0  0  0  0  0  0  0  0  0  0
  174.0826    1.4243   -2.3227 C   0  0  0  0  0  0  0  0  0  0  0  0
  173.8394    0.6793   -1.2042 N   0  0  0  0  0  0  0  0  0  0  0  0
  175.3461    1.7522   -2.8451 C   0  0  0  0  0  0  0  0  0  0  0  0
  175.3614    2.5273   -4.0248 C   0  0  0  0  0  0  0  0  0  0  0  0
  175.3751    3.1920   -5.0403 C   0  0  0  0  0  0  0  0  0  0  0  0
  175.3974    3.9634   -6.2242 C   0  0  0  0  0  0  0  0  0  0  0  0
  174.2131    4.3868   -6.8391 C   0  0  0  0  0  0  0  0  0  0  0  0
  174.2915    5.1392   -7.9975 C   0  0  0  0  0  0  0  0  0  0  0  0
  175.4448    5.4852   -8.5638 N   0  0  0  0  0  0  0  0  0  0  0  0
  176.5751    5.0871   -7.9851 C   0  0  0  0  0  0  0  0  0  0  0  0
  176.6064    4.3325   -6.8262 C   0  0  0  0  0  0  0  0  0  0  0  0
  176.5808    1.3734   -2.2882 C   0  0  0  0  0  0  0  0  0  0  0  0
  177.8651    1.7360   -2.8621 C   0  0  0  0  0  0  0  0  0  0  0  0
  178.8054    1.2030   -2.0556 C   0  0  0  0  0  0  0  0  0  0  0  0
  178.0923    0.5170   -0.9922 C   0  0  0  0  0  0  0  0  0  0  0  0
  176.7497    0.6424   -1.1686 N   0  0  0  0  0  0  0  0  0  0  0  0
  179.8117   -0.1612    0.0318 H   0  0  0  0  0  0  0  0  0  0  0  0
  179.8505   -1.6140    2.2587 H   0  0  0  0  0  0  0  0  0  0  0  0
  177.9602   -2.6436    3.8597 H   0  0  0  0  0  0  0  0  0  0  0  0
  176.0615   -0.5705    0.7149 H   0  0  0  0  0  0  0  0  0  0  0  0
  177.3786   -4.4422    6.4968 H   0  0  0  0  0  0  0  0  0  0  0  0
  177.2379   -5.8135    8.5687 H   0  0  0  0  0  0  0  0  0  0  0  0
  173.1299   -5.6775    8.5669 H   0  0  0  0  0  0  0  0  0  0  0  0
  173.0823   -4.3005    6.4942 H   0  0  0  0  0  0  0  0  0  0  0  0
  172.6495   -2.6427    3.8455 H   0  0  0  0  0  0  0  0  0  0  0  0
  170.7560   -1.5935    2.2382 H   0  0  0  0  0  0  0  0  0  0  0  0
  170.7847    1.3793   -2.1463 H   0  0  0  0  0  0  0  0  0  0  0  0
  172.6826    2.4012   -3.7371 H   0  0  0  0  0  0  0  0  0  0  0  0
  174.5574    0.2741   -0.6126 H   0  0  0  0  0  0  0  0  0  0  0  0
  173.2520    4.1274   -6.4117 H   0  0  0  0  0  0  0  0  0  0  0  0
  173.3886    5.4807   -8.4956 H   0  0  0  0  0  0  0  0  0  0  0  0
  177.4978    5.3870   -8.4734 H   0  0  0  0  0  0  0  0  0  0  0  0
  177.5497    4.0294   -6.3881 H   0  0  0  0  0  0  0  0  0  0  0  0
  177.9960    2.3193   -3.7597 H   0  0  0  0  0  0  0  0  0  0  0  0
  179.8793    1.2514   -2.1436 H   0  0  0  0  0  0  0  0  0  0  0  0
  114.3205   -0.0763   -0.0202 C   0  0  0  0  0  0  0  0  0  0  0  0
  115.5371   -0.0886   -0.0129 C   0  0  0  0  0  0  0  0  0  0  0  0
  125.2841   -0.1372    0.0055 C   0  0  0  0  0  0  0  0  0  0  0  0
  126.5014   -0.1358    0.0113 C   0  0  0  0  0  0  0  0  0  0  0  0
  136.2710   -0.1418    0.0398 C   0  0  0  0  0  0  0  0  0  0  0  0
  137.4894   -0.1381    0.0441 C   0  0  0  0  0  0  0  0  0  0  0  0
  147.2760   -0.1355    0.0574 C   0  0  0  0  0  0  0  0  0  0  0  0
  148.4947   -0.1329    0.0595 C   0  0  0  0  0  0  0  0  0  0  0  0
  158.2715   -0.1116    0.0688 C   0  0  0  0  0  0  0  0  0  0  0  0
  159.4892   -0.1075    0.0725 C   0  0  0  0  0  0  0  0  0  0  0  0
  169.2448   -0.1197    0.0617 C   0  0  0  0  0  0  0  0  0  0  0  0
  170.4618   -0.1233    0.0661 C   0  0  0  0  0  0  0  0  0  0  0  0
  116.9465   -0.1005   -0.0113 C   0  0  0  0  0  0  0  0  0  0  0  0
  117.5787    0.0061   -1.2651 C   0  0  0  0  0  0  0  0  0  0  0  0
  116.9476    0.1013   -2.5312 C   0  0  0  0  0  0  0  0  0  0  0  0
  117.9279    0.1693   -3.4852 C   0  0  0  0  0  0  0  0  0  0  0  0
  119.1817    0.1151   -2.8245 C   0  0  0  0  0  0  0  0  0  0  0  0
  118.9253    0.0171   -1.4876 N   0  0  0  0  0  0  0  0  0  0  0  0
  120.4518    0.1569   -3.4293 C   0  0  0  0  0  0  0  0  0  0  0  0
  120.4691    0.2639   -4.8381 C   0  0  0  0  0  0  0  0  0  0  0  0
  120.4821    0.3506   -6.0485 C   0  0  0  0  0  0  0  0  0  0  0  0
  120.5051    0.4505   -7.4583 C   0  0  0  0  0  0  0  0  0  0  0  0
  121.7145    0.4954   -8.1620 C   0  0  0  0  0  0  0  0  0  0  0  0
  121.6836    0.5919   -9.5418 C   0  0  0  0  0  0  0  0  0  0  0  0
  120.5534    0.6449  -10.2421 N   0  0  0  0  0  0  0  0  0  0  0  0
  119.3997    0.6028   -9.5806 C   0  0  0  0  0  0  0  0  0  0  0  0
  119.3210    0.5068   -8.2027 C   0  0  0  0  0  0  0  0  0  0  0  0
  121.6862    0.1024   -2.7638 C   0  0  0  0  0  0  0  0  0  0  0  0
  122.9600    0.1723   -3.4525 C   0  0  0  0  0  0  0  0  0  0  0  0
  123.9116    0.0926   -2.4989 C   0  0  0  0  0  0  0  0  0  0  0  0
  121.8762   -0.0178   -1.4272 N   0  0  0  0  0  0  0  0  0  0  0  0
  123.2149   -0.0306   -1.2340 C   0  0  0  0  0  0  0  0  0  0  0  0
  123.8755   -0.1356    0.0041 C   0  0  0  0  0  0  0  0  0  0  0  0
  123.2418   -0.2393    1.2582 C   0  0  0  0  0  0  0  0  0  0  0  0
  123.8713   -0.3670    2.5221 C   0  0  0  0  0  0  0  0  0  0  0  0
  122.8905   -0.4427    3.4750 C   0  0  0  0  0  0  0  0  0  0  0  0
  121.6374   -0.3675    2.8153 C   0  0  0  0  0  0  0  0  0  0  0  0
  121.8952   -0.2471    1.4801 N   0  0  0  0  0  0  0  0  0  0  0  0
  120.3678   -0.4067    3.4208 C   0  0  0  0  0  0  0  0  0  0  0  0
  120.3504   -0.5155    4.8293 C   0  0  0  0  0  0  0  0  0  0  0  0
  120.3366   -0.6040    6.0396 C   0  0  0  0  0  0  0  0  0  0  0  0
  120.3114   -0.7039    7.4493 C   0  0  0  0  0  0  0  0  0  0  0  0
  119.1016   -0.7100    8.1538 C   0  0  0  0  0  0  0  0  0  0  0  0
  119.1302   -0.8075    9.5335 C   0  0  0  0  0  0  0  0  0  0  0  0
  120.2585   -0.8973   10.2332 N   0  0  0  0  0  0  0  0  0  0  0  0
  121.4125   -0.8926    9.5710 C   0  0  0  0  0  0  0  0  0  0  0  0
  121.4935   -0.7985    8.1930 C   0  0  0  0  0  0  0  0  0  0  0  0
  119.1327   -0.3447    2.7563 C   0  0  0  0  0  0  0  0  0  0  0  0
  117.8585   -0.3851    3.4468 C   0  0  0  0  0  0  0  0  0  0  0  0
  116.9071   -0.3034    2.4930 C   0  0  0  0  0  0  0  0  0  0  0  0
  117.6050   -0.2152    1.2258 C   0  0  0  0  0  0  0  0  0  0  0  0
  118.9440   -0.2416    1.4187 N   0  0  0  0  0  0  0  0  0  0  0  0
  115.8812    0.1105   -2.6868 H   0  0  0  0  0  0  0  0  0  0  0  0
  117.8002    0.2481   -4.5528 H   0  0  0  0  0  0  0  0  0  0  0  0
  119.6321   -0.0441   -0.7623 H   0  0  0  0  0  0  0  0  0  0  0  0
  122.6578    0.4548   -7.6309 H   0  0  0  0  0  0  0  0  0  0  0  0
  122.6067    0.6286  -10.1132 H   0  0  0  0  0  0  0  0  0  0  0  0
  118.4970    0.6481  -10.1831 H   0  0  0  0  0  0  0  0  0  0  0  0
  118.3597    0.4752   -7.7041 H   0  0  0  0  0  0  0  0  0  0  0  0
  123.0809    0.2729   -4.5192 H   0  0  0  0  0  0  0  0  0  0  0  0
  124.9830    0.1192   -2.6145 H   0  0  0  0  0  0  0  0  0  0  0  0
  124.9371   -0.4018    2.6770 H   0  0  0  0  0  0  0  0  0  0  0  0
  123.0177   -0.5446    4.5406 H   0  0  0  0  0  0  0  0  0  0  0  0
  121.1891   -0.1759    0.7549 H   0  0  0  0  0  0  0  0  0  0  0  0
  118.1598   -0.6385    7.6233 H   0  0  0  0  0  0  0  0  0  0  0  0
  118.2068   -0.8139   10.1055 H   0  0  0  0  0  0  0  0  0  0  0  0
  122.3137   -0.9672   10.1729 H   0  0  0  0  0  0  0  0  0  0  0  0
  122.4551   -0.7980    7.6939 H   0  0  0  0  0  0  0  0  0  0  0  0
  117.7372   -0.4632    4.5154 H   0  0  0  0  0  0  0  0  0  0  0  0
  115.8354   -0.2951    2.6104 H   0  0  0  0  0  0  0  0  0  0  0  0
  127.9098   -0.1368    0.0138 C   0  0  0  0  0  0  0  0  0  0  0  0
  128.5459   -0.5759   -1.1642 C   0  0  0  0  0  0  0  0  0  0  0  0
  127.9208   -1.0345   -2.3509 C   0  0  0  0  0  0  0  0  0  0  0  0
  128.9053   -1.3811   -3.2377 C   0  0  0  0  0  0  0  0  0  0  0  0
  130.1560   -1.1468   -2.6118 C   0  0  0  0  0  0  0  0  0  0  0  0
  129.8935   -0.6590   -1.3643 N   0  0  0  0  0  0  0  0  0  0  0  0
  131.4275   -1.3918   -3.1635 C   0  0  0  0  0  0  0  0  0  0  0  0
  131.4442   -1.9056   -4.4799 C   0  0  0  0  0  0  0  0  0  0  0  0
  131.4530   -2.3390   -5.6133 C   0  0  0  0  0  0  0  0  0  0  0  0
  131.4677   -2.8433   -6.9338 C   0  0  0  0  0  0  0  0  0  0  0  0
  132.6714   -3.1295   -7.5885 C   0  0  0  0  0  0  0  0  0  0  0  0
  132.6307   -3.6197   -8.8816 C   0  0  0  0  0  0  0  0  0  0  0  0
  131.4961   -3.8355   -9.5424 N   0  0  0  0  0  0  0  0  0  0  0  0
  130.3476   -3.5659   -8.9270 C   0  0  0  0  0  0  0  0  0  0  0  0
  130.2787   -3.0732   -7.6361 C   0  0  0  0  0  0  0  0  0  0  0  0
  132.6621   -1.1788   -2.5314 C   0  0  0  0  0  0  0  0  0  0  0  0
  133.9319   -1.4939   -3.1553 C   0  0  0  0  0  0  0  0  0  0  0  0
  134.8865   -1.1536   -2.2643 C   0  0  0  0  0  0  0  0  0  0  0  0
  132.8580   -0.6637   -1.2926 N   0  0  0  0  0  0  0  0  0  0  0  0
  134.1969   -0.6266   -1.1043 C   0  0  0  0  0  0  0  0  0  0  0  0
  134.8630   -0.1430    0.0385 C   0  0  0  0  0  0  0  0  0  0  0  0
  134.2239    0.3465    1.1962 C   0  0  0  0  0  0  0  0  0  0  0  0
  134.8456    0.8628    2.3603 C   0  0  0  0  0  0  0  0  0  0  0  0
  133.8607    1.2057    3.2478 C   0  0  0  0  0  0  0  0  0  0  0  0
  132.6115    0.9128    2.6443 C   0  0  0  0  0  0  0  0  0  0  0  0
  132.8762    0.4007    1.4066 N   0  0  0  0  0  0  0  0  0  0  0  0
  131.3409    1.1134    3.2152 C   0  0  0  0  0  0  0  0  0  0  0  0
  131.3252    1.6288    4.5308 C   0  0  0  0  0  0  0  0  0  0  0  0
  131.3160    2.0635    5.6639 C   0  0  0  0  0  0  0  0  0  0  0  0
  131.2996    2.5679    6.9842 C   0  0  0  0  0  0  0  0  0  0  0  0
  130.0945    2.8439    7.6409 C   0  0  0  0  0  0  0  0  0  0  0  0
  130.1333    3.3340    8.9341 C   0  0  0  0  0  0  0  0  0  0  0  0
  131.2671    3.5584    9.5933 N   0  0  0  0  0  0  0  0  0  0  0  0
  132.4169    3.2984    8.9761 C   0  0  0  0  0  0  0  0  0  0  0  0
  132.4877    2.8073    7.6847 C   0  0  0  0  0  0  0  0  0  0  0  0
  130.1050    0.8548    2.6026 C   0  0  0  0  0  0  0  0  0  0  0  0
  128.8331    1.1062    3.2514 C   0  0  0  0  0  0  0  0  0  0  0  0
  127.8786    0.7609    2.3619 C   0  0  0  0  0  0  0  0  0  0  0  0
  128.5719    0.2967    1.1771 C   0  0  0  0  0  0  0  0  0  0  0  0
  129.9114    0.3655    1.3539 N   0  0  0  0  0  0  0  0  0  0  0  0
  126.8554   -1.0963   -2.5000 H   0  0  0  0  0  0  0  0  0  0  0  0
  128.7818   -1.7694   -4.2358 H   0  0  0  0  0  0  0  0  0  0  0  0
  130.5958   -0.4000   -0.6794 H   0  0  0  0  0  0  0  0  0  0  0  0
  133.6181   -2.9682   -7.0872 H   0  0  0  0  0  0  0  0  0  0  0  0
  133.5493   -3.8504   -9.4135 H   0  0  0  0  0  0  0  0  0  0  0  0
  129.4410   -3.7535   -9.4951 H   0  0  0  0  0  0  0  0  0  0  0  0
  129.3214   -2.8670   -7.1727 H   0  0  0  0  0  0  0  0  0  0  0  0
  134.0485   -1.9209   -4.1385 H   0  0  0  0  0  0  0  0  0  0  0  0
  135.9558   -1.2490   -2.3569 H   0  0  0  0  0  0  0  0  0  0  0  0
  135.9094    0.9635    2.4957 H   0  0  0  0  0  0  0  0  0  0  0  0
  133.9830    1.6274    4.2324 H   0  0  0  0  0  0  0  0  0  0  0  0
  132.1750    0.1024    0.7367 H   0  0  0  0  0  0  0  0  0  0  0  0
  129.1484    2.6752    7.1409 H   0  0  0  0  0  0  0  0  0  0  0  0
  129.2138    3.5572    9.4673 H   0  0  0  0  0  0  0  0  0  0  0  0
  133.3227    3.4928    9.5430 H   0  0  0  0  0  0  0  0  0  0  0  0
  133.4459    2.6091    7.2197 H   0  0  0  0  0  0  0  0  0  0  0  0
  128.7152    1.4978    4.2491 H   0  0  0  0  0  0  0  0  0  0  0  0
  126.8075    0.8137    2.4705 H   0  0  0  0  0  0  0  0  0  0  0  0
  138.8972   -0.1364    0.0438 C   0  0  0  0  0  0  0  0  0  0  0  0
  139.5372   -0.3284   -1.1978 C   0  0  0  0  0  0  0  0  0  0  0  0
  138.9199   -0.4896   -2.4629 C   0  0  0  0  0  0  0  0  0  0  0  0
  139.9070   -0.6896   -3.3912 C   0  0  0  0  0  0  0  0  0  0  0  0
  141.1527   -0.6507   -2.7152 C   0  0  0  0  0  0  0  0  0  0  0  0
  140.8846   -0.4201   -1.3968 N   0  0  0  0  0  0  0  0  0  0  0  0
  142.4220   -0.8497   -3.2902 C   0  0  0  0  0  0  0  0  0  0  0  0
  142.4379   -1.1351   -4.6742 C   0  0  0  0  0  0  0  0  0  0  0  0
  142.4474   -1.3744   -5.8639 C   0  0  0  0  0  0  0  0  0  0  0  0
  142.4653   -1.6503   -7.2501 C   0  0  0  0  0  0  0  0  0  0  0  0
  143.6664   -1.8980   -7.9251 C   0  0  0  0  0  0  0  0  0  0  0  0
  143.6300   -2.1609   -9.2829 C   0  0  0  0  0  0  0  0  0  0  0  0
  142.5019   -2.1906   -9.9880 N   0  0  0  0  0  0  0  0  0  0  0  0
  141.3560   -1.9563   -9.3537 C   0  0  0  0  0  0  0  0  0  0  0  0
  141.2833   -1.6841   -7.9992 C   0  0  0  0  0  0  0  0  0  0  0  0
  143.6559   -0.7900   -2.6246 C   0  0  0  0  0  0  0  0  0  0  0  0
  144.9201   -1.0550   -3.2820 C   0  0  0  0  0  0  0  0  0  0  0  0
  145.8784   -0.8626   -2.3514 C   0  0  0  0  0  0  0  0  0  0  0  0
  143.8583   -0.4566   -1.3262 N   0  0  0  0  0  0  0  0  0  0  0  0
  145.1972   -0.4739   -1.1339 C   0  0  0  0  0  0  0  0  0  0  0  0
  145.8681   -0.1340    0.0572 C   0  0  0  0  0  0  0  0  0  0  0  0
  145.2269    0.2118    1.2649 C   0  0  0  0  0  0  0  0  0  0  0  0
  145.8432    0.5900    2.4832 C   0  0  0  0  0  0  0  0  0  0  0  0
  144.8563    0.7897    3.4115 C   0  0  0  0  0  0  0  0  0  0  0  0
  143.6109    0.5435    2.7803 C   0  0  0  0  0  0  0  0  0  0  0  0
  143.8794    0.2094    1.4841 N   0  0  0  0  0  0  0  0  0  0  0  0
  142.3421    0.5980    3.3873 C   0  0  0  0  0  0  0  0  0  0  0  0
  142.3275    0.8955    4.7688 C   0  0  0  0  0  0  0  0  0  0  0  0
  142.3177    1.1471    5.9560 C   0  0  0  0  0  0  0  0  0  0  0  0
  142.2983    1.4361    7.3395 C   0  0  0  0  0  0  0  0  0  0  0  0
  141.0928    1.5162    8.0466 C   0  0  0  0  0  0  0  0  0  0  0  0
  141.1278    1.7993    9.4003 C   0  0  0  0  0  0  0  0  0  0  0  0
  142.2584    2.0014   10.0723 N   0  0  0  0  0  0  0  0  0  0  0  0
  143.4084    1.9271    9.4074 C   0  0  0  0  0  0  0  0  0  0  0  0
  143.4829    1.6502    8.0539 C   0  0  0  0  0  0  0  0  0  0  0  0
  141.1074    0.3832    2.7561 C   0  0  0  0  0  0  0  0  0  0  0  0
  139.8425    0.4206    3.4629 C   0  0  0  0  0  0  0  0  0  0  0  0
  138.8842    0.2121    2.5357 C   0  0  0  0  0  0  0  0  0  0  0  0
  139.5667    0.0552    1.2678 C   0  0  0  0  0  0  0  0  0  0  0  0
  140.9057    0.1476    1.4366 N   0  0  0  0  0  0  0  0  0  0  0  0
  137.8579   -0.4512   -2.6380 H   0  0  0  0  0  0  0  0  0  0  0  0
  139.7881   -0.8498   -4.4506 H   0  0  0  0  0  0  0  0  0  0  0  0
  141.5824   -0.3312   -0.6655 H   0  0  0  0  0  0  0  0  0  0  0  0
  144.6077   -1.8833   -7.3891 H   0  0  0  0  0  0  0  0  0  0  0  0
  144.5465   -2.3566   -9.8319 H   0  0  0  0  0  0  0  0  0  0  0  0
  140.4548   -1.9879   -9.9593 H   0  0  0  0  0  0  0  0  0  0  0  0
  140.3283   -1.4987   -7.5224 H   0  0  0  0  0  0  0  0  0  0  0  0
  145.0311   -1.3507   -4.3129 H   0  0  0  0  0  0  0  0  0  0  0  0
  146.9450   -0.9742   -2.4538 H   0  0  0  0  0  0  0  0  0  0  0  0
  146.9049    0.6992    2.6268 H   0  0  0  0  0  0  0  0  0  0  0  0
  144.9750    1.0823    4.4422 H   0  0  0  0  0  0  0  0  0  0  0  0
  143.1818   -0.0139    0.7819 H   0  0  0  0  0  0  0  0  0  0  0  0
  140.1494    1.3580    7.5383 H   0  0  0  0  0  0  0  0  0  0  0  0
  140.2078    1.8674    9.9738 H   0  0  0  0  0  0  0  0  0  0  0  0
  144.3116    2.0971    9.9864 H   0  0  0  0  0  0  0  0  0  0  0  0
  144.4413    1.5987    7.5514 H   0  0  0  0  0  0  0  0  0  0  0  0
  139.7311    0.5821    4.5231 H   0  0  0  0  0  0  0  0  0  0  0  0
  137.8170    0.1578    2.6738 H   0  0  0  0  0  0  0  0  0  0  0  0
  149.9028   -0.1332    0.0588 C   0  0  0  0  0  0  0  0  0  0  0  0
  150.5425   -0.2584   -1.1919 C   0  0  0  0  0  0  0  0  0  0  0  0
  149.9231   -0.3618   -2.4619 C   0  0  0  0  0  0  0  0  0  0  0  0
  150.9084   -0.5080   -3.4018 C   0  0  0  0  0  0  0  0  0  0  0  0
  152.1559   -0.4914   -2.7284 C   0  0  0  0  0  0  0  0  0  0  0  0
  151.8900   -0.3299   -1.3990 N   0  0  0  0  0  0  0  0  0  0  0  0
  153.4249   -0.6415   -3.3184 C   0  0  0  0  0  0  0  0  0  0  0  0
  153.4387   -0.8581   -4.7148 C   0  0  0  0  0  0  0  0  0  0  0  0
  153.4474   -1.0501   -5.9131 C   0  0  0  0  0  0  0  0  0  0  0  0
  153.4646   -1.2702   -7.3093 C   0  0  0  0  0  0  0  0  0  0  0  0
  154.6650   -1.4945   -7.9938 C   0  0  0  0  0  0  0  0  0  0  0  0
  154.6274   -1.7065   -9.3604 C   0  0  0  0  0  0  0  0  0  0  0  0
  153.4990   -1.7074  -10.0656 N   0  0  0  0  0  0  0  0  0  0  0  0
  152.3538   -1.4950   -9.4223 C   0  0  0  0  0  0  0  0  0  0  0  0
  152.2822   -1.2739   -8.0585 C   0  0  0  0  0  0  0  0  0  0  0  0
  154.6606   -0.5960   -2.6549 C   0  0  0  0  0  0  0  0  0  0  0  0
  155.9288   -0.7855   -3.3311 C   0  0  0  0  0  0  0  0  0  0  0  0
  156.8856   -0.6400   -2.3904 C   0  0  0  0  0  0  0  0  0  0  0  0
  154.8585   -0.3509   -1.3368 N   0  0  0  0  0  0  0  0  0  0  0  0
  156.1978   -0.3585   -1.1466 C   0  0  0  0  0  0  0  0  0  0  0  0
  156.8637   -0.1165    0.0696 C   0  0  0  0  0  0  0  0  0  0  0  0
  156.2268    0.1238    1.3037 C   0  0  0  0  0  0  0  0  0  0  0  0
  156.8490    0.4020    2.5462 C   0  0  0  0  0  0  0  0  0  0  0  0
  155.8642    0.5439    3.4875 C   0  0  0  0  0  0  0  0  0  0  0  0
  154.6158    0.3598    2.8409 C   0  0  0  0  0  0  0  0  0  0  0  0
  154.8799    0.1167    1.5240 N   0  0  0  0  0  0  0  0  0  0  0  0
  153.3458    0.3931    3.4467 C   0  0  0  0  0  0  0  0  0  0  0  0
  153.3290    0.6166    4.8420 C   0  0  0  0  0  0  0  0  0  0  0  0
  153.3192    0.8140    6.0393 C   0  0  0  0  0  0  0  0  0  0  0  0
  153.3015    1.0443    7.4338 C   0  0  0  0  0  0  0  0  0  0  0  0
  152.0971    1.1026    8.1449 C   0  0  0  0  0  0  0  0  0  0  0  0
  152.1347    1.3317    9.5087 C   0  0  0  0  0  0  0  0  0  0  0  0
  153.2669    1.5012   10.1870 N   0  0  0  0  0  0  0  0  0  0  0  0
  154.4160    1.4472    9.5184 C   0  0  0  0  0  0  0  0  0  0  0  0
  154.4879    1.2237    8.1550 C   0  0  0  0  0  0  0  0  0  0  0  0
  152.1117    0.2275    2.7996 C   0  0  0  0  0  0  0  0  0  0  0  0
  150.8453    0.2347    3.5044 C   0  0  0  0  0  0  0  0  0  0  0  0
  149.8884    0.0824    2.5652 C   0  0  0  0  0  0  0  0  0  0  0  0
  150.5726   -0.0095    1.2919 C   0  0  0  0  0  0  0  0  0  0  0  0
  151.9116    0.0664    1.4682 N   0  0  0  0  0  0  0  0  0  0  0  0
  148.8604   -0.3241   -2.6323 H   0  0  0  0  0  0  0  0  0  0  0  0
  150.7871   -0.6165   -4.4675 H   0  0  0  0  0  0  0  0  0  0  0  0
  152.5900   -0.2737   -0.6667 H   0  0  0  0  0  0  0  0  0  0  0  0
  155.6065   -1.5021   -7.4581 H   0  0  0  0  0  0  0  0  0  0  0  0
  155.5433   -1.8834   -9.9168 H   0  0  0  0  0  0  0  0  0  0  0  0
  151.4523   -1.5026  -10.0282 H   0  0  0  0  0  0  0  0  0  0  0  0
  151.3277   -1.1054   -7.5745 H   0  0  0  0  0  0  0  0  0  0  0  0
  156.0429   -1.0020   -4.3812 H   0  0  0  0  0  0  0  0  0  0  0  0
  157.9547   -0.7190   -2.5013 H   0  0  0  0  0  0  0  0  0  0  0  0
  157.9126    0.4873    2.6955 H   0  0  0  0  0  0  0  0  0  0  0  0
  155.9861    0.7582    4.5370 H   0  0  0  0  0  0  0  0  0  0  0  0
  154.1790   -0.0463    0.8086 H   0  0  0  0  0  0  0  0  0  0  0  0
  151.1523    0.9702    7.6317 H   0  0  0  0  0  0  0  0  0  0  0  0
  151.2156    1.3820   10.0854 H   0  0  0  0  0  0  0  0  0  0  0  0
  155.3205    1.5897   10.1027 H   0  0  0  0  0  0  0  0  0  0  0  0
  155.4455    1.1877    7.6497 H   0  0  0  0  0  0  0  0  0  0  0  0
  150.7322    0.3389    4.5716 H   0  0  0  0  0  0  0  0  0  0  0  0
  148.8208    0.0273    2.6981 H   0  0  0  0  0  0  0  0  0  0  0  0
  160.8973   -0.1051    0.0702 C   0  0  0  0  0  0  0  0  0  0  0  0
  161.5291    0.0976   -1.1732 C   0  0  0  0  0  0  0  0  0  0  0  0
  160.8986    0.3269   -2.4219 C   0  0  0  0  0  0  0  0  0  0  0  0
  161.8778    0.4585   -3.3702 C   0  0  0  0  0  0  0  0  0  0  0  0
  163.1314    0.3176   -2.7223 C   0  0  0  0  0  0  0  0  0  0  0  0
  162.8752    0.1066   -1.3980 N   0  0  0  0  0  0  0  0  0  0  0  0
  164.3989    0.3693   -3.3313 C   0  0  0  0  0  0  0  0  0  0  0  0
  164.4096    0.5590   -4.7314 C   0  0  0  0  0  0  0  0  0  0  0  0
  164.4140    0.7180   -5.9346 C   0  0  0  0  0  0  0  0  0  0  0  0
  164.4249    0.9008   -7.3361 C   0  0  0  0  0  0  0  0  0  0  0  0
  165.6243    0.9071   -8.0579 C   0  0  0  0  0  0  0  0  0  0  0  0
  165.5802    1.0881   -9.4288 C   0  0  0  0  0  0  0  0  0  0  0  0
  164.4465    1.2592  -10.1040 N   0  0  0  0  0  0  0  0  0  0  0  0
  163.3022    1.2550   -9.4251 C   0  0  0  0  0  0  0  0  0  0  0  0
  163.2368    1.0809   -8.0542 C   0  0  0  0  0  0  0  0  0  0  0  0
  165.6362    0.2474   -2.6797 C   0  0  0  0  0  0  0  0  0  0  0  0
  166.9063    0.2939   -3.3769 C   0  0  0  0  0  0  0  0  0  0  0  0
  167.8621    0.1606   -2.4334 C   0  0  0  0  0  0  0  0  0  0  0  0
  165.8316    0.0855   -1.3488 N   0  0  0  0  0  0  0  0  0  0  0  0
  167.1712    0.0357   -1.1656 C   0  0  0  0  0  0  0  0  0  0  0  0
  167.8358   -0.1176    0.0646 C   0  0  0  0  0  0  0  0  0  0  0  0
  167.2057   -0.2709    1.3151 C   0  0  0  0  0  0  0  0  0  0  0  0
  167.8379   -0.4037    2.5770 C   0  0  0  0  0  0  0  0  0  0  0  0
  166.8590   -0.5309    3.5265 C   0  0  0  0  0  0  0  0  0  0  0  0
  165.6047   -0.4751    2.8673 C   0  0  0  0  0  0  0  0  0  0  0  0
  165.8595   -0.3148    1.5360 N   0  0  0  0  0  0  0  0  0  0  0  0
  164.3363   -0.5770    3.4685 C   0  0  0  0  0  0  0  0  0  0  0  0
  164.3247   -0.7581    4.8698 C   0  0  0  0  0  0  0  0  0  0  0  0
  164.3218   -0.9047    6.0745 C   0  0  0  0  0  0  0  0  0  0  0  0
  164.3140   -1.0730    7.4779 C   0  0  0  0  0  0  0  0  0  0  0  0
  163.1135   -1.1738    8.1908 C   0  0  0  0  0  0  0  0  0  0  0  0
  163.1613   -1.3347    9.5641 C   0  0  0  0  0  0  0  0  0  0  0  0
  164.2998   -1.3996   10.2497 N   0  0  0  0  0  0  0  0  0  0  0  0
  165.4453   -1.3050    9.5793 C   0  0  0  0  0  0  0  0  0  0  0  0
  165.5071   -1.1426    8.2068 C   0  0  0  0  0  0  0  0  0  0  0  0
  163.0997   -0.5138    2.8081 C   0  0  0  0  0  0  0  0  0  0  0  0
  161.8299   -0.6576    3.4923 C   0  0  0  0  0  0  0  0  0  0  0  0
  160.8740   -0.5304    2.5481 C   0  0  0  0  0  0  0  0  0  0  0  0
  161.5639   -0.3033    1.2942 C   0  0  0  0  0  0  0  0  0  0  0  0
  162.9031   -0.3072    1.4828 N   0  0  0  0  0  0  0  0  0  0  0  0
  159.8332    0.3882   -2.5702 H   0  0  0  0  0  0  0  0  0  0  0  0
  161.7493    0.6396   -4.4251 H   0  0  0  0  0  0  0  0  0  0  0  0
  163.5819   -0.0248   -0.6819 H   0  0  0  0  0  0  0  0  0  0  0  0
  166.5701    0.7712   -7.5476 H   0  0  0  0  0  0  0  0  0  0  0  0
  166.4954    1.0969  -10.0139 H   0  0  0  0  0  0  0  0  0  0  0  0
  162.3962    1.3972  -10.0072 H   0  0  0  0  0  0  0  0  0  0  0  0
  162.2829    1.0838   -7.5408 H   0  0  0  0  0  0  0  0  0  0  0  0
  167.0222    0.4107   -4.4426 H   0  0  0  0  0  0  0  0  0  0  0  0
  168.9325    0.1378   -2.5590 H   0  0  0  0  0  0  0  0  0  0  0  0
  168.9040   -0.3968    2.7340 H   0  0  0  0  0  0  0  0  0  0  0  0
  166.9884   -0.6515    4.5899 H   0  0  0  0  0  0  0  0  0  0  0  0
  165.1520   -0.2359    0.8130 H   0  0  0  0  0  0  0  0  0  0  0  0
  162.1638   -1.1258    7.6719 H   0  0  0  0  0  0  0  0  0  0  0  0
  162.2454   -1.4154   10.1424 H   0  0  0  0  0  0  0  0  0  0  0  0
  166.3553   -1.3619   10.1698 H   0  0  0  0  0  0  0  0  0  0  0  0
  166.4620   -1.0696    7.7005 H   0  0  0  0  0  0  0  0  0  0  0  0
  161.7143   -0.8354    4.5495 H   0  0  0  0  0  0  0  0  0  0  0  0
  159.8039   -0.5877    2.6634 H   0  0  0  0  0  0  0  0  0  0  0  0
  1  2  4  0  0  0  0
  2  3  4  0  0  0  0
  3  4  2  0  0  0  0
  4  5  4  0  0  0  0
  2  6  4  0  0  0  0
  5  6  4  0  0  0  0
  5  7  4  0  0  0  0
  7  8  1  0  0  0  0
  8  9  3  0  0  0  0
  9 10  1  0  0  0  0
 10 11  4  0  0  0  0
 11 12  4  0  0  0  0
 12 13  4  0  0  0  0
 13 14  4  0  0  0  0
 10 15  4  0  0  0  0
 14 15  4  0  0  0  0
  7 16  4  0  0  0  0
 16 17  1  0  0  0  0
 17 18  2  0  0  0  0
 16 19  4  0  0  0  0
 18 20  1  0  0  0  0
 19 20  4  0  0  0  0
 20 21  4  0  0  0  0
 21 22  4  0  0  0  0
 22 23  4  0  0  0  0
 23 24  2  0  0  0  0
 24 25  4  0  0  0  0
 22 26  4  0  0  0  0
 25 26  4  0  0  0  0
 25 27  4  0  0  0  0
 27 28  1  0  0  0  0
 28 29  3  0  0  0  0
 29 30  1  0  0  0  0
 30 31  4  0  0  0  0
 31 32  4  0  0  0  0
 32 33  4  0  0  0  0
 33 34  4  0  0  0  0
 30 35  4  0  0  0  0
 34 35  4  0  0  0  0
 27 36  4  0  0  0  0
 36 37  1  0  0  0  0
 37 38  2  0  0  0  0
  1 39  4  0  0  0  0
 38 39  1  0  0  0  0
 36 40  4  0  0  0  0
 39 40  4  0  0  0  0
  1 41  1  0  0  0  0
  3 42  1  0  0  0  0
  4 43  1  0  0  0  0
  6 44  1  0  0  0  0
 11 45  1  0  0  0  0
 12 46  1  0  0  0  0
 14 47  1  0  0  0  0
 15 48  1  0  0  0  0
 17 49  1  0  0  0  0
 18 50  1  0  0  0  0
 23 51  1  0  0  0  0
 24 52  1  0  0  0  0
 26 53  1  0  0  0  0
 31 54  1  0  0  0  0
 32 55  1  0  0  0  0
 34 56  1  0  0  0  0
 35 57  1  0  0  0  0
 37 58  1  0  0  0  0
 38 59  1  0  0  0  0
 60 61  4  0  0  0  0
 61 62  4  0  0  0  0
 62 63  2  0  0  0  0
 63 64  4  0  0  0  0
 61 65  4  0  0  0  0
 64 65  4  0  0  0  0
 64 66  4  0  0  0  0
 66 67  1  0  0  0  0
 67 68  3  0  0  0  0
 68 69  1  0  0  0  0
 69 70  4  0  0  0  0
 70 71  4  0  0  0  0
 71 72  4  0  0  0  0
 72 73  4  0  0  0  0
 69 74  4  0  0  0  0
 73 74  4  0  0  0  0
 66 75  4  0  0  0  0
 75 76  1  0  0  0  0
 76 77  2  0  0  0  0
 75 78  4  0  0  0  0
 77 79  1  0  0  0  0
 78 79  4  0  0  0  0
 79 80  4  0  0  0  0
 80 81  4  0  0  0  0
 81 82  4  0  0  0  0
 82 83  2  0  0  0  0
 83 84  4  0  0  0  0
 81 85  4  0  0  0  0
 84 85  4  0  0  0  0
 84 86  4  0  0  0  0
 86 87  1  0  0  0  0
 87 88  3  0  0  0  0
 88 89  1  0  0  0  0
 89 90  4  0  0  0  0
 90 91  4  0  0  0  0
 91 92  4  0  0  0  0
 92 93  4  0  0  0  0
 89 94  4  0  0  0  0
 93 94  4  0  0  0  0
 86 95  4  0  0  0  0
 95 96  1  0  0  0  0
 96 97  2  0  0  0  0
 60 98  4  0  0  0  0
 97 98  1  0  0  0  0
 95 99  4  0  0  0  0
 98 99  4  0  0  0  0
 60100  1  0  0  0  0
 62101  1  0  0  0  0
 63102  1  0  0  0  0
 65103  1  0  0  0  0
 70104  1  0  0  0  0
 71105  1  0  0  0  0
 73106  1  0  0  0  0
 74107  1  0  0  0  0
 76108  1  0  0  0  0
 77109  1  0  0  0  0
 82110  1  0  0  0  0
 83111  1  0  0  0  0
 85112  1  0  0  0  0
 90113  1  0  0  0  0
 91114  1  0  0  0  0
 93115  1  0  0  0  0
 94116  1  0  0  0  0
 96117  1  0  0  0  0
 97118  1  0  0  0  0
 21119  4  0  0  0  0
119120  3  0  0  0  0
121122  3  0  0  0  0
123124  3  0  0  0  0
125126  3  0  0  0  0
127128  3  0  0  0  0
 80130  4  0  0  0  0
129130  3  0  0  0  0
120131  4  0  0  0  0
131132  4  0  0  0  0
132133  4  0  0  0  0
133134  2  0  0  0  0
134135  4  0  0  0  0
132136  4  0  0  0  0
135136  4  0  0  0  0
135137  4  0  0  0  0
137138  1  0  0  0  0
138139  3  0  0  0  0
139140  1  0  0  0  0
140141  4  0  0  0  0
141142  4  0  0  0  0
142143  4  0  0  0  0
143144  4  0  0  0  0
140145  4  0  0  0  0
144145  4  0  0  0  0
137146  4  0  0  0  0
146147  1  0  0  0  0
147148  2  0  0  0  0
146149  4  0  0  0  0
148150  1  0  0  0  0
149150  4  0  0  0  0
121151  4  0  0  0  0
150151  4  0  0  0  0
151152  4  0  0  0  0
152153  4  0  0  0  0
153154  2  0  0  0  0
154155  4  0  0  0  0
152156  4  0  0  0  0
155156  4  0  0  0  0
155157  4  0  0  0  0
157158  1  0  0  0  0
158159  3  0  0  0  0
159160  1  0  0  0  0
160161  4  0  0  0  0
161162  4  0  0  0  0
162163  4  0  0  0  0
163164  4  0  0  0  0
160165  4  0  0  0  0
164165  4  0  0  0  0
157166  4  0  0  0  0
166167  1  0  0  0  0
167168  2  0  0  0  0
131169  4  0  0  0  0
168169  1  0  0  0  0
166170  4  0  0  0  0
169170  4  0  0  0  0
133171  1  0  0  0  0
134172  1  0  0  0  0
136173  1  0  0  0  0
141174  1  0  0  0  0
142175  1  0  0  0  0
144176  1  0  0  0  0
145177  1  0  0  0  0
147178  1  0  0  0  0
148179  1  0  0  0  0
153180  1  0  0  0  0
154181  1  0  0  0  0
156182  1  0  0  0  0
161183  1  0  0  0  0
162184  1  0  0  0  0
164185  1  0  0  0  0
165186  1  0  0  0  0
167187  1  0  0  0  0
168188  1  0  0  0  0
122189  4  0  0  0  0
189190  4  0  0  0  0
190191  4  0  0  0  0
191192  2  0  0  0  0
192193  4  0  0  0  0
190194  4  0  0  0  0
193194  4  0  0  0  0
193195  4  0  0  0  0
195196  1  0  0  0  0
196197  3  0  0  0  0
197198  1  0  0  0  0
198199  4  0  0  0  0
199200  4  0  0  0  0
200201  4  0  0  0  0
201202  4  0  0  0  0
198203  4  0  0  0  0
202203  4  0  0  0  0
195204  4  0  0  0  0
204205  1  0  0  0  0
205206  2  0  0  0  0
204207  4  0  0  0  0
206208  1  0  0  0  0
207208  4  0  0  0  0
123209  4  0  0  0  0
208209  4  0  0  0  0
209210  4  0  0  0  0
210211  4  0  0  0  0
211212  2  0  0  0  0
212213  4  0  0  0  0
210214  4  0  0  0  0
213214  4  0  0  0  0
213215  4  0  0  0  0
215216  1  0  0  0  0
216217  3  0  0  0  0
217218  1  0  0  0  0
218219  4  0  0  0  0
219220  4  0  0  0  0
220221  4  0  0  0  0
221222  4  0  0  0  0
218223  4  0  0  0  0
222223  4  0  0  0  0
215224  4  0  0  0  0
224225  1  0  0  0  0
225226  2  0  0  0  0
189227  4  0  0  0  0
226227  1  0  0  0  0
224228  4  0  0  0  0
227228  4  0  0  0  0
191229  1  0  0  0  0
192230  1  0  0  0  0
194231  1  0  0  0  0
199232  1  0  0  0  0
200233  1  0  0  0  0
202234  1  0  0  0  0
203235  1  0  0  0  0
205236  1  0  0  0  0
206237  1  0  0  0  0
211238  1  0  0  0  0
212239  1  0  0  0  0
214240  1  0  0  0  0
219241  1  0  0  0  0
220242  1  0  0  0  0
222243  1  0  0  0  0
223244  1  0  0  0  0
225245  1  0  0  0  0
226246  1  0  0  0  0
124247  4  0  0  0  0
247248  4  0  0  0  0
248249  4  0  0  0  0
249250  2  0  0  0  0
250251  4  0  0  0  0
248252  4  0  0  0  0
251252  4  0  0  0  0
251253  4  0  0  0  0
253254  1  0  0  0  0
254255  3  0  0  0  0
255256  1  0  0  0  0
256257  4  0  0  0  0
257258  4  0  0  0  0
258259  4  0  0  0  0
259260  4  0  0  0  0
256261  4  0  0  0  0
260261  4  0  0  0  0
253262  4  0  0  0  0
262263  1  0  0  0  0
263264  2  0  0  0  0
262265  4  0  0  0  0
264266  1  0  0  0  0
265266  4  0  0  0  0
125267  4  0  0  0  0
266267  4  0  0  0  0
267268  4  0  0  0  0
268269  4  0  0  0  0
269270  2  0  0  0  0
270271  4  0  0  0  0
268272  4  0  0  0  0
271272  4  0  0  0  0
271273  4  0  0  0  0
273274  1  0  0  0  0
274275  3  0  0  0  0
275276  1  0  0  0  0
276277  4  0  0  0  0
277278  4  0  0  0  0
278279  4  0  0  0  0
279280  4  0  0  0  0
276281  4  0  0  0  0
280281  4  0  0  0  0
273282  4  0  0  0  0
282283  1  0  0  0  0
283284  2  0  0  0  0
247285  4  0  0  0  0
284285  1  0  0  0  0
282286  4  0  0  0  0
285286  4  0  0  0  0
249287  1  0  0  0  0
250288  1  0  0  0  0
252289  1  0  0  0  0
257290  1  0  0  0  0
258291  1  0  0  0  0
260292  1  0  0  0  0
261293  1  0  0  0  0
263294  1  0  0  0  0
264295  1  0  0  0  0
269296  1  0  0  0  0
270297  1  0  0  0  0
272298  1  0  0  0  0
277299  1  0  0  0  0
278300  1  0  0  0  0
280301  1  0  0  0  0
281302  1  0  0  0  0
283303  1  0  0  0  0
284304  1  0  0  0  0
126305  4  0  0  0  0
305306  4  0  0  0  0
306307  4  0  0  0  0
307308  2  0  0  0  0
308309  4  0  0  0  0
306310  4  0  0  0  0
309310  4  0  0  0  0
309311  4  0  0  0  0
311312  1  0  0  0  0
312313  3  0  0  0  0
313314  1  0  0  0  0
314315  4  0  0  0  0
315316  4  0  0  0  0
316317  4  0  0  0  0
317318  4  0  0  0  0
314319  4  0  0  0  0
318319  4  0  0  0  0
311320  4  0  0  0  0
320321  1  0  0  0  0
321322  2  0  0  0  0
320323  4  0  0  0  0
322324  1  0  0  0  0
323324  4  0  0  0  0
127325  4  0  0  0  0
324325  4  0  0  0  0
325326  4  0  0  0  0
326327  4  0  0  0  0
327328  2  0  0  0  0
328329  4  0  0  0  0
326330  4  0  0  0  0
329330  4  0  0  0  0
329331  4  0  0  0  0
331332  1  0  0  0  0
332333  3  0  0  0  0
333334  1  0  0  0  0
334335  4  0  0  0  0
335336  4  0  0  0  0
336337  4  0  0  0  0
337338  4  0  0  0  0
334339  4  0  0  0  0
338339  4  0  0  0  0
331340  4  0  0  0  0
340341  1  0  0  0  0
341342  2  0  0  0  0
305343  4  0  0  0  0
342343  1  0  0  0  0
340344  4  0  0  0  0
343344  4  0  0  0  0
307345  1  0  0  0  0
308346  1  0  0  0  0
310347  1  0  0  0  0
315348  1  0  0  0  0
316349  1  0  0  0  0
318350  1  0  0  0  0
319351  1  0  0  0  0
321352  1  0  0  0  0
322353  1  0  0  0  0
327354  1  0  0  0  0
328355  1  0  0  0  0
330356  1  0  0  0  0
335357  1  0  0  0  0
336358  1  0  0  0  0
338359  1  0  0  0  0
339360  1  0  0  0  0
341361  1  0  0  0  0
342362  1  0  0  0  0
128363  4  0  0  0  0
363364  4  0  0  0  0
364365  4  0  0  0  0
365366  2  0  0  0  0
366367  4  0  0  0  0
364368  4  0  0  0  0
367368  4  0  0  0  0
367369  4  0  0  0  0
369370  1  0  0  0  0
370371  3  0  0  0  0
371372  1  0  0  0  0
372373  4  0  0  0  0
373374  4  0  0  0  0
374375  4  0  0  0  0
375376  4  0  0  0  0
372377  4  0  0  0  0
376377  4  0  0  0  0
369378  4  0  0  0  0
378379  1  0  0  0  0
379380  2  0  0  0  0
378381  4  0  0  0  0
380382  1  0  0  0  0
381382  4  0  0  0  0
129383  4  0  0  0  0
382383  4  0  0  0  0
383384  4  0  0  0  0
384385  4  0  0  0  0
385386  2  0  0  0  0
386387  4  0  0  0  0
384388  4  0  0  0  0
387388  4  0  0  0  0
387389  4  0  0  0  0
389390  1  0  0  0  0
390391  3  0  0  0  0
391392  1  0  0  0  0
392393  4  0  0  0  0
393394  4  0  0  0  0
394395  4  0  0  0  0
395396  4  0  0  0  0
392397  4  0  0  0  0
396397  4  0  0  0  0
389398  4  0  0  0  0
398399  1  0  0  0  0
399400  2  0  0  0  0
363401  4  0  0  0  0
400401  1  0  0  0  0
398402  4  0  0  0  0
401402  4  0  0  0  0
365403  1  0  0  0  0
366404  1  0  0  0  0
368405  1  0  0  0  0
373406  1  0  0  0  0
374407  1  0  0  0  0
376408  1  0  0  0  0
377409  1  0  0  0  0
379410  1  0  0  0  0
380411  1  0  0  0  0
385412  1  0  0  0  0
386413  1  0  0  0  0
388414  1  0  0  0  0
393415  1  0  0  0  0
394416  1  0  0  0  0
396417  1  0  0  0  0
397418  1  0  0  0  0
399419  1  0  0  0  0
400420  1  0  0  0  0
M  END
