 xtb: 6.5.1 (b24c23e)
          07302214333D

185214  0     0  0            999 V2000
   31.1889    0.0301    0.0180 Cu  0  0  0  0  0  0  0  0  0  0  0  0
   27.7840    0.0527    0.1137 C   0  0  0  0  0  0  0  0  0  0  0  0
   28.4220    1.2674    0.3140 C   0  0  0  0  0  0  0  0  0  0  0  0
   27.7499    2.5196    0.5125 C   0  0  0  0  0  0  0  0  0  0  0  0
   28.7110    3.4630    0.6697 C   0  0  0  0  0  0  0  0  0  0  0  0
   29.9799    2.7925    0.5811 C   0  0  0  0  0  0  0  0  0  0  0  0
   29.7734    1.4621    0.3567 N   0  0  0  0  0  0  0  0  0  0  0  0
   31.2268    3.4136    0.6882 C   0  0  0  0  0  0  0  0  0  0  0  0
   31.2430    4.8692    0.9725 C   0  0  0  0  0  0  0  0  0  0  0  0
   30.6961    5.3651    2.1582 C   0  0  0  0  0  0  0  0  0  0  0  0
   30.7085    6.7220    2.4269 C   0  0  0  0  0  0  0  0  0  0  0  0
   31.2661    7.6136    1.5057 C   0  0  0  0  0  0  0  0  0  0  0  0
   31.2761    9.0111    1.7767 C   0  0  0  0  0  0  0  0  0  0  0  0
   31.2846   10.1412    1.9937 N   0  0  0  0  0  0  0  0  0  0  0  0
   31.8137    7.1226    0.3167 C   0  0  0  0  0  0  0  0  0  0  0  0
   31.8034    5.7637    0.0578 C   0  0  0  0  0  0  0  0  0  0  0  0
   32.4583    2.7704    0.5499 C   0  0  0  0  0  0  0  0  0  0  0  0
   33.7374    3.3974    0.7280 C   0  0  0  0  0  0  0  0  0  0  0  0
   34.6803    2.4430    0.5240 C   0  0  0  0  0  0  0  0  0  0  0  0
   32.6422    1.4460    0.2524 N   0  0  0  0  0  0  0  0  0  0  0  0
   33.9851    1.2268    0.2266 C   0  0  0  0  0  0  0  0  0  0  0  0
   34.6169    0.0031   -0.0572 C   0  0  0  0  0  0  0  0  0  0  0  0
   33.9542   -1.2085   -0.3213 C   0  0  0  0  0  0  0  0  0  0  0  0
   34.6164   -2.4322   -0.6597 C   0  0  0  0  0  0  0  0  0  0  0  0
   33.6503   -3.3697   -0.8320 C   0  0  0  0  0  0  0  0  0  0  0  0
   32.3905   -2.7256   -0.5894 C   0  0  0  0  0  0  0  0  0  0  0  0
   32.6081   -1.4068   -0.2900 N   0  0  0  0  0  0  0  0  0  0  0  0
   31.1441   -3.3502   -0.6687 C   0  0  0  0  0  0  0  0  0  0  0  0
   31.1230   -4.8034   -0.9645 C   0  0  0  0  0  0  0  0  0  0  0  0
   30.4974   -5.2819   -2.1181 C   0  0  0  0  0  0  0  0  0  0  0  0
   30.4741   -6.6365   -2.3975 C   0  0  0  0  0  0  0  0  0  0  0  0
   31.0747   -7.5434   -1.5194 C   0  0  0  0  0  0  0  0  0  0  0  0
   31.0482   -8.9389   -1.7992 C   0  0  0  0  0  0  0  0  0  0  0  0
   31.0271  -10.0678   -2.0218 N   0  0  0  0  0  0  0  0  0  0  0  0
   31.7006   -7.0700   -0.3623 C   0  0  0  0  0  0  0  0  0  0  0  0
   31.7250   -5.7135   -0.0924 C   0  0  0  0  0  0  0  0  0  0  0  0
   29.9137   -2.7131   -0.4885 C   0  0  0  0  0  0  0  0  0  0  0  0
   28.6330   -3.3670   -0.5054 C   0  0  0  0  0  0  0  0  0  0  0  0
   27.6951   -2.4124   -0.2877 C   0  0  0  0  0  0  0  0  0  0  0  0
   28.3937   -1.1696   -0.1248 C   0  0  0  0  0  0  0  0  0  0  0  0
   29.7378   -1.3813   -0.2469 N   0  0  0  0  0  0  0  0  0  0  0  0
   26.6994    0.0595    0.1456 H   0  0  0  0  0  0  0  0  0  0  0  0
   26.6790    2.6478    0.5177 H   0  0  0  0  0  0  0  0  0  0  0  0
   28.5797    4.5224    0.8206 H   0  0  0  0  0  0  0  0  0  0  0  0
   30.2730    4.6756    2.8800 H   0  0  0  0  0  0  0  0  0  0  0  0
   30.2876    7.0988    3.3517 H   0  0  0  0  0  0  0  0  0  0  0  0
   32.2442    7.8112   -0.4010 H   0  0  0  0  0  0  0  0  0  0  0  0
   32.2187    5.3877   -0.8704 H   0  0  0  0  0  0  0  0  0  0  0  0
   33.8905    4.4316    0.9909 H   0  0  0  0  0  0  0  0  0  0  0  0
   35.7527    2.5428    0.5744 H   0  0  0  0  0  0  0  0  0  0  0  0
   35.6838   -2.5472   -0.7591 H   0  0  0  0  0  0  0  0  0  0  0  0
   33.7752   -4.4029   -1.1127 H   0  0  0  0  0  0  0  0  0  0  0  0
   30.0404   -4.5806   -2.8071 H   0  0  0  0  0  0  0  0  0  0  0  0
   29.9914   -6.9992   -3.2975 H   0  0  0  0  0  0  0  0  0  0  0  0
   32.1641   -7.7707    0.3223 H   0  0  0  0  0  0  0  0  0  0  0  0
   32.2005   -5.3515    0.8122 H   0  0  0  0  0  0  0  0  0  0  0  0
   28.4791   -4.4240   -0.6520 H   0  0  0  0  0  0  0  0  0  0  0  0
   26.6242   -2.5270   -0.2301 H   0  0  0  0  0  0  0  0  0  0  0  0
   63.2650    0.0029    0.0378 Cu  0  0  0  0  0  0  0  0  0  0  0  0
   66.6707   -0.0239    0.1051 C   0  0  0  0  0  0  0  0  0  0  0  0
   66.0320   -1.2244    0.3763 C   0  0  0  0  0  0  0  0  0  0  0  0
   66.7032   -2.4655    0.6380 C   0  0  0  0  0  0  0  0  0  0  0  0
   65.7415   -3.3972    0.8509 C   0  0  0  0  0  0  0  0  0  0  0  0
   64.4731   -2.7300    0.7330 C   0  0  0  0  0  0  0  0  0  0  0  0
   64.6806   -1.4137    0.4375 N   0  0  0  0  0  0  0  0  0  0  0  0
   63.2259   -3.3429    0.8757 C   0  0  0  0  0  0  0  0  0  0  0  0
   63.2089   -4.7824    1.2333 C   0  0  0  0  0  0  0  0  0  0  0  0
   63.7557   -5.2179    2.4424 C   0  0  0  0  0  0  0  0  0  0  0  0
   63.7419   -6.5595    2.7798 C   0  0  0  0  0  0  0  0  0  0  0  0
   63.1831   -7.4961    1.9052 C   0  0  0  0  0  0  0  0  0  0  0  0
   63.1722   -8.8782    2.2461 C   0  0  0  0  0  0  0  0  0  0  0  0
   63.1650   -9.9960    2.5196 N   0  0  0  0  0  0  0  0  0  0  0  0
   62.6362   -7.0656    0.6927 C   0  0  0  0  0  0  0  0  0  0  0  0
   62.6479   -5.7217    0.3650 C   0  0  0  0  0  0  0  0  0  0  0  0
   61.9946   -2.7059    0.7094 C   0  0  0  0  0  0  0  0  0  0  0  0
   60.7155   -3.3224    0.9209 C   0  0  0  0  0  0  0  0  0  0  0  0
   59.7729   -2.3774    0.6760 C   0  0  0  0  0  0  0  0  0  0  0  0
   61.8111   -1.3968    0.3507 N   0  0  0  0  0  0  0  0  0  0  0  0
   60.4684   -1.1770    0.3206 C   0  0  0  0  0  0  0  0  0  0  0  0
   59.8368    0.0351   -0.0085 C   0  0  0  0  0  0  0  0  0  0  0  0
   60.4991    1.2331   -0.3283 C   0  0  0  0  0  0  0  0  0  0  0  0
   59.8360    2.4421   -0.7146 C   0  0  0  0  0  0  0  0  0  0  0  0
   60.8024    3.3664   -0.9458 C   0  0  0  0  0  0  0  0  0  0  0  0
   62.0636    2.7295   -0.6909 C   0  0  0  0  0  0  0  0  0  0  0  0
   61.8461    1.4279   -0.3243 N   0  0  0  0  0  0  0  0  0  0  0  0
   63.3110    3.3434   -0.8217 C   0  0  0  0  0  0  0  0  0  0  0  0
   63.3337    4.7775   -1.1996 C   0  0  0  0  0  0  0  0  0  0  0  0
   63.9431    5.1846   -2.3889 C   0  0  0  0  0  0  0  0  0  0  0  0
   63.9691    6.5206   -2.7467 C   0  0  0  0  0  0  0  0  0  0  0  0
   63.3872    7.4803   -1.9133 C   0  0  0  0  0  0  0  0  0  0  0  0
   63.4165    8.8572   -2.2748 C   0  0  0  0  0  0  0  0  0  0  0  0
   63.4380    9.9693   -2.5693 N   0  0  0  0  0  0  0  0  0  0  0  0
   62.7770    7.0785   -0.7213 C   0  0  0  0  0  0  0  0  0  0  0  0
   62.7500    5.7400   -0.3728 C   0  0  0  0  0  0  0  0  0  0  0  0
   64.5416    2.7117   -0.6242 C   0  0  0  0  0  0  0  0  0  0  0  0
   65.8238    3.3593   -0.6919 C   0  0  0  0  0  0  0  0  0  0  0  0
   66.7615    2.4149   -0.4326 C   0  0  0  0  0  0  0  0  0  0  0  0
   66.0614    1.1852   -0.1942 C   0  0  0  0  0  0  0  0  0  0  0  0
   64.7166    1.3945   -0.3127 N   0  0  0  0  0  0  0  0  0  0  0  0
   67.7555   -0.0317    0.1276 H   0  0  0  0  0  0  0  0  0  0  0  0
   67.7739   -2.5953    0.6441 H   0  0  0  0  0  0  0  0  0  0  0  0
   65.8720   -4.4472    1.0578 H   0  0  0  0  0  0  0  0  0  0  0  0
   64.1800   -4.4931    3.1281 H   0  0  0  0  0  0  0  0  0  0  0  0
   64.1627   -6.8890    3.7225 H   0  0  0  0  0  0  0  0  0  0  0  0
   62.2052   -7.7894    0.0110 H   0  0  0  0  0  0  0  0  0  0  0  0
   62.2331   -5.3928   -0.5812 H   0  0  0  0  0  0  0  0  0  0  0  0
   60.5625   -4.3431    1.2320 H   0  0  0  0  0  0  0  0  0  0  0  0
   58.7006   -2.4732    0.7351 H   0  0  0  0  0  0  0  0  0  0  0  0
   58.7675    2.5565   -0.8041 H   0  0  0  0  0  0  0  0  0  0  0  0
   60.6766    4.3855   -1.2737 H   0  0  0  0  0  0  0  0  0  0  0  0
   64.3855    4.4418   -3.0431 H   0  0  0  0  0  0  0  0  0  0  0  0
   64.4392    6.8279   -3.6736 H   0  0  0  0  0  0  0  0  0  0  0  0
   62.3277    7.8203   -0.0715 H   0  0  0  0  0  0  0  0  0  0  0  0
   62.2870    5.4339    0.5585 H   0  0  0  0  0  0  0  0  0  0  0  0
   65.9786    4.4061   -0.8979 H   0  0  0  0  0  0  0  0  0  0  0  0
   67.8333    2.5288   -0.3934 H   0  0  0  0  0  0  0  0  0  0  0  0
   39.8185   -0.0088   -0.0876 C   0  0  0  0  0  0  0  0  0  0  0  0
   38.5903   -0.0113   -0.0867 C   0  0  0  0  0  0  0  0  0  0  0  0
   37.2459   -0.0108   -0.0842 C   0  0  0  0  0  0  0  0  0  0  0  0
   36.0223   -0.0080   -0.0763 C   0  0  0  0  0  0  0  0  0  0  0  0
   41.1627   -0.0030   -0.0831 C   0  0  0  0  0  0  0  0  0  0  0  0
   42.3865    0.0036   -0.0764 C   0  0  0  0  0  0  0  0  0  0  0  0
   55.8622    0.0556   -0.0240 C   0  0  0  0  0  0  0  0  0  0  0  0
   54.6343    0.0546   -0.0237 C   0  0  0  0  0  0  0  0  0  0  0  0
   53.2896    0.0501   -0.0226 C   0  0  0  0  0  0  0  0  0  0  0  0
   52.0660    0.0436   -0.0208 C   0  0  0  0  0  0  0  0  0  0  0  0
   57.2072    0.0526   -0.0228 C   0  0  0  0  0  0  0  0  0  0  0  0
   58.4306    0.0480   -0.0197 C   0  0  0  0  0  0  0  0  0  0  0  0
   47.2261    0.0212   -0.0415 Cu  0  0  0  0  0  0  0  0  0  0  0  0
   43.7914    0.0091   -0.0666 C   0  0  0  0  0  0  0  0  0  0  0  0
   44.4467   -1.1608   -0.4915 C   0  0  0  0  0  0  0  0  0  0  0  0
   43.7760   -2.3629   -0.8861 C   0  0  0  0  0  0  0  0  0  0  0  0
   44.7374   -3.2536   -1.2395 C   0  0  0  0  0  0  0  0  0  0  0  0
   46.0020   -2.5961   -1.0701 C   0  0  0  0  0  0  0  0  0  0  0  0
   45.7922   -1.3256   -0.6049 N   0  0  0  0  0  0  0  0  0  0  0  0
   47.2466   -3.1766   -1.3245 C   0  0  0  0  0  0  0  0  0  0  0  0
   47.2547   -4.5510   -1.8826 C   0  0  0  0  0  0  0  0  0  0  0  0
   46.6762   -4.8121   -3.1268 C   0  0  0  0  0  0  0  0  0  0  0  0
   46.6850   -6.0911   -3.6537 C   0  0  0  0  0  0  0  0  0  0  0  0
   47.2702   -7.1397   -2.9380 C   0  0  0  0  0  0  0  0  0  0  0  0
   47.2779   -8.4578   -3.4755 C   0  0  0  0  0  0  0  0  0  0  0  0
   47.2857   -9.5237   -3.9092 N   0  0  0  0  0  0  0  0  0  0  0  0
   47.8474   -6.8844   -1.6905 C   0  0  0  0  0  0  0  0  0  0  0  0
   47.8408   -5.6015   -1.1729 C   0  0  0  0  0  0  0  0  0  0  0  0
   48.4836   -2.5688   -1.0993 C   0  0  0  0  0  0  0  0  0  0  0  0
   49.7564   -3.1472   -1.4247 C   0  0  0  0  0  0  0  0  0  0  0  0
   50.7062   -2.2488   -1.0600 C   0  0  0  0  0  0  0  0  0  0  0  0
   48.6772   -1.3269   -0.5563 N   0  0  0  0  0  0  0  0  0  0  0  0
   50.0203   -1.1141   -0.5188 C   0  0  0  0  0  0  0  0  0  0  0  0
   50.6604    0.0358   -0.0232 C   0  0  0  0  0  0  0  0  0  0  0  0
   50.0051    1.1783    0.4698 C   0  0  0  0  0  0  0  0  0  0  0  0
   50.6753    2.3162    1.0235 C   0  0  0  0  0  0  0  0  0  0  0  0
   49.7140    3.2054    1.3808 C   0  0  0  0  0  0  0  0  0  0  0  0
   48.4499    2.6187    1.0366 C   0  0  0  0  0  0  0  0  0  0  0  0
   48.6599    1.3800    0.4925 N   0  0  0  0  0  0  0  0  0  0  0  0
   47.2055    3.2183    1.2436 C   0  0  0  0  0  0  0  0  0  0  0  0
   47.1964    4.5933    1.7999 C   0  0  0  0  0  0  0  0  0  0  0  0
   46.5895    4.8551    3.0304 C   0  0  0  0  0  0  0  0  0  0  0  0
   46.5823    6.1352    3.5547 C   0  0  0  0  0  0  0  0  0  0  0  0
   47.1806    7.1843    2.8504 C   0  0  0  0  0  0  0  0  0  0  0  0
   47.1732    8.5034    3.3856 C   0  0  0  0  0  0  0  0  0  0  0  0
   47.1673    9.5698    3.8180 N   0  0  0  0  0  0  0  0  0  0  0  0
   47.7865    6.9282    1.6168 C   0  0  0  0  0  0  0  0  0  0  0  0
   47.7950    5.6445    1.1015 C   0  0  0  0  0  0  0  0  0  0  0  0
   45.9689    2.6297    0.9695 C   0  0  0  0  0  0  0  0  0  0  0  0
   44.6973    3.2790    1.1175 C   0  0  0  0  0  0  0  0  0  0  0  0
   43.7476    2.3817    0.7499 C   0  0  0  0  0  0  0  0  0  0  0  0
   44.4323    1.1835    0.3675 C   0  0  0  0  0  0  0  0  0  0  0  0
   45.7747    1.3575    0.5021 N   0  0  0  0  0  0  0  0  0  0  0  0
   42.7067   -2.5014   -0.8821 H   0  0  0  0  0  0  0  0  0  0  0  0
   44.6056   -4.2707   -1.5713 H   0  0  0  0  0  0  0  0  0  0  0  0
   46.2313   -3.9992   -3.6895 H   0  0  0  0  0  0  0  0  0  0  0  0
   46.2399   -6.2848   -4.6226 H   0  0  0  0  0  0  0  0  0  0  0  0
   48.2984   -7.6957   -1.1312 H   0  0  0  0  0  0  0  0  0  0  0  0
   48.2795   -5.4092   -0.2003 H   0  0  0  0  0  0  0  0  0  0  0  0
   49.9010   -4.1104   -1.8866 H   0  0  0  0  0  0  0  0  0  0  0  0
   51.7770   -2.3346   -1.1530 H   0  0  0  0  0  0  0  0  0  0  0  0
   51.7441    2.4095    1.1305 H   0  0  0  0  0  0  0  0  0  0  0  0
   49.8455    4.1672    1.8493 H   0  0  0  0  0  0  0  0  0  0  0  0
   46.1348    4.0420    3.5849 H   0  0  0  0  0  0  0  0  0  0  0  0
   46.1148    6.3294    4.5129 H   0  0  0  0  0  0  0  0  0  0  0  0
   48.2479    7.7397    1.0663 H   0  0  0  0  0  0  0  0  0  0  0  0
   48.2556    5.4519    0.1391 H   0  0  0  0  0  0  0  0  0  0  0  0
   44.5535    4.2958    1.4453 H   0  0  0  0  0  0  0  0  0  0  0  0
   42.6776    2.5132    0.7284 H   0  0  0  0  0  0  0  0  0  0  0  0
  2  3  4  0  0  0  0
  3  4  1  0  0  0  0
  4  5  2  0  0  0  0
  5  6  4  0  0  0  0
  1  7  1  0  0  0  0
  3  7  4  0  0  0  0
  6  7  4  0  0  0  0
  6  8  4  0  0  0  0
  8  9  1  0  0  0  0
  9 10  4  0  0  0  0
 10 11  4  0  0  0  0
 11 12  4  0  0  0  0
 12 13  1  0  0  0  0
 13 14  3  0  0  0  0
 12 15  4  0  0  0  0
  9 16  4  0  0  0  0
 15 16  4  0  0  0  0
  8 17  4  0  0  0  0
 17 18  4  0  0  0  0
 18 19  2  0  0  0  0
  1 20  1  0  0  0  0
 17 20  4  0  0  0  0
 19 21  4  0  0  0  0
 20 21  4  0  0  0  0
 21 22  4  0  0  0  0
 22 23  4  0  0  0  0
 23 24  4  0  0  0  0
 24 25  2  0  0  0  0
 25 26  4  0  0  0  0
  1 27  1  0  0  0  0
 23 27  4  0  0  0  0
 26 27  4  0  0  0  0
 26 28  4  0  0  0  0
 28 29  1  0  0  0  0
 29 30  4  0  0  0  0
 30 31  4  0  0  0  0
 31 32  4  0  0  0  0
 32 33  1  0  0  0  0
 33 34  3  0  0  0  0
 32 35  4  0  0  0  0
 29 36  4  0  0  0  0
 35 36  4  0  0  0  0
 28 37  4  0  0  0  0
 37 38  4  0  0  0  0
 38 39  2  0  0  0  0
  2 40  4  0  0  0  0
 39 40  1  0  0  0  0
  1 41  1  0  0  0  0
 37 41  4  0  0  0  0
 40 41  4  0  0  0  0
  2 42  1  0  0  0  0
  4 43  1  0  0  0  0
  5 44  1  0  0  0  0
 10 45  1  0  0  0  0
 11 46  1  0  0  0  0
 15 47  1  0  0  0  0
 16 48  1  0  0  0  0
 18 49  1  0  0  0  0
 19 50  1  0  0  0  0
 24 51  1  0  0  0  0
 25 52  1  0  0  0  0
 30 53  1  0  0  0  0
 31 54  1  0  0  0  0
 35 55  1  0  0  0  0
 36 56  1  0  0  0  0
 38 57  1  0  0  0  0
 39 58  1  0  0  0  0
 60 61  4  0  0  0  0
 61 62  1  0  0  0  0
 62 63  2  0  0  0  0
 63 64  4  0  0  0  0
 59 65  1  0  0  0  0
 61 65  4  0  0  0  0
 64 65  4  0  0  0  0
 64 66  4  0  0  0  0
 66 67  1  0  0  0  0
 67 68  4  0  0  0  0
 68 69  4  0  0  0  0
 69 70  4  0  0  0  0
 70 71  1  0  0  0  0
 71 72  3  0  0  0  0
 70 73  4  0  0  0  0
 67 74  4  0  0  0  0
 73 74  4  0  0  0  0
 66 75  4  0  0  0  0
 75 76  4  0  0  0  0
 76 77  2  0  0  0  0
 59 78  1  0  0  0  0
 75 78  4  0  0  0  0
 77 79  4  0  0  0  0
 78 79  4  0  0  0  0
 79 80  4  0  0  0  0
 80 81  4  0  0  0  0
 81 82  4  0  0  0  0
 82 83  2  0  0  0  0
 83 84  4  0  0  0  0
 59 85  1  0  0  0  0
 81 85  4  0  0  0  0
 84 85  4  0  0  0  0
 84 86  4  0  0  0  0
 86 87  1  0  0  0  0
 87 88  4  0  0  0  0
 88 89  4  0  0  0  0
 89 90  4  0  0  0  0
 90 91  1  0  0  0  0
 91 92  3  0  0  0  0
 90 93  4  0  0  0  0
 87 94  4  0  0  0  0
 93 94  4  0  0  0  0
 86 95  4  0  0  0  0
 95 96  4  0  0  0  0
 96 97  2  0  0  0  0
 60 98  4  0  0  0  0
 97 98  1  0  0  0  0
 59 99  1  0  0  0  0
 95 99  4  0  0  0  0
 98 99  4  0  0  0  0
 60100  1  0  0  0  0
 62101  1  0  0  0  0
 63102  1  0  0  0  0
 68103  1  0  0  0  0
 69104  1  0  0  0  0
 73105  1  0  0  0  0
 74106  1  0  0  0  0
 76107  1  0  0  0  0
 77108  1  0  0  0  0
 82109  1  0  0  0  0
 83110  1  0  0  0  0
 88111  1  0  0  0  0
 89112  1  0  0  0  0
 93113  1  0  0  0  0
 94114  1  0  0  0  0
 96115  1  0  0  0  0
 97116  1  0  0  0  0
117118  3  0  0  0  0
118119  4  0  0  0  0
 22120  4  0  0  0  0
119120  3  0  0  0  0
117121  4  0  0  0  0
121122  3  0  0  0  0
123124  3  0  0  0  0
124125  4  0  0  0  0
125126  3  0  0  0  0
123127  4  0  0  0  0
 80128  4  0  0  0  0
127128  3  0  0  0  0
122130  4  0  0  0  0
130131  4  0  0  0  0
131132  4  0  0  0  0
132133  2  0  0  0  0
133134  4  0  0  0  0
129135  1  0  0  0  0
131135  4  0  0  0  0
134135  4  0  0  0  0
134136  4  0  0  0  0
136137  1  0  0  0  0
137138  4  0  0  0  0
138139  4  0  0  0  0
139140  4  0  0  0  0
140141  1  0  0  0  0
141142  3  0  0  0  0
140143  4  0  0  0  0
137144  4  0  0  0  0
143144  4  0  0  0  0
136145  4  0  0  0  0
145146  4  0  0  0  0
146147  2  0  0  0  0
129148  1  0  0  0  0
145148  4  0  0  0  0
147149  4  0  0  0  0
148149  4  0  0  0  0
126150  4  0  0  0  0
149150  4  0  0  0  0
150151  4  0  0  0  0
151152  4  0  0  0  0
152153  2  0  0  0  0
153154  4  0  0  0  0
129155  1  0  0  0  0
151155  4  0  0  0  0
154155  4  0  0  0  0
154156  4  0  0  0  0
156157  1  0  0  0  0
157158  4  0  0  0  0
158159  4  0  0  0  0
159160  4  0  0  0  0
160161  1  0  0  0  0
161162  3  0  0  0  0
160163  4  0  0  0  0
157164  4  0  0  0  0
163164  4  0  0  0  0
156165  4  0  0  0  0
165166  4  0  0  0  0
166167  2  0  0  0  0
130168  4  0  0  0  0
167168  4  0  0  0  0
129169  1  0  0  0  0
165169  4  0  0  0  0
168169  4  0  0  0  0
132170  1  0  0  0  0
133171  1  0  0  0  0
138172  1  0  0  0  0
139173  1  0  0  0  0
143174  1  0  0  0  0
144175  1  0  0  0  0
146176  1  0  0  0  0
147177  1  0  0  0  0
152178  1  0  0  0  0
153179  1  0  0  0  0
158180  1  0  0  0  0
159181  1  0  0  0  0
163182  1  0  0  0  0
164183  1  0  0  0  0
166184  1  0  0  0  0
167185  1  0  0  0  0
M  END
