 xtb: 6.5.1 (b24c23e)
          07302201463D

219248  0     0  0            999 V2000
   33.9271    0.7023   -0.3130 Co  0  0  0  0  0  0  0  0  0  0  0  0
   30.9552    2.0391   -1.0752 C   0  0  0  0  0  0  0  0  0  0  0  0
   31.4486    2.2405    0.1983 C   0  0  0  0  0  0  0  0  0  0  0  0
   30.7275    2.9190    1.2327 C   0  0  0  0  0  0  0  0  0  0  0  0
   31.4378    2.7538    2.3739 C   0  0  0  0  0  0  0  0  0  0  0  0
   32.6284    2.0374    2.0226 C   0  0  0  0  0  0  0  0  0  0  0  0
   32.6106    1.7071    0.6923 N   0  0  0  0  0  0  0  0  0  0  0  0
   33.6962    1.8190    2.8830 C   0  0  0  0  0  0  0  0  0  0  0  0
   34.9199    1.3595    2.4201 C   0  0  0  0  0  0  0  0  0  0  0  0
   36.1320    1.4247    3.1795 C   0  0  0  0  0  0  0  0  0  0  0  0
   37.1394    1.0867    2.3382 C   0  0  0  0  0  0  0  0  0  0  0  0
   35.1831    0.9335    1.1402 N   0  0  0  0  0  0  0  0  0  0  0  0
   36.5349    0.7538    1.0867 C   0  0  0  0  0  0  0  0  0  0  0  0
   37.2363    0.1945    0.0135 C   0  0  0  0  0  0  0  0  0  0  0  0
   36.5688   -0.4050   -1.0613 C   0  0  0  0  0  0  0  0  0  0  0  0
   37.2027   -1.3045   -1.9743 C   0  0  0  0  0  0  0  0  0  0  0  0
   36.2211   -1.8353   -2.7430 C   0  0  0  0  0  0  0  0  0  0  0  0
   34.9987   -1.2031   -2.3479 C   0  0  0  0  0  0  0  0  0  0  0  0
   33.7971   -1.3303   -3.0254 C   0  0  0  0  0  0  0  0  0  0  0  0
   33.6773   -2.3044   -4.1439 C   0  0  0  0  0  0  0  0  0  0  0  0
   34.3649   -2.1116   -5.3494 C   0  0  0  0  0  0  0  0  0  0  0  0
   35.1325   -0.9922   -5.4249 O   0  0  0  0  0  0  0  0  0  0  0  0
   35.8754   -0.7095   -6.5932 C   0  0  0  0  0  0  0  0  0  0  0  0
   34.2317   -3.0294   -6.3909 C   0  0  0  0  0  0  0  0  0  0  0  0
   33.4114   -4.1348   -6.2235 C   0  0  0  0  0  0  0  0  0  0  0  0
   32.7166   -4.3434   -5.0417 C   0  0  0  0  0  0  0  0  0  0  0  0
   32.8461   -3.4236   -4.0015 C   0  0  0  0  0  0  0  0  0  0  0  0
   32.2103   -3.5406   -2.8066 O   0  0  0  0  0  0  0  0  0  0  0  0
   31.3416   -4.6278   -2.5611 C   0  0  0  0  0  0  0  0  0  0  0  0
   32.7232   -0.4873   -2.7647 C   0  0  0  0  0  0  0  0  0  0  0  0
   31.5895   -0.3486   -3.6304 C   0  0  0  0  0  0  0  0  0  0  0  0
   30.8521    0.6814   -3.1500 C   0  0  0  0  0  0  0  0  0  0  0  0
   31.5043    1.1311   -1.9572 C   0  0  0  0  0  0  0  0  0  0  0  0
   32.6569    0.4196   -1.7420 N   0  0  0  0  0  0  0  0  0  0  0  0
   35.2256   -0.3514   -1.2901 N   0  0  0  0  0  0  0  0  0  0  0  0
   33.5809    2.1981    4.3173 C   0  0  0  0  0  0  0  0  0  0  0  0
   33.5779    1.1993    5.3004 C   0  0  0  0  0  0  0  0  0  0  0  0
   33.6615   -0.0783    4.8466 O   0  0  0  0  0  0  0  0  0  0  0  0
   33.7048   -1.1600    5.7548 C   0  0  0  0  0  0  0  0  0  0  0  0
   33.4824    1.5378    6.6499 C   0  0  0  0  0  0  0  0  0  0  0  0
   33.4006    2.8741    7.0111 C   0  0  0  0  0  0  0  0  0  0  0  0
   33.4137    3.8800    6.0567 C   0  0  0  0  0  0  0  0  0  0  0  0
   33.5053    3.5417    4.7069 C   0  0  0  0  0  0  0  0  0  0  0  0
   33.5431    4.4563    3.7015 O   0  0  0  0  0  0  0  0  0  0  0  0
   33.4934    5.8391    3.9879 C   0  0  0  0  0  0  0  0  0  0  0  0
   30.0266    2.5263   -1.3497 H   0  0  0  0  0  0  0  0  0  0  0  0
   29.7829    3.4205    1.0915 H   0  0  0  0  0  0  0  0  0  0  0  0
   31.2021    3.1069    3.3645 H   0  0  0  0  0  0  0  0  0  0  0  0
   36.1948    1.7274    4.2124 H   0  0  0  0  0  0  0  0  0  0  0  0
   38.1970    1.0363    2.5412 H   0  0  0  0  0  0  0  0  0  0  0  0
   38.2583   -1.5239   -1.9862 H   0  0  0  0  0  0  0  0  0  0  0  0
   36.3108   -2.5657   -3.5303 H   0  0  0  0  0  0  0  0  0  0  0  0
   35.2210   -0.5744   -7.4629 H   0  0  0  0  0  0  0  0  0  0  0  0
   36.4072    0.2232   -6.3963 H   0  0  0  0  0  0  0  0  0  0  0  0
   36.6041   -1.5008   -6.8075 H   0  0  0  0  0  0  0  0  0  0  0  0
   34.7567   -2.8887   -7.3262 H   0  0  0  0  0  0  0  0  0  0  0  0
   33.3094   -4.8488   -7.0334 H   0  0  0  0  0  0  0  0  0  0  0  0
   32.0823   -5.2137   -4.9394 H   0  0  0  0  0  0  0  0  0  0  0  0
   30.9554   -4.4857   -1.5500 H   0  0  0  0  0  0  0  0  0  0  0  0
   30.5032   -4.6398   -3.2683 H   0  0  0  0  0  0  0  0  0  0  0  0
   31.8724   -5.5863   -2.6123 H   0  0  0  0  0  0  0  0  0  0  0  0
   31.4115   -0.9493   -4.5080 H   0  0  0  0  0  0  0  0  0  0  0  0
   29.9324    1.0920   -3.5363 H   0  0  0  0  0  0  0  0  0  0  0  0
   33.7978   -2.0625    5.1478 H   0  0  0  0  0  0  0  0  0  0  0  0
   32.7870   -1.2210    6.3523 H   0  0  0  0  0  0  0  0  0  0  0  0
   34.5695   -1.0864    6.4255 H   0  0  0  0  0  0  0  0  0  0  0  0
   33.4727    0.7740    7.4159 H   0  0  0  0  0  0  0  0  0  0  0  0
   33.3279    3.1379    8.0605 H   0  0  0  0  0  0  0  0  0  0  0  0
   33.3553    4.9144    6.3678 H   0  0  0  0  0  0  0  0  0  0  0  0
   34.3437    6.1521    4.6059 H   0  0  0  0  0  0  0  0  0  0  0  0
   33.5430    6.3505    3.0247 H   0  0  0  0  0  0  0  0  0  0  0  0
   32.5586    6.1124    4.4925 H   0  0  0  0  0  0  0  0  0  0  0  0
   55.3331   -0.2166    0.0908 Co  0  0  0  0  0  0  0  0  0  0  0  0
   58.3262   -1.4457    0.8762 C   0  0  0  0  0  0  0  0  0  0  0  0
   57.7746   -1.8117   -0.3359 C   0  0  0  0  0  0  0  0  0  0  0  0
   58.4441   -2.6231   -1.3078 C   0  0  0  0  0  0  0  0  0  0  0  0
   57.7048   -2.5616   -2.4417 C   0  0  0  0  0  0  0  0  0  0  0  0
   56.5455   -1.7750   -2.1405 C   0  0  0  0  0  0  0  0  0  0  0  0
   56.6096   -1.3089   -0.8543 N   0  0  0  0  0  0  0  0  0  0  0  0
   55.4626   -1.6008   -2.9940 C   0  0  0  0  0  0  0  0  0  0  0  0
   54.2550   -1.0976   -2.5343 C   0  0  0  0  0  0  0  0  0  0  0  0
   53.0148   -1.2269   -3.2376 C   0  0  0  0  0  0  0  0  0  0  0  0
   52.0339   -0.8778   -2.3681 C   0  0  0  0  0  0  0  0  0  0  0  0
   54.0320   -0.6001   -1.2726 N   0  0  0  0  0  0  0  0  0  0  0  0
   52.6803   -0.4668   -1.1619 C   0  0  0  0  0  0  0  0  0  0  0  0
   52.0132    0.1342   -0.0844 C   0  0  0  0  0  0  0  0  0  0  0  0
   52.7181    0.8910    0.8623 C   0  0  0  0  0  0  0  0  0  0  0  0
   52.1081    1.8560    1.7213 C   0  0  0  0  0  0  0  0  0  0  0  0
   53.1155    2.5277    2.3324 C   0  0  0  0  0  0  0  0  0  0  0  0
   54.3380    1.9212    1.9001 C   0  0  0  0  0  0  0  0  0  0  0  0
   55.5744    2.1711    2.4772 C   0  0  0  0  0  0  0  0  0  0  0  0
   55.6959    3.3109    3.4255 C   0  0  0  0  0  0  0  0  0  0  0  0
   55.6809    4.6227    2.9326 C   0  0  0  0  0  0  0  0  0  0  0  0
   55.5715    4.7469    1.5845 O   0  0  0  0  0  0  0  0  0  0  0  0
   55.5207    6.0254    0.9845 C   0  0  0  0  0  0  0  0  0  0  0  0
   55.7860    5.7053    3.8053 C   0  0  0  0  0  0  0  0  0  0  0  0
   55.8944    5.4716    5.1678 C   0  0  0  0  0  0  0  0  0  0  0  0
   55.8983    4.1826    5.6791 C   0  0  0  0  0  0  0  0  0  0  0  0
   55.7978    3.0995    4.8065 C   0  0  0  0  0  0  0  0  0  0  0  0
   55.7763    1.8024    5.2139 O   0  0  0  0  0  0  0  0  0  0  0  0
   55.8438    1.4827    6.5887 C   0  0  0  0  0  0  0  0  0  0  0  0
   56.6500    1.3129    2.2822 C   0  0  0  0  0  0  0  0  0  0  0  0
   57.8508    1.3177    3.0643 C   0  0  0  0  0  0  0  0  0  0  0  0
   58.5610    0.2222    2.7019 C   0  0  0  0  0  0  0  0  0  0  0  0
   57.8313   -0.4096    1.6440 C   0  0  0  0  0  0  0  0  0  0  0  0
   56.6633    0.2646    1.4002 N   0  0  0  0  0  0  0  0  0  0  0  0
   54.0757    0.9352    0.9798 N   0  0  0  0  0  0  0  0  0  0  0  0
   55.5414   -2.0846   -4.3989 C   0  0  0  0  0  0  0  0  0  0  0  0
   55.5415   -3.4537   -4.6943 C   0  0  0  0  0  0  0  0  0  0  0  0
   55.4692   -4.2922   -3.6268 O   0  0  0  0  0  0  0  0  0  0  0  0
   55.4357   -5.6922   -3.8167 C   0  0  0  0  0  0  0  0  0  0  0  0
   55.6008   -3.8880   -6.0182 C   0  0  0  0  0  0  0  0  0  0  0  0
   55.6597   -2.9516   -7.0394 C   0  0  0  0  0  0  0  0  0  0  0  0
   55.6563   -1.5912   -6.7708 C   0  0  0  0  0  0  0  0  0  0  0  0
   55.5921   -1.1566   -5.4472 C   0  0  0  0  0  0  0  0  0  0  0  0
   55.5838    0.1513   -5.0800 O   0  0  0  0  0  0  0  0  0  0  0  0
   55.6436    1.1704   -6.0570 C   0  0  0  0  0  0  0  0  0  0  0  0
   59.2643   -1.9013    1.1721 H   0  0  0  0  0  0  0  0  0  0  0  0
   59.3790   -3.1340   -1.1389 H   0  0  0  0  0  0  0  0  0  0  0  0
   57.9004   -3.0287   -3.3932 H   0  0  0  0  0  0  0  0  0  0  0  0
   52.9170   -1.5806   -4.2514 H   0  0  0  0  0  0  0  0  0  0  0  0
   50.9685   -0.8562   -2.5317 H   0  0  0  0  0  0  0  0  0  0  0  0
   51.0456    2.0184    1.8045 H   0  0  0  0  0  0  0  0  0  0  0  0
   53.0475    3.3355    3.0432 H   0  0  0  0  0  0  0  0  0  0  0  0
   56.4416    6.5924    1.1673 H   0  0  0  0  0  0  0  0  0  0  0  0
   55.4128    5.8533   -0.0880 H   0  0  0  0  0  0  0  0  0  0  0  0
   54.6614    6.6039    1.3447 H   0  0  0  0  0  0  0  0  0  0  0  0
   55.7827    6.7215    3.4343 H   0  0  0  0  0  0  0  0  0  0  0  0
   55.9750    6.3131    5.8471 H   0  0  0  0  0  0  0  0  0  0  0  0
   55.9773    4.0305    6.7473 H   0  0  0  0  0  0  0  0  0  0  0  0
   55.7988    0.3938    6.6498 H   0  0  0  0  0  0  0  0  0  0  0  0
   56.7827    1.8297    7.0370 H   0  0  0  0  0  0  0  0  0  0  0  0
   54.9985    1.9097    7.1421 H   0  0  0  0  0  0  0  0  0  0  0  0
   58.0928    2.0521    3.8151 H   0  0  0  0  0  0  0  0  0  0  0  0
   59.5118   -0.1205    3.0791 H   0  0  0  0  0  0  0  0  0  0  0  0
   55.3693   -6.1323   -2.8200 H   0  0  0  0  0  0  0  0  0  0  0  0
   56.3466   -6.0533   -4.3096 H   0  0  0  0  0  0  0  0  0  0  0  0
   54.5608   -5.9967   -4.4039 H   0  0  0  0  0  0  0  0  0  0  0  0
   55.5998   -4.9428   -6.2580 H   0  0  0  0  0  0  0  0  0  0  0  0
   55.7073   -3.2902   -8.0687 H   0  0  0  0  0  0  0  0  0  0  0  0
   55.7012   -0.8833   -7.5876 H   0  0  0  0  0  0  0  0  0  0  0  0
   54.7822    1.1285   -6.7349 H   0  0  0  0  0  0  0  0  0  0  0  0
   55.6244    2.1156   -5.5114 H   0  0  0  0  0  0  0  0  0  0  0  0
   56.5688    1.1115   -6.6431 H   0  0  0  0  0  0  0  0  0  0  0  0
   38.6357    0.1020    0.0778 C   0  0  0  0  0  0  0  0  0  0  0  0
   39.8504    0.0200    0.1123 C   0  0  0  0  0  0  0  0  0  0  0  0
   49.4026   -0.0260    0.0485 C   0  0  0  0  0  0  0  0  0  0  0  0
   50.6146    0.0823   -0.0282 C   0  0  0  0  0  0  0  0  0  0  0  0
   44.6272   -0.2880    0.1996 Co  0  0  0  0  0  0  0  0  0  0  0  0
   41.2488   -0.0964    0.1469 C   0  0  0  0  0  0  0  0  0  0  0  0
   41.9090   -0.0488    1.3800 C   0  0  0  0  0  0  0  0  0  0  0  0
   41.2414    0.0013    2.6419 C   0  0  0  0  0  0  0  0  0  0  0  0
   42.2031    0.1505    3.5855 C   0  0  0  0  0  0  0  0  0  0  0  0
   43.4523    0.2244    2.8913 C   0  0  0  0  0  0  0  0  0  0  0  0
   43.2614    0.0242    1.5425 N   0  0  0  0  0  0  0  0  0  0  0  0
   44.6448    0.6357    3.4662 C   0  0  0  0  0  0  0  0  0  0  0  0
   45.8124    0.7587    2.7253 C   0  0  0  0  0  0  0  0  0  0  0  0
   47.0260    1.3337    3.2169 C   0  0  0  0  0  0  0  0  0  0  0  0
   47.9607    1.1583    2.2504 C   0  0  0  0  0  0  0  0  0  0  0  0
   45.9940    0.2713    1.4542 N   0  0  0  0  0  0  0  0  0  0  0  0
   47.3198    0.4591    1.1822 C   0  0  0  0  0  0  0  0  0  0  0  0
   48.0083   -0.1451    0.1243 C   0  0  0  0  0  0  0  0  0  0  0  0
   47.3403   -0.9219   -0.8323 C   0  0  0  0  0  0  0  0  0  0  0  0
   48.0002   -1.7221   -1.8146 C   0  0  0  0  0  0  0  0  0  0  0  0
   47.0360   -2.2021   -2.6378 C   0  0  0  0  0  0  0  0  0  0  0  0
   45.7937   -1.6641   -2.1737 C   0  0  0  0  0  0  0  0  0  0  0  0
   44.6110   -1.6848   -2.8955 C   0  0  0  0  0  0  0  0  0  0  0  0
   44.5861   -2.3105   -4.2434 C   0  0  0  0  0  0  0  0  0  0  0  0
   43.7827   -3.4345   -4.4836 C   0  0  0  0  0  0  0  0  0  0  0  0
   43.0813   -3.9015   -3.4186 O   0  0  0  0  0  0  0  0  0  0  0  0
   42.2048   -5.0009   -3.5611 C   0  0  0  0  0  0  0  0  0  0  0  0
   43.7465   -4.0186   -5.7493 C   0  0  0  0  0  0  0  0  0  0  0  0
   44.5068   -3.4730   -6.7725 C   0  0  0  0  0  0  0  0  0  0  0  0
   45.3040   -2.3584   -6.5607 C   0  0  0  0  0  0  0  0  0  0  0  0
   45.3451   -1.7760   -5.2943 C   0  0  0  0  0  0  0  0  0  0  0  0
   46.0805   -0.6729   -4.9979 O   0  0  0  0  0  0  0  0  0  0  0  0
   46.9035   -0.0721   -5.9770 C   0  0  0  0  0  0  0  0  0  0  0  0
   43.4495   -1.0914   -2.4164 C   0  0  0  0  0  0  0  0  0  0  0  0
   42.2440   -0.9429   -3.1715 C   0  0  0  0  0  0  0  0  0  0  0  0
   41.3068   -0.4566   -2.3204 C   0  0  0  0  0  0  0  0  0  0  0  0
   41.9404   -0.3259   -1.0465 C   0  0  0  0  0  0  0  0  0  0  0  0
   43.2643   -0.6553   -1.1280 N   0  0  0  0  0  0  0  0  0  0  0  0
   45.9895   -0.9465   -1.0139 N   0  0  0  0  0  0  0  0  0  0  0  0
   44.6732    1.0051    4.9058 C   0  0  0  0  0  0  0  0  0  0  0  0
   45.4298    0.2458    5.8095 C   0  0  0  0  0  0  0  0  0  0  0  0
   46.0866   -0.8203    5.2840 O   0  0  0  0  0  0  0  0  0  0  0  0
   46.8995   -1.6381    6.1010 C   0  0  0  0  0  0  0  0  0  0  0  0
   45.4655    0.5878    7.1609 C   0  0  0  0  0  0  0  0  0  0  0  0
   44.7519    1.6919    7.6021 C   0  0  0  0  0  0  0  0  0  0  0  0
   44.0025    2.4620    6.7257 C   0  0  0  0  0  0  0  0  0  0  0  0
   43.9615    2.1180    5.3749 C   0  0  0  0  0  0  0  0  0  0  0  0
   43.2700    2.8200    4.4397 O   0  0  0  0  0  0  0  0  0  0  0  0
   42.4998    3.9456    4.8096 C   0  0  0  0  0  0  0  0  0  0  0  0
   40.1742   -0.0760    2.7744 H   0  0  0  0  0  0  0  0  0  0  0  0
   42.0871    0.2316    4.6540 H   0  0  0  0  0  0  0  0  0  0  0  0
   47.1369    1.8066    4.1793 H   0  0  0  0  0  0  0  0  0  0  0  0
   48.9993    1.4463    2.2594 H   0  0  0  0  0  0  0  0  0  0  0  0
   49.0639   -1.8930   -1.8526 H   0  0  0  0  0  0  0  0  0  0  0  0
   47.1469   -2.8397   -3.4997 H   0  0  0  0  0  0  0  0  0  0  0  0
   41.4197   -4.7950   -4.2988 H   0  0  0  0  0  0  0  0  0  0  0  0
   41.7461   -5.1517   -2.5821 H   0  0  0  0  0  0  0  0  0  0  0  0
   42.7443   -5.9110   -3.8501 H   0  0  0  0  0  0  0  0  0  0  0  0
   43.1339   -4.8891   -5.9424 H   0  0  0  0  0  0  0  0  0  0  0  0
   44.4763   -3.9255   -7.7576 H   0  0  0  0  0  0  0  0  0  0  0  0
   45.8825   -1.9502   -7.3787 H   0  0  0  0  0  0  0  0  0  0  0  0
   47.3991    0.7660   -5.4834 H   0  0  0  0  0  0  0  0  0  0  0  0
   46.3141    0.3048   -6.8217 H   0  0  0  0  0  0  0  0  0  0  0  0
   47.6626   -0.7715   -6.3478 H   0  0  0  0  0  0  0  0  0  0  0  0
   42.1388   -1.1853   -4.2167 H   0  0  0  0  0  0  0  0  0  0  0  0
   40.2737   -0.2207   -2.5192 H   0  0  0  0  0  0  0  0  0  0  0  0
   46.3142   -2.1284    6.8884 H   0  0  0  0  0  0  0  0  0  0  0  0
   47.3226   -2.3989    5.4425 H   0  0  0  0  0  0  0  0  0  0  0  0
   47.7143   -1.0643    6.5588 H   0  0  0  0  0  0  0  0  0  0  0  0
   46.0415    0.0047    7.8669 H   0  0  0  0  0  0  0  0  0  0  0  0
   44.7816    1.9592    8.6527 H   0  0  0  0  0  0  0  0  0  0  0  0
   43.4601    3.3212    7.0968 H   0  0  0  0  0  0  0  0  0  0  0  0
   43.1262    4.7395    5.2344 H   0  0  0  0  0  0  0  0  0  0  0  0
   41.7167    3.6775    5.5292 H   0  0  0  0  0  0  0  0  0  0  0  0
   42.0340    4.3090    3.8918 H   0  0  0  0  0  0  0  0  0  0  0  0
  2  3  4  0  0  0  0
  3  4  1  0  0  0  0
  4  5  2  0  0  0  0
  5  6  4  0  0  0  0
  1  7  1  0  0  0  0
  3  7  4  0  0  0  0
  6  7  4  0  0  0  0
  6  8  4  0  0  0  0
  8  9  4  0  0  0  0
  9 10  4  0  0  0  0
 10 11  2  0  0  0  0
  1 12  1  0  0  0  0
  9 12  4  0  0  0  0
 11 13  4  0  0  0  0
 12 13  4  0  0  0  0
 13 14  4  0  0  0  0
 14 15  4  0  0  0  0
 15 16  4  0  0  0  0
 16 17  2  0  0  0  0
 17 18  4  0  0  0  0
 18 19  4  0  0  0  0
 19 20  1  0  0  0  0
 20 21  4  0  0  0  0
 21 22  1  0  0  0  0
 22 23  1  0  0  0  0
 21 24  4  0  0  0  0
 24 25  4  0  0  0  0
 25 26  4  0  0  0  0
 20 27  4  0  0  0  0
 26 27  4  0  0  0  0
 27 28  1  0  0  0  0
 28 29  1  0  0  0  0
 19 30  4  0  0  0  0
 30 31  4  0  0  0  0
 31 32  2  0  0  0  0
  2 33  4  0  0  0  0
 32 33  1  0  0  0  0
  1 34  1  0  0  0  0
 30 34  4  0  0  0  0
 33 34  4  0  0  0  0
  1 35  1  0  0  0  0
 15 35  4  0  0  0  0
 18 35  4  0  0  0  0
  8 36  1  0  0  0  0
 36 37  4  0  0  0  0
 37 38  1  0  0  0  0
 38 39  1  0  0  0  0
 37 40  4  0  0  0  0
 40 41  4  0  0  0  0
 41 42  4  0  0  0  0
 36 43  4  0  0  0  0
 42 43  4  0  0  0  0
 43 44  1  0  0  0  0
 44 45  1  0  0  0  0
  2 46  1  0  0  0  0
  4 47  1  0  0  0  0
  5 48  1  0  0  0  0
 10 49  1  0  0  0  0
 11 50  1  0  0  0  0
 16 51  1  0  0  0  0
 17 52  1  0  0  0  0
 23 53  1  0  0  0  0
 23 54  1  0  0  0  0
 23 55  1  0  0  0  0
 24 56  1  0  0  0  0
 25 57  1  0  0  0  0
 26 58  1  0  0  0  0
 29 59  1  0  0  0  0
 29 60  1  0  0  0  0
 29 61  1  0  0  0  0
 31 62  1  0  0  0  0
 32 63  1  0  0  0  0
 39 64  1  0  0  0  0
 39 65  1  0  0  0  0
 39 66  1  0  0  0  0
 40 67  1  0  0  0  0
 41 68  1  0  0  0  0
 42 69  1  0  0  0  0
 45 70  1  0  0  0  0
 45 71  1  0  0  0  0
 45 72  1  0  0  0  0
 74 75  4  0  0  0  0
 75 76  1  0  0  0  0
 76 77  2  0  0  0  0
 77 78  4  0  0  0  0
 73 79  1  0  0  0  0
 75 79  4  0  0  0  0
 78 79  4  0  0  0  0
 78 80  4  0  0  0  0
 80 81  4  0  0  0  0
 81 82  4  0  0  0  0
 82 83  2  0  0  0  0
 73 84  1  0  0  0  0
 81 84  4  0  0  0  0
 83 85  4  0  0  0  0
 84 85  4  0  0  0  0
 85 86  4  0  0  0  0
 86 87  4  0  0  0  0
 87 88  4  0  0  0  0
 88 89  2  0  0  0  0
 89 90  4  0  0  0  0
 90 91  4  0  0  0  0
 91 92  1  0  0  0  0
 92 93  4  0  0  0  0
 93 94  1  0  0  0  0
 94 95  1  0  0  0  0
 93 96  4  0  0  0  0
 96 97  4  0  0  0  0
 97 98  4  0  0  0  0
 92 99  4  0  0  0  0
 98 99  4  0  0  0  0
 99100  1  0  0  0  0
100101  1  0  0  0  0
 91102  4  0  0  0  0
102103  4  0  0  0  0
103104  2  0  0  0  0
 74105  4  0  0  0  0
104105  1  0  0  0  0
 73106  1  0  0  0  0
102106  4  0  0  0  0
105106  4  0  0  0  0
 73107  1  0  0  0  0
 87107  4  0  0  0  0
 90107  4  0  0  0  0
 80108  1  0  0  0  0
108109  4  0  0  0  0
109110  1  0  0  0  0
110111  1  0  0  0  0
109112  4  0  0  0  0
112113  4  0  0  0  0
113114  4  0  0  0  0
108115  4  0  0  0  0
114115  4  0  0  0  0
115116  1  0  0  0  0
116117  1  0  0  0  0
 74118  1  0  0  0  0
 76119  1  0  0  0  0
 77120  1  0  0  0  0
 82121  1  0  0  0  0
 83122  1  0  0  0  0
 88123  1  0  0  0  0
 89124  1  0  0  0  0
 95125  1  0  0  0  0
 95126  1  0  0  0  0
 95127  1  0  0  0  0
 96128  1  0  0  0  0
 97129  1  0  0  0  0
 98130  1  0  0  0  0
101131  1  0  0  0  0
101132  1  0  0  0  0
101133  1  0  0  0  0
103134  1  0  0  0  0
104135  1  0  0  0  0
111136  1  0  0  0  0
111137  1  0  0  0  0
111138  1  0  0  0  0
112139  1  0  0  0  0
113140  1  0  0  0  0
114141  1  0  0  0  0
117142  1  0  0  0  0
117143  1  0  0  0  0
117144  1  0  0  0  0
 14145  4  0  0  0  0
145146  3  0  0  0  0
 86148  4  0  0  0  0
147148  3  0  0  0  0
146150  4  0  0  0  0
150151  4  0  0  0  0
151152  4  0  0  0  0
152153  2  0  0  0  0
153154  4  0  0  0  0
149155  1  0  0  0  0
151155  4  0  0  0  0
154155  4  0  0  0  0
154156  4  0  0  0  0
156157  4  0  0  0  0
157158  4  0  0  0  0
158159  2  0  0  0  0
149160  1  0  0  0  0
157160  4  0  0  0  0
159161  4  0  0  0  0
160161  4  0  0  0  0
147162  4  0  0  0  0
161162  4  0  0  0  0
162163  4  0  0  0  0
163164  4  0  0  0  0
164165  2  0  0  0  0
165166  4  0  0  0  0
166167  4  0  0  0  0
167168  1  0  0  0  0
168169  4  0  0  0  0
169170  1  0  0  0  0
170171  1  0  0  0  0
169172  4  0  0  0  0
172173  4  0  0  0  0
173174  4  0  0  0  0
168175  4  0  0  0  0
174175  4  0  0  0  0
175176  1  0  0  0  0
176177  1  0  0  0  0
167178  4  0  0  0  0
178179  4  0  0  0  0
179180  2  0  0  0  0
150181  4  0  0  0  0
180181  4  0  0  0  0
149182  1  0  0  0  0
178182  4  0  0  0  0
181182  4  0  0  0  0
149183  1  0  0  0  0
163183  4  0  0  0  0
166183  4  0  0  0  0
156184  1  0  0  0  0
184185  4  0  0  0  0
185186  1  0  0  0  0
186187  1  0  0  0  0
185188  4  0  0  0  0
188189  4  0  0  0  0
189190  4  0  0  0  0
184191  4  0  0  0  0
190191  4  0  0  0  0
191192  1  0  0  0  0
192193  1  0  0  0  0
152194  1  0  0  0  0
153195  1  0  0  0  0
158196  1  0  0  0  0
159197  1  0  0  0  0
164198  1  0  0  0  0
165199  1  0  0  0  0
171200  1  0  0  0  0
171201  1  0  0  0  0
171202  1  0  0  0  0
172203  1  0  0  0  0
173204  1  0  0  0  0
174205  1  0  0  0  0
177206  1  0  0  0  0
177207  1  0  0  0  0
177208  1  0  0  0  0
179209  1  0  0  0  0
180210  1  0  0  0  0
187211  1  0  0  0  0
187212  1  0  0  0  0
187213  1  0  0  0  0
188214  1  0  0  0  0
189215  1  0  0  0  0
190216  1  0  0  0  0
193217  1  0  0  0  0
193218  1  0  0  0  0
193219  1  0  0  0  0
M  END
