262

C 41.731293 -0.614501 0.570344
C 42.421838 -1.254376 -0.673979
C 41.772745 -1.782682 -1.763867
C 42.769363 -2.257810 -2.653446
C 43.994530 -2.014999 -2.073116
N 43.771832 -1.364738 -0.883395
C 45.417776 -2.427680 -2.642706
C 45.472733 -3.307740 -3.842547
C 46.039257 -2.796901 -5.026857
C 46.100234 -3.585022 -6.168146
O 46.655618 -3.127971 -7.329831
C 45.579603 -4.870080 -6.150744
O 45.626846 -5.643151 -7.281536
C 44.992793 -5.377025 -4.993491
O 44.456455 -6.634216 -5.008912
C 44.939673 -4.608355 -3.834457
C 46.547844 -1.935461 -2.058642
C 47.868336 -2.393808 -2.438841
C 48.766496 -1.743390 -1.709433
N 46.730615 -1.008634 -1.066209
C 48.068075 -0.824667 -0.833962
C 48.730771 0.012412 0.008617
C 47.938051 1.056927 0.901965
C 48.428790 2.252830 1.388675
C 47.412481 2.849253 2.177242
C 46.320733 2.008893 2.135126
N 46.634733 0.943590 1.322036
C 44.935588 2.219862 2.872925
C 44.858078 3.250438 3.932387
C 45.331477 2.997869 5.230479
C 45.244049 3.994920 6.189755
O 45.694306 3.769770 7.460074
C 44.699430 5.232062 5.866409
O 44.620467 6.203303 6.831030
C 44.242942 5.491640 4.578602
O 43.727832 6.732645 4.322516
C 44.317552 4.507969 3.605756
C 43.844253 1.511663 2.476119
C 42.557352 1.612140 3.143628
C 41.694817 0.820234 2.513824
C 42.393124 0.200845 1.413355
N 43.686522 0.618527 1.455072
H 40.680596 -0.823011 0.736670
H 40.703121 -1.819805 -1.905857
H 42.608273 -2.736531 -3.607811
H 44.498105 -0.994574 -0.278805
H 46.421183 -1.776774 -5.014864
H 46.969576 -2.230727 -7.137181
H 46.112736 -5.081009 -7.909289
H 44.697944 -6.968912 -5.889600
H 44.477670 -4.999929 -2.931606
H 48.096391 -3.159198 -3.157674
H 49.826394 -1.898277 -1.773129
H 49.413672 2.656297 1.201349
H 47.474163 3.784905 2.713258
H 45.976441 0.218948 1.040556
H 45.760909 2.028797 5.469023
H 45.524388 4.610615 7.924571
H 44.205328 6.956575 6.354964
H 43.494353 6.748760 3.374949
H 43.962102 4.671824 2.590338
H 42.333068 2.206112 4.011038
H 40.660490 0.673301 2.770154
C 93.040600 -0.687703 0.475946
C 92.350055 0.358142 1.405456
C 92.999148 1.282190 2.188463
C 92.002530 2.025475 2.870097
C 90.777363 1.523865 2.490455
N 91.000060 0.533489 1.564479
C 89.354117 1.972782 3.031945
C 89.299159 2.915750 4.183004
C 88.732635 4.189949 3.983090
C 88.671659 5.099096 5.030527
O 88.116274 6.337991 4.877075
C 89.192290 4.762319 6.270793
O 89.145047 5.665047 7.301040
C 89.779099 3.515296 6.473671
O 90.315438 3.217246 7.695118
C 89.832220 2.584119 5.440655
C 88.224049 1.529648 2.409817
C 86.903557 1.783769 2.948387
C 86.005396 1.239252 2.136856
N 88.041278 0.799202 1.265100
C 86.703818 0.620067 1.029106
C 86.041121 0.012412 0.008617
C 86.833842 -0.592771 -1.225416
C 86.343102 -0.766429 -2.504835
C 87.359412 -1.381685 -3.278798
C 88.451160 -1.550107 -2.454411
N 88.137160 -1.027831 -1.220226
C 89.836305 -2.212155 -2.842417
C 89.913814 -2.981691 -4.104304
C 89.440415 -4.301791 -4.182856
C 89.527844 -4.982643 -5.387332
O 89.077587 -6.269017 -5.485524
C 90.072463 -4.361483 -6.505023
O 90.151426 -5.053937 -7.685832
C 90.528951 -3.049599 -6.435821
O 91.044061 -2.492621 -7.573999
C 90.454341 -2.352275 -5.240926
C 90.927640 -2.004153 -2.057729
C 92.214541 -2.625631 -2.321222
C 93.077076 -2.212806 -1.397456
C 92.378769 -1.301186 -0.523600
N 91.085371 -1.237604 -0.938518
H 94.091296 -0.900701 0.636484
H 94.068772 1.410468 2.259766
H 92.163619 2.830611 3.571341
H 90.273788 0.040089 1.055454
H 88.350709 4.432300 2.992096
H 87.802317 6.374781 3.960120
H 88.659157 6.412984 6.912881
H 90.073949 3.986881 8.238529
H 90.294223 1.612209 5.595130
H 86.675502 2.289421 3.868635
H 84.945499 1.262382 2.302724
H 85.358220 -0.484555 -2.848962
H 87.297730 -1.667888 -4.318434
H 88.795451 -0.935618 -0.448323
H 89.010984 -4.774081 -3.303682
H 89.247504 -6.509556 -6.415534
H 90.566564 -4.405328 -8.296868
H 91.277540 -1.570876 -7.353704
H 90.809791 -1.328034 -5.146827
H 92.438824 -3.317857 -3.112440
H 94.111403 -2.497645 -1.318964
C 52.546345 0.025144 0.011142
C 51.294074 0.005963 0.006794
C 53.860013 0.024378 0.013075
C 55.363147 0.005963 0.006794
C 66.646716 0.025144 0.011142
C 65.394445 0.005963 0.006794
C 67.960384 0.024378 0.013075
C 69.463517 0.005963 0.006794
C 80.747086 0.025144 0.011142
C 79.494816 0.005963 0.006794
C 82.060754 0.024378 0.013075
C 83.563888 0.005963 0.006794
C 56.775227 -0.013190 -0.009413
C 57.559660 -1.359862 0.284072
C 57.025123 -2.529313 0.788657
C 58.062540 -3.494815 0.811248
C 59.202923 -2.882360 0.332665
N 58.903678 -1.565259 0.082639
C 60.604334 -3.574376 0.092325
C 60.611643 -5.038027 -0.135240
C 60.938310 -5.919131 0.913022
C 60.946556 -7.297020 0.688127
O 61.275802 -8.158236 1.703831
C 60.624824 -7.794131 -0.575313
O 60.625388 -9.140748 -0.829661
C 60.299347 -6.915698 -1.615907
O 59.997456 -7.451478 -2.847461
C 60.288605 -5.540572 -1.406423
C 61.740066 -2.831483 0.023021
C 63.031392 -3.426490 -0.254782
C 63.938333 -2.458159 -0.294533
N 61.947940 -1.485972 0.154519
C 63.274258 -1.196470 -0.032083
C 63.943608 -0.013190 -0.009413
C 63.161008 1.333906 0.282239
C 63.694734 2.497702 0.803329
C 62.659944 3.466409 0.819577
C 61.520735 2.860473 0.323401
N 61.821613 1.547573 0.054633
C 60.114395 3.550141 0.096496
C 60.072236 5.029590 0.042374
C 60.348677 5.722537 -1.147621
C 60.287209 7.110559 -1.154508
O 60.544975 7.800320 -2.308449
C 59.958962 7.806749 0.007532
O 59.895594 9.176261 -0.022518
C 59.693696 7.123448 1.189756
O 59.375216 7.854437 2.305072
C 59.749007 5.736620 1.216675
C 58.982143 2.802441 0.001276
C 57.684378 3.400617 -0.248064
C 56.777172 2.431567 -0.285268
C 57.447289 1.167701 -0.051264
N 58.779693 1.453329 0.098138
H 55.996819 -2.682635 1.083267
H 57.979755 -4.526983 1.122713
H 59.575038 -0.851591 -0.188872
H 61.187450 -5.497259 1.886075
H 61.531301 -7.618143 2.474773
H 60.380032 -9.193272 -1.776016
H 59.817541 -6.694149 -3.437561
H 60.042246 -4.837161 -2.200159
H 63.234034 -4.470469 -0.415448
H 64.984308 -2.607251 -0.491765
H 64.719629 2.645326 1.115678
H 62.744409 4.494048 1.141663
H 61.150271 0.837619 -0.229489
H 60.599216 5.169930 -2.050788
H 60.401236 8.734437 -2.057994
H 59.639180 9.403434 0.896670
H 59.229956 7.206873 3.020005
H 59.540832 5.168614 2.120318
H 57.480624 4.446441 -0.397039
H 55.726866 2.581267 -0.457239
C 70.875598 -0.013190 -0.009413
C 71.660031 -1.359862 0.284072
C 71.125493 -2.529313 0.788657
C 72.162911 -3.494815 0.811248
C 73.303294 -2.882360 0.332665
N 73.004048 -1.565259 0.082639
C 74.704705 -3.574376 0.092325
C 74.712013 -5.038027 -0.135240
C 75.038681 -5.919131 0.913022
C 75.046927 -7.297020 0.688127
O 75.376173 -8.158236 1.703831
C 74.725194 -7.794131 -0.575313
O 74.725758 -9.140748 -0.829661
C 74.399718 -6.915698 -1.615907
O 74.097827 -7.451478 -2.847461
C 74.388975 -5.540572 -1.406423
C 75.840436 -2.831483 0.023021
C 77.131762 -3.426490 -0.254782
C 78.038704 -2.458159 -0.294533
N 76.048311 -1.485972 0.154519
C 77.374629 -1.196470 -0.032083
C 78.043979 -0.013190 -0.009413
C 77.261379 1.333906 0.282239
C 77.795105 2.497702 0.803329
C 76.760314 3.466409 0.819577
C 75.621106 2.860473 0.323401
N 75.921984 1.547573 0.054633
C 74.214766 3.550141 0.096496
C 74.172607 5.029590 0.042374
C 74.449048 5.722537 -1.147621
C 74.387580 7.110559 -1.154508
O 74.645345 7.800320 -2.308449
C 74.059333 7.806749 0.007532
O 73.995965 9.176261 -0.022518
C 73.794067 7.123448 1.189756
O 73.475587 7.854437 2.305072
C 73.849378 5.736620 1.216675
C 73.082514 2.802441 0.001276
C 71.784749 3.400617 -0.248064
C 70.877543 2.431567 -0.285268
C 71.547660 1.167701 -0.051264
N 72.880064 1.453329 0.098138
H 70.097189 -2.682635 1.083267
H 72.080126 -4.526983 1.122713
H 73.675408 -0.851591 -0.188872
H 75.287821 -5.497259 1.886075
H 75.631671 -7.618143 2.474773
H 74.480403 -9.193272 -1.776016
H 73.917912 -6.694149 -3.437561
H 74.142617 -4.837161 -2.200159
H 77.334405 -4.470469 -0.415448
H 79.084678 -2.607251 -0.491765
H 78.820000 2.645326 1.115678
H 76.844780 4.494048 1.141663
H 75.250642 0.837619 -0.229489
H 74.699586 5.169930 -2.050788
H 74.501606 8.734437 -2.057994
H 73.739550 9.403434 0.896670
H 73.330327 7.206873 3.020005
H 73.641203 5.168614 2.120318
H 71.580994 4.446441 -0.397039
H 69.827236 2.581267 -0.457239
