 xtb: 6.5.1 (b24c23e)
          07292214403D

262289  0     0  0            999 V2000
   43.8478   -0.2888    0.1124 C   0  0  0  0  0  0  0  0  0  0  0  0
   44.4551   -1.0626   -0.8680 C   0  0  0  0  0  0  0  0  0  0  0  0
   43.8015   -1.8542   -1.8539 C   0  0  0  0  0  0  0  0  0  0  0  0
   44.7626   -2.4573   -2.6150 C   0  0  0  0  0  0  0  0  0  0  0  0
   46.0353   -2.0657   -2.1092 C   0  0  0  0  0  0  0  0  0  0  0  0
   45.7983   -1.2154   -1.0664 N   0  0  0  0  0  0  0  0  0  0  0  0
   47.2989   -2.4523   -2.5697 C   0  0  0  0  0  0  0  0  0  0  0  0
   47.3349   -3.4031   -3.7085 C   0  0  0  0  0  0  0  0  0  0  0  0
   47.9569   -3.0266   -4.9024 C   0  0  0  0  0  0  0  0  0  0  0  0
   47.9830   -3.9082   -5.9754 C   0  0  0  0  0  0  0  0  0  0  0  0
   48.5656   -3.6054   -7.1782 O   0  0  0  0  0  0  0  0  0  0  0  0
   47.3986   -5.1672   -5.8636 C   0  0  0  0  0  0  0  0  0  0  0  0
   47.4121   -6.0562   -6.9061 O   0  0  0  0  0  0  0  0  0  0  0  0
   46.7818   -5.5464   -4.6702 C   0  0  0  0  0  0  0  0  0  0  0  0
   46.2196   -6.7756   -4.5698 O   0  0  0  0  0  0  0  0  0  0  0  0
   46.7471   -4.6634   -3.5971 C   0  0  0  0  0  0  0  0  0  0  0  0
   48.5134   -2.0080   -2.0397 C   0  0  0  0  0  0  0  0  0  0  0  0
   49.8115   -2.4975   -2.4682 C   0  0  0  0  0  0  0  0  0  0  0  0
   50.7312   -1.8348   -1.7363 C   0  0  0  0  0  0  0  0  0  0  0  0
   48.6663   -1.0820   -1.0541 N   0  0  0  0  0  0  0  0  0  0  0  0
   49.9941   -0.9452   -0.8601 C   0  0  0  0  0  0  0  0  0  0  0  0
   50.6285   -0.0531    0.0271 C   0  0  0  0  0  0  0  0  0  0  0  0
   49.9908    0.8216    0.9261 C   0  0  0  0  0  0  0  0  0  0  0  0
   50.6303    1.7536    1.7860 C   0  0  0  0  0  0  0  0  0  0  0  0
   49.6633    2.3843    2.5185 C   0  0  0  0  0  0  0  0  0  0  0  0
   48.4025    1.8474    2.1362 C   0  0  0  0  0  0  0  0  0  0  0  0
   48.6516    0.9182    1.1607 N   0  0  0  0  0  0  0  0  0  0  0  0
   47.1428    2.1916    2.6381 C   0  0  0  0  0  0  0  0  0  0  0  0
   47.1077    3.1937    3.7313 C   0  0  0  0  0  0  0  0  0  0  0  0
   47.7705    2.9452    4.9338 C   0  0  0  0  0  0  0  0  0  0  0  0
   47.7321    3.8833    5.9587 C   0  0  0  0  0  0  0  0  0  0  0  0
   48.3660    3.6477    7.1333 O   0  0  0  0  0  0  0  0  0  0  0  0
   47.0357    5.0798    5.7805 C   0  0  0  0  0  0  0  0  0  0  0  0
   47.0182    5.9875    6.8067 O   0  0  0  0  0  0  0  0  0  0  0  0
   46.3776    5.3297    4.5789 C   0  0  0  0  0  0  0  0  0  0  0  0
   45.7201    6.5275    4.4759 O   0  0  0  0  0  0  0  0  0  0  0  0
   46.4078    4.3908    3.5555 C   0  0  0  0  0  0  0  0  0  0  0  0
   45.9306    1.6577    2.1868 C   0  0  0  0  0  0  0  0  0  0  0  0
   44.6327    1.9663    2.7669 C   0  0  0  0  0  0  0  0  0  0  0  0
   43.7212    1.2707    2.0574 C   0  0  0  0  0  0  0  0  0  0  0  0
   44.4615    0.5301    1.0514 C   0  0  0  0  0  0  0  0  0  0  0  0
   45.7893    0.7780    1.1672 N   0  0  0  0  0  0  0  0  0  0  0  0
   42.7635   -0.3314    0.1375 H   0  0  0  0  0  0  0  0  0  0  0  0
   42.7317   -1.9364   -1.9611 H   0  0  0  0  0  0  0  0  0  0  0  0
   44.6090   -3.1124   -3.4571 H   0  0  0  0  0  0  0  0  0  0  0  0
   46.5243   -0.7642   -0.5201 H   0  0  0  0  0  0  0  0  0  0  0  0
   48.4012   -2.0431   -5.0010 H   0  0  0  0  0  0  0  0  0  0  0  0
   48.9434   -2.7162   -7.1626 H   0  0  0  0  0  0  0  0  0  0  0  0
   47.8768   -5.6387   -7.6488 H   0  0  0  0  0  0  0  0  0  0  0  0
   46.3468   -7.2392   -5.4140 H   0  0  0  0  0  0  0  0  0  0  0  0
   46.2810   -4.9755   -2.6714 H   0  0  0  0  0  0  0  0  0  0  0  0
   49.9749   -3.2587   -3.2138 H   0  0  0  0  0  0  0  0  0  0  0  0
   51.8053   -1.9255   -1.7635 H   0  0  0  0  0  0  0  0  0  0  0  0
   51.6951    1.9173    1.8274 H   0  0  0  0  0  0  0  0  0  0  0  0
   49.8070    3.1585    3.2544 H   0  0  0  0  0  0  0  0  0  0  0  0
   47.9328    0.3804    0.6878 H   0  0  0  0  0  0  0  0  0  0  0  0
   48.2987    2.0135    5.0903 H   0  0  0  0  0  0  0  0  0  0  0  0
   48.2183    4.4094    7.7178 H   0  0  0  0  0  0  0  0  0  0  0  0
   46.4922    6.7514    6.5207 H   0  0  0  0  0  0  0  0  0  0  0  0
   45.2865    6.6084    3.6162 H   0  0  0  0  0  0  0  0  0  0  0  0
   45.9057    4.5986    2.6179 H   0  0  0  0  0  0  0  0  0  0  0  0
   44.4673    2.6156    3.6118 H   0  0  0  0  0  0  0  0  0  0  0  0
   42.6505    1.2349    2.1844 H   0  0  0  0  0  0  0  0  0  0  0  0
   90.9303   -0.1223    0.2628 C   0  0  0  0  0  0  0  0  0  0  0  0
   90.3239    0.6655    1.2325 C   0  0  0  0  0  0  0  0  0  0  0  0
   90.9790    1.4456    2.2265 C   0  0  0  0  0  0  0  0  0  0  0  0
   90.0194    2.0684    2.9734 C   0  0  0  0  0  0  0  0  0  0  0  0
   88.7458    1.6785    2.4685 C   0  0  0  0  0  0  0  0  0  0  0  0
   88.9812    0.8417    1.4145 N   0  0  0  0  0  0  0  0  0  0  0  0
   87.4838    2.0717    2.9277 C   0  0  0  0  0  0  0  0  0  0  0  0
   87.4540    2.9802    4.1012 C   0  0  0  0  0  0  0  0  0  0  0  0
   86.8717    4.2453    3.9843 C   0  0  0  0  0  0  0  0  0  0  0  0
   86.8528    5.1004    5.0789 C   0  0  0  0  0  0  0  0  0  0  0  0
   86.3082    6.3572    5.0369 O   0  0  0  0  0  0  0  0  0  0  0  0
   87.4054    4.6993    6.2925 C   0  0  0  0  0  0  0  0  0  0  0  0
   87.3983    5.5230    7.3876 O   0  0  0  0  0  0  0  0  0  0  0  0
   87.9832    3.4344    6.4117 C   0  0  0  0  0  0  0  0  0  0  0  0
   88.5151    3.0519    7.5983 O   0  0  0  0  0  0  0  0  0  0  0  0
   88.0102    2.5792    5.3162 C   0  0  0  0  0  0  0  0  0  0  0  0
   86.2678    1.6724    2.3664 C   0  0  0  0  0  0  0  0  0  0  0  0
   84.9690    2.0288    2.9092 C   0  0  0  0  0  0  0  0  0  0  0  0
   84.0483    1.4539    2.1077 C   0  0  0  0  0  0  0  0  0  0  0  0
   86.1136    0.8847    1.2672 N   0  0  0  0  0  0  0  0  0  0  0  0
   84.7852    0.7425    1.0813 C   0  0  0  0  0  0  0  0  0  0  0  0
   84.1495    0.0170    0.0545 C   0  0  0  0  0  0  0  0  0  0  0  0
   84.7838   -0.7244   -0.9592 C   0  0  0  0  0  0  0  0  0  0  0  0
   84.1397   -1.4051   -2.0267 C   0  0  0  0  0  0  0  0  0  0  0  0
   85.1054   -1.9860   -2.8005 C   0  0  0  0  0  0  0  0  0  0  0  0
   86.3703   -1.6892   -2.2208 C   0  0  0  0  0  0  0  0  0  0  0  0
   86.1240   -0.9174   -1.1158 N   0  0  0  0  0  0  0  0  0  0  0  0
   87.6313   -2.0808   -2.6823 C   0  0  0  0  0  0  0  0  0  0  0  0
   87.6662   -2.9295   -3.8989 C   0  0  0  0  0  0  0  0  0  0  0  0
   87.0388   -4.1755   -3.9078 C   0  0  0  0  0  0  0  0  0  0  0  0
   87.0732   -4.9658   -5.0508 C   0  0  0  0  0  0  0  0  0  0  0  0
   86.4731   -6.1808   -5.0670 O   0  0  0  0  0  0  0  0  0  0  0  0
   87.7297   -4.5071   -6.1940 C   0  0  0  0  0  0  0  0  0  0  0  0
   87.7427   -5.3053   -7.3075 O   0  0  0  0  0  0  0  0  0  0  0  0
   88.3537   -3.2622   -6.1859 C   0  0  0  0  0  0  0  0  0  0  0  0
   88.9734   -2.8777   -7.3460 O   0  0  0  0  0  0  0  0  0  0  0  0
   88.3280   -2.4735   -5.0426 C   0  0  0  0  0  0  0  0  0  0  0  0
   88.8457   -1.7308   -2.0818 C   0  0  0  0  0  0  0  0  0  0  0  0
   90.1454   -2.2120   -2.5237 C   0  0  0  0  0  0  0  0  0  0  0  0
   91.0578   -1.6658   -1.6946 C   0  0  0  0  0  0  0  0  0  0  0  0
   90.3166   -0.8566   -0.7436 C   0  0  0  0  0  0  0  0  0  0  0  0
   88.9875   -0.9269   -1.0016 N   0  0  0  0  0  0  0  0  0  0  0  0
   92.0145   -0.1584    0.3002 H   0  0  0  0  0  0  0  0  0  0  0  0
   92.0490    1.5183    2.3396 H   0  0  0  0  0  0  0  0  0  0  0  0
   90.1747    2.7443    3.7986 H   0  0  0  0  0  0  0  0  0  0  0  0
   88.2543    0.4159    0.8491 H   0  0  0  0  0  0  0  0  0  0  0  0
   86.4527    4.5695    3.0390 H   0  0  0  0  0  0  0  0  0  0  0  0
   85.9483    6.5463    4.1603 H   0  0  0  0  0  0  0  0  0  0  0  0
   86.9612    6.3518    7.1351 H   0  0  0  0  0  0  0  0  0  0  0  0
   88.3984    3.7780    8.2330 H   0  0  0  0  0  0  0  0  0  0  0  0
   88.4460    1.5946    5.4256 H   0  0  0  0  0  0  0  0  0  0  0  0
   84.8051    2.6222    3.7941 H   0  0  0  0  0  0  0  0  0  0  0  0
   82.9734    1.4856    2.1870 H   0  0  0  0  0  0  0  0  0  0  0  0
   83.0730   -1.4329   -2.1796 H   0  0  0  0  0  0  0  0  0  0  0  0
   84.9580   -2.5630   -3.6987 H   0  0  0  0  0  0  0  0  0  0  0  0
   86.8459   -0.5411   -0.5101 H   0  0  0  0  0  0  0  0  0  0  0  0
   86.5411   -4.5490   -3.0222 H   0  0  0  0  0  0  0  0  0  0  0  0
   86.6084   -6.5766   -5.9438 H   0  0  0  0  0  0  0  0  0  0  0  0
   88.2369   -4.8413   -8.0019 H   0  0  0  0  0  0  0  0  0  0  0  0
   89.3821   -2.0080   -7.2451 H   0  0  0  0  0  0  0  0  0  0  0  0
   88.8031   -1.4996   -5.0483 H   0  0  0  0  0  0  0  0  0  0  0  0
   90.3111   -2.8888   -3.3466 H   0  0  0  0  0  0  0  0  0  0  0  0
   92.1299   -1.7861   -1.6964 H   0  0  0  0  0  0  0  0  0  0  0  0
   53.2576    0.0021    0.0191 C   0  0  0  0  0  0  0  0  0  0  0  0
   52.0360   -0.0211    0.0210 C   0  0  0  0  0  0  0  0  0  0  0  0
   54.6083    0.0183    0.0153 C   0  0  0  0  0  0  0  0  0  0  0  0
   55.8302    0.0302    0.0118 C   0  0  0  0  0  0  0  0  0  0  0  0
   66.7161    0.0312   -0.0332 C   0  0  0  0  0  0  0  0  0  0  0  0
   65.4932    0.0348   -0.0274 C   0  0  0  0  0  0  0  0  0  0  0  0
   68.0645    0.0245   -0.0403 C   0  0  0  0  0  0  0  0  0  0  0  0
   69.2874    0.0213   -0.0465 C   0  0  0  0  0  0  0  0  0  0  0  0
   80.1694    0.0285   -0.0287 C   0  0  0  0  0  0  0  0  0  0  0  0
   78.9477    0.0252   -0.0519 C   0  0  0  0  0  0  0  0  0  0  0  0
   81.5201    0.0268   -0.0019 C   0  0  0  0  0  0  0  0  0  0  0  0
   82.7415    0.0289    0.0236 C   0  0  0  0  0  0  0  0  0  0  0  0
   57.2373    0.0322    0.0072 C   0  0  0  0  0  0  0  0  0  0  0  0
   57.8612   -1.2290   -0.0420 C   0  0  0  0  0  0  0  0  0  0  0  0
   57.2087   -2.4888   -0.0441 C   0  0  0  0  0  0  0  0  0  0  0  0
   58.1704   -3.4608   -0.0938 C   0  0  0  0  0  0  0  0  0  0  0  0
   59.4391   -2.8213   -0.1346 C   0  0  0  0  0  0  0  0  0  0  0  0
   59.2013   -1.4732   -0.0929 N   0  0  0  0  0  0  0  0  0  0  0  0
   60.6975   -3.4340   -0.1882 C   0  0  0  0  0  0  0  0  0  0  0  0
   60.7105   -4.9166   -0.2534 C   0  0  0  0  0  0  0  0  0  0  0  0
   61.3255   -5.6576    0.7564 C   0  0  0  0  0  0  0  0  0  0  0  0
   61.3433   -7.0490    0.7151 C   0  0  0  0  0  0  0  0  0  0  0  0
   61.9302   -7.7810    1.6973 O   0  0  0  0  0  0  0  0  0  0  0  0
   60.7456   -7.7187   -0.3576 C   0  0  0  0  0  0  0  0  0  0  0  0
   60.7511   -9.0749   -0.4298 O   0  0  0  0  0  0  0  0  0  0  0  0
   60.1356   -6.9695   -1.3673 C   0  0  0  0  0  0  0  0  0  0  0  0
   59.5737   -7.6865   -2.3921 O   0  0  0  0  0  0  0  0  0  0  0  0
   60.1074   -5.5826   -1.3221 C   0  0  0  0  0  0  0  0  0  0  0  0
   61.9228   -2.7651   -0.1844 C   0  0  0  0  0  0  0  0  0  0  0  0
   63.2076   -3.4285   -0.3142 C   0  0  0  0  0  0  0  0  0  0  0  0
   64.1452   -2.4592   -0.2678 C   0  0  0  0  0  0  0  0  0  0  0  0
   62.1009   -1.4186   -0.0816 N   0  0  0  0  0  0  0  0  0  0  0  0
   63.4316   -1.2067   -0.1185 C   0  0  0  0  0  0  0  0  0  0  0  0
   64.0888    0.0369   -0.0209 C   0  0  0  0  0  0  0  0  0  0  0  0
   63.4646    1.2949    0.0853 C   0  0  0  0  0  0  0  0  0  0  0  0
   64.1175    2.5474    0.2195 C   0  0  0  0  0  0  0  0  0  0  0  0
   63.1559    3.5186    0.2816 C   0  0  0  0  0  0  0  0  0  0  0  0
   61.8867    2.8869    0.1770 C   0  0  0  0  0  0  0  0  0  0  0  0
   62.1246    1.5422    0.0706 N   0  0  0  0  0  0  0  0  0  0  0  0
   60.6286    3.5011    0.1963 C   0  0  0  0  0  0  0  0  0  0  0  0
   60.6174    4.9832    0.2839 C   0  0  0  0  0  0  0  0  0  0  0  0
   61.2160    5.7495   -0.7166 C   0  0  0  0  0  0  0  0  0  0  0  0
   61.2019    7.1371   -0.6351 C   0  0  0  0  0  0  0  0  0  0  0  0
   61.7738    7.8904   -1.6058 O   0  0  0  0  0  0  0  0  0  0  0  0
   60.5948    7.7634    0.4546 C   0  0  0  0  0  0  0  0  0  0  0  0
   60.5997    9.1324    0.5103 O   0  0  0  0  0  0  0  0  0  0  0  0
   60.0012    6.9982    1.4553 C   0  0  0  0  0  0  0  0  0  0  0  0
   59.4300    7.6833    2.4953 O   0  0  0  0  0  0  0  0  0  0  0  0
   60.0072    5.6114    1.3730 C   0  0  0  0  0  0  0  0  0  0  0  0
   59.4024    2.8351    0.1388 C   0  0  0  0  0  0  0  0  0  0  0  0
   58.1164    3.5081    0.0948 C   0  0  0  0  0  0  0  0  0  0  0  0
   57.1785    2.5392    0.0480 C   0  0  0  0  0  0  0  0  0  0  0  0
   57.8926    1.2781    0.0515 C   0  0  0  0  0  0  0  0  0  0  0  0
   59.2247    1.4862    0.0978 N   0  0  0  0  0  0  0  0  0  0  0  0
   56.1401   -2.6256   -0.0040 H   0  0  0  0  0  0  0  0  0  0  0  0
   58.0158   -4.5274   -0.0915 H   0  0  0  0  0  0  0  0  0  0  0  0
   59.9254   -0.7626   -0.0874 H   0  0  0  0  0  0  0  0  0  0  0  0
   61.7808   -5.1488    1.5986 H   0  0  0  0  0  0  0  0  0  0  0  0
   62.3087   -7.2104    2.3791 H   0  0  0  0  0  0  0  0  0  0  0  0
   60.2909   -9.3376   -1.2432 H   0  0  0  0  0  0  0  0  0  0  0  0
   59.1808   -7.0979   -3.0496 H   0  0  0  0  0  0  0  0  0  0  0  0
   59.6414   -5.0247   -2.1258 H   0  0  0  0  0  0  0  0  0  0  0  0
   63.3513   -4.4894   -0.4401 H   0  0  0  0  0  0  0  0  0  0  0  0
   65.2171   -2.5558   -0.3349 H   0  0  0  0  0  0  0  0  0  0  0  0
   65.1864    2.6791    0.2674 H   0  0  0  0  0  0  0  0  0  0  0  0
   63.3106    4.5788    0.3980 H   0  0  0  0  0  0  0  0  0  0  0  0
   61.4007    0.8351   -0.0025 H   0  0  0  0  0  0  0  0  0  0  0  0
   61.6753    5.2755   -1.5744 H   0  0  0  0  0  0  0  0  0  0  0  0
   61.6584    8.8266   -1.3735 H   0  0  0  0  0  0  0  0  0  0  0  0
   60.1387    9.4001    1.3212 H   0  0  0  0  0  0  0  0  0  0  0  0
   59.0364    7.0739    3.1335 H   0  0  0  0  0  0  0  0  0  0  0  0
   59.5556    5.0221    2.1623 H   0  0  0  0  0  0  0  0  0  0  0  0
   57.9719    4.5763    0.0846 H   0  0  0  0  0  0  0  0  0  0  0  0
   56.1060    2.6417    0.0035 H   0  0  0  0  0  0  0  0  0  0  0  0
   70.6917    0.0197   -0.0549 C   0  0  0  0  0  0  0  0  0  0  0  0
   71.3171   -1.2424   -0.0746 C   0  0  0  0  0  0  0  0  0  0  0  0
   70.6669   -2.5026   -0.0407 C   0  0  0  0  0  0  0  0  0  0  0  0
   71.6291   -3.4741   -0.0969 C   0  0  0  0  0  0  0  0  0  0  0  0
   72.8954   -2.8337   -0.1787 C   0  0  0  0  0  0  0  0  0  0  0  0
   72.6560   -1.4853   -0.1484 N   0  0  0  0  0  0  0  0  0  0  0  0
   74.1530   -3.4439   -0.2682 C   0  0  0  0  0  0  0  0  0  0  0  0
   74.1677   -4.9256   -0.3368 C   0  0  0  0  0  0  0  0  0  0  0  0
   74.8326   -5.6667    0.6412 C   0  0  0  0  0  0  0  0  0  0  0  0
   74.8505   -7.0580    0.5984 C   0  0  0  0  0  0  0  0  0  0  0  0
   75.4859   -7.7894    1.5502 O   0  0  0  0  0  0  0  0  0  0  0  0
   74.2008   -7.7284   -0.4432 C   0  0  0  0  0  0  0  0  0  0  0  0
   74.2032   -9.0843   -0.5148 O   0  0  0  0  0  0  0  0  0  0  0  0
   73.5417   -6.9795   -1.4218 C   0  0  0  0  0  0  0  0  0  0  0  0
   72.9308   -7.6973   -2.4175 O   0  0  0  0  0  0  0  0  0  0  0  0
   73.5144   -5.5927   -1.3753 C   0  0  0  0  0  0  0  0  0  0  0  0
   75.3766   -2.7704   -0.2934 C   0  0  0  0  0  0  0  0  0  0  0  0
   76.6598   -3.4274   -0.4671 C   0  0  0  0  0  0  0  0  0  0  0  0
   77.5969   -2.4582   -0.4111 C   0  0  0  0  0  0  0  0  0  0  0  0
   75.5537   -1.4270   -0.1643 N   0  0  0  0  0  0  0  0  0  0  0  0
   76.8847   -1.2115   -0.2143 C   0  0  0  0  0  0  0  0  0  0  0  0
   77.5403    0.0265   -0.0674 C   0  0  0  0  0  0  0  0  0  0  0  0
   76.9160    1.2803    0.0705 C   0  0  0  0  0  0  0  0  0  0  0  0
   77.5670    2.5301    0.2385 C   0  0  0  0  0  0  0  0  0  0  0  0
   76.6055    3.5019    0.2902 C   0  0  0  0  0  0  0  0  0  0  0  0
   75.3384    2.8735    0.1469 C   0  0  0  0  0  0  0  0  0  0  0  0
   75.5764    1.5301    0.0309 N   0  0  0  0  0  0  0  0  0  0  0  0
   74.0810    3.4899    0.1346 C   0  0  0  0  0  0  0  0  0  0  0  0
   74.0686    4.9718    0.2231 C   0  0  0  0  0  0  0  0  0  0  0  0
   74.6964    5.7391   -0.7586 C   0  0  0  0  0  0  0  0  0  0  0  0
   74.6786    7.1265   -0.6769 C   0  0  0  0  0  0  0  0  0  0  0  0
   75.2777    7.8810   -1.6303 O   0  0  0  0  0  0  0  0  0  0  0  0
   74.0397    7.7519    0.3950 C   0  0  0  0  0  0  0  0  0  0  0  0
   74.0420    9.1208    0.4515 O   0  0  0  0  0  0  0  0  0  0  0  0
   73.4175    6.9858    1.3775 C   0  0  0  0  0  0  0  0  0  0  0  0
   72.8158    7.6697    2.4008 O   0  0  0  0  0  0  0  0  0  0  0  0
   73.4261    5.5991    1.2940 C   0  0  0  0  0  0  0  0  0  0  0  0
   72.8566    2.8250    0.0482 C   0  0  0  0  0  0  0  0  0  0  0  0
   71.5723    3.4976   -0.0302 C   0  0  0  0  0  0  0  0  0  0  0  0
   70.6348    2.5283   -0.0794 C   0  0  0  0  0  0  0  0  0  0  0  0
   71.3483    1.2672   -0.0425 C   0  0  0  0  0  0  0  0  0  0  0  0
   72.6787    1.4750    0.0204 N   0  0  0  0  0  0  0  0  0  0  0  0
   69.5997   -2.6400    0.0254 H   0  0  0  0  0  0  0  0  0  0  0  0
   71.4760   -4.5407   -0.0729 H   0  0  0  0  0  0  0  0  0  0  0  0
   73.3786   -0.7736   -0.1698 H   0  0  0  0  0  0  0  0  0  0  0  0
   75.3270   -5.1578    1.4609 H   0  0  0  0  0  0  0  0  0  0  0  0
   75.9041   -7.2185    2.2080 H   0  0  0  0  0  0  0  0  0  0  0  0
   73.7041   -9.3479   -1.3046 H   0  0  0  0  0  0  0  0  0  0  0  0
   72.5083   -7.1095   -3.0571 H   0  0  0  0  0  0  0  0  0  0  0  0
   73.0099   -5.0356   -2.1560 H   0  0  0  0  0  0  0  0  0  0  0  0
   76.8024   -4.4839   -0.6261 H   0  0  0  0  0  0  0  0  0  0  0  0
   78.6674   -2.5507   -0.5009 H   0  0  0  0  0  0  0  0  0  0  0  0
   78.6347    2.6597    0.3118 H   0  0  0  0  0  0  0  0  0  0  0  0
   76.7584    4.5604    0.4229 H   0  0  0  0  0  0  0  0  0  0  0  0
   74.8536    0.8253   -0.0688 H   0  0  0  0  0  0  0  0  0  0  0  0
   75.1812    5.2659   -1.6027 H   0  0  0  0  0  0  0  0  0  0  0  0
   75.1510    8.8169   -1.4029 H   0  0  0  0  0  0  0  0  0  0  0  0
   73.5543    9.3879    1.2469 H   0  0  0  0  0  0  0  0  0  0  0  0
   72.4089    7.0592    3.0295 H   0  0  0  0  0  0  0  0  0  0  0  0
   72.9510    5.0091    2.0689 H   0  0  0  0  0  0  0  0  0  0  0  0
   71.4286    4.5655   -0.0593 H   0  0  0  0  0  0  0  0  0  0  0  0
   69.5634    2.6306   -0.1445 H   0  0  0  0  0  0  0  0  0  0  0  0
  1  2  4  0  0  0  0
  2  3  4  0  0  0  0
  3  4  2  0  0  0  0
  4  5  4  0  0  0  0
  2  6  4  0  0  0  0
  5  6  4  0  0  0  0
  5  7  4  0  0  0  0
  7  8  1  0  0  0  0
  8  9  4  0  0  0  0
  9 10  4  0  0  0  0
 10 11  1  0  0  0  0
 10 12  4  0  0  0  0
 12 13  1  0  0  0  0
 12 14  4  0  0  0  0
 14 15  1  0  0  0  0
  8 16  4  0  0  0  0
 14 16  4  0  0  0  0
  7 17  4  0  0  0  0
 17 18  1  0  0  0  0
 18 19  2  0  0  0  0
 17 20  4  0  0  0  0
 19 21  1  0  0  0  0
 20 21  4  0  0  0  0
 21 22  4  0  0  0  0
 22 23  4  0  0  0  0
 23 24  4  0  0  0  0
 24 25  2  0  0  0  0
 25 26  4  0  0  0  0
 23 27  4  0  0  0  0
 26 27  4  0  0  0  0
 26 28  4  0  0  0  0
 28 29  1  0  0  0  0
 29 30  4  0  0  0  0
 30 31  4  0  0  0  0
 31 32  1  0  0  0  0
 31 33  4  0  0  0  0
 33 34  1  0  0  0  0
 33 35  4  0  0  0  0
 35 36  1  0  0  0  0
 29 37  4  0  0  0  0
 35 37  4  0  0  0  0
 28 38  4  0  0  0  0
 38 39  1  0  0  0  0
 39 40  2  0  0  0  0
  1 41  4  0  0  0  0
 40 41  1  0  0  0  0
 38 42  4  0  0  0  0
 41 42  4  0  0  0  0
  1 43  1  0  0  0  0
  3 44  1  0  0  0  0
  4 45  1  0  0  0  0
  6 46  1  0  0  0  0
  9 47  1  0  0  0  0
 11 48  1  0  0  0  0
 13 49  1  0  0  0  0
 15 50  1  0  0  0  0
 16 51  1  0  0  0  0
 18 52  1  0  0  0  0
 19 53  1  0  0  0  0
 24 54  1  0  0  0  0
 25 55  1  0  0  0  0
 27 56  1  0  0  0  0
 30 57  1  0  0  0  0
 32 58  1  0  0  0  0
 34 59  1  0  0  0  0
 36 60  1  0  0  0  0
 37 61  1  0  0  0  0
 39 62  1  0  0  0  0
 40 63  1  0  0  0  0
 64 65  4  0  0  0  0
 65 66  4  0  0  0  0
 66 67  2  0  0  0  0
 67 68  4  0  0  0  0
 65 69  4  0  0  0  0
 68 69  4  0  0  0  0
 68 70  4  0  0  0  0
 70 71  1  0  0  0  0
 71 72  4  0  0  0  0
 72 73  4  0  0  0  0
 73 74  1  0  0  0  0
 73 75  4  0  0  0  0
 75 76  1  0  0  0  0
 75 77  4  0  0  0  0
 77 78  1  0  0  0  0
 71 79  4  0  0  0  0
 77 79  4  0  0  0  0
 70 80  4  0  0  0  0
 80 81  1  0  0  0  0
 81 82  2  0  0  0  0
 80 83  4  0  0  0  0
 82 84  1  0  0  0  0
 83 84  4  0  0  0  0
 84 85  4  0  0  0  0
 85 86  4  0  0  0  0
 86 87  4  0  0  0  0
 87 88  2  0  0  0  0
 88 89  4  0  0  0  0
 86 90  4  0  0  0  0
 89 90  4  0  0  0  0
 89 91  4  0  0  0  0
 91 92  1  0  0  0  0
 92 93  4  0  0  0  0
 93 94  4  0  0  0  0
 94 95  1  0  0  0  0
 94 96  4  0  0  0  0
 96 97  1  0  0  0  0
 96 98  4  0  0  0  0
 98 99  1  0  0  0  0
 92100  4  0  0  0  0
 98100  4  0  0  0  0
 91101  4  0  0  0  0
101102  1  0  0  0  0
102103  2  0  0  0  0
 64104  4  0  0  0  0
103104  1  0  0  0  0
101105  4  0  0  0  0
104105  4  0  0  0  0
 64106  1  0  0  0  0
 66107  1  0  0  0  0
 67108  1  0  0  0  0
 69109  1  0  0  0  0
 72110  1  0  0  0  0
 74111  1  0  0  0  0
 76112  1  0  0  0  0
 78113  1  0  0  0  0
 79114  1  0  0  0  0
 81115  1  0  0  0  0
 82116  1  0  0  0  0
 87117  1  0  0  0  0
 88118  1  0  0  0  0
 90119  1  0  0  0  0
 93120  1  0  0  0  0
 95121  1  0  0  0  0
 97122  1  0  0  0  0
 99123  1  0  0  0  0
100124  1  0  0  0  0
102125  1  0  0  0  0
103126  1  0  0  0  0
 22128  4  0  0  0  0
127128  3  0  0  0  0
127129  4  0  0  0  0
129130  3  0  0  0  0
131132  3  0  0  0  0
131133  4  0  0  0  0
133134  3  0  0  0  0
135136  3  0  0  0  0
135137  4  0  0  0  0
 85138  4  0  0  0  0
137138  3  0  0  0  0
130139  4  0  0  0  0
139140  4  0  0  0  0
140141  4  0  0  0  0
141142  2  0  0  0  0
142143  4  0  0  0  0
140144  4  0  0  0  0
143144  4  0  0  0  0
143145  4  0  0  0  0
145146  1  0  0  0  0
146147  4  0  0  0  0
147148  4  0  0  0  0
148149  1  0  0  0  0
148150  4  0  0  0  0
150151  1  0  0  0  0
150152  4  0  0  0  0
152153  1  0  0  0  0
146154  4  0  0  0  0
152154  4  0  0  0  0
145155  4  0  0  0  0
155156  1  0  0  0  0
156157  2  0  0  0  0
155158  4  0  0  0  0
157159  1  0  0  0  0
158159  4  0  0  0  0
132160  4  0  0  0  0
159160  4  0  0  0  0
160161  4  0  0  0  0
161162  4  0  0  0  0
162163  2  0  0  0  0
163164  4  0  0  0  0
161165  4  0  0  0  0
164165  4  0  0  0  0
164166  4  0  0  0  0
166167  1  0  0  0  0
167168  4  0  0  0  0
168169  4  0  0  0  0
169170  1  0  0  0  0
169171  4  0  0  0  0
171172  1  0  0  0  0
171173  4  0  0  0  0
173174  1  0  0  0  0
167175  4  0  0  0  0
173175  4  0  0  0  0
166176  4  0  0  0  0
176177  1  0  0  0  0
177178  2  0  0  0  0
139179  4  0  0  0  0
178179  1  0  0  0  0
176180  4  0  0  0  0
179180  4  0  0  0  0
141181  1  0  0  0  0
142182  1  0  0  0  0
144183  1  0  0  0  0
147184  1  0  0  0  0
149185  1  0  0  0  0
151186  1  0  0  0  0
153187  1  0  0  0  0
154188  1  0  0  0  0
156189  1  0  0  0  0
157190  1  0  0  0  0
162191  1  0  0  0  0
163192  1  0  0  0  0
165193  1  0  0  0  0
168194  1  0  0  0  0
170195  1  0  0  0  0
172196  1  0  0  0  0
174197  1  0  0  0  0
175198  1  0  0  0  0
177199  1  0  0  0  0
178200  1  0  0  0  0
134201  4  0  0  0  0
201202  4  0  0  0  0
202203  4  0  0  0  0
203204  2  0  0  0  0
204205  4  0  0  0  0
202206  4  0  0  0  0
205206  4  0  0  0  0
205207  4  0  0  0  0
207208  1  0  0  0  0
208209  4  0  0  0  0
209210  4  0  0  0  0
210211  1  0  0  0  0
210212  4  0  0  0  0
212213  1  0  0  0  0
212214  4  0  0  0  0
214215  1  0  0  0  0
208216  4  0  0  0  0
214216  4  0  0  0  0
207217  4  0  0  0  0
217218  1  0  0  0  0
218219  2  0  0  0  0
217220  4  0  0  0  0
219221  1  0  0  0  0
220221  4  0  0  0  0
136222  4  0  0  0  0
221222  4  0  0  0  0
222223  4  0  0  0  0
223224  4  0  0  0  0
224225  2  0  0  0  0
225226  4  0  0  0  0
223227  4  0  0  0  0
226227  4  0  0  0  0
226228  4  0  0  0  0
228229  1  0  0  0  0
229230  4  0  0  0  0
230231  4  0  0  0  0
231232  1  0  0  0  0
231233  4  0  0  0  0
233234  1  0  0  0  0
233235  4  0  0  0  0
235236  1  0  0  0  0
229237  4  0  0  0  0
235237  4  0  0  0  0
228238  4  0  0  0  0
238239  1  0  0  0  0
239240  2  0  0  0  0
201241  4  0  0  0  0
240241  1  0  0  0  0
238242  4  0  0  0  0
241242  4  0  0  0  0
203243  1  0  0  0  0
204244  1  0  0  0  0
206245  1  0  0  0  0
209246  1  0  0  0  0
211247  1  0  0  0  0
213248  1  0  0  0  0
215249  1  0  0  0  0
216250  1  0  0  0  0
218251  1  0  0  0  0
219252  1  0  0  0  0
224253  1  0  0  0  0
225254  1  0  0  0  0
227255  1  0  0  0  0
230256  1  0  0  0  0
232257  1  0  0  0  0
234258  1  0  0  0  0
236259  1  0  0  0  0
237260  1  0  0  0  0
239261  1  0  0  0  0
240262  1  0  0  0  0
M  END
