 xtb: 6.5.1 (b24c23e)
          07292220103D

120139  0     0  0            999 V2000
   15.5889   -0.0571   -0.1089 Fe  0  0  0  0  0  0  0  0  0  0  0  0
   12.2069   -0.0930   -0.2881 C   0  0  0  0  0  0  0  0  0  0  0  0
   12.8640   -1.3059   -0.2859 C   0  0  0  0  0  0  0  0  0  0  0  0
   12.1900   -2.5678   -0.3409 C   0  0  0  0  0  0  0  0  0  0  0  0
   13.1380   -3.5205   -0.1789 C   0  0  0  0  0  0  0  0  0  0  0  0
   14.3937   -2.8392   -0.0485 C   0  0  0  0  0  0  0  0  0  0  0  0
   14.2127   -1.4847   -0.1207 N   0  0  0  0  0  0  0  0  0  0  0  0
   15.6060   -3.4804    0.1864 C   0  0  0  0  0  0  0  0  0  0  0  0
   15.6147   -4.9571    0.3231 C   0  0  0  0  0  0  0  0  0  0  0  0
   15.2542   -5.7725   -0.7497 C   0  0  0  0  0  0  0  0  0  0  0  0
   15.2654   -7.1531   -0.6238 C   0  0  0  0  0  0  0  0  0  0  0  0
   15.6330   -7.7338    0.5878 C   0  0  0  0  0  0  0  0  0  0  0  0
   15.6534   -9.0810    0.7558 O   0  0  0  0  0  0  0  0  0  0  0  0
   15.9936   -6.9296    1.6676 C   0  0  0  0  0  0  0  0  0  0  0  0
   15.9876   -5.5529    1.5300 C   0  0  0  0  0  0  0  0  0  0  0  0
   16.8128   -2.8007    0.2728 C   0  0  0  0  0  0  0  0  0  0  0  0
   18.0816   -3.4510    0.4152 C   0  0  0  0  0  0  0  0  0  0  0  0
   19.0286   -2.4876    0.3143 C   0  0  0  0  0  0  0  0  0  0  0  0
   16.9872   -1.4459    0.1133 N   0  0  0  0  0  0  0  0  0  0  0  0
   18.3364   -1.2526    0.1186 C   0  0  0  0  0  0  0  0  0  0  0  0
   18.9937   -0.0293   -0.0651 C   0  0  0  0  0  0  0  0  0  0  0  0
   18.3158    1.1894   -0.1950 C   0  0  0  0  0  0  0  0  0  0  0  0
   18.9865    2.4406   -0.3585 C   0  0  0  0  0  0  0  0  0  0  0  0
   18.0279    3.3982   -0.3498 C   0  0  0  0  0  0  0  0  0  0  0  0
   16.7738    2.7266   -0.1823 C   0  0  0  0  0  0  0  0  0  0  0  0
   16.9667    1.3679   -0.1119 N   0  0  0  0  0  0  0  0  0  0  0  0
   15.5506    3.3797   -0.1062 C   0  0  0  0  0  0  0  0  0  0  0  0
   15.5373    4.8609   -0.1142 C   0  0  0  0  0  0  0  0  0  0  0  0
   16.1825    5.5818    0.8940 C   0  0  0  0  0  0  0  0  0  0  0  0
   16.1698    6.9651    0.8950 C   0  0  0  0  0  0  0  0  0  0  0  0
   15.5143    7.6513   -0.1259 C   0  0  0  0  0  0  0  0  0  0  0  0
   15.5235    9.0084   -0.0962 O   0  0  0  0  0  0  0  0  0  0  0  0
   14.8734    6.9461   -1.1421 C   0  0  0  0  0  0  0  0  0  0  0  0
   14.8842    5.5601   -1.1301 C   0  0  0  0  0  0  0  0  0  0  0  0
   14.3373    2.7005   -0.0543 C   0  0  0  0  0  0  0  0  0  0  0  0
   13.0586    3.3469    0.0167 C   0  0  0  0  0  0  0  0  0  0  0  0
   12.1222    2.3726   -0.0667 C   0  0  0  0  0  0  0  0  0  0  0  0
   12.8296    1.1318   -0.1616 C   0  0  0  0  0  0  0  0  0  0  0  0
   14.1828    1.3417   -0.1184 N   0  0  0  0  0  0  0  0  0  0  0  0
   11.1252   -0.1044   -0.3634 H   0  0  0  0  0  0  0  0  0  0  0  0
   11.1258   -2.6879   -0.4683 H   0  0  0  0  0  0  0  0  0  0  0  0
   13.0082   -4.5898   -0.1394 H   0  0  0  0  0  0  0  0  0  0  0  0
   14.9806   -5.3220   -1.6973 H   0  0  0  0  0  0  0  0  0  0  0  0
   14.9914   -7.7830   -1.4634 H   0  0  0  0  0  0  0  0  0  0  0  0
   15.3840   -9.5411   -0.0504 H   0  0  0  0  0  0  0  0  0  0  0  0
   16.2746   -7.3947    2.6043 H   0  0  0  0  0  0  0  0  0  0  0  0
   16.2588   -4.9265    2.3725 H   0  0  0  0  0  0  0  0  0  0  0  0
   18.2205   -4.5112    0.5500 H   0  0  0  0  0  0  0  0  0  0  0  0
   20.1008   -2.5894    0.3613 H   0  0  0  0  0  0  0  0  0  0  0  0
   20.0533    2.5562   -0.4628 H   0  0  0  0  0  0  0  0  0  0  0  0
   18.1489    4.4634   -0.4613 H   0  0  0  0  0  0  0  0  0  0  0  0
   16.6822    5.0480    1.6946 H   0  0  0  0  0  0  0  0  0  0  0  0
   16.6620    7.5263    1.6797 H   0  0  0  0  0  0  0  0  0  0  0  0
   15.0375    9.3809   -0.8442 H   0  0  0  0  0  0  0  0  0  0  0  0
   14.3704    7.4842   -1.9385 H   0  0  0  0  0  0  0  0  0  0  0  0
   14.3976    5.0130   -1.9298 H   0  0  0  0  0  0  0  0  0  0  0  0
   12.9080    4.4091    0.1209 H   0  0  0  0  0  0  0  0  0  0  0  0
   11.0477    2.4653   -0.0566 H   0  0  0  0  0  0  0  0  0  0  0  0
   28.9948    0.0418   -0.1151 Fe  0  0  0  0  0  0  0  0  0  0  0  0
   32.3773    0.0508   -0.2936 C   0  0  0  0  0  0  0  0  0  0  0  0
   31.7208    1.2518   -0.4655 C   0  0  0  0  0  0  0  0  0  0  0  0
   32.3955    2.4929   -0.6977 C   0  0  0  0  0  0  0  0  0  0  0  0
   31.4475    3.4590   -0.6753 C   0  0  0  0  0  0  0  0  0  0  0  0
   30.1912    2.8032   -0.4529 C   0  0  0  0  0  0  0  0  0  0  0  0
   30.3718    1.4523   -0.3311 N   0  0  0  0  0  0  0  0  0  0  0  0
   28.9783    3.4714   -0.3165 C   0  0  0  0  0  0  0  0  0  0  0  0
   28.9700    4.9524   -0.3943 C   0  0  0  0  0  0  0  0  0  0  0  0
   29.3337    5.6043   -1.5727 C   0  0  0  0  0  0  0  0  0  0  0  0
   29.3226    6.9886   -1.6477 C   0  0  0  0  0  0  0  0  0  0  0  0
   28.9521    7.7382   -0.5336 C   0  0  0  0  0  0  0  0  0  0  0  0
   28.9315    9.0956   -0.5622 O   0  0  0  0  0  0  0  0  0  0  0  0
   28.5886    7.0985    0.6501 C   0  0  0  0  0  0  0  0  0  0  0  0
   28.5945    5.7163    0.7130 C   0  0  0  0  0  0  0  0  0  0  0  0
   27.7711    2.8114   -0.1359 C   0  0  0  0  0  0  0  0  0  0  0  0
   26.5023    3.4756   -0.0899 C   0  0  0  0  0  0  0  0  0  0  0  0
   25.5553    2.5078   -0.0506 C   0  0  0  0  0  0  0  0  0  0  0  0
   27.5964    1.4478   -0.0986 N   0  0  0  0  0  0  0  0  0  0  0  0
   26.2473    1.2574   -0.0655 C   0  0  0  0  0  0  0  0  0  0  0  0
   25.5894    0.0208   -0.0715 C   0  0  0  0  0  0  0  0  0  0  0  0
   26.2668   -1.2043   -0.0257 C   0  0  0  0  0  0  0  0  0  0  0  0
   25.5960   -2.4659   -0.0094 C   0  0  0  0  0  0  0  0  0  0  0  0
   26.5545   -3.4126    0.1359 C   0  0  0  0  0  0  0  0  0  0  0  0
   27.8086   -2.7239    0.2070 C   0  0  0  0  0  0  0  0  0  0  0  0
   27.6158   -1.3691    0.0822 N   0  0  0  0  0  0  0  0  0  0  0  0
   29.0316   -3.3591    0.3782 C   0  0  0  0  0  0  0  0  0  0  0  0
   29.0448   -4.8262    0.5819 C   0  0  0  0  0  0  0  0  0  0  0  0
   28.3989   -5.3960    1.6821 C   0  0  0  0  0  0  0  0  0  0  0  0
   28.4117   -6.7651    1.8802 C   0  0  0  0  0  0  0  0  0  0  0  0
   29.0679   -7.5897    0.9678 C   0  0  0  0  0  0  0  0  0  0  0  0
   29.0586   -8.9288    1.1906 O   0  0  0  0  0  0  0  0  0  0  0  0
   29.7096   -7.0365   -0.1380 C   0  0  0  0  0  0  0  0  0  0  0  0
   29.6987   -5.6630   -0.3235 C   0  0  0  0  0  0  0  0  0  0  0  0
   30.2448   -2.6793    0.3355 C   0  0  0  0  0  0  0  0  0  0  0  0
   31.5230   -3.3090    0.5019 C   0  0  0  0  0  0  0  0  0  0  0  0
   32.4602   -2.3573    0.2805 C   0  0  0  0  0  0  0  0  0  0  0  0
   31.7537   -1.1430    0.0063 C   0  0  0  0  0  0  0  0  0  0  0  0
   30.4002   -1.3440    0.0763 N   0  0  0  0  0  0  0  0  0  0  0  0
   33.4591    0.0509   -0.3681 H   0  0  0  0  0  0  0  0  0  0  0  0
   33.4602    2.5937   -0.8378 H   0  0  0  0  0  0  0  0  0  0  0  0
   31.5776    4.5231   -0.7875 H   0  0  0  0  0  0  0  0  0  0  0  0
   29.6097    5.0215   -2.4444 H   0  0  0  0  0  0  0  0  0  0  0  0
   29.5991    7.4906   -2.5687 H   0  0  0  0  0  0  0  0  0  0  0  0
   29.2031    9.4343   -1.4258 H   0  0  0  0  0  0  0  0  0  0  0  0
   28.3057    7.6941    1.5092 H   0  0  0  0  0  0  0  0  0  0  0  0
   28.3212    5.2183    1.6365 H   0  0  0  0  0  0  0  0  0  0  0  0
   26.3636    4.5442   -0.1099 H   0  0  0  0  0  0  0  0  0  0  0  0
   24.4830    2.6153   -0.0189 H   0  0  0  0  0  0  0  0  0  0  0  0
   24.5293   -2.5954   -0.0966 H   0  0  0  0  0  0  0  0  0  0  0  0
   26.4336   -4.4827    0.1773 H   0  0  0  0  0  0  0  0  0  0  0  0
   27.8986   -4.7536    2.3980 H   0  0  0  0  0  0  0  0  0  0  0  0
   27.9191   -7.2088    2.7365 H   0  0  0  0  0  0  0  0  0  0  0  0
   29.5442   -9.4040    0.5030 H   0  0  0  0  0  0  0  0  0  0  0  0
   30.2131   -7.6825   -0.8492 H   0  0  0  0  0  0  0  0  0  0  0  0
   30.1861   -5.2351   -1.1925 H   0  0  0  0  0  0  0  0  0  0  0  0
   31.6725   -4.3451    0.7590 H   0  0  0  0  0  0  0  0  0  0  0  0
   33.5346   -2.4478    0.3063 H   0  0  0  0  0  0  0  0  0  0  0  0
   21.6183   -0.0145   -0.1037 C   0  0  0  0  0  0  0  0  0  0  0  0
   20.3943   -0.0203   -0.0907 C   0  0  0  0  0  0  0  0  0  0  0  0
   22.9646   -0.0024   -0.1040 C   0  0  0  0  0  0  0  0  0  0  0  0
   24.1887    0.0086   -0.0950 C   0  0  0  0  0  0  0  0  0  0  0  0
  2  3  4  0  0  0  0
  3  4  4  0  0  0  0
  4  5  2  0  0  0  0
  5  6  4  0  0  0  0
  1  7  1  0  0  0  0
  3  7  4  0  0  0  0
  6  7  4  0  0  0  0
  6  8  4  0  0  0  0
  8  9  1  0  0  0  0
  9 10  4  0  0  0  0
 10 11  4  0  0  0  0
 11 12  4  0  0  0  0
 12 13  1  0  0  0  0
 12 14  4  0  0  0  0
  9 15  4  0  0  0  0
 14 15  4  0  0  0  0
  8 16  4  0  0  0  0
 16 17  4  0  0  0  0
 17 18  2  0  0  0  0
  1 19  1  0  0  0  0
 16 19  4  0  0  0  0
 18 20  4  0  0  0  0
 19 20  4  0  0  0  0
 20 21  4  0  0  0  0
 21 22  4  0  0  0  0
 22 23  4  0  0  0  0
 23 24  2  0  0  0  0
 24 25  4  0  0  0  0
  1 26  1  0  0  0  0
 22 26  4  0  0  0  0
 25 26  4  0  0  0  0
 25 27  4  0  0  0  0
 27 28  1  0  0  0  0
 28 29  4  0  0  0  0
 29 30  4  0  0  0  0
 30 31  4  0  0  0  0
 31 32  1  0  0  0  0
 31 33  4  0  0  0  0
 28 34  4  0  0  0  0
 33 34  4  0  0  0  0
 27 35  4  0  0  0  0
 35 36  4  0  0  0  0
 36 37  2  0  0  0  0
  2 38  4  0  0  0  0
 37 38  4  0  0  0  0
  1 39  1  0  0  0  0
 35 39  4  0  0  0  0
 38 39  4  0  0  0  0
  2 40  1  0  0  0  0
  4 41  1  0  0  0  0
  5 42  1  0  0  0  0
 10 43  1  0  0  0  0
 11 44  1  0  0  0  0
 13 45  1  0  0  0  0
 14 46  1  0  0  0  0
 15 47  1  0  0  0  0
 17 48  1  0  0  0  0
 18 49  1  0  0  0  0
 23 50  1  0  0  0  0
 24 51  1  0  0  0  0
 29 52  1  0  0  0  0
 30 53  1  0  0  0  0
 32 54  1  0  0  0  0
 33 55  1  0  0  0  0
 34 56  1  0  0  0  0
 36 57  1  0  0  0  0
 37 58  1  0  0  0  0
 60 61  4  0  0  0  0
 61 62  4  0  0  0  0
 62 63  2  0  0  0  0
 63 64  4  0  0  0  0
 59 65  1  0  0  0  0
 61 65  4  0  0  0  0
 64 65  4  0  0  0  0
 64 66  4  0  0  0  0
 66 67  1  0  0  0  0
 67 68  4  0  0  0  0
 68 69  4  0  0  0  0
 69 70  4  0  0  0  0
 70 71  1  0  0  0  0
 70 72  4  0  0  0  0
 67 73  4  0  0  0  0
 72 73  4  0  0  0  0
 66 74  4  0  0  0  0
 74 75  4  0  0  0  0
 75 76  2  0  0  0  0
 59 77  1  0  0  0  0
 74 77  4  0  0  0  0
 76 78  4  0  0  0  0
 77 78  4  0  0  0  0
 78 79  4  0  0  0  0
 79 80  4  0  0  0  0
 80 81  4  0  0  0  0
 81 82  2  0  0  0  0
 82 83  4  0  0  0  0
 59 84  1  0  0  0  0
 80 84  4  0  0  0  0
 83 84  4  0  0  0  0
 83 85  4  0  0  0  0
 85 86  1  0  0  0  0
 86 87  4  0  0  0  0
 87 88  4  0  0  0  0
 88 89  4  0  0  0  0
 89 90  1  0  0  0  0
 89 91  4  0  0  0  0
 86 92  4  0  0  0  0
 91 92  4  0  0  0  0
 85 93  4  0  0  0  0
 93 94  4  0  0  0  0
 94 95  2  0  0  0  0
 60 96  4  0  0  0  0
 95 96  4  0  0  0  0
 59 97  1  0  0  0  0
 93 97  4  0  0  0  0
 96 97  4  0  0  0  0
 60 98  1  0  0  0  0
 62 99  1  0  0  0  0
 63100  1  0  0  0  0
 68101  1  0  0  0  0
 69102  1  0  0  0  0
 71103  1  0  0  0  0
 72104  1  0  0  0  0
 73105  1  0  0  0  0
 75106  1  0  0  0  0
 76107  1  0  0  0  0
 81108  1  0  0  0  0
 82109  1  0  0  0  0
 87110  1  0  0  0  0
 88111  1  0  0  0  0
 90112  1  0  0  0  0
 91113  1  0  0  0  0
 92114  1  0  0  0  0
 94115  1  0  0  0  0
 95116  1  0  0  0  0
 21118  4  0  0  0  0
117118  3  0  0  0  0
117119  4  0  0  0  0
 79120  4  0  0  0  0
119120  3  0  0  0  0
M  END
