370

C 75.614133 0.091735 -0.013603
C 76.338534 0.003123 1.363500
C 75.718641 -0.029740 2.592490
C 76.739322 -0.147441 3.569882
C 77.950693 -0.181109 2.903874
N 77.693894 -0.067033 1.560989
C 79.382678 -0.358999 3.561359
C 79.435893 -0.630575 5.017296
C 79.634338 0.407648 5.925416
C 79.669166 0.149926 7.303864
C 79.492849 -1.144478 7.831555
N 79.532177 -1.392302 9.216682
C 79.235331 -0.274401 10.108890
C 79.118962 -2.707963 9.694835
C 79.319818 -2.175064 6.886683
C 79.283953 -1.926264 5.506089
C 80.510417 -0.289761 2.802865
C 81.821945 -0.516571 3.373985
C 82.724258 -0.414221 2.405932
N 80.702373 -0.037624 1.468823
C 82.039304 -0.097709 1.167934
C 82.712082 0.081881 -0.000273
C 81.939676 0.473397 -1.332828
C 82.505777 1.030289 -2.464555
C 81.480089 1.178498 -3.429164
C 80.310329 0.722834 -2.856710
N 80.592221 0.333397 -1.567794
C 78.886494 0.678184 -3.558300
C 78.837797 0.826734 -5.029693
C 78.662138 2.081476 -5.610727
C 78.655175 2.223150 -7.005491
C 78.834571 1.126728 -7.871966
N 78.834824 1.292614 -9.271568
C 79.095741 0.122377 -10.104407
C 79.389173 2.551074 -9.770287
C 78.971418 -0.131968 -7.255753
C 78.983752 -0.281977 -5.860772
C 77.764251 0.511207 -2.811374
C 76.435699 0.468171 -3.397130
C 75.552010 0.311658 -2.416229
C 76.280383 0.244294 -1.173034
N 77.605000 0.358379 -1.461694
H 74.532670 0.020389 -0.022267
H 74.654111 0.015436 2.765351
H 76.605689 -0.212217 4.639964
H 78.398653 -0.036128 0.828406
H 79.770036 1.419463 5.550045
H 79.846876 1.003801 7.948161
H 78.253130 0.160462 9.890435
H 79.225279 -0.598601 11.156128
H 80.005909 0.501188 10.045895
H 78.071701 -2.910360 9.444106
H 79.757695 -3.499667 9.288498
H 79.216777 -2.776458 10.784313
H 79.204051 -3.209624 7.189458
H 79.143178 -2.743942 4.802747
H 82.039595 -0.743969 4.402578
H 83.782245 -0.541092 2.544929
H 83.545044 1.291952 -2.592597
H 81.584030 1.571019 -4.429838
H 79.899175 0.030795 -0.887769
H 78.528591 2.949170 -4.968246
H 78.491122 3.223581 -7.390882
H 78.992056 0.374130 -11.166260
H 80.111808 -0.257495 -9.949897
H 78.369479 -0.675090 -9.912013
H 78.744248 3.399896 -9.521896
H 79.460537 2.541056 -10.863663
H 80.397178 2.726928 -9.377735
H 79.089441 -1.040028 -7.836015
H 79.108648 -1.266212 -5.413695
H 76.200882 0.550410 -4.443519
H 74.484492 0.244924 -2.524235
C 125.463606 0.088337 0.014995
C 124.739205 0.324871 -1.344533
C 125.359098 0.580896 -2.547009
C 124.338417 0.695492 -3.524769
C 123.127046 0.506704 -2.885192
N 123.383845 0.302944 -1.552963
C 121.695061 0.487826 -3.566055
C 121.641846 0.564962 -5.045094
C 121.443401 1.787069 -5.684659
C 121.408573 1.859516 -7.085120
C 121.584890 0.724795 -7.901422
N 121.545562 0.808429 -9.306056
C 121.842408 2.104267 -9.911482
C 121.958777 -0.358565 -10.079179
C 121.757921 -0.498500 -7.224338
C 121.793786 -0.580123 -5.823882
C 120.567322 0.377408 -2.812454
C 119.255794 0.290736 -3.420820
C 118.353481 0.163406 -2.455735
N 120.375366 0.309937 -1.456471
C 119.038436 0.181022 -1.178038
C 118.365657 0.081881 -0.000273
C 119.138063 0.150257 1.386923
C 118.571962 0.426462 2.617633
C 119.597650 0.344520 3.590114
C 120.767410 0.035678 2.926828
N 120.485519 -0.040902 1.582543
C 122.191245 -0.172123 3.598423
C 122.239943 -0.372482 5.063661
C 122.415601 0.711183 5.922527
C 122.422564 0.522095 7.311658
C 122.243168 -0.746832 7.897100
N 122.242915 -0.913516 9.296607
C 121.981998 -2.246321 9.832054
C 121.688567 0.193051 10.076320
C 122.106322 -1.826097 7.003108
C 122.093988 -1.645063 5.611813
C 123.313488 -0.159435 2.833167
C 124.642041 -0.338525 3.392531
C 125.525729 -0.260838 2.402264
C 124.797356 -0.035026 1.177895
N 123.472739 0.008246 1.485251
H 126.545070 0.016947 0.006700
H 126.423628 0.665319 -2.704472
H 124.472050 0.883258 -4.580239
H 122.679086 0.161331 -0.833533
H 121.307703 2.682759 -5.082653
H 121.230864 2.840588 -7.511403
H 122.824610 2.475836 -9.597213
H 121.852460 2.034479 -11.005531
H 121.071830 2.843503 -9.668507
H 123.006038 -0.614078 -9.882855
H 121.320044 -1.223440 -9.869664
H 121.860962 -0.169870 -11.154376
H 121.873688 -1.433312 -7.761099
H 121.934562 -1.539843 -5.331717
H 119.038144 0.310686 -4.474060
H 117.295494 0.072636 -2.620590
H 117.532695 0.650838 2.803422
H 119.493710 0.491639 4.654904
H 121.178564 -0.175738 0.850545
H 122.549149 1.705264 5.501248
H 122.586617 1.404370 7.920737
H 122.085683 -2.250388 10.923335
H 120.965931 -2.579414 9.592834
H 122.708260 -2.976506 9.458155
H 122.333491 1.076444 10.033738
H 121.617202 -0.072885 11.136910
H 120.680561 0.455991 9.735902
H 121.988299 -2.844843 7.354442
H 121.969092 -2.497139 4.946559
H 124.876858 -0.503763 4.429058
H 126.593248 -0.351022 2.491627
C 84.402464 0.081881 -0.000273
C 85.624382 0.081881 -0.000273
C 94.752762 0.081881 -0.000273
C 95.974680 0.081881 -0.000273
C 105.103060 0.081881 -0.000273
C 106.324977 0.081881 -0.000273
C 115.453357 0.081881 -0.000273
C 116.675275 0.081881 -0.000273
C 86.615695 -0.058378 0.000195
C 87.409481 -0.408349 1.326554
C 86.901729 -1.023420 2.453260
C 87.938946 -1.059394 3.420093
C 89.049600 -0.472075 2.851226
N 88.738846 -0.149255 1.553967
C 90.439740 -0.204996 3.562799
C 90.429226 -0.023825 5.032464
C 89.979276 1.169981 5.593030
C 89.941162 1.334068 6.985808
C 90.331095 0.310337 7.868753
N 90.293044 0.454645 9.271091
C 89.817782 1.721820 9.817273
C 89.876338 -0.735830 10.012719
C 90.806749 -0.874455 7.274320
C 90.849431 -1.045468 5.883275
C 91.574360 -0.103249 2.821649
C 92.860969 0.197214 3.414896
C 93.768885 0.240218 2.445813
N 91.782477 -0.223825 1.475428
C 93.106743 -0.031853 1.185686
C 93.770333 -0.058378 0.000195
C 92.976534 -0.357486 -1.338568
C 93.483940 -0.931330 -2.487214
C 92.447028 -0.930162 -3.455037
C 91.336860 -0.362994 -2.864649
N 91.647503 -0.089594 -1.556086
C 89.947093 -0.068056 -3.565892
C 89.958066 0.165654 -5.028106
C 90.417432 1.374003 -5.547069
C 90.454864 1.585578 -6.933763
C 90.054658 0.598405 -7.854507
N 90.091741 0.803266 -9.247757
C 90.270182 -0.384190 -10.081250
C 90.718695 2.022113 -9.750286
C 89.570859 -0.602134 -7.298824
C 89.529722 -0.821827 -5.914069
C 88.812355 0.006246 -2.821252
C 87.525546 0.329021 -3.402332
C 86.617526 0.334619 -2.432172
C 87.279702 0.014529 -1.183444
N 88.604388 -0.165096 -1.480368
H 85.892412 -1.385162 2.577148
H 87.877759 -1.449087 4.425172
H 89.400243 0.191180 0.861771
H 89.655953 1.975266 4.936811
H 89.577538 2.289489 7.347059
H 89.936961 1.737551 10.907184
H 90.405483 2.565430 9.437427
H 88.756013 1.880291 9.595665
H 90.623411 -1.533366 9.951790
H 88.910815 -1.111089 9.653538
H 89.766986 -0.510654 11.080388
H 91.179181 -1.693673 7.879794
H 91.219372 -1.974271 5.454052
H 93.055074 0.368618 4.458898
H 94.813027 0.447357 2.592074
H 94.493018 -1.289586 -2.623804
H 92.507713 -1.282081 -4.474056
H 90.986958 0.226739 -0.851192
H 90.747680 2.153834 -4.863958
H 90.822534 2.551899 -7.260313
H 91.163454 -0.947566 -9.787845
H 89.391854 -1.037087 -10.040892
H 90.389451 -0.109685 -11.136057
H 91.785753 2.052856 -9.502799
H 90.630036 2.082663 -10.841184
H 90.221644 2.917123 -9.359571
H 89.197549 -1.403183 -7.926940
H 89.155740 -1.763352 -5.517517
H 87.330880 0.540029 -4.438779
H 85.573157 0.547130 -2.570093
C 96.965992 -0.058378 0.000195
C 97.759779 -0.408349 1.326554
C 97.252027 -1.023420 2.453260
C 98.289244 -1.059394 3.420093
C 99.399898 -0.472075 2.851226
N 99.089143 -0.149255 1.553967
C 100.790038 -0.204996 3.562799
C 100.779524 -0.023825 5.032464
C 100.329574 1.169981 5.593030
C 100.291460 1.334068 6.985808
C 100.681393 0.310337 7.868753
N 100.643342 0.454645 9.271091
C 100.168080 1.721820 9.817273
C 100.226635 -0.735830 10.012719
C 101.157046 -0.874455 7.274320
C 101.199729 -1.045468 5.883275
C 101.924658 -0.103249 2.821649
C 103.211267 0.197214 3.414896
C 104.119183 0.240218 2.445813
N 102.132775 -0.223825 1.475428
C 103.457041 -0.031853 1.185686
C 104.120631 -0.058378 0.000195
C 103.326832 -0.357486 -1.338568
C 103.834238 -0.931330 -2.487214
C 102.797326 -0.930162 -3.455037
C 101.687158 -0.362994 -2.864649
N 101.997801 -0.089594 -1.556086
C 100.297391 -0.068056 -3.565892
C 100.308364 0.165654 -5.028106
C 100.767729 1.374003 -5.547069
C 100.805162 1.585578 -6.933763
C 100.404955 0.598405 -7.854507
N 100.442039 0.803266 -9.247757
C 100.620480 -0.384190 -10.081250
C 101.068993 2.022113 -9.750286
C 99.921157 -0.602134 -7.298824
C 99.880020 -0.821827 -5.914069
C 99.162652 0.006246 -2.821252
C 97.875844 0.329021 -3.402332
C 96.967824 0.334619 -2.432172
C 97.630000 0.014529 -1.183444
N 98.954685 -0.165096 -1.480368
H 96.242710 -1.385162 2.577148
H 98.228057 -1.449087 4.425172
H 99.750541 0.191180 0.861771
H 100.006251 1.975266 4.936811
H 99.927836 2.289489 7.347059
H 100.287258 1.737551 10.907184
H 100.755781 2.565430 9.437427
H 99.106310 1.880291 9.595665
H 100.973708 -1.533366 9.951790
H 99.261113 -1.111089 9.653538
H 100.117284 -0.510654 11.080388
H 101.529478 -1.693673 7.879794
H 101.569669 -1.974271 5.454052
H 103.405372 0.368618 4.458898
H 105.163324 0.447357 2.592074
H 104.843316 -1.289586 -2.623804
H 102.858011 -1.282081 -4.474056
H 101.337256 0.226739 -0.851192
H 101.097978 2.153834 -4.863958
H 101.172832 2.551899 -7.260313
H 101.513752 -0.947566 -9.787845
H 99.742152 -1.037087 -10.040892
H 100.739749 -0.109685 -11.136057
H 102.136051 2.052856 -9.502799
H 100.980334 2.082663 -10.841184
H 100.571942 2.917123 -9.359571
H 99.547847 -1.403183 -7.926940
H 99.506038 -1.763352 -5.517517
H 97.681178 0.540029 -4.438779
H 95.923455 0.547130 -2.570093
C 107.316290 -0.058378 0.000195
C 108.110077 -0.408349 1.326554
C 107.602325 -1.023420 2.453260
C 108.639542 -1.059394 3.420093
C 109.750195 -0.472075 2.851226
N 109.439441 -0.149255 1.553967
C 111.140336 -0.204996 3.562799
C 111.129822 -0.023825 5.032464
C 110.679872 1.169981 5.593030
C 110.641758 1.334068 6.985808
C 111.031691 0.310337 7.868753
N 110.993640 0.454645 9.271091
C 110.518378 1.721820 9.817273
C 110.576933 -0.735830 10.012719
C 111.507344 -0.874455 7.274320
C 111.550027 -1.045468 5.883275
C 112.274955 -0.103249 2.821649
C 113.561565 0.197214 3.414896
C 114.469480 0.240218 2.445813
N 112.483073 -0.223825 1.475428
C 113.807338 -0.031853 1.185686
C 114.470928 -0.058378 0.000195
C 113.677130 -0.357486 -1.338568
C 114.184536 -0.931330 -2.487214
C 113.147624 -0.930162 -3.455037
C 112.037456 -0.362994 -2.864649
N 112.348099 -0.089594 -1.556086
C 110.647688 -0.068056 -3.565892
C 110.658662 0.165654 -5.028106
C 111.118027 1.374003 -5.547069
C 111.155460 1.585578 -6.933763
C 110.755253 0.598405 -7.854507
N 110.792336 0.803266 -9.247757
C 110.970778 -0.384190 -10.081250
C 111.419290 2.022113 -9.750286
C 110.271454 -0.602134 -7.298824
C 110.230318 -0.821827 -5.914069
C 109.512950 0.006246 -2.821252
C 108.226142 0.329021 -3.402332
C 107.318122 0.334619 -2.432172
C 107.980297 0.014529 -1.183444
N 109.304983 -0.165096 -1.480368
H 106.593008 -1.385162 2.577148
H 108.578354 -1.449087 4.425172
H 110.100839 0.191180 0.861771
H 110.356549 1.975266 4.936811
H 110.278134 2.289489 7.347059
H 110.637556 1.737551 10.907184
H 111.106079 2.565430 9.437427
H 109.456608 1.880291 9.595665
H 111.324006 -1.533366 9.951790
H 109.611411 -1.111089 9.653538
H 110.467582 -0.510654 11.080388
H 111.879776 -1.693673 7.879794
H 111.919967 -1.974271 5.454052
H 113.755670 0.368618 4.458898
H 115.513622 0.447357 2.592074
H 115.193614 -1.289586 -2.623804
H 113.208309 -1.282081 -4.474056
H 111.687554 0.226739 -0.851192
H 111.448276 2.153834 -4.863958
H 111.523130 2.551899 -7.260313
H 111.864050 -0.947566 -9.787845
H 110.092450 -1.037087 -10.040892
H 111.090046 -0.109685 -11.136057
H 112.486349 2.052856 -9.502799
H 111.330632 2.082663 -10.841184
H 110.922240 2.917123 -9.359571
H 109.898144 -1.403183 -7.926940
H 109.856336 -1.763352 -5.517517
H 108.031476 0.540029 -4.438779
H 106.273752 0.547130 -2.570093
