 xtb: 6.5.1 (b24c23e)
          07282206103D

370404  0     0  0            999 V2000
   75.3235    0.0028    0.1077 C   0  0  0  0  0  0  0  0  0  0  0  0
   75.9447   -0.1529    1.3405 C   0  0  0  0  0  0  0  0  0  0  0  0
   75.3090   -0.2655    2.6080 C   0  0  0  0  0  0  0  0  0  0  0  0
   76.2822   -0.4326    3.5538 C   0  0  0  0  0  0  0  0  0  0  0  0
   77.5428   -0.4417    2.8925 C   0  0  0  0  0  0  0  0  0  0  0  0
   77.2891   -0.2526    1.5631 N   0  0  0  0  0  0  0  0  0  0  0  0
   78.8099   -0.6183    3.4614 C   0  0  0  0  0  0  0  0  0  0  0  0
   78.8608   -0.8631    4.9202 C   0  0  0  0  0  0  0  0  0  0  0  0
   79.5906   -0.0192    5.7599 C   0  0  0  0  0  0  0  0  0  0  0  0
   79.6300   -0.2254    7.1265 C   0  0  0  0  0  0  0  0  0  0  0  0
   78.9420   -1.2978    7.7140 C   0  0  0  0  0  0  0  0  0  0  0  0
   79.0220   -1.5420    9.0827 N   0  0  0  0  0  0  0  0  0  0  0  0
   79.4343   -0.4298    9.9397 C   0  0  0  0  0  0  0  0  0  0  0  0
   77.9861   -2.3913    9.6726 C   0  0  0  0  0  0  0  0  0  0  0  0
   78.2285   -2.1581    6.8660 C   0  0  0  0  0  0  0  0  0  0  0  0
   78.1846   -1.9371    5.5013 C   0  0  0  0  0  0  0  0  0  0  0  0
   80.0159   -0.5777    2.7547 C   0  0  0  0  0  0  0  0  0  0  0  0
   81.3038   -0.8915    3.3441 C   0  0  0  0  0  0  0  0  0  0  0  0
   82.2216   -0.7187    2.3697 C   0  0  0  0  0  0  0  0  0  0  0  0
   80.1710   -0.2527    1.4414 N   0  0  0  0  0  0  0  0  0  0  0  0
   81.4956   -0.3016    1.1880 C   0  0  0  0  0  0  0  0  0  0  0  0
   82.1332    0.0256   -0.0273 C   0  0  0  0  0  0  0  0  0  0  0  0
   81.4808    0.3276   -1.2389 C   0  0  0  0  0  0  0  0  0  0  0  0
   82.0991    0.7071   -2.4576 C   0  0  0  0  0  0  0  0  0  0  0  0
   81.1206    0.8577   -3.4015 C   0  0  0  0  0  0  0  0  0  0  0  0
   79.8713    0.5730   -2.7866 C   0  0  0  0  0  0  0  0  0  0  0  0
   80.1384    0.2755   -1.4761 N   0  0  0  0  0  0  0  0  0  0  0  0
   78.6073    0.6029   -3.3899 C   0  0  0  0  0  0  0  0  0  0  0  0
   78.5745    0.8479   -4.8484 C   0  0  0  0  0  0  0  0  0  0  0  0
   77.8594    1.9182   -5.3890 C   0  0  0  0  0  0  0  0  0  0  0  0
   77.8371    2.1500   -6.7522 C   0  0  0  0  0  0  0  0  0  0  0  0
   78.5282    1.3104   -7.6388 C   0  0  0  0  0  0  0  0  0  0  0  0
   78.4590    1.5055   -9.0155 N   0  0  0  0  0  0  0  0  0  0  0  0
   79.4835    0.8601   -9.8373 C   0  0  0  0  0  0  0  0  0  0  0  0
   78.0718    2.8361   -9.4861 C   0  0  0  0  0  0  0  0  0  0  0  0
   79.2329    0.2260   -7.0949 C   0  0  0  0  0  0  0  0  0  0  0  0
   79.2597    0.0089   -5.7296 C   0  0  0  0  0  0  0  0  0  0  0  0
   77.3962    0.4202   -2.7131 C   0  0  0  0  0  0  0  0  0  0  0  0
   76.0923    0.3990   -3.3569 C   0  0  0  0  0  0  0  0  0  0  0  0
   75.1822    0.2430   -2.3738 C   0  0  0  0  0  0  0  0  0  0  0  0
   75.9300    0.1505   -1.1330 C   0  0  0  0  0  0  0  0  0  0  0  0
   77.2601    0.2456   -1.3770 N   0  0  0  0  0  0  0  0  0  0  0  0
   74.2383    0.0056    0.1254 H   0  0  0  0  0  0  0  0  0  0  0  0
   74.2431   -0.2166    2.7644 H   0  0  0  0  0  0  0  0  0  0  0  0
   76.1431   -0.5319    4.6182 H   0  0  0  0  0  0  0  0  0  0  0  0
   78.0047   -0.1907    0.8467 H   0  0  0  0  0  0  0  0  0  0  0  0
   80.1179    0.8286    5.3359 H   0  0  0  0  0  0  0  0  0  0  0  0
   80.2073    0.4626    7.7306 H   0  0  0  0  0  0  0  0  0  0  0  0
   78.7896    0.4455    9.8015 H   0  0  0  0  0  0  0  0  0  0  0  0
   79.3853   -0.7491   10.9802 H   0  0  0  0  0  0  0  0  0  0  0  0
   80.4669   -0.1594    9.7171 H   0  0  0  0  0  0  0  0  0  0  0  0
   76.9819   -2.0139    9.4502 H   0  0  0  0  0  0  0  0  0  0  0  0
   78.0849   -3.4080    9.2908 H   0  0  0  0  0  0  0  0  0  0  0  0
   78.1260   -2.4206   10.7526 H   0  0  0  0  0  0  0  0  0  0  0  0
   77.7028   -3.0176    7.2618 H   0  0  0  0  0  0  0  0  0  0  0  0
   77.6344   -2.6274    4.8707 H   0  0  0  0  0  0  0  0  0  0  0  0
   81.4617   -1.2231    4.3576 H   0  0  0  0  0  0  0  0  0  0  0  0
   83.2862   -0.8778    2.4177 H   0  0  0  0  0  0  0  0  0  0  0  0
   83.1577    0.8571   -2.5878 H   0  0  0  0  0  0  0  0  0  0  0  0
   81.2502    1.1569   -4.4288 H   0  0  0  0  0  0  0  0  0  0  0  0
   79.4300    0.0583   -0.7831 H   0  0  0  0  0  0  0  0  0  0  0  0
   77.3320    2.5969   -4.7273 H   0  0  0  0  0  0  0  0  0  0  0  0
   77.2702    2.9967   -7.1173 H   0  0  0  0  0  0  0  0  0  0  0  0
   79.3436    1.1596  -10.8754 H   0  0  0  0  0  0  0  0  0  0  0  0
   80.4929    1.1395   -9.5153 H   0  0  0  0  0  0  0  0  0  0  0  0
   79.3703   -0.2229   -9.7794 H   0  0  0  0  0  0  0  0  0  0  0  0
   77.0365    3.0359   -9.2084 H   0  0  0  0  0  0  0  0  0  0  0  0
   78.1413    2.8602  -10.5730 H   0  0  0  0  0  0  0  0  0  0  0  0
   78.7192    3.6144   -9.0672 H   0  0  0  0  0  0  0  0  0  0  0  0
   79.7659   -0.4672   -7.7330 H   0  0  0  0  0  0  0  0  0  0  0  0
   79.8044   -0.8445   -5.3398 H   0  0  0  0  0  0  0  0  0  0  0  0
   75.9203    0.4780   -4.4184 H   0  0  0  0  0  0  0  0  0  0  0  0
   74.1078    0.1806   -2.4514 H   0  0  0  0  0  0  0  0  0  0  0  0
  125.7382   -0.0700   -0.0575 C   0  0  0  0  0  0  0  0  0  0  0  0
  125.1471    0.1370   -1.2974 C   0  0  0  0  0  0  0  0  0  0  0  0
  125.8160    0.3447   -2.5355 C   0  0  0  0  0  0  0  0  0  0  0  0
  124.8661    0.5158   -3.5037 C   0  0  0  0  0  0  0  0  0  0  0  0
  123.5863    0.4070   -2.8897 C   0  0  0  0  0  0  0  0  0  0  0  0
  123.8069    0.1847   -1.5597 N   0  0  0  0  0  0  0  0  0  0  0  0
  122.3323    0.5360   -3.4989 C   0  0  0  0  0  0  0  0  0  0  0  0
  122.3272    0.7626   -4.9633 C   0  0  0  0  0  0  0  0  0  0  0  0
  121.7609    1.9133   -5.5137 C   0  0  0  0  0  0  0  0  0  0  0  0
  121.7634    2.1305   -6.8797 C   0  0  0  0  0  0  0  0  0  0  0  0
  122.3313    1.1953   -7.7579 C   0  0  0  0  0  0  0  0  0  0  0  0
  122.2845    1.3796   -9.1376 N   0  0  0  0  0  0  0  0  0  0  0  0
  122.0513    2.7389   -9.6264 C   0  0  0  0  0  0  0  0  0  0  0  0
  123.2332    0.6137   -9.9473 C   0  0  0  0  0  0  0  0  0  0  0  0
  122.8855    0.0321   -7.2031 C   0  0  0  0  0  0  0  0  0  0  0  0
  122.8885   -0.1716   -5.8350 C   0  0  0  0  0  0  0  0  0  0  0  0
  121.1062    0.4646   -2.8323 C   0  0  0  0  0  0  0  0  0  0  0  0
  119.8210    0.5609   -3.4988 C   0  0  0  0  0  0  0  0  0  0  0  0
  118.8823    0.4379   -2.5374 C   0  0  0  0  0  0  0  0  0  0  0  0
  120.9247    0.2692   -1.4961 N   0  0  0  0  0  0  0  0  0  0  0  0
  119.5918    0.2489   -1.2886 C   0  0  0  0  0  0  0  0  0  0  0  0
  118.9293    0.0703   -0.0561 C   0  0  0  0  0  0  0  0  0  0  0  0
  119.5500   -0.1328    1.1924 C   0  0  0  0  0  0  0  0  0  0  0  0
  118.8932   -0.2964    2.4394 C   0  0  0  0  0  0  0  0  0  0  0  0
  119.8486   -0.4480    3.4060 C   0  0  0  0  0  0  0  0  0  0  0  0
  121.1217   -0.4004    2.7754 C   0  0  0  0  0  0  0  0  0  0  0  0
  120.8895   -0.2050    1.4387 N   0  0  0  0  0  0  0  0  0  0  0  0
  122.3748   -0.5024    3.3916 C   0  0  0  0  0  0  0  0  0  0  0  0
  122.3821   -0.7025    4.8588 C   0  0  0  0  0  0  0  0  0  0  0  0
  123.0038    0.2192    5.7029 C   0  0  0  0  0  0  0  0  0  0  0  0
  122.9970    0.0527    7.0758 C   0  0  0  0  0  0  0  0  0  0  0  0
  122.3688   -1.0548    7.6648 C   0  0  0  0  0  0  0  0  0  0  0  0
  122.4033   -1.2550    9.0427 N   0  0  0  0  0  0  0  0  0  0  0  0
  121.4035   -2.1605    9.6111 C   0  0  0  0  0  0  0  0  0  0  0  0
  122.6939   -0.0920    9.8821 C   0  0  0  0  0  0  0  0  0  0  0  0
  121.7652   -1.9919    6.8130 C   0  0  0  0  0  0  0  0  0  0  0  0
  121.7671   -1.8117    5.4417 C   0  0  0  0  0  0  0  0  0  0  0  0
  123.6025   -0.4270    2.7246 C   0  0  0  0  0  0  0  0  0  0  0  0
  124.8936   -0.6063    3.3697 C   0  0  0  0  0  0  0  0  0  0  0  0
  125.8253   -0.4856    2.4021 C   0  0  0  0  0  0  0  0  0  0  0  0
  125.1041   -0.2429    1.1658 C   0  0  0  0  0  0  0  0  0  0  0  0
  123.7682   -0.2195    1.3968 N   0  0  0  0  0  0  0  0  0  0  0  0
  126.8233   -0.0972   -0.0538 H   0  0  0  0  0  0  0  0  0  0  0  0
  126.8876    0.3669   -2.6556 H   0  0  0  0  0  0  0  0  0  0  0  0
  125.0327    0.7114   -4.5506 H   0  0  0  0  0  0  0  0  0  0  0  0
  123.0729    0.0821   -0.8669 H   0  0  0  0  0  0  0  0  0  0  0  0
  121.3302    2.6626   -4.8583 H   0  0  0  0  0  0  0  0  0  0  0  0
  121.3136    3.0415   -7.2527 H   0  0  0  0  0  0  0  0  0  0  0  0
  122.7954    3.4414   -9.2345 H   0  0  0  0  0  0  0  0  0  0  0  0
  122.1013    2.7356  -10.7148 H   0  0  0  0  0  0  0  0  0  0  0  0
  121.0530    3.0663   -9.3347 H   0  0  0  0  0  0  0  0  0  0  0  0
  124.2649    0.7696   -9.6129 H   0  0  0  0  0  0  0  0  0  0  0  0
  122.9898   -0.4478   -9.8908 H   0  0  0  0  0  0  0  0  0  0  0  0
  123.1434    0.9263  -10.9870 H   0  0  0  0  0  0  0  0  0  0  0  0
  123.3155   -0.7343   -7.8351 H   0  0  0  0  0  0  0  0  0  0  0  0
  123.3145   -1.0862   -5.4363 H   0  0  0  0  0  0  0  0  0  0  0  0
  119.6751    0.6908   -4.5589 H   0  0  0  0  0  0  0  0  0  0  0  0
  117.8103    0.4667   -2.6420 H   0  0  0  0  0  0  0  0  0  0  0  0
  117.8247   -0.2960    2.5751 H   0  0  0  0  0  0  0  0  0  0  0  0
  119.6859   -0.5729    4.4640 H   0  0  0  0  0  0  0  0  0  0  0  0
  121.6191   -0.1128    0.7395 H   0  0  0  0  0  0  0  0  0  0  0  0
  123.4800    1.0960    5.2774 H   0  0  0  0  0  0  0  0  0  0  0  0
  123.4896    0.8008    7.6836 H   0  0  0  0  0  0  0  0  0  0  0  0
  121.4905   -2.1462   10.6969 H   0  0  0  0  0  0  0  0  0  0  0  0
  120.3870   -1.8654    9.3280 H   0  0  0  0  0  0  0  0  0  0  0  0
  121.5947   -3.1783    9.2695 H   0  0  0  0  0  0  0  0  0  0  0  0
  123.7139    0.2464    9.6979 H   0  0  0  0  0  0  0  0  0  0  0  0
  122.6187   -0.3849   10.9288 H   0  0  0  0  0  0  0  0  0  0  0  0
  121.9954    0.7296    9.6877 H   0  0  0  0  0  0  0  0  0  0  0  0
  121.2904   -2.8794    7.2114 H   0  0  0  0  0  0  0  0  0  0  0  0
  121.3015   -2.5593    4.8085 H   0  0  0  0  0  0  0  0  0  0  0  0
  125.0424   -0.8134    4.4174 H   0  0  0  0  0  0  0  0  0  0  0  0
  126.8986   -0.5587    2.4847 H   0  0  0  0  0  0  0  0  0  0  0  0
   83.5417    0.0575   -0.0424 C   0  0  0  0  0  0  0  0  0  0  0  0
   84.7596    0.0969   -0.0513 C   0  0  0  0  0  0  0  0  0  0  0  0
   94.4752    0.2489    0.0051 C   0  0  0  0  0  0  0  0  0  0  0  0
   95.6940    0.2511    0.0099 C   0  0  0  0  0  0  0  0  0  0  0  0
  105.3855    0.2001    0.0455 C   0  0  0  0  0  0  0  0  0  0  0  0
  106.6044    0.2090    0.0377 C   0  0  0  0  0  0  0  0  0  0  0  0
  116.3023    0.1236   -0.0466 C   0  0  0  0  0  0  0  0  0  0  0  0
  117.5206    0.0998   -0.0563 C   0  0  0  0  0  0  0  0  0  0  0  0
   86.1675    0.1358   -0.0462 C   0  0  0  0  0  0  0  0  0  0  0  0
   86.7920    0.1848    1.2164 C   0  0  0  0  0  0  0  0  0  0  0  0
   86.1462    0.1854    2.4782 C   0  0  0  0  0  0  0  0  0  0  0  0
   87.1099    0.2535    3.4472 C   0  0  0  0  0  0  0  0  0  0  0  0
   88.3747    0.3162    2.8036 C   0  0  0  0  0  0  0  0  0  0  0  0
   88.1325    0.2613    1.4563 N   0  0  0  0  0  0  0  0  0  0  0  0
   89.6296    0.4161    3.4191 C   0  0  0  0  0  0  0  0  0  0  0  0
   89.6355    0.4835    4.8990 C   0  0  0  0  0  0  0  0  0  0  0  0
   88.9736    1.5030    5.5848 C   0  0  0  0  0  0  0  0  0  0  0  0
   88.9727    1.5532    6.9671 C   0  0  0  0  0  0  0  0  0  0  0  0
   89.6248    0.5694    7.7255 C   0  0  0  0  0  0  0  0  0  0  0  0
   89.6587    0.6404    9.1163 N   0  0  0  0  0  0  0  0  0  0  0  0
   88.6204    1.4389    9.7695 C   0  0  0  0  0  0  0  0  0  0  0  0
   90.0079   -0.5822    9.8410 C   0  0  0  0  0  0  0  0  0  0  0  0
   90.3004   -0.4468    7.0337 C   0  0  0  0  0  0  0  0  0  0  0  0
   90.3059   -0.4827    5.6514 C   0  0  0  0  0  0  0  0  0  0  0  0
   90.8594    0.4494    2.7582 C   0  0  0  0  0  0  0  0  0  0  0  0
   92.1266    0.6656    3.4315 C   0  0  0  0  0  0  0  0  0  0  0  0
   93.0791    0.6218    2.4763 C   0  0  0  0  0  0  0  0  0  0  0  0
   91.0613    0.3043    1.4193 N   0  0  0  0  0  0  0  0  0  0  0  0
   92.3937    0.3828    1.2235 C   0  0  0  0  0  0  0  0  0  0  0  0
   93.0691    0.2424   -0.0066 C   0  0  0  0  0  0  0  0  0  0  0  0
   92.4457    0.0967   -1.2623 C   0  0  0  0  0  0  0  0  0  0  0  0
   93.0910   -0.0944   -2.5094 C   0  0  0  0  0  0  0  0  0  0  0  0
   92.1270   -0.1479   -3.4797 C   0  0  0  0  0  0  0  0  0  0  0  0
   90.8632    0.0110   -2.8511 C   0  0  0  0  0  0  0  0  0  0  0  0
   91.1053    0.1398   -1.5094 N   0  0  0  0  0  0  0  0  0  0  0  0
   89.6079    0.0142   -3.4751 C   0  0  0  0  0  0  0  0  0  0  0  0
   89.6172   -0.0479   -4.9554 C   0  0  0  0  0  0  0  0  0  0  0  0
   90.2583    0.9404   -5.7048 C   0  0  0  0  0  0  0  0  0  0  0  0
   90.2726    0.8967   -7.0868 C   0  0  0  0  0  0  0  0  0  0  0  0
   89.6563   -0.1550   -7.7813 C   0  0  0  0  0  0  0  0  0  0  0  0
   89.6302   -0.1760   -9.1732 N   0  0  0  0  0  0  0  0  0  0  0  0
   89.3202   -1.4508   -9.8212 C   0  0  0  0  0  0  0  0  0  0  0  0
   90.6428    0.6154   -9.8737 C   0  0  0  0  0  0  0  0  0  0  0  0
   89.0088   -1.1445   -7.0264 C   0  0  0  0  0  0  0  0  0  0  0  0
   88.9894   -1.0866   -5.6445 C   0  0  0  0  0  0  0  0  0  0  0  0
   88.3751    0.0723   -2.8223 C   0  0  0  0  0  0  0  0  0  0  0  0
   87.0997    0.1096   -3.5134 C   0  0  0  0  0  0  0  0  0  0  0  0
   86.1477    0.1283   -2.5573 C   0  0  0  0  0  0  0  0  0  0  0  0
   86.8399    0.1251   -1.2858 C   0  0  0  0  0  0  0  0  0  0  0  0
   88.1758    0.0998   -1.4747 N   0  0  0  0  0  0  0  0  0  0  0  0
   85.0800    0.1406    2.6234 H   0  0  0  0  0  0  0  0  0  0  0  0
   86.9566    0.2527    4.5139 H   0  0  0  0  0  0  0  0  0  0  0  0
   88.8509    0.2661    0.7400 H   0  0  0  0  0  0  0  0  0  0  0  0
   88.4695    2.2843    5.0261 H   0  0  0  0  0  0  0  0  0  0  0  0
   88.4602    2.3761    7.4485 H   0  0  0  0  0  0  0  0  0  0  0  0
   88.7154    1.3271   10.8490 H   0  0  0  0  0  0  0  0  0  0  0  0
   88.7601    2.4923    9.5246 H   0  0  0  0  0  0  0  0  0  0  0  0
   87.6173    1.1227    9.4622 H   0  0  0  0  0  0  0  0  0  0  0  0
   91.0412   -0.8539    9.6234 H   0  0  0  0  0  0  0  0  0  0  0  0
   89.3468   -1.4133    9.5707 H   0  0  0  0  0  0  0  0  0  0  0  0
   89.9260   -0.3938   10.9109 H   0  0  0  0  0  0  0  0  0  0  0  0
   90.8321   -1.2243    7.5670 H   0  0  0  0  0  0  0  0  0  0  0  0
   90.8215   -1.2906    5.1435 H   0  0  0  0  0  0  0  0  0  0  0  0
   92.2487    0.8489    4.4867 H   0  0  0  0  0  0  0  0  0  0  0  0
   94.1432    0.7561    2.5839 H   0  0  0  0  0  0  0  0  0  0  0  0
   94.1558   -0.1912   -2.6418 H   0  0  0  0  0  0  0  0  0  0  0  0
   92.2776   -0.3004   -4.5359 H   0  0  0  0  0  0  0  0  0  0  0  0
   90.3871    0.2451   -0.8007 H   0  0  0  0  0  0  0  0  0  0  0  0
   90.7352    1.7712   -5.1959 H   0  0  0  0  0  0  0  0  0  0  0  0
   90.7665    1.6997   -7.6187 H   0  0  0  0  0  0  0  0  0  0  0  0
   90.0055   -2.2431   -9.4999 H   0  0  0  0  0  0  0  0  0  0  0  0
   88.2951   -1.7399   -9.5878 H   0  0  0  0  0  0  0  0  0  0  0  0
   89.3990   -1.3261  -10.9007 H   0  0  0  0  0  0  0  0  0  0  0  0
   91.6548    0.3577   -9.5419 H   0  0  0  0  0  0  0  0  0  0  0  0
   90.5593    0.4291  -10.9438 H   0  0  0  0  0  0  0  0  0  0  0  0
   90.4631    1.6769   -9.6997 H   0  0  0  0  0  0  0  0  0  0  0  0
   88.5096   -1.9744   -7.5097 H   0  0  0  0  0  0  0  0  0  0  0  0
   88.4974   -1.8767   -5.0877 H   0  0  0  0  0  0  0  0  0  0  0  0
   86.9686    0.1312   -4.5830 H   0  0  0  0  0  0  0  0  0  0  0  0
   85.0774    0.1484   -2.6794 H   0  0  0  0  0  0  0  0  0  0  0  0
   97.0999    0.2483    0.0202 C   0  0  0  0  0  0  0  0  0  0  0  0
   97.7267    0.0825    1.2721 C   0  0  0  0  0  0  0  0  0  0  0  0
   97.0898   -0.1622    2.5140 C   0  0  0  0  0  0  0  0  0  0  0  0
   98.0550   -0.1928    3.4849 C   0  0  0  0  0  0  0  0  0  0  0  0
   99.3101    0.0400    2.8625 C   0  0  0  0  0  0  0  0  0  0  0  0
   99.0639    0.1747    1.5220 N   0  0  0  0  0  0  0  0  0  0  0  0
  100.5621    0.1422    3.4861 C   0  0  0  0  0  0  0  0  0  0  0  0
  100.5711    0.0916    4.9643 C   0  0  0  0  0  0  0  0  0  0  0  0
   99.8110    0.9834    5.7242 C   0  0  0  0  0  0  0  0  0  0  0  0
   99.8156    0.9334    7.1059 C   0  0  0  0  0  0  0  0  0  0  0  0
  100.5735   -0.0286    7.7909 C   0  0  0  0  0  0  0  0  0  0  0  0
  100.6124   -0.0514    9.1821 N   0  0  0  0  0  0  0  0  0  0  0  0
   99.4982    0.5776    9.8931 C   0  0  0  0  0  0  0  0  0  0  0  0
  101.1145   -1.2677    9.8219 C   0  0  0  0  0  0  0  0  0  0  0  0
  101.3436   -0.9180    7.0263 C   0  0  0  0  0  0  0  0  0  0  0  0
  101.3420   -0.8531    5.6451 C   0  0  0  0  0  0  0  0  0  0  0  0
  101.7836    0.2832    2.8224 C   0  0  0  0  0  0  0  0  0  0  0  0
  103.0479    0.5145    3.4956 C   0  0  0  0  0  0  0  0  0  0  0  0
  103.9952    0.5345    2.5337 C   0  0  0  0  0  0  0  0  0  0  0  0
  101.9799    0.2044    1.4771 N   0  0  0  0  0  0  0  0  0  0  0  0
  103.3091    0.3194    1.2772 C   0  0  0  0  0  0  0  0  0  0  0  0
  103.9798    0.2018    0.0420 C   0  0  0  0  0  0  0  0  0  0  0  0
  103.3500    0.0826   -1.2141 C   0  0  0  0  0  0  0  0  0  0  0  0
  103.9834   -0.1307   -2.4635 C   0  0  0  0  0  0  0  0  0  0  0  0
  103.0181   -0.1145   -3.4348 C   0  0  0  0  0  0  0  0  0  0  0  0
  101.7668    0.1173   -2.8047 C   0  0  0  0  0  0  0  0  0  0  0  0
  102.0144    0.2023   -1.4603 N   0  0  0  0  0  0  0  0  0  0  0  0
  100.5172    0.2643   -3.4241 C   0  0  0  0  0  0  0  0  0  0  0  0
  100.5075    0.2690   -4.9031 C   0  0  0  0  0  0  0  0  0  0  0  0
  101.2833    1.1753   -5.6293 C   0  0  0  0  0  0  0  0  0  0  0  0
  101.2769    1.1782   -7.0119 C   0  0  0  0  0  0  0  0  0  0  0  0
  100.5014    0.2568   -7.7322 C   0  0  0  0  0  0  0  0  0  0  0  0
  100.4623    0.2879   -9.1231 N   0  0  0  0  0  0  0  0  0  0  0  0
   99.9347   -0.8911   -9.8097 C   0  0  0  0  0  0  0  0  0  0  0  0
  101.5883    0.9223   -9.8104 C   0  0  0  0  0  0  0  0  0  0  0  0
   99.7156   -0.6469   -7.0012 C   0  0  0  0  0  0  0  0  0  0  0  0
   99.7190   -0.6347   -5.6185 C   0  0  0  0  0  0  0  0  0  0  0  0
   99.2986    0.4030   -2.7552 C   0  0  0  0  0  0  0  0  0  0  0  0
   98.0386    0.6813   -3.4186 C   0  0  0  0  0  0  0  0  0  0  0  0
   97.0915    0.6787   -2.4565 C   0  0  0  0  0  0  0  0  0  0  0  0
   97.7736    0.4042   -1.2094 C   0  0  0  0  0  0  0  0  0  0  0  0
   99.1007    0.2766   -1.4136 N   0  0  0  0  0  0  0  0  0  0  0  0
   96.0303   -0.3093    2.6429 H   0  0  0  0  0  0  0  0  0  0  0  0
   97.9101   -0.3760    4.5371 H   0  0  0  0  0  0  0  0  0  0  0  0
   99.7792    0.3164    0.8169 H   0  0  0  0  0  0  0  0  0  0  0  0
   99.2251    1.7474    5.2243 H   0  0  0  0  0  0  0  0  0  0  0  0
   99.2247    1.6616    7.6464 H   0  0  0  0  0  0  0  0  0  0  0  0
   99.6117    0.3950   10.9611 H   0  0  0  0  0  0  0  0  0  0  0  0
   99.5206    1.6556    9.7296 H   0  0  0  0  0  0  0  0  0  0  0  0
   98.5336    0.1784    9.5607 H   0  0  0  0  0  0  0  0  0  0  0  0
  102.1684   -1.4013    9.5762 H   0  0  0  0  0  0  0  0  0  0  0  0
  100.5503   -2.1520    9.5052 H   0  0  0  0  0  0  0  0  0  0  0  0
  101.0305   -1.1583   10.9026 H   0  0  0  0  0  0  0  0  0  0  0  0
  101.9548   -1.6745    7.5013 H   0  0  0  0  0  0  0  0  0  0  0  0
  101.9314   -1.5674    5.0804 H   0  0  0  0  0  0  0  0  0  0  0  0
  103.1718    0.6652    4.5559 H   0  0  0  0  0  0  0  0  0  0  0  0
  105.0557    0.6955    2.6401 H   0  0  0  0  0  0  0  0  0  0  0  0
  105.0404   -0.2909   -2.5973 H   0  0  0  0  0  0  0  0  0  0  0  0
  103.1603   -0.2650   -4.4925 H   0  0  0  0  0  0  0  0  0  0  0  0
  101.3011    0.3321   -0.7510 H   0  0  0  0  0  0  0  0  0  0  0  0
  101.8830    1.9090   -5.1013 H   0  0  0  0  0  0  0  0  0  0  0  0
  101.8803    1.9160   -7.5249 H   0  0  0  0  0  0  0  0  0  0  0  0
  100.4842   -1.7981   -9.5339 H   0  0  0  0  0  0  0  0  0  0  0  0
   98.8798   -1.0159   -9.5634 H   0  0  0  0  0  0  0  0  0  0  0  0
  100.0148   -0.7380  -10.8855 H   0  0  0  0  0  0  0  0  0  0  0  0
  102.5452    0.4936   -9.4927 H   0  0  0  0  0  0  0  0  0  0  0  0
  101.4725    0.7810  -10.8844 H   0  0  0  0  0  0  0  0  0  0  0  0
  101.5854    1.9938   -9.6074 H   0  0  0  0  0  0  0  0  0  0  0  0
   99.0903   -1.3734   -7.5039 H   0  0  0  0  0  0  0  0  0  0  0  0
   99.1166   -1.3589   -5.0808 H   0  0  0  0  0  0  0  0  0  0  0  0
   97.9176    0.8757   -4.4721 H   0  0  0  0  0  0  0  0  0  0  0  0
   96.0342    0.8630   -2.5561 H   0  0  0  0  0  0  0  0  0  0  0  0
  108.0100    0.2094    0.0310 C   0  0  0  0  0  0  0  0  0  0  0  0
  108.6544    0.0625    1.2761 C   0  0  0  0  0  0  0  0  0  0  0  0
  108.0361   -0.1588    2.5318 C   0  0  0  0  0  0  0  0  0  0  0  0
  109.0151   -0.1657    3.4892 C   0  0  0  0  0  0  0  0  0  0  0  0
  110.2605    0.0584    2.8441 C   0  0  0  0  0  0  0  0  0  0  0  0
  109.9947    0.1637    1.5048 N   0  0  0  0  0  0  0  0  0  0  0  0
  111.5202    0.1819    3.4477 C   0  0  0  0  0  0  0  0  0  0  0  0
  111.5496    0.1685    4.9263 C   0  0  0  0  0  0  0  0  0  0  0  0
  110.7937    1.0747    5.6733 C   0  0  0  0  0  0  0  0  0  0  0  0
  110.8156    1.0593    7.0557 C   0  0  0  0  0  0  0  0  0  0  0  0
  111.5875    0.1189    7.7549 C   0  0  0  0  0  0  0  0  0  0  0  0
  111.6421    0.1283    9.1457 N   0  0  0  0  0  0  0  0  0  0  0  0
  110.5395    0.7790    9.8549 C   0  0  0  0  0  0  0  0  0  0  0  0
  112.1460   -1.0759    9.8070 C   0  0  0  0  0  0  0  0  0  0  0  0
  112.3550   -0.7835    7.0031 C   0  0  0  0  0  0  0  0  0  0  0  0
  112.3361   -0.7533    5.6208 C   0  0  0  0  0  0  0  0  0  0  0  0
  112.7320    0.3129    2.7641 C   0  0  0  0  0  0  0  0  0  0  0  0
  114.0031    0.5694    3.4149 C   0  0  0  0  0  0  0  0  0  0  0  0
  114.9388    0.5623    2.4416 C   0  0  0  0  0  0  0  0  0  0  0  0
  112.9123    0.1964    1.4195 N   0  0  0  0  0  0  0  0  0  0  0  0
  114.2394    0.3065    1.2005 C   0  0  0  0  0  0  0  0  0  0  0  0
  114.8950    0.1502   -0.0385 C   0  0  0  0  0  0  0  0  0  0  0  0
  114.2476    0.0175   -1.2834 C   0  0  0  0  0  0  0  0  0  0  0  0
  114.8593   -0.2188   -2.5395 C   0  0  0  0  0  0  0  0  0  0  0  0
  113.8803   -0.2027   -3.4966 C   0  0  0  0  0  0  0  0  0  0  0  0
  112.6408    0.0496   -2.8509 C   0  0  0  0  0  0  0  0  0  0  0  0
  112.9092    0.1484   -1.5119 N   0  0  0  0  0  0  0  0  0  0  0  0
  111.3841    0.1989   -3.4553 C   0  0  0  0  0  0  0  0  0  0  0  0
  111.3565    0.1948   -4.9341 C   0  0  0  0  0  0  0  0  0  0  0  0
  112.1289    1.0931   -5.6736 C   0  0  0  0  0  0  0  0  0  0  0  0
  112.1060    1.0901   -7.0560 C   0  0  0  0  0  0  0  0  0  0  0  0
  111.3166    0.1701   -7.7628 C   0  0  0  0  0  0  0  0  0  0  0  0
  111.2605    0.1953   -9.1536 N   0  0  0  0  0  0  0  0  0  0  0  0
  110.7229   -0.9873   -9.8269 C   0  0  0  0  0  0  0  0  0  0  0  0
  112.3818    0.8207   -9.8567 C   0  0  0  0  0  0  0  0  0  0  0  0
  110.5346   -0.7259   -7.0184 C   0  0  0  0  0  0  0  0  0  0  0  0
  110.5546   -0.7078   -5.6360 C   0  0  0  0  0  0  0  0  0  0  0  0
  110.1743    0.3464   -2.7723 C   0  0  0  0  0  0  0  0  0  0  0  0
  108.9067    0.6229   -3.4218 C   0  0  0  0  0  0  0  0  0  0  0  0
  107.9710    0.6250   -2.4484 C   0  0  0  0  0  0  0  0  0  0  0  0
  108.6681    0.3567   -1.2083 C   0  0  0  0  0  0  0  0  0  0  0  0
  109.9926    0.2271   -1.4278 N   0  0  0  0  0  0  0  0  0  0  0  0
  106.9788   -0.3051    2.6787 H   0  0  0  0  0  0  0  0  0  0  0  0
  108.8859   -0.3265    4.5470 H   0  0  0  0  0  0  0  0  0  0  0  0
  110.6986    0.2924    0.7858 H   0  0  0  0  0  0  0  0  0  0  0  0
  110.1969    1.8223    5.1618 H   0  0  0  0  0  0  0  0  0  0  0  0
  110.2266    1.7972    7.5849 H   0  0  0  0  0  0  0  0  0  0  0  0
  110.6690    0.6270   10.9259 H   0  0  0  0  0  0  0  0  0  0  0  0
  110.5609    1.8518    9.6601 H   0  0  0  0  0  0  0  0  0  0  0  0
  109.5694    0.3721    9.5488 H   0  0  0  0  0  0  0  0  0  0  0  0
  113.1996   -1.2138    9.5621 H   0  0  0  0  0  0  0  0  0  0  0  0
  111.5817   -1.9660    9.5072 H   0  0  0  0  0  0  0  0  0  0  0  0
  112.0635   -0.9471   10.8857 H   0  0  0  0  0  0  0  0  0  0  0  0
  112.9783   -1.5227    7.4896 H   0  0  0  0  0  0  0  0  0  0  0  0
  112.9240   -1.4771    5.0668 H   0  0  0  0  0  0  0  0  0  0  0  0
  114.1389    0.7540    4.4683 H   0  0  0  0  0  0  0  0  0  0  0  0
  115.9989    0.7350    2.5304 H   0  0  0  0  0  0  0  0  0  0  0  0
  115.9120   -0.3924   -2.6877 H   0  0  0  0  0  0  0  0  0  0  0  0
  114.0053   -0.3669   -4.5545 H   0  0  0  0  0  0  0  0  0  0  0  0
  112.2094    0.2934   -0.7921 H   0  0  0  0  0  0  0  0  0  0  0  0
  112.7395    1.8253   -5.1560 H   0  0  0  0  0  0  0  0  0  0  0  0
  112.7076    1.8221   -7.5795 H   0  0  0  0  0  0  0  0  0  0  0  0
  111.2696   -1.8944   -9.5460 H   0  0  0  0  0  0  0  0  0  0  0  0
  109.6689   -1.1046   -9.5734 H   0  0  0  0  0  0  0  0  0  0  0  0
  110.7978   -0.8442  -10.9044 H   0  0  0  0  0  0  0  0  0  0  0  0
  113.3399    0.3871   -9.5496 H   0  0  0  0  0  0  0  0  0  0  0  0
  112.2517    0.6770  -10.9288 H   0  0  0  0  0  0  0  0  0  0  0  0
  112.3878    1.8928   -9.6570 H   0  0  0  0  0  0  0  0  0  0  0  0
  109.8991   -1.4508   -7.5106 H   0  0  0  0  0  0  0  0  0  0  0  0
  109.9548   -1.4263   -5.0879 H   0  0  0  0  0  0  0  0  0  0  0  0
  108.7734    0.8130   -4.4746 H   0  0  0  0  0  0  0  0  0  0  0  0
  106.9128    0.8101   -2.5362 H   0  0  0  0  0  0  0  0  0  0  0  0
  1  2  4  0  0  0  0
  2  3  4  0  0  0  0
  3  4  2  0  0  0  0
  4  5  4  0  0  0  0
  2  6  4  0  0  0  0
  5  6  4  0  0  0  0
  5  7  4  0  0  0  0
  7  8  1  0  0  0  0
  8  9  4  0  0  0  0
  9 10  4  0  0  0  0
 10 11  4  0  0  0  0
 11 12  1  0  0  0  0
 12 13  1  0  0  0  0
 12 14  1  0  0  0  0
 11 15  4  0  0  0  0
  8 16  4  0  0  0  0
 15 16  4  0  0  0  0
  7 17  4  0  0  0  0
 17 18  1  0  0  0  0
 18 19  2  0  0  0  0
 17 20  4  0  0  0  0
 19 21  1  0  0  0  0
 20 21  4  0  0  0  0
 21 22  4  0  0  0  0
 22 23  4  0  0  0  0
 23 24  4  0  0  0  0
 24 25  2  0  0  0  0
 25 26  4  0  0  0  0
 23 27  4  0  0  0  0
 26 27  4  0  0  0  0
 26 28  4  0  0  0  0
 28 29  1  0  0  0  0
 29 30  4  0  0  0  0
 30 31  4  0  0  0  0
 31 32  4  0  0  0  0
 32 33  1  0  0  0  0
 33 34  1  0  0  0  0
 33 35  1  0  0  0  0
 32 36  4  0  0  0  0
 29 37  4  0  0  0  0
 36 37  4  0  0  0  0
 28 38  4  0  0  0  0
 38 39  1  0  0  0  0
 39 40  2  0  0  0  0
  1 41  4  0  0  0  0
 40 41  1  0  0  0  0
 38 42  4  0  0  0  0
 41 42  4  0  0  0  0
  1 43  1  0  0  0  0
  3 44  1  0  0  0  0
  4 45  1  0  0  0  0
  6 46  1  0  0  0  0
  9 47  1  0  0  0  0
 10 48  1  0  0  0  0
 13 49  1  0  0  0  0
 13 50  1  0  0  0  0
 13 51  1  0  0  0  0
 14 52  1  0  0  0  0
 14 53  1  0  0  0  0
 14 54  1  0  0  0  0
 15 55  1  0  0  0  0
 16 56  1  0  0  0  0
 18 57  1  0  0  0  0
 19 58  1  0  0  0  0
 24 59  1  0  0  0  0
 25 60  1  0  0  0  0
 27 61  1  0  0  0  0
 30 62  1  0  0  0  0
 31 63  1  0  0  0  0
 34 64  1  0  0  0  0
 34 65  1  0  0  0  0
 34 66  1  0  0  0  0
 35 67  1  0  0  0  0
 35 68  1  0  0  0  0
 35 69  1  0  0  0  0
 36 70  1  0  0  0  0
 37 71  1  0  0  0  0
 39 72  1  0  0  0  0
 40 73  1  0  0  0  0
 74 75  4  0  0  0  0
 75 76  4  0  0  0  0
 76 77  2  0  0  0  0
 77 78  4  0  0  0  0
 75 79  4  0  0  0  0
 78 79  4  0  0  0  0
 78 80  4  0  0  0  0
 80 81  1  0  0  0  0
 81 82  4  0  0  0  0
 82 83  4  0  0  0  0
 83 84  4  0  0  0  0
 84 85  1  0  0  0  0
 85 86  1  0  0  0  0
 85 87  1  0  0  0  0
 84 88  4  0  0  0  0
 81 89  4  0  0  0  0
 88 89  4  0  0  0  0
 80 90  4  0  0  0  0
 90 91  1  0  0  0  0
 91 92  2  0  0  0  0
 90 93  4  0  0  0  0
 92 94  1  0  0  0  0
 93 94  4  0  0  0  0
 94 95  4  0  0  0  0
 95 96  4  0  0  0  0
 96 97  4  0  0  0  0
 97 98  2  0  0  0  0
 98 99  4  0  0  0  0
 96100  4  0  0  0  0
 99100  4  0  0  0  0
 99101  4  0  0  0  0
101102  1  0  0  0  0
102103  4  0  0  0  0
103104  4  0  0  0  0
104105  4  0  0  0  0
105106  1  0  0  0  0
106107  1  0  0  0  0
106108  1  0  0  0  0
105109  4  0  0  0  0
102110  4  0  0  0  0
109110  4  0  0  0  0
101111  4  0  0  0  0
111112  1  0  0  0  0
112113  2  0  0  0  0
 74114  4  0  0  0  0
113114  1  0  0  0  0
111115  4  0  0  0  0
114115  4  0  0  0  0
 74116  1  0  0  0  0
 76117  1  0  0  0  0
 77118  1  0  0  0  0
 79119  1  0  0  0  0
 82120  1  0  0  0  0
 83121  1  0  0  0  0
 86122  1  0  0  0  0
 86123  1  0  0  0  0
 86124  1  0  0  0  0
 87125  1  0  0  0  0
 87126  1  0  0  0  0
 87127  1  0  0  0  0
 88128  1  0  0  0  0
 89129  1  0  0  0  0
 91130  1  0  0  0  0
 92131  1  0  0  0  0
 97132  1  0  0  0  0
 98133  1  0  0  0  0
100134  1  0  0  0  0
103135  1  0  0  0  0
104136  1  0  0  0  0
107137  1  0  0  0  0
107138  1  0  0  0  0
107139  1  0  0  0  0
108140  1  0  0  0  0
108141  1  0  0  0  0
108142  1  0  0  0  0
109143  1  0  0  0  0
110144  1  0  0  0  0
112145  1  0  0  0  0
113146  1  0  0  0  0
 22147  4  0  0  0  0
147148  3  0  0  0  0
149150  3  0  0  0  0
151152  3  0  0  0  0
 95154  4  0  0  0  0
153154  3  0  0  0  0
148155  4  0  0  0  0
155156  4  0  0  0  0
156157  4  0  0  0  0
157158  2  0  0  0  0
158159  4  0  0  0  0
156160  4  0  0  0  0
159160  4  0  0  0  0
159161  4  0  0  0  0
161162  1  0  0  0  0
162163  4  0  0  0  0
163164  4  0  0  0  0
164165  4  0  0  0  0
165166  1  0  0  0  0
166167  1  0  0  0  0
166168  1  0  0  0  0
165169  4  0  0  0  0
162170  4  0  0  0  0
169170  4  0  0  0  0
161171  4  0  0  0  0
171172  1  0  0  0  0
172173  2  0  0  0  0
171174  4  0  0  0  0
173175  1  0  0  0  0
174175  4  0  0  0  0
149176  4  0  0  0  0
175176  4  0  0  0  0
176177  4  0  0  0  0
177178  4  0  0  0  0
178179  2  0  0  0  0
179180  4  0  0  0  0
177181  4  0  0  0  0
180181  4  0  0  0  0
180182  4  0  0  0  0
182183  1  0  0  0  0
183184  4  0  0  0  0
184185  4  0  0  0  0
185186  4  0  0  0  0
186187  1  0  0  0  0
187188  1  0  0  0  0
187189  1  0  0  0  0
186190  4  0  0  0  0
183191  4  0  0  0  0
190191  4  0  0  0  0
182192  4  0  0  0  0
192193  1  0  0  0  0
193194  2  0  0  0  0
155195  4  0  0  0  0
194195  1  0  0  0  0
192196  4  0  0  0  0
195196  4  0  0  0  0
157197  1  0  0  0  0
158198  1  0  0  0  0
160199  1  0  0  0  0
163200  1  0  0  0  0
164201  1  0  0  0  0
167202  1  0  0  0  0
167203  1  0  0  0  0
167204  1  0  0  0  0
168205  1  0  0  0  0
168206  1  0  0  0  0
168207  1  0  0  0  0
169208  1  0  0  0  0
170209  1  0  0  0  0
172210  1  0  0  0  0
173211  1  0  0  0  0
178212  1  0  0  0  0
179213  1  0  0  0  0
181214  1  0  0  0  0
184215  1  0  0  0  0
185216  1  0  0  0  0
188217  1  0  0  0  0
188218  1  0  0  0  0
188219  1  0  0  0  0
189220  1  0  0  0  0
189221  1  0  0  0  0
189222  1  0  0  0  0
190223  1  0  0  0  0
191224  1  0  0  0  0
193225  1  0  0  0  0
194226  1  0  0  0  0
150227  4  0  0  0  0
227228  4  0  0  0  0
228229  4  0  0  0  0
229230  2  0  0  0  0
230231  4  0  0  0  0
228232  4  0  0  0  0
231232  4  0  0  0  0
231233  4  0  0  0  0
233234  1  0  0  0  0
234235  4  0  0  0  0
235236  4  0  0  0  0
236237  4  0  0  0  0
237238  1  0  0  0  0
238239  1  0  0  0  0
238240  1  0  0  0  0
237241  4  0  0  0  0
234242  4  0  0  0  0
241242  4  0  0  0  0
233243  4  0  0  0  0
243244  1  0  0  0  0
244245  2  0  0  0  0
243246  4  0  0  0  0
245247  1  0  0  0  0
246247  4  0  0  0  0
151248  4  0  0  0  0
247248  4  0  0  0  0
248249  4  0  0  0  0
249250  4  0  0  0  0
250251  2  0  0  0  0
251252  4  0  0  0  0
249253  4  0  0  0  0
252253  4  0  0  0  0
252254  4  0  0  0  0
254255  1  0  0  0  0
255256  4  0  0  0  0
256257  4  0  0  0  0
257258  4  0  0  0  0
258259  1  0  0  0  0
259260  1  0  0  0  0
259261  1  0  0  0  0
258262  4  0  0  0  0
255263  4  0  0  0  0
262263  4  0  0  0  0
254264  4  0  0  0  0
264265  1  0  0  0  0
265266  2  0  0  0  0
227267  4  0  0  0  0
266267  1  0  0  0  0
264268  4  0  0  0  0
267268  4  0  0  0  0
229269  1  0  0  0  0
230270  1  0  0  0  0
232271  1  0  0  0  0
235272  1  0  0  0  0
236273  1  0  0  0  0
239274  1  0  0  0  0
239275  1  0  0  0  0
239276  1  0  0  0  0
240277  1  0  0  0  0
240278  1  0  0  0  0
240279  1  0  0  0  0
241280  1  0  0  0  0
242281  1  0  0  0  0
244282  1  0  0  0  0
245283  1  0  0  0  0
250284  1  0  0  0  0
251285  1  0  0  0  0
253286  1  0  0  0  0
256287  1  0  0  0  0
257288  1  0  0  0  0
260289  1  0  0  0  0
260290  1  0  0  0  0
260291  1  0  0  0  0
261292  1  0  0  0  0
261293  1  0  0  0  0
261294  1  0  0  0  0
262295  1  0  0  0  0
263296  1  0  0  0  0
265297  1  0  0  0  0
266298  1  0  0  0  0
152299  4  0  0  0  0
299300  4  0  0  0  0
300301  4  0  0  0  0
301302  2  0  0  0  0
302303  4  0  0  0  0
300304  4  0  0  0  0
303304  4  0  0  0  0
303305  4  0  0  0  0
305306  1  0  0  0  0
306307  4  0  0  0  0
307308  4  0  0  0  0
308309  4  0  0  0  0
309310  1  0  0  0  0
310311  1  0  0  0  0
310312  1  0  0  0  0
309313  4  0  0  0  0
306314  4  0  0  0  0
313314  4  0  0  0  0
305315  4  0  0  0  0
315316  1  0  0  0  0
316317  2  0  0  0  0
315318  4  0  0  0  0
317319  1  0  0  0  0
318319  4  0  0  0  0
153320  4  0  0  0  0
319320  4  0  0  0  0
320321  4  0  0  0  0
321322  4  0  0  0  0
322323  2  0  0  0  0
323324  4  0  0  0  0
321325  4  0  0  0  0
324325  4  0  0  0  0
324326  4  0  0  0  0
326327  1  0  0  0  0
327328  4  0  0  0  0
328329  4  0  0  0  0
329330  4  0  0  0  0
330331  1  0  0  0  0
331332  1  0  0  0  0
331333  1  0  0  0  0
330334  4  0  0  0  0
327335  4  0  0  0  0
334335  4  0  0  0  0
326336  4  0  0  0  0
336337  1  0  0  0  0
337338  2  0  0  0  0
299339  4  0  0  0  0
338339  1  0  0  0  0
336340  4  0  0  0  0
339340  4  0  0  0  0
301341  1  0  0  0  0
302342  1  0  0  0  0
304343  1  0  0  0  0
307344  1  0  0  0  0
308345  1  0  0  0  0
311346  1  0  0  0  0
311347  1  0  0  0  0
311348  1  0  0  0  0
312349  1  0  0  0  0
312350  1  0  0  0  0
312351  1  0  0  0  0
313352  1  0  0  0  0
314353  1  0  0  0  0
316354  1  0  0  0  0
317355  1  0  0  0  0
322356  1  0  0  0  0
323357  1  0  0  0  0
325358  1  0  0  0  0
328359  1  0  0  0  0
329360  1  0  0  0  0
332361  1  0  0  0  0
332362  1  0  0  0  0
332363  1  0  0  0  0
333364  1  0  0  0  0
333365  1  0  0  0  0
333366  1  0  0  0  0
334367  1  0  0  0  0
335368  1  0  0  0  0
337369  1  0  0  0  0
338370  1  0  0  0  0
M  END
