496

C 117.304516 0.056543 0.005884
C 118.029371 -0.997391 0.897167
C 117.413920 -1.984567 1.633252
C 118.435347 -2.688705 2.321046
C 119.641024 -2.101254 1.987597
N 119.384044 -1.097739 1.087714
C 121.069077 -2.486615 2.557865
C 121.118579 -3.433902 3.696621
C 121.367966 -4.792301 3.478279
C 121.420572 -5.682893 4.554715
C 121.266020 -5.222590 5.865206
N 121.227362 -6.133809 6.935274
C 120.942433 -3.878058 6.074065
C 120.891063 -2.983739 5.000539
C 122.197727 -1.929594 2.040226
C 123.507022 -2.209974 2.592968
C 124.408549 -1.513616 1.910810
N 122.390766 -1.051969 1.004857
C 123.724931 -0.762078 0.876647
C 124.394837 0.042882 0.008810
C 123.620305 0.822915 -1.137731
C 124.174685 1.316076 -2.302598
C 123.149630 1.983524 -3.016761
C 121.992931 1.867573 -2.276648
N 122.279167 1.122051 -1.156658
C 120.575882 2.470418 -2.656311
C 120.526101 3.552180 -3.664612
C 120.306285 3.252271 -5.012708
C 120.257212 4.274740 -5.964554
C 120.380350 5.611866 -5.577205
N 120.420154 6.628010 -6.548139
C 120.670338 5.902752 -4.240378
C 120.722166 4.882760 -3.285037
C 119.453713 1.995447 -2.055667
C 118.128444 2.507906 -2.356523
C 117.244866 1.837154 -1.623739
C 117.970091 0.877922 -0.827576
N 119.292552 1.018335 -1.112799
H 116.225515 0.122220 0.075147
H 116.351258 -2.168719 1.680469
H 118.303328 -3.517639 3.001232
H 120.087814 -0.519855 0.634755
H 121.515793 -5.145428 2.461021
H 121.594264 -6.734781 4.353047
H 121.455835 -5.691370 7.819827
H 121.793061 -6.957328 6.755607
H 120.736273 -3.504857 7.072003
H 120.666563 -1.932128 5.166778
H 123.723085 -2.858249 3.423040
H 125.464748 -1.526912 2.107084
H 125.206147 1.219940 -2.604451
H 123.246009 2.494018 -3.963005
H 121.590445 0.805334 -0.479127
H 120.180750 2.213770 -5.309580
H 120.112915 4.010120 -7.006505
H 119.872947 6.391448 -7.368531
H 120.169415 7.532010 -6.162047
H 120.849978 6.924428 -3.921660
H 120.920267 5.112282 -2.240238
H 117.896806 3.294355 -3.051832
H 116.179848 1.980637 -1.619505
C 197.983102 0.043163 0.022778
C 197.258248 0.669340 -1.207289
C 197.873699 1.159736 -2.336824
C 196.852272 1.667957 -3.179784
C 195.646595 1.477933 -2.531573
N 195.903575 0.831835 -1.348615
C 194.218542 1.944770 -3.037312
C 194.169040 2.836268 -4.220253
C 193.919653 2.312582 -5.492523
C 193.867047 3.156403 -6.606002
C 194.021599 4.537488 -6.458112
N 194.060257 5.370386 -7.590211
C 194.345186 5.048767 -5.197167
C 194.396556 4.208632 -4.080728
C 193.089892 1.568482 -2.376532
C 191.780597 2.042306 -2.776067
C 190.879070 1.537789 -1.941970
N 192.896853 0.761666 -1.285084
C 191.562688 0.703265 -0.973532
C 190.892782 0.042882 0.008810
C 191.667314 -0.894505 1.030727
C 191.112934 -1.915441 1.777596
C 192.137989 -2.457734 2.590882
C 193.294688 -1.763857 2.308486
N 193.008452 -0.844410 1.326244
C 194.711737 -1.995340 2.982267
C 194.761518 -2.729050 4.266226
C 194.981334 -4.110001 4.283080
C 195.030407 -4.802338 5.496391
C 194.907269 -4.119010 6.709243
N 194.867465 -4.831377 7.920769
C 194.617281 -2.751096 6.686187
C 194.565453 -2.054789 5.474487
C 195.833906 -1.519460 2.382343
C 197.159175 -1.694936 2.950091
C 198.042753 -1.135275 2.129323
C 197.317528 -0.579996 1.013228
N 195.995067 -0.825474 1.215240
H 199.062104 0.125628 0.070844
H 198.936361 1.163517 -2.526895
H 196.984291 2.140187 -4.142480
H 195.199805 0.523287 -0.682342
H 193.771826 1.241483 -5.603254
H 193.693354 2.719156 -7.583731
H 193.831784 6.332765 -7.362147
H 193.494558 5.006865 -8.350681
H 194.551346 6.105657 -5.062472
H 194.621056 4.611329 -3.095155
H 191.564534 2.701817 -3.597239
H 189.822871 1.725799 -1.999871
H 190.081471 -2.231289 1.753157
H 192.041610 -3.261888 3.304546
H 193.697174 -0.257438 0.862756
H 195.106868 -4.636855 3.340190
H 195.174704 -5.877199 5.477471
H 195.414672 -5.684143 7.878412
H 195.118203 -4.248483 8.712298
H 194.437641 -2.206831 7.607696
H 194.367352 -0.985195 5.458589
H 197.390813 -2.191618 3.874895
H 199.107771 -1.098287 2.268022
C 126.120963 0.042882 0.008810
C 127.342881 0.042882 0.008810
C 136.424926 0.042882 0.008810
C 137.646843 0.042882 0.008810
C 146.728888 0.042882 0.008810
C 147.950806 0.042882 0.008810
C 157.032851 0.042882 0.008810
C 158.254768 0.042882 0.008810
C 167.336813 0.042882 0.008810
C 168.558731 0.042882 0.008810
C 177.640775 0.042882 0.008810
C 178.862693 0.042882 0.008810
C 187.944738 0.042882 0.008810
C 189.166655 0.042882 0.008810
C 128.307689 -0.016200 -0.003328
C 129.100334 -0.602358 1.237302
C 128.591842 -1.412791 2.232133
C 129.628456 -1.625305 3.176706
C 130.739475 -0.944428 2.725237
N 130.429628 -0.389279 1.508880
C 132.129200 -0.813264 3.473018
C 132.123342 -0.905917 4.951694
C 132.582909 -2.059796 5.595464
C 132.574233 -2.141877 6.991198
C 132.144619 -1.059229 7.763699
N 132.051110 -1.180198 9.161037
C 131.615133 0.061413 7.117389
C 131.623391 0.148138 5.721682
C 133.263928 -0.575972 2.763003
C 134.550899 -0.386772 3.400369
C 135.458575 -0.167827 2.455204
N 133.471893 -0.447917 1.417340
C 134.796268 -0.206069 1.166916
C 135.460374 -0.016200 -0.003328
C 134.667716 -0.065842 -1.374524
C 135.176021 -0.418989 -2.608204
C 134.139427 -0.241809 -3.560066
C 133.028603 0.206540 -2.876802
N 133.338554 0.237520 -1.540141
C 131.638909 0.621932 -3.512255
C 131.644590 1.119252 -4.907841
C 132.142214 2.392321 -5.200210
C 132.150074 2.862331 -6.517260
C 131.622543 2.085772 -7.552929
N 131.715810 2.525065 -8.884942
C 131.195282 0.785563 -7.269432
C 131.186923 0.311322 -5.954190
C 130.504206 0.560183 -2.766166
C 129.217216 0.985093 -3.277460
C 128.309517 0.813669 -2.322556
C 128.971828 0.270816 -1.153589
N 130.296256 0.147527 -1.478953
H 127.582377 -1.790931 2.287190
H 129.566129 -2.192466 4.093430
H 131.091610 0.069049 0.889345
H 132.943450 -2.892468 4.995497
H 132.915799 -3.057874 7.461610
H 132.743534 -1.819976 9.535526
H 132.065538 -0.277135 9.623147
H 131.197698 0.884842 7.687416
H 131.234217 1.032509 5.222178
H 134.746339 -0.407090 4.457514
H 136.502814 0.009912 2.636253
H 136.185355 -0.745290 -2.807809
H 134.201606 -0.402043 -4.626077
H 132.676657 0.414937 -0.790121
H 132.529808 3.009226 -4.392568
H 132.565667 3.844513 -6.716763
H 131.024699 2.082884 -9.481513
H 131.699174 3.537103 -8.954114
H 130.855284 0.128209 -8.062711
H 130.828137 -0.690995 -5.730778
H 129.021802 1.382975 -4.257098
H 127.265245 1.048160 -2.418992
C 138.611652 -0.016200 -0.003328
C 139.404297 -0.602358 1.237302
C 138.895804 -1.412791 2.232133
C 139.932418 -1.625305 3.176706
C 141.043437 -0.944428 2.725237
N 140.733590 -0.389279 1.508880
C 142.433163 -0.813264 3.473018
C 142.427304 -0.905917 4.951694
C 142.886872 -2.059796 5.595464
C 142.878195 -2.141877 6.991198
C 142.448581 -1.059229 7.763699
N 142.355072 -1.180198 9.161037
C 141.919095 0.061413 7.117389
C 141.927354 0.148138 5.721682
C 143.567890 -0.575972 2.763003
C 144.854862 -0.386772 3.400369
C 145.762537 -0.167827 2.455204
N 143.775855 -0.447917 1.417340
C 145.100230 -0.206069 1.166916
C 145.764336 -0.016200 -0.003328
C 144.971678 -0.065842 -1.374524
C 145.479984 -0.418989 -2.608204
C 144.443389 -0.241809 -3.560066
C 143.332565 0.206540 -2.876802
N 143.642517 0.237520 -1.540141
C 141.942871 0.621932 -3.512255
C 141.948552 1.119252 -4.907841
C 142.446176 2.392321 -5.200210
C 142.454036 2.862331 -6.517260
C 141.926505 2.085772 -7.552929
N 142.019772 2.525065 -8.884942
C 141.499245 0.785563 -7.269432
C 141.490886 0.311322 -5.954190
C 140.808168 0.560183 -2.766166
C 139.521178 0.985093 -3.277460
C 138.613479 0.813669 -2.322556
C 139.275790 0.270816 -1.153589
N 140.600218 0.147527 -1.478953
H 137.886340 -1.790931 2.287190
H 139.870091 -2.192466 4.093430
H 141.395573 0.069049 0.889345
H 143.247413 -2.892468 4.995497
H 143.219762 -3.057874 7.461610
H 143.047496 -1.819976 9.535526
H 142.369501 -0.277135 9.623147
H 141.501661 0.884842 7.687416
H 141.538180 1.032509 5.222178
H 145.050302 -0.407090 4.457514
H 146.806777 0.009912 2.636253
H 146.489318 -0.745290 -2.807809
H 144.505568 -0.402043 -4.626077
H 142.980620 0.414937 -0.790121
H 142.833770 3.009226 -4.392568
H 142.869630 3.844513 -6.716763
H 141.328662 2.082884 -9.481513
H 142.003136 3.537103 -8.954114
H 141.159246 0.128209 -8.062711
H 141.132099 -0.690995 -5.730778
H 139.325764 1.382975 -4.257098
H 137.569207 1.048160 -2.418992
C 148.915614 -0.016200 -0.003328
C 149.708259 -0.602358 1.237302
C 149.199767 -1.412791 2.232133
C 150.236381 -1.625305 3.176706
C 151.347400 -0.944428 2.725237
N 151.037553 -0.389279 1.508880
C 152.737125 -0.813264 3.473018
C 152.731267 -0.905917 4.951694
C 153.190834 -2.059796 5.595464
C 153.182157 -2.141877 6.991198
C 152.752544 -1.059229 7.763699
N 152.659035 -1.180198 9.161037
C 152.223057 0.061413 7.117389
C 152.231316 0.148138 5.721682
C 153.871852 -0.575972 2.763003
C 155.158824 -0.386772 3.400369
C 156.066500 -0.167827 2.455204
N 154.079818 -0.447917 1.417340
C 155.404193 -0.206069 1.166916
C 156.068299 -0.016200 -0.003328
C 155.275641 -0.065842 -1.374524
C 155.783946 -0.418989 -2.608204
C 154.747351 -0.241809 -3.560066
C 153.636528 0.206540 -2.876802
N 153.946479 0.237520 -1.540141
C 152.246834 0.621932 -3.512255
C 152.252515 1.119252 -4.907841
C 152.750139 2.392321 -5.200210
C 152.757998 2.862331 -6.517260
C 152.230467 2.085772 -7.552929
N 152.323735 2.525065 -8.884942
C 151.803207 0.785563 -7.269432
C 151.794848 0.311322 -5.954190
C 151.112131 0.560183 -2.766166
C 149.825140 0.985093 -3.277460
C 148.917442 0.813669 -2.322556
C 149.579752 0.270816 -1.153589
N 150.904181 0.147527 -1.478953
H 148.190302 -1.790931 2.287190
H 150.174053 -2.192466 4.093430
H 151.699535 0.069049 0.889345
H 153.551375 -2.892468 4.995497
H 153.523724 -3.057874 7.461610
H 153.351459 -1.819976 9.535526
H 152.673463 -0.277135 9.623147
H 151.805623 0.884842 7.687416
H 151.842142 1.032509 5.222178
H 155.354264 -0.407090 4.457514
H 157.110739 0.009912 2.636253
H 156.793280 -0.745290 -2.807809
H 154.809531 -0.402043 -4.626077
H 153.284582 0.414937 -0.790121
H 153.137733 3.009226 -4.392568
H 153.173592 3.844513 -6.716763
H 151.632624 2.082884 -9.481513
H 152.307098 3.537103 -8.954114
H 151.463209 0.128209 -8.062711
H 151.436062 -0.690995 -5.730778
H 149.629726 1.382975 -4.257098
H 147.873169 1.048160 -2.418992
C 159.219577 -0.016200 -0.003328
C 160.012222 -0.602358 1.237302
C 159.503729 -1.412791 2.232133
C 160.540343 -1.625305 3.176706
C 161.651362 -0.944428 2.725237
N 161.341515 -0.389279 1.508880
C 163.041088 -0.813264 3.473018
C 163.035229 -0.905917 4.951694
C 163.494796 -2.059796 5.595464
C 163.486120 -2.141877 6.991198
C 163.056506 -1.059229 7.763699
N 162.962997 -1.180198 9.161037
C 162.527020 0.061413 7.117389
C 162.535278 0.148138 5.721682
C 164.175815 -0.575972 2.763003
C 165.462787 -0.386772 3.400369
C 166.370462 -0.167827 2.455204
N 164.383780 -0.447917 1.417340
C 165.708155 -0.206069 1.166916
C 166.372261 -0.016200 -0.003328
C 165.579603 -0.065842 -1.374524
C 166.087909 -0.418989 -2.608204
C 165.051314 -0.241809 -3.560066
C 163.940490 0.206540 -2.876802
N 164.250441 0.237520 -1.540141
C 162.550796 0.621932 -3.512255
C 162.556477 1.119252 -4.907841
C 163.054101 2.392321 -5.200210
C 163.061961 2.862331 -6.517260
C 162.534430 2.085772 -7.552929
N 162.627697 2.525065 -8.884942
C 162.107169 0.785563 -7.269432
C 162.098810 0.311322 -5.954190
C 161.416093 0.560183 -2.766166
C 160.129103 0.985093 -3.277460
C 159.221404 0.813669 -2.322556
C 159.883715 0.270816 -1.153589
N 161.208143 0.147527 -1.478953
H 158.494265 -1.790931 2.287190
H 160.478016 -2.192466 4.093430
H 162.003497 0.069049 0.889345
H 163.855337 -2.892468 4.995497
H 163.827686 -3.057874 7.461610
H 163.655421 -1.819976 9.535526
H 162.977426 -0.277135 9.623147
H 162.109586 0.884842 7.687416
H 162.146105 1.032509 5.222178
H 165.658226 -0.407090 4.457514
H 167.414702 0.009912 2.636253
H 167.097243 -0.745290 -2.807809
H 165.113493 -0.402043 -4.626077
H 163.588544 0.414937 -0.790121
H 163.441695 3.009226 -4.392568
H 163.477554 3.844513 -6.716763
H 161.936587 2.082884 -9.481513
H 162.611061 3.537103 -8.954114
H 161.767171 0.128209 -8.062711
H 161.740024 -0.690995 -5.730778
H 159.933689 1.382975 -4.257098
H 158.177132 1.048160 -2.418992
C 169.523539 -0.016200 -0.003328
C 170.316184 -0.602358 1.237302
C 169.807691 -1.412791 2.232133
C 170.844305 -1.625305 3.176706
C 171.955325 -0.944428 2.725237
N 171.645477 -0.389279 1.508880
C 173.345050 -0.813264 3.473018
C 173.339191 -0.905917 4.951694
C 173.798759 -2.059796 5.595464
C 173.790082 -2.141877 6.991198
C 173.360469 -1.059229 7.763699
N 173.266959 -1.180198 9.161037
C 172.830982 0.061413 7.117389
C 172.839241 0.148138 5.721682
C 174.479777 -0.575972 2.763003
C 175.766749 -0.386772 3.400369
C 176.674425 -0.167827 2.455204
N 174.687742 -0.447917 1.417340
C 176.012117 -0.206069 1.166916
C 176.676223 -0.016200 -0.003328
C 175.883565 -0.065842 -1.374524
C 176.391871 -0.418989 -2.608204
C 175.355276 -0.241809 -3.560066
C 174.244452 0.206540 -2.876802
N 174.554404 0.237520 -1.540141
C 172.854758 0.621932 -3.512255
C 172.860440 1.119252 -4.907841
C 173.358063 2.392321 -5.200210
C 173.365923 2.862331 -6.517260
C 172.838392 2.085772 -7.552929
N 172.931659 2.525065 -8.884942
C 172.411132 0.785563 -7.269432
C 172.402773 0.311322 -5.954190
C 171.720056 0.560183 -2.766166
C 170.433065 0.985093 -3.277460
C 169.525366 0.813669 -2.322556
C 170.187677 0.270816 -1.153589
N 171.512105 0.147527 -1.478953
H 168.798227 -1.790931 2.287190
H 170.781978 -2.192466 4.093430
H 172.307460 0.069049 0.889345
H 174.159300 -2.892468 4.995497
H 174.131649 -3.057874 7.461610
H 173.959384 -1.819976 9.535526
H 173.281388 -0.277135 9.623147
H 172.413548 0.884842 7.687416
H 172.450067 1.032509 5.222178
H 175.962189 -0.407090 4.457514
H 177.718664 0.009912 2.636253
H 177.401205 -0.745290 -2.807809
H 175.417456 -0.402043 -4.626077
H 173.892507 0.414937 -0.790121
H 173.745658 3.009226 -4.392568
H 173.781517 3.844513 -6.716763
H 172.240549 2.082884 -9.481513
H 172.915023 3.537103 -8.954114
H 172.071134 0.128209 -8.062711
H 172.043987 -0.690995 -5.730778
H 170.237651 1.382975 -4.257098
H 168.481094 1.048160 -2.418992
C 179.827501 -0.016200 -0.003328
C 180.620146 -0.602358 1.237302
C 180.111654 -1.412791 2.232133
C 181.148268 -1.625305 3.176706
C 182.259287 -0.944428 2.725237
N 181.949440 -0.389279 1.508880
C 183.649012 -0.813264 3.473018
C 183.643154 -0.905917 4.951694
C 184.102721 -2.059796 5.595464
C 184.094045 -2.141877 6.991198
C 183.664431 -1.059229 7.763699
N 183.570922 -1.180198 9.161037
C 183.134945 0.061413 7.117389
C 183.143203 0.148138 5.721682
C 184.783740 -0.575972 2.763003
C 186.070711 -0.386772 3.400369
C 186.978387 -0.167827 2.455204
N 184.991705 -0.447917 1.417340
C 186.316080 -0.206069 1.166916
C 186.980186 -0.016200 -0.003328
C 186.187528 -0.065842 -1.374524
C 186.695833 -0.418989 -2.608204
C 185.659239 -0.241809 -3.560066
C 184.548415 0.206540 -2.876802
N 184.858366 0.237520 -1.540141
C 183.158721 0.621932 -3.512255
C 183.164402 1.119252 -4.907841
C 183.662026 2.392321 -5.200210
C 183.669886 2.862331 -6.517260
C 183.142355 2.085772 -7.552929
N 183.235622 2.525065 -8.884942
C 182.715094 0.785563 -7.269432
C 182.706735 0.311322 -5.954190
C 182.024018 0.560183 -2.766166
C 180.737027 0.985093 -3.277460
C 179.829329 0.813669 -2.322556
C 180.491640 0.270816 -1.153589
N 181.816068 0.147527 -1.478953
H 179.102189 -1.790931 2.287190
H 181.085941 -2.192466 4.093430
H 182.611422 0.069049 0.889345
H 184.463262 -2.892468 4.995497
H 184.435611 -3.057874 7.461610
H 184.263346 -1.819976 9.535526
H 183.585350 -0.277135 9.623147
H 182.717510 0.884842 7.687416
H 182.754029 1.032509 5.222178
H 186.266151 -0.407090 4.457514
H 188.022626 0.009912 2.636253
H 187.705167 -0.745290 -2.807809
H 185.721418 -0.402043 -4.626077
H 184.196469 0.414937 -0.790121
H 184.049620 3.009226 -4.392568
H 184.085479 3.844513 -6.716763
H 182.544511 2.082884 -9.481513
H 183.218986 3.537103 -8.954114
H 182.375096 0.128209 -8.062711
H 182.347949 -0.690995 -5.730778
H 180.541614 1.382975 -4.257098
H 178.785057 1.048160 -2.418992
