 xtb: 6.5.1 (b24c23e)
          07302205513D

118137  0     0  0            999 V2000
   16.8660   -0.0586   -0.0576 Ni  0  0  0  0  0  0  0  0  0  0  0  0
   13.4807   -0.1044   -0.2205 C   0  0  0  0  0  0  0  0  0  0  0  0
   14.1489   -1.3102   -0.2708 C   0  0  0  0  0  0  0  0  0  0  0  0
   13.4890   -2.5761   -0.3700 C   0  0  0  0  0  0  0  0  0  0  0  0
   14.4452   -3.5243   -0.2319 C   0  0  0  0  0  0  0  0  0  0  0  0
   15.6922   -2.8371   -0.0642 C   0  0  0  0  0  0  0  0  0  0  0  0
   15.5022   -1.4784   -0.1132 N   0  0  0  0  0  0  0  0  0  0  0  0
   16.8961   -3.4699    0.2179 C   0  0  0  0  0  0  0  0  0  0  0  0
   16.9110   -4.9480    0.3530 C   0  0  0  0  0  0  0  0  0  0  0  0
   16.6309   -5.7609   -0.7450 C   0  0  0  0  0  0  0  0  0  0  0  0
   16.6484   -7.1422   -0.6254 C   0  0  0  0  0  0  0  0  0  0  0  0
   16.9431   -7.7254    0.6046 C   0  0  0  0  0  0  0  0  0  0  0  0
   16.9685   -9.0737    0.7667 O   0  0  0  0  0  0  0  0  0  0  0  0
   17.2223   -6.9236    1.7097 C   0  0  0  0  0  0  0  0  0  0  0  0
   17.2083   -5.5460    1.5793 C   0  0  0  0  0  0  0  0  0  0  0  0
   18.0903   -2.7764    0.3645 C   0  0  0  0  0  0  0  0  0  0  0  0
   19.3500   -3.4084    0.6145 C   0  0  0  0  0  0  0  0  0  0  0  0
   20.2955   -2.4418    0.5343 C   0  0  0  0  0  0  0  0  0  0  0  0
   18.2640   -1.4258    0.1591 N   0  0  0  0  0  0  0  0  0  0  0  0
   19.6158   -1.2237    0.2298 C   0  0  0  0  0  0  0  0  0  0  0  0
   20.2762   -0.0216   -0.0391 C   0  0  0  0  0  0  0  0  0  0  0  0
   19.5908    1.1721   -0.2797 C   0  0  0  0  0  0  0  0  0  0  0  0
   20.2417    2.4103   -0.5654 C   0  0  0  0  0  0  0  0  0  0  0  0
   19.2785    3.3632   -0.5847 C   0  0  0  0  0  0  0  0  0  0  0  0
   18.0382    2.7021   -0.3159 C   0  0  0  0  0  0  0  0  0  0  0  0
   18.2370    1.3475   -0.1768 N   0  0  0  0  0  0  0  0  0  0  0  0
   16.8238    3.3634   -0.1782 C   0  0  0  0  0  0  0  0  0  0  0  0
   16.8193    4.8453   -0.1958 C   0  0  0  0  0  0  0  0  0  0  0  0
   17.5342    5.5619    0.7675 C   0  0  0  0  0  0  0  0  0  0  0  0
   17.5328    6.9452    0.7681 C   0  0  0  0  0  0  0  0  0  0  0  0
   16.8176    7.6356   -0.2089 C   0  0  0  0  0  0  0  0  0  0  0  0
   16.8395    8.9931   -0.1809 O   0  0  0  0  0  0  0  0  0  0  0  0
   16.1066    6.9349   -1.1803 C   0  0  0  0  0  0  0  0  0  0  0  0
   16.1073    5.5485   -1.1678 C   0  0  0  0  0  0  0  0  0  0  0  0
   15.6191    2.6866   -0.0367 C   0  0  0  0  0  0  0  0  0  0  0  0
   14.3462    3.3310    0.1047 C   0  0  0  0  0  0  0  0  0  0  0  0
   13.4065    2.3570    0.0631 C   0  0  0  0  0  0  0  0  0  0  0  0
   14.1064    1.1171   -0.0775 C   0  0  0  0  0  0  0  0  0  0  0  0
   15.4627    1.3240   -0.1002 N   0  0  0  0  0  0  0  0  0  0  0  0
   12.3982   -0.1194   -0.2722 H   0  0  0  0  0  0  0  0  0  0  0  0
   12.4269   -2.7025   -0.5073 H   0  0  0  0  0  0  0  0  0  0  0  0
   14.3271   -4.5957   -0.2270 H   0  0  0  0  0  0  0  0  0  0  0  0
   16.4135   -5.3076   -1.7057 H   0  0  0  0  0  0  0  0  0  0  0  0
   16.4358   -7.7703   -1.4839 H   0  0  0  0  0  0  0  0  0  0  0  0
   16.7620   -9.5314   -0.0593 H   0  0  0  0  0  0  0  0  0  0  0  0
   17.4469   -7.3914    2.6603 H   0  0  0  0  0  0  0  0  0  0  0  0
   17.4155   -4.9218    2.4413 H   0  0  0  0  0  0  0  0  0  0  0  0
   19.4863   -4.4599    0.8074 H   0  0  0  0  0  0  0  0  0  0  0  0
   21.3614   -2.5337    0.6630 H   0  0  0  0  0  0  0  0  0  0  0  0
   21.3007    2.5230   -0.7294 H   0  0  0  0  0  0  0  0  0  0  0  0
   19.3870    4.4184   -0.7755 H   0  0  0  0  0  0  0  0  0  0  0  0
   18.0820    5.0242    1.5333 H   0  0  0  0  0  0  0  0  0  0  0  0
   18.0792    7.5031    1.5185 H   0  0  0  0  0  0  0  0  0  0  0  0
   16.3113    9.3689   -0.8980 H   0  0  0  0  0  0  0  0  0  0  0  0
   15.5572    7.4767   -1.9428 H   0  0  0  0  0  0  0  0  0  0  0  0
   15.5647    5.0050   -1.9333 H   0  0  0  0  0  0  0  0  0  0  0  0
   14.2024    4.3931    0.2196 H   0  0  0  0  0  0  0  0  0  0  0  0
   12.3340    2.4496    0.1276 H   0  0  0  0  0  0  0  0  0  0  0  0
   27.7218    0.0498   -0.0654 Ni  0  0  0  0  0  0  0  0  0  0  0  0
   31.1070    0.0717   -0.2333 C   0  0  0  0  0  0  0  0  0  0  0  0
   30.4388    1.2578   -0.4560 C   0  0  0  0  0  0  0  0  0  0  0  0
   31.0987    2.4964   -0.7358 C   0  0  0  0  0  0  0  0  0  0  0  0
   30.1425    3.4545   -0.7351 C   0  0  0  0  0  0  0  0  0  0  0  0
   28.8955    2.7985   -0.4705 C   0  0  0  0  0  0  0  0  0  0  0  0
   29.0855    1.4468   -0.3241 N   0  0  0  0  0  0  0  0  0  0  0  0
   27.6916    3.4653   -0.2822 C   0  0  0  0  0  0  0  0  0  0  0  0
   27.6767    4.9474   -0.3606 C   0  0  0  0  0  0  0  0  0  0  0  0
   27.9568    5.5944   -1.5638 C   0  0  0  0  0  0  0  0  0  0  0  0
   27.9393    6.9786   -1.6436 C   0  0  0  0  0  0  0  0  0  0  0  0
   27.6446    7.7322   -0.5100 C   0  0  0  0  0  0  0  0  0  0  0  0
   27.6192    9.0898   -0.5430 O   0  0  0  0  0  0  0  0  0  0  0  0
   27.3654    7.0973    0.6987 C   0  0  0  0  0  0  0  0  0  0  0  0
   27.3795    5.7152    0.7673 C   0  0  0  0  0  0  0  0  0  0  0  0
   26.4974    2.8000   -0.0377 C   0  0  0  0  0  0  0  0  0  0  0  0
   25.2377    3.4613    0.1191 C   0  0  0  0  0  0  0  0  0  0  0  0
   24.2922    2.4932    0.1784 C   0  0  0  0  0  0  0  0  0  0  0  0
   26.3237    1.4339   -0.0472 N   0  0  0  0  0  0  0  0  0  0  0  0
   24.9719    1.2440    0.0518 C   0  0  0  0  0  0  0  0  0  0  0  0
   24.3115    0.0158   -0.0418 C   0  0  0  0  0  0  0  0  0  0  0  0
   24.9970   -1.2001   -0.1086 C   0  0  0  0  0  0  0  0  0  0  0  0
   24.3461   -2.4665   -0.2137 C   0  0  0  0  0  0  0  0  0  0  0  0
   25.3093   -3.4122   -0.0962 C   0  0  0  0  0  0  0  0  0  0  0  0
   26.5496   -2.7194    0.0750 C   0  0  0  0  0  0  0  0  0  0  0  0
   26.3508   -1.3589    0.0184 N   0  0  0  0  0  0  0  0  0  0  0  0
   27.7639   -3.3542    0.3062 C   0  0  0  0  0  0  0  0  0  0  0  0
   27.7684   -4.8232    0.5014 C   0  0  0  0  0  0  0  0  0  0  0  0
   27.0535   -5.3942    1.5576 C   0  0  0  0  0  0  0  0  0  0  0  0
   27.0549   -6.7631    1.7566 C   0  0  0  0  0  0  0  0  0  0  0  0
   27.7701   -7.5866    0.8889 C   0  0  0  0  0  0  0  0  0  0  0  0
   27.7482   -8.9260    1.1113 O   0  0  0  0  0  0  0  0  0  0  0  0
   28.4811   -7.0325   -0.1731 C   0  0  0  0  0  0  0  0  0  0  0  0
   28.4804   -5.6587   -0.3596 C   0  0  0  0  0  0  0  0  0  0  0  0
   28.9687   -2.6641    0.3491 C   0  0  0  0  0  0  0  0  0  0  0  0
   30.2416   -3.2815    0.5815 C   0  0  0  0  0  0  0  0  0  0  0  0
   31.1812   -2.3236    0.4006 C   0  0  0  0  0  0  0  0  0  0  0  0
   30.4814   -1.1167    0.0835 C   0  0  0  0  0  0  0  0  0  0  0  0
   29.1250   -1.3247    0.0908 N   0  0  0  0  0  0  0  0  0  0  0  0
   32.1895    0.0791   -0.2866 H   0  0  0  0  0  0  0  0  0  0  0  0
   32.1608    2.6017   -0.8898 H   0  0  0  0  0  0  0  0  0  0  0  0
   30.2606    4.5155   -0.8840 H   0  0  0  0  0  0  0  0  0  0  0  0
   28.1743    5.0080   -2.4496 H   0  0  0  0  0  0  0  0  0  0  0  0
   28.1519    7.4770   -2.5833 H   0  0  0  0  0  0  0  0  0  0  0  0
   27.8257    9.4243   -1.4261 H   0  0  0  0  0  0  0  0  0  0  0  0
   27.1408    7.6966    1.5724 H   0  0  0  0  0  0  0  0  0  0  0  0
   27.1723    5.2211    1.7099 H   0  0  0  0  0  0  0  0  0  0  0  0
   25.1014    4.5296    0.1592 H   0  0  0  0  0  0  0  0  0  0  0  0
   23.2263    2.6027    0.2927 H   0  0  0  0  0  0  0  0  0  0  0  0
   23.2871   -2.6016   -0.3599 H   0  0  0  0  0  0  0  0  0  0  0  0
   25.2008   -4.4839   -0.1336 H   0  0  0  0  0  0  0  0  0  0  0  0
   26.5057   -4.7522    2.2383 H   0  0  0  0  0  0  0  0  0  0  0  0
   26.5086   -7.2076    2.5793 H   0  0  0  0  0  0  0  0  0  0  0  0
   28.2765   -9.4008    0.4556 H   0  0  0  0  0  0  0  0  0  0  0  0
   29.0305   -7.6781   -0.8499 H   0  0  0  0  0  0  0  0  0  0  0  0
   29.0231   -5.2306   -1.1952 H   0  0  0  0  0  0  0  0  0  0  0  0
   30.3853   -4.3162    0.8476 H   0  0  0  0  0  0  0  0  0  0  0  0
   32.2538   -2.4060    0.4777 H   0  0  0  0  0  0  0  0  0  0  0  0
   21.6857   -0.0090   -0.0479 C   0  0  0  0  0  0  0  0  0  0  0  0
   22.9020    0.0020   -0.0487 C   0  0  0  0  0  0  0  0  0  0  0  0
  2  3  4  0  0  0  0
  3  4  4  0  0  0  0
  4  5  2  0  0  0  0
  5  6  4  0  0  0  0
  1  7  1  0  0  0  0
  3  7  4  0  0  0  0
  6  7  4  0  0  0  0
  6  8  4  0  0  0  0
  8  9  1  0  0  0  0
  9 10  4  0  0  0  0
 10 11  4  0  0  0  0
 11 12  4  0  0  0  0
 12 13  1  0  0  0  0
 12 14  4  0  0  0  0
  9 15  4  0  0  0  0
 14 15  4  0  0  0  0
  8 16  4  0  0  0  0
 16 17  4  0  0  0  0
 17 18  2  0  0  0  0
  1 19  1  0  0  0  0
 16 19  4  0  0  0  0
 18 20  4  0  0  0  0
 19 20  4  0  0  0  0
 20 21  4  0  0  0  0
 21 22  4  0  0  0  0
 22 23  4  0  0  0  0
 23 24  2  0  0  0  0
 24 25  4  0  0  0  0
  1 26  1  0  0  0  0
 22 26  4  0  0  0  0
 25 26  4  0  0  0  0
 25 27  4  0  0  0  0
 27 28  1  0  0  0  0
 28 29  4  0  0  0  0
 29 30  4  0  0  0  0
 30 31  4  0  0  0  0
 31 32  1  0  0  0  0
 31 33  4  0  0  0  0
 28 34  4  0  0  0  0
 33 34  4  0  0  0  0
 27 35  4  0  0  0  0
 35 36  4  0  0  0  0
 36 37  2  0  0  0  0
  2 38  4  0  0  0  0
 37 38  4  0  0  0  0
  1 39  1  0  0  0  0
 35 39  4  0  0  0  0
 38 39  4  0  0  0  0
  2 40  1  0  0  0  0
  4 41  1  0  0  0  0
  5 42  1  0  0  0  0
 10 43  1  0  0  0  0
 11 44  1  0  0  0  0
 13 45  1  0  0  0  0
 14 46  1  0  0  0  0
 15 47  1  0  0  0  0
 17 48  1  0  0  0  0
 18 49  1  0  0  0  0
 23 50  1  0  0  0  0
 24 51  1  0  0  0  0
 29 52  1  0  0  0  0
 30 53  1  0  0  0  0
 32 54  1  0  0  0  0
 33 55  1  0  0  0  0
 34 56  1  0  0  0  0
 36 57  1  0  0  0  0
 37 58  1  0  0  0  0
 60 61  4  0  0  0  0
 61 62  4  0  0  0  0
 62 63  2  0  0  0  0
 63 64  4  0  0  0  0
 59 65  1  0  0  0  0
 61 65  4  0  0  0  0
 64 65  4  0  0  0  0
 64 66  4  0  0  0  0
 66 67  1  0  0  0  0
 67 68  4  0  0  0  0
 68 69  4  0  0  0  0
 69 70  4  0  0  0  0
 70 71  1  0  0  0  0
 70 72  4  0  0  0  0
 67 73  4  0  0  0  0
 72 73  4  0  0  0  0
 66 74  4  0  0  0  0
 74 75  4  0  0  0  0
 75 76  2  0  0  0  0
 59 77  1  0  0  0  0
 74 77  4  0  0  0  0
 76 78  4  0  0  0  0
 77 78  4  0  0  0  0
 78 79  4  0  0  0  0
 79 80  4  0  0  0  0
 80 81  4  0  0  0  0
 81 82  2  0  0  0  0
 82 83  4  0  0  0  0
 59 84  1  0  0  0  0
 80 84  4  0  0  0  0
 83 84  4  0  0  0  0
 83 85  4  0  0  0  0
 85 86  1  0  0  0  0
 86 87  4  0  0  0  0
 87 88  4  0  0  0  0
 88 89  4  0  0  0  0
 89 90  1  0  0  0  0
 89 91  4  0  0  0  0
 86 92  4  0  0  0  0
 91 92  4  0  0  0  0
 85 93  4  0  0  0  0
 93 94  4  0  0  0  0
 94 95  2  0  0  0  0
 60 96  4  0  0  0  0
 95 96  4  0  0  0  0
 59 97  1  0  0  0  0
 93 97  4  0  0  0  0
 96 97  4  0  0  0  0
 60 98  1  0  0  0  0
 62 99  1  0  0  0  0
 63100  1  0  0  0  0
 68101  1  0  0  0  0
 69102  1  0  0  0  0
 71103  1  0  0  0  0
 72104  1  0  0  0  0
 73105  1  0  0  0  0
 75106  1  0  0  0  0
 76107  1  0  0  0  0
 81108  1  0  0  0  0
 82109  1  0  0  0  0
 87110  1  0  0  0  0
 88111  1  0  0  0  0
 90112  1  0  0  0  0
 91113  1  0  0  0  0
 92114  1  0  0  0  0
 94115  1  0  0  0  0
 95116  1  0  0  0  0
 21117  4  0  0  0  0
 79118  4  0  0  0  0
117118  3  0  0  0  0
M  END
