734

C 139.005392 1.196371 -0.177745
C 139.904994 1.585724 -1.387003
C 139.815966 2.737670 -2.143115
C 140.903161 2.714507 -3.056472
C 141.581741 1.526745 -2.856871
N 141.011638 0.882474 -1.784570
C 142.873844 1.002938 -3.620238
C 142.745790 0.678991 -5.069135
C 143.048633 -0.608278 -5.535814
C 142.815378 -0.983437 -6.862716
C 142.200208 -0.101888 -7.747968
N 141.853743 -0.488524 -9.066431
C 140.981266 -1.654739 -9.092875
C 141.936738 1.201543 -7.311045
C 142.208552 1.581606 -5.988527
C 143.978222 0.729343 -2.868852
C 145.253894 0.362778 -3.450056
C 146.111197 0.123577 -2.463446
N 144.151054 0.717289 -1.508868
C 145.419941 0.303499 -1.197524
C 146.012248 0.057606 -0.001874
C 145.185587 0.131935 1.365922
C 145.718804 0.028373 2.633159
C 144.642859 0.006039 3.556312
C 143.478976 0.076401 2.824127
N 143.816341 0.220983 1.495204
C 142.006574 -0.029398 3.428369
C 141.872431 -0.494172 4.828855
C 141.635862 0.422554 5.859647
C 141.521979 -0.012184 7.183922
C 141.672368 -1.367173 7.516963
N 141.501214 -1.869296 8.821082
C 141.687767 -0.956717 9.934854
C 141.892276 -2.272953 6.470455
C 142.007845 -1.842926 5.144341
C 140.928553 0.256880 2.656279
C 139.557610 0.117863 3.120031
C 138.739807 0.456930 2.125500
C 139.559667 0.817154 0.989126
N 140.859992 0.681563 1.361310
H 137.931700 1.235499 -0.292901
H 139.085871 3.525319 -2.021857
H 141.160371 3.487990 -3.768898
H 141.442834 0.138922 -1.250111
H 143.440493 -1.345924 -4.833460
H 143.095331 -1.982542 -7.173583
H 141.427569 0.300628 -9.544156
H 140.118468 -1.530218 -8.427386
H 140.598361 -1.796855 -10.105103
H 141.518023 -2.570464 -8.815739
H 141.454344 1.913101 -7.971215
H 141.982907 2.592924 -5.665611
H 145.478599 0.325488 -4.496118
H 147.139337 -0.158371 -2.602706
H 146.766451 -0.057275 2.877617
H 144.716600 -0.104878 4.626497
H 143.153339 0.341156 0.730481
H 141.539022 1.481702 5.614655
H 141.328367 0.739892 7.947796
H 142.011779 -2.739722 8.929840
H 140.878324 -0.220353 9.981989
H 142.658802 -0.446665 9.883022
H 141.662229 -1.527700 10.871683
H 141.970614 -3.336435 6.671774
H 142.183658 -2.557088 4.342790
H 139.251626 -0.222807 4.091999
H 137.666248 0.436624 2.148827
C 313.994125 1.203852 0.115755
C 313.094523 1.654305 1.303607
C 313.183551 2.843274 2.000053
C 312.096356 2.866671 2.913404
C 311.417776 1.670284 2.774572
N 311.987879 0.972221 1.736485
C 310.125673 1.186045 3.563632
C 310.253727 0.936332 5.027151
C 309.950884 -0.325490 5.558803
C 310.184139 -0.632564 6.903094
C 310.799309 0.292938 7.742286
N 311.145774 -0.026027 9.078735
C 312.018251 -1.189381 9.164557
C 311.062779 1.572418 7.239529
C 310.790965 1.884613 5.899366
C 309.021295 0.874527 2.827160
C 307.745623 0.538047 3.426283
C 306.888320 0.248895 2.453141
N 308.848464 0.793206 1.469556
C 307.579576 0.364091 1.179697
C 306.987269 0.057606 -0.001874
C 307.813930 0.062157 -1.371681
C 307.280713 -0.105829 -2.631996
C 308.356658 -0.175163 -3.552813
C 309.520541 -0.067593 -2.825162
N 309.183176 0.144504 -1.505331
C 310.992943 -0.204036 -3.423230
C 311.127086 -0.739554 -4.798220
C 311.363655 0.123468 -5.874376
C 311.477539 -0.378168 -7.174783
C 311.327149 -1.748365 -7.438364
N 311.498303 -2.316273 -8.715208
C 311.311750 -1.461620 -9.874026
C 311.107241 -2.599655 -6.347069
C 310.991672 -2.102629 -5.044586
C 312.070964 0.121203 -2.666728
C 313.441907 -0.041258 -3.122795
C 314.259710 0.348034 -2.146829
C 313.439850 0.765682 -1.030282
N 312.139525 0.611306 -1.395075
H 315.067817 1.248796 0.228768
H 313.913646 3.623723 1.838825
H 311.839146 3.675444 3.585500
H 311.556683 0.202407 1.240599
H 309.559024 -1.097960 4.894941
H 309.904186 -1.614535 7.264456
H 311.571948 0.786438 9.515637
H 312.881049 -1.098924 8.493588
H 312.401156 -1.279745 10.182710
H 311.481494 -2.118035 8.934432
H 311.545174 2.316684 7.862592
H 311.016610 2.878168 5.525349
H 307.520918 0.554096 4.472887
H 305.860180 -0.025593 2.606584
H 306.233066 -0.203820 -2.871774
H 308.282917 -0.340456 -4.615958
H 309.846178 0.303478 -0.747723
H 311.460495 1.193723 -5.683660
H 311.671150 0.334015 -7.975980
H 310.987738 -3.191110 -8.779483
H 312.121194 -0.728614 -9.958613
H 310.340715 -0.949589 -9.848244
H 311.337288 -2.079587 -10.780550
H 311.028903 -3.672012 -6.493950
H 310.815859 -2.775029 -4.207693
H 313.747891 -0.431002 -4.076146
H 315.333269 0.326566 -2.169091
C 148.278074 0.072807 0.008759
C 149.736300 0.050971 -0.009114
C 150.870228 0.030217 -0.010605
C 152.231610 0.017627 -0.012796
C 153.505829 0.027934 -0.017561
C 154.694291 0.046732 -0.023717
C 156.046652 0.071516 -0.007849
C 157.146919 0.072807 0.008759
C 166.708845 0.072807 0.008759
C 168.167071 0.050971 -0.009114
C 169.301000 0.030217 -0.010605
C 170.662381 0.017627 -0.012796
C 171.936600 0.027934 -0.017561
C 173.125063 0.046732 -0.023717
C 174.477423 0.071516 -0.007849
C 175.577691 0.072807 0.008759
C 185.139617 0.072807 0.008759
C 186.597843 0.050971 -0.009114
C 187.731771 0.030217 -0.010605
C 189.093153 0.017627 -0.012796
C 190.367372 0.027934 -0.017561
C 191.555834 0.046732 -0.023717
C 192.908195 0.071516 -0.007849
C 194.008462 0.072807 0.008759
C 203.570389 0.072807 0.008759
C 205.028615 0.050971 -0.009114
C 206.162543 0.030217 -0.010605
C 207.523925 0.017627 -0.012796
C 208.798144 0.027934 -0.017561
C 209.986606 0.046732 -0.023717
C 211.338967 0.071516 -0.007849
C 212.439234 0.072807 0.008759
C 222.001160 0.072807 0.008759
C 223.459386 0.050971 -0.009114
C 224.593315 0.030217 -0.010605
C 225.954696 0.017627 -0.012796
C 227.228915 0.027934 -0.017561
C 228.417378 0.046732 -0.023717
C 229.769738 0.071516 -0.007849
C 230.870006 0.072807 0.008759
C 240.431932 0.072807 0.008759
C 241.890158 0.050971 -0.009114
C 243.024086 0.030217 -0.010605
C 244.385468 0.017627 -0.012796
C 245.659687 0.027934 -0.017561
C 246.848149 0.046732 -0.023717
C 248.200510 0.071516 -0.007849
C 249.300777 0.072807 0.008759
C 258.862704 0.072807 0.008759
C 260.320930 0.050971 -0.009114
C 261.454858 0.030217 -0.010605
C 262.816240 0.017627 -0.012796
C 264.090458 0.027934 -0.017561
C 265.278921 0.046732 -0.023717
C 266.631282 0.071516 -0.007849
C 267.731549 0.072807 0.008759
C 277.293475 0.072807 0.008759
C 278.751701 0.050971 -0.009114
C 279.885629 0.030217 -0.010605
C 281.247011 0.017627 -0.012796
C 282.521230 0.027934 -0.017561
C 283.709692 0.046732 -0.023717
C 285.062053 0.071516 -0.007849
C 286.162321 0.072807 0.008759
C 295.724247 0.072807 0.008759
C 297.182473 0.050971 -0.009114
C 298.316401 0.030217 -0.010605
C 299.677783 0.017627 -0.012796
C 300.952002 0.027934 -0.017561
C 302.140464 0.046732 -0.023717
C 303.492825 0.071516 -0.007849
C 304.593092 0.072807 0.008759
C 158.443819 -0.024548 -0.000719
C 159.218989 0.022718 1.385907
C 158.637882 0.037087 2.638364
C 159.679972 0.074625 3.592268
C 160.873914 0.082996 2.900981
N 160.584842 0.052070 1.557276
C 162.313983 0.118687 3.562996
C 162.375558 0.186954 5.044279
C 162.441117 -0.980533 5.807315
C 162.472248 -0.908140 7.204259
C 162.405581 0.324605 7.873063
N 162.481461 0.327780 9.277348
C 162.001353 1.500112 9.984031
C 162.395130 1.488627 7.094122
C 162.364075 1.422568 5.695529
C 163.441694 0.089883 2.805226
C 164.755542 0.116949 3.414700
C 165.665506 0.073113 2.450836
N 163.636565 0.034703 1.449982
C 164.981251 0.022051 1.173977
C 165.664958 -0.024548 -0.000719
C 164.890103 -0.065647 -1.387790
C 165.470930 -0.065393 -2.640820
C 164.428919 -0.104487 -3.594955
C 163.235196 -0.125926 -2.903305
N 163.524581 -0.101746 -1.559286
C 161.795858 -0.167672 -3.563984
C 161.727785 -0.235934 -5.044782
C 161.678215 0.933696 -5.806883
C 161.605255 0.868315 -7.203878
C 161.549141 -0.363630 -7.868026
N 161.518155 -0.492802 -9.268639
C 160.976920 0.611077 -10.039357
C 161.656715 -1.529286 -7.092985
C 161.729174 -1.470226 -5.697143
C 160.667569 -0.140158 -2.806280
C 159.353378 -0.170394 -3.415475
C 158.443096 -0.126847 -2.451993
C 159.127318 -0.072311 -1.175398
N 160.472015 -0.082911 -1.451266
H 157.580616 0.019319 2.853364
H 159.569549 0.091303 4.666430
H 161.272204 0.042351 0.807457
H 162.475916 -1.943087 5.302392
H 162.544920 -1.835169 7.764700
H 162.100340 -0.538926 9.647232
H 160.970242 1.742971 9.706411
H 162.017317 1.299656 11.060355
H 162.646607 2.366950 9.809584
H 162.409471 2.472897 7.547611
H 162.339055 2.333224 5.101120
H 164.971924 0.162935 4.467398
H 166.726871 0.079518 2.618222
H 166.527981 -0.038168 -2.856048
H 164.539451 -0.113431 -4.669590
H 162.837560 -0.099624 -0.809188
H 161.698149 1.896041 -5.300314
H 161.589199 1.805451 -7.748066
H 161.105772 -1.386924 -9.522456
H 161.631470 1.487547 -10.000313
H 160.905113 0.311152 -11.090028
H 159.971314 0.883226 -9.701576
H 161.677011 -2.505753 -7.566981
H 161.787454 -2.381999 -5.107397
H 159.136799 -0.218168 -4.467864
H 157.381730 -0.135124 -2.618947
C 176.874591 -0.024548 -0.000719
C 177.649761 0.022718 1.385907
C 177.068653 0.037087 2.638364
C 178.110744 0.074625 3.592268
C 179.304686 0.082996 2.900981
N 179.015614 0.052070 1.557276
C 180.744754 0.118687 3.562996
C 180.806329 0.186954 5.044279
C 180.871888 -0.980533 5.807315
C 180.903020 -0.908140 7.204259
C 180.836352 0.324605 7.873063
N 180.912233 0.327780 9.277348
C 180.432125 1.500112 9.984031
C 180.825902 1.488627 7.094122
C 180.794847 1.422568 5.695529
C 181.872466 0.089883 2.805226
C 183.186314 0.116949 3.414700
C 184.096278 0.073113 2.450836
N 182.067336 0.034703 1.449982
C 183.412023 0.022051 1.173977
C 184.095730 -0.024548 -0.000719
C 183.320875 -0.065647 -1.387790
C 183.901702 -0.065393 -2.640820
C 182.859691 -0.104487 -3.594955
C 181.665968 -0.125926 -2.903305
N 181.955352 -0.101746 -1.559286
C 180.226629 -0.167672 -3.563984
C 180.158557 -0.235934 -5.044782
C 180.108986 0.933696 -5.806883
C 180.036027 0.868315 -7.203878
C 179.979913 -0.363630 -7.868026
N 179.948926 -0.492802 -9.268639
C 179.407692 0.611077 -10.039357
C 180.087487 -1.529286 -7.092985
C 180.159946 -1.470226 -5.697143
C 179.098340 -0.140158 -2.806280
C 177.784150 -0.170394 -3.415475
C 176.873867 -0.126847 -2.451993
C 177.558090 -0.072311 -1.175398
N 178.902786 -0.082911 -1.451266
H 176.011388 0.019319 2.853364
H 178.000321 0.091303 4.666430
H 179.702976 0.042351 0.807457
H 180.906688 -1.943087 5.302392
H 180.975691 -1.835169 7.764700
H 180.531112 -0.538926 9.647232
H 179.401014 1.742971 9.706411
H 180.448088 1.299656 11.060355
H 181.077378 2.366950 9.809584
H 180.840242 2.472897 7.547611
H 180.769826 2.333224 5.101120
H 183.402696 0.162935 4.467398
H 185.157642 0.079518 2.618222
H 184.958752 -0.038168 -2.856048
H 182.970223 -0.113431 -4.669590
H 181.268332 -0.099624 -0.809188
H 180.128920 1.896041 -5.300314
H 180.019971 1.805451 -7.748066
H 179.536544 -1.386924 -9.522456
H 180.062242 1.487547 -10.000313
H 179.335885 0.311152 -11.090028
H 178.402086 0.883226 -9.701576
H 180.107783 -2.505753 -7.566981
H 180.218226 -2.381999 -5.107397
H 177.567571 -0.218168 -4.467864
H 175.812501 -0.135124 -2.618947
C 195.305362 -0.024548 -0.000719
C 196.080532 0.022718 1.385907
C 195.499425 0.037087 2.638364
C 196.541515 0.074625 3.592268
C 197.735458 0.082996 2.900981
N 197.446386 0.052070 1.557276
C 199.175526 0.118687 3.562996
C 199.237101 0.186954 5.044279
C 199.302660 -0.980533 5.807315
C 199.333791 -0.908140 7.204259
C 199.267124 0.324605 7.873063
N 199.343004 0.327780 9.277348
C 198.862897 1.500112 9.984031
C 199.256674 1.488627 7.094122
C 199.225619 1.422568 5.695529
C 200.303237 0.089883 2.805226
C 201.617086 0.116949 3.414700
C 202.527050 0.073113 2.450836
N 200.498108 0.034703 1.449982
C 201.842794 0.022051 1.173977
C 202.526502 -0.024548 -0.000719
C 201.751646 -0.065647 -1.387790
C 202.332473 -0.065393 -2.640820
C 201.290462 -0.104487 -3.594955
C 200.096739 -0.125926 -2.903305
N 200.386124 -0.101746 -1.559286
C 198.657401 -0.167672 -3.563984
C 198.589329 -0.235934 -5.044782
C 198.539758 0.933696 -5.806883
C 198.466799 0.868315 -7.203878
C 198.410685 -0.363630 -7.868026
N 198.379698 -0.492802 -9.268639
C 197.838463 0.611077 -10.039357
C 198.518258 -1.529286 -7.092985
C 198.590717 -1.470226 -5.697143
C 197.529112 -0.140158 -2.806280
C 196.214921 -0.170394 -3.415475
C 195.304639 -0.126847 -2.451993
C 195.988861 -0.072311 -1.175398
N 197.333558 -0.082911 -1.451266
H 194.442159 0.019319 2.853364
H 196.431092 0.091303 4.666430
H 198.133747 0.042351 0.807457
H 199.337459 -1.943087 5.302392
H 199.406463 -1.835169 7.764700
H 198.961883 -0.538926 9.647232
H 197.831786 1.742971 9.706411
H 198.878860 1.299656 11.060355
H 199.508150 2.366950 9.809584
H 199.271014 2.472897 7.547611
H 199.200598 2.333224 5.101120
H 201.833467 0.162935 4.467398
H 203.588414 0.079518 2.618222
H 203.389524 -0.038168 -2.856048
H 201.400995 -0.113431 -4.669590
H 199.699104 -0.099624 -0.809188
H 198.559692 1.896041 -5.300314
H 198.450743 1.805451 -7.748066
H 197.967316 -1.386924 -9.522456
H 198.493013 1.487547 -10.000313
H 197.766657 0.311152 -11.090028
H 196.832857 0.883226 -9.701576
H 198.538554 -2.505753 -7.566981
H 198.648997 -2.381999 -5.107397
H 195.998343 -0.218168 -4.467864
H 194.243273 -0.135124 -2.618947
C 213.736134 -0.024548 -0.000719
C 214.511304 0.022718 1.385907
C 213.930197 0.037087 2.638364
C 214.972287 0.074625 3.592268
C 216.166229 0.082996 2.900981
N 215.877157 0.052070 1.557276
C 217.606298 0.118687 3.562996
C 217.667873 0.186954 5.044279
C 217.733432 -0.980533 5.807315
C 217.764563 -0.908140 7.204259
C 217.697896 0.324605 7.873063
N 217.773776 0.327780 9.277348
C 217.293668 1.500112 9.984031
C 217.687445 1.488627 7.094122
C 217.656390 1.422568 5.695529
C 218.734009 0.089883 2.805226
C 220.047857 0.116949 3.414700
C 220.957821 0.073113 2.450836
N 218.928880 0.034703 1.449982
C 220.273566 0.022051 1.173977
C 220.957273 -0.024548 -0.000719
C 220.182418 -0.065647 -1.387790
C 220.763245 -0.065393 -2.640820
C 219.721234 -0.104487 -3.594955
C 218.527511 -0.125926 -2.903305
N 218.816896 -0.101746 -1.559286
C 217.088173 -0.167672 -3.563984
C 217.020100 -0.235934 -5.044782
C 216.970530 0.933696 -5.806883
C 216.897570 0.868315 -7.203878
C 216.841456 -0.363630 -7.868026
N 216.810470 -0.492802 -9.268639
C 216.269235 0.611077 -10.039357
C 216.949030 -1.529286 -7.092985
C 217.021489 -1.470226 -5.697143
C 215.959884 -0.140158 -2.806280
C 214.645693 -0.170394 -3.415475
C 213.735411 -0.126847 -2.451993
C 214.419633 -0.072311 -1.175398
N 215.764330 -0.082911 -1.451266
H 212.872931 0.019319 2.853364
H 214.861864 0.091303 4.666430
H 216.564519 0.042351 0.807457
H 217.768231 -1.943087 5.302392
H 217.837235 -1.835169 7.764700
H 217.392655 -0.538926 9.647232
H 216.262557 1.742971 9.706411
H 217.309632 1.299656 11.060355
H 217.938922 2.366950 9.809584
H 217.701786 2.472897 7.547611
H 217.631370 2.333224 5.101120
H 220.264239 0.162935 4.467398
H 222.019186 0.079518 2.618222
H 221.820296 -0.038168 -2.856048
H 219.831766 -0.113431 -4.669590
H 218.129875 -0.099624 -0.809188
H 216.990464 1.896041 -5.300314
H 216.881514 1.805451 -7.748066
H 216.398087 -1.386924 -9.522456
H 216.923785 1.487547 -10.000313
H 216.197428 0.311152 -11.090028
H 215.263629 0.883226 -9.701576
H 216.969326 -2.505753 -7.566981
H 217.079769 -2.381999 -5.107397
H 214.429114 -0.218168 -4.467864
H 212.674045 -0.135124 -2.618947
C 232.166906 -0.024548 -0.000719
C 232.942076 0.022718 1.385907
C 232.360968 0.037087 2.638364
C 233.403058 0.074625 3.592268
C 234.597001 0.082996 2.900981
N 234.307929 0.052070 1.557276
C 236.037069 0.118687 3.562996
C 236.098644 0.186954 5.044279
C 236.164203 -0.980533 5.807315
C 236.195335 -0.908140 7.204259
C 236.128667 0.324605 7.873063
N 236.204548 0.327780 9.277348
C 235.724440 1.500112 9.984031
C 236.118217 1.488627 7.094122
C 236.087162 1.422568 5.695529
C 237.164781 0.089883 2.805226
C 238.478629 0.116949 3.414700
C 239.388593 0.073113 2.450836
N 237.359651 0.034703 1.449982
C 238.704338 0.022051 1.173977
C 239.388045 -0.024548 -0.000719
C 238.613190 -0.065647 -1.387790
C 239.194017 -0.065393 -2.640820
C 238.152006 -0.104487 -3.594955
C 236.958283 -0.125926 -2.903305
N 237.247667 -0.101746 -1.559286
C 235.518944 -0.167672 -3.563984
C 235.450872 -0.235934 -5.044782
C 235.401301 0.933696 -5.806883
C 235.328342 0.868315 -7.203878
C 235.272228 -0.363630 -7.868026
N 235.241241 -0.492802 -9.268639
C 234.700007 0.611077 -10.039357
C 235.379802 -1.529286 -7.092985
C 235.452260 -1.470226 -5.697143
C 234.390655 -0.140158 -2.806280
C 233.076465 -0.170394 -3.415475
C 232.166182 -0.126847 -2.451993
C 232.850405 -0.072311 -1.175398
N 234.195101 -0.082911 -1.451266
H 231.303702 0.019319 2.853364
H 233.292635 0.091303 4.666430
H 234.995290 0.042351 0.807457
H 236.199002 -1.943087 5.302392
H 236.268006 -1.835169 7.764700
H 235.823427 -0.538926 9.647232
H 234.693329 1.742971 9.706411
H 235.740403 1.299656 11.060355
H 236.369693 2.366950 9.809584
H 236.132557 2.472897 7.547611
H 236.062141 2.333224 5.101120
H 238.695011 0.162935 4.467398
H 240.449957 0.079518 2.618222
H 240.251067 -0.038168 -2.856048
H 238.262538 -0.113431 -4.669590
H 236.560647 -0.099624 -0.809188
H 235.421235 1.896041 -5.300314
H 235.312286 1.805451 -7.748066
H 234.828859 -1.386924 -9.522456
H 235.354557 1.487547 -10.000313
H 234.628200 0.311152 -11.090028
H 233.694401 0.883226 -9.701576
H 235.400098 -2.505753 -7.566981
H 235.510541 -2.381999 -5.107397
H 232.859886 -0.218168 -4.467864
H 231.104816 -0.135124 -2.618947
C 250.597677 -0.024548 -0.000719
C 251.372847 0.022718 1.385907
C 250.791740 0.037087 2.638364
C 251.833830 0.074625 3.592268
C 253.027773 0.082996 2.900981
N 252.738701 0.052070 1.557276
C 254.467841 0.118687 3.562996
C 254.529416 0.186954 5.044279
C 254.594975 -0.980533 5.807315
C 254.626106 -0.908140 7.204259
C 254.559439 0.324605 7.873063
N 254.635319 0.327780 9.277348
C 254.155212 1.500112 9.984031
C 254.548988 1.488627 7.094122
C 254.517934 1.422568 5.695529
C 255.595552 0.089883 2.805226
C 256.909401 0.116949 3.414700
C 257.819365 0.073113 2.450836
N 255.790423 0.034703 1.449982
C 257.135109 0.022051 1.173977
C 257.818817 -0.024548 -0.000719
C 257.043961 -0.065647 -1.387790
C 257.624788 -0.065393 -2.640820
C 256.582777 -0.104487 -3.594955
C 255.389054 -0.125926 -2.903305
N 255.678439 -0.101746 -1.559286
C 253.949716 -0.167672 -3.563984
C 253.881644 -0.235934 -5.044782
C 253.832073 0.933696 -5.806883
C 253.759114 0.868315 -7.203878
C 253.702999 -0.363630 -7.868026
N 253.672013 -0.492802 -9.268639
C 253.130778 0.611077 -10.039357
C 253.810573 -1.529286 -7.092985
C 253.883032 -1.470226 -5.697143
C 252.821427 -0.140158 -2.806280
C 251.507236 -0.170394 -3.415475
C 250.596954 -0.126847 -2.451993
C 251.281176 -0.072311 -1.175398
N 252.625873 -0.082911 -1.451266
H 249.734474 0.019319 2.853364
H 251.723407 0.091303 4.666430
H 253.426062 0.042351 0.807457
H 254.629774 -1.943087 5.302392
H 254.698778 -1.835169 7.764700
H 254.254198 -0.538926 9.647232
H 253.124100 1.742971 9.706411
H 254.171175 1.299656 11.060355
H 254.800465 2.366950 9.809584
H 254.563329 2.472897 7.547611
H 254.492913 2.333224 5.101120
H 257.125782 0.162935 4.467398
H 258.880729 0.079518 2.618222
H 258.681839 -0.038168 -2.856048
H 256.693309 -0.113431 -4.669590
H 254.991419 -0.099624 -0.809188
H 253.852007 1.896041 -5.300314
H 253.743058 1.805451 -7.748066
H 253.259631 -1.386924 -9.522456
H 253.785328 1.487547 -10.000313
H 253.058972 0.311152 -11.090028
H 252.125172 0.883226 -9.701576
H 253.830869 -2.505753 -7.566981
H 253.941312 -2.381999 -5.107397
H 251.290658 -0.218168 -4.467864
H 249.535588 -0.135124 -2.618947
C 269.028449 -0.024548 -0.000719
C 269.803619 0.022718 1.385907
C 269.222512 0.037087 2.638364
C 270.264602 0.074625 3.592268
C 271.458544 0.082996 2.900981
N 271.169472 0.052070 1.557276
C 272.898612 0.118687 3.562996
C 272.960188 0.186954 5.044279
C 273.025747 -0.980533 5.807315
C 273.056878 -0.908140 7.204259
C 272.990210 0.324605 7.873063
N 273.066091 0.327780 9.277348
C 272.585983 1.500112 9.984031
C 272.979760 1.488627 7.094122
C 272.948705 1.422568 5.695529
C 274.026324 0.089883 2.805226
C 275.340172 0.116949 3.414700
C 276.250136 0.073113 2.450836
N 274.221195 0.034703 1.449982
C 275.565881 0.022051 1.173977
C 276.249588 -0.024548 -0.000719
C 275.474733 -0.065647 -1.387790
C 276.055560 -0.065393 -2.640820
C 275.013549 -0.104487 -3.594955
C 273.819826 -0.125926 -2.903305
N 274.109210 -0.101746 -1.559286
C 272.380488 -0.167672 -3.563984
C 272.312415 -0.235934 -5.044782
C 272.262845 0.933696 -5.806883
C 272.189885 0.868315 -7.203878
C 272.133771 -0.363630 -7.868026
N 272.102785 -0.492802 -9.268639
C 271.561550 0.611077 -10.039357
C 272.241345 -1.529286 -7.092985
C 272.313804 -1.470226 -5.697143
C 271.252199 -0.140158 -2.806280
C 269.938008 -0.170394 -3.415475
C 269.027726 -0.126847 -2.451993
C 269.711948 -0.072311 -1.175398
N 271.056645 -0.082911 -1.451266
H 268.165246 0.019319 2.853364
H 270.154179 0.091303 4.666430
H 271.856834 0.042351 0.807457
H 273.060546 -1.943087 5.302392
H 273.129549 -1.835169 7.764700
H 272.684970 -0.538926 9.647232
H 271.554872 1.742971 9.706411
H 272.601946 1.299656 11.060355
H 273.231237 2.366950 9.809584
H 272.994101 2.472897 7.547611
H 272.923685 2.333224 5.101120
H 275.556554 0.162935 4.467398
H 277.311500 0.079518 2.618222
H 277.112610 -0.038168 -2.856048
H 275.124081 -0.113431 -4.669590
H 273.422190 -0.099624 -0.809188
H 272.282779 1.896041 -5.300314
H 272.173829 1.805451 -7.748066
H 271.690402 -1.386924 -9.522456
H 272.216100 1.487547 -10.000313
H 271.489743 0.311152 -11.090028
H 270.555944 0.883226 -9.701576
H 272.261641 -2.505753 -7.566981
H 272.372084 -2.381999 -5.107397
H 269.721429 -0.218168 -4.467864
H 267.966360 -0.135124 -2.618947
C 287.459220 -0.024548 -0.000719
C 288.234391 0.022718 1.385907
C 287.653283 0.037087 2.638364
C 288.695373 0.074625 3.592268
C 289.889316 0.082996 2.900981
N 289.600244 0.052070 1.557276
C 291.329384 0.118687 3.562996
C 291.390959 0.186954 5.044279
C 291.456518 -0.980533 5.807315
C 291.487649 -0.908140 7.204259
C 291.420982 0.324605 7.873063
N 291.496863 0.327780 9.277348
C 291.016755 1.500112 9.984031
C 291.410532 1.488627 7.094122
C 291.379477 1.422568 5.695529
C 292.457096 0.089883 2.805226
C 293.770944 0.116949 3.414700
C 294.680908 0.073113 2.450836
N 292.651966 0.034703 1.449982
C 293.996652 0.022051 1.173977
C 294.680360 -0.024548 -0.000719
C 293.905505 -0.065647 -1.387790
C 294.486332 -0.065393 -2.640820
C 293.444321 -0.104487 -3.594955
C 292.250598 -0.125926 -2.903305
N 292.539982 -0.101746 -1.559286
C 290.811259 -0.167672 -3.563984
C 290.743187 -0.235934 -5.044782
C 290.693616 0.933696 -5.806883
C 290.620657 0.868315 -7.203878
C 290.564543 -0.363630 -7.868026
N 290.533556 -0.492802 -9.268639
C 289.992322 0.611077 -10.039357
C 290.672117 -1.529286 -7.092985
C 290.744575 -1.470226 -5.697143
C 289.682970 -0.140158 -2.806280
C 288.368780 -0.170394 -3.415475
C 287.458497 -0.126847 -2.451993
C 288.142720 -0.072311 -1.175398
N 289.487416 -0.082911 -1.451266
H 286.596017 0.019319 2.853364
H 288.584950 0.091303 4.666430
H 290.287605 0.042351 0.807457
H 291.491317 -1.943087 5.302392
H 291.560321 -1.835169 7.764700
H 291.115741 -0.538926 9.647232
H 289.985644 1.742971 9.706411
H 291.032718 1.299656 11.060355
H 291.662008 2.366950 9.809584
H 291.424872 2.472897 7.547611
H 291.354456 2.333224 5.101120
H 293.987325 0.162935 4.467398
H 295.742272 0.079518 2.618222
H 295.543382 -0.038168 -2.856048
H 293.554853 -0.113431 -4.669590
H 291.852962 -0.099624 -0.809188
H 290.713550 1.896041 -5.300314
H 290.604601 1.805451 -7.748066
H 290.121174 -1.386924 -9.522456
H 290.646872 1.487547 -10.000313
H 289.920515 0.311152 -11.090028
H 288.986716 0.883226 -9.701576
H 290.692413 -2.505753 -7.566981
H 290.802855 -2.381999 -5.107397
H 288.152201 -0.218168 -4.467864
H 286.397131 -0.135124 -2.618947
