 xtb: 6.5.1 (b24c23e)
          07302216013D

134153  0     0  0            999 V2000
   15.7155    0.0174    0.0449 Zn  0  0  0  0  0  0  0  0  0  0  0  0
   12.3086    0.1361    0.0920 C   0  0  0  0  0  0  0  0  0  0  0  0
   12.9329   -0.1802    1.2924 C   0  0  0  0  0  0  0  0  0  0  0  0
   12.2535   -0.4824    2.5213 C   0  0  0  0  0  0  0  0  0  0  0  0
   13.2079   -0.7315    3.4519 C   0  0  0  0  0  0  0  0  0  0  0  0
   14.4839   -0.5736    2.8044 C   0  0  0  0  0  0  0  0  0  0  0  0
   14.2815   -0.2497    1.4952 N   0  0  0  0  0  0  0  0  0  0  0  0
   15.7334   -0.7500    3.4114 C   0  0  0  0  0  0  0  0  0  0  0  0
   15.7429   -1.0853    4.8564 C   0  0  0  0  0  0  0  0  0  0  0  0
   15.2081   -0.1965    5.7926 C   0  0  0  0  0  0  0  0  0  0  0  0
   15.2197   -0.5048    7.1430 C   0  0  0  0  0  0  0  0  0  0  0  0
   15.7663   -1.7128    7.5447 C   0  0  0  0  0  0  0  0  0  0  0  0
   15.7914   -2.1074    9.2522 S   0  0  0  0  0  0  0  0  0  0  0  0
   15.7125   -0.9184   10.0482 O   0  0  0  0  0  0  0  0  0  0  0  0
   14.3638   -2.8790    9.3383 O   0  0  0  0  0  0  0  0  0  0  0  0
   16.8233   -3.0592    9.5448 O   0  0  0  0  0  0  0  0  0  0  0  0
   16.3052   -2.6145    6.6411 C   0  0  0  0  0  0  0  0  0  0  0  0
   16.2921   -2.2936    5.2940 C   0  0  0  0  0  0  0  0  0  0  0  0
   16.9755   -0.6397    2.7757 C   0  0  0  0  0  0  0  0  0  0  0  0
   18.2534   -0.7644    3.4213 C   0  0  0  0  0  0  0  0  0  0  0  0
   19.2022   -0.5798    2.4684 C   0  0  0  0  0  0  0  0  0  0  0  0
   17.1722   -0.3671    1.4489 N   0  0  0  0  0  0  0  0  0  0  0  0
   18.5150   -0.3325    1.2349 C   0  0  0  0  0  0  0  0  0  0  0  0
   19.1496   -0.0960   -0.0010 C   0  0  0  0  0  0  0  0  0  0  0  0
   18.4996    0.1782   -1.2211 C   0  0  0  0  0  0  0  0  0  0  0  0
   19.1684    0.3820   -2.4725 C   0  0  0  0  0  0  0  0  0  0  0  0
   18.2086    0.6301   -3.3997 C   0  0  0  0  0  0  0  0  0  0  0  0
   16.9431    0.5898   -2.7198 C   0  0  0  0  0  0  0  0  0  0  0  0
   17.1569    0.3008   -1.3991 N   0  0  0  0  0  0  0  0  0  0  0  0
   15.6948    0.7901   -3.3200 C   0  0  0  0  0  0  0  0  0  0  0  0
   15.6864    1.1321   -4.7637 C   0  0  0  0  0  0  0  0  0  0  0  0
   15.0603    0.2900   -5.6862 C   0  0  0  0  0  0  0  0  0  0  0  0
   15.0472    0.6080   -7.0343 C   0  0  0  0  0  0  0  0  0  0  0  0
   15.6644    1.7773   -7.4480 C   0  0  0  0  0  0  0  0  0  0  0  0
   15.6369    2.1931   -9.1515 S   0  0  0  0  0  0  0  0  0  0  0  0
   15.8059    3.6048   -9.3423 O   0  0  0  0  0  0  0  0  0  0  0  0
   17.0218    1.4780   -9.6100 O   0  0  0  0  0  0  0  0  0  0  0  0
   14.5437    1.5360   -9.8023 O   0  0  0  0  0  0  0  0  0  0  0  0
   16.2903    2.6346   -6.5575 C   0  0  0  0  0  0  0  0  0  0  0  0
   16.3002    2.3047   -5.2124 C   0  0  0  0  0  0  0  0  0  0  0  0
   14.4534    0.7013   -2.6783 C   0  0  0  0  0  0  0  0  0  0  0  0
   13.1746    0.9544   -3.2889 C   0  0  0  0  0  0  0  0  0  0  0  0
   12.2309    0.7680   -2.3331 C   0  0  0  0  0  0  0  0  0  0  0  0
   12.9208    0.4109   -1.1248 C   0  0  0  0  0  0  0  0  0  0  0  0
   14.2647    0.3849   -1.3651 N   0  0  0  0  0  0  0  0  0  0  0  0
   11.2238    0.1743    0.1067 H   0  0  0  0  0  0  0  0  0  0  0  0
   11.1819   -0.5057    2.6427 H   0  0  0  0  0  0  0  0  0  0  0  0
   13.0649   -1.0090    4.4840 H   0  0  0  0  0  0  0  0  0  0  0  0
   14.7975    0.7494    5.4592 H   0  0  0  0  0  0  0  0  0  0  0  0
   14.8182    0.1820    7.8775 H   0  0  0  0  0  0  0  0  0  0  0  0
   14.2576   -3.2880   10.2057 H   0  0  0  0  0  0  0  0  0  0  0  0
   16.7295   -3.5475    6.9903 H   0  0  0  0  0  0  0  0  0  0  0  0
   16.6990   -2.9896    4.5697 H   0  0  0  0  0  0  0  0  0  0  0  0
   18.4048   -0.9540    4.4717 H   0  0  0  0  0  0  0  0  0  0  0  0
   20.2740   -0.6011    2.5844 H   0  0  0  0  0  0  0  0  0  0  0  0
   20.2358    0.3322   -2.6171 H   0  0  0  0  0  0  0  0  0  0  0  0
   18.3435    0.8114   -4.4539 H   0  0  0  0  0  0  0  0  0  0  0  0
   14.5931   -0.6260   -5.3437 H   0  0  0  0  0  0  0  0  0  0  0  0
   14.5637   -0.0371   -7.7570 H   0  0  0  0  0  0  0  0  0  0  0  0
   17.3686    1.9072  -10.4019 H   0  0  0  0  0  0  0  0  0  0  0  0
   16.7528    3.5469   -6.9130 H   0  0  0  0  0  0  0  0  0  0  0  0
   16.7723    2.9687   -4.4977 H   0  0  0  0  0  0  0  0  0  0  0  0
   13.0234    1.2491   -4.3150 H   0  0  0  0  0  0  0  0  0  0  0  0
   11.1608    0.8691   -2.4241 H   0  0  0  0  0  0  0  0  0  0  0  0
   31.7577    0.0330   -0.0352 Zn  0  0  0  0  0  0  0  0  0  0  0  0
   35.1645    0.1617   -0.0353 C   0  0  0  0  0  0  0  0  0  0  0  0
   34.5400    0.3111   -1.2675 C   0  0  0  0  0  0  0  0  0  0  0  0
   35.2194    0.4846   -2.5211 C   0  0  0  0  0  0  0  0  0  0  0  0
   34.2649    0.5957   -3.4781 C   0  0  0  0  0  0  0  0  0  0  0  0
   32.9890    0.5025   -2.8181 C   0  0  0  0  0  0  0  0  0  0  0  0
   33.1914    0.3204   -1.4818 N   0  0  0  0  0  0  0  0  0  0  0  0
   31.7394    0.5619   -3.4474 C   0  0  0  0  0  0  0  0  0  0  0  0
   31.7298    0.7838   -4.9141 C   0  0  0  0  0  0  0  0  0  0  0  0
   32.2649    1.9555   -5.4557 C   0  0  0  0  0  0  0  0  0  0  0  0
   32.2533    2.1681   -6.8244 C   0  0  0  0  0  0  0  0  0  0  0  0
   31.7062    1.1943   -7.6441 C   0  0  0  0  0  0  0  0  0  0  0  0
   31.6812    1.4591   -9.3765 S   0  0  0  0  0  0  0  0  0  0  0  0
   31.7600    2.8582   -9.6763 O   0  0  0  0  0  0  0  0  0  0  0  0
   33.1091    0.7743   -9.7416 O   0  0  0  0  0  0  0  0  0  0  0  0
   30.6495    0.6828  -10.0005 O   0  0  0  0  0  0  0  0  0  0  0  0
   31.1672    0.0226   -7.1377 C   0  0  0  0  0  0  0  0  0  0  0  0
   31.1803   -0.1770   -5.7673 C   0  0  0  0  0  0  0  0  0  0  0  0
   30.4974    0.4300   -2.8158 C   0  0  0  0  0  0  0  0  0  0  0  0
   29.2193    0.5523   -3.4616 C   0  0  0  0  0  0  0  0  0  0  0  0
   28.2707    0.3727   -2.5077 C   0  0  0  0  0  0  0  0  0  0  0  0
   30.3007    0.1941   -1.4819 N   0  0  0  0  0  0  0  0  0  0  0  0
   28.9580    0.1478   -1.2700 C   0  0  0  0  0  0  0  0  0  0  0  0
   28.3237   -0.0883   -0.0339 C   0  0  0  0  0  0  0  0  0  0  0  0
   28.9741   -0.2838    1.2012 C   0  0  0  0  0  0  0  0  0  0  0  0
   28.3052   -0.5564    2.4394 C   0  0  0  0  0  0  0  0  0  0  0  0
   29.2650   -0.6689    3.3926 C   0  0  0  0  0  0  0  0  0  0  0  0
   30.5306   -0.4559    2.7457 C   0  0  0  0  0  0  0  0  0  0  0  0
   30.3168   -0.2363    1.4117 N   0  0  0  0  0  0  0  0  0  0  0  0
   31.7789   -0.4924    3.3774 C   0  0  0  0  0  0  0  0  0  0  0  0
   31.7873   -0.7081    4.8452 C   0  0  0  0  0  0  0  0  0  0  0  0
   32.4140   -1.8310    5.3916 C   0  0  0  0  0  0  0  0  0  0  0  0
   32.4273   -2.0332    6.7618 C   0  0  0  0  0  0  0  0  0  0  0  0
   31.8094   -1.0996    7.5780 C   0  0  0  0  0  0  0  0  0  0  0  0
   31.8371   -1.3417    9.3147 S   0  0  0  0  0  0  0  0  0  0  0  0
   31.6688   -0.0997   10.0127 O   0  0  0  0  0  0  0  0  0  0  0  0
   30.4518   -2.1750    9.4771 O   0  0  0  0  0  0  0  0  0  0  0  0
   32.9299   -2.1930    9.6774 O   0  0  0  0  0  0  0  0  0  0  0  0
   31.1827    0.0255    7.0669 C   0  0  0  0  0  0  0  0  0  0  0  0
   31.1729    0.2155    5.6951 C   0  0  0  0  0  0  0  0  0  0  0  0
   33.0203   -0.3383    2.7479 C   0  0  0  0  0  0  0  0  0  0  0  0
   34.2993   -0.3292    3.4086 C   0  0  0  0  0  0  0  0  0  0  0  0
   35.2428   -0.1486    2.4515 C   0  0  0  0  0  0  0  0  0  0  0  0
   34.5526   -0.0334    1.1970 C   0  0  0  0  0  0  0  0  0  0  0  0
   33.2087   -0.1466    1.4108 N   0  0  0  0  0  0  0  0  0  0  0  0
   36.2493    0.2033   -0.0349 H   0  0  0  0  0  0  0  0  0  0  0  0
   36.2910    0.5089   -2.6424 H   0  0  0  0  0  0  0  0  0  0  0  0
   34.4080    0.7189   -4.5397 H   0  0  0  0  0  0  0  0  0  0  0  0
   32.6758    2.7111   -4.7963 H   0  0  0  0  0  0  0  0  0  0  0  0
   32.6550    3.0777   -7.2531 H   0  0  0  0  0  0  0  0  0  0  0  0
   33.2156    0.7157  -10.6987 H   0  0  0  0  0  0  0  0  0  0  0  0
   30.7426   -0.7152   -7.8068 H   0  0  0  0  0  0  0  0  0  0  0  0
   30.7734   -1.0915   -5.3516 H   0  0  0  0  0  0  0  0  0  0  0  0
   29.0679    0.7633   -4.5079 H   0  0  0  0  0  0  0  0  0  0  0  0
   27.1989    0.3962   -2.6232 H   0  0  0  0  0  0  0  0  0  0  0  0
   27.2378   -0.6553    2.5555 H   0  0  0  0  0  0  0  0  0  0  0  0
   29.1301   -0.8900    4.4391 H   0  0  0  0  0  0  0  0  0  0  0  0
   32.8817   -2.5556    4.7352 H   0  0  0  0  0  0  0  0  0  0  0  0
   32.9113   -2.8992    7.1953 H   0  0  0  0  0  0  0  0  0  0  0  0
   30.1079   -2.0722   10.3729 H   0  0  0  0  0  0  0  0  0  0  0  0
   30.7197    0.7416    7.7342 H   0  0  0  0  0  0  0  0  0  0  0  0
   30.7002    1.0962    5.2760 H   0  0  0  0  0  0  0  0  0  0  0  0
   34.4507   -0.4350    4.4709 H   0  0  0  0  0  0  0  0  0  0  0  0
   36.3128   -0.0884    2.5733 H   0  0  0  0  0  0  0  0  0  0  0  0
   24.3508   -0.1544   -0.0276 C   0  0  0  0  0  0  0  0  0  0  0  0
   23.1225   -0.1566   -0.0272 C   0  0  0  0  0  0  0  0  0  0  0  0
   21.7783   -0.1472   -0.0209 C   0  0  0  0  0  0  0  0  0  0  0  0
   20.5545   -0.1284   -0.0154 C   0  0  0  0  0  0  0  0  0  0  0  0
   25.6951   -0.1428   -0.0311 C   0  0  0  0  0  0  0  0  0  0  0  0
   26.9188   -0.1248   -0.0312 C   0  0  0  0  0  0  0  0  0  0  0  0
  2  3  4  0  0  0  0
  3  4  4  0  0  0  0
  4  5  2  0  0  0  0
  5  6  4  0  0  0  0
  1  7  1  0  0  0  0
  3  7  4  0  0  0  0
  6  7  4  0  0  0  0
  6  8  4  0  0  0  0
  8  9  1  0  0  0  0
  9 10  4  0  0  0  0
 10 11  4  0  0  0  0
 11 12  4  0  0  0  0
 12 13  1  0  0  0  0
 13 14  2  0  0  0  0
 13 15  1  0  0  0  0
 13 16  2  0  0  0  0
 12 17  4  0  0  0  0
  9 18  4  0  0  0  0
 17 18  4  0  0  0  0
  8 19  4  0  0  0  0
 19 20  4  0  0  0  0
 20 21  2  0  0  0  0
  1 22  1  0  0  0  0
 19 22  4  0  0  0  0
 21 23  4  0  0  0  0
 22 23  4  0  0  0  0
 23 24  4  0  0  0  0
 24 25  4  0  0  0  0
 25 26  4  0  0  0  0
 26 27  2  0  0  0  0
 27 28  4  0  0  0  0
  1 29  1  0  0  0  0
 25 29  4  0  0  0  0
 28 29  4  0  0  0  0
 28 30  4  0  0  0  0
 30 31  1  0  0  0  0
 31 32  4  0  0  0  0
 32 33  4  0  0  0  0
 33 34  4  0  0  0  0
 34 35  1  0  0  0  0
 35 36  2  0  0  0  0
 35 37  1  0  0  0  0
 35 38  2  0  0  0  0
 34 39  4  0  0  0  0
 31 40  4  0  0  0  0
 39 40  4  0  0  0  0
 30 41  4  0  0  0  0
 41 42  4  0  0  0  0
 42 43  2  0  0  0  0
  2 44  4  0  0  0  0
 43 44  4  0  0  0  0
  1 45  1  0  0  0  0
 41 45  4  0  0  0  0
 44 45  4  0  0  0  0
  2 46  1  0  0  0  0
  4 47  1  0  0  0  0
  5 48  1  0  0  0  0
 10 49  1  0  0  0  0
 11 50  1  0  0  0  0
 15 51  1  0  0  0  0
 17 52  1  0  0  0  0
 18 53  1  0  0  0  0
 20 54  1  0  0  0  0
 21 55  1  0  0  0  0
 26 56  1  0  0  0  0
 27 57  1  0  0  0  0
 32 58  1  0  0  0  0
 33 59  1  0  0  0  0
 37 60  1  0  0  0  0
 39 61  1  0  0  0  0
 40 62  1  0  0  0  0
 42 63  1  0  0  0  0
 43 64  1  0  0  0  0
 66 67  4  0  0  0  0
 67 68  4  0  0  0  0
 68 69  2  0  0  0  0
 69 70  4  0  0  0  0
 65 71  1  0  0  0  0
 67 71  4  0  0  0  0
 70 71  4  0  0  0  0
 70 72  4  0  0  0  0
 72 73  1  0  0  0  0
 73 74  4  0  0  0  0
 74 75  4  0  0  0  0
 75 76  4  0  0  0  0
 76 77  1  0  0  0  0
 77 78  2  0  0  0  0
 77 79  1  0  0  0  0
 77 80  2  0  0  0  0
 76 81  4  0  0  0  0
 73 82  4  0  0  0  0
 81 82  4  0  0  0  0
 72 83  4  0  0  0  0
 83 84  4  0  0  0  0
 84 85  2  0  0  0  0
 65 86  1  0  0  0  0
 83 86  4  0  0  0  0
 85 87  4  0  0  0  0
 86 87  4  0  0  0  0
 87 88  4  0  0  0  0
 88 89  4  0  0  0  0
 89 90  4  0  0  0  0
 90 91  2  0  0  0  0
 91 92  4  0  0  0  0
 65 93  1  0  0  0  0
 89 93  4  0  0  0  0
 92 93  4  0  0  0  0
 92 94  4  0  0  0  0
 94 95  1  0  0  0  0
 95 96  4  0  0  0  0
 96 97  4  0  0  0  0
 97 98  4  0  0  0  0
 98 99  1  0  0  0  0
 99100  2  0  0  0  0
 99101  1  0  0  0  0
 99102  2  0  0  0  0
 98103  4  0  0  0  0
 95104  4  0  0  0  0
103104  4  0  0  0  0
 94105  4  0  0  0  0
105106  4  0  0  0  0
106107  2  0  0  0  0
 66108  4  0  0  0  0
107108  4  0  0  0  0
 65109  1  0  0  0  0
105109  4  0  0  0  0
108109  4  0  0  0  0
 66110  1  0  0  0  0
 68111  1  0  0  0  0
 69112  1  0  0  0  0
 74113  1  0  0  0  0
 75114  1  0  0  0  0
 79115  1  0  0  0  0
 81116  1  0  0  0  0
 82117  1  0  0  0  0
 84118  1  0  0  0  0
 85119  1  0  0  0  0
 90120  1  0  0  0  0
 91121  1  0  0  0  0
 96122  1  0  0  0  0
 97123  1  0  0  0  0
101124  1  0  0  0  0
103125  1  0  0  0  0
104126  1  0  0  0  0
106127  1  0  0  0  0
107128  1  0  0  0  0
129130  3  0  0  0  0
130131  4  0  0  0  0
 24132  4  0  0  0  0
131132  3  0  0  0  0
129133  4  0  0  0  0
 88134  4  0  0  0  0
133134  3  0  0  0  0
M  END
