360

C 21.760958 -0.000847 -0.000700
C 22.495392 -1.378005 -0.072586
C 21.908246 -2.621670 -0.137503
C 22.960165 -3.577568 -0.187404
C 24.148617 -2.880382 -0.151016
N 23.856924 -1.544703 -0.081289
C 25.579972 -3.498704 -0.183301
C 26.702534 -2.753897 -0.144418
C 27.987520 -3.406363 -0.178488
C 28.924803 -2.465135 -0.129350
N 26.924365 -1.411680 -0.074342
C 28.273743 -1.167267 -0.061589
C 28.970505 0.000484 -0.000629
C 28.195839 1.392772 0.072058
C 28.759418 2.653311 0.137872
C 27.701394 3.597469 0.187160
C 26.523483 2.887539 0.150088
N 26.828831 1.550404 0.080280
C 25.090686 3.512102 0.182686
C 23.973165 2.762494 0.143551
C 22.669396 3.387215 0.176157
C 21.752913 2.423161 0.125831
C 22.446968 1.157525 0.059768
N 23.783050 1.418751 0.073408
H 20.678242 0.007370 -0.000274
H 20.847570 -2.819336 -0.147820
H 22.860900 -4.650630 -0.243420
H 24.536949 -0.788664 -0.041826
H 25.658015 -4.578137 -0.239660
H 28.152480 -4.467278 -0.233879
H 29.982842 -2.652534 -0.139138
H 29.814792 2.878087 0.149612
H 27.789821 4.671565 0.243238
H 26.150128 0.792562 0.040714
H 25.009454 4.590981 0.239003
H 22.483421 4.444371 0.231339
H 20.686031 2.552562 0.132582
C 184.491995 0.001796 -0.000870
C 183.757562 1.358332 -0.248946
C 184.344707 2.583374 -0.472972
C 183.292789 3.524958 -0.645168
C 182.104337 2.838211 -0.519584
N 182.396029 1.522534 -0.278975
C 180.672981 3.447273 -0.630975
C 179.550420 2.713620 -0.496804
C 178.265434 3.356314 -0.614348
C 177.328150 2.429181 -0.444793
N 179.328589 1.391503 -0.255009
C 177.979211 1.150750 -0.210987
C 177.282449 0.000484 -0.000629
C 178.057114 -1.370954 0.250183
C 177.493535 -2.612615 0.477265
C 178.551560 -3.542634 0.647346
C 179.729471 -2.843337 0.519448
N 179.424122 -1.526225 0.278571
C 181.162268 -3.458548 0.631950
C 182.279789 -2.720165 0.496913
C 183.583558 -3.335532 0.609444
C 184.500041 -2.385915 0.435780
C 183.805986 -1.139230 0.207796
N 182.469904 -1.396544 0.254856
H 185.574712 -0.006299 0.000607
H 185.405384 2.778081 -0.508578
H 183.392054 4.581952 -0.838468
H 181.716004 0.777816 -0.142787
H 180.594939 4.510541 -0.825433
H 178.100473 4.401341 -0.805469
H 176.270111 2.613773 -0.478556
H 176.438161 -2.834024 0.517762
H 178.463133 -4.600646 0.840840
H 180.102825 -0.779733 0.142050
H 181.243500 -4.521272 0.826296
H 183.769532 -4.376858 0.799875
H 185.566922 -2.513378 0.459086
C 32.823692 -0.002007 0.002599
C 34.188680 -0.015683 -0.011217
C 35.952655 -0.003497 -0.018060
C 36.610172 -0.006830 -0.028201
C 38.189806 0.007655 -0.036383
C 39.300120 0.007595 -0.027097
C 40.883339 0.031606 -0.002556
C 42.027419 0.035089 0.011043
C 43.369662 0.019938 0.014146
C 44.490369 -0.002007 0.002599
C 54.302075 -0.002007 0.002599
C 55.667062 -0.015683 -0.011217
C 57.431038 -0.003497 -0.018060
C 58.088555 -0.006830 -0.028201
C 59.668189 0.007655 -0.036383
C 60.778503 0.007595 -0.027097
C 62.361722 0.031606 -0.002556
C 63.505802 0.035089 0.011043
C 64.848045 0.019938 0.014146
C 65.968752 -0.002007 0.002599
C 75.780457 -0.002007 0.002599
C 77.145445 -0.015683 -0.011217
C 78.909421 -0.003497 -0.018060
C 79.566938 -0.006830 -0.028201
C 81.146572 0.007655 -0.036383
C 82.256885 0.007595 -0.027097
C 83.840104 0.031606 -0.002556
C 84.984184 0.035089 0.011043
C 86.326428 0.019938 0.014146
C 87.447135 -0.002007 0.002599
C 97.258840 -0.002007 0.002599
C 98.623828 -0.015683 -0.011217
C 100.387804 -0.003497 -0.018060
C 101.045321 -0.006830 -0.028201
C 102.624954 0.007655 -0.036383
C 103.735268 0.007595 -0.027097
C 105.318487 0.031606 -0.002556
C 106.462567 0.035089 0.011043
C 107.804810 0.019938 0.014146
C 108.925517 -0.002007 0.002599
C 118.737223 -0.002007 0.002599
C 120.102211 -0.015683 -0.011217
C 121.866186 -0.003497 -0.018060
C 122.523704 -0.006830 -0.028201
C 124.103337 0.007655 -0.036383
C 125.213651 0.007595 -0.027097
C 126.796870 0.031606 -0.002556
C 127.940950 0.035089 0.011043
C 129.283193 0.019938 0.014146
C 130.403900 -0.002007 0.002599
C 140.215606 -0.002007 0.002599
C 141.580594 -0.015683 -0.011217
C 143.344569 -0.003497 -0.018060
C 144.002087 -0.006830 -0.028201
C 145.581720 0.007655 -0.036383
C 146.692034 0.007595 -0.027097
C 148.275253 0.031606 -0.002556
C 149.419333 0.035089 0.011043
C 150.761576 0.019938 0.014146
C 151.882283 -0.002007 0.002599
C 161.693989 -0.002007 0.002599
C 163.058977 -0.015683 -0.011217
C 164.822952 -0.003497 -0.018060
C 165.480469 -0.006830 -0.028201
C 167.060103 0.007655 -0.036383
C 168.170417 0.007595 -0.027097
C 169.753636 0.031606 -0.002556
C 170.897716 0.035089 0.011043
C 172.239959 0.019938 0.014146
C 173.360666 -0.002007 0.002599
C 45.775824 0.000484 -0.000627
C 46.555864 1.388019 -0.017952
C 46.003759 2.654121 -0.033775
C 47.072376 3.586744 -0.045408
C 48.243283 2.863116 -0.036348
N 47.924590 1.530089 -0.019706
C 49.675656 3.477784 -0.043995
C 50.801280 2.739732 -0.034787
C 52.081578 3.403129 -0.043041
C 53.026029 2.468157 -0.031379
N 51.031270 1.399240 -0.018080
C 52.383002 1.165687 -0.015155
C 53.085216 0.000484 -0.000627
C 52.305176 -1.387051 0.016655
C 52.857281 -2.653154 0.032391
C 51.788664 -3.585777 0.044027
C 50.617756 -2.862148 0.035055
N 50.936449 -1.529120 0.018452
C 49.185384 -3.476815 0.042747
C 48.059759 -2.738762 0.033545
C 46.779462 -3.402159 0.041843
C 45.835011 -2.467187 0.030180
C 46.478037 -1.164717 0.013911
N 47.829770 -1.398271 0.016812
H 44.950556 2.889343 -0.036730
H 46.995746 4.663245 -0.058855
H 48.589404 0.759481 -0.010079
H 49.752544 4.559123 -0.057469
H 52.238724 4.466674 -0.056293
H 54.082922 2.662360 -0.033788
H 53.910483 -2.888377 0.035285
H 51.865293 -4.662278 0.057420
H 50.271635 -0.758511 0.008868
H 49.108496 -4.558153 0.056249
H 46.622316 -4.465703 0.055124
H 44.778117 -2.661390 0.032617
C 67.254207 0.000484 -0.000627
C 68.034247 1.388019 -0.017952
C 67.482142 2.654121 -0.033775
C 68.550759 3.586744 -0.045408
C 69.721666 2.863116 -0.036348
N 69.402973 1.530089 -0.019706
C 71.154038 3.477784 -0.043995
C 72.279663 2.739732 -0.034787
C 73.559961 3.403129 -0.043041
C 74.504411 2.468157 -0.031379
N 72.509653 1.399240 -0.018080
C 73.861385 1.165687 -0.015155
C 74.563599 0.000484 -0.000627
C 73.783559 -1.387051 0.016655
C 74.335664 -2.653154 0.032391
C 73.267047 -3.585777 0.044027
C 72.096139 -2.862148 0.035055
N 72.414832 -1.529120 0.018452
C 70.663767 -3.476815 0.042747
C 69.538142 -2.738762 0.033545
C 68.257844 -3.402159 0.041843
C 67.313394 -2.467187 0.030180
C 67.956420 -1.164717 0.013911
N 69.308152 -1.398271 0.016812
H 66.428939 2.889343 -0.036730
H 68.474129 4.663245 -0.058855
H 70.067787 0.759481 -0.010079
H 71.230927 4.559123 -0.057469
H 73.717107 4.466674 -0.056293
H 75.561305 2.662360 -0.033788
H 75.388866 -2.888377 0.035285
H 73.343676 -4.662278 0.057420
H 71.750018 -0.758511 0.008868
H 70.586879 -4.558153 0.056249
H 68.100699 -4.465703 0.055124
H 66.256500 -2.661390 0.032617
C 88.732589 0.000484 -0.000627
C 89.512629 1.388019 -0.017952
C 88.960525 2.654121 -0.033775
C 90.029141 3.586744 -0.045408
C 91.200049 2.863116 -0.036348
N 90.881356 1.530089 -0.019706
C 92.632421 3.477784 -0.043995
C 93.758046 2.739732 -0.034787
C 95.038344 3.403129 -0.043041
C 95.982794 2.468157 -0.031379
N 93.988036 1.399240 -0.018080
C 95.339768 1.165687 -0.015155
C 96.041981 0.000484 -0.000627
C 95.261942 -1.387051 0.016655
C 95.814047 -2.653154 0.032391
C 94.745429 -3.585777 0.044027
C 93.574522 -2.862148 0.035055
N 93.893215 -1.529120 0.018452
C 92.142150 -3.476815 0.042747
C 91.016525 -2.738762 0.033545
C 89.736227 -3.402159 0.041843
C 88.791777 -2.467187 0.030180
C 89.434803 -1.164717 0.013911
N 90.786535 -1.398271 0.016812
H 87.907322 2.889343 -0.036730
H 89.952512 4.663245 -0.058855
H 91.546169 0.759481 -0.010079
H 92.709310 4.559123 -0.057469
H 95.195490 4.466674 -0.056293
H 97.039688 2.662360 -0.033788
H 96.867249 -2.888377 0.035285
H 94.822059 -4.662278 0.057420
H 93.228401 -0.758511 0.008868
H 92.065261 -4.558153 0.056249
H 89.579081 -4.465703 0.055124
H 87.734883 -2.661390 0.032617
C 110.210972 0.000484 -0.000627
C 110.991012 1.388019 -0.017952
C 110.438907 2.654121 -0.033775
C 111.507524 3.586744 -0.045408
C 112.678432 2.863116 -0.036348
N 112.359739 1.530089 -0.019706
C 114.110804 3.477784 -0.043995
C 115.236429 2.739732 -0.034787
C 116.516727 3.403129 -0.043041
C 117.461177 2.468157 -0.031379
N 115.466419 1.399240 -0.018080
C 116.818151 1.165687 -0.015155
C 117.520364 0.000484 -0.000627
C 116.740324 -1.387051 0.016655
C 117.292429 -2.653154 0.032391
C 116.223812 -3.585777 0.044027
C 115.052905 -2.862148 0.035055
N 115.371598 -1.529120 0.018452
C 113.620533 -3.476815 0.042747
C 112.494908 -2.738762 0.033545
C 111.214610 -3.402159 0.041843
C 110.270160 -2.467187 0.030180
C 110.913186 -1.164717 0.013911
N 112.264918 -1.398271 0.016812
H 109.385705 2.889343 -0.036730
H 111.430895 4.663245 -0.058855
H 113.024552 0.759481 -0.010079
H 114.187692 4.559123 -0.057469
H 116.673873 4.466674 -0.056293
H 118.518071 2.662360 -0.033788
H 118.345632 -2.888377 0.035285
H 116.300442 -4.662278 0.057420
H 114.706784 -0.758511 0.008868
H 113.543644 -4.558153 0.056249
H 111.057464 -4.465703 0.055124
H 109.213266 -2.661390 0.032617
C 131.689355 0.000484 -0.000627
C 132.469395 1.388019 -0.017952
C 131.917290 2.654121 -0.033775
C 132.985907 3.586744 -0.045408
C 134.156815 2.863116 -0.036348
N 133.838122 1.530089 -0.019706
C 135.589187 3.477784 -0.043995
C 136.714812 2.739732 -0.034787
C 137.995110 3.403129 -0.043041
C 138.939560 2.468157 -0.031379
N 136.944802 1.399240 -0.018080
C 138.296533 1.165687 -0.015155
C 138.998747 0.000484 -0.000627
C 138.218707 -1.387051 0.016655
C 138.770812 -2.653154 0.032391
C 137.702195 -3.585777 0.044027
C 136.531287 -2.862148 0.035055
N 136.849980 -1.529120 0.018452
C 135.098916 -3.476815 0.042747
C 133.973291 -2.738762 0.033545
C 132.692993 -3.402159 0.041843
C 131.748542 -2.467187 0.030180
C 132.391569 -1.164717 0.013911
N 133.743301 -1.398271 0.016812
H 130.864087 2.889343 -0.036730
H 132.909277 4.663245 -0.058855
H 134.502935 0.759481 -0.010079
H 135.666075 4.559123 -0.057469
H 138.152256 4.466674 -0.056293
H 139.996454 2.662360 -0.033788
H 139.824015 -2.888377 0.035285
H 137.778824 -4.662278 0.057420
H 136.185167 -0.758511 0.008868
H 135.022027 -4.558153 0.056249
H 132.535847 -4.465703 0.055124
H 130.691648 -2.661390 0.032617
C 153.167738 0.000484 -0.000627
C 153.947778 1.388019 -0.017952
C 153.395673 2.654121 -0.033775
C 154.464290 3.586744 -0.045408
C 155.635198 2.863116 -0.036348
N 155.316505 1.530089 -0.019706
C 157.067570 3.477784 -0.043995
C 158.193195 2.739732 -0.034787
C 159.473492 3.403129 -0.043041
C 160.417943 2.468157 -0.031379
N 158.423184 1.399240 -0.018080
C 159.774916 1.165687 -0.015155
C 160.477130 0.000484 -0.000627
C 159.697090 -1.387051 0.016655
C 160.249195 -2.653154 0.032391
C 159.180578 -3.585777 0.044027
C 158.009670 -2.862148 0.035055
N 158.328363 -1.529120 0.018452
C 156.577298 -3.476815 0.042747
C 155.451673 -2.738762 0.033545
C 154.171376 -3.402159 0.041843
C 153.226925 -2.467187 0.030180
C 153.869951 -1.164717 0.013911
N 155.221684 -1.398271 0.016812
H 152.342470 2.889343 -0.036730
H 154.387660 4.663245 -0.058855
H 155.981318 0.759481 -0.010079
H 157.144458 4.559123 -0.057469
H 159.630639 4.466674 -0.056293
H 161.474836 2.662360 -0.033788
H 161.302397 -2.888377 0.035285
H 159.257207 -4.662278 0.057420
H 157.663550 -0.758511 0.008868
H 156.500410 -4.558153 0.056249
H 154.014230 -4.465703 0.055124
H 152.170031 -2.661390 0.032617
