 xtb: 6.5.1 (b24c23e)
          07302201213D

219248  0     0  0            999 V2000
   25.9180    0.1204   -0.3573 Co  0  0  0  0  0  0  0  0  0  0  0  0
   22.6334    0.3419   -1.0545 C   0  0  0  0  0  0  0  0  0  0  0  0
   23.2197    1.3777   -0.3574 C   0  0  0  0  0  0  0  0  0  0  0  0
   22.5028    2.5079    0.1487 C   0  0  0  0  0  0  0  0  0  0  0  0
   23.4160    3.3149    0.7389 C   0  0  0  0  0  0  0  0  0  0  0  0
   24.6972    2.6998    0.5476 C   0  0  0  0  0  0  0  0  0  0  0  0
   24.5555    1.4801   -0.0659 N   0  0  0  0  0  0  0  0  0  0  0  0
   25.9092    3.3282    0.7991 C   0  0  0  0  0  0  0  0  0  0  0  0
   27.1205    2.7259    0.4900 C   0  0  0  0  0  0  0  0  0  0  0  0
   28.3826    3.4004    0.5257 C   0  0  0  0  0  0  0  0  0  0  0  0
   29.3249    2.4863    0.1901 C   0  0  0  0  0  0  0  0  0  0  0  0
   27.2887    1.4143    0.1144 N   0  0  0  0  0  0  0  0  0  0  0  0
   28.6387    1.2514   -0.0226 C   0  0  0  0  0  0  0  0  0  0  0  0
   29.2939    0.0244   -0.1629 C   0  0  0  0  0  0  0  0  0  0  0  0
   28.5901   -1.1833   -0.2238 C   0  0  0  0  0  0  0  0  0  0  0  0
   29.2181   -2.4653   -0.1728 C   0  0  0  0  0  0  0  0  0  0  0  0
   28.2338   -3.3858   -0.3110 C   0  0  0  0  0  0  0  0  0  0  0  0
   27.0101   -2.6604   -0.4796 C   0  0  0  0  0  0  0  0  0  0  0  0
   25.8293   -3.2400   -0.9146 C   0  0  0  0  0  0  0  0  0  0  0  0
   25.7847   -4.7102   -1.1084 C   0  0  0  0  0  0  0  0  0  0  0  0
   25.6754   -5.2492   -2.3880 C   0  0  0  0  0  0  0  0  0  0  0  0
   25.6404   -6.6284   -2.5720 C   0  0  0  0  0  0  0  0  0  0  0  0
   25.5074   -7.2020   -3.9568 C   0  0  0  0  0  0  0  0  0  0  0  0
   25.7106   -7.4650   -1.4636 C   0  0  0  0  0  0  0  0  0  0  0  0
   25.8221   -6.9400   -0.1782 C   0  0  0  0  0  0  0  0  0  0  0  0
   25.9075   -7.8650    1.0057 C   0  0  0  0  0  0  0  0  0  0  0  0
   25.8626   -5.5615   -0.0068 C   0  0  0  0  0  0  0  0  0  0  0  0
   24.7140   -2.4776   -1.2393 C   0  0  0  0  0  0  0  0  0  0  0  0
   23.5157   -3.0048   -1.8229 C   0  0  0  0  0  0  0  0  0  0  0  0
   22.6412   -1.9761   -1.9218 C   0  0  0  0  0  0  0  0  0  0  0  0
   23.2902   -0.8310   -1.3588 C   0  0  0  0  0  0  0  0  0  0  0  0
   24.5737   -1.1390   -0.9813 N   0  0  0  0  0  0  0  0  0  0  0  0
   27.2394   -1.3060   -0.3739 N   0  0  0  0  0  0  0  0  0  0  0  0
   25.9202    4.7097    1.3342 C   0  0  0  0  0  0  0  0  0  0  0  0
   25.3143    5.7474    0.6268 C   0  0  0  0  0  0  0  0  0  0  0  0
   25.3341    7.0460    1.1232 C   0  0  0  0  0  0  0  0  0  0  0  0
   24.7023    8.1680    0.3444 C   0  0  0  0  0  0  0  0  0  0  0  0
   25.9646    7.3024    2.3373 C   0  0  0  0  0  0  0  0  0  0  0  0
   26.5769    6.2781    3.0533 C   0  0  0  0  0  0  0  0  0  0  0  0
   27.2391    6.5655    4.3736 C   0  0  0  0  0  0  0  0  0  0  0  0
   26.5543    4.9838    2.5452 C   0  0  0  0  0  0  0  0  0  0  0  0
   21.5844    0.4255   -1.3136 H   0  0  0  0  0  0  0  0  0  0  0  0
   21.4357    2.6409    0.0675 H   0  0  0  0  0  0  0  0  0  0  0  0
   23.2518    4.2504    1.2484 H   0  0  0  0  0  0  0  0  0  0  0  0
   28.5163    4.4433    0.7630 H   0  0  0  0  0  0  0  0  0  0  0  0
   30.3925    2.6148    0.1120 H   0  0  0  0  0  0  0  0  0  0  0  0
   30.2768   -2.6233   -0.0440 H   0  0  0  0  0  0  0  0  0  0  0  0
   28.3197   -4.4599   -0.3347 H   0  0  0  0  0  0  0  0  0  0  0  0
   25.6372   -4.5868   -3.2458 H   0  0  0  0  0  0  0  0  0  0  0  0
   25.9190   -8.2104   -4.0021 H   0  0  0  0  0  0  0  0  0  0  0  0
   24.4530   -7.2513   -4.2381 H   0  0  0  0  0  0  0  0  0  0  0  0
   26.0228   -6.5766   -4.6862 H   0  0  0  0  0  0  0  0  0  0  0  0
   25.6817   -8.5412   -1.6004 H   0  0  0  0  0  0  0  0  0  0  0  0
   25.8710   -7.3074    1.9413 H   0  0  0  0  0  0  0  0  0  0  0  0
   25.0833   -8.5798    0.9911 H   0  0  0  0  0  0  0  0  0  0  0  0
   26.8419   -8.4289    0.9747 H   0  0  0  0  0  0  0  0  0  0  0  0
   25.9423   -5.1379    0.9884 H   0  0  0  0  0  0  0  0  0  0  0  0
   23.3721   -4.0335   -2.1110 H   0  0  0  0  0  0  0  0  0  0  0  0
   21.6329   -1.9803   -2.3042 H   0  0  0  0  0  0  0  0  0  0  0  0
   24.8431    5.5390   -0.3275 H   0  0  0  0  0  0  0  0  0  0  0  0
   24.2506    8.8988    1.0157 H   0  0  0  0  0  0  0  0  0  0  0  0
   23.9365    7.7892   -0.3325 H   0  0  0  0  0  0  0  0  0  0  0  0
   25.4615    8.6797   -0.2515 H   0  0  0  0  0  0  0  0  0  0  0  0
   25.9815    8.3144    2.7287 H   0  0  0  0  0  0  0  0  0  0  0  0
   26.5004    6.5192    5.1771 H   0  0  0  0  0  0  0  0  0  0  0  0
   27.6804    7.5625    4.3769 H   0  0  0  0  0  0  0  0  0  0  0  0
   28.0182    5.8332    4.5856 H   0  0  0  0  0  0  0  0  0  0  0  0
   27.0198    4.1748    3.0976 H   0  0  0  0  0  0  0  0  0  0  0  0
   62.9123    0.2658   -0.1930 Co  0  0  0  0  0  0  0  0  0  0  0  0
   66.2041    0.8381   -0.5991 C   0  0  0  0  0  0  0  0  0  0  0  0
   65.6073   -0.1142   -1.3984 C   0  0  0  0  0  0  0  0  0  0  0  0
   66.3142   -0.9203   -2.3462 C   0  0  0  0  0  0  0  0  0  0  0  0
   65.3904   -1.6913   -2.9669 C   0  0  0  0  0  0  0  0  0  0  0  0
   64.1132   -1.3204   -2.4306 C   0  0  0  0  0  0  0  0  0  0  0  0
   64.2670   -0.4030   -1.4204 N   0  0  0  0  0  0  0  0  0  0  0  0
   62.8971   -1.7126   -2.9708 C   0  0  0  0  0  0  0  0  0  0  0  0
   61.6919   -1.2393   -2.4711 C   0  0  0  0  0  0  0  0  0  0  0  0
   60.4257   -1.4426   -3.1069 C   0  0  0  0  0  0  0  0  0  0  0  0
   59.4895   -0.8802   -2.3048 C   0  0  0  0  0  0  0  0  0  0  0  0
   61.5334   -0.5340   -1.3022 N   0  0  0  0  0  0  0  0  0  0  0  0
   60.1833   -0.3568   -1.1708 C   0  0  0  0  0  0  0  0  0  0  0  0
   59.5385    0.0920   -0.0162 C   0  0  0  0  0  0  0  0  0  0  0  0
   60.2506    0.4763    1.1229 C   0  0  0  0  0  0  0  0  0  0  0  0
   59.6338    0.7765    2.3757 C   0  0  0  0  0  0  0  0  0  0  0  0
   60.6221    1.1825    3.2085 C   0  0  0  0  0  0  0  0  0  0  0  0
   61.8378    1.1562    2.4514 C   0  0  0  0  0  0  0  0  0  0  0  0
   63.0168    1.7497    2.8733 C   0  0  0  0  0  0  0  0  0  0  0  0
   63.0675    2.3575    4.2261 C   0  0  0  0  0  0  0  0  0  0  0  0
   63.1661    3.7388    4.3739 C   0  0  0  0  0  0  0  0  0  0  0  0
   63.2082    4.3115    5.6417 C   0  0  0  0  0  0  0  0  0  0  0  0
   63.3300    5.8039    5.7924 C   0  0  0  0  0  0  0  0  0  0  0  0
   63.1558    3.4897    6.7621 C   0  0  0  0  0  0  0  0  0  0  0  0
   63.0553    2.1068    6.6293 C   0  0  0  0  0  0  0  0  0  0  0  0
   62.9889    1.2377    7.8561 C   0  0  0  0  0  0  0  0  0  0  0  0
   63.0078    1.5462    5.3585 C   0  0  0  0  0  0  0  0  0  0  0  0
   64.1262    1.8459    2.0439 C   0  0  0  0  0  0  0  0  0  0  0  0
   65.3269    2.5542    2.3773 C   0  0  0  0  0  0  0  0  0  0  0  0
   66.2020    2.3424    1.3665 C   0  0  0  0  0  0  0  0  0  0  0  0
   65.5501    1.4728    0.4347 C   0  0  0  0  0  0  0  0  0  0  0  0
   64.2644    1.2091    0.8375 N   0  0  0  0  0  0  0  0  0  0  0  0
   61.6015    0.6698    1.1848 N   0  0  0  0  0  0  0  0  0  0  0  0
   62.8739   -2.6002   -4.1570 C   0  0  0  0  0  0  0  0  0  0  0  0
   63.4844   -2.2077   -5.3476 C   0  0  0  0  0  0  0  0  0  0  0  0
   63.4533   -3.0365   -6.4635 C   0  0  0  0  0  0  0  0  0  0  0  0
   64.0897   -2.5984   -7.7550 C   0  0  0  0  0  0  0  0  0  0  0  0
   62.8073   -4.2667   -6.3818 C   0  0  0  0  0  0  0  0  0  0  0  0
   62.1906   -4.6712   -5.2016 C   0  0  0  0  0  0  0  0  0  0  0  0
   61.5118   -6.0118   -5.1201 C   0  0  0  0  0  0  0  0  0  0  0  0
   62.2245   -3.8322   -4.0930 C   0  0  0  0  0  0  0  0  0  0  0  0
   67.2558    1.0511   -0.7502 H   0  0  0  0  0  0  0  0  0  0  0  0
   67.3823   -0.8949   -2.4933 H   0  0  0  0  0  0  0  0  0  0  0  0
   65.5447   -2.4367   -3.7301 H   0  0  0  0  0  0  0  0  0  0  0  0
   60.2854   -1.9407   -4.0524 H   0  0  0  0  0  0  0  0  0  0  0  0
   58.4213   -0.8348   -2.4432 H   0  0  0  0  0  0  0  0  0  0  0  0
   58.5783    0.6838    2.5753 H   0  0  0  0  0  0  0  0  0  0  0  0
   60.5435    1.5066    4.2334 H   0  0  0  0  0  0  0  0  0  0  0  0
   63.1912    4.3704    3.4926 H   0  0  0  0  0  0  0  0  0  0  0  0
   62.9207    6.1338    6.7473 H   0  0  0  0  0  0  0  0  0  0  0  0
   64.3820    6.0959    5.7534 H   0  0  0  0  0  0  0  0  0  0  0  0
   62.8064    6.3186    4.9864 H   0  0  0  0  0  0  0  0  0  0  0  0
   63.1903    3.9302    7.7533 H   0  0  0  0  0  0  0  0  0  0  0  0
   63.0450    0.1820    7.5912 H   0  0  0  0  0  0  0  0  0  0  0  0
   63.8099    1.4731    8.5351 H   0  0  0  0  0  0  0  0  0  0  0  0
   62.0518    1.4117    8.3887 H   0  0  0  0  0  0  0  0  0  0  0  0
   62.9369    0.4706    5.2395 H   0  0  0  0  0  0  0  0  0  0  0  0
   65.4717    3.1308    3.2765 H   0  0  0  0  0  0  0  0  0  0  0  0
   67.2122    2.7047    1.2599 H   0  0  0  0  0  0  0  0  0  0  0  0
   63.9685   -1.2389   -5.4050 H   0  0  0  0  0  0  0  0  0  0  0  0
   64.5366   -3.4470   -8.2737 H   0  0  0  0  0  0  0  0  0  0  0  0
   64.8603   -1.8487   -7.5748 H   0  0  0  0  0  0  0  0  0  0  0  0
   63.3343   -2.1604   -8.4112 H   0  0  0  0  0  0  0  0  0  0  0  0
   62.7817   -4.9169   -7.2502 H   0  0  0  0  0  0  0  0  0  0  0  0
   62.2399   -6.7806   -4.8514 H   0  0  0  0  0  0  0  0  0  0  0  0
   61.0723   -6.2828   -6.0804 H   0  0  0  0  0  0  0  0  0  0  0  0
   60.7286   -6.0056   -4.3620 H   0  0  0  0  0  0  0  0  0  0  0  0
   61.7555   -4.1393   -3.1646 H   0  0  0  0  0  0  0  0  0  0  0  0
   30.6944   -0.0032   -0.1660 C   0  0  0  0  0  0  0  0  0  0  0  0
   31.9200   -0.0255   -0.1696 C   0  0  0  0  0  0  0  0  0  0  0  0
   33.2602   -0.0480   -0.1605 C   0  0  0  0  0  0  0  0  0  0  0  0
   34.4920   -0.0614   -0.1436 C   0  0  0  0  0  0  0  0  0  0  0  0
   35.8273   -0.0738   -0.1199 C   0  0  0  0  0  0  0  0  0  0  0  0
   37.0594   -0.0810   -0.0950 C   0  0  0  0  0  0  0  0  0  0  0  0
   38.3994   -0.0840   -0.0692 C   0  0  0  0  0  0  0  0  0  0  0  0
   39.6250   -0.0849   -0.0448 C   0  0  0  0  0  0  0  0  0  0  0  0
   49.2032   -0.0171    0.1060 C   0  0  0  0  0  0  0  0  0  0  0  0
   50.4278    0.0030    0.1154 C   0  0  0  0  0  0  0  0  0  0  0  0
   51.7699    0.0245    0.1186 C   0  0  0  0  0  0  0  0  0  0  0  0
   53.0006    0.0474    0.1120 C   0  0  0  0  0  0  0  0  0  0  0  0
   54.3382    0.0689    0.0963 C   0  0  0  0  0  0  0  0  0  0  0  0
   55.5687    0.0872    0.0759 C   0  0  0  0  0  0  0  0  0  0  0  0
   56.9113    0.0939    0.0527 C   0  0  0  0  0  0  0  0  0  0  0  0
   58.1354    0.0919    0.0242 C   0  0  0  0  0  0  0  0  0  0  0  0
   44.4130   -0.0536    0.0381 Co  0  0  0  0  0  0  0  0  0  0  0  0
   41.0246   -0.0784   -0.0261 C   0  0  0  0  0  0  0  0  0  0  0  0
   41.6988    1.1367    0.1396 C   0  0  0  0  0  0  0  0  0  0  0  0
   41.0452    2.3902    0.3414 C   0  0  0  0  0  0  0  0  0  0  0  0
   41.9965    3.3486    0.2157 C   0  0  0  0  0  0  0  0  0  0  0  0
   43.2259    2.6745   -0.0722 C   0  0  0  0  0  0  0  0  0  0  0  0
   43.0403    1.3119   -0.0465 N   0  0  0  0  0  0  0  0  0  0  0  0
   44.3971    3.3055   -0.4690 C   0  0  0  0  0  0  0  0  0  0  0  0
   45.5767    2.5995   -0.6666 C   0  0  0  0  0  0  0  0  0  0  0  0
   46.8045    3.1811   -1.1176 C   0  0  0  0  0  0  0  0  0  0  0  0
   47.7663    2.2396   -0.9533 C   0  0  0  0  0  0  0  0  0  0  0  0
   45.7726    1.2848   -0.3136 N   0  0  0  0  0  0  0  0  0  0  0  0
   47.1202    1.0838   -0.4183 C   0  0  0  0  0  0  0  0  0  0  0  0
   47.8015   -0.0312    0.0795 C   0  0  0  0  0  0  0  0  0  0  0  0
   47.1184   -1.1609    0.5399 C   0  0  0  0  0  0  0  0  0  0  0  0
   47.7595   -2.3153    1.0835 C   0  0  0  0  0  0  0  0  0  0  0  0
   46.8094   -3.2786    1.1778 C   0  0  0  0  0  0  0  0  0  0  0  0
   45.5933   -2.7088    0.6831 C   0  0  0  0  0  0  0  0  0  0  0  0
   44.4330   -3.4286    0.4254 C   0  0  0  0  0  0  0  0  0  0  0  0
   44.4495   -4.8994    0.5894 C   0  0  0  0  0  0  0  0  0  0  0  0
   43.5575   -5.5240    1.4607 C   0  0  0  0  0  0  0  0  0  0  0  0
   43.5688   -6.9064    1.6114 C   0  0  0  0  0  0  0  0  0  0  0  0
   42.6194   -7.5734    2.5696 C   0  0  0  0  0  0  0  0  0  0  0  0
   44.4787   -7.6648    0.8808 C   0  0  0  0  0  0  0  0  0  0  0  0
   45.3740   -7.0567    0.0057 C   0  0  0  0  0  0  0  0  0  0  0  0
   46.3629   -7.8860   -0.7680 C   0  0  0  0  0  0  0  0  0  0  0  0
   45.3576   -5.6734   -0.1328 C   0  0  0  0  0  0  0  0  0  0  0  0
   43.2620   -2.8053    0.0175 C   0  0  0  0  0  0  0  0  0  0  0  0
   42.0456   -3.4899   -0.3007 C   0  0  0  0  0  0  0  0  0  0  0  0
   41.0824   -2.5425   -0.4156 C   0  0  0  0  0  0  0  0  0  0  0  0
   41.7169   -1.2841   -0.1843 C   0  0  0  0  0  0  0  0  0  0  0  0
   43.0591   -1.4440    0.0091 N   0  0  0  0  0  0  0  0  0  0  0  0
   45.7823   -1.3864    0.3602 N   0  0  0  0  0  0  0  0  0  0  0  0
   44.3884    4.7696   -0.6850 C   0  0  0  0  0  0  0  0  0  0  0  0
   45.2579    5.5927    0.0285 C   0  0  0  0  0  0  0  0  0  0  0  0
   45.2500    6.9700   -0.1698 C   0  0  0  0  0  0  0  0  0  0  0  0
   46.2016    7.8457    0.5996 C   0  0  0  0  0  0  0  0  0  0  0  0
   44.3688    7.5202   -1.0943 C   0  0  0  0  0  0  0  0  0  0  0  0
   43.4944    6.7111   -1.8160 C   0  0  0  0  0  0  0  0  0  0  0  0
   42.5598    7.3197   -2.8261 C   0  0  0  0  0  0  0  0  0  0  0  0
   43.5071    5.3376   -1.6057 C   0  0  0  0  0  0  0  0  0  0  0  0
   39.9923    2.5068    0.5418 H   0  0  0  0  0  0  0  0  0  0  0  0
   41.8857    4.4169    0.3057 H   0  0  0  0  0  0  0  0  0  0  0  0
   46.9080    4.1824   -1.5027 H   0  0  0  0  0  0  0  0  0  0  0  0
   48.8217    2.3095   -1.1621 H   0  0  0  0  0  0  0  0  0  0  0  0
   48.8045   -2.3701    1.3430 H   0  0  0  0  0  0  0  0  0  0  0  0
   46.9129   -4.2866    1.5454 H   0  0  0  0  0  0  0  0  0  0  0  0
   42.8626   -4.9215    2.0352 H   0  0  0  0  0  0  0  0  0  0  0  0
   42.3457   -8.5675    2.2154 H   0  0  0  0  0  0  0  0  0  0  0  0
   43.0939   -7.6805    3.5478 H   0  0  0  0  0  0  0  0  0  0  0  0
   41.7132   -6.9806    2.6948 H   0  0  0  0  0  0  0  0  0  0  0  0
   44.4878   -8.7442    0.9920 H   0  0  0  0  0  0  0  0  0  0  0  0
   46.6636   -7.3784   -1.6845 H   0  0  0  0  0  0  0  0  0  0  0  0
   45.9384   -8.8570   -1.0243 H   0  0  0  0  0  0  0  0  0  0  0  0
   47.2571   -8.0558   -0.1638 H   0  0  0  0  0  0  0  0  0  0  0  0
   46.0388   -5.1891   -0.8239 H   0  0  0  0  0  0  0  0  0  0  0  0
   41.9498   -4.5575   -0.4131 H   0  0  0  0  0  0  0  0  0  0  0  0
   40.0332   -2.6691   -0.6290 H   0  0  0  0  0  0  0  0  0  0  0  0
   45.9292    5.1548    0.7591 H   0  0  0  0  0  0  0  0  0  0  0  0
   45.8754    8.8855    0.5838 H   0  0  0  0  0  0  0  0  0  0  0  0
   47.1978    7.7922    0.1548 H   0  0  0  0  0  0  0  0  0  0  0  0
   46.2775    7.5150    1.6360 H   0  0  0  0  0  0  0  0  0  0  0  0
   44.3590    8.5935   -1.2541 H   0  0  0  0  0  0  0  0  0  0  0  0
   42.1625    8.2678   -2.4622 H   0  0  0  0  0  0  0  0  0  0  0  0
   41.7288    6.6484   -3.0424 H   0  0  0  0  0  0  0  0  0  0  0  0
   43.0950    7.5132   -3.7584 H   0  0  0  0  0  0  0  0  0  0  0  0
   42.8411    4.6953   -2.1714 H   0  0  0  0  0  0  0  0  0  0  0  0
  2  3  4  0  0  0  0
  3  4  1  0  0  0  0
  4  5  2  0  0  0  0
  5  6  4  0  0  0  0
  1  7  1  0  0  0  0
  3  7  4  0  0  0  0
  6  7  4  0  0  0  0
  6  8  4  0  0  0  0
  8  9  4  0  0  0  0
  9 10  4  0  0  0  0
 10 11  2  0  0  0  0
  1 12  1  0  0  0  0
  9 12  4  0  0  0  0
 11 13  4  0  0  0  0
 12 13  4  0  0  0  0
 13 14  4  0  0  0  0
 14 15  4  0  0  0  0
 15 16  4  0  0  0  0
 16 17  2  0  0  0  0
 17 18  4  0  0  0  0
 18 19  4  0  0  0  0
 19 20  1  0  0  0  0
 20 21  4  0  0  0  0
 21 22  4  0  0  0  0
 22 23  1  0  0  0  0
 22 24  4  0  0  0  0
 24 25  4  0  0  0  0
 25 26  1  0  0  0  0
 20 27  4  0  0  0  0
 25 27  4  0  0  0  0
 19 28  4  0  0  0  0
 28 29  4  0  0  0  0
 29 30  2  0  0  0  0
  2 31  4  0  0  0  0
 30 31  1  0  0  0  0
  1 32  1  0  0  0  0
 28 32  4  0  0  0  0
 31 32  4  0  0  0  0
  1 33  1  0  0  0  0
 15 33  4  0  0  0  0
 18 33  4  0  0  0  0
  8 34  1  0  0  0  0
 34 35  4  0  0  0  0
 35 36  4  0  0  0  0
 36 37  1  0  0  0  0
 36 38  4  0  0  0  0
 38 39  4  0  0  0  0
 39 40  1  0  0  0  0
 34 41  4  0  0  0  0
 39 41  4  0  0  0  0
  2 42  1  0  0  0  0
  4 43  1  0  0  0  0
  5 44  1  0  0  0  0
 10 45  1  0  0  0  0
 11 46  1  0  0  0  0
 16 47  1  0  0  0  0
 17 48  1  0  0  0  0
 21 49  1  0  0  0  0
 23 50  1  0  0  0  0
 23 51  1  0  0  0  0
 23 52  1  0  0  0  0
 24 53  1  0  0  0  0
 26 54  1  0  0  0  0
 26 55  1  0  0  0  0
 26 56  1  0  0  0  0
 27 57  1  0  0  0  0
 29 58  1  0  0  0  0
 30 59  1  0  0  0  0
 35 60  1  0  0  0  0
 37 61  1  0  0  0  0
 37 62  1  0  0  0  0
 37 63  1  0  0  0  0
 38 64  1  0  0  0  0
 40 65  1  0  0  0  0
 40 66  1  0  0  0  0
 40 67  1  0  0  0  0
 41 68  1  0  0  0  0
 70 71  4  0  0  0  0
 71 72  1  0  0  0  0
 72 73  2  0  0  0  0
 73 74  4  0  0  0  0
 69 75  1  0  0  0  0
 71 75  4  0  0  0  0
 74 75  4  0  0  0  0
 74 76  4  0  0  0  0
 76 77  4  0  0  0  0
 77 78  4  0  0  0  0
 78 79  2  0  0  0  0
 69 80  1  0  0  0  0
 77 80  4  0  0  0  0
 79 81  4  0  0  0  0
 80 81  4  0  0  0  0
 81 82  4  0  0  0  0
 82 83  4  0  0  0  0
 83 84  4  0  0  0  0
 84 85  2  0  0  0  0
 85 86  4  0  0  0  0
 86 87  4  0  0  0  0
 87 88  1  0  0  0  0
 88 89  4  0  0  0  0
 89 90  4  0  0  0  0
 90 91  1  0  0  0  0
 90 92  4  0  0  0  0
 92 93  4  0  0  0  0
 93 94  1  0  0  0  0
 88 95  4  0  0  0  0
 93 95  4  0  0  0  0
 87 96  4  0  0  0  0
 96 97  4  0  0  0  0
 97 98  2  0  0  0  0
 70 99  4  0  0  0  0
 98 99  1  0  0  0  0
 69100  1  0  0  0  0
 96100  4  0  0  0  0
 99100  4  0  0  0  0
 69101  1  0  0  0  0
 83101  4  0  0  0  0
 86101  4  0  0  0  0
 76102  1  0  0  0  0
102103  4  0  0  0  0
103104  4  0  0  0  0
104105  1  0  0  0  0
104106  4  0  0  0  0
106107  4  0  0  0  0
107108  1  0  0  0  0
102109  4  0  0  0  0
107109  4  0  0  0  0
 70110  1  0  0  0  0
 72111  1  0  0  0  0
 73112  1  0  0  0  0
 78113  1  0  0  0  0
 79114  1  0  0  0  0
 84115  1  0  0  0  0
 85116  1  0  0  0  0
 89117  1  0  0  0  0
 91118  1  0  0  0  0
 91119  1  0  0  0  0
 91120  1  0  0  0  0
 92121  1  0  0  0  0
 94122  1  0  0  0  0
 94123  1  0  0  0  0
 94124  1  0  0  0  0
 95125  1  0  0  0  0
 97126  1  0  0  0  0
 98127  1  0  0  0  0
103128  1  0  0  0  0
105129  1  0  0  0  0
105130  1  0  0  0  0
105131  1  0  0  0  0
106132  1  0  0  0  0
108133  1  0  0  0  0
108134  1  0  0  0  0
108135  1  0  0  0  0
109136  1  0  0  0  0
 14137  4  0  0  0  0
137138  3  0  0  0  0
138139  4  0  0  0  0
139140  3  0  0  0  0
140141  4  0  0  0  0
141142  3  0  0  0  0
142143  4  0  0  0  0
143144  3  0  0  0  0
145146  3  0  0  0  0
146147  4  0  0  0  0
147148  3  0  0  0  0
148149  4  0  0  0  0
149150  3  0  0  0  0
150151  4  0  0  0  0
 82152  4  0  0  0  0
151152  3  0  0  0  0
144154  4  0  0  0  0
154155  4  0  0  0  0
155156  4  0  0  0  0
156157  2  0  0  0  0
157158  4  0  0  0  0
153159  1  0  0  0  0
155159  4  0  0  0  0
158159  4  0  0  0  0
158160  4  0  0  0  0
160161  4  0  0  0  0
161162  4  0  0  0  0
162163  2  0  0  0  0
153164  1  0  0  0  0
161164  4  0  0  0  0
163165  4  0  0  0  0
164165  4  0  0  0  0
145166  4  0  0  0  0
165166  4  0  0  0  0
166167  4  0  0  0  0
167168  4  0  0  0  0
168169  2  0  0  0  0
169170  4  0  0  0  0
170171  4  0  0  0  0
171172  1  0  0  0  0
172173  4  0  0  0  0
173174  4  0  0  0  0
174175  1  0  0  0  0
174176  4  0  0  0  0
176177  4  0  0  0  0
177178  1  0  0  0  0
172179  4  0  0  0  0
177179  4  0  0  0  0
171180  4  0  0  0  0
180181  4  0  0  0  0
181182  2  0  0  0  0
154183  4  0  0  0  0
182183  4  0  0  0  0
153184  1  0  0  0  0
180184  4  0  0  0  0
183184  4  0  0  0  0
153185  1  0  0  0  0
167185  4  0  0  0  0
170185  4  0  0  0  0
160186  1  0  0  0  0
186187  4  0  0  0  0
187188  4  0  0  0  0
188189  1  0  0  0  0
188190  4  0  0  0  0
190191  4  0  0  0  0
191192  1  0  0  0  0
186193  4  0  0  0  0
191193  4  0  0  0  0
156194  1  0  0  0  0
157195  1  0  0  0  0
162196  1  0  0  0  0
163197  1  0  0  0  0
168198  1  0  0  0  0
169199  1  0  0  0  0
173200  1  0  0  0  0
175201  1  0  0  0  0
175202  1  0  0  0  0
175203  1  0  0  0  0
176204  1  0  0  0  0
178205  1  0  0  0  0
178206  1  0  0  0  0
178207  1  0  0  0  0
179208  1  0  0  0  0
181209  1  0  0  0  0
182210  1  0  0  0  0
187211  1  0  0  0  0
189212  1  0  0  0  0
189213  1  0  0  0  0
189214  1  0  0  0  0
190215  1  0  0  0  0
192216  1  0  0  0  0
192217  1  0  0  0  0
192218  1  0  0  0  0
193219  1  0  0  0  0
M  END
