378

C 56.437610 -0.039529 -0.129970
C 57.164994 -0.236301 1.239816
C 56.563715 -0.588968 2.428128
C 57.584029 -0.623548 3.412318
C 58.764883 -0.260341 2.801722
N 58.508581 -0.084962 1.463660
C 60.182964 -0.112829 3.500025
C 61.316981 -0.056333 2.744141
C 62.628873 0.093948 3.341092
C 63.530581 0.154942 2.369166
N 61.511391 -0.096815 1.387855
C 62.845514 0.022668 1.097614
C 63.505795 0.031054 -0.089972
C 62.721997 -0.160611 -1.458429
C 63.233964 -0.710087 -2.617181
C 62.212111 -0.671890 -3.598720
C 61.108232 -0.096728 -3.014857
C 59.705720 0.168072 -3.719540
C 59.698779 0.381660 -5.197867
C 60.190835 1.570970 -5.773757
O 60.685174 2.655921 -5.097583
C 59.804002 3.223435 -4.128065
C 60.292296 1.696461 -7.166963
C 59.862920 0.671675 -8.006227
C 59.347033 -0.498628 -7.454738
C 59.283333 -0.661604 -6.064290
O 58.778639 -1.805351 -5.493786
C 59.025675 -3.027395 -6.183544
C 58.582568 0.194398 -2.954827
C 57.251541 0.357615 -3.511570
C 56.367901 0.276528 -2.519918
C 57.102216 0.086178 -1.293253
N 58.429019 0.068911 -1.601824
N 61.409427 0.158912 -1.695577
C 60.220245 0.002228 4.989910
C 59.919702 1.216390 5.646657
O 59.456010 2.336865 5.004918
C 60.469635 3.010905 4.262972
C 59.952370 1.307681 7.043005
C 60.310435 0.203296 7.809473
C 60.596790 -1.009104 7.181410
C 60.551651 -1.121198 5.782455
O 60.757054 -2.309026 5.126551
C 61.542662 -3.294840 5.776575
H 55.346020 -0.003197 -0.124938
H 55.513680 -0.794096 2.569892
H 57.465933 -0.862342 4.456660
H 59.206796 0.113402 0.750750
H 62.842356 0.157726 4.392066
H 64.588516 0.265370 2.523470
H 64.227654 -1.107449 -2.739414
H 62.268410 -1.024872 -4.615980
H 60.315983 3.250838 -3.156847
H 59.590898 4.255789 -4.426890
H 58.854381 2.706021 -4.022115
H 60.709708 2.606817 -7.585937
H 59.930216 0.783704 -9.081872
H 59.000167 -1.282309 -8.119857
H 58.876913 -3.853639 -5.484879
H 58.307132 -3.152601 -7.000499
H 60.054168 -3.082019 -6.555363
H 57.013910 0.480248 -4.550654
H 55.296439 0.328543 -2.610921
H 60.732946 0.451423 -0.995654
H 60.750560 3.928731 4.788765
H 60.057469 3.298452 3.290537
H 61.370459 2.426763 4.091072
H 59.684927 2.242778 7.524121
H 60.339523 0.284394 8.892659
H 60.824851 -1.865896 7.803634
H 60.966884 -3.788554 6.562080
H 61.816821 -4.050496 5.037622
H 62.467703 -2.871225 6.183503
C 121.615456 -0.035715 -0.043889
C 120.888073 -0.352866 -1.390903
C 121.489352 -0.809251 -2.543367
C 120.469038 -0.930741 -3.520642
C 119.288183 -0.514953 -2.944562
N 119.544485 -0.221918 -1.627255
C 117.870102 -0.429781 -3.653175
C 116.736085 -0.306652 -2.905250
C 115.424193 -0.209757 -3.513154
C 114.522486 -0.063040 -2.550430
N 116.541675 -0.227020 -1.550699
C 115.207552 -0.082334 -1.272163
C 114.547272 0.031054 -0.089972
C 115.331069 -0.038827 1.290073
C 114.819103 -0.483665 2.492882
C 115.840955 -0.358806 3.467196
C 116.944835 0.162463 2.834752
C 118.347346 0.488550 3.513253
C 118.354287 0.832051 4.966895
C 117.862232 2.067635 5.435341
O 117.367892 3.088530 4.665859
C 118.249064 3.568071 3.649947
C 117.760771 2.315855 6.811988
C 118.190146 1.369313 7.738600
C 118.706033 0.154821 7.292779
C 118.769733 -0.130494 5.922194
O 119.274427 -1.320217 5.455084
C 119.027391 -2.476467 6.250222
C 119.470498 0.447138 2.749208
C 120.801525 0.658956 3.289334
C 121.685165 0.490481 2.308740
C 120.950851 0.192385 1.103718
N 119.624047 0.202477 1.412606
N 116.643639 0.300418 1.498031
C 117.832822 -0.446947 -5.147397
C 118.133364 0.704372 -5.908956
O 118.597056 1.877213 -5.368833
C 117.583431 2.614233 -4.689409
C 118.100696 0.671805 -7.307907
C 117.742631 -0.496041 -7.973695
C 117.456276 -1.648142 -7.240863
C 117.501415 -1.636066 -5.837475
O 117.296013 -2.761228 -5.079085
C 116.510404 -3.800670 -5.639373
H 122.707046 0.000030 -0.052114
H 122.539387 -1.026113 -2.666433
H 120.587134 -1.260965 -4.539771
H 118.846270 0.038722 -0.934683
H 115.210710 -0.239182 -4.565649
H 113.464550 0.033307 -2.713897
H 113.825413 -0.868659 2.649781
H 115.784656 -0.620434 4.511689
H 117.737084 3.509468 2.680111
H 118.462168 4.622809 3.856295
H 119.198685 3.043315 3.590175
H 117.343358 3.259699 7.148805
H 118.122850 1.576038 8.800122
H 119.052899 -0.566963 8.024604
H 119.176153 -3.361266 5.627372
H 119.745934 -2.528927 7.075049
H 117.998899 -2.497991 6.625416
H 121.039157 0.873011 4.313500
H 122.756628 0.550341 2.394786
H 117.320121 0.529879 0.774981
H 117.302506 3.481959 -5.294318
H 117.995598 2.986660 -3.746217
H 116.682608 2.047584 -4.466519
H 118.368139 1.560686 -7.869842
H 117.713543 -0.511064 -9.059808
H 117.228215 -2.556608 -7.784870
H 117.086182 -4.361923 -6.378132
H 116.236245 -4.488008 -4.836482
H 115.585363 -3.414706 -6.082172
C 67.327272 0.043785 -0.087447
C 66.075002 0.024604 -0.091796
C 68.640940 0.043019 -0.085515
C 70.144074 0.024604 -0.091796
C 81.300626 0.043785 -0.087447
C 80.048355 0.024604 -0.091796
C 82.614294 0.043019 -0.085515
C 84.117427 0.024604 -0.091796
C 95.273979 0.043785 -0.087447
C 94.021709 0.024604 -0.091796
C 96.587647 0.043019 -0.085515
C 98.090781 0.024604 -0.091796
C 109.247333 0.043785 -0.087447
C 107.995062 0.024604 -0.091796
C 110.561001 0.043019 -0.085515
C 112.064134 0.024604 -0.091796
C 71.512381 -0.022813 0.067614
C 72.303543 1.233571 0.630998
C 71.774651 2.267883 1.374688
C 72.809543 3.215401 1.561335
C 73.944242 2.728841 0.948838
N 73.643209 1.490507 0.438483
C 75.351690 3.462173 0.852778
C 76.483694 2.740685 0.621490
C 77.784443 3.369206 0.499956
C 78.694548 2.422384 0.319756
N 76.688861 1.395613 0.464186
C 78.021446 1.140445 0.275894
C 78.690631 -0.022813 0.067614
C 77.889026 -1.386509 -0.035363
C 78.387817 -2.657549 0.196335
C 77.351932 -3.579682 -0.088765
C 76.252855 -2.842025 -0.493243
C 74.858073 -3.427641 -0.971498
C 74.864203 -4.774481 -1.621495
C 74.500283 -5.906522 -0.843000
O 74.175813 -5.690081 0.472940
C 73.236473 -6.580873 1.056804
C 74.542579 -7.196808 -1.390624
C 74.952884 -7.385274 -2.701708
C 75.317945 -6.285095 -3.469947
C 75.264797 -4.980450 -2.958696
O 75.675382 -4.053118 -3.886841
C 75.005038 -2.791762 -3.870813
C 73.720564 -2.699291 -0.801484
C 72.416550 -3.207801 -1.181019
C 71.503871 -2.290404 -0.887622
C 72.181264 -1.139403 -0.321472
N 73.517906 -1.442052 -0.299871
N 76.568225 -1.509769 -0.392816
C 75.381054 4.946632 1.004574
C 75.447829 5.783157 -0.128211
O 75.508153 5.224540 -1.382415
C 74.373071 5.580133 -2.174631
C 75.517192 7.177754 0.006582
C 75.485529 7.763398 1.269983
C 75.379087 6.957996 2.401817
C 75.346091 5.563525 2.274063
O 75.185314 4.858429 3.439375
C 76.421299 4.283028 3.869166
H 70.754910 2.352115 1.728462
H 72.738473 4.154292 2.087141
H 74.313711 0.858075 0.004391
H 77.988409 4.421871 0.559368
H 79.747560 2.594422 0.209041
H 79.390914 -2.900170 0.521335
H 77.403763 -4.659313 -0.020888
H 72.837110 -6.108847 1.961447
H 73.731396 -7.512296 1.360038
H 72.387114 -6.780855 0.387325
H 74.296714 -8.066505 -0.794197
H 75.003060 -8.383264 -3.124819
H 75.646814 -6.433965 -4.489284
H 75.009591 -2.448798 -4.920922
H 73.941458 -2.891109 -3.583748
H 75.547199 -2.048323 -3.271466
H 72.216460 -4.166405 -1.620022
H 70.449801 -2.404151 -1.059214
H 75.922406 -0.733384 -0.515283
H 74.601044 6.494834 -2.738198
H 73.463546 5.732780 -1.580971
H 74.193701 4.774661 -2.900803
H 75.612952 7.804299 -0.874601
H 75.544036 8.842668 1.370138
H 75.345354 7.402371 3.388747
H 77.167735 4.169617 3.079783
H 76.204185 3.296776 4.299402
H 76.847279 4.915067 4.657157
C 85.485734 -0.022813 0.067614
C 86.276897 1.233571 0.630998
C 85.748004 2.267883 1.374688
C 86.782897 3.215401 1.561335
C 87.917595 2.728841 0.948838
N 87.616563 1.490507 0.438483
C 89.325043 3.462173 0.852778
C 90.457047 2.740685 0.621490
C 91.757796 3.369206 0.499956
C 92.667901 2.422384 0.319756
N 90.662214 1.395613 0.464186
C 91.994799 1.140445 0.275894
C 92.663985 -0.022813 0.067614
C 91.862379 -1.386509 -0.035363
C 92.361170 -2.657549 0.196335
C 91.325285 -3.579682 -0.088765
C 90.226208 -2.842025 -0.493243
C 88.831427 -3.427641 -0.971498
C 88.837557 -4.774481 -1.621495
C 88.473637 -5.906522 -0.843000
O 88.149167 -5.690081 0.472940
C 87.209827 -6.580873 1.056804
C 88.515932 -7.196808 -1.390624
C 88.926238 -7.385274 -2.701708
C 89.291298 -6.285095 -3.469947
C 89.238151 -4.980450 -2.958696
O 89.648735 -4.053118 -3.886841
C 88.978391 -2.791762 -3.870813
C 87.693917 -2.699291 -0.801484
C 86.389904 -3.207801 -1.181019
C 85.477225 -2.290404 -0.887622
C 86.154618 -1.139403 -0.321472
N 87.491260 -1.442052 -0.299871
N 90.541579 -1.509769 -0.392816
C 89.354407 4.946632 1.004574
C 89.421183 5.783157 -0.128211
O 89.481507 5.224540 -1.382415
C 88.346425 5.580133 -2.174631
C 89.490545 7.177754 0.006582
C 89.458882 7.763398 1.269983
C 89.352440 6.957996 2.401817
C 89.319444 5.563525 2.274063
O 89.158667 4.858429 3.439375
C 90.394653 4.283028 3.869166
H 84.728264 2.352115 1.728462
H 86.711826 4.154292 2.087141
H 88.287064 0.858075 0.004391
H 91.961762 4.421871 0.559368
H 93.720914 2.594422 0.209041
H 93.364268 -2.900170 0.521335
H 91.377116 -4.659313 -0.020888
H 86.810463 -6.108847 1.961447
H 87.704749 -7.512296 1.360038
H 86.360467 -6.780855 0.387325
H 88.270067 -8.066505 -0.794197
H 88.976413 -8.383264 -3.124819
H 89.620167 -6.433965 -4.489284
H 88.982945 -2.448798 -4.920922
H 87.914812 -2.891109 -3.583748
H 89.520553 -2.048323 -3.271466
H 86.189813 -4.166405 -1.620022
H 84.423155 -2.404151 -1.059214
H 89.895759 -0.733384 -0.515283
H 88.574398 6.494834 -2.738198
H 87.436899 5.732780 -1.580971
H 88.167055 4.774661 -2.900803
H 89.586306 7.804299 -0.874601
H 89.517389 8.842668 1.370138
H 89.318707 7.402371 3.388747
H 91.141088 4.169617 3.079783
H 90.177539 3.296776 4.299402
H 90.820632 4.915067 4.657157
C 99.459088 -0.022813 0.067614
C 100.250250 1.233571 0.630998
C 99.721358 2.267883 1.374688
C 100.756250 3.215401 1.561335
C 101.890949 2.728841 0.948838
N 101.589916 1.490507 0.438483
C 103.298397 3.462173 0.852778
C 104.430401 2.740685 0.621490
C 105.731150 3.369206 0.499956
C 106.641255 2.422384 0.319756
N 104.635568 1.395613 0.464186
C 105.968153 1.140445 0.275894
C 106.637338 -0.022813 0.067614
C 105.835733 -1.386509 -0.035363
C 106.334524 -2.657549 0.196335
C 105.298639 -3.579682 -0.088765
C 104.199562 -2.842025 -0.493243
C 102.804780 -3.427641 -0.971498
C 102.810910 -4.774481 -1.621495
C 102.446990 -5.906522 -0.843000
O 102.122520 -5.690081 0.472940
C 101.183180 -6.580873 1.056804
C 102.489286 -7.196808 -1.390624
C 102.899591 -7.385274 -2.701708
C 103.264652 -6.285095 -3.469947
C 103.211504 -4.980450 -2.958696
O 103.622089 -4.053118 -3.886841
C 102.951745 -2.791762 -3.870813
C 101.667271 -2.699291 -0.801484
C 100.363257 -3.207801 -1.181019
C 99.450578 -2.290404 -0.887622
C 100.127971 -1.139403 -0.321472
N 101.464613 -1.442052 -0.299871
N 104.514932 -1.509769 -0.392816
C 103.327761 4.946632 1.004574
C 103.394536 5.783157 -0.128211
O 103.454860 5.224540 -1.382415
C 102.319778 5.580133 -2.174631
C 103.463899 7.177754 0.006582
C 103.432236 7.763398 1.269983
C 103.325794 6.957996 2.401817
C 103.292798 5.563525 2.274063
O 103.132021 4.858429 3.439375
C 104.368006 4.283028 3.869166
H 98.701617 2.352115 1.728462
H 100.685180 4.154292 2.087141
H 102.260418 0.858075 0.004391
H 105.935116 4.421871 0.559368
H 107.694267 2.594422 0.209041
H 107.337621 -2.900170 0.521335
H 105.350470 -4.659313 -0.020888
H 100.783817 -6.108847 1.961447
H 101.678103 -7.512296 1.360038
H 100.333821 -6.780855 0.387325
H 102.243421 -8.066505 -0.794197
H 102.949767 -8.383264 -3.124819
H 103.593521 -6.433965 -4.489284
H 102.956298 -2.448798 -4.920922
H 101.888165 -2.891109 -3.583748
H 103.493906 -2.048323 -3.271466
H 100.163167 -4.166405 -1.620022
H 98.396508 -2.404151 -1.059214
H 103.869113 -0.733384 -0.515283
H 102.547751 6.494834 -2.738198
H 101.410253 5.732780 -1.580971
H 102.140408 4.774661 -2.900803
H 103.559659 7.804299 -0.874601
H 103.490743 8.842668 1.370138
H 103.292061 7.402371 3.388747
H 105.114442 4.169617 3.079783
H 104.150892 3.296776 4.299402
H 104.793986 4.915067 4.657157
