 xtb: 6.5.1 (b24c23e)
          07302203573D

378412  0     0  0            999 V2000
   58.6254    0.1421    0.0161 C   0  0  0  0  0  0  0  0  0  0  0  0
   59.2536    0.1497    1.2545 C   0  0  0  0  0  0  0  0  0  0  0  0
   58.6302    0.1513    2.5347 C   0  0  0  0  0  0  0  0  0  0  0  0
   59.6143    0.1627    3.4823 C   0  0  0  0  0  0  0  0  0  0  0  0
   60.8711    0.1671    2.8119 C   0  0  0  0  0  0  0  0  0  0  0  0
   60.6027    0.1621    1.4719 N   0  0  0  0  0  0  0  0  0  0  0  0
   62.1419    0.1755    3.3924 C   0  0  0  0  0  0  0  0  0  0  0  0
   63.3518    0.1466    2.6975 C   0  0  0  0  0  0  0  0  0  0  0  0
   64.6492    0.1280    3.3487 C   0  0  0  0  0  0  0  0  0  0  0  0
   65.5711    0.1220    2.3635 C   0  0  0  0  0  0  0  0  0  0  0  0
   63.5058    0.1591    1.3457 N   0  0  0  0  0  0  0  0  0  0  0  0
   64.8350    0.1403    1.1136 C   0  0  0  0  0  0  0  0  0  0  0  0
   65.4646    0.1386   -0.1461 C   0  0  0  0  0  0  0  0  0  0  0  0
   64.8117    0.1498   -1.3914 C   0  0  0  0  0  0  0  0  0  0  0  0
   65.4291    0.1625   -2.6712 C   0  0  0  0  0  0  0  0  0  0  0  0
   64.4412    0.1873   -3.6159 C   0  0  0  0  0  0  0  0  0  0  0  0
   63.1888    0.1882   -2.9409 C   0  0  0  0  0  0  0  0  0  0  0  0
   61.9188    0.2125   -3.5223 C   0  0  0  0  0  0  0  0  0  0  0  0
   61.8742    0.1980   -5.0165 C   0  0  0  0  0  0  0  0  0  0  0  0
   61.9842    1.3299   -5.8283 C   0  0  0  0  0  0  0  0  0  0  0  0
   62.1277    2.6112   -5.3974 O   0  0  0  0  0  0  0  0  0  0  0  0
   61.7738    3.0413   -4.0959 C   0  0  0  0  0  0  0  0  0  0  0  0
   61.9797    1.1924   -7.2226 C   0  0  0  0  0  0  0  0  0  0  0  0
   61.8562   -0.0532   -7.8032 C   0  0  0  0  0  0  0  0  0  0  0  0
   61.7291   -1.1917   -7.0160 C   0  0  0  0  0  0  0  0  0  0  0  0
   61.7417   -1.0625   -5.6320 C   0  0  0  0  0  0  0  0  0  0  0  0
   61.6421   -2.1159   -4.7768 O   0  0  0  0  0  0  0  0  0  0  0  0
   61.4806   -3.4284   -5.2755 C   0  0  0  0  0  0  0  0  0  0  0  0
   60.7086    0.1768   -2.8260 C   0  0  0  0  0  0  0  0  0  0  0  0
   59.4052    0.1629   -3.4709 C   0  0  0  0  0  0  0  0  0  0  0  0
   58.4896    0.1438   -2.4810 C   0  0  0  0  0  0  0  0  0  0  0  0
   59.2335    0.1510   -1.2331 C   0  0  0  0  0  0  0  0  0  0  0  0
   60.5662    0.1745   -1.4791 N   0  0  0  0  0  0  0  0  0  0  0  0
   63.4643    0.1663   -1.5991 N   0  0  0  0  0  0  0  0  0  0  0  0
   62.1826    0.1384    4.8863 C   0  0  0  0  0  0  0  0  0  0  0  0
   62.0180    1.2535    5.7121 C   0  0  0  0  0  0  0  0  0  0  0  0
   61.8319    2.5333    5.2916 O   0  0  0  0  0  0  0  0  0  0  0  0
   62.2371    2.9967    4.0163 C   0  0  0  0  0  0  0  0  0  0  0  0
   62.0077    1.0972    7.1040 C   0  0  0  0  0  0  0  0  0  0  0  0
   62.1716   -0.1512    7.6689 C   0  0  0  0  0  0  0  0  0  0  0  0
   62.3561   -1.2721    6.8681 C   0  0  0  0  0  0  0  0  0  0  0  0
   62.3575   -1.1243    5.4857 C   0  0  0  0  0  0  0  0  0  0  0  0
   62.5075   -2.1613    4.6182 O   0  0  0  0  0  0  0  0  0  0  0  0
   62.7243   -3.4719    5.1006 C   0  0  0  0  0  0  0  0  0  0  0  0
   57.5405    0.1288    0.0354 H   0  0  0  0  0  0  0  0  0  0  0  0
   57.5638    0.1446    2.6949 H   0  0  0  0  0  0  0  0  0  0  0  0
   59.4925    0.1654    4.5535 H   0  0  0  0  0  0  0  0  0  0  0  0
   61.3076    0.1441    0.7428 H   0  0  0  0  0  0  0  0  0  0  0  0
   64.8041    0.1158    4.4157 H   0  0  0  0  0  0  0  0  0  0  0  0
   66.6462    0.1056    2.4461 H   0  0  0  0  0  0  0  0  0  0  0  0
   66.4946    0.1544   -2.8356 H   0  0  0  0  0  0  0  0  0  0  0  0
   64.5594    0.2015   -4.6873 H   0  0  0  0  0  0  0  0  0  0  0  0
   62.5039    2.7130   -3.3481 H   0  0  0  0  0  0  0  0  0  0  0  0
   61.7681    4.1335   -4.1309 H   0  0  0  0  0  0  0  0  0  0  0  0
   60.7774    2.6851   -3.8131 H   0  0  0  0  0  0  0  0  0  0  0  0
   62.0737    2.0866   -7.8258 H   0  0  0  0  0  0  0  0  0  0  0  0
   61.8526   -0.1476   -8.8832 H   0  0  0  0  0  0  0  0  0  0  0  0
   61.6289   -2.1613   -7.4850 H   0  0  0  0  0  0  0  0  0  0  0  0
   61.4096   -4.0787   -4.4016 H   0  0  0  0  0  0  0  0  0  0  0  0
   60.5634   -3.5221   -5.8695 H   0  0  0  0  0  0  0  0  0  0  0  0
   62.3397   -3.7358   -5.8841 H   0  0  0  0  0  0  0  0  0  0  0  0
   59.2452    0.1616   -4.5375 H   0  0  0  0  0  0  0  0  0  0  0  0
   57.4134    0.1265   -2.5553 H   0  0  0  0  0  0  0  0  0  0  0  0
   62.7614    0.1455   -0.8677 H   0  0  0  0  0  0  0  0  0  0  0  0
   63.2455    2.6505    3.7660 H   0  0  0  0  0  0  0  0  0  0  0  0
   62.2362    4.0879    4.0766 H   0  0  0  0  0  0  0  0  0  0  0  0
   61.5395    2.6832    3.2320 H   0  0  0  0  0  0  0  0  0  0  0  0
   61.8699    1.9781    7.7181 H   0  0  0  0  0  0  0  0  0  0  0  0
   62.1627   -0.2612    8.7474 H   0  0  0  0  0  0  0  0  0  0  0  0
   62.4878   -2.2436    7.3252 H   0  0  0  0  0  0  0  0  0  0  0  0
   61.8735   -3.8279    5.6944 H   0  0  0  0  0  0  0  0  0  0  0  0
   62.8355   -4.1055    4.2186 H   0  0  0  0  0  0  0  0  0  0  0  0
   63.6380   -3.5315    5.7043 H   0  0  0  0  0  0  0  0  0  0  0  0
  119.4170    0.0970   -0.1516 C   0  0  0  0  0  0  0  0  0  0  0  0
  118.8144   -0.0687   -1.3918 C   0  0  0  0  0  0  0  0  0  0  0  0
  119.4644   -0.2205   -2.6495 C   0  0  0  0  0  0  0  0  0  0  0  0
  118.5005   -0.3573   -3.6081 C   0  0  0  0  0  0  0  0  0  0  0  0
  117.2302   -0.2958   -2.9668 C   0  0  0  0  0  0  0  0  0  0  0  0
  117.4703   -0.1170   -1.6333 N   0  0  0  0  0  0  0  0  0  0  0  0
  115.9717   -0.4030   -3.5646 C   0  0  0  0  0  0  0  0  0  0  0  0
  114.7492   -0.3727   -2.8922 C   0  0  0  0  0  0  0  0  0  0  0  0
  113.4660   -0.5212   -3.5546 C   0  0  0  0  0  0  0  0  0  0  0  0
  112.5248   -0.4039   -2.5949 C   0  0  0  0  0  0  0  0  0  0  0  0
  114.5676   -0.1659   -1.5595 N   0  0  0  0  0  0  0  0  0  0  0  0
  113.2347   -0.1787   -1.3502 C   0  0  0  0  0  0  0  0  0  0  0  0
  112.5789    0.0209   -0.1198 C   0  0  0  0  0  0  0  0  0  0  0  0
  113.2054    0.2416    1.1198 C   0  0  0  0  0  0  0  0  0  0  0  0
  112.5607    0.4441    2.3697 C   0  0  0  0  0  0  0  0  0  0  0  0
  113.5284    0.6035    3.3224 C   0  0  0  0  0  0  0  0  0  0  0  0
  114.7948    0.5032    2.6822 C   0  0  0  0  0  0  0  0  0  0  0  0
  116.0523    0.6026    3.2822 C   0  0  0  0  0  0  0  0  0  0  0  0
  116.0650    0.7786    4.7668 C   0  0  0  0  0  0  0  0  0  0  0  0
  115.9371    2.0027    5.4282 C   0  0  0  0  0  0  0  0  0  0  0  0
  115.8052    3.2201    4.8382 O   0  0  0  0  0  0  0  0  0  0  0  0
  116.1748    3.4818    3.4969 C   0  0  0  0  0  0  0  0  0  0  0  0
  115.9101    2.0402    6.8286 C   0  0  0  0  0  0  0  0  0  0  0  0
  116.0199    0.8772    7.5628 C   0  0  0  0  0  0  0  0  0  0  0  0
  116.1644   -0.3504    6.9271 C   0  0  0  0  0  0  0  0  0  0  0  0
  116.1832   -0.3948    5.5380 C   0  0  0  0  0  0  0  0  0  0  0  0
  116.3015   -1.5465    4.8234 O   0  0  0  0  0  0  0  0  0  0  0  0
  116.4506   -2.7864    5.4850 C   0  0  0  0  0  0  0  0  0  0  0  0
  117.2765    0.4773    2.6219 C   0  0  0  0  0  0  0  0  0  0  0  0
  118.5666    0.5569    3.2884 C   0  0  0  0  0  0  0  0  0  0  0  0
  119.5022    0.4195    2.3268 C   0  0  0  0  0  0  0  0  0  0  0  0
  118.7836    0.2585    1.0745 C   0  0  0  0  0  0  0  0  0  0  0  0
  117.4462    0.3006    1.2897 N   0  0  0  0  0  0  0  0  0  0  0  0
  114.5479    0.2892    1.3516 N   0  0  0  0  0  0  0  0  0  0  0  0
  115.9623   -0.6313   -5.0414 C   0  0  0  0  0  0  0  0  0  0  0  0
  116.1429    0.3743   -5.9949 C   0  0  0  0  0  0  0  0  0  0  0  0
  116.3168    1.6967   -5.7276 O   0  0  0  0  0  0  0  0  0  0  0  0
  115.8383    2.3146   -4.5462 C   0  0  0  0  0  0  0  0  0  0  0  0
  116.1858    0.0482   -7.3561 C   0  0  0  0  0  0  0  0  0  0  0  0
  116.0373   -1.2613   -7.7660 C   0  0  0  0  0  0  0  0  0  0  0  0
  115.8360   -2.2755   -6.8373 C   0  0  0  0  0  0  0  0  0  0  0  0
  115.8027   -1.9589   -5.4839 C   0  0  0  0  0  0  0  0  0  0  0  0
  115.6352   -2.8821   -4.4989 O   0  0  0  0  0  0  0  0  0  0  0  0
  115.4271   -4.2423   -4.8217 C   0  0  0  0  0  0  0  0  0  0  0  0
  120.5022    0.1001   -0.1492 H   0  0  0  0  0  0  0  0  0  0  0  0
  120.5339   -0.2225   -2.7879 H   0  0  0  0  0  0  0  0  0  0  0  0
  118.6449   -0.4928   -4.6678 H   0  0  0  0  0  0  0  0  0  0  0  0
  116.7500   -0.0546   -0.9219 H   0  0  0  0  0  0  0  0  0  0  0  0
  113.3327   -0.6959   -4.6102 H   0  0  0  0  0  0  0  0  0  0  0  0
  111.4522   -0.4590   -2.6922 H   0  0  0  0  0  0  0  0  0  0  0  0
  111.4919    0.4615    2.5103 H   0  0  0  0  0  0  0  0  0  0  0  0
  113.3870    0.7735    4.3775 H   0  0  0  0  0  0  0  0  0  0  0  0
  115.4529    3.0611    2.7885 H   0  0  0  0  0  0  0  0  0  0  0  0
  116.1813    4.5696    3.3933 H   0  0  0  0  0  0  0  0  0  0  0  0
  117.1739    3.0930    3.2731 H   0  0  0  0  0  0  0  0  0  0  0  0
  115.8027    3.0024    7.3131 H   0  0  0  0  0  0  0  0  0  0  0  0
  115.9987    0.9184    8.6460 H   0  0  0  0  0  0  0  0  0  0  0  0
  116.2536   -1.2536    7.5156 H   0  0  0  0  0  0  0  0  0  0  0  0
  116.5412   -3.5402    4.7005 H   0  0  0  0  0  0  0  0  0  0  0  0
  117.3538   -2.8037    6.1069 H   0  0  0  0  0  0  0  0  0  0  0  0
  115.5775   -3.0178    6.1072 H   0  0  0  0  0  0  0  0  0  0  0  0
  118.7050    0.6948    4.3491 H   0  0  0  0  0  0  0  0  0  0  0  0
  120.5767    0.4219    2.4236 H   0  0  0  0  0  0  0  0  0  0  0  0
  115.2665    0.1590    0.6474 H   0  0  0  0  0  0  0  0  0  0  0  0
  114.8267    1.9762   -4.2989 H   0  0  0  0  0  0  0  0  0  0  0  0
  115.8186    3.3878   -4.7516 H   0  0  0  0  0  0  0  0  0  0  0  0
  116.5027    2.1275   -3.6955 H   0  0  0  0  0  0  0  0  0  0  0  0
  116.3356    0.8473   -8.0710 H   0  0  0  0  0  0  0  0  0  0  0  0
  116.0709   -1.5036   -8.8222 H   0  0  0  0  0  0  0  0  0  0  0  0
  115.7162   -3.2965   -7.1742 H   0  0  0  0  0  0  0  0  0  0  0  0
  116.2898   -4.6672   -5.3492 H   0  0  0  0  0  0  0  0  0  0  0  0
  115.2963   -4.7633   -3.8714 H   0  0  0  0  0  0  0  0  0  0  0  0
  114.5264   -4.3764   -5.4330 H   0  0  0  0  0  0  0  0  0  0  0  0
   68.0950    0.1262   -0.2013 C   0  0  0  0  0  0  0  0  0  0  0  0
   66.8740    0.1291   -0.1756 C   0  0  0  0  0  0  0  0  0  0  0  0
   69.4473    0.1231   -0.2251 C   0  0  0  0  0  0  0  0  0  0  0  0
   70.6685    0.1185   -0.2445 C   0  0  0  0  0  0  0  0  0  0  0  0
   81.5974   -0.0053   -0.2905 C   0  0  0  0  0  0  0  0  0  0  0  0
   80.3746    0.0133   -0.2844 C   0  0  0  0  0  0  0  0  0  0  0  0
   82.9461   -0.0184   -0.2874 C   0  0  0  0  0  0  0  0  0  0  0  0
   84.1691   -0.0312   -0.2899 C   0  0  0  0  0  0  0  0  0  0  0  0
   95.0982   -0.0622   -0.2483 C   0  0  0  0  0  0  0  0  0  0  0  0
   93.8751   -0.0600   -0.2571 C   0  0  0  0  0  0  0  0  0  0  0  0
   96.4468   -0.0562   -0.2414 C   0  0  0  0  0  0  0  0  0  0  0  0
   97.6698   -0.0516   -0.2338 C   0  0  0  0  0  0  0  0  0  0  0  0
  108.5964    0.0002   -0.1189 C   0  0  0  0  0  0  0  0  0  0  0  0
  107.3750    0.0029   -0.1267 C   0  0  0  0  0  0  0  0  0  0  0  0
  109.9485    0.0036   -0.1131 C   0  0  0  0  0  0  0  0  0  0  0  0
  111.1698    0.0066   -0.1168 C   0  0  0  0  0  0  0  0  0  0  0  0
   72.0771    0.1103   -0.2665 C   0  0  0  0  0  0  0  0  0  0  0  0
   72.7200    1.3005    0.1183 C   0  0  0  0  0  0  0  0  0  0  0  0
   72.0920    2.5053    0.5310 C   0  0  0  0  0  0  0  0  0  0  0  0
   73.0731    3.4171    0.8063 C   0  0  0  0  0  0  0  0  0  0  0  0
   74.3300    2.7973    0.5654 C   0  0  0  0  0  0  0  0  0  0  0  0
   74.0654    1.5180    0.1563 N   0  0  0  0  0  0  0  0  0  0  0  0
   75.5959    3.3696    0.7264 C   0  0  0  0  0  0  0  0  0  0  0  0
   76.8158    2.7271    0.5178 C   0  0  0  0  0  0  0  0  0  0  0  0
   78.1047    3.3785    0.6684 C   0  0  0  0  0  0  0  0  0  0  0  0
   79.0401    2.4473    0.3901 C   0  0  0  0  0  0  0  0  0  0  0  0
   76.9898    1.4299    0.1405 N   0  0  0  0  0  0  0  0  0  0  0  0
   78.3209    1.2314    0.0626 C   0  0  0  0  0  0  0  0  0  0  0  0
   78.9703    0.0292   -0.2852 C   0  0  0  0  0  0  0  0  0  0  0  0
   78.3273   -1.1710   -0.6457 C   0  0  0  0  0  0  0  0  0  0  0  0
   78.9529   -2.3915   -1.0105 C   0  0  0  0  0  0  0  0  0  0  0  0
   77.9696   -3.2956   -1.3076 C   0  0  0  0  0  0  0  0  0  0  0  0
   76.7150   -2.6516   -1.1310 C   0  0  0  0  0  0  0  0  0  0  0  0
   75.4489   -3.2064   -1.3410 C   0  0  0  0  0  0  0  0  0  0  0  0
   75.4232   -4.6472   -1.7427 C   0  0  0  0  0  0  0  0  0  0  0  0
   75.3319   -5.5850   -0.6947 C   0  0  0  0  0  0  0  0  0  0  0  0
   75.2573   -5.0493    0.5539 O   0  0  0  0  0  0  0  0  0  0  0  0
   75.1272   -5.8869    1.6846 C   0  0  0  0  0  0  0  0  0  0  0  0
   75.3302   -6.9518   -0.9463 C   0  0  0  0  0  0  0  0  0  0  0  0
   75.4264   -7.3971   -2.2597 C   0  0  0  0  0  0  0  0  0  0  0  0
   75.5122   -6.4976   -3.3021 C   0  0  0  0  0  0  0  0  0  0  0  0
   75.5073   -5.1178   -3.0555 C   0  0  0  0  0  0  0  0  0  0  0  0
   75.6116   -4.3586   -4.1770 O   0  0  0  0  0  0  0  0  0  0  0  0
   75.3409   -2.9699   -4.2165 C   0  0  0  0  0  0  0  0  0  0  0  0
   74.2292   -2.5641   -1.1337 C   0  0  0  0  0  0  0  0  0  0  0  0
   72.9421   -3.2044   -1.3363 C   0  0  0  0  0  0  0  0  0  0  0  0
   72.0048   -2.2790   -1.0422 C   0  0  0  0  0  0  0  0  0  0  0  0
   72.7219   -1.0770   -0.6633 C   0  0  0  0  0  0  0  0  0  0  0  0
   74.0543   -1.2749   -0.7345 N   0  0  0  0  0  0  0  0  0  0  0  0
   76.9820   -1.3694   -0.7298 N   0  0  0  0  0  0  0  0  0  0  0  0
   75.6236    4.7959    1.1602 C   0  0  0  0  0  0  0  0  0  0  0  0
   75.1876    5.8083    0.2950 C   0  0  0  0  0  0  0  0  0  0  0  0
   74.7536    5.3997   -0.9272 O   0  0  0  0  0  0  0  0  0  0  0  0
   74.3162    6.3446   -1.8834 C   0  0  0  0  0  0  0  0  0  0  0  0
   75.2228    7.1431    0.6970 C   0  0  0  0  0  0  0  0  0  0  0  0
   75.6869    7.4595    1.9648 C   0  0  0  0  0  0  0  0  0  0  0  0
   76.1165    6.4744    2.8408 C   0  0  0  0  0  0  0  0  0  0  0  0
   76.0864    5.1397    2.4377 C   0  0  0  0  0  0  0  0  0  0  0  0
   76.4739    4.1043    3.2272 O   0  0  0  0  0  0  0  0  0  0  0  0
   77.0044    4.3445    4.5152 C   0  0  0  0  0  0  0  0  0  0  0  0
   71.0255    2.6447    0.6060 H   0  0  0  0  0  0  0  0  0  0  0  0
   72.9430    4.4313    1.1470 H   0  0  0  0  0  0  0  0  0  0  0  0
   74.7719    0.8289   -0.0781 H   0  0  0  0  0  0  0  0  0  0  0  0
   78.2496    4.4096    0.9473 H   0  0  0  0  0  0  0  0  0  0  0  0
   80.1139    2.5475    0.3933 H   0  0  0  0  0  0  0  0  0  0  0  0
   80.0192   -2.5479   -1.0401 H   0  0  0  0  0  0  0  0  0  0  0  0
   78.0944   -4.3193   -1.6213 H   0  0  0  0  0  0  0  0  0  0  0  0
   75.0667   -5.2230    2.5491 H   0  0  0  0  0  0  0  0  0  0  0  0
   75.9957   -6.5472    1.7983 H   0  0  0  0  0  0  0  0  0  0  0  0
   74.2150   -6.4936    1.6321 H   0  0  0  0  0  0  0  0  0  0  0  0
   75.2609   -7.6681   -0.1387 H   0  0  0  0  0  0  0  0  0  0  0  0
   75.4303   -8.4619   -2.4637 H   0  0  0  0  0  0  0  0  0  0  0  0
   75.5840   -6.8333   -4.3290 H   0  0  0  0  0  0  0  0  0  0  0  0
   75.3462   -2.6938   -5.2737 H   0  0  0  0  0  0  0  0  0  0  0  0
   74.3587   -2.7399   -3.7898 H   0  0  0  0  0  0  0  0  0  0  0  0
   76.1104   -2.3917   -3.6935 H   0  0  0  0  0  0  0  0  0  0  0  0
   72.8036   -4.2254   -1.6541 H   0  0  0  0  0  0  0  0  0  0  0  0
   70.9310   -2.3748   -1.0683 H   0  0  0  0  0  0  0  0  0  0  0  0
   76.2775   -0.6728   -0.5117 H   0  0  0  0  0  0  0  0  0  0  0  0
   75.1158    7.0468   -2.1487 H   0  0  0  0  0  0  0  0  0  0  0  0
   73.4450    6.9058   -1.5243 H   0  0  0  0  0  0  0  0  0  0  0  0
   74.0333    5.7721   -2.7687 H   0  0  0  0  0  0  0  0  0  0  0  0
   74.8933    7.9323    0.0346 H   0  0  0  0  0  0  0  0  0  0  0  0
   75.7126    8.4975    2.2778 H   0  0  0  0  0  0  0  0  0  0  0  0
   76.4684    6.7497    3.8260 H   0  0  0  0  0  0  0  0  0  0  0  0
   77.9047    4.9689    4.4678 H   0  0  0  0  0  0  0  0  0  0  0  0
   77.2672    3.3664    4.9223 H   0  0  0  0  0  0  0  0  0  0  0  0
   76.2664    4.8213    5.1716 H   0  0  0  0  0  0  0  0  0  0  0  0
   85.5731   -0.0334   -0.2967 C   0  0  0  0  0  0  0  0  0  0  0  0
   86.2064    1.1748    0.0548 C   0  0  0  0  0  0  0  0  0  0  0  0
   85.5662    2.3854    0.4270 C   0  0  0  0  0  0  0  0  0  0  0  0
   86.5388    3.3097    0.6938 C   0  0  0  0  0  0  0  0  0  0  0  0
   87.8015    2.6910    0.4870 C   0  0  0  0  0  0  0  0  0  0  0  0
   87.5493    1.4004    0.1053 N   0  0  0  0  0  0  0  0  0  0  0  0
   89.0625    3.2730    0.6555 C   0  0  0  0  0  0  0  0  0  0  0  0
   90.2887    2.6348    0.4756 C   0  0  0  0  0  0  0  0  0  0  0  0
   91.5712    3.2975    0.6304 C   0  0  0  0  0  0  0  0  0  0  0  0
   92.5161    2.3691    0.3762 C   0  0  0  0  0  0  0  0  0  0  0  0
   90.4761    1.3326    0.1216 N   0  0  0  0  0  0  0  0  0  0  0  0
   91.8091    1.1431    0.0601 C   0  0  0  0  0  0  0  0  0  0  0  0
   92.4711   -0.0587   -0.2653 C   0  0  0  0  0  0  0  0  0  0  0  0
   91.8403   -1.2706   -0.6089 C   0  0  0  0  0  0  0  0  0  0  0  0
   92.4782   -2.4909   -0.9516 C   0  0  0  0  0  0  0  0  0  0  0  0
   91.5038   -3.4101   -1.2324 C   0  0  0  0  0  0  0  0  0  0  0  0
   90.2430   -2.7757   -1.0671 C   0  0  0  0  0  0  0  0  0  0  0  0
   88.9821   -3.3482   -1.2633 C   0  0  0  0  0  0  0  0  0  0  0  0
   88.9723   -4.7969   -1.6363 C   0  0  0  0  0  0  0  0  0  0  0  0
   88.9013   -5.7153   -0.5699 C   0  0  0  0  0  0  0  0  0  0  0  0
   88.8303   -5.1566    0.6688 O   0  0  0  0  0  0  0  0  0  0  0  0
   88.7197   -5.9739    1.8163 C   0  0  0  0  0  0  0  0  0  0  0  0
   88.9144   -7.0867   -0.7952 C   0  0  0  0  0  0  0  0  0  0  0  0
   89.0057   -7.5559   -2.1005 C   0  0  0  0  0  0  0  0  0  0  0  0
   89.0726   -6.6757   -3.1605 C   0  0  0  0  0  0  0  0  0  0  0  0
   89.0526   -5.2916   -2.9405 C   0  0  0  0  0  0  0  0  0  0  0  0
   89.1410   -4.5529   -4.0769 O   0  0  0  0  0  0  0  0  0  0  0  0
   88.8502   -3.1693   -4.1424 C   0  0  0  0  0  0  0  0  0  0  0  0
   87.7558   -2.7154   -1.0688 C   0  0  0  0  0  0  0  0  0  0  0  0
   86.4758   -3.3745   -1.2531 C   0  0  0  0  0  0  0  0  0  0  0  0
   85.5286   -2.4502   -0.9872 C   0  0  0  0  0  0  0  0  0  0  0  0
   86.2329   -1.2303   -0.6447 C   0  0  0  0  0  0  0  0  0  0  0  0
   87.5661   -1.4163   -0.7058 N   0  0  0  0  0  0  0  0  0  0  0  0
   90.4971   -1.4836   -0.6899 N   0  0  0  0  0  0  0  0  0  0  0  0
   89.0761    4.7069    1.0641 C   0  0  0  0  0  0  0  0  0  0  0  0
   88.6488    5.7016    0.1744 C   0  0  0  0  0  0  0  0  0  0  0  0
   88.2378    5.2691   -1.0474 O   0  0  0  0  0  0  0  0  0  0  0  0
   87.8011    6.1932   -2.0239 C   0  0  0  0  0  0  0  0  0  0  0  0
   88.6697    7.0433    0.5537 C   0  0  0  0  0  0  0  0  0  0  0  0
   89.1109    7.3842    1.8233 C   0  0  0  0  0  0  0  0  0  0  0  0
   89.5321    6.4169    2.7231 C   0  0  0  0  0  0  0  0  0  0  0  0
   89.5165    5.0754    2.3426 C   0  0  0  0  0  0  0  0  0  0  0  0
   89.8977    4.0561    3.1557 O   0  0  0  0  0  0  0  0  0  0  0  0
   90.4012    4.3210    4.4496 C   0  0  0  0  0  0  0  0  0  0  0  0
   84.4981    2.5208    0.4835 H   0  0  0  0  0  0  0  0  0  0  0  0
   86.3980    4.3312    1.0072 H   0  0  0  0  0  0  0  0  0  0  0  0
   88.2632    0.7100   -0.1012 H   0  0  0  0  0  0  0  0  0  0  0  0
   91.7057    4.3339    0.8948 H   0  0  0  0  0  0  0  0  0  0  0  0
   93.5890    2.4773    0.3893 H   0  0  0  0  0  0  0  0  0  0  0  0
   93.5460   -2.6371   -0.9783 H   0  0  0  0  0  0  0  0  0  0  0  0
   91.6390   -4.4380   -1.5275 H   0  0  0  0  0  0  0  0  0  0  0  0
   88.6579   -5.2944    2.6685 H   0  0  0  0  0  0  0  0  0  0  0  0
   89.5973   -6.6212    1.9354 H   0  0  0  0  0  0  0  0  0  0  0  0
   87.8148   -6.5927    1.7828 H   0  0  0  0  0  0  0  0  0  0  0  0
   88.8603   -7.7881    0.0264 H   0  0  0  0  0  0  0  0  0  0  0  0
   89.0208   -8.6243   -2.2842 H   0  0  0  0  0  0  0  0  0  0  0  0
   89.1409   -7.0302   -4.1813 H   0  0  0  0  0  0  0  0  0  0  0  0
   88.8501   -2.9134   -5.2047 H   0  0  0  0  0  0  0  0  0  0  0  0
   87.8653   -2.9457   -3.7185 H   0  0  0  0  0  0  0  0  0  0  0  0
   89.6119   -2.5702   -3.6317 H   0  0  0  0  0  0  0  0  0  0  0  0
   86.3482   -4.4059   -1.5404 H   0  0  0  0  0  0  0  0  0  0  0  0
   84.4558   -2.5578   -1.0117 H   0  0  0  0  0  0  0  0  0  0  0  0
   89.7854   -0.7903   -0.4855 H   0  0  0  0  0  0  0  0  0  0  0  0
   88.5965    6.8983   -2.2936 H   0  0  0  0  0  0  0  0  0  0  0  0
   86.9211    6.7520   -1.6830 H   0  0  0  0  0  0  0  0  0  0  0  0
   87.5324    5.6028   -2.9019 H   0  0  0  0  0  0  0  0  0  0  0  0
   88.3470    7.8190   -0.1276 H   0  0  0  0  0  0  0  0  0  0  0  0
   89.1254    8.4275    2.1188 H   0  0  0  0  0  0  0  0  0  0  0  0
   89.8665    6.7112    3.7088 H   0  0  0  0  0  0  0  0  0  0  0  0
   91.2988    4.9497    4.4096 H   0  0  0  0  0  0  0  0  0  0  0  0
   90.6612    3.3515    4.8784 H   0  0  0  0  0  0  0  0  0  0  0  0
   89.6476    4.8045    5.0831 H   0  0  0  0  0  0  0  0  0  0  0  0
   99.0740   -0.0400   -0.2281 C   0  0  0  0  0  0  0  0  0  0  0  0
   99.6934    1.1677    0.1477 C   0  0  0  0  0  0  0  0  0  0  0  0
   99.0394    2.3683    0.5289 C   0  0  0  0  0  0  0  0  0  0  0  0
  100.0012    3.2948    0.8242 C   0  0  0  0  0  0  0  0  0  0  0  0
  101.2715    2.6876    0.6279 C   0  0  0  0  0  0  0  0  0  0  0  0
  101.0339    1.4019    0.2214 N   0  0  0  0  0  0  0  0  0  0  0  0
  102.5252    3.2732    0.8318 C   0  0  0  0  0  0  0  0  0  0  0  0
  103.7584    2.6442    0.6640 C   0  0  0  0  0  0  0  0  0  0  0  0
  105.0346    3.3079    0.8644 C   0  0  0  0  0  0  0  0  0  0  0  0
  105.9889    2.3927    0.5996 C   0  0  0  0  0  0  0  0  0  0  0  0
  103.9585    1.3550    0.2755 N   0  0  0  0  0  0  0  0  0  0  0  0
  105.2946    1.1741    0.2299 C   0  0  0  0  0  0  0  0  0  0  0  0
  105.9668   -0.0063   -0.1401 C   0  0  0  0  0  0  0  0  0  0  0  0
  105.3518   -1.2070   -0.5398 C   0  0  0  0  0  0  0  0  0  0  0  0
  106.0042   -2.4073   -0.9258 C   0  0  0  0  0  0  0  0  0  0  0  0
  105.0412   -3.3276   -1.2378 C   0  0  0  0  0  0  0  0  0  0  0  0
  103.7725   -2.7146   -1.0501 C   0  0  0  0  0  0  0  0  0  0  0  0
  102.5189   -3.2973   -1.2594 C   0  0  0  0  0  0  0  0  0  0  0  0
  102.5265   -4.7363   -1.6683 C   0  0  0  0  0  0  0  0  0  0  0  0
  102.4756   -5.6810   -0.6239 C   0  0  0  0  0  0  0  0  0  0  0  0
  102.4056   -5.1531    0.6283 O   0  0  0  0  0  0  0  0  0  0  0  0
  102.3155   -5.9989    1.7567 C   0  0  0  0  0  0  0  0  0  0  0  0
  102.5062   -7.0462   -0.8822 C   0  0  0  0  0  0  0  0  0  0  0  0
  102.5950   -7.4826   -2.1990 C   0  0  0  0  0  0  0  0  0  0  0  0
  102.6430   -6.5763   -3.2379 C   0  0  0  0  0  0  0  0  0  0  0  0
  102.6055   -5.1982   -2.9844 C   0  0  0  0  0  0  0  0  0  0  0  0
  102.6771   -4.4316   -4.1033 O   0  0  0  0  0  0  0  0  0  0  0  0
  102.3762   -3.0489   -4.1326 C   0  0  0  0  0  0  0  0  0  0  0  0
  101.2856   -2.6842   -1.0463 C   0  0  0  0  0  0  0  0  0  0  0  0
  100.0130   -3.3534   -1.2440 C   0  0  0  0  0  0  0  0  0  0  0  0
   99.0558   -2.4450   -0.9599 C   0  0  0  0  0  0  0  0  0  0  0  0
   99.7468   -1.2247   -0.5926 C   0  0  0  0  0  0  0  0  0  0  0  0
  101.0820   -1.3955   -0.6556 N   0  0  0  0  0  0  0  0  0  0  0  0
  104.0108   -1.4330   -0.6303 N   0  0  0  0  0  0  0  0  0  0  0  0
  102.5229    4.7003    1.2641 C   0  0  0  0  0  0  0  0  0  0  0  0
  102.1118    5.7065    0.3797 C   0  0  0  0  0  0  0  0  0  0  0  0
  101.7305    5.2907   -0.8574 O   0  0  0  0  0  0  0  0  0  0  0  0
  101.3222    6.2287   -1.8331 C   0  0  0  0  0  0  0  0  0  0  0  0
  102.1185    7.0424    0.7793 C   0  0  0  0  0  0  0  0  0  0  0  0
  102.5296    7.3660    2.0635 C   0  0  0  0  0  0  0  0  0  0  0  0
  102.9345    6.3870    2.9580 C   0  0  0  0  0  0  0  0  0  0  0  0
  102.9331    5.0512    2.5574 C   0  0  0  0  0  0  0  0  0  0  0  0
  103.3009    4.0213    3.3635 O   0  0  0  0  0  0  0  0  0  0  0  0
  103.7774    4.2697    4.6709 C   0  0  0  0  0  0  0  0  0  0  0  0
   97.9696    2.4956    0.5714 H   0  0  0  0  0  0  0  0  0  0  0  0
   99.8489    4.3105    1.1512 H   0  0  0  0  0  0  0  0  0  0  0  0
  101.7554    0.7198    0.0135 H   0  0  0  0  0  0  0  0  0  0  0  0
  105.1586    4.3359    1.1642 H   0  0  0  0  0  0  0  0  0  0  0  0
  107.0609    2.5051    0.6363 H   0  0  0  0  0  0  0  0  0  0  0  0
  107.0737   -2.5398   -0.9570 H   0  0  0  0  0  0  0  0  0  0  0  0
  105.1885   -4.3431   -1.5681 H   0  0  0  0  0  0  0  0  0  0  0  0
  102.2507   -5.3407    2.6252 H   0  0  0  0  0  0  0  0  0  0  0  0
  103.2029   -6.6362    1.8539 H   0  0  0  0  0  0  0  0  0  0  0  0
  101.4191   -6.6296    1.7153 H   0  0  0  0  0  0  0  0  0  0  0  0
  102.4674   -7.7679   -0.0774 H   0  0  0  0  0  0  0  0  0  0  0  0
  102.6237   -8.5460   -2.4085 H   0  0  0  0  0  0  0  0  0  0  0  0
  102.7098   -6.9052   -4.2673 H   0  0  0  0  0  0  0  0  0  0  0  0
  102.3695   -2.7663   -5.1880 H   0  0  0  0  0  0  0  0  0  0  0  0
  101.3918   -2.8431   -3.6989 H   0  0  0  0  0  0  0  0  0  0  0  0
  103.1360   -2.4575   -3.6103 H   0  0  0  0  0  0  0  0  0  0  0  0
   99.8967   -4.3801   -1.5523 H   0  0  0  0  0  0  0  0  0  0  0  0
   97.9843   -2.5637   -0.9871 H   0  0  0  0  0  0  0  0  0  0  0  0
  103.2909   -0.7560   -0.4014 H   0  0  0  0  0  0  0  0  0  0  0  0
  102.1251    6.9374   -2.0692 H   0  0  0  0  0  0  0  0  0  0  0  0
  100.4325    6.7828   -1.5102 H   0  0  0  0  0  0  0  0  0  0  0  0
  101.0795    5.6509   -2.7268 H   0  0  0  0  0  0  0  0  0  0  0  0
  101.8078    7.8270    0.1025 H   0  0  0  0  0  0  0  0  0  0  0  0
  102.5330    8.4048    2.3747 H   0  0  0  0  0  0  0  0  0  0  0  0
  103.2457    6.6679    3.9552 H   0  0  0  0  0  0  0  0  0  0  0  0
  104.6723    4.9033    4.6577 H   0  0  0  0  0  0  0  0  0  0  0  0
  104.0340    3.2953    5.0906 H   0  0  0  0  0  0  0  0  0  0  0  0
  103.0090    4.7401    5.2963 H   0  0  0  0  0  0  0  0  0  0  0  0
  1  2  4  0  0  0  0
  2  3  4  0  0  0  0
  3  4  2  0  0  0  0
  4  5  4  0  0  0  0
  2  6  4  0  0  0  0
  5  6  4  0  0  0  0
  5  7  4  0  0  0  0
  7  8  4  0  0  0  0
  8  9  1  0  0  0  0
  9 10  2  0  0  0  0
  8 11  4  0  0  0  0
 10 12  1  0  0  0  0
 11 12  4  0  0  0  0
 12 13  4  0  0  0  0
 13 14  4  0  0  0  0
 14 15  4  0  0  0  0
 15 16  2  0  0  0  0
 16 17  4  0  0  0  0
 17 18  4  0  0  0  0
 18 19  1  0  0  0  0
 19 20  4  0  0  0  0
 20 21  1  0  0  0  0
 21 22  1  0  0  0  0
 20 23  4  0  0  0  0
 23 24  4  0  0  0  0
 24 25  4  0  0  0  0
 19 26  4  0  0  0  0
 25 26  4  0  0  0  0
 26 27  1  0  0  0  0
 27 28  1  0  0  0  0
 18 29  4  0  0  0  0
 29 30  1  0  0  0  0
 30 31  2  0  0  0  0
  1 32  4  0  0  0  0
 31 32  1  0  0  0  0
 29 33  4  0  0  0  0
 32 33  4  0  0  0  0
 14 34  4  0  0  0  0
 17 34  4  0  0  0  0
  7 35  1  0  0  0  0
 35 36  4  0  0  0  0
 36 37  1  0  0  0  0
 37 38  1  0  0  0  0
 36 39  4  0  0  0  0
 39 40  4  0  0  0  0
 40 41  4  0  0  0  0
 35 42  4  0  0  0  0
 41 42  4  0  0  0  0
 42 43  1  0  0  0  0
 43 44  1  0  0  0  0
  1 45  1  0  0  0  0
  3 46  1  0  0  0  0
  4 47  1  0  0  0  0
  6 48  1  0  0  0  0
  9 49  1  0  0  0  0
 10 50  1  0  0  0  0
 15 51  1  0  0  0  0
 16 52  1  0  0  0  0
 22 53  1  0  0  0  0
 22 54  1  0  0  0  0
 22 55  1  0  0  0  0
 23 56  1  0  0  0  0
 24 57  1  0  0  0  0
 25 58  1  0  0  0  0
 28 59  1  0  0  0  0
 28 60  1  0  0  0  0
 28 61  1  0  0  0  0
 30 62  1  0  0  0  0
 31 63  1  0  0  0  0
 34 64  1  0  0  0  0
 38 65  1  0  0  0  0
 38 66  1  0  0  0  0
 38 67  1  0  0  0  0
 39 68  1  0  0  0  0
 40 69  1  0  0  0  0
 41 70  1  0  0  0  0
 44 71  1  0  0  0  0
 44 72  1  0  0  0  0
 44 73  1  0  0  0  0
 74 75  4  0  0  0  0
 75 76  4  0  0  0  0
 76 77  2  0  0  0  0
 77 78  4  0  0  0  0
 75 79  4  0  0  0  0
 78 79  4  0  0  0  0
 78 80  4  0  0  0  0
 80 81  4  0  0  0  0
 81 82  1  0  0  0  0
 82 83  2  0  0  0  0
 81 84  4  0  0  0  0
 83 85  1  0  0  0  0
 84 85  4  0  0  0  0
 85 86  4  0  0  0  0
 86 87  4  0  0  0  0
 87 88  4  0  0  0  0
 88 89  2  0  0  0  0
 89 90  4  0  0  0  0
 90 91  4  0  0  0  0
 91 92  1  0  0  0  0
 92 93  4  0  0  0  0
 93 94  1  0  0  0  0
 94 95  1  0  0  0  0
 93 96  4  0  0  0  0
 96 97  4  0  0  0  0
 97 98  4  0  0  0  0
 92 99  4  0  0  0  0
 98 99  4  0  0  0  0
 99100  1  0  0  0  0
100101  1  0  0  0  0
 91102  4  0  0  0  0
102103  1  0  0  0  0
103104  2  0  0  0  0
 74105  4  0  0  0  0
104105  1  0  0  0  0
102106  4  0  0  0  0
105106  4  0  0  0  0
 87107  4  0  0  0  0
 90107  4  0  0  0  0
 80108  1  0  0  0  0
108109  4  0  0  0  0
109110  1  0  0  0  0
110111  1  0  0  0  0
109112  4  0  0  0  0
112113  4  0  0  0  0
113114  4  0  0  0  0
108115  4  0  0  0  0
114115  4  0  0  0  0
115116  1  0  0  0  0
116117  1  0  0  0  0
 74118  1  0  0  0  0
 76119  1  0  0  0  0
 77120  1  0  0  0  0
 79121  1  0  0  0  0
 82122  1  0  0  0  0
 83123  1  0  0  0  0
 88124  1  0  0  0  0
 89125  1  0  0  0  0
 95126  1  0  0  0  0
 95127  1  0  0  0  0
 95128  1  0  0  0  0
 96129  1  0  0  0  0
 97130  1  0  0  0  0
 98131  1  0  0  0  0
101132  1  0  0  0  0
101133  1  0  0  0  0
101134  1  0  0  0  0
103135  1  0  0  0  0
104136  1  0  0  0  0
107137  1  0  0  0  0
111138  1  0  0  0  0
111139  1  0  0  0  0
111140  1  0  0  0  0
112141  1  0  0  0  0
113142  1  0  0  0  0
114143  1  0  0  0  0
117144  1  0  0  0  0
117145  1  0  0  0  0
117146  1  0  0  0  0
 13148  4  0  0  0  0
147148  3  0  0  0  0
147149  4  0  0  0  0
149150  3  0  0  0  0
151152  3  0  0  0  0
151153  4  0  0  0  0
153154  3  0  0  0  0
155156  3  0  0  0  0
155157  4  0  0  0  0
157158  3  0  0  0  0
159160  3  0  0  0  0
159161  4  0  0  0  0
 86162  4  0  0  0  0
161162  3  0  0  0  0
150163  4  0  0  0  0
163164  4  0  0  0  0
164165  4  0  0  0  0
165166  2  0  0  0  0
166167  4  0  0  0  0
164168  4  0  0  0  0
167168  4  0  0  0  0
167169  4  0  0  0  0
169170  4  0  0  0  0
170171  1  0  0  0  0
171172  2  0  0  0  0
170173  4  0  0  0  0
172174  1  0  0  0  0
173174  4  0  0  0  0
152175  4  0  0  0  0
174175  4  0  0  0  0
175176  4  0  0  0  0
176177  4  0  0  0  0
177178  2  0  0  0  0
178179  4  0  0  0  0
179180  4  0  0  0  0
180181  1  0  0  0  0
181182  4  0  0  0  0
182183  1  0  0  0  0
183184  1  0  0  0  0
182185  4  0  0  0  0
185186  4  0  0  0  0
186187  4  0  0  0  0
181188  4  0  0  0  0
187188  4  0  0  0  0
188189  1  0  0  0  0
189190  1  0  0  0  0
180191  4  0  0  0  0
191192  1  0  0  0  0
192193  2  0  0  0  0
163194  4  0  0  0  0
193194  1  0  0  0  0
191195  4  0  0  0  0
194195  4  0  0  0  0
176196  4  0  0  0  0
179196  4  0  0  0  0
169197  1  0  0  0  0
197198  4  0  0  0  0
198199  1  0  0  0  0
199200  1  0  0  0  0
198201  4  0  0  0  0
201202  4  0  0  0  0
202203  4  0  0  0  0
197204  4  0  0  0  0
203204  4  0  0  0  0
204205  1  0  0  0  0
205206  1  0  0  0  0
165207  1  0  0  0  0
166208  1  0  0  0  0
168209  1  0  0  0  0
171210  1  0  0  0  0
172211  1  0  0  0  0
177212  1  0  0  0  0
178213  1  0  0  0  0
184214  1  0  0  0  0
184215  1  0  0  0  0
184216  1  0  0  0  0
185217  1  0  0  0  0
186218  1  0  0  0  0
187219  1  0  0  0  0
190220  1  0  0  0  0
190221  1  0  0  0  0
190222  1  0  0  0  0
192223  1  0  0  0  0
193224  1  0  0  0  0
196225  1  0  0  0  0
200226  1  0  0  0  0
200227  1  0  0  0  0
200228  1  0  0  0  0
201229  1  0  0  0  0
202230  1  0  0  0  0
203231  1  0  0  0  0
206232  1  0  0  0  0
206233  1  0  0  0  0
206234  1  0  0  0  0
154235  4  0  0  0  0
235236  4  0  0  0  0
236237  4  0  0  0  0
237238  2  0  0  0  0
238239  4  0  0  0  0
236240  4  0  0  0  0
239240  4  0  0  0  0
239241  4  0  0  0  0
241242  4  0  0  0  0
242243  1  0  0  0  0
243244  2  0  0  0  0
242245  4  0  0  0  0
244246  1  0  0  0  0
245246  4  0  0  0  0
156247  4  0  0  0  0
246247  4  0  0  0  0
247248  4  0  0  0  0
248249  4  0  0  0  0
249250  2  0  0  0  0
250251  4  0  0  0  0
251252  4  0  0  0  0
252253  1  0  0  0  0
253254  4  0  0  0  0
254255  1  0  0  0  0
255256  1  0  0  0  0
254257  4  0  0  0  0
257258  4  0  0  0  0
258259  4  0  0  0  0
253260  4  0  0  0  0
259260  4  0  0  0  0
260261  1  0  0  0  0
261262  1  0  0  0  0
252263  4  0  0  0  0
263264  1  0  0  0  0
264265  2  0  0  0  0
235266  4  0  0  0  0
265266  1  0  0  0  0
263267  4  0  0  0  0
266267  4  0  0  0  0
248268  4  0  0  0  0
251268  4  0  0  0  0
241269  1  0  0  0  0
269270  4  0  0  0  0
270271  1  0  0  0  0
271272  1  0  0  0  0
270273  4  0  0  0  0
273274  4  0  0  0  0
274275  4  0  0  0  0
269276  4  0  0  0  0
275276  4  0  0  0  0
276277  1  0  0  0  0
277278  1  0  0  0  0
237279  1  0  0  0  0
238280  1  0  0  0  0
240281  1  0  0  0  0
243282  1  0  0  0  0
244283  1  0  0  0  0
249284  1  0  0  0  0
250285  1  0  0  0  0
256286  1  0  0  0  0
256287  1  0  0  0  0
256288  1  0  0  0  0
257289  1  0  0  0  0
258290  1  0  0  0  0
259291  1  0  0  0  0
262292  1  0  0  0  0
262293  1  0  0  0  0
262294  1  0  0  0  0
264295  1  0  0  0  0
265296  1  0  0  0  0
268297  1  0  0  0  0
272298  1  0  0  0  0
272299  1  0  0  0  0
272300  1  0  0  0  0
273301  1  0  0  0  0
274302  1  0  0  0  0
275303  1  0  0  0  0
278304  1  0  0  0  0
278305  1  0  0  0  0
278306  1  0  0  0  0
158307  4  0  0  0  0
307308  4  0  0  0  0
308309  4  0  0  0  0
309310  2  0  0  0  0
310311  4  0  0  0  0
308312  4  0  0  0  0
311312  4  0  0  0  0
311313  4  0  0  0  0
313314  4  0  0  0  0
314315  1  0  0  0  0
315316  2  0  0  0  0
314317  4  0  0  0  0
316318  1  0  0  0  0
317318  4  0  0  0  0
160319  4  0  0  0  0
318319  4  0  0  0  0
319320  4  0  0  0  0
320321  4  0  0  0  0
321322  2  0  0  0  0
322323  4  0  0  0  0
323324  4  0  0  0  0
324325  1  0  0  0  0
325326  4  0  0  0  0
326327  1  0  0  0  0
327328  1  0  0  0  0
326329  4  0  0  0  0
329330  4  0  0  0  0
330331  4  0  0  0  0
325332  4  0  0  0  0
331332  4  0  0  0  0
332333  1  0  0  0  0
333334  1  0  0  0  0
324335  4  0  0  0  0
335336  1  0  0  0  0
336337  2  0  0  0  0
307338  4  0  0  0  0
337338  1  0  0  0  0
335339  4  0  0  0  0
338339  4  0  0  0  0
320340  4  0  0  0  0
323340  4  0  0  0  0
313341  1  0  0  0  0
341342  4  0  0  0  0
342343  1  0  0  0  0
343344  1  0  0  0  0
342345  4  0  0  0  0
345346  4  0  0  0  0
346347  4  0  0  0  0
341348  4  0  0  0  0
347348  4  0  0  0  0
348349  1  0  0  0  0
349350  1  0  0  0  0
309351  1  0  0  0  0
310352  1  0  0  0  0
312353  1  0  0  0  0
315354  1  0  0  0  0
316355  1  0  0  0  0
321356  1  0  0  0  0
322357  1  0  0  0  0
328358  1  0  0  0  0
328359  1  0  0  0  0
328360  1  0  0  0  0
329361  1  0  0  0  0
330362  1  0  0  0  0
331363  1  0  0  0  0
334364  1  0  0  0  0
334365  1  0  0  0  0
334366  1  0  0  0  0
336367  1  0  0  0  0
337368  1  0  0  0  0
340369  1  0  0  0  0
344370  1  0  0  0  0
344371  1  0  0  0  0
344372  1  0  0  0  0
345373  1  0  0  0  0
346374  1  0  0  0  0
347375  1  0  0  0  0
350376  1  0  0  0  0
350377  1  0  0  0  0
350378  1  0  0  0  0
M  END
