264

C 49.300820 0.062081 0.109075
C 50.030084 -1.304431 -0.071980
C 49.426924 -2.541290 -0.098774
C 50.449101 -3.496462 -0.336212
C 51.641729 -2.808715 -0.453627
N 51.380591 -1.478801 -0.237566
C 53.061063 -3.424396 -0.799643
C 53.092766 -4.812950 -1.311371
C 52.887977 -5.064499 -2.674727
C 52.879317 -6.374152 -3.155501
C 53.074912 -7.429789 -2.260686
S 52.969956 -9.102312 -2.825753
O 52.382760 -9.105765 -4.150576
O 51.838335 -9.753535 -1.871707
O 54.226098 -9.762448 -2.546348
C 53.290738 -7.193852 -0.899308
C 53.301631 -5.881436 -0.428533
C 54.192372 -2.682017 -0.668059
C 55.493909 -3.198095 -1.039372
C 56.397261 -2.247927 -0.828071
N 54.391138 -1.402540 -0.222556
C 55.721771 -1.082026 -0.293668
C 56.390375 0.054593 0.036742
C 55.613420 1.290342 0.657561
C 56.148619 2.257841 1.484988
C 55.123348 3.195549 1.764012
C 53.989292 2.769699 1.105536
N 54.282324 1.580240 0.481572
C 52.583076 3.502887 1.087057
C 52.564176 4.959755 1.338353
C 52.941753 5.848333 0.323243
C 52.977152 7.220908 0.567790
C 52.629555 7.698690 1.835530
S 52.793710 9.427037 2.174210
O 51.732893 10.130249 1.488859
O 54.196381 9.826581 1.475267
O 53.028211 9.589961 3.594608
C 52.241550 6.825996 2.855827
C 52.208618 5.454857 2.601221
C 51.455517 2.793203 0.826945
C 50.136681 3.398719 0.778215
C 49.248783 2.443931 0.516440
C 49.966579 1.200353 0.379344
N 51.287624 1.462954 0.563795
H 48.223616 0.083062 -0.005051
H 48.371758 -2.731746 0.023686
H 50.323544 -4.563983 -0.433330
H 52.078943 -0.739990 -0.202285
H 52.730949 -4.223938 -3.348515
H 52.710361 -6.551518 -4.213785
H 50.963145 -9.524822 -2.246443
H 53.446718 -8.015176 -0.205357
H 53.466749 -5.670237 0.626670
H 55.704758 -4.177080 -1.431199
H 57.449693 -2.351891 -1.019522
H 57.166819 2.292009 1.842617
H 55.204945 4.082040 2.374290
H 53.601501 0.982996 0.019234
H 53.213965 5.451293 -0.653316
H 53.278562 7.897935 -0.226811
H 54.922032 9.507780 2.050588
H 51.977943 7.192027 3.844195
H 51.916534 4.752310 3.380218
H 49.909784 4.439232 0.924681
H 48.186214 2.570945 0.415486
C 89.712070 0.009779 0.094011
C 88.982806 1.263254 0.667541
C 89.585966 2.324886 1.302738
C 88.563789 3.260025 1.609730
C 87.371161 2.740090 1.144490
N 87.632299 1.498987 0.620070
C 85.951826 3.445499 1.178962
C 85.920124 4.893524 1.484200
C 86.124913 5.831707 0.463500
C 86.133572 7.196454 0.752983
C 85.937978 7.614422 2.072212
S 86.042933 9.331285 2.483325
O 86.630130 10.038884 1.363293
O 87.174554 9.375288 3.637604
O 84.786791 9.741678 3.071054
C 85.722152 6.690511 3.099541
C 85.711259 5.328743 2.800121
C 84.820517 2.746857 0.895516
C 83.518981 3.381377 0.855588
C 82.615629 2.464378 0.529124
N 84.621751 1.426424 0.592217
C 83.291119 1.192835 0.361517
C 82.622515 0.054593 0.036742
C 83.399469 -1.322062 -0.094840
C 82.864271 -2.581455 0.091217
C 83.889542 -3.523926 -0.171270
C 85.023597 -2.813069 -0.502363
N 84.730565 -1.473941 -0.398065
C 86.429814 -3.424108 -0.907994
C 86.448714 -4.791458 -1.470104
C 86.071136 -5.003975 -2.802341
C 86.035737 -6.296355 -3.325330
C 86.383335 -7.375256 -2.505932
S 86.219180 -9.018976 -3.138444
O 87.279997 -9.249922 -4.092843
O 84.816509 -8.985544 -3.942831
O 85.984679 -9.912453 -2.022301
C 86.771340 -7.178950 -1.177751
C 86.804272 -5.882434 -0.664043
C 87.557373 -2.684790 -0.750777
C 88.876208 -3.171625 -1.114116
C 89.764107 -2.223866 -0.827937
C 89.046311 -1.097874 -0.282571
N 87.725266 -1.418356 -0.266054
H 90.789274 0.052716 -0.013791
H 90.641131 2.421029 1.507742
H 88.689346 4.215666 2.095306
H 86.933946 0.854590 0.256972
H 86.281941 5.478303 -0.554163
H 86.302528 7.909551 -0.048839
H 88.049745 9.380935 3.198623
H 85.566172 7.016901 4.124046
H 85.546141 4.588636 3.581338
H 83.308132 4.418802 1.044509
H 81.563197 2.654247 0.422301
H 81.846071 -2.800612 0.375887
H 83.807945 -4.599220 -0.126008
H 85.411389 -0.722272 -0.471902
H 85.798925 -4.148326 -3.418112
H 85.734328 -6.447018 -4.358315
H 84.090858 -9.021595 -3.286076
H 87.034947 -8.014620 -0.535486
H 87.096356 -5.701862 0.369302
H 89.103106 -4.130644 -1.543538
H 90.826675 -2.277724 -0.980984
C 58.288183 0.054593 0.036742
C 59.510100 0.054593 0.036742
C 68.895486 0.054593 0.036742
C 70.117404 0.054593 0.036742
C 79.502789 0.054593 0.036742
C 80.724707 0.054593 0.036742
C 60.711242 -0.058005 -0.039038
C 61.508421 0.410630 -1.324243
C 61.011904 0.527875 -2.606306
C 62.051596 1.054254 -3.415728
C 63.150780 1.236135 -2.602985
N 62.833574 0.768941 -1.352660
C 64.536591 1.872191 -3.021602
C 64.522940 2.892781 -4.092157
C 64.846290 2.542215 -5.410077
C 64.798369 3.499326 -6.422974
C 64.432427 4.811792 -6.106935
S 64.297941 5.993261 -7.416776
O 63.686412 7.198122 -6.893417
O 63.178912 5.348944 -8.389217
O 65.550371 6.026325 -8.136458
C 64.124308 5.180749 -4.794665
C 64.167006 4.214329 -3.789597
C 65.674332 1.525324 -2.366675
C 66.959697 2.110692 -2.685659
C 67.871170 1.585376 -1.873864
N 65.886323 0.647276 -1.341081
C 67.211199 0.640324 -0.995880
C 67.876640 -0.058005 -0.039038
C 67.082199 -1.060914 0.895483
C 67.588901 -2.179643 1.523946
C 66.550341 -2.719988 2.326406
C 65.439650 -1.920514 2.153287
N 65.752386 -0.960190 1.224338
C 64.049971 -2.067812 2.895418
C 64.056567 -2.682619 4.241478
C 63.652301 -4.013887 4.413590
C 63.638047 -4.585291 5.685337
C 64.038464 -3.817843 6.783782
S 63.909555 -4.516273 8.403576
O 64.912675 -5.548799 8.536096
O 62.455698 -5.225171 8.401846
O 63.792005 -3.434565 9.359787
C 64.457946 -2.494062 6.626959
C 64.468301 -1.930836 5.350606
C 62.911878 -1.591505 2.325173
C 61.624252 -1.658166 2.985955
C 60.714082 -1.109644 2.188017
C 61.375729 -0.665492 0.978552
N 62.700992 -0.977639 1.122420
H 60.009230 0.281781 -2.921220
H 61.997422 1.290088 -4.467294
H 63.489304 0.659786 -0.584595
H 65.131668 1.514997 -5.629616
H 65.043720 3.215555 -7.442905
H 62.298744 5.551878 -8.010956
H 63.843242 6.199117 -4.540531
H 63.922373 4.472766 -2.760246
H 67.154825 2.847484 -3.444308
H 68.917146 1.834389 -1.882290
H 68.598191 -2.552893 1.438193
H 66.614711 -3.582386 2.972733
H 65.093728 -0.303899 0.815212
H 63.338212 -4.588112 3.543618
H 63.312708 -5.614816 5.806433
H 61.779667 -4.527272 8.534809
H 64.764123 -1.891693 7.477964
H 64.783348 -0.898901 5.202990
H 61.427140 -2.070612 3.958414
H 59.668514 -1.015695 2.418641
C 71.318546 -0.058005 -0.039038
C 72.115724 0.410630 -1.324243
C 71.619208 0.527875 -2.606306
C 72.658899 1.054254 -3.415728
C 73.758084 1.236135 -2.602985
N 73.440877 0.768941 -1.352660
C 75.143894 1.872191 -3.021602
C 75.130243 2.892781 -4.092157
C 75.453594 2.542215 -5.410077
C 75.405673 3.499326 -6.422974
C 75.039731 4.811792 -6.106935
S 74.905245 5.993261 -7.416776
O 74.293715 7.198122 -6.893417
O 73.786215 5.348944 -8.389217
O 76.157674 6.026325 -8.136458
C 74.731611 5.180749 -4.794665
C 74.774310 4.214329 -3.789597
C 76.281636 1.525324 -2.366675
C 77.567000 2.110692 -2.685659
C 78.478474 1.585376 -1.873864
N 76.493626 0.647276 -1.341081
C 77.818503 0.640324 -0.995880
C 78.483943 -0.058005 -0.039038
C 77.689502 -1.060914 0.895483
C 78.196204 -2.179643 1.523946
C 77.157644 -2.719988 2.326406
C 76.046953 -1.920514 2.153287
N 76.359689 -0.960190 1.224338
C 74.657274 -2.067812 2.895418
C 74.663870 -2.682619 4.241478
C 74.259604 -4.013887 4.413590
C 74.245350 -4.585291 5.685337
C 74.645768 -3.817843 6.783782
S 74.516859 -4.516273 8.403576
O 75.519978 -5.548799 8.536096
O 73.063001 -5.225171 8.401846
O 74.399308 -3.434565 9.359787
C 75.065250 -2.494062 6.626959
C 75.075604 -1.930836 5.350606
C 73.519182 -1.591505 2.325173
C 72.231555 -1.658166 2.985955
C 71.321385 -1.109644 2.188017
C 71.983032 -0.665492 0.978552
N 73.308295 -0.977639 1.122420
H 70.616534 0.281781 -2.921220
H 72.604725 1.290088 -4.467294
H 74.096607 0.659786 -0.584595
H 75.738972 1.514997 -5.629616
H 75.651023 3.215555 -7.442905
H 72.906047 5.551878 -8.010956
H 74.450546 6.199117 -4.540531
H 74.529676 4.472766 -2.760246
H 77.762128 2.847484 -3.444308
H 79.524449 1.834389 -1.882290
H 79.205494 -2.552893 1.438193
H 77.222015 -3.582386 2.972733
H 75.701031 -0.303899 0.815212
H 73.945516 -4.588112 3.543618
H 73.920011 -5.614816 5.806433
H 72.386971 -4.527272 8.534809
H 75.371427 -1.891693 7.477964
H 75.390651 -0.898901 5.202990
H 72.034443 -2.070612 3.958414
H 70.275817 -1.015695 2.418641
