 xtb: 6.5.1 (b24c23e)
          07312216453D

264291  0     0  0            999 V2000
   49.8070    0.0072   -0.0236 C   0  0  0  0  0  0  0  0  0  0  0  0
   50.4176   -1.2400   -0.0120 C   0  0  0  0  0  0  0  0  0  0  0  0
   49.7671   -2.5060    0.0128 C   0  0  0  0  0  0  0  0  0  0  0  0
   50.7303   -3.4745    0.0144 C   0  0  0  0  0  0  0  0  0  0  0  0
   52.0010   -2.8310   -0.0183 C   0  0  0  0  0  0  0  0  0  0  0  0
   51.7614   -1.4867   -0.0257 N   0  0  0  0  0  0  0  0  0  0  0  0
   53.2656   -3.4296   -0.0116 C   0  0  0  0  0  0  0  0  0  0  0  0
   53.2999   -4.9122   -0.0188 C   0  0  0  0  0  0  0  0  0  0  0  0
   52.7498   -5.6246   -1.0874 C   0  0  0  0  0  0  0  0  0  0  0  0
   52.7856   -7.0093   -1.1024 C   0  0  0  0  0  0  0  0  0  0  0  0
   53.3704   -7.6709   -0.0350 C   0  0  0  0  0  0  0  0  0  0  0  0
   53.4265   -9.4231   -0.0515 S   0  0  0  0  0  0  0  0  0  0  0  0
   53.3458   -9.9209   -1.3928 O   0  0  0  0  0  0  0  0  0  0  0  0
   52.0078   -9.7097    0.6858 O   0  0  0  0  0  0  0  0  0  0  0  0
   54.4746   -9.9088    0.7970 O   0  0  0  0  0  0  0  0  0  0  0  0
   53.9240   -6.9926    1.0388 C   0  0  0  0  0  0  0  0  0  0  0  0
   53.8872   -5.6081    1.0410 C   0  0  0  0  0  0  0  0  0  0  0  0
   54.4822   -2.7421   -0.0039 C   0  0  0  0  0  0  0  0  0  0  0  0
   55.7808   -3.3904   -0.0558 C   0  0  0  0  0  0  0  0  0  0  0  0
   56.7003   -2.4038   -0.0482 C   0  0  0  0  0  0  0  0  0  0  0  0
   54.6348   -1.3904    0.0177 N   0  0  0  0  0  0  0  0  0  0  0  0
   55.9632   -1.1553   -0.0014 C   0  0  0  0  0  0  0  0  0  0  0  0
   56.5963    0.1022   -0.0007 C   0  0  0  0  0  0  0  0  0  0  0  0
   55.9614    1.3570   -0.0048 C   0  0  0  0  0  0  0  0  0  0  0  0
   56.6045    2.6225    0.0435 C   0  0  0  0  0  0  0  0  0  0  0  0
   55.6369    3.5885    0.0508 C   0  0  0  0  0  0  0  0  0  0  0  0
   54.3712    2.9410   -0.0029 C   0  0  0  0  0  0  0  0  0  0  0  0
   54.6190    1.5947   -0.0304 N   0  0  0  0  0  0  0  0  0  0  0  0
   53.1067    3.5403    0.0085 C   0  0  0  0  0  0  0  0  0  0  0  0
   53.0714    5.0217    0.0432 C   0  0  0  0  0  0  0  0  0  0  0  0
   53.6402    5.7691   -0.9914 C   0  0  0  0  0  0  0  0  0  0  0  0
   53.6096    7.1535   -0.9582 C   0  0  0  0  0  0  0  0  0  0  0  0
   53.0109    7.7801    0.1228 C   0  0  0  0  0  0  0  0  0  0  0  0
   52.9696    9.5322    0.1696 S   0  0  0  0  0  0  0  0  0  0  0  0
   53.0656   10.0728   -1.1536 O   0  0  0  0  0  0  0  0  0  0  0  0
   54.3822    9.7812    0.9319 O   0  0  0  0  0  0  0  0  0  0  0  0
   51.9208   10.0000    1.0276 O   0  0  0  0  0  0  0  0  0  0  0  0
   52.4354    7.0669    1.1618 C   0  0  0  0  0  0  0  0  0  0  0  0
   52.4667    5.6830    1.1156 C   0  0  0  0  0  0  0  0  0  0  0  0
   51.8902    2.8498   -0.0040 C   0  0  0  0  0  0  0  0  0  0  0  0
   50.5849    3.4913   -0.0563 C   0  0  0  0  0  0  0  0  0  0  0  0
   49.6726    2.4993   -0.0669 C   0  0  0  0  0  0  0  0  0  0  0  0
   50.4189    1.2535   -0.0295 C   0  0  0  0  0  0  0  0  0  0  0  0
   51.7512    1.5033   -0.0006 N   0  0  0  0  0  0  0  0  0  0  0  0
   48.7218   -0.0030   -0.0287 H   0  0  0  0  0  0  0  0  0  0  0  0
   48.6978   -2.6434    0.0328 H   0  0  0  0  0  0  0  0  0  0  0  0
   50.5804   -4.5415    0.0449 H   0  0  0  0  0  0  0  0  0  0  0  0
   52.4859   -0.7766   -0.0341 H   0  0  0  0  0  0  0  0  0  0  0  0
   52.3098   -5.0877   -1.9197 H   0  0  0  0  0  0  0  0  0  0  0  0
   52.3738   -7.5710   -1.9315 H   0  0  0  0  0  0  0  0  0  0  0  0
   51.8875  -10.6574    0.8219 H   0  0  0  0  0  0  0  0  0  0  0  0
   54.3780   -7.5418    1.8540 H   0  0  0  0  0  0  0  0  0  0  0  0
   54.3054   -5.0582    1.8760 H   0  0  0  0  0  0  0  0  0  0  0  0
   55.9454   -4.4544   -0.1080 H   0  0  0  0  0  0  0  0  0  0  0  0
   57.7745   -2.4876   -0.0843 H   0  0  0  0  0  0  0  0  0  0  0  0
   57.6723    2.7664    0.0805 H   0  0  0  0  0  0  0  0  0  0  0  0
   55.7845    4.6549    0.1015 H   0  0  0  0  0  0  0  0  0  0  0  0
   53.8969    0.8821   -0.0492 H   0  0  0  0  0  0  0  0  0  0  0  0
   54.0915    5.2601   -1.8350 H   0  0  0  0  0  0  0  0  0  0  0  0
   54.0374    7.7423   -1.7599 H   0  0  0  0  0  0  0  0  0  0  0  0
   54.4598   10.7063    1.1953 H   0  0  0  0  0  0  0  0  0  0  0  0
   51.9698    7.5888    1.9884 H   0  0  0  0  0  0  0  0  0  0  0  0
   52.0328    5.1063    1.9241 H   0  0  0  0  0  0  0  0  0  0  0  0
   50.4155    4.5552   -0.0956 H   0  0  0  0  0  0  0  0  0  0  0  0
   48.5971    2.5712   -0.1038 H   0  0  0  0  0  0  0  0  0  0  0  0
   89.2357    0.0357    0.0122 C   0  0  0  0  0  0  0  0  0  0  0  0
   88.6449    1.2847    0.1503 C   0  0  0  0  0  0  0  0  0  0  0  0
   89.3142    2.5292    0.3229 C   0  0  0  0  0  0  0  0  0  0  0  0
   88.3663    3.5088    0.4102 C   0  0  0  0  0  0  0  0  0  0  0  0
   87.0867    2.8958    0.2787 C   0  0  0  0  0  0  0  0  0  0  0  0
   87.3057    1.5554    0.1369 N   0  0  0  0  0  0  0  0  0  0  0  0
   85.8314    3.5132    0.2987 C   0  0  0  0  0  0  0  0  0  0  0  0
   85.8147    4.9871    0.4576 C   0  0  0  0  0  0  0  0  0  0  0  0
   86.4335    5.8123   -0.4846 C   0  0  0  0  0  0  0  0  0  0  0  0
   86.4217    7.1890   -0.3295 C   0  0  0  0  0  0  0  0  0  0  0  0
   85.7906    7.7281    0.7796 C   0  0  0  0  0  0  0  0  0  0  0  0
   85.7709    9.4694    0.9831 S   0  0  0  0  0  0  0  0  0  0  0  0
   85.9714   10.1274   -0.2735 O   0  0  0  0  0  0  0  0  0  0  0  0
   87.1277    9.6186    1.8645 O   0  0  0  0  0  0  0  0  0  0  0  0
   84.6680    9.8779    1.8028 O   0  0  0  0  0  0  0  0  0  0  0  0
   85.1645    6.9364    1.7288 C   0  0  0  0  0  0  0  0  0  0  0  0
   85.1780    5.5619    1.5611 C   0  0  0  0  0  0  0  0  0  0  0  0
   84.6067    2.8482    0.1892 C   0  0  0  0  0  0  0  0  0  0  0  0
   83.3217    3.5222    0.1223 C   0  0  0  0  0  0  0  0  0  0  0  0
   82.3874    2.5538    0.0300 C   0  0  0  0  0  0  0  0  0  0  0  0
   84.4333    1.5017    0.1160 N   0  0  0  0  0  0  0  0  0  0  0  0
   83.1021    1.2914    0.0371 C   0  0  0  0  0  0  0  0  0  0  0  0
   82.4496    0.0453    0.0188 C   0  0  0  0  0  0  0  0  0  0  0  0
   83.0643   -1.2187    0.0082 C   0  0  0  0  0  0  0  0  0  0  0  0
   82.4030   -2.4760    0.0119 C   0  0  0  0  0  0  0  0  0  0  0  0
   83.3552   -3.4545   -0.0588 C   0  0  0  0  0  0  0  0  0  0  0  0
   84.6289   -2.8229   -0.1177 C   0  0  0  0  0  0  0  0  0  0  0  0
   84.4021   -1.4742   -0.0582 N   0  0  0  0  0  0  0  0  0  0  0  0
   85.8823   -3.4391   -0.2046 C   0  0  0  0  0  0  0  0  0  0  0  0
   85.8924   -4.9170   -0.3148 C   0  0  0  0  0  0  0  0  0  0  0  0
   85.2642   -5.5459   -1.3932 C   0  0  0  0  0  0  0  0  0  0  0  0
   85.2765   -6.9261   -1.5078 C   0  0  0  0  0  0  0  0  0  0  0  0
   85.9170   -7.6690   -0.5293 C   0  0  0  0  0  0  0  0  0  0  0  0
   85.9401   -9.4163   -0.6729 S   0  0  0  0  0  0  0  0  0  0  0  0
   85.7678   -9.8077   -2.0399 O   0  0  0  0  0  0  0  0  0  0  0  0
   84.5699   -9.7418    0.1362 O   0  0  0  0  0  0  0  0  0  0  0  0
   87.0279   -9.9808    0.0714 O   0  0  0  0  0  0  0  0  0  0  0  0
   86.5488   -7.0750    0.5512 C   0  0  0  0  0  0  0  0  0  0  0  0
   86.5352   -5.6937    0.6529 C   0  0  0  0  0  0  0  0  0  0  0  0
   87.1088   -2.7662   -0.2032 C   0  0  0  0  0  0  0  0  0  0  0  0
   88.4021   -3.4166   -0.3530 C   0  0  0  0  0  0  0  0  0  0  0  0
   89.3295   -2.4408   -0.2896 C   0  0  0  0  0  0  0  0  0  0  0  0
   88.6040   -1.1944   -0.1138 C   0  0  0  0  0  0  0  0  0  0  0  0
   87.2690   -1.4277   -0.0786 N   0  0  0  0  0  0  0  0  0  0  0  0
   90.3209    0.0291    0.0064 H   0  0  0  0  0  0  0  0  0  0  0  0
   90.3847    2.6448    0.3794 H   0  0  0  0  0  0  0  0  0  0  0  0
   88.5327    4.5633    0.5594 H   0  0  0  0  0  0  0  0  0  0  0  0
   86.5707    0.8630    0.0390 H   0  0  0  0  0  0  0  0  0  0  0  0
   86.9094    5.3721   -1.3531 H   0  0  0  0  0  0  0  0  0  0  0  0
   86.8888    7.8384   -1.0592 H   0  0  0  0  0  0  0  0  0  0  0  0
   87.2156   10.5230    2.1892 H   0  0  0  0  0  0  0  0  0  0  0  0
   84.6745    7.3917    2.5802 H   0  0  0  0  0  0  0  0  0  0  0  0
   84.7041    4.9235    2.2975 H   0  0  0  0  0  0  0  0  0  0  0  0
   83.1772    4.5903    0.1283 H   0  0  0  0  0  0  0  0  0  0  0  0
   81.3165    2.6581   -0.0393 H   0  0  0  0  0  0  0  0  0  0  0  0
   81.3340   -2.6059    0.0639 H   0  0  0  0  0  0  0  0  0  0  0  0
   83.1931   -4.5199   -0.0615 H   0  0  0  0  0  0  0  0  0  0  0  0
   85.1339   -0.7713   -0.0680 H   0  0  0  0  0  0  0  0  0  0  0  0
   84.7814   -4.9462   -2.1560 H   0  0  0  0  0  0  0  0  0  0  0  0
   84.8038   -7.4224   -2.3460 H   0  0  0  0  0  0  0  0  0  0  0  0
   84.5322  -10.6788    0.3639 H   0  0  0  0  0  0  0  0  0  0  0  0
   87.0448   -7.6859    1.2950 H   0  0  0  0  0  0  0  0  0  0  0  0
   87.0138   -5.2101    1.4964 H   0  0  0  0  0  0  0  0  0  0  0  0
   88.5540   -4.4737   -0.4998 H   0  0  0  0  0  0  0  0  0  0  0  0
   90.4026   -2.5231   -0.3602 H   0  0  0  0  0  0  0  0  0  0  0  0
   58.0071    0.1196    0.0059 C   0  0  0  0  0  0  0  0  0  0  0  0
   59.2233    0.1291    0.0152 C   0  0  0  0  0  0  0  0  0  0  0  0
   68.9159    0.1296    0.0407 C   0  0  0  0  0  0  0  0  0  0  0  0
   70.1335    0.1212    0.0415 C   0  0  0  0  0  0  0  0  0  0  0  0
   79.8211    0.0593    0.0159 C   0  0  0  0  0  0  0  0  0  0  0  0
   81.0369    0.0502    0.0181 C   0  0  0  0  0  0  0  0  0  0  0  0
   60.6334    0.1347    0.0237 C   0  0  0  0  0  0  0  0  0  0  0  0
   61.2591    1.1638   -0.7025 C   0  0  0  0  0  0  0  0  0  0  0  0
   60.6133    2.1642   -1.4749 C   0  0  0  0  0  0  0  0  0  0  0  0
   61.5797    2.9588   -2.0280 C   0  0  0  0  0  0  0  0  0  0  0  0
   62.8451    2.4713   -1.6004 C   0  0  0  0  0  0  0  0  0  0  0  0
   62.6009    1.3820   -0.8087 N   0  0  0  0  0  0  0  0  0  0  0  0
   64.1070    2.9810   -1.9291 C   0  0  0  0  0  0  0  0  0  0  0  0
   64.1259    4.1860   -2.7944 C   0  0  0  0  0  0  0  0  0  0  0  0
   64.7343    4.1331   -4.0513 C   0  0  0  0  0  0  0  0  0  0  0  0
   64.7519    5.2486   -4.8718 C   0  0  0  0  0  0  0  0  0  0  0  0
   64.1591    6.4163   -4.4192 C   0  0  0  0  0  0  0  0  0  0  0  0
   64.1882    7.8359   -5.4476 S   0  0  0  0  0  0  0  0  0  0  0  0
   64.0580    9.0291   -4.6655 O   0  0  0  0  0  0  0  0  0  0  0  0
   62.7903    7.5837   -6.2353 O   0  0  0  0  0  0  0  0  0  0  0  0
   65.2545    7.7545   -6.4021 O   0  0  0  0  0  0  0  0  0  0  0  0
   63.5561    6.5023   -3.1750 C   0  0  0  0  0  0  0  0  0  0  0  0
   63.5390    5.3787   -2.3648 C   0  0  0  0  0  0  0  0  0  0  0  0
   65.3330    2.4534   -1.5194 C   0  0  0  0  0  0  0  0  0  0  0  0
   66.6139    3.0726   -1.8099 C   0  0  0  0  0  0  0  0  0  0  0  0
   67.5543    2.2810   -1.2544 C   0  0  0  0  0  0  0  0  0  0  0  0
   65.5160    1.3213   -0.7865 N   0  0  0  0  0  0  0  0  0  0  0  0
   66.8483    1.1821   -0.6262 C   0  0  0  0  0  0  0  0  0  0  0  0
   67.5075    0.1317    0.0428 C   0  0  0  0  0  0  0  0  0  0  0  0
   66.8779   -0.9282    0.7232 C   0  0  0  0  0  0  0  0  0  0  0  0
   67.5195   -2.0158    1.3701 C   0  0  0  0  0  0  0  0  0  0  0  0
   66.5521   -2.8076    1.9248 C   0  0  0  0  0  0  0  0  0  0  0  0
   65.2890   -2.2239    1.6334 C   0  0  0  0  0  0  0  0  0  0  0  0
   65.5359   -1.0976    0.8957 N   0  0  0  0  0  0  0  0  0  0  0  0
   64.0285   -2.7100    2.0019 C   0  0  0  0  0  0  0  0  0  0  0  0
   64.0192   -3.9216    2.8584 C   0  0  0  0  0  0  0  0  0  0  0  0
   63.4310   -5.1049    2.4048 C   0  0  0  0  0  0  0  0  0  0  0  0
   63.4269   -6.2379    3.2017 C   0  0  0  0  0  0  0  0  0  0  0  0
   64.0106   -6.1712    4.4566 C   0  0  0  0  0  0  0  0  0  0  0  0
   64.0209   -7.6061    5.4651 S   0  0  0  0  0  0  0  0  0  0  0  0
   63.9783   -8.7963    4.6670 O   0  0  0  0  0  0  0  0  0  0  0  0
   62.5627   -7.4285    6.1558 O   0  0  0  0  0  0  0  0  0  0  0  0
   65.0272   -7.4948    6.4783 O   0  0  0  0  0  0  0  0  0  0  0  0
   64.6011   -5.0127    4.9339 C   0  0  0  0  0  0  0  0  0  0  0  0
   64.6048   -3.8873    4.1263 C   0  0  0  0  0  0  0  0  0  0  0  0
   62.8009   -2.1538    1.6390 C   0  0  0  0  0  0  0  0  0  0  0  0
   61.5165   -2.6635    2.0866 C   0  0  0  0  0  0  0  0  0  0  0  0
   60.5769   -1.8739    1.5274 C   0  0  0  0  0  0  0  0  0  0  0  0
   61.2881   -0.8780    0.7495 C   0  0  0  0  0  0  0  0  0  0  0  0
   62.6210   -1.0648    0.8434 N   0  0  0  0  0  0  0  0  0  0  0  0
   59.5457    2.2517   -1.5959 H   0  0  0  0  0  0  0  0  0  0  0  0
   61.4304    3.8015   -2.6830 H   0  0  0  0  0  0  0  0  0  0  0  0
   63.3200    0.8114   -0.3768 H   0  0  0  0  0  0  0  0  0  0  0  0
   65.1837    3.2067   -4.3893 H   0  0  0  0  0  0  0  0  0  0  0  0
   65.2202    5.2186   -5.8476 H   0  0  0  0  0  0  0  0  0  0  0  0
   62.6783    8.2396   -6.9343 H   0  0  0  0  0  0  0  0  0  0  0  0
   63.1147    7.4352   -2.8474 H   0  0  0  0  0  0  0  0  0  0  0  0
   63.0839    5.4292   -1.3825 H   0  0  0  0  0  0  0  0  0  0  0  0
   66.7523    3.9969   -2.3469 H   0  0  0  0  0  0  0  0  0  0  0  0
   68.6236    2.4160   -1.2443 H   0  0  0  0  0  0  0  0  0  0  0  0
   68.5850   -2.1735    1.3950 H   0  0  0  0  0  0  0  0  0  0  0  0
   66.6984   -3.7224    2.4753 H   0  0  0  0  0  0  0  0  0  0  0  0
   64.8187   -0.4832    0.5253 H   0  0  0  0  0  0  0  0  0  0  0  0
   62.9908   -5.1391    1.4151 H   0  0  0  0  0  0  0  0  0  0  0  0
   62.9851   -7.1638    2.8554 H   0  0  0  0  0  0  0  0  0  0  0  0
   62.2787   -8.2610    6.5527 H   0  0  0  0  0  0  0  0  0  0  0  0
   65.0520   -4.9967    5.9182 H   0  0  0  0  0  0  0  0  0  0  0  0
   65.0528   -2.9678    4.4850 H   0  0  0  0  0  0  0  0  0  0  0  0
   61.3749   -3.5016    2.7494 H   0  0  0  0  0  0  0  0  0  0  0  0
   59.5050   -1.9310    1.6279 H   0  0  0  0  0  0  0  0  0  0  0  0
   71.5417    0.1167    0.0374 C   0  0  0  0  0  0  0  0  0  0  0  0
   72.1714    0.8683   -0.9729 C   0  0  0  0  0  0  0  0  0  0  0  0
   71.5326    1.5754   -2.0244 C   0  0  0  0  0  0  0  0  0  0  0  0
   72.5005    2.1949   -2.7660 C   0  0  0  0  0  0  0  0  0  0  0  0
   73.7610    1.8885   -2.1838 C   0  0  0  0  0  0  0  0  0  0  0  0
   73.5121    1.0715   -1.1138 N   0  0  0  0  0  0  0  0  0  0  0  0
   75.0207    2.3238   -2.6114 C   0  0  0  0  0  0  0  0  0  0  0  0
   75.0406    3.2520   -3.7682 C   0  0  0  0  0  0  0  0  0  0  0  0
   75.6933    2.8850   -4.9479 C   0  0  0  0  0  0  0  0  0  0  0  0
   75.7122    3.7406   -6.0370 C   0  0  0  0  0  0  0  0  0  0  0  0
   75.0762    4.9665   -5.9304 C   0  0  0  0  0  0  0  0  0  0  0  0
   75.1047    6.0596   -7.3020 S   0  0  0  0  0  0  0  0  0  0  0  0
   74.9896    7.4240   -6.8768 O   0  0  0  0  0  0  0  0  0  0  0  0
   73.6883    5.6401   -7.9764 O   0  0  0  0  0  0  0  0  0  0  0  0
   76.1644    5.7048   -8.1972 O   0  0  0  0  0  0  0  0  0  0  0  0
   74.4278    5.3621   -4.7717 C   0  0  0  0  0  0  0  0  0  0  0  0
   74.4096    4.4962   -3.6906 C   0  0  0  0  0  0  0  0  0  0  0  0
   76.2448    1.9515   -2.0510 C   0  0  0  0  0  0  0  0  0  0  0  0
   77.5262    2.4903   -2.4730 C   0  0  0  0  0  0  0  0  0  0  0  0
   78.4650    1.8669   -1.7319 C   0  0  0  0  0  0  0  0  0  0  0  0
   76.4236    1.0432   -1.0554 N   0  0  0  0  0  0  0  0  0  0  0  0
   77.7562    0.9541   -0.8562 C   0  0  0  0  0  0  0  0  0  0  0  0
   78.4094    0.0689    0.0196 C   0  0  0  0  0  0  0  0  0  0  0  0
   77.7818   -0.8203    0.9096 C   0  0  0  0  0  0  0  0  0  0  0  0
   78.4241   -1.7328    1.7867 C   0  0  0  0  0  0  0  0  0  0  0  0
   77.4579   -2.3538    2.5296 C   0  0  0  0  0  0  0  0  0  0  0  0
   76.1967   -1.8302    2.1331 C   0  0  0  0  0  0  0  0  0  0  0  0
   76.4414   -0.9230    1.1388 N   0  0  0  0  0  0  0  0  0  0  0  0
   74.9382   -2.1589    2.6523 C   0  0  0  0  0  0  0  0  0  0  0  0
   74.9220   -3.1130    3.7879 C   0  0  0  0  0  0  0  0  0  0  0  0
   74.2550   -4.3353    3.6710 C   0  0  0  0  0  0  0  0  0  0  0  0
   74.2378   -5.2306    4.7276 C   0  0  0  0  0  0  0  0  0  0  0  0
   74.8880   -4.8869    5.9019 C   0  0  0  0  0  0  0  0  0  0  0  0
   74.8768   -6.0208    7.2402 S   0  0  0  0  0  0  0  0  0  0  0  0
   74.7457   -7.3695    6.7711 O   0  0  0  0  0  0  0  0  0  0  0  0
   73.4585   -5.6003    7.9077 O   0  0  0  0  0  0  0  0  0  0  0  0
   75.9303   -5.7117    8.1595 O   0  0  0  0  0  0  0  0  0  0  0  0
   75.5579   -3.6834    6.0478 C   0  0  0  0  0  0  0  0  0  0  0  0
   75.5741   -2.7979    4.9826 C   0  0  0  0  0  0  0  0  0  0  0  0
   73.7154   -1.6607    2.1994 C   0  0  0  0  0  0  0  0  0  0  0  0
   72.4393   -1.9599    2.8244 C   0  0  0  0  0  0  0  0  0  0  0  0
   71.4998   -1.3227    2.0958 C   0  0  0  0  0  0  0  0  0  0  0  0
   72.2019   -0.6328    1.0318 C   0  0  0  0  0  0  0  0  0  0  0  0
   73.5315   -0.8358    1.1322 N   0  0  0  0  0  0  0  0  0  0  0  0
   70.4687    1.5932   -2.1947 H   0  0  0  0  0  0  0  0  0  0  0  0
   72.3562    2.8011   -3.6453 H   0  0  0  0  0  0  0  0  0  0  0  0
   74.2282    0.6709   -0.5173 H   0  0  0  0  0  0  0  0  0  0  0  0
   76.1758    1.9169   -5.0134 H   0  0  0  0  0  0  0  0  0  0  0  0
   76.2142    3.4656   -6.9560 H   0  0  0  0  0  0  0  0  0  0  0  0
   73.3845    6.3364   -8.5716 H   0  0  0  0  0  0  0  0  0  0  0  0
   73.9528    6.3337   -4.7182 H   0  0  0  0  0  0  0  0  0  0  0  0
   73.9188    4.7922   -2.7707 H   0  0  0  0  0  0  0  0  0  0  0  0
   77.6652    3.2516   -3.2232 H   0  0  0  0  0  0  0  0  0  0  0  0
   79.5352    1.9955   -1.7552 H   0  0  0  0  0  0  0  0  0  0  0  0
   79.4897   -1.8881    1.8372 H   0  0  0  0  0  0  0  0  0  0  0  0
   77.6038   -3.1124    3.2811 H   0  0  0  0  0  0  0  0  0  0  0  0
   75.7250   -0.3961    0.6506 H   0  0  0  0  0  0  0  0  0  0  0  0
   73.7622   -4.5891    2.7398 H   0  0  0  0  0  0  0  0  0  0  0  0
   73.7341   -6.1854    4.6437 H   0  0  0  0  0  0  0  0  0  0  0  0
   73.1219   -6.3193    8.4565 H   0  0  0  0  0  0  0  0  0  0  0  0
   76.0587   -3.4482    6.9786 H   0  0  0  0  0  0  0  0  0  0  0  0
   76.0823   -1.8457    5.0810 H   0  0  0  0  0  0  0  0  0  0  0  0
   72.3036   -2.5604    3.7091 H   0  0  0  0  0  0  0  0  0  0  0  0
   70.4340   -1.2935    2.2544 H   0  0  0  0  0  0  0  0  0  0  0  0
  1  2  4  0  0  0  0
  2  3  4  0  0  0  0
  3  4  2  0  0  0  0
  4  5  4  0  0  0  0
  2  6  4  0  0  0  0
  5  6  4  0  0  0  0
  5  7  4  0  0  0  0
  7  8  1  0  0  0  0
  8  9  4  0  0  0  0
  9 10  4  0  0  0  0
 10 11  4  0  0  0  0
 11 12  1  0  0  0  0
 12 13  2  0  0  0  0
 12 14  1  0  0  0  0
 12 15  2  0  0  0  0
 11 16  4  0  0  0  0
  8 17  4  0  0  0  0
 16 17  4  0  0  0  0
  7 18  4  0  0  0  0
 18 19  1  0  0  0  0
 19 20  2  0  0  0  0
 18 21  4  0  0  0  0
 20 22  1  0  0  0  0
 21 22  4  0  0  0  0
 22 23  4  0  0  0  0
 23 24  4  0  0  0  0
 24 25  4  0  0  0  0
 25 26  2  0  0  0  0
 26 27  4  0  0  0  0
 24 28  4  0  0  0  0
 27 28  4  0  0  0  0
 27 29  4  0  0  0  0
 29 30  1  0  0  0  0
 30 31  4  0  0  0  0
 31 32  4  0  0  0  0
 32 33  4  0  0  0  0
 33 34  1  0  0  0  0
 34 35  2  0  0  0  0
 34 36  1  0  0  0  0
 34 37  2  0  0  0  0
 33 38  4  0  0  0  0
 30 39  4  0  0  0  0
 38 39  4  0  0  0  0
 29 40  4  0  0  0  0
 40 41  1  0  0  0  0
 41 42  2  0  0  0  0
  1 43  4  0  0  0  0
 42 43  1  0  0  0  0
 40 44  4  0  0  0  0
 43 44  4  0  0  0  0
  1 45  1  0  0  0  0
  3 46  1  0  0  0  0
  4 47  1  0  0  0  0
  6 48  1  0  0  0  0
  9 49  1  0  0  0  0
 10 50  1  0  0  0  0
 14 51  1  0  0  0  0
 16 52  1  0  0  0  0
 17 53  1  0  0  0  0
 19 54  1  0  0  0  0
 20 55  1  0  0  0  0
 25 56  1  0  0  0  0
 26 57  1  0  0  0  0
 28 58  1  0  0  0  0
 31 59  1  0  0  0  0
 32 60  1  0  0  0  0
 36 61  1  0  0  0  0
 38 62  1  0  0  0  0
 39 63  1  0  0  0  0
 41 64  1  0  0  0  0
 42 65  1  0  0  0  0
 66 67  4  0  0  0  0
 67 68  4  0  0  0  0
 68 69  2  0  0  0  0
 69 70  4  0  0  0  0
 67 71  4  0  0  0  0
 70 71  4  0  0  0  0
 70 72  4  0  0  0  0
 72 73  1  0  0  0  0
 73 74  4  0  0  0  0
 74 75  4  0  0  0  0
 75 76  4  0  0  0  0
 76 77  1  0  0  0  0
 77 78  2  0  0  0  0
 77 79  1  0  0  0  0
 77 80  2  0  0  0  0
 76 81  4  0  0  0  0
 73 82  4  0  0  0  0
 81 82  4  0  0  0  0
 72 83  4  0  0  0  0
 83 84  1  0  0  0  0
 84 85  2  0  0  0  0
 83 86  4  0  0  0  0
 85 87  1  0  0  0  0
 86 87  4  0  0  0  0
 87 88  4  0  0  0  0
 88 89  4  0  0  0  0
 89 90  4  0  0  0  0
 90 91  2  0  0  0  0
 91 92  4  0  0  0  0
 89 93  4  0  0  0  0
 92 93  4  0  0  0  0
 92 94  4  0  0  0  0
 94 95  1  0  0  0  0
 95 96  4  0  0  0  0
 96 97  4  0  0  0  0
 97 98  4  0  0  0  0
 98 99  1  0  0  0  0
 99100  2  0  0  0  0
 99101  1  0  0  0  0
 99102  2  0  0  0  0
 98103  4  0  0  0  0
 95104  4  0  0  0  0
103104  4  0  0  0  0
 94105  4  0  0  0  0
105106  1  0  0  0  0
106107  2  0  0  0  0
 66108  4  0  0  0  0
107108  1  0  0  0  0
105109  4  0  0  0  0
108109  4  0  0  0  0
 66110  1  0  0  0  0
 68111  1  0  0  0  0
 69112  1  0  0  0  0
 71113  1  0  0  0  0
 74114  1  0  0  0  0
 75115  1  0  0  0  0
 79116  1  0  0  0  0
 81117  1  0  0  0  0
 82118  1  0  0  0  0
 84119  1  0  0  0  0
 85120  1  0  0  0  0
 90121  1  0  0  0  0
 91122  1  0  0  0  0
 93123  1  0  0  0  0
 96124  1  0  0  0  0
 97125  1  0  0  0  0
101126  1  0  0  0  0
103127  1  0  0  0  0
104128  1  0  0  0  0
106129  1  0  0  0  0
107130  1  0  0  0  0
 23131  4  0  0  0  0
131132  3  0  0  0  0
133134  3  0  0  0  0
 88136  1  0  0  0  0
135136  3  0  0  0  0
132137  4  0  0  0  0
137138  4  0  0  0  0
138139  4  0  0  0  0
139140  2  0  0  0  0
140141  4  0  0  0  0
138142  4  0  0  0  0
141142  4  0  0  0  0
141143  4  0  0  0  0
143144  1  0  0  0  0
144145  4  0  0  0  0
145146  4  0  0  0  0
146147  4  0  0  0  0
147148  1  0  0  0  0
148149  2  0  0  0  0
148150  1  0  0  0  0
148151  2  0  0  0  0
147152  4  0  0  0  0
144153  4  0  0  0  0
152153  4  0  0  0  0
143154  4  0  0  0  0
154155  1  0  0  0  0
155156  2  0  0  0  0
154157  4  0  0  0  0
156158  1  0  0  0  0
157158  4  0  0  0  0
133159  4  0  0  0  0
158159  4  0  0  0  0
159160  4  0  0  0  0
160161  4  0  0  0  0
161162  2  0  0  0  0
162163  4  0  0  0  0
160164  4  0  0  0  0
163164  4  0  0  0  0
163165  4  0  0  0  0
165166  1  0  0  0  0
166167  4  0  0  0  0
167168  4  0  0  0  0
168169  4  0  0  0  0
169170  1  0  0  0  0
170171  2  0  0  0  0
170172  1  0  0  0  0
170173  2  0  0  0  0
169174  4  0  0  0  0
166175  4  0  0  0  0
174175  4  0  0  0  0
165176  4  0  0  0  0
176177  1  0  0  0  0
177178  2  0  0  0  0
137179  4  0  0  0  0
178179  1  0  0  0  0
176180  4  0  0  0  0
179180  4  0  0  0  0
139181  1  0  0  0  0
140182  1  0  0  0  0
142183  1  0  0  0  0
145184  1  0  0  0  0
146185  1  0  0  0  0
150186  1  0  0  0  0
152187  1  0  0  0  0
153188  1  0  0  0  0
155189  1  0  0  0  0
156190  1  0  0  0  0
161191  1  0  0  0  0
162192  1  0  0  0  0
164193  1  0  0  0  0
167194  1  0  0  0  0
168195  1  0  0  0  0
172196  1  0  0  0  0
174197  1  0  0  0  0
175198  1  0  0  0  0
177199  1  0  0  0  0
178200  1  0  0  0  0
134201  4  0  0  0  0
201202  4  0  0  0  0
202203  4  0  0  0  0
203204  2  0  0  0  0
204205  4  0  0  0  0
202206  4  0  0  0  0
205206  4  0  0  0  0
205207  4  0  0  0  0
207208  1  0  0  0  0
208209  4  0  0  0  0
209210  4  0  0  0  0
210211  4  0  0  0  0
211212  1  0  0  0  0
212213  2  0  0  0  0
212214  1  0  0  0  0
212215  2  0  0  0  0
211216  4  0  0  0  0
208217  4  0  0  0  0
216217  4  0  0  0  0
207218  4  0  0  0  0
218219  1  0  0  0  0
219220  2  0  0  0  0
218221  4  0  0  0  0
220222  1  0  0  0  0
221222  4  0  0  0  0
135223  1  0  0  0  0
222223  4  0  0  0  0
223224  4  0  0  0  0
224225  4  0  0  0  0
225226  2  0  0  0  0
226227  4  0  0  0  0
224228  4  0  0  0  0
227228  4  0  0  0  0
227229  4  0  0  0  0
229230  1  0  0  0  0
230231  4  0  0  0  0
231232  4  0  0  0  0
232233  4  0  0  0  0
233234  1  0  0  0  0
234235  2  0  0  0  0
234236  1  0  0  0  0
234237  2  0  0  0  0
233238  4  0  0  0  0
230239  4  0  0  0  0
238239  4  0  0  0  0
229240  4  0  0  0  0
240241  1  0  0  0  0
241242  2  0  0  0  0
201243  4  0  0  0  0
242243  1  0  0  0  0
240244  4  0  0  0  0
243244  4  0  0  0  0
203245  1  0  0  0  0
204246  1  0  0  0  0
206247  1  0  0  0  0
209248  1  0  0  0  0
210249  1  0  0  0  0
214250  1  0  0  0  0
216251  1  0  0  0  0
217252  1  0  0  0  0
219253  1  0  0  0  0
220254  1  0  0  0  0
225255  1  0  0  0  0
226256  1  0  0  0  0
228257  1  0  0  0  0
231258  1  0  0  0  0
232259  1  0  0  0  0
236260  1  0  0  0  0
238261  1  0  0  0  0
239262  1  0  0  0  0
241263  1  0  0  0  0
242264  1  0  0  0  0
M  END
