200

C 24.627721 -0.619614 0.567098
C 25.318266 -1.259489 -0.677226
C 24.669172 -1.787796 -1.767114
C 25.665791 -2.262923 -2.656693
C 26.890957 -2.020113 -2.076363
N 26.668260 -1.369852 -0.886642
C 28.314203 -2.432794 -2.645953
C 28.369161 -3.312854 -3.845794
C 28.935685 -2.802014 -5.030104
C 28.996662 -3.590135 -6.171393
O 29.552046 -3.133084 -7.333078
C 28.476030 -4.875194 -6.153991
O 28.523273 -5.648264 -7.284783
C 27.889221 -5.382138 -4.996738
O 27.352882 -6.639329 -5.012159
C 27.836100 -4.613469 -3.837704
C 29.444271 -1.940574 -2.061888
C 30.764763 -2.398922 -2.442088
C 31.662924 -1.748503 -1.712680
N 29.627043 -1.013748 -1.069456
C 30.964503 -0.829781 -0.837209
C 31.627199 0.007299 0.005370
C 30.834478 1.051814 0.898718
C 31.325218 2.247717 1.385428
C 30.308908 2.844140 2.173995
C 29.217161 2.003780 2.131879
N 29.531161 0.938477 1.318789
C 27.832015 2.214749 2.869678
C 27.754506 3.245324 3.929140
C 28.227905 2.992756 5.227232
C 28.140476 3.989807 6.186508
O 28.590733 3.764657 7.456827
C 27.595858 5.226949 5.863162
O 27.516894 6.198190 6.827783
C 27.139369 5.486527 4.575355
O 26.624260 6.727532 4.319269
C 27.213979 4.502856 3.602509
C 26.740681 1.506550 2.472872
C 25.453780 1.607027 3.140381
C 24.591245 0.815120 2.510577
C 25.289551 0.195731 1.410108
N 26.582949 0.613414 1.451825
H 23.577024 -0.828124 0.733423
H 23.599548 -1.824918 -1.909104
H 25.504701 -2.741645 -3.611058
H 27.394533 -0.999688 -0.282052
H 29.317611 -1.781887 -5.018111
H 29.866003 -2.235841 -7.140428
H 29.009164 -5.086123 -7.912536
H 27.594371 -6.974025 -5.892847
H 27.374097 -5.005042 -2.934853
H 30.992818 -3.164311 -3.160921
H 32.722822 -1.903390 -1.776376
H 32.310100 2.651183 1.198102
H 30.370591 3.779791 2.710011
H 28.872869 0.213834 1.037309
H 28.657337 2.023684 5.465776
H 28.420816 4.605502 7.921324
H 27.101756 6.951461 6.351717
H 26.390780 6.743647 3.371702
H 26.858529 4.666711 2.587091
H 25.229496 2.200998 4.007791
H 23.556917 0.668188 2.766907
C 65.223671 -0.692816 0.472699
C 64.533126 0.353029 1.402209
C 65.182220 1.277077 2.185216
C 64.185602 2.020361 2.866850
C 62.960435 1.518752 2.487208
N 63.183132 0.528376 1.561232
C 61.537189 1.967669 3.028698
C 61.482231 2.910637 4.179757
C 60.915707 4.184835 3.979843
C 60.854730 5.093983 5.027280
O 60.299346 6.332878 4.873828
C 61.375362 4.757206 6.267546
O 61.328119 5.659934 7.297793
C 61.962171 3.510182 6.470424
O 62.498510 3.212133 7.691871
C 62.015292 2.579005 5.437408
C 60.407121 1.524535 2.406570
C 59.086629 1.778655 2.945140
C 58.188468 1.234138 2.133609
N 60.224349 0.794089 1.261853
C 58.886889 0.614953 1.025859
C 58.224193 0.007299 0.005370
C 59.016914 -0.597884 -1.228663
C 58.526174 -0.771542 -2.508082
C 59.542484 -1.386798 -3.282045
C 60.634231 -1.555220 -2.457658
N 60.320231 -1.032945 -1.223473
C 62.019377 -2.217268 -2.845664
C 62.096886 -2.986804 -4.107551
C 61.623487 -4.306904 -4.186103
C 61.710916 -4.987756 -5.390579
O 61.260659 -6.274131 -5.488771
C 62.255534 -4.366596 -6.508270
O 62.334498 -5.059050 -7.689079
C 62.712023 -3.054713 -6.439068
O 63.227133 -2.497735 -7.577246
C 62.637413 -2.357388 -5.244173
C 63.110711 -2.009266 -2.060976
C 64.397613 -2.630744 -2.324469
C 65.260147 -2.217919 -1.400703
C 64.561841 -1.306299 -0.526847
N 63.268443 -1.242718 -0.941765
H 66.274368 -0.905814 0.633237
H 66.251844 1.405354 2.256519
H 64.346691 2.825497 3.568094
H 62.456859 0.034976 1.052207
H 60.533781 4.427186 2.988849
H 59.985389 6.369667 3.956873
H 60.842228 6.407871 6.909634
H 62.257021 3.981767 8.235282
H 62.477295 1.607096 5.591883
H 58.858574 2.284307 3.865388
H 57.128570 1.257269 2.299477
H 57.541292 -0.489669 -2.852209
H 59.480801 -1.673001 -4.321681
H 60.978523 -0.940731 -0.451570
H 61.194056 -4.779194 -3.306929
H 61.430576 -6.514669 -6.418781
H 62.749636 -4.410441 -8.300115
H 63.460612 -1.575990 -7.356951
H 62.992863 -1.333148 -5.150074
H 64.621896 -3.322971 -3.115687
H 66.294475 -2.502758 -1.322211
C 37.696001 0.008401 0.013860
C 36.487061 -0.005054 0.005413
C 35.065532 0.003766 -0.006570
C 33.853863 0.011204 0.004293
C 39.112605 0.001726 0.014393
C 40.333301 0.011204 0.004293
C 53.363079 0.008401 0.013860
C 52.154140 -0.005054 0.005413
C 50.732611 0.003766 -0.006570
C 49.520941 0.011204 0.004293
C 54.779684 0.001726 0.014393
C 56.000379 0.011204 0.004293
C 41.363960 -0.017002 -0.011744
C 42.148393 -1.363674 0.281741
C 41.613856 -2.533125 0.786326
C 42.651273 -3.498628 0.808918
C 43.791656 -2.886172 0.330335
N 43.492411 -1.569071 0.080308
C 45.193067 -3.578188 0.089994
C 45.200375 -5.041840 -0.137571
C 45.527043 -5.922943 0.910691
C 45.535289 -7.300833 0.685796
O 45.864535 -8.162048 1.701501
C 45.213557 -7.797943 -0.577644
O 45.214121 -9.144561 -0.831992
C 44.888080 -6.919511 -1.618238
O 44.586189 -7.455290 -2.849792
C 44.877337 -5.544385 -1.408753
C 46.328799 -2.835295 0.020690
C 47.620124 -3.430302 -0.257112
C 48.527066 -2.461971 -0.296864
N 46.536673 -1.489784 0.152188
C 47.862991 -1.200282 -0.034414
C 48.532341 -0.017002 -0.011744
C 47.749741 1.330094 0.279908
C 48.283467 2.493890 0.800998
C 47.248677 3.462596 0.817246
C 46.109468 2.856661 0.321070
N 46.410346 1.543760 0.052302
C 44.703128 3.546329 0.094165
C 44.660969 5.025778 0.040043
C 44.937410 5.718724 -1.149951
C 44.875942 7.106747 -1.156839
O 45.133708 7.796508 -2.310779
C 44.547695 7.802937 0.005202
O 44.484327 9.172448 -0.024849
C 44.282429 7.119636 1.187425
O 43.963949 7.850624 2.302741
C 44.337740 5.732807 1.214345
C 43.570876 2.798628 -0.001055
C 42.273111 3.396804 -0.250395
C 41.365905 2.427755 -0.287599
C 42.036022 1.163889 -0.053595
N 43.368426 1.449517 0.095807
H 40.585552 -2.686448 1.080937
H 42.568488 -4.530796 1.120382
H 44.163771 -0.855404 -0.191203
H 45.776183 -5.501072 1.883744
H 46.120034 -7.621955 2.472442
H 44.968765 -9.197085 -1.778346
H 44.406274 -6.697962 -3.439892
H 44.630979 -4.840973 -2.202489
H 47.822767 -4.474281 -0.417779
H 49.573041 -2.611064 -0.494096
H 49.308362 2.641514 1.113347
H 47.333142 4.490236 1.139332
H 45.739004 0.833807 -0.231820
H 45.187949 5.166117 -2.053119
H 44.989969 8.730624 -2.060324
H 44.227913 9.399621 0.894339
H 43.818689 7.203061 3.017674
H 44.129565 5.164801 2.117987
H 42.069357 4.442628 -0.399370
H 40.315599 2.577455 -0.459570
