 xtb: 6.5.1 (b24c23e)
          07302203193D

193222  0     0  0            999 V2000
   36.0524   -0.0272    0.0164 Co  0  0  0  0  0  0  0  0  0  0  0  0
   32.6821   -0.0284    0.0399 C   0  0  0  0  0  0  0  0  0  0  0  0
   33.3465   -0.3440    1.2056 C   0  0  0  0  0  0  0  0  0  0  0  0
   32.6916   -0.6803    2.4333 C   0  0  0  0  0  0  0  0  0  0  0  0
   33.6508   -0.7210    3.3872 C   0  0  0  0  0  0  0  0  0  0  0  0
   34.8932   -0.4104    2.7414 C   0  0  0  0  0  0  0  0  0  0  0  0
   34.7011   -0.2319    1.3947 N   0  0  0  0  0  0  0  0  0  0  0  0
   36.0737   -0.1330    3.4164 C   0  0  0  0  0  0  0  0  0  0  0  0
   37.2422    0.2012    2.7483 C   0  0  0  0  0  0  0  0  0  0  0  0
   38.4841    0.4982    3.3971 C   0  0  0  0  0  0  0  0  0  0  0  0
   39.4297    0.5497    2.4287 C   0  0  0  0  0  0  0  0  0  0  0  0
   37.4220    0.1170    1.3868 N   0  0  0  0  0  0  0  0  0  0  0  0
   38.7669    0.2743    1.1930 C   0  0  0  0  0  0  0  0  0  0  0  0
   39.4403    0.0164   -0.0020 C   0  0  0  0  0  0  0  0  0  0  0  0
   38.7579   -0.2603   -1.1877 C   0  0  0  0  0  0  0  0  0  0  0  0
   39.4057   -0.5705   -2.4227 C   0  0  0  0  0  0  0  0  0  0  0  0
   38.4462   -0.5555   -3.3795 C   0  0  0  0  0  0  0  0  0  0  0  0
   37.2158   -0.2251   -2.7257 C   0  0  0  0  0  0  0  0  0  0  0  0
   36.0302    0.0622   -3.3870 C   0  0  0  0  0  0  0  0  0  0  0  0
   36.0216    0.1063   -4.8658 C   0  0  0  0  0  0  0  0  0  0  0  0
   35.1758   -0.7332   -5.5959 C   0  0  0  0  0  0  0  0  0  0  0  0
   35.1649   -0.6823   -6.9775 C   0  0  0  0  0  0  0  0  0  0  0  0
   35.9948    0.2128   -7.6553 C   0  0  0  0  0  0  0  0  0  0  0  0
   35.9393    0.2377   -9.1366 C   0  0  0  0  0  0  0  0  0  0  0  0
   36.7674    1.1365   -9.6900 O   0  0  0  0  0  0  0  0  0  0  0  0
   35.2260   -0.4690   -9.8024 O   0  0  0  0  0  0  0  0  0  0  0  0
   36.8420    1.0523   -6.9313 C   0  0  0  0  0  0  0  0  0  0  0  0
   36.8559    0.9952   -5.5488 C   0  0  0  0  0  0  0  0  0  0  0  0
   34.8516    0.3152   -2.6977 C   0  0  0  0  0  0  0  0  0  0  0  0
   33.6085    0.6673   -3.3199 C   0  0  0  0  0  0  0  0  0  0  0  0
   32.6631    0.6364   -2.3514 C   0  0  0  0  0  0  0  0  0  0  0  0
   33.3307    0.2790   -1.1368 C   0  0  0  0  0  0  0  0  0  0  0  0
   34.6810    0.1502   -1.3469 N   0  0  0  0  0  0  0  0  0  0  0  0
   37.4098   -0.1155   -1.3684 N   0  0  0  0  0  0  0  0  0  0  0  0
   36.0819   -0.1909    4.8974 C   0  0  0  0  0  0  0  0  0  0  0  0
   35.9024   -1.4109    5.5535 C   0  0  0  0  0  0  0  0  0  0  0  0
   35.9086   -1.4659    6.9352 C   0  0  0  0  0  0  0  0  0  0  0  0
   36.0895   -0.3020    7.6845 C   0  0  0  0  0  0  0  0  0  0  0  0
   36.0826   -0.4114    9.1632 C   0  0  0  0  0  0  0  0  0  0  0  0
   36.2671    0.7606    9.7893 O   0  0  0  0  0  0  0  0  0  0  0  0
   35.9271   -1.4416    9.7679 O   0  0  0  0  0  0  0  0  0  0  0  0
   36.2676    0.9186    7.0328 C   0  0  0  0  0  0  0  0  0  0  0  0
   36.2657    0.9710    5.6496 C   0  0  0  0  0  0  0  0  0  0  0  0
   31.5987   -0.0217    0.0490 H   0  0  0  0  0  0  0  0  0  0  0  0
   31.6303   -0.8418    2.5347 H   0  0  0  0  0  0  0  0  0  0  0  0
   33.5380   -0.9175    4.4410 H   0  0  0  0  0  0  0  0  0  0  0  0
   38.6092    0.6262    4.4599 H   0  0  0  0  0  0  0  0  0  0  0  0
   40.4876    0.7324    2.5279 H   0  0  0  0  0  0  0  0  0  0  0  0
   40.4611   -0.7632   -2.5282 H   0  0  0  0  0  0  0  0  0  0  0  0
   38.5508   -0.7479   -4.4348 H   0  0  0  0  0  0  0  0  0  0  0  0
   34.5386   -1.4367   -5.0721 H   0  0  0  0  0  0  0  0  0  0  0  0
   34.5141   -1.3336   -7.5505 H   0  0  0  0  0  0  0  0  0  0  0  0
   36.6691    1.0918  -10.6550 H   0  0  0  0  0  0  0  0  0  0  0  0
   37.4862    1.7500   -7.4531 H   0  0  0  0  0  0  0  0  0  0  0  0
   37.5041    1.6574   -4.9858 H   0  0  0  0  0  0  0  0  0  0  0  0
   33.4884    0.9024   -4.3650 H   0  0  0  0  0  0  0  0  0  0  0  0
   31.6050    0.8274   -2.4333 H   0  0  0  0  0  0  0  0  0  0  0  0
   35.7719   -2.3165    4.9721 H   0  0  0  0  0  0  0  0  0  0  0  0
   35.7743   -2.4096    7.4525 H   0  0  0  0  0  0  0  0  0  0  0  0
   36.2482    0.6040   10.7474 H   0  0  0  0  0  0  0  0  0  0  0  0
   36.4051    1.8247    7.6109 H   0  0  0  0  0  0  0  0  0  0  0  0
   36.3917    1.9210    5.1425 H   0  0  0  0  0  0  0  0  0  0  0  0
   62.8027   -0.0017   -0.0410 Co  0  0  0  0  0  0  0  0  0  0  0  0
   66.1724    0.0142   -0.0695 C   0  0  0  0  0  0  0  0  0  0  0  0
   65.5075   -0.1689   -1.2631 C   0  0  0  0  0  0  0  0  0  0  0  0
   66.1614   -0.3593   -2.5221 C   0  0  0  0  0  0  0  0  0  0  0  0
   65.2001   -0.2969   -3.4728 C   0  0  0  0  0  0  0  0  0  0  0  0
   63.9578   -0.0684   -2.7935 C   0  0  0  0  0  0  0  0  0  0  0  0
   64.1519   -0.0442   -1.4358 N   0  0  0  0  0  0  0  0  0  0  0  0
   62.7748    0.2809   -3.4305 C   0  0  0  0  0  0  0  0  0  0  0  0
   61.6074    0.5355   -2.7265 C   0  0  0  0  0  0  0  0  0  0  0  0
   60.3642    0.9059   -3.3335 C   0  0  0  0  0  0  0  0  0  0  0  0
   59.4209    0.8453   -2.3632 C   0  0  0  0  0  0  0  0  0  0  0  0
   61.4302    0.2932   -1.3836 N   0  0  0  0  0  0  0  0  0  0  0  0
   60.0864    0.4275   -1.1697 C   0  0  0  0  0  0  0  0  0  0  0  0
   59.4150    0.0279   -0.0122 C   0  0  0  0  0  0  0  0  0  0  0  0
   60.1005   -0.3879    1.1311 C   0  0  0  0  0  0  0  0  0  0  0  0
   59.4555   -0.8462    2.3207 C   0  0  0  0  0  0  0  0  0  0  0  0
   60.4170   -0.9456    3.2704 C   0  0  0  0  0  0  0  0  0  0  0  0
   61.6454   -0.5357    2.6592 C   0  0  0  0  0  0  0  0  0  0  0  0
   62.8314   -0.3258    3.3479 C   0  0  0  0  0  0  0  0  0  0  0  0
   62.8446   -0.4626    4.8210 C   0  0  0  0  0  0  0  0  0  0  0  0
   63.6967   -1.3814    5.4399 C   0  0  0  0  0  0  0  0  0  0  0  0
   63.7122   -1.5003    6.8172 C   0  0  0  0  0  0  0  0  0  0  0  0
   62.8812   -0.6987    7.6022 C   0  0  0  0  0  0  0  0  0  0  0  0
   62.9418   -0.8558    9.0754 C   0  0  0  0  0  0  0  0  0  0  0  0
   62.1134   -0.0343    9.7373 O   0  0  0  0  0  0  0  0  0  0  0  0
   63.6589   -1.6372    9.6468 O   0  0  0  0  0  0  0  0  0  0  0  0
   62.0283    0.2197    6.9893 C   0  0  0  0  0  0  0  0  0  0  0  0
   62.0095    0.3325    5.6103 C   0  0  0  0  0  0  0  0  0  0  0  0
   64.0072    0.0157    2.6922 C   0  0  0  0  0  0  0  0  0  0  0  0
   65.2491    0.2993    3.3505 C   0  0  0  0  0  0  0  0  0  0  0  0
   66.1925    0.3920    2.3839 C   0  0  0  0  0  0  0  0  0  0  0  0
   65.5247    0.1774    1.1362 C   0  0  0  0  0  0  0  0  0  0  0  0
   64.1759    0.0140    1.3314 N   0  0  0  0  0  0  0  0  0  0  0  0
   61.4481   -0.2636    1.3252 N   0  0  0  0  0  0  0  0  0  0  0  0
   62.7642    0.3907   -4.9085 C   0  0  0  0  0  0  0  0  0  0  0  0
   62.9458   -0.7473   -5.6978 C   0  0  0  0  0  0  0  0  0  0  0  0
   62.9378   -0.6468   -7.0769 C   0  0  0  0  0  0  0  0  0  0  0  0
   62.7531    0.5936   -7.6904 C   0  0  0  0  0  0  0  0  0  0  0  0
   62.7573    0.6507   -9.1721 C   0  0  0  0  0  0  0  0  0  0  0  0
   62.5712    1.8854   -9.6624 O   0  0  0  0  0  0  0  0  0  0  0  0
   62.9117   -0.3052   -9.8888 O   0  0  0  0  0  0  0  0  0  0  0  0
   62.5733    1.7328   -6.9054 C   0  0  0  0  0  0  0  0  0  0  0  0
   62.5769    1.6294   -5.5250 C   0  0  0  0  0  0  0  0  0  0  0  0
   67.2558    0.0287   -0.0794 H   0  0  0  0  0  0  0  0  0  0  0  0
   67.2234   -0.5020   -2.6432 H   0  0  0  0  0  0  0  0  0  0  0  0
   65.3115   -0.3715   -4.5423 H   0  0  0  0  0  0  0  0  0  0  0  0
   60.2365    1.1567   -4.3739 H   0  0  0  0  0  0  0  0  0  0  0  0
   58.3629    1.0388   -2.4380 H   0  0  0  0  0  0  0  0  0  0  0  0
   58.4005   -1.0520    2.4041 H   0  0  0  0  0  0  0  0  0  0  0  0
   60.3148   -1.2643    4.2950 H   0  0  0  0  0  0  0  0  0  0  0  0
   64.3348   -2.0124    4.8317 H   0  0  0  0  0  0  0  0  0  0  0  0
   64.3677   -2.2142    7.3040 H   0  0  0  0  0  0  0  0  0  0  0  0
   62.2145   -0.1968   10.6892 H   0  0  0  0  0  0  0  0  0  0  0  0
   61.3836    0.8456    7.5949 H   0  0  0  0  0  0  0  0  0  0  0  0
   61.3569    1.0560    5.1348 H   0  0  0  0  0  0  0  0  0  0  0  0
   65.3699    0.4082    4.4161 H   0  0  0  0  0  0  0  0  0  0  0  0
   67.2494    0.5795    2.4866 H   0  0  0  0  0  0  0  0  0  0  0  0
   63.0793   -1.7121   -5.2221 H   0  0  0  0  0  0  0  0  0  0  0  0
   63.0736   -1.5259   -7.6971 H   0  0  0  0  0  0  0  0  0  0  0  0
   62.5878    1.8370  -10.6321 H   0  0  0  0  0  0  0  0  0  0  0  0
   62.4332    2.6978   -7.3779 H   0  0  0  0  0  0  0  0  0  0  0  0
   62.4497    2.5161   -4.9143 H   0  0  0  0  0  0  0  0  0  0  0  0
   42.0680    0.0355   -0.0101 C   0  0  0  0  0  0  0  0  0  0  0  0
   40.8466    0.0271   -0.0089 C   0  0  0  0  0  0  0  0  0  0  0  0
   43.4190    0.0412   -0.0113 C   0  0  0  0  0  0  0  0  0  0  0  0
   44.6407    0.0449   -0.0082 C   0  0  0  0  0  0  0  0  0  0  0  0
   55.4381    0.0388   -0.0003 C   0  0  0  0  0  0  0  0  0  0  0  0
   54.2160    0.0406   -0.0061 C   0  0  0  0  0  0  0  0  0  0  0  0
   56.7881    0.0364   -0.0005 C   0  0  0  0  0  0  0  0  0  0  0  0
   58.0100    0.0338   -0.0025 C   0  0  0  0  0  0  0  0  0  0  0  0
   49.4289    0.0428    0.0234 Co  0  0  0  0  0  0  0  0  0  0  0  0
   46.0455    0.0440   -0.0099 C   0  0  0  0  0  0  0  0  0  0  0  0
   46.7267   -1.1400   -0.3043 C   0  0  0  0  0  0  0  0  0  0  0  0
   46.0844   -2.3704   -0.6422 C   0  0  0  0  0  0  0  0  0  0  0  0
   47.0391   -3.3321   -0.5999 C   0  0  0  0  0  0  0  0  0  0  0  0
   48.2599   -2.6854   -0.2234 C   0  0  0  0  0  0  0  0  0  0  0  0
   48.0693   -1.3272   -0.1264 N   0  0  0  0  0  0  0  0  0  0  0  0
   49.4273   -3.3464    0.1368 C   0  0  0  0  0  0  0  0  0  0  0  0
   50.5949   -2.6571    0.4403 C   0  0  0  0  0  0  0  0  0  0  0  0
   51.8110   -3.2658    0.8872 C   0  0  0  0  0  0  0  0  0  0  0  0
   52.7660   -2.3034    0.8520 C   0  0  0  0  0  0  0  0  0  0  0  0
   50.7901   -1.3168    0.2086 N   0  0  0  0  0  0  0  0  0  0  0  0
   52.1286   -1.1105    0.3930 C   0  0  0  0  0  0  0  0  0  0  0  0
   52.8124    0.0400   -0.0117 C   0  0  0  0  0  0  0  0  0  0  0  0
   52.1297    1.1879   -0.4244 C   0  0  0  0  0  0  0  0  0  0  0  0
   52.7702    2.3777   -0.8876 C   0  0  0  0  0  0  0  0  0  0  0  0
   51.8148    3.3384   -0.9405 C   0  0  0  0  0  0  0  0  0  0  0  0
   50.5960    2.7332   -0.4950 C   0  0  0  0  0  0  0  0  0  0  0  0
   49.4312    3.4269   -0.1929 C   0  0  0  0  0  0  0  0  0  0  0  0
   49.4330    4.9034   -0.2658 C   0  0  0  0  0  0  0  0  0  0  0  0
   50.3482    5.6474    0.4846 C   0  0  0  0  0  0  0  0  0  0  0  0
   50.3456    7.0282    0.4186 C   0  0  0  0  0  0  0  0  0  0  0  0
   49.4323    7.6918   -0.4028 C   0  0  0  0  0  0  0  0  0  0  0  0
   49.4709    9.1738   -0.4416 C   0  0  0  0  0  0  0  0  0  0  0  0
   48.5522    9.7132   -1.2565 O   0  0  0  0  0  0  0  0  0  0  0  0
   50.2435    9.8500    0.1883 O   0  0  0  0  0  0  0  0  0  0  0  0
   48.5185    6.9541   -1.1561 C   0  0  0  0  0  0  0  0  0  0  0  0
   48.5187    5.5722   -1.0843 C   0  0  0  0  0  0  0  0  0  0  0  0
   48.2648    2.7704    0.1813 C   0  0  0  0  0  0  0  0  0  0  0  0
   47.0503    3.4191    0.5727 C   0  0  0  0  0  0  0  0  0  0  0  0
   46.0941    2.4588    0.6277 C   0  0  0  0  0  0  0  0  0  0  0  0
   46.7296    1.2276    0.2815 C   0  0  0  0  0  0  0  0  0  0  0  0
   48.0684    1.4145    0.0771 N   0  0  0  0  0  0  0  0  0  0  0  0
   50.7877    1.3914   -0.2631 N   0  0  0  0  0  0  0  0  0  0  0  0
   49.4281   -4.8235    0.2017 C   0  0  0  0  0  0  0  0  0  0  0  0
   48.5269   -5.4967    1.0313 C   0  0  0  0  0  0  0  0  0  0  0  0
   48.5323   -6.8779    1.0915 C   0  0  0  0  0  0  0  0  0  0  0  0
   49.4336   -7.6123    0.3186 C   0  0  0  0  0  0  0  0  0  0  0  0
   49.3971   -9.0921    0.4142 C   0  0  0  0  0  0  0  0  0  0  0  0
   50.2973   -9.7025   -0.3703 O   0  0  0  0  0  0  0  0  0  0  0  0
   48.6407   -9.7083    1.1207 O   0  0  0  0  0  0  0  0  0  0  0  0
   50.3337   -6.9454   -0.5129 C   0  0  0  0  0  0  0  0  0  0  0  0
   50.3316   -5.5627   -0.5665 C   0  0  0  0  0  0  0  0  0  0  0  0
   45.0348   -2.4713   -0.8670 H   0  0  0  0  0  0  0  0  0  0  0  0
   46.9350   -4.3864   -0.7978 H   0  0  0  0  0  0  0  0  0  0  0  0
   51.9117   -4.2966    1.1854 H   0  0  0  0  0  0  0  0  0  0  0  0
   53.8124   -2.3826    1.0990 H   0  0  0  0  0  0  0  0  0  0  0  0
   53.8188    2.4553   -1.1257 H   0  0  0  0  0  0  0  0  0  0  0  0
   51.9174    4.3668   -1.2463 H   0  0  0  0  0  0  0  0  0  0  0  0
   51.0485    5.1348    1.1343 H   0  0  0  0  0  0  0  0  0  0  0  0
   51.0490    7.6117    1.0026 H   0  0  0  0  0  0  0  0  0  0  0  0
   48.6429   10.6795   -1.2260 H   0  0  0  0  0  0  0  0  0  0  0  0
   47.8103    7.4649   -1.7976 H   0  0  0  0  0  0  0  0  0  0  0  0
   47.8179    4.9989   -1.6805 H   0  0  0  0  0  0  0  0  0  0  0  0
   46.9511    4.4731    0.7752 H   0  0  0  0  0  0  0  0  0  0  0  0
   45.0482    2.5617    0.8684 H   0  0  0  0  0  0  0  0  0  0  0  0
   47.8352   -4.9277    1.6421 H   0  0  0  0  0  0  0  0  0  0  0  0
   47.8399   -7.4066    1.7373 H   0  0  0  0  0  0  0  0  0  0  0  0
   50.2096  -10.6623   -0.2511 H   0  0  0  0  0  0  0  0  0  0  0  0
   51.0328   -7.5117   -1.1167 H   0  0  0  0  0  0  0  0  0  0  0  0
   51.0222   -5.0450   -1.2226 H   0  0  0  0  0  0  0  0  0  0  0  0
  2  3  4  0  0  0  0
  3  4  1  0  0  0  0
  4  5  2  0  0  0  0
  5  6  4  0  0  0  0
  1  7  1  0  0  0  0
  3  7  4  0  0  0  0
  6  7  4  0  0  0  0
  6  8  4  0  0  0  0
  8  9  4  0  0  0  0
  9 10  4  0  0  0  0
 10 11  2  0  0  0  0
  1 12  1  0  0  0  0
  9 12  4  0  0  0  0
 11 13  4  0  0  0  0
 12 13  4  0  0  0  0
 13 14  4  0  0  0  0
 14 15  4  0  0  0  0
 15 16  4  0  0  0  0
 16 17  2  0  0  0  0
 17 18  4  0  0  0  0
 18 19  4  0  0  0  0
 19 20  1  0  0  0  0
 20 21  4  0  0  0  0
 21 22  4  0  0  0  0
 22 23  4  0  0  0  0
 23 24  1  0  0  0  0
 24 25  4  0  0  0  0
 24 26  2  0  0  0  0
 23 27  4  0  0  0  0
 20 28  4  0  0  0  0
 27 28  4  0  0  0  0
 19 29  4  0  0  0  0
 29 30  4  0  0  0  0
 30 31  2  0  0  0  0
  2 32  4  0  0  0  0
 31 32  1  0  0  0  0
  1 33  1  0  0  0  0
 29 33  4  0  0  0  0
 32 33  4  0  0  0  0
  1 34  1  0  0  0  0
 15 34  4  0  0  0  0
 18 34  4  0  0  0  0
  8 35  1  0  0  0  0
 35 36  4  0  0  0  0
 36 37  4  0  0  0  0
 37 38  4  0  0  0  0
 38 39  1  0  0  0  0
 39 40  4  0  0  0  0
 39 41  2  0  0  0  0
 38 42  4  0  0  0  0
 35 43  4  0  0  0  0
 42 43  4  0  0  0  0
  2 44  1  0  0  0  0
  4 45  1  0  0  0  0
  5 46  1  0  0  0  0
 10 47  1  0  0  0  0
 11 48  1  0  0  0  0
 16 49  1  0  0  0  0
 17 50  1  0  0  0  0
 21 51  1  0  0  0  0
 22 52  1  0  0  0  0
 25 53  1  0  0  0  0
 27 54  1  0  0  0  0
 28 55  1  0  0  0  0
 30 56  1  0  0  0  0
 31 57  1  0  0  0  0
 36 58  1  0  0  0  0
 37 59  1  0  0  0  0
 40 60  1  0  0  0  0
 42 61  1  0  0  0  0
 43 62  1  0  0  0  0
 64 65  4  0  0  0  0
 65 66  1  0  0  0  0
 66 67  2  0  0  0  0
 67 68  4  0  0  0  0
 63 69  1  0  0  0  0
 65 69  4  0  0  0  0
 68 69  4  0  0  0  0
 68 70  4  0  0  0  0
 70 71  4  0  0  0  0
 71 72  4  0  0  0  0
 72 73  2  0  0  0  0
 63 74  1  0  0  0  0
 71 74  4  0  0  0  0
 73 75  4  0  0  0  0
 74 75  4  0  0  0  0
 75 76  4  0  0  0  0
 76 77  4  0  0  0  0
 77 78  4  0  0  0  0
 78 79  2  0  0  0  0
 79 80  4  0  0  0  0
 80 81  4  0  0  0  0
 81 82  1  0  0  0  0
 82 83  4  0  0  0  0
 83 84  4  0  0  0  0
 84 85  4  0  0  0  0
 85 86  1  0  0  0  0
 86 87  4  0  0  0  0
 86 88  2  0  0  0  0
 85 89  4  0  0  0  0
 82 90  4  0  0  0  0
 89 90  4  0  0  0  0
 81 91  4  0  0  0  0
 91 92  4  0  0  0  0
 92 93  2  0  0  0  0
 64 94  4  0  0  0  0
 93 94  1  0  0  0  0
 63 95  1  0  0  0  0
 91 95  4  0  0  0  0
 94 95  4  0  0  0  0
 63 96  1  0  0  0  0
 77 96  4  0  0  0  0
 80 96  4  0  0  0  0
 70 97  1  0  0  0  0
 97 98  4  0  0  0  0
 98 99  4  0  0  0  0
 99100  4  0  0  0  0
100101  1  0  0  0  0
101102  4  0  0  0  0
101103  2  0  0  0  0
100104  4  0  0  0  0
 97105  4  0  0  0  0
104105  4  0  0  0  0
 64106  1  0  0  0  0
 66107  1  0  0  0  0
 67108  1  0  0  0  0
 72109  1  0  0  0  0
 73110  1  0  0  0  0
 78111  1  0  0  0  0
 79112  1  0  0  0  0
 83113  1  0  0  0  0
 84114  1  0  0  0  0
 87115  1  0  0  0  0
 89116  1  0  0  0  0
 90117  1  0  0  0  0
 92118  1  0  0  0  0
 93119  1  0  0  0  0
 98120  1  0  0  0  0
 99121  1  0  0  0  0
102122  1  0  0  0  0
104123  1  0  0  0  0
105124  1  0  0  0  0
 14126  1  0  0  0  0
125126  3  0  0  0  0
125127  4  0  0  0  0
127128  3  0  0  0  0
129130  3  0  0  0  0
129131  4  0  0  0  0
 76132  4  0  0  0  0
131132  3  0  0  0  0
128134  1  0  0  0  0
134135  4  0  0  0  0
135136  4  0  0  0  0
136137  2  0  0  0  0
137138  4  0  0  0  0
133139  1  0  0  0  0
135139  4  0  0  0  0
138139  4  0  0  0  0
138140  4  0  0  0  0
140141  4  0  0  0  0
141142  4  0  0  0  0
142143  2  0  0  0  0
133144  1  0  0  0  0
141144  4  0  0  0  0
143145  4  0  0  0  0
144145  4  0  0  0  0
130146  4  0  0  0  0
145146  4  0  0  0  0
146147  4  0  0  0  0
147148  4  0  0  0  0
148149  2  0  0  0  0
149150  4  0  0  0  0
150151  4  0  0  0  0
151152  1  0  0  0  0
152153  4  0  0  0  0
153154  4  0  0  0  0
154155  4  0  0  0  0
155156  1  0  0  0  0
156157  4  0  0  0  0
156158  2  0  0  0  0
155159  4  0  0  0  0
152160  4  0  0  0  0
159160  4  0  0  0  0
151161  4  0  0  0  0
161162  4  0  0  0  0
162163  2  0  0  0  0
134164  4  0  0  0  0
163164  4  0  0  0  0
133165  1  0  0  0  0
161165  4  0  0  0  0
164165  4  0  0  0  0
133166  1  0  0  0  0
147166  4  0  0  0  0
150166  4  0  0  0  0
140167  1  0  0  0  0
167168  4  0  0  0  0
168169  4  0  0  0  0
169170  4  0  0  0  0
170171  1  0  0  0  0
171172  4  0  0  0  0
171173  2  0  0  0  0
170174  4  0  0  0  0
167175  4  0  0  0  0
174175  4  0  0  0  0
136176  1  0  0  0  0
137177  1  0  0  0  0
142178  1  0  0  0  0
143179  1  0  0  0  0
148180  1  0  0  0  0
149181  1  0  0  0  0
153182  1  0  0  0  0
154183  1  0  0  0  0
157184  1  0  0  0  0
159185  1  0  0  0  0
160186  1  0  0  0  0
162187  1  0  0  0  0
163188  1  0  0  0  0
168189  1  0  0  0  0
169190  1  0  0  0  0
172191  1  0  0  0  0
174192  1  0  0  0  0
175193  1  0  0  0  0
M  END
