172

C 21.315785 -0.016305 -0.014305
C 22.043740 1.359302 0.081671
C 21.435986 2.593828 0.063221
C 22.458344 3.562860 0.235460
C 23.655556 2.885183 0.361406
N 23.396282 1.545863 0.212044
C 25.077113 3.521796 0.653381
C 25.113886 4.936312 1.085923
C 25.401261 5.948087 0.171269
C 25.412804 7.255571 0.624986
N 25.158752 7.620072 1.903872
C 24.884548 6.611561 2.764887
C 24.849132 5.273789 2.411612
C 26.208322 2.773316 0.554368
C 27.512662 3.310448 0.885075
C 28.415528 2.351051 0.719233
N 26.405178 1.469781 0.183172
C 27.736852 1.154482 0.262333
C 28.404775 -0.000338 -0.000379
C 27.625311 -1.278856 -0.524505
C 28.159862 -2.311885 -1.269171
C 27.134396 -3.269372 -1.469716
C 26.000191 -2.789142 -0.850402
N 26.293963 -1.552583 -0.326171
C 24.594287 -3.517964 -0.773049
C 24.569776 -4.988608 -0.917349
C 24.966395 -5.803688 0.140439
C 24.941106 -7.175198 -0.045476
N 24.556786 -7.781922 -1.193435
C 24.178851 -6.959946 -2.200361
C 24.169837 -5.578516 -2.115532
C 23.467878 -2.790489 -0.557736
C 22.148664 -3.390222 -0.458771
C 21.262236 -2.418931 -0.261216
C 21.981003 -1.169494 -0.213412
N 23.301077 -1.444780 -0.387614
H 20.239076 -0.030374 0.105656
H 20.377735 2.775701 -0.044601
H 22.329486 4.633502 0.287533
H 24.096536 0.808269 0.203273
H 25.613490 5.705058 -0.864311
H 25.635270 8.071645 -0.054612
H 24.685638 6.915495 3.787364
H 24.624634 4.501099 3.138970
H 27.726263 4.309076 1.222121
H 29.469145 2.466503 0.896919
H 29.178405 -2.378856 -1.620352
H 27.216938 -4.205539 -2.001101
H 25.614253 -0.921332 0.090029
H 25.283663 -5.365815 1.080701
H 25.241327 -7.843777 0.754717
H 23.870961 -7.456955 -3.114395
H 23.857209 -4.961223 -2.950988
H 21.919886 -4.438351 -0.528271
H 20.200176 -2.537775 -0.145268
C 58.604502 0.020234 -0.005445
C 57.876546 -1.246568 -0.550164
C 58.484301 -2.335548 -1.131985
C 57.461942 -3.275855 -1.422696
C 56.264731 -2.731119 -1.000356
N 56.524005 -1.472124 -0.519715
C 54.843174 -3.430762 -1.032378
C 54.806401 -4.886302 -1.295727
C 54.519026 -5.366801 -2.572207
C 54.507482 -6.736893 -2.767710
N 54.761535 -7.646653 -1.797790
C 55.035739 -7.144489 -0.570487
C 55.071154 -5.793475 -0.271823
C 53.711965 -2.720053 -0.777588
C 52.407624 -3.349001 -0.729615
C 51.504759 -2.420189 -0.437630
N 53.515109 -1.391266 -0.510535
C 52.183434 -1.147238 -0.295756
C 51.515511 -0.000338 -0.000379
C 52.294976 1.376252 0.119269
C 51.760424 2.635624 -0.069568
C 52.785890 3.578632 0.190692
C 53.920096 2.868083 0.521283
N 53.626324 1.528744 0.420946
C 55.326000 3.480540 0.923850
C 55.350511 4.853958 1.469139
C 54.953892 5.094049 2.782770
C 54.979180 6.398403 3.245660
N 55.363500 7.463521 2.503066
C 55.741436 7.194005 1.231491
C 55.750450 5.927131 0.674196
C 56.452409 2.735237 0.782064
C 57.771622 3.223043 1.144721
C 58.658050 2.269133 0.875480
C 57.939283 1.136552 0.345725
N 56.619210 1.461053 0.316952
H 59.681211 -0.022202 0.107637
H 59.542552 -2.447842 -1.311133
H 57.590801 -4.251451 -1.866766
H 55.823750 -0.812422 -0.189689
H 54.306797 -4.676459 -3.381476
H 54.285017 -7.151082 -3.745605
H 55.234648 -7.882971 0.199239
H 55.295653 -5.439727 0.728658
H 52.194023 -4.391100 -0.887375
H 50.451141 -2.604202 -0.332555
H 50.741881 2.856001 -0.351078
H 52.703349 4.654214 0.147088
H 54.306034 0.776971 0.501810
H 54.636624 4.274157 3.418067
H 54.678960 6.626242 4.263204
H 56.049326 8.054453 0.646594
H 56.063078 5.761033 -0.351206
H 58.000400 4.186607 1.562988
H 59.720111 2.321675 1.032983
C 32.251821 0.012721 0.002238
C 30.999550 -0.006460 -0.002110
C 33.565489 0.011955 0.004171
C 35.068623 -0.006460 -0.002110
C 46.185631 0.012721 0.002238
C 44.933360 -0.006460 -0.002110
C 47.499299 0.011955 0.004171
C 49.002433 -0.006460 -0.002110
C 36.380140 0.001645 0.001085
C 37.175921 -1.243854 0.572197
C 36.675526 -2.239212 1.384716
C 37.713727 -3.185055 1.585461
C 38.817211 -2.734352 0.891883
N 38.501985 -1.516787 0.344571
C 40.205783 -3.479854 0.745897
C 40.198427 -4.956529 0.823998
C 40.616078 -5.607417 1.984144
C 40.574784 -6.990816 2.010074
N 40.150271 -7.759099 0.979474
C 39.750890 -7.094185 -0.130447
C 39.754215 -5.715370 -0.256345
C 41.341368 -2.770559 0.516669
C 42.628384 -3.406645 0.322771
C 43.536968 -2.458809 0.118786
N 41.549584 -1.424455 0.404990
C 42.874735 -1.171447 0.171651
C 43.538447 0.001645 0.001085
C 42.741328 1.368124 0.070097
C 43.234328 2.591494 0.473690
C 42.196491 3.543520 0.304117
C 41.100419 2.869212 -0.190696
N 41.418824 1.536173 -0.257342
C 39.715235 3.506192 -0.610792
C 39.726996 4.899747 -1.104081
C 39.331063 5.948990 -0.276874
C 39.374012 7.235472 -0.785334
N 39.779982 7.545521 -2.038439
C 40.158866 6.502382 -2.813797
C 40.152800 5.181517 -2.400141
C 38.578557 2.764625 -0.555350
C 37.292391 3.283180 -0.973455
C 36.383126 2.328883 -0.807263
C 37.044252 1.153933 -0.276536
N 38.368853 1.475617 -0.152426
H 35.672120 -2.291472 1.774534
H 37.656428 -4.098593 2.154914
H 39.160878 -0.891891 -0.112862
H 40.965847 -5.034858 2.836815
H 40.892331 -7.533785 2.893495
H 39.413617 -7.720471 -0.950252
H 39.423190 -5.230259 -1.167777
H 42.825571 -4.463894 0.330131
H 44.581974 -2.637078 -0.057579
H 44.234015 2.783531 0.831332
H 42.249246 4.603108 0.503631
H 40.764809 0.787084 -0.464530
H 38.996258 5.750506 0.735390
H 39.071925 8.079213 -0.173869
H 40.480933 6.762737 -3.816260
H 40.467003 4.380468 -3.060297
H 37.096150 4.267006 -1.361152
H 35.338040 2.429641 -1.036522
