 xtb: 6.5.1 (b24c23e)
          07292222143D

119142  0     0  0            999 V2000
   13.6036   -0.0292   -0.0035 Co  0  0  0  0  0  0  0  0  0  0  0  0
   10.1979    0.0409   -0.1182 C   0  0  0  0  0  0  0  0  0  0  0  0
   10.8639   -0.8148   -0.9676 C   0  0  0  0  0  0  0  0  0  0  0  0
   10.1976   -1.6854   -1.8907 C   0  0  0  0  0  0  0  0  0  0  0  0
   11.1618   -2.4036   -2.5107 C   0  0  0  0  0  0  0  0  0  0  0  0
   12.4133   -1.9622   -1.9703 C   0  0  0  0  0  0  0  0  0  0  0  0
   12.2237   -0.9847   -1.0283 N   0  0  0  0  0  0  0  0  0  0  0  0
   13.6311   -2.4715   -2.3664 C   0  0  0  0  0  0  0  0  0  0  0  0
   14.8375   -2.0257   -1.8777 C   0  0  0  0  0  0  0  0  0  0  0  0
   16.0995   -2.5356   -2.3205 C   0  0  0  0  0  0  0  0  0  0  0  0
   17.0517   -1.8376   -1.6588 C   0  0  0  0  0  0  0  0  0  0  0  0
   15.0121   -1.0306   -0.9434 N   0  0  0  0  0  0  0  0  0  0  0  0
   16.3661   -0.9107   -0.8114 C   0  0  0  0  0  0  0  0  0  0  0  0
   17.0320   -0.0136    0.0267 C   0  0  0  0  0  0  0  0  0  0  0  0
   16.3434    0.8607    0.8702 C   0  0  0  0  0  0  0  0  0  0  0  0
   17.0056    1.7660    1.7586 C   0  0  0  0  0  0  0  0  0  0  0  0
   16.0359    2.4118    2.4476 C   0  0  0  0  0  0  0  0  0  0  0  0
   14.7867    1.9015    1.9703 C   0  0  0  0  0  0  0  0  0  0  0  0
   14.9864    0.9520    0.9945 N   0  0  0  0  0  0  0  0  0  0  0  0
   13.5675    2.3231    2.4489 C   0  0  0  0  0  0  0  0  0  0  0  0
   12.3601    1.8642    1.9685 C   0  0  0  0  0  0  0  0  0  0  0  0
   11.0932    2.3352    2.4443 C   0  0  0  0  0  0  0  0  0  0  0  0
   10.1462    1.7065    1.7110 C   0  0  0  0  0  0  0  0  0  0  0  0
   10.8386    0.8471    0.7966 C   0  0  0  0  0  0  0  0  0  0  0  0
   12.1963    0.9450    0.9649 N   0  0  0  0  0  0  0  0  0  0  0  0
    9.1155    0.0691   -0.1603 H   0  0  0  0  0  0  0  0  0  0  0  0
    9.1281   -1.7279   -2.0235 H   0  0  0  0  0  0  0  0  0  0  0  0
   11.0603   -3.1650   -3.2678 H   0  0  0  0  0  0  0  0  0  0  0  0
   13.6399   -3.2561   -3.1139 H   0  0  0  0  0  0  0  0  0  0  0  0
   16.2180   -3.3219   -3.0489 H   0  0  0  0  0  0  0  0  0  0  0  0
   18.1242   -1.9270   -1.7232 H   0  0  0  0  0  0  0  0  0  0  0  0
   18.0757    1.8737    1.8334 H   0  0  0  0  0  0  0  0  0  0  0  0
   16.1345    3.1676    3.2104 H   0  0  0  0  0  0  0  0  0  0  0  0
   13.5563    3.0679    3.2361 H   0  0  0  0  0  0  0  0  0  0  0  0
   10.9706    3.0591    3.2343 H   0  0  0  0  0  0  0  0  0  0  0  0
    9.0730    1.7972    1.7669 H   0  0  0  0  0  0  0  0  0  0  0  0
   45.6701   -0.0055    0.0003 Co  0  0  0  0  0  0  0  0  0  0  0  0
   49.0775    0.0441    0.0374 C   0  0  0  0  0  0  0  0  0  0  0  0
   48.4068    1.2402   -0.0914 C   0  0  0  0  0  0  0  0  0  0  0  0
   49.0679    2.5056   -0.2171 C   0  0  0  0  0  0  0  0  0  0  0  0
   48.0970    3.4446   -0.2898 C   0  0  0  0  0  0  0  0  0  0  0  0
   46.8468    2.7496   -0.2032 C   0  0  0  0  0  0  0  0  0  0  0  0
   47.0441    1.3972   -0.0956 N   0  0  0  0  0  0  0  0  0  0  0  0
   45.6254    3.3870   -0.1879 C   0  0  0  0  0  0  0  0  0  0  0  0
   44.4235    2.7250   -0.0837 C   0  0  0  0  0  0  0  0  0  0  0  0
   43.1595    3.3952   -0.0430 C   0  0  0  0  0  0  0  0  0  0  0  0
   42.2127    2.4306    0.0279 C   0  0  0  0  0  0  0  0  0  0  0  0
   44.2560    1.3605   -0.0288 N   0  0  0  0  0  0  0  0  0  0  0  0
   42.9032    1.1774    0.0251 C   0  0  0  0  0  0  0  0  0  0  0  0
   42.2428   -0.0525    0.0231 C   0  0  0  0  0  0  0  0  0  0  0  0
   42.9361   -1.2638    0.0002 C   0  0  0  0  0  0  0  0  0  0  0  0
   42.2801   -2.5352   -0.0159 C   0  0  0  0  0  0  0  0  0  0  0  0
   43.2543   -3.4746    0.0094 C   0  0  0  0  0  0  0  0  0  0  0  0
   44.5000   -2.7706    0.0433 C   0  0  0  0  0  0  0  0  0  0  0  0
   44.2942   -1.4103    0.0245 N   0  0  0  0  0  0  0  0  0  0  0  0
   45.7207   -3.4009    0.1230 C   0  0  0  0  0  0  0  0  0  0  0  0
   46.9230   -2.7294    0.1679 C   0  0  0  0  0  0  0  0  0  0  0  0
   48.1909   -3.3895    0.2679 C   0  0  0  0  0  0  0  0  0  0  0  0
   49.1345   -2.4203    0.2510 C   0  0  0  0  0  0  0  0  0  0  0  0
   48.4392   -1.1723    0.1368 C   0  0  0  0  0  0  0  0  0  0  0  0
   47.0822   -1.3695    0.0997 N   0  0  0  0  0  0  0  0  0  0  0  0
   50.1609    0.0602    0.0533 H   0  0  0  0  0  0  0  0  0  0  0  0
   50.1386    2.6328   -0.2425 H   0  0  0  0  0  0  0  0  0  0  0  0
   48.1931    4.5145   -0.3866 H   0  0  0  0  0  0  0  0  0  0  0  0
   45.6104    4.4687   -0.2521 H   0  0  0  0  0  0  0  0  0  0  0  0
   43.0360    4.4662   -0.0686 H   0  0  0  0  0  0  0  0  0  0  0  0
   41.1407    2.5363    0.0718 H   0  0  0  0  0  0  0  0  0  0  0  0
   41.2106   -2.6692   -0.0397 H   0  0  0  0  0  0  0  0  0  0  0  0
   43.1606   -4.5489    0.0115 H   0  0  0  0  0  0  0  0  0  0  0  0
   45.7365   -4.4840    0.1577 H   0  0  0  0  0  0  0  0  0  0  0  0
   48.3168   -4.4583    0.3385 H   0  0  0  0  0  0  0  0  0  0  0  0
   50.2074   -2.5165    0.3034 H   0  0  0  0  0  0  0  0  0  0  0  0
   22.2315   -0.0128    0.0508 C   0  0  0  0  0  0  0  0  0  0  0  0
   21.0024   -0.0077    0.0481 C   0  0  0  0  0  0  0  0  0  0  0  0
   19.6593   -0.0049    0.0437 C   0  0  0  0  0  0  0  0  0  0  0  0
   18.4349   -0.0055    0.0347 C   0  0  0  0  0  0  0  0  0  0  0  0
   23.5743   -0.0164    0.0446 C   0  0  0  0  0  0  0  0  0  0  0  0
   24.7991   -0.0184    0.0362 C   0  0  0  0  0  0  0  0  0  0  0  0
   38.2709   -0.0809    0.0270 C   0  0  0  0  0  0  0  0  0  0  0  0
   37.0422   -0.0812    0.0197 C   0  0  0  0  0  0  0  0  0  0  0  0
   35.6985   -0.0761    0.0082 C   0  0  0  0  0  0  0  0  0  0  0  0
   34.4743   -0.0655   -0.0038 C   0  0  0  0  0  0  0  0  0  0  0  0
   39.6149   -0.0766    0.0296 C   0  0  0  0  0  0  0  0  0  0  0  0
   40.8388   -0.0699    0.0299 C   0  0  0  0  0  0  0  0  0  0  0  0
   29.6362    0.0148   -0.0499 Co  0  0  0  0  0  0  0  0  0  0  0  0
   26.2008   -0.0133    0.0162 C   0  0  0  0  0  0  0  0  0  0  0  0
   26.8874    0.9027    0.8173 C   0  0  0  0  0  0  0  0  0  0  0  0
   26.2221    1.8494    1.6583 C   0  0  0  0  0  0  0  0  0  0  0  0
   27.1901    2.5839    2.2555 C   0  0  0  0  0  0  0  0  0  0  0  0
   28.4394    2.0762    1.7778 C   0  0  0  0  0  0  0  0  0  0  0  0
   28.2435    1.0386    0.8968 N   0  0  0  0  0  0  0  0  0  0  0  0
   29.6583    2.5797    2.1723 C   0  0  0  0  0  0  0  0  0  0  0  0
   30.8692    2.0878    1.7391 C   0  0  0  0  0  0  0  0  0  0  0  0
   32.1278    2.6083    2.1768 C   0  0  0  0  0  0  0  0  0  0  0  0
   33.0837    1.8670    1.5687 C   0  0  0  0  0  0  0  0  0  0  0  0
   31.0472    1.0401    0.8667 N   0  0  0  0  0  0  0  0  0  0  0  0
   32.4019    0.9031    0.7613 C   0  0  0  0  0  0  0  0  0  0  0  0
   33.0716   -0.0445   -0.0165 C   0  0  0  0  0  0  0  0  0  0  0  0
   32.3855   -0.9580   -0.8200 C   0  0  0  0  0  0  0  0  0  0  0  0
   33.0507   -1.9103   -1.6546 C   0  0  0  0  0  0  0  0  0  0  0  0
   32.0828   -2.5922   -2.3114 C   0  0  0  0  0  0  0  0  0  0  0  0
   30.8335   -2.0549   -1.8673 C   0  0  0  0  0  0  0  0  0  0  0  0
   31.0291   -1.0526   -0.9466 N   0  0  0  0  0  0  0  0  0  0  0  0
   29.6143   -2.5106   -2.3165 C   0  0  0  0  0  0  0  0  0  0  0  0
   28.4035   -2.0239   -1.8783 C   0  0  0  0  0  0  0  0  0  0  0  0
   27.1448   -2.5277   -2.3349 C   0  0  0  0  0  0  0  0  0  0  0  0
   26.1890   -1.8348   -1.6720 C   0  0  0  0  0  0  0  0  0  0  0  0
   26.8710   -0.9099   -0.8202 C   0  0  0  0  0  0  0  0  0  0  0  0
   28.2252   -1.0276   -0.9470 N   0  0  0  0  0  0  0  0  0  0  0  0
   25.1518    1.9281    1.7610 H   0  0  0  0  0  0  0  0  0  0  0  0
   27.0895    3.3968    2.9568 H   0  0  0  0  0  0  0  0  0  0  0  0
   29.6655    3.4071    2.8725 H   0  0  0  0  0  0  0  0  0  0  0  0
   32.2424    3.4321    2.8631 H   0  0  0  0  0  0  0  0  0  0  0  0
   34.1558    1.9498    1.6457 H   0  0  0  0  0  0  0  0  0  0  0  0
   34.1210   -2.0223   -1.7195 H   0  0  0  0  0  0  0  0  0  0  0  0
   32.1835   -3.3880   -3.0321 H   0  0  0  0  0  0  0  0  0  0  0  0
   29.6074   -3.3078   -3.0509 H   0  0  0  0  0  0  0  0  0  0  0  0
   27.0300   -3.3122   -3.0658 H   0  0  0  0  0  0  0  0  0  0  0  0
   25.1168   -1.9250   -1.7404 H   0  0  0  0  0  0  0  0  0  0  0  0
  2  3  4  0  0  0  0
  3  4  1  0  0  0  0
  4  5  2  0  0  0  0
  5  6  1  0  0  0  0
  1  7  1  0  0  0  0
  3  7  4  0  0  0  0
  6  7  4  0  0  0  0
  6  8  4  0  0  0  0
  8  9  4  0  0  0  0
  9 10  1  0  0  0  0
 10 11  2  0  0  0  0
  1 12  1  0  0  0  0
  9 12  4  0  0  0  0
 11 13  4  0  0  0  0
 12 13  4  0  0  0  0
 13 14  4  0  0  0  0
 14 15  4  0  0  0  0
 15 16  4  0  0  0  0
 16 17  2  0  0  0  0
 17 18  1  0  0  0  0
  1 19  1  0  0  0  0
 15 19  4  0  0  0  0
 18 19  4  0  0  0  0
 18 20  4  0  0  0  0
 20 21  4  0  0  0  0
 21 22  1  0  0  0  0
 22 23  2  0  0  0  0
  2 24  4  0  0  0  0
 23 24  1  0  0  0  0
  1 25  1  0  0  0  0
 21 25  4  0  0  0  0
 24 25  4  0  0  0  0
  2 26  1  0  0  0  0
  4 27  1  0  0  0  0
  5 28  1  0  0  0  0
  8 29  1  0  0  0  0
 10 30  1  0  0  0  0
 11 31  1  0  0  0  0
 16 32  1  0  0  0  0
 17 33  1  0  0  0  0
 20 34  1  0  0  0  0
 22 35  1  0  0  0  0
 23 36  1  0  0  0  0
 38 39  4  0  0  0  0
 39 40  1  0  0  0  0
 40 41  2  0  0  0  0
 41 42  1  0  0  0  0
 37 43  1  0  0  0  0
 39 43  4  0  0  0  0
 42 43  4  0  0  0  0
 42 44  4  0  0  0  0
 44 45  4  0  0  0  0
 45 46  1  0  0  0  0
 46 47  2  0  0  0  0
 37 48  1  0  0  0  0
 45 48  4  0  0  0  0
 47 49  4  0  0  0  0
 48 49  4  0  0  0  0
 49 50  4  0  0  0  0
 50 51  4  0  0  0  0
 51 52  4  0  0  0  0
 52 53  2  0  0  0  0
 53 54  1  0  0  0  0
 37 55  1  0  0  0  0
 51 55  4  0  0  0  0
 54 55  4  0  0  0  0
 54 56  4  0  0  0  0
 56 57  4  0  0  0  0
 57 58  1  0  0  0  0
 58 59  2  0  0  0  0
 38 60  4  0  0  0  0
 59 60  1  0  0  0  0
 37 61  1  0  0  0  0
 57 61  4  0  0  0  0
 60 61  4  0  0  0  0
 38 62  1  0  0  0  0
 40 63  1  0  0  0  0
 41 64  1  0  0  0  0
 44 65  1  0  0  0  0
 46 66  1  0  0  0  0
 47 67  1  0  0  0  0
 52 68  1  0  0  0  0
 53 69  1  0  0  0  0
 56 70  1  0  0  0  0
 58 71  1  0  0  0  0
 59 72  1  0  0  0  0
 73 74  3  0  0  0  0
 74 75  4  0  0  0  0
 14 76  4  0  0  0  0
 75 76  3  0  0  0  0
 73 77  4  0  0  0  0
 77 78  3  0  0  0  0
 79 80  3  0  0  0  0
 80 81  4  0  0  0  0
 81 82  3  0  0  0  0
 79 83  4  0  0  0  0
 50 84  4  0  0  0  0
 83 84  3  0  0  0  0
 78 86  4  0  0  0  0
 86 87  4  0  0  0  0
 87 88  4  0  0  0  0
 88 89  2  0  0  0  0
 89 90  4  0  0  0  0
 85 91  1  0  0  0  0
 87 91  4  0  0  0  0
 90 91  4  0  0  0  0
 90 92  4  0  0  0  0
 92 93  4  0  0  0  0
 93 94  4  0  0  0  0
 94 95  2  0  0  0  0
 85 96  1  0  0  0  0
 93 96  4  0  0  0  0
 95 97  4  0  0  0  0
 96 97  4  0  0  0  0
 82 98  4  0  0  0  0
 97 98  4  0  0  0  0
 98 99  4  0  0  0  0
 99100  4  0  0  0  0
100101  2  0  0  0  0
101102  4  0  0  0  0
 85103  1  0  0  0  0
 99103  4  0  0  0  0
102103  4  0  0  0  0
102104  4  0  0  0  0
104105  4  0  0  0  0
105106  4  0  0  0  0
106107  2  0  0  0  0
 86108  4  0  0  0  0
107108  4  0  0  0  0
 85109  1  0  0  0  0
105109  4  0  0  0  0
108109  4  0  0  0  0
 88110  1  0  0  0  0
 89111  1  0  0  0  0
 92112  1  0  0  0  0
 94113  1  0  0  0  0
 95114  1  0  0  0  0
100115  1  0  0  0  0
101116  1  0  0  0  0
104117  1  0  0  0  0
106118  1  0  0  0  0
107119  1  0  0  0  0
M  END
