 xtb: 6.5.1 (b24c23e)
          07302206163D

189218  0     0  0            999 V2000
   26.0240   -0.0196   -0.0648 Ni  0  0  0  0  0  0  0  0  0  0  0  0
   22.6334   -0.0708   -0.2426 C   0  0  0  0  0  0  0  0  0  0  0  0
   23.2970   -1.2792   -0.2141 C   0  0  0  0  0  0  0  0  0  0  0  0
   22.6271   -2.5435   -0.2248 C   0  0  0  0  0  0  0  0  0  0  0  0
   23.5842   -3.4903   -0.0862 C   0  0  0  0  0  0  0  0  0  0  0  0
   24.8405   -2.8039   -0.0108 C   0  0  0  0  0  0  0  0  0  0  0  0
   24.6541   -1.4465   -0.0945 N   0  0  0  0  0  0  0  0  0  0  0  0
   26.0595   -3.4433    0.1733 C   0  0  0  0  0  0  0  0  0  0  0  0
   26.0778   -4.9220    0.2996 C   0  0  0  0  0  0  0  0  0  0  0  0
   25.6964   -5.7307   -0.7706 C   0  0  0  0  0  0  0  0  0  0  0  0
   25.7178   -7.1124   -0.6558 C   0  0  0  0  0  0  0  0  0  0  0  0
   26.1177   -7.7003    0.5419 C   0  0  0  0  0  0  0  0  0  0  0  0
   26.1504   -9.0488    0.6987 O   0  0  0  0  0  0  0  0  0  0  0  0
   26.4985   -6.9026    1.6194 C   0  0  0  0  0  0  0  0  0  0  0  0
   26.4807   -5.5248    1.4932 C   0  0  0  0  0  0  0  0  0  0  0  0
   27.2656   -2.7586    0.2284 C   0  0  0  0  0  0  0  0  0  0  0  0
   28.5363   -3.4077    0.3443 C   0  0  0  0  0  0  0  0  0  0  0  0
   29.4795   -2.4390    0.2673 C   0  0  0  0  0  0  0  0  0  0  0  0
   27.4307   -1.3981    0.0907 N   0  0  0  0  0  0  0  0  0  0  0  0
   28.7841   -1.2022    0.1058 C   0  0  0  0  0  0  0  0  0  0  0  0
   29.4387    0.0237   -0.0431 C   0  0  0  0  0  0  0  0  0  0  0  0
   28.7545    1.2364   -0.1602 C   0  0  0  0  0  0  0  0  0  0  0  0
   29.4187    2.4934   -0.2953 C   0  0  0  0  0  0  0  0  0  0  0  0
   28.4530    3.4430   -0.3113 C   0  0  0  0  0  0  0  0  0  0  0  0
   27.2005    2.7618   -0.1839 C   0  0  0  0  0  0  0  0  0  0  0  0
   27.3974    1.4007   -0.1150 N   0  0  0  0  0  0  0  0  0  0  0  0
   25.9743    3.4118   -0.1447 C   0  0  0  0  0  0  0  0  0  0  0  0
   25.9562    4.8947   -0.1652 C   0  0  0  0  0  0  0  0  0  0  0  0
   26.5396    5.6257    0.8724 C   0  0  0  0  0  0  0  0  0  0  0  0
   26.5227    7.0091    0.8605 C   0  0  0  0  0  0  0  0  0  0  0  0
   25.9247    7.6843   -0.2022 C   0  0  0  0  0  0  0  0  0  0  0  0
   25.9291    9.0419   -0.1837 O   0  0  0  0  0  0  0  0  0  0  0  0
   25.3437    6.9683   -1.2463 C   0  0  0  0  0  0  0  0  0  0  0  0
   25.3588    5.5822   -1.2218 C   0  0  0  0  0  0  0  0  0  0  0  0
   24.7651    2.7294   -0.1072 C   0  0  0  0  0  0  0  0  0  0  0  0
   23.4860    3.3756   -0.0661 C   0  0  0  0  0  0  0  0  0  0  0  0
   22.5509    2.3985   -0.1193 C   0  0  0  0  0  0  0  0  0  0  0  0
   23.2588    1.1563   -0.1697 C   0  0  0  0  0  0  0  0  0  0  0  0
   24.6149    1.3652   -0.1406 N   0  0  0  0  0  0  0  0  0  0  0  0
   21.5512   -0.0867   -0.3001 H   0  0  0  0  0  0  0  0  0  0  0  0
   21.5594   -2.6685   -0.3106 H   0  0  0  0  0  0  0  0  0  0  0  0
   23.4622   -4.5597   -0.0287 H   0  0  0  0  0  0  0  0  0  0  0  0
   25.3965   -5.2742   -1.7073 H   0  0  0  0  0  0  0  0  0  0  0  0
   25.4266   -7.7372   -1.4934 H   0  0  0  0  0  0  0  0  0  0  0  0
   25.8685   -9.5043   -0.1059 H   0  0  0  0  0  0  0  0  0  0  0  0
   26.8043   -7.3735    2.5455 H   0  0  0  0  0  0  0  0  0  0  0  0
   26.7684   -4.9034    2.3339 H   0  0  0  0  0  0  0  0  0  0  0  0
   28.6784   -4.4706    0.4519 H   0  0  0  0  0  0  0  0  0  0  0  0
   30.5522   -2.5376    0.3087 H   0  0  0  0  0  0  0  0  0  0  0  0
   30.4873    2.6166   -0.3668 H   0  0  0  0  0  0  0  0  0  0  0  0
   28.5677    4.5099   -0.4116 H   0  0  0  0  0  0  0  0  0  0  0  0
   26.9960    5.1003    1.7038 H   0  0  0  0  0  0  0  0  0  0  0  0
   26.9678    7.5789    1.6668 H   0  0  0  0  0  0  0  0  0  0  0  0
   25.4899    9.4068   -0.9637 H   0  0  0  0  0  0  0  0  0  0  0  0
   24.8838    7.4977   -2.0739 H   0  0  0  0  0  0  0  0  0  0  0  0
   24.9174    5.0262   -2.0415 H   0  0  0  0  0  0  0  0  0  0  0  0
   23.3357    4.4409   -0.0006 H   0  0  0  0  0  0  0  0  0  0  0  0
   21.4763    2.4898   -0.1152 H   0  0  0  0  0  0  0  0  0  0  0  0
   63.1648   -0.0046   -0.0332 Ni  0  0  0  0  0  0  0  0  0  0  0  0
   66.5539    0.0323   -0.2328 C   0  0  0  0  0  0  0  0  0  0  0  0
   65.8841    1.2277   -0.3886 C   0  0  0  0  0  0  0  0  0  0  0  0
   66.5468    2.4777   -0.6018 C   0  0  0  0  0  0  0  0  0  0  0  0
   65.5858    3.4307   -0.6025 C   0  0  0  0  0  0  0  0  0  0  0  0
   64.3343    2.7596   -0.4061 C   0  0  0  0  0  0  0  0  0  0  0  0
   64.5272    1.4061   -0.2837 N   0  0  0  0  0  0  0  0  0  0  0  0
   63.1158    3.4166   -0.2927 C   0  0  0  0  0  0  0  0  0  0  0  0
   63.0934    4.8976   -0.3884 C   0  0  0  0  0  0  0  0  0  0  0  0
   63.4449    5.5359   -1.5775 C   0  0  0  0  0  0  0  0  0  0  0  0
   63.4208    6.9191   -1.6718 C   0  0  0  0  0  0  0  0  0  0  0  0
   63.0481    7.6807   -0.5667 C   0  0  0  0  0  0  0  0  0  0  0  0
   63.0140    9.0373   -0.6141 O   0  0  0  0  0  0  0  0  0  0  0  0
   62.6974    7.0543    0.6279 C   0  0  0  0  0  0  0  0  0  0  0  0
   62.7178    5.6732    0.7105 C   0  0  0  0  0  0  0  0  0  0  0  0
   61.9153    2.7452   -0.1072 C   0  0  0  0  0  0  0  0  0  0  0  0
   60.6443    3.4013   -0.0481 C   0  0  0  0  0  0  0  0  0  0  0  0
   59.7048    2.4291    0.0310 C   0  0  0  0  0  0  0  0  0  0  0  0
   61.7543    1.3783   -0.0520 N   0  0  0  0  0  0  0  0  0  0  0  0
   60.4027    1.1832    0.0195 C   0  0  0  0  0  0  0  0  0  0  0  0
   59.7512   -0.0535    0.0312 C   0  0  0  0  0  0  0  0  0  0  0  0
   60.4394   -1.2697    0.0517 C   0  0  0  0  0  0  0  0  0  0  0  0
   59.7796   -2.5359    0.0738 C   0  0  0  0  0  0  0  0  0  0  0  0
   60.7488   -3.4769    0.1736 C   0  0  0  0  0  0  0  0  0  0  0  0
   61.9990   -2.7808    0.2142 C   0  0  0  0  0  0  0  0  0  0  0  0
   61.7972   -1.4225    0.1114 N   0  0  0  0  0  0  0  0  0  0  0  0
   63.2270   -3.4152    0.3450 C   0  0  0  0  0  0  0  0  0  0  0  0
   63.2493   -4.8875    0.5222 C   0  0  0  0  0  0  0  0  0  0  0  0
   62.6585   -5.4758    1.6430 C   0  0  0  0  0  0  0  0  0  0  0  0
   62.6769   -6.8485    1.8147 C   0  0  0  0  0  0  0  0  0  0  0  0
   63.2839   -7.6572    0.8554 C   0  0  0  0  0  0  0  0  0  0  0  0
   63.2798   -9.0005    1.0530 O   0  0  0  0  0  0  0  0  0  0  0  0
   63.8731   -7.0847   -0.2694 C   0  0  0  0  0  0  0  0  0  0  0  0
   63.8567   -5.7076   -0.4289 C   0  0  0  0  0  0  0  0  0  0  0  0
   64.4336   -2.7286    0.2988 C   0  0  0  0  0  0  0  0  0  0  0  0
   65.7148   -3.3568    0.4369 C   0  0  0  0  0  0  0  0  0  0  0  0
   66.6465   -2.3923    0.2525 C   0  0  0  0  0  0  0  0  0  0  0  0
   65.9342   -1.1730    0.0230 C   0  0  0  0  0  0  0  0  0  0  0  0
   64.5788   -1.3817    0.0770 N   0  0  0  0  0  0  0  0  0  0  0  0
   67.6359    0.0444   -0.2944 H   0  0  0  0  0  0  0  0  0  0  0  0
   67.6129    2.5922   -0.7171 H   0  0  0  0  0  0  0  0  0  0  0  0
   65.7025    4.4965   -0.7130 H   0  0  0  0  0  0  0  0  0  0  0  0
   63.7238    4.9435   -2.4417 H   0  0  0  0  0  0  0  0  0  0  0  0
   63.6888    7.4106   -2.6009 H   0  0  0  0  0  0  0  0  0  0  0  0
   63.2732    9.3663   -1.4853 H   0  0  0  0  0  0  0  0  0  0  0  0
   62.4128    7.6593    1.4798 H   0  0  0  0  0  0  0  0  0  0  0  0
   62.4540    5.1857    1.6423 H   0  0  0  0  0  0  0  0  0  0  0  0
   60.4989    4.4686   -0.0820 H   0  0  0  0  0  0  0  0  0  0  0  0
   58.6329    2.5301    0.0854 H   0  0  0  0  0  0  0  0  0  0  0  0
   58.7114   -2.6709    0.0210 H   0  0  0  0  0  0  0  0  0  0  0  0
   60.6380   -4.5484    0.2069 H   0  0  0  0  0  0  0  0  0  0  0  0
   62.1947   -4.8458    2.3937 H   0  0  0  0  0  0  0  0  0  0  0  0
   62.2258   -7.3073    2.6858 H   0  0  0  0  0  0  0  0  0  0  0  0
   63.7249   -9.4647    0.3314 H   0  0  0  0  0  0  0  0  0  0  0  0
   64.3401   -7.7181   -1.0160 H   0  0  0  0  0  0  0  0  0  0  0  0
   64.3044   -5.2641   -1.3113 H   0  0  0  0  0  0  0  0  0  0  0  0
   65.8686   -4.4018    0.6514 H   0  0  0  0  0  0  0  0  0  0  0  0
   67.7214   -2.4772    0.2744 H   0  0  0  0  0  0  0  0  0  0  0  0
   30.8436    0.0382   -0.0544 C   0  0  0  0  0  0  0  0  0  0  0  0
   32.0677    0.0431   -0.0619 C   0  0  0  0  0  0  0  0  0  0  0  0
   33.4110    0.0473   -0.0659 C   0  0  0  0  0  0  0  0  0  0  0  0
   34.6413    0.0482   -0.0672 C   0  0  0  0  0  0  0  0  0  0  0  0
   35.9798    0.0462   -0.0665 C   0  0  0  0  0  0  0  0  0  0  0  0
   37.2102    0.0448   -0.0651 C   0  0  0  0  0  0  0  0  0  0  0  0
   38.5533    0.0391   -0.0645 C   0  0  0  0  0  0  0  0  0  0  0  0
   39.7776    0.0342   -0.0641 C   0  0  0  0  0  0  0  0  0  0  0  0
   49.4133   -0.0671   -0.0000 C   0  0  0  0  0  0  0  0  0  0  0  0
   50.6377   -0.0813    0.0131 C   0  0  0  0  0  0  0  0  0  0  0  0
   51.9804   -0.0922    0.0236 C   0  0  0  0  0  0  0  0  0  0  0  0
   53.2109   -0.0994    0.0299 C   0  0  0  0  0  0  0  0  0  0  0  0
   54.5490   -0.1006    0.0310 C   0  0  0  0  0  0  0  0  0  0  0  0
   55.7795   -0.0967    0.0336 C   0  0  0  0  0  0  0  0  0  0  0  0
   57.1225   -0.0861    0.0356 C   0  0  0  0  0  0  0  0  0  0  0  0
   58.3467   -0.0736    0.0342 C   0  0  0  0  0  0  0  0  0  0  0  0
   44.5960    0.0008   -0.0583 Ni  0  0  0  0  0  0  0  0  0  0  0  0
   41.1816    0.0279   -0.0656 C   0  0  0  0  0  0  0  0  0  0  0  0
   41.8608    0.9689    0.7143 C   0  0  0  0  0  0  0  0  0  0  0  0
   41.1994    1.9211    1.5474 C   0  0  0  0  0  0  0  0  0  0  0  0
   42.1603    2.7409    2.0391 C   0  0  0  0  0  0  0  0  0  0  0  0
   43.4053    2.2902    1.4968 C   0  0  0  0  0  0  0  0  0  0  0  0
   43.2133    1.1724    0.7167 N   0  0  0  0  0  0  0  0  0  0  0  0
   44.6163    2.9429    1.6885 C   0  0  0  0  0  0  0  0  0  0  0  0
   44.6242    4.2185    2.4433 C   0  0  0  0  0  0  0  0  0  0  0  0
   45.3485    4.3360    3.6323 C   0  0  0  0  0  0  0  0  0  0  0  0
   45.3536    5.5224    4.3438 C   0  0  0  0  0  0  0  0  0  0  0  0
   44.6364    6.6182    3.8662 C   0  0  0  0  0  0  0  0  0  0  0  0
   44.6675    7.7682    4.5867 O   0  0  0  0  0  0  0  0  0  0  0  0
   43.9138    6.5170    2.6795 C   0  0  0  0  0  0  0  0  0  0  0  0
   43.9065    5.3211    1.9785 C   0  0  0  0  0  0  0  0  0  0  0  0
   45.8202    2.4462    1.2058 C   0  0  0  0  0  0  0  0  0  0  0  0
   47.0753    3.1192    1.3444 C   0  0  0  0  0  0  0  0  0  0  0  0
   48.0255    2.2768    0.8704 C   0  0  0  0  0  0  0  0  0  0  0  0
   45.9957    1.2212    0.6024 N   0  0  0  0  0  0  0  0  0  0  0  0
   47.3471    1.0993    0.4329 C   0  0  0  0  0  0  0  0  0  0  0  0
   48.0100   -0.0467   -0.0182 C   0  0  0  0  0  0  0  0  0  0  0  0
   47.3261   -1.1700   -0.4938 C   0  0  0  0  0  0  0  0  0  0  0  0
   47.9818   -2.3608   -0.9296 C   0  0  0  0  0  0  0  0  0  0  0  0
   47.0215   -3.1669   -1.4444 C   0  0  0  0  0  0  0  0  0  0  0  0
   45.7827   -2.4603   -1.3281 C   0  0  0  0  0  0  0  0  0  0  0  0
   45.9767   -1.2501   -0.7014 N   0  0  0  0  0  0  0  0  0  0  0  0
   44.5767   -2.9194   -1.8421 C   0  0  0  0  0  0  0  0  0  0  0  0
   44.5696   -4.1829   -2.6165 C   0  0  0  0  0  0  0  0  0  0  0  0
   43.8167   -5.2751   -2.1838 C   0  0  0  0  0  0  0  0  0  0  0  0
   43.8126   -6.4609   -2.9015 C   0  0  0  0  0  0  0  0  0  0  0  0
   44.5599   -6.5626   -4.0728 C   0  0  0  0  0  0  0  0  0  0  0  0
   44.5815   -7.7033   -4.8084 O   0  0  0  0  0  0  0  0  0  0  0  0
   45.3123   -5.4772   -4.5185 C   0  0  0  0  0  0  0  0  0  0  0  0
   45.3179   -4.3008   -3.7905 C   0  0  0  0  0  0  0  0  0  0  0  0
   43.3769   -2.2453   -1.6538 C   0  0  0  0  0  0  0  0  0  0  0  0
   42.1276   -2.6671   -2.2092 C   0  0  0  0  0  0  0  0  0  0  0  0
   41.1765   -1.8449   -1.7027 C   0  0  0  0  0  0  0  0  0  0  0  0
   41.8490   -0.9163   -0.8522 C   0  0  0  0  0  0  0  0  0  0  0  0
   43.1984   -1.1381   -0.8552 N   0  0  0  0  0  0  0  0  0  0  0  0
   40.1358    1.9480    1.7217 H   0  0  0  0  0  0  0  0  0  0  0  0
   42.0462    3.5747    2.7124 H   0  0  0  0  0  0  0  0  0  0  0  0
   45.8971    3.4802    4.0094 H   0  0  0  0  0  0  0  0  0  0  0  0
   45.9074    5.6145    5.2700 H   0  0  0  0  0  0  0  0  0  0  0  0
   44.1339    8.4594    4.1720 H   0  0  0  0  0  0  0  0  0  0  0  0
   43.3607    7.3736    2.3093 H   0  0  0  0  0  0  0  0  0  0  0  0
   43.3517    5.2461    1.0498 H   0  0  0  0  0  0  0  0  0  0  0  0
   47.2031    4.1093    1.7504 H   0  0  0  0  0  0  0  0  0  0  0  0
   49.0919    2.4251    0.8162 H   0  0  0  0  0  0  0  0  0  0  0  0
   49.0415   -2.5412   -0.8484 H   0  0  0  0  0  0  0  0  0  0  0  0
   47.1321   -4.1538   -1.8631 H   0  0  0  0  0  0  0  0  0  0  0  0
   43.2441   -5.2008   -1.2660 H   0  0  0  0  0  0  0  0  0  0  0  0
   43.2324   -7.3098   -2.5557 H   0  0  0  0  0  0  0  0  0  0  0  0
   44.0271   -8.3892   -4.4125 H   0  0  0  0  0  0  0  0  0  0  0  0
   45.8847   -5.5691   -5.4333 H   0  0  0  0  0  0  0  0  0  0  0  0
   45.8945   -3.4529   -4.1428 H   0  0  0  0  0  0  0  0  0  0  0  0
   42.0037   -3.4853   -2.8997 H   0  0  0  0  0  0  0  0  0  0  0  0
   40.1131   -1.8539   -1.8800 H   0  0  0  0  0  0  0  0  0  0  0  0
  2  3  4  0  0  0  0
  3  4  4  0  0  0  0
  4  5  2  0  0  0  0
  5  6  4  0  0  0  0
  1  7  1  0  0  0  0
  3  7  4  0  0  0  0
  6  7  4  0  0  0  0
  6  8  4  0  0  0  0
  8  9  1  0  0  0  0
  9 10  4  0  0  0  0
 10 11  4  0  0  0  0
 11 12  4  0  0  0  0
 12 13  1  0  0  0  0
 12 14  4  0  0  0  0
  9 15  4  0  0  0  0
 14 15  4  0  0  0  0
  8 16  4  0  0  0  0
 16 17  4  0  0  0  0
 17 18  2  0  0  0  0
  1 19  1  0  0  0  0
 16 19  4  0  0  0  0
 18 20  4  0  0  0  0
 19 20  4  0  0  0  0
 20 21  4  0  0  0  0
 21 22  4  0  0  0  0
 22 23  4  0  0  0  0
 23 24  2  0  0  0  0
 24 25  4  0  0  0  0
  1 26  1  0  0  0  0
 22 26  4  0  0  0  0
 25 26  4  0  0  0  0
 25 27  4  0  0  0  0
 27 28  1  0  0  0  0
 28 29  4  0  0  0  0
 29 30  4  0  0  0  0
 30 31  4  0  0  0  0
 31 32  1  0  0  0  0
 31 33  4  0  0  0  0
 28 34  4  0  0  0  0
 33 34  4  0  0  0  0
 27 35  4  0  0  0  0
 35 36  4  0  0  0  0
 36 37  2  0  0  0  0
  2 38  4  0  0  0  0
 37 38  4  0  0  0  0
  1 39  1  0  0  0  0
 35 39  4  0  0  0  0
 38 39  4  0  0  0  0
  2 40  1  0  0  0  0
  4 41  1  0  0  0  0
  5 42  1  0  0  0  0
 10 43  1  0  0  0  0
 11 44  1  0  0  0  0
 13 45  1  0  0  0  0
 14 46  1  0  0  0  0
 15 47  1  0  0  0  0
 17 48  1  0  0  0  0
 18 49  1  0  0  0  0
 23 50  1  0  0  0  0
 24 51  1  0  0  0  0
 29 52  1  0  0  0  0
 30 53  1  0  0  0  0
 32 54  1  0  0  0  0
 33 55  1  0  0  0  0
 34 56  1  0  0  0  0
 36 57  1  0  0  0  0
 37 58  1  0  0  0  0
 60 61  4  0  0  0  0
 61 62  4  0  0  0  0
 62 63  2  0  0  0  0
 63 64  4  0  0  0  0
 59 65  1  0  0  0  0
 61 65  4  0  0  0  0
 64 65  4  0  0  0  0
 64 66  4  0  0  0  0
 66 67  1  0  0  0  0
 67 68  4  0  0  0  0
 68 69  4  0  0  0  0
 69 70  4  0  0  0  0
 70 71  1  0  0  0  0
 70 72  4  0  0  0  0
 67 73  4  0  0  0  0
 72 73  4  0  0  0  0
 66 74  4  0  0  0  0
 74 75  4  0  0  0  0
 75 76  2  0  0  0  0
 59 77  1  0  0  0  0
 74 77  4  0  0  0  0
 76 78  4  0  0  0  0
 77 78  4  0  0  0  0
 78 79  4  0  0  0  0
 79 80  4  0  0  0  0
 80 81  4  0  0  0  0
 81 82  2  0  0  0  0
 82 83  4  0  0  0  0
 59 84  1  0  0  0  0
 80 84  4  0  0  0  0
 83 84  4  0  0  0  0
 83 85  4  0  0  0  0
 85 86  1  0  0  0  0
 86 87  4  0  0  0  0
 87 88  4  0  0  0  0
 88 89  4  0  0  0  0
 89 90  1  0  0  0  0
 89 91  4  0  0  0  0
 86 92  4  0  0  0  0
 91 92  4  0  0  0  0
 85 93  4  0  0  0  0
 93 94  4  0  0  0  0
 94 95  2  0  0  0  0
 60 96  4  0  0  0  0
 95 96  4  0  0  0  0
 59 97  1  0  0  0  0
 93 97  4  0  0  0  0
 96 97  4  0  0  0  0
 60 98  1  0  0  0  0
 62 99  1  0  0  0  0
 63100  1  0  0  0  0
 68101  1  0  0  0  0
 69102  1  0  0  0  0
 71103  1  0  0  0  0
 72104  1  0  0  0  0
 73105  1  0  0  0  0
 75106  1  0  0  0  0
 76107  1  0  0  0  0
 81108  1  0  0  0  0
 82109  1  0  0  0  0
 87110  1  0  0  0  0
 88111  1  0  0  0  0
 90112  1  0  0  0  0
 91113  1  0  0  0  0
 92114  1  0  0  0  0
 94115  1  0  0  0  0
 95116  1  0  0  0  0
 21117  4  0  0  0  0
117118  3  0  0  0  0
118119  4  0  0  0  0
119120  3  0  0  0  0
120121  4  0  0  0  0
121122  3  0  0  0  0
122123  4  0  0  0  0
123124  3  0  0  0  0
125126  3  0  0  0  0
126127  4  0  0  0  0
127128  3  0  0  0  0
128129  4  0  0  0  0
129130  3  0  0  0  0
130131  4  0  0  0  0
 79132  4  0  0  0  0
131132  3  0  0  0  0
124134  4  0  0  0  0
134135  4  0  0  0  0
135136  4  0  0  0  0
136137  2  0  0  0  0
137138  4  0  0  0  0
133139  1  0  0  0  0
135139  4  0  0  0  0
138139  4  0  0  0  0
138140  4  0  0  0  0
140141  1  0  0  0  0
141142  4  0  0  0  0
142143  4  0  0  0  0
143144  4  0  0  0  0
144145  1  0  0  0  0
144146  4  0  0  0  0
141147  4  0  0  0  0
146147  4  0  0  0  0
140148  4  0  0  0  0
148149  4  0  0  0  0
149150  2  0  0  0  0
133151  1  0  0  0  0
148151  4  0  0  0  0
150152  4  0  0  0  0
151152  4  0  0  0  0
125153  4  0  0  0  0
152153  4  0  0  0  0
153154  4  0  0  0  0
154155  4  0  0  0  0
155156  2  0  0  0  0
156157  4  0  0  0  0
133158  1  0  0  0  0
154158  4  0  0  0  0
157158  4  0  0  0  0
157159  4  0  0  0  0
159160  1  0  0  0  0
160161  4  0  0  0  0
161162  4  0  0  0  0
162163  4  0  0  0  0
163164  1  0  0  0  0
163165  4  0  0  0  0
160166  4  0  0  0  0
165166  4  0  0  0  0
159167  4  0  0  0  0
167168  4  0  0  0  0
168169  2  0  0  0  0
134170  4  0  0  0  0
169170  4  0  0  0  0
133171  1  0  0  0  0
167171  4  0  0  0  0
170171  4  0  0  0  0
136172  1  0  0  0  0
137173  1  0  0  0  0
142174  1  0  0  0  0
143175  1  0  0  0  0
145176  1  0  0  0  0
146177  1  0  0  0  0
147178  1  0  0  0  0
149179  1  0  0  0  0
150180  1  0  0  0  0
155181  1  0  0  0  0
156182  1  0  0  0  0
161183  1  0  0  0  0
162184  1  0  0  0  0
164185  1  0  0  0  0
165186  1  0  0  0  0
166187  1  0  0  0  0
168188  1  0  0  0  0
169189  1  0  0  0  0
M  END
