556

C 116.489482 0.016721 0.059332
C 117.214349 1.210049 -0.635045
C 116.599544 2.235403 -1.316771
C 117.620559 3.127353 -1.735153
C 118.824959 2.618758 -1.289048
N 118.568756 1.425995 -0.660039
C 120.251568 3.293170 -1.443408
C 120.297339 4.690974 -1.933908
C 120.563002 4.950429 -3.285191
C 120.598784 6.262984 -3.758671
C 120.364983 7.314263 -2.874643
O 120.392635 8.611595 -3.302119
C 120.097400 7.074100 -1.531059
C 120.063475 5.760003 -1.059824
C 121.381375 2.612344 -1.110055
C 122.690387 3.229558 -1.174246
C 123.592542 2.342804 -0.770975
N 121.574677 1.331533 -0.663025
C 122.909024 1.107299 -0.441946
C 123.577007 0.006257 -0.005252
C 122.796918 -1.339624 0.310876
C 123.333956 -2.612280 0.306061
C 122.309165 -3.510843 0.693192
C 121.171503 -2.763854 0.912397
N 121.464911 -1.450332 0.629447
C 119.762722 -3.320182 1.384597
C 119.729033 -4.633600 2.066651
C 120.107744 -4.744726 3.410084
C 120.088046 -5.987773 4.046447
C 119.691160 -7.115868 3.336403
O 119.681929 -8.315805 3.989541
C 119.313985 -7.024953 1.998329
C 119.335758 -5.781348 1.364829
C 118.639056 -2.591075 1.157509
C 117.318831 -3.032003 1.572576
C 116.434015 -2.113755 1.195931
C 117.154454 -1.050944 0.538761
N 118.474372 -1.378012 0.548759
H 115.412840 0.071435 0.167399
H 115.537848 2.338610 -1.479737
H 117.488471 4.050037 -2.279879
H 119.272780 0.804205 -0.269574
H 120.745557 4.113314 -3.956018
H 120.809688 6.434494 -4.807662
H 120.610112 8.597603 -4.247543
H 119.917479 7.898091 -0.849360
H 119.858039 5.553117 -0.011968
H 122.905306 4.238422 -1.478369
H 124.648700 2.531447 -0.710392
H 124.353814 -2.869116 0.063438
H 122.392876 -4.581422 0.804049
H 120.784281 -0.695183 0.607302
H 120.415047 -3.852282 3.950549
H 120.380669 -6.066965 5.087687
H 119.372672 -8.984040 3.357879
H 119.002004 -7.894582 1.432071
H 119.043591 -5.685422 0.320932
H 117.090763 -3.941095 2.099160
H 115.372083 -2.146135 1.358833
C 236.414975 0.054910 0.038492
C 235.690108 -1.174710 0.666368
C 236.304913 -2.302806 1.159826
C 235.283899 -3.137254 1.683575
C 234.079498 -2.486908 1.497221
N 234.335701 -1.312568 0.834453
C 232.652890 -2.981618 1.980876
C 232.607118 -4.150411 2.891022
C 232.341455 -5.427202 2.378101
C 232.305674 -6.535558 3.225763
C 232.539474 -6.360903 4.588183
O 232.511823 -7.422334 5.447934
C 232.807058 -5.101025 5.113163
C 232.840982 -3.993723 4.262989
C 231.523082 -2.332907 1.588672
C 230.214070 -2.720838 2.073011
C 229.311915 -1.901908 1.545454
N 231.329780 -1.263970 0.753395
C 229.995433 -0.956723 0.684434
C 229.327450 0.006257 -0.005252
C 230.107540 1.000312 -0.966077
C 229.570501 1.684842 -2.038969
C 230.595292 2.496586 -2.585189
C 231.732955 2.276772 -1.838379
N 231.439546 1.328126 -0.886816
C 233.141735 2.974890 -2.050757
C 233.175425 4.259121 -2.786295
C 232.796713 5.449056 -2.152877
C 232.816412 6.656787 -2.853955
C 233.213298 6.670011 -4.186842
O 233.222529 7.868525 -4.842588
C 233.590473 5.495519 -4.834357
C 233.568699 4.289894 -4.131260
C 234.265401 2.389425 -1.560455
C 235.585627 2.977057 -1.706695
C 236.470443 2.163481 -1.138246
C 235.750003 1.035769 -0.600002
N 234.430086 1.221139 -0.869653
H 237.491617 0.116188 0.142976
H 237.366610 -2.495699 1.158447
H 235.415987 -4.094585 2.164813
H 233.631678 -0.647769 0.522799
H 232.158900 -5.538432 1.311143
H 232.094769 -7.510542 2.802437
H 232.294345 -8.209852 4.924638
H 232.986978 -4.973550 6.174966
H 233.046419 -3.000552 4.655950
H 229.999151 -3.522453 2.756904
H 228.255758 -1.953025 1.736879
H 228.550643 1.619761 -2.386237
H 230.511581 3.169058 -3.425551
H 232.120177 0.900924 -0.263728
H 232.489410 5.420718 -1.109922
H 232.523788 7.575302 -2.357186
H 233.531785 7.698858 -5.746330
H 233.902454 5.489822 -5.872080
H 233.860866 3.360089 -4.615393
H 235.813694 3.911777 -2.186318
H 237.532374 2.317998 -1.077338
C 127.257703 0.018988 -0.002727
C 126.005433 -0.000193 -0.007075
C 128.571371 0.018222 -0.000794
C 130.074505 -0.000193 -0.007075
C 141.102073 0.018988 -0.002727
C 139.849803 -0.000193 -0.007075
C 142.415741 0.018222 -0.000794
C 143.918875 -0.000193 -0.007075
C 154.946443 0.018988 -0.002727
C 153.694173 -0.000193 -0.007075
C 156.260111 0.018222 -0.000794
C 157.763245 -0.000193 -0.007075
C 168.790813 0.018988 -0.002727
C 167.538542 -0.000193 -0.007075
C 170.104481 0.018222 -0.000794
C 171.607615 -0.000193 -0.007075
C 182.635183 0.018988 -0.002727
C 181.382912 -0.000193 -0.007075
C 183.948851 0.018222 -0.000794
C 185.451985 -0.000193 -0.007075
C 196.479553 0.018988 -0.002727
C 195.227282 -0.000193 -0.007075
C 197.793221 0.018222 -0.000794
C 199.296355 -0.000193 -0.007075
C 210.323923 0.018988 -0.002727
C 209.071652 -0.000193 -0.007075
C 211.637591 0.018222 -0.000794
C 213.140725 -0.000193 -0.007075
C 224.168293 0.018988 -0.002727
C 222.916022 -0.000193 -0.007075
C 225.481961 0.018222 -0.000794
C 226.985094 -0.000193 -0.007075
C 131.351740 -0.001803 0.002084
C 132.155882 -1.033375 -0.903232
C 131.645111 -1.764582 -1.960511
C 132.680951 -2.581876 -2.457305
C 133.800894 -2.327937 -1.685528
N 133.489863 -1.331013 -0.794305
C 135.204211 -3.062325 -1.820069
C 135.206749 -4.406407 -2.438238
C 135.679366 -4.579223 -3.747370
C 135.684297 -5.843247 -4.337316
C 135.204677 -6.931647 -3.612419
O 135.188261 -8.184470 -4.158376
C 134.713634 -6.778626 -2.321612
C 134.714604 -5.513224 -1.734701
C 136.334004 -2.461800 -1.369486
C 137.627577 -3.109564 -1.436814
C 138.540013 -2.272677 -0.945423
N 136.535988 -1.241902 -0.796998
C 137.866568 -1.058010 -0.536737
C 138.522487 -0.001803 0.002084
C 137.722476 1.303495 0.432879
C 138.267447 2.555274 0.635573
C 137.246231 3.387650 1.134555
C 136.084877 2.639263 1.171136
N 136.382358 1.377104 0.718172
C 134.669081 3.137871 1.706551
C 134.639356 4.354946 2.551404
C 134.787683 5.615162 1.960145
C 134.747911 6.773767 2.741140
C 134.522324 6.668296 4.112125
O 134.427828 7.815958 4.844543
C 134.379435 5.421312 4.721085
C 134.450651 4.264852 3.938164
C 133.531838 2.449506 1.394372
C 132.232367 2.867059 1.878464
C 131.326164 1.995767 1.432560
C 132.004016 1.014251 0.617824
N 133.333253 1.345613 0.629996
H 130.630808 -1.722280 -2.322979
H 132.622265 -3.294831 -3.272424
H 134.154304 -0.869586 -0.176920
H 136.048958 -3.712915 -4.296617
H 136.077208 -5.947471 -5.336038
H 135.489435 -8.099697 -5.076973
H 134.326435 -7.631627 -1.782160
H 134.331095 -5.369792 -0.726590
H 137.836038 -4.099244 -1.810742
H 139.589251 -2.488036 -0.865996
H 139.301193 2.829334 0.491491
H 137.352149 4.416271 1.456473
H 135.709781 0.627393 0.606092
H 134.935831 5.679587 0.884160
H 134.873267 7.748379 2.286931
H 133.815574 7.619294 5.581155
H 134.213772 5.328679 5.786319
H 134.335639 3.282743 4.386655
H 132.016235 3.725579 2.489544
H 130.270176 2.053268 1.631007
C 145.196110 -0.001803 0.002084
C 146.000252 -1.033375 -0.903232
C 145.489481 -1.764582 -1.960511
C 146.525320 -2.581876 -2.457305
C 147.645264 -2.327937 -1.685528
N 147.334233 -1.331013 -0.794305
C 149.048581 -3.062325 -1.820069
C 149.051118 -4.406407 -2.438238
C 149.523736 -4.579223 -3.747370
C 149.528667 -5.843247 -4.337316
C 149.049047 -6.931647 -3.612419
O 149.032631 -8.184470 -4.158376
C 148.558004 -6.778626 -2.321612
C 148.558974 -5.513224 -1.734701
C 150.178374 -2.461800 -1.369486
C 151.471947 -3.109564 -1.436814
C 152.384383 -2.272677 -0.945423
N 150.380358 -1.241902 -0.796998
C 151.710938 -1.058010 -0.536737
C 152.366857 -0.001803 0.002084
C 151.566846 1.303495 0.432879
C 152.111817 2.555274 0.635573
C 151.090601 3.387650 1.134555
C 149.929247 2.639263 1.171136
N 150.226728 1.377104 0.718172
C 148.513451 3.137871 1.706551
C 148.483726 4.354946 2.551404
C 148.632053 5.615162 1.960145
C 148.592281 6.773767 2.741140
C 148.366694 6.668296 4.112125
O 148.272198 7.815958 4.844543
C 148.223805 5.421312 4.721085
C 148.295021 4.264852 3.938164
C 147.376208 2.449506 1.394372
C 146.076737 2.867059 1.878464
C 145.170534 1.995767 1.432560
C 145.848386 1.014251 0.617824
N 147.177623 1.345613 0.629996
H 144.475178 -1.722280 -2.322979
H 146.466635 -3.294831 -3.272424
H 147.998674 -0.869586 -0.176920
H 149.893328 -3.712915 -4.296617
H 149.921578 -5.947471 -5.336038
H 149.333805 -8.099697 -5.076973
H 148.170805 -7.631627 -1.782160
H 148.175465 -5.369792 -0.726590
H 151.680408 -4.099244 -1.810742
H 153.433621 -2.488036 -0.865996
H 153.145563 2.829334 0.491491
H 151.196519 4.416271 1.456473
H 149.554151 0.627393 0.606092
H 148.780201 5.679587 0.884160
H 148.717637 7.748379 2.286931
H 147.659944 7.619294 5.581155
H 148.058142 5.328679 5.786319
H 148.180009 3.282743 4.386655
H 145.860604 3.725579 2.489544
H 144.114546 2.053268 1.631007
C 159.040480 -0.001803 0.002084
C 159.844622 -1.033375 -0.903232
C 159.333851 -1.764582 -1.960511
C 160.369690 -2.581876 -2.457305
C 161.489634 -2.327937 -1.685528
N 161.178603 -1.331013 -0.794305
C 162.892951 -3.062325 -1.820069
C 162.895488 -4.406407 -2.438238
C 163.368106 -4.579223 -3.747370
C 163.373037 -5.843247 -4.337316
C 162.893417 -6.931647 -3.612419
O 162.877001 -8.184470 -4.158376
C 162.402374 -6.778626 -2.321612
C 162.403344 -5.513224 -1.734701
C 164.022744 -2.461800 -1.369486
C 165.316317 -3.109564 -1.436814
C 166.228753 -2.272677 -0.945423
N 164.224728 -1.241902 -0.796998
C 165.555308 -1.058010 -0.536737
C 166.211227 -0.001803 0.002084
C 165.411216 1.303495 0.432879
C 165.956187 2.555274 0.635573
C 164.934971 3.387650 1.134555
C 163.773616 2.639263 1.171136
N 164.071098 1.377104 0.718172
C 162.357821 3.137871 1.706551
C 162.328096 4.354946 2.551404
C 162.476423 5.615162 1.960145
C 162.436651 6.773767 2.741140
C 162.211064 6.668296 4.112125
O 162.116568 7.815958 4.844543
C 162.068175 5.421312 4.721085
C 162.139391 4.264852 3.938164
C 161.220578 2.449506 1.394372
C 159.921107 2.867059 1.878464
C 159.014904 1.995767 1.432560
C 159.692756 1.014251 0.617824
N 161.021993 1.345613 0.629996
H 158.319548 -1.722280 -2.322979
H 160.311005 -3.294831 -3.272424
H 161.843044 -0.869586 -0.176920
H 163.737698 -3.712915 -4.296617
H 163.765948 -5.947471 -5.336038
H 163.178175 -8.099697 -5.076973
H 162.015175 -7.631627 -1.782160
H 162.019834 -5.369792 -0.726590
H 165.524777 -4.099244 -1.810742
H 167.277990 -2.488036 -0.865996
H 166.989933 2.829334 0.491491
H 165.040889 4.416271 1.456473
H 163.398521 0.627393 0.606092
H 162.624571 5.679587 0.884160
H 162.562007 7.748379 2.286931
H 161.504314 7.619294 5.581155
H 161.902511 5.328679 5.786319
H 162.024379 3.282743 4.386655
H 159.704974 3.725579 2.489544
H 157.958916 2.053268 1.631007
C 172.884850 -0.001803 0.002084
C 173.688992 -1.033375 -0.903232
C 173.178221 -1.764582 -1.960511
C 174.214060 -2.581876 -2.457305
C 175.334003 -2.327937 -1.685528
N 175.022973 -1.331013 -0.794305
C 176.737321 -3.062325 -1.820069
C 176.739858 -4.406407 -2.438238
C 177.212476 -4.579223 -3.747370
C 177.217407 -5.843247 -4.337316
C 176.737787 -6.931647 -3.612419
O 176.721371 -8.184470 -4.158376
C 176.246744 -6.778626 -2.321612
C 176.247714 -5.513224 -1.734701
C 177.867114 -2.461800 -1.369486
C 179.160687 -3.109564 -1.436814
C 180.073123 -2.272677 -0.945423
N 178.069098 -1.241902 -0.796998
C 179.399678 -1.058010 -0.536737
C 180.055597 -0.001803 0.002084
C 179.255586 1.303495 0.432879
C 179.800557 2.555274 0.635573
C 178.779341 3.387650 1.134555
C 177.617986 2.639263 1.171136
N 177.915468 1.377104 0.718172
C 176.202191 3.137871 1.706551
C 176.172466 4.354946 2.551404
C 176.320793 5.615162 1.960145
C 176.281021 6.773767 2.741140
C 176.055434 6.668296 4.112125
O 175.960938 7.815958 4.844543
C 175.912545 5.421312 4.721085
C 175.983761 4.264852 3.938164
C 175.064948 2.449506 1.394372
C 173.765477 2.867059 1.878464
C 172.859274 1.995767 1.432560
C 173.537126 1.014251 0.617824
N 174.866363 1.345613 0.629996
H 172.163918 -1.722280 -2.322979
H 174.155375 -3.294831 -3.272424
H 175.687414 -0.869586 -0.176920
H 177.582068 -3.712915 -4.296617
H 177.610318 -5.947471 -5.336038
H 177.022545 -8.099697 -5.076973
H 175.859545 -7.631627 -1.782160
H 175.864204 -5.369792 -0.726590
H 179.369147 -4.099244 -1.810742
H 181.122360 -2.488036 -0.865996
H 180.834303 2.829334 0.491491
H 178.885259 4.416271 1.456473
H 177.242891 0.627393 0.606092
H 176.468941 5.679587 0.884160
H 176.406377 7.748379 2.286931
H 175.348684 7.619294 5.581155
H 175.746881 5.328679 5.786319
H 175.868749 3.282743 4.386655
H 173.549344 3.725579 2.489544
H 171.803286 2.053268 1.631007
C 186.729220 -0.001803 0.002084
C 187.533361 -1.033375 -0.903232
C 187.022591 -1.764582 -1.960511
C 188.058430 -2.581876 -2.457305
C 189.178373 -2.327937 -1.685528
N 188.867343 -1.331013 -0.794305
C 190.581691 -3.062325 -1.820069
C 190.584228 -4.406407 -2.438238
C 191.056846 -4.579223 -3.747370
C 191.061777 -5.843247 -4.337316
C 190.582157 -6.931647 -3.612419
O 190.565741 -8.184470 -4.158376
C 190.091114 -6.778626 -2.321612
C 190.092084 -5.513224 -1.734701
C 191.711484 -2.461800 -1.369486
C 193.005056 -3.109564 -1.436814
C 193.917493 -2.272677 -0.945423
N 191.913467 -1.241902 -0.796998
C 193.244048 -1.058010 -0.536737
C 193.899967 -0.001803 0.002084
C 193.099956 1.303495 0.432879
C 193.644927 2.555274 0.635573
C 192.623711 3.387650 1.134555
C 191.462356 2.639263 1.171136
N 191.759838 1.377104 0.718172
C 190.046561 3.137871 1.706551
C 190.016836 4.354946 2.551404
C 190.165163 5.615162 1.960145
C 190.125391 6.773767 2.741140
C 189.899804 6.668296 4.112125
O 189.805308 7.815958 4.844543
C 189.756915 5.421312 4.721085
C 189.828131 4.264852 3.938164
C 188.909318 2.449506 1.394372
C 187.609847 2.867059 1.878464
C 186.703644 1.995767 1.432560
C 187.381496 1.014251 0.617824
N 188.710733 1.345613 0.629996
H 186.008288 -1.722280 -2.322979
H 187.999745 -3.294831 -3.272424
H 189.531784 -0.869586 -0.176920
H 191.426438 -3.712915 -4.296617
H 191.454688 -5.947471 -5.336038
H 190.866915 -8.099697 -5.076973
H 189.703915 -7.631627 -1.782160
H 189.708574 -5.369792 -0.726590
H 193.213517 -4.099244 -1.810742
H 194.966730 -2.488036 -0.865996
H 194.678673 2.829334 0.491491
H 192.729629 4.416271 1.456473
H 191.087261 0.627393 0.606092
H 190.313311 5.679587 0.884160
H 190.250747 7.748379 2.286931
H 189.193054 7.619294 5.581155
H 189.591251 5.328679 5.786319
H 189.713119 3.282743 4.386655
H 187.393714 3.725579 2.489544
H 185.647655 2.053268 1.631007
C 200.573590 -0.001803 0.002084
C 201.377731 -1.033375 -0.903232
C 200.866961 -1.764582 -1.960511
C 201.902800 -2.581876 -2.457305
C 203.022743 -2.327937 -1.685528
N 202.711713 -1.331013 -0.794305
C 204.426061 -3.062325 -1.820069
C 204.428598 -4.406407 -2.438238
C 204.901216 -4.579223 -3.747370
C 204.906147 -5.843247 -4.337316
C 204.426527 -6.931647 -3.612419
O 204.410111 -8.184470 -4.158376
C 203.935484 -6.778626 -2.321612
C 203.936454 -5.513224 -1.734701
C 205.555854 -2.461800 -1.369486
C 206.849426 -3.109564 -1.436814
C 207.761863 -2.272677 -0.945423
N 205.757837 -1.241902 -0.796998
C 207.088418 -1.058010 -0.536737
C 207.744337 -0.001803 0.002084
C 206.944326 1.303495 0.432879
C 207.489297 2.555274 0.635573
C 206.468081 3.387650 1.134555
C 205.306726 2.639263 1.171136
N 205.604207 1.377104 0.718172
C 203.890931 3.137871 1.706551
C 203.861206 4.354946 2.551404
C 204.009533 5.615162 1.960145
C 203.969761 6.773767 2.741140
C 203.744174 6.668296 4.112125
O 203.649678 7.815958 4.844543
C 203.601285 5.421312 4.721085
C 203.672501 4.264852 3.938164
C 202.753688 2.449506 1.394372
C 201.454217 2.867059 1.878464
C 200.548014 1.995767 1.432560
C 201.225866 1.014251 0.617824
N 202.555103 1.345613 0.629996
H 199.852658 -1.722280 -2.322979
H 201.844115 -3.294831 -3.272424
H 203.376154 -0.869586 -0.176920
H 205.270807 -3.712915 -4.296617
H 205.299058 -5.947471 -5.336038
H 204.711285 -8.099697 -5.076973
H 203.548285 -7.631627 -1.782160
H 203.552944 -5.369792 -0.726590
H 207.057887 -4.099244 -1.810742
H 208.811100 -2.488036 -0.865996
H 208.523043 2.829334 0.491491
H 206.573999 4.416271 1.456473
H 204.931631 0.627393 0.606092
H 204.157681 5.679587 0.884160
H 204.095117 7.748379 2.286931
H 203.037424 7.619294 5.581155
H 203.435621 5.328679 5.786319
H 203.557489 3.282743 4.386655
H 201.238084 3.725579 2.489544
H 199.492025 2.053268 1.631007
C 214.417960 -0.001803 0.002084
C 215.222101 -1.033375 -0.903232
C 214.711331 -1.764582 -1.960511
C 215.747170 -2.581876 -2.457305
C 216.867113 -2.327937 -1.685528
N 216.556083 -1.331013 -0.794305
C 218.270431 -3.062325 -1.820069
C 218.272968 -4.406407 -2.438238
C 218.745585 -4.579223 -3.747370
C 218.750517 -5.843247 -4.337316
C 218.270897 -6.931647 -3.612419
O 218.254481 -8.184470 -4.158376
C 217.779854 -6.778626 -2.321612
C 217.780824 -5.513224 -1.734701
C 219.400224 -2.461800 -1.369486
C 220.693796 -3.109564 -1.436814
C 221.606233 -2.272677 -0.945423
N 219.602207 -1.241902 -0.796998
C 220.932788 -1.058010 -0.536737
C 221.588706 -0.001803 0.002084
C 220.788696 1.303495 0.432879
C 221.333666 2.555274 0.635573
C 220.312451 3.387650 1.134555
C 219.151096 2.639263 1.171136
N 219.448577 1.377104 0.718172
C 217.735301 3.137871 1.706551
C 217.705576 4.354946 2.551404
C 217.853903 5.615162 1.960145
C 217.814131 6.773767 2.741140
C 217.588544 6.668296 4.112125
O 217.494048 7.815958 4.844543
C 217.445655 5.421312 4.721085
C 217.516871 4.264852 3.938164
C 216.598058 2.449506 1.394372
C 215.298587 2.867059 1.878464
C 214.392384 1.995767 1.432560
C 215.070236 1.014251 0.617824
N 216.399473 1.345613 0.629996
H 213.697028 -1.722280 -2.322979
H 215.688485 -3.294831 -3.272424
H 217.220524 -0.869586 -0.176920
H 219.115177 -3.712915 -4.296617
H 219.143427 -5.947471 -5.336038
H 218.555655 -8.099697 -5.076973
H 217.392655 -7.631627 -1.782160
H 217.397314 -5.369792 -0.726590
H 220.902257 -4.099244 -1.810742
H 222.655470 -2.488036 -0.865996
H 222.367413 2.829334 0.491491
H 220.418369 4.416271 1.456473
H 218.776000 0.627393 0.606092
H 218.002051 5.679587 0.884160
H 217.939487 7.748379 2.286931
H 216.881794 7.619294 5.581155
H 217.279991 5.328679 5.786319
H 217.401859 3.282743 4.386655
H 215.082454 3.725579 2.489544
H 213.336395 2.053268 1.631007
