258

C 22.212927 -0.002745 -0.001061
C 22.947361 -1.379903 -0.072947
C 22.360215 -2.623567 -0.137864
C 23.412133 -3.579465 -0.187765
C 24.600586 -2.882279 -0.151377
N 24.308893 -1.546600 -0.081650
C 26.031941 -3.500601 -0.183662
C 27.154503 -2.755794 -0.144779
C 28.439489 -3.408261 -0.178849
C 29.376772 -2.467032 -0.129711
N 27.376334 -1.413578 -0.074703
C 28.725712 -1.169165 -0.061950
C 29.422474 -0.001413 -0.000990
C 28.647808 1.390875 0.071697
C 29.211387 2.651414 0.137511
C 28.153363 3.595572 0.186799
C 26.975451 2.885642 0.149727
N 27.280800 1.548506 0.079919
C 25.542654 3.510204 0.182325
C 24.425134 2.760596 0.143190
C 23.121365 3.385318 0.175796
C 22.204882 2.421264 0.125470
C 22.898937 1.155628 0.059407
N 24.235018 1.416854 0.073046
H 21.130211 0.005473 -0.000635
H 21.299539 -2.821233 -0.148181
H 23.312869 -4.652527 -0.243781
H 24.988918 -0.790561 -0.042187
H 26.109984 -4.580034 -0.240021
H 28.604449 -4.469175 -0.234240
H 30.434811 -2.654431 -0.139499
H 30.266761 2.876190 0.149251
H 28.241790 4.669668 0.242877
H 26.602097 0.790665 0.040353
H 25.461422 4.589084 0.238642
H 22.935390 4.442473 0.230978
H 21.138000 2.550665 0.132221
C 125.113013 -0.000101 -0.001231
C 124.378579 1.356435 -0.249307
C 124.965725 2.581477 -0.473333
C 123.913807 3.523060 -0.645529
C 122.725354 2.836314 -0.519945
N 123.017047 1.520636 -0.279336
C 121.293999 3.445376 -0.631336
C 120.171437 2.711723 -0.497165
C 118.886451 3.354417 -0.614709
C 117.949168 2.427284 -0.445154
N 119.949606 1.389606 -0.255370
C 118.600228 1.148852 -0.211348
C 117.903466 -0.001413 -0.000990
C 118.678132 -1.372851 0.249822
C 118.114553 -2.614512 0.476904
C 119.172577 -3.544532 0.646985
C 120.350488 -2.845235 0.519087
N 120.045140 -1.528123 0.278210
C 121.783286 -3.460445 0.631589
C 122.900806 -2.722062 0.496552
C 124.204575 -3.337430 0.609083
C 125.121058 -2.387812 0.435419
C 124.427003 -1.141128 0.207435
N 123.090922 -1.398442 0.254495
H 126.195729 -0.008196 0.000246
H 126.026401 2.776184 -0.508939
H 124.013071 4.580054 -0.838829
H 122.337022 0.775918 -0.143148
H 121.215956 4.508644 -0.825794
H 118.721491 4.399444 -0.805830
H 116.891129 2.611876 -0.478917
H 117.059179 -2.835921 0.517401
H 119.084150 -4.602543 0.840479
H 120.723843 -0.781630 0.141689
H 121.864517 -4.523169 0.825935
H 124.390550 -4.378755 0.799513
H 126.187940 -2.515276 0.458725
C 32.655348 0.007700 0.005384
C 34.113574 -0.014137 -0.012490
C 35.247502 -0.034890 -0.013980
C 36.608884 -0.047480 -0.016171
C 37.883103 -0.037174 -0.020937
C 39.071565 -0.018376 -0.027093
C 40.423926 0.006409 -0.011225
C 41.524193 0.007700 0.005384
C 50.922712 0.007700 0.005384
C 52.380939 -0.014137 -0.012490
C 53.514867 -0.034890 -0.013980
C 54.876248 -0.047480 -0.016171
C 56.150467 -0.037174 -0.020937
C 57.338930 -0.018376 -0.027093
C 58.691290 0.006409 -0.011225
C 59.791558 0.007700 0.005384
C 69.190077 0.007700 0.005384
C 70.648303 -0.014137 -0.012490
C 71.782231 -0.034890 -0.013980
C 73.143613 -0.047480 -0.016171
C 74.417832 -0.037174 -0.020937
C 75.606294 -0.018376 -0.027093
C 76.958655 0.006409 -0.011225
C 78.058922 0.007700 0.005384
C 87.457442 0.007700 0.005384
C 88.915668 -0.014137 -0.012490
C 90.049596 -0.034890 -0.013980
C 91.410978 -0.047480 -0.016171
C 92.685197 -0.037174 -0.020937
C 93.873659 -0.018376 -0.027093
C 95.226020 0.006409 -0.011225
C 96.326287 0.007700 0.005384
C 105.724806 0.007700 0.005384
C 107.183032 -0.014137 -0.012490
C 108.316960 -0.034890 -0.013980
C 109.678342 -0.047480 -0.016171
C 110.952561 -0.037174 -0.020937
C 112.141023 -0.018376 -0.027093
C 113.493384 0.006409 -0.011225
C 114.593652 0.007700 0.005384
C 42.607227 -0.001413 -0.000987
C 43.387267 1.386122 -0.018312
C 42.835162 2.652224 -0.034135
C 43.903779 3.584847 -0.045768
C 45.074687 2.861219 -0.036708
N 44.755994 1.528192 -0.020066
C 46.507059 3.475887 -0.044355
C 47.632684 2.737835 -0.035147
C 48.912982 3.401232 -0.043401
C 49.857432 2.466260 -0.031739
N 47.862674 1.397343 -0.018440
C 49.214405 1.163789 -0.015515
C 49.916619 -0.001413 -0.000987
C 49.136579 -1.388948 0.016295
C 49.688684 -2.655051 0.032031
C 48.620067 -3.587674 0.043667
C 47.449159 -2.864045 0.034695
N 47.767852 -1.531017 0.018092
C 46.016788 -3.478712 0.042387
C 44.891163 -2.740660 0.033185
C 43.610865 -3.404056 0.041483
C 42.666414 -2.469084 0.029820
C 43.309441 -1.166615 0.013551
N 44.661173 -1.400169 0.016452
H 41.781959 2.887446 -0.037090
H 43.827149 4.661348 -0.059215
H 45.420807 0.757583 -0.010439
H 46.583947 4.557226 -0.057829
H 49.070128 4.464777 -0.056653
H 50.914326 2.660463 -0.034148
H 50.741887 -2.890274 0.034925
H 48.696696 -4.664175 0.057060
H 47.103039 -0.760408 0.008508
H 45.939899 -4.560051 0.055889
H 43.453719 -4.467600 0.054764
H 41.609520 -2.663287 0.032257
C 60.874592 -0.001413 -0.000987
C 61.654632 1.386122 -0.018312
C 61.102527 2.652224 -0.034135
C 62.171144 3.584847 -0.045768
C 63.342051 2.861219 -0.036708
N 63.023358 1.528192 -0.020066
C 64.774423 3.475887 -0.044355
C 65.900048 2.737835 -0.035147
C 67.180346 3.401232 -0.043401
C 68.124797 2.466260 -0.031739
N 66.130038 1.397343 -0.018440
C 67.481770 1.163789 -0.015515
C 68.183984 -0.001413 -0.000987
C 67.403944 -1.388948 0.016295
C 67.956049 -2.655051 0.032031
C 66.887432 -3.587674 0.043667
C 65.716524 -2.864045 0.034695
N 66.035217 -1.531017 0.018092
C 64.284152 -3.478712 0.042387
C 63.158527 -2.740660 0.033185
C 61.878229 -3.404056 0.041483
C 60.933779 -2.469084 0.029820
C 61.576805 -1.166615 0.013551
N 62.928537 -1.400169 0.016452
H 60.049324 2.887446 -0.037090
H 62.094514 4.661348 -0.059215
H 63.688172 0.757583 -0.010439
H 64.851312 4.557226 -0.057829
H 67.337492 4.464777 -0.056653
H 69.181690 2.660463 -0.034148
H 69.009251 -2.890274 0.034925
H 66.964061 -4.664175 0.057060
H 65.370403 -0.760408 0.008508
H 64.207264 -4.560051 0.055889
H 61.721084 -4.467600 0.054764
H 59.876885 -2.663287 0.032257
C 79.141956 -0.001413 -0.000987
C 79.921996 1.386122 -0.018312
C 79.369891 2.652224 -0.034135
C 80.438508 3.584847 -0.045768
C 81.609416 2.861219 -0.036708
N 81.290723 1.528192 -0.020066
C 83.041788 3.475887 -0.044355
C 84.167413 2.737835 -0.035147
C 85.447711 3.401232 -0.043401
C 86.392161 2.466260 -0.031739
N 84.397403 1.397343 -0.018440
C 85.749135 1.163789 -0.015515
C 86.451348 -0.001413 -0.000987
C 85.671308 -1.388948 0.016295
C 86.223413 -2.655051 0.032031
C 85.154796 -3.587674 0.043667
C 83.983889 -2.864045 0.034695
N 84.302582 -1.531017 0.018092
C 82.551517 -3.478712 0.042387
C 81.425892 -2.740660 0.033185
C 80.145594 -3.404056 0.041483
C 79.201144 -2.469084 0.029820
C 79.844170 -1.166615 0.013551
N 81.195902 -1.400169 0.016452
H 78.316689 2.887446 -0.037090
H 80.361879 4.661348 -0.059215
H 81.955536 0.757583 -0.010439
H 83.118676 4.557226 -0.057829
H 85.604857 4.464777 -0.056653
H 87.449055 2.660463 -0.034148
H 87.276616 -2.890274 0.034925
H 85.231426 -4.664175 0.057060
H 83.637768 -0.760408 0.008508
H 82.474628 -4.560051 0.055889
H 79.988448 -4.467600 0.054764
H 78.144250 -2.663287 0.032257
C 97.409321 -0.001413 -0.000987
C 98.189361 1.386122 -0.018312
C 97.637256 2.652224 -0.034135
C 98.705873 3.584847 -0.045768
C 99.876781 2.861219 -0.036708
N 99.558087 1.528192 -0.020066
C 101.309153 3.475887 -0.044355
C 102.434778 2.737835 -0.035147
C 103.715075 3.401232 -0.043401
C 104.659526 2.466260 -0.031739
N 102.664767 1.397343 -0.018440
C 104.016499 1.163789 -0.015515
C 104.718713 -0.001413 -0.000987
C 103.938673 -1.388948 0.016295
C 104.490778 -2.655051 0.032031
C 103.422161 -3.587674 0.043667
C 102.251253 -2.864045 0.034695
N 102.569946 -1.531017 0.018092
C 100.818881 -3.478712 0.042387
C 99.693256 -2.740660 0.033185
C 98.412959 -3.404056 0.041483
C 97.468508 -2.469084 0.029820
C 98.111534 -1.166615 0.013551
N 99.463267 -1.400169 0.016452
H 96.584053 2.887446 -0.037090
H 98.629243 4.661348 -0.059215
H 100.222901 0.757583 -0.010439
H 101.386041 4.557226 -0.057829
H 103.872221 4.464777 -0.056653
H 105.716419 2.660463 -0.034148
H 105.543980 -2.890274 0.034925
H 103.498790 -4.664175 0.057060
H 101.905132 -0.760408 0.008508
H 100.741993 -4.560051 0.055889
H 98.255813 -4.467600 0.054764
H 96.411614 -2.663287 0.032257
