 xtb: 6.5.1 (b24c23e)
          07302211423D

183212  0     0  0            999 V2000
   23.7034   -0.0105   -0.0000 Zn  0  0  0  0  0  0  0  0  0  0  0  0
   20.2929   -0.0415   -0.0274 C   0  0  0  0  0  0  0  0  0  0  0  0
   20.9233   -1.2784   -0.0908 C   0  0  0  0  0  0  0  0  0  0  0  0
   20.2505   -2.5466   -0.1326 C   0  0  0  0  0  0  0  0  0  0  0  0
   21.2104   -3.5044   -0.1708 C   0  0  0  0  0  0  0  0  0  0  0  0
   22.4825   -2.8320   -0.1608 C   0  0  0  0  0  0  0  0  0  0  0  0
   22.2729   -1.4851   -0.1064 N   0  0  0  0  0  0  0  0  0  0  0  0
   23.7337   -3.4603   -0.1717 C   0  0  0  0  0  0  0  0  0  0  0  0
   24.9720   -2.8124   -0.1204 C   0  0  0  0  0  0  0  0  0  0  0  0
   26.2518   -3.4633   -0.1761 C   0  0  0  0  0  0  0  0  0  0  0  0
   27.1980   -2.4918   -0.1171 C   0  0  0  0  0  0  0  0  0  0  0  0
   25.1657   -1.4587   -0.0400 N   0  0  0  0  0  0  0  0  0  0  0  0
   26.5072   -1.2386   -0.0327 C   0  0  0  0  0  0  0  0  0  0  0  0
   27.1378    0.0209    0.0314 C   0  0  0  0  0  0  0  0  0  0  0  0
   26.4831    1.2683    0.0859 C   0  0  0  0  0  0  0  0  0  0  0  0
   27.1503    2.5366    0.1177 C   0  0  0  0  0  0  0  0  0  0  0  0
   26.1861    3.4914    0.1553 C   0  0  0  0  0  0  0  0  0  0  0  0
   24.9187    2.8142    0.1556 C   0  0  0  0  0  0  0  0  0  0  0  0
   23.6680    3.4403    0.1765 C   0  0  0  0  0  0  0  0  0  0  0  0
   23.6528    4.9230    0.2565 C   0  0  0  0  0  0  0  0  0  0  0  0
   23.0972    5.6824   -0.7741 C   0  0  0  0  0  0  0  0  0  0  0  0
   23.0857    7.0671   -0.6976 C   0  0  0  0  0  0  0  0  0  0  0  0
   23.6237    7.7099    0.4091 C   0  0  0  0  0  0  0  0  0  0  0  0
   24.1763    6.9616    1.4396 C   0  0  0  0  0  0  0  0  0  0  0  0
   24.1936    5.5770    1.3645 C   0  0  0  0  0  0  0  0  0  0  0  0
   22.4287    2.7896    0.1306 C   0  0  0  0  0  0  0  0  0  0  0  0
   21.1438    3.4339    0.1976 C   0  0  0  0  0  0  0  0  0  0  0  0
   20.2026    2.4589    0.1370 C   0  0  0  0  0  0  0  0  0  0  0  0
   20.8998    1.2070    0.0415 C   0  0  0  0  0  0  0  0  0  0  0  0
   22.2451    1.4406    0.0440 N   0  0  0  0  0  0  0  0  0  0  0  0
   25.1378    1.4629    0.1046 N   0  0  0  0  0  0  0  0  0  0  0  0
   23.7475   -4.9439   -0.2422 C   0  0  0  0  0  0  0  0  0  0  0  0
   23.2324   -5.6046   -1.3580 C   0  0  0  0  0  0  0  0  0  0  0  0
   23.2505   -6.9898   -1.4231 C   0  0  0  0  0  0  0  0  0  0  0  0
   23.7769   -7.7313   -0.3742 C   0  0  0  0  0  0  0  0  0  0  0  0
   24.2882   -7.0815    0.7410 C   0  0  0  0  0  0  0  0  0  0  0  0
   24.2770   -5.6963    0.8070 C   0  0  0  0  0  0  0  0  0  0  0  0
   19.2073   -0.0520   -0.0210 H   0  0  0  0  0  0  0  0  0  0  0  0
   19.1794   -2.6759   -0.1259 H   0  0  0  0  0  0  0  0  0  0  0  0
   21.0745   -4.5739   -0.1923 H   0  0  0  0  0  0  0  0  0  0  0  0
   26.4047   -4.5271   -0.2624 H   0  0  0  0  0  0  0  0  0  0  0  0
   28.2702   -2.6056   -0.1353 H   0  0  0  0  0  0  0  0  0  0  0  0
   28.2201    2.6715    0.1053 H   0  0  0  0  0  0  0  0  0  0  0  0
   26.3193    4.5612    0.1684 H   0  0  0  0  0  0  0  0  0  0  0  0
   22.6881    5.1826   -1.6452 H   0  0  0  0  0  0  0  0  0  0  0  0
   22.6557    7.6471   -1.5068 H   0  0  0  0  0  0  0  0  0  0  0  0
   23.6124    8.7923    0.4683 H   0  0  0  0  0  0  0  0  0  0  0  0
   24.5954    7.4586    2.3076 H   0  0  0  0  0  0  0  0  0  0  0  0
   24.6145    4.9936    2.1760 H   0  0  0  0  0  0  0  0  0  0  0  0
   20.9867    4.4966    0.2916 H   0  0  0  0  0  0  0  0  0  0  0  0
   19.1293    2.5657    0.1613 H   0  0  0  0  0  0  0  0  0  0  0  0
   22.8316   -5.0264   -2.1833 H   0  0  0  0  0  0  0  0  0  0  0  0
   22.8530   -7.4926   -2.2978 H   0  0  0  0  0  0  0  0  0  0  0  0
   23.7891   -8.8142   -0.4258 H   0  0  0  0  0  0  0  0  0  0  0  0
   24.6981   -7.6561    1.5643 H   0  0  0  0  0  0  0  0  0  0  0  0
   24.6670   -5.1902    1.6832 H   0  0  0  0  0  0  0  0  0  0  0  0
   60.9341    0.0359    0.0078 Zn  0  0  0  0  0  0  0  0  0  0  0  0
   64.3445    0.0652   -0.0351 C   0  0  0  0  0  0  0  0  0  0  0  0
   63.7151    1.3043   -0.0412 C   0  0  0  0  0  0  0  0  0  0  0  0
   64.3891    2.5725   -0.0307 C   0  0  0  0  0  0  0  0  0  0  0  0
   63.4300    3.5318   -0.0224 C   0  0  0  0  0  0  0  0  0  0  0  0
   62.1572    2.8608   -0.0362 C   0  0  0  0  0  0  0  0  0  0  0  0
   62.3656    1.5126   -0.0414 N   0  0  0  0  0  0  0  0  0  0  0  0
   60.9066    3.4901   -0.0154 C   0  0  0  0  0  0  0  0  0  0  0  0
   59.6679    2.8416    0.0131 C   0  0  0  0  0  0  0  0  0  0  0  0
   58.3885    3.4952   -0.0106 C   0  0  0  0  0  0  0  0  0  0  0  0
   57.4416    2.5227    0.0112 C   0  0  0  0  0  0  0  0  0  0  0  0
   59.4733    1.4858    0.0371 N   0  0  0  0  0  0  0  0  0  0  0  0
   58.1317    1.2665    0.0400 C   0  0  0  0  0  0  0  0  0  0  0  0
   57.4999    0.0061    0.0529 C   0  0  0  0  0  0  0  0  0  0  0  0
   58.1534   -1.2432    0.0496 C   0  0  0  0  0  0  0  0  0  0  0  0
   57.4852   -2.5111    0.0273 C   0  0  0  0  0  0  0  0  0  0  0  0
   58.4486   -3.4673    0.0186 C   0  0  0  0  0  0  0  0  0  0  0  0
   59.7167   -2.7918    0.0446 C   0  0  0  0  0  0  0  0  0  0  0  0
   60.9668   -3.4193    0.0331 C   0  0  0  0  0  0  0  0  0  0  0  0
   60.9803   -4.9041    0.0462 C   0  0  0  0  0  0  0  0  0  0  0  0
   61.5309   -5.6167   -1.0198 C   0  0  0  0  0  0  0  0  0  0  0  0
   61.5393   -7.0035   -1.0070 C   0  0  0  0  0  0  0  0  0  0  0  0
   61.0030   -7.6951    0.0707 C   0  0  0  0  0  0  0  0  0  0  0  0
   60.4557   -6.9936    1.1364 C   0  0  0  0  0  0  0  0  0  0  0  0
   60.4417   -5.6069    1.1249 C   0  0  0  0  0  0  0  0  0  0  0  0
   62.2065   -2.7682    0.0107 C   0  0  0  0  0  0  0  0  0  0  0  0
   63.4911   -3.4160    0.0435 C   0  0  0  0  0  0  0  0  0  0  0  0
   64.4330   -2.4400    0.0206 C   0  0  0  0  0  0  0  0  0  0  0  0
   63.7366   -1.1845   -0.0172 C   0  0  0  0  0  0  0  0  0  0  0  0
   62.3911   -1.4169   -0.0181 N   0  0  0  0  0  0  0  0  0  0  0  0
   59.4987   -1.4395    0.0548 N   0  0  0  0  0  0  0  0  0  0  0  0
   60.8946    4.9753   -0.0235 C   0  0  0  0  0  0  0  0  0  0  0  0
   61.4094    5.6811   -1.1115 C   0  0  0  0  0  0  0  0  0  0  0  0
   61.3946    7.0679   -1.1184 C   0  0  0  0  0  0  0  0  0  0  0  0
   60.8716    7.7659   -0.0383 C   0  0  0  0  0  0  0  0  0  0  0  0
   60.3603    7.0710    1.0492 C   0  0  0  0  0  0  0  0  0  0  0  0
   60.3682    5.6842    1.0571 C   0  0  0  0  0  0  0  0  0  0  0  0
   65.4302    0.0745   -0.0341 H   0  0  0  0  0  0  0  0  0  0  0  0
   65.4603    2.7004   -0.0234 H   0  0  0  0  0  0  0  0  0  0  0  0
   63.5670    4.6011    0.0026 H   0  0  0  0  0  0  0  0  0  0  0  0
   58.2362    4.5617   -0.0518 H   0  0  0  0  0  0  0  0  0  0  0  0
   56.3694    2.6379    0.0015 H   0  0  0  0  0  0  0  0  0  0  0  0
   56.4152   -2.6446    0.0124 H   0  0  0  0  0  0  0  0  0  0  0  0
   58.3143   -4.5365   -0.0159 H   0  0  0  0  0  0  0  0  0  0  0  0
   61.9385   -5.0784   -1.8684 H   0  0  0  0  0  0  0  0  0  0  0  0
   61.9652   -7.5467   -1.8434 H   0  0  0  0  0  0  0  0  0  0  0  0
   61.0114   -8.7792    0.0799 H   0  0  0  0  0  0  0  0  0  0  0  0
   60.0381   -7.5289    1.9820 H   0  0  0  0  0  0  0  0  0  0  0  0
   60.0248   -5.0605    1.9637 H   0  0  0  0  0  0  0  0  0  0  0  0
   63.6474   -4.4818    0.0909 H   0  0  0  0  0  0  0  0  0  0  0  0
   65.5062   -2.5486    0.0349 H   0  0  0  0  0  0  0  0  0  0  0  0
   61.8075    5.1372   -1.9610 H   0  0  0  0  0  0  0  0  0  0  0  0
   61.7920    7.6060   -1.9719 H   0  0  0  0  0  0  0  0  0  0  0  0
   60.8623    8.8500   -0.0443 H   0  0  0  0  0  0  0  0  0  0  0  0
   59.9529    7.6116    1.8965 H   0  0  0  0  0  0  0  0  0  0  0  0
   59.9785    5.1428    1.9120 H   0  0  0  0  0  0  0  0  0  0  0  0
   28.5421    0.0334    0.0305 C   0  0  0  0  0  0  0  0  0  0  0  0
   29.7670    0.0362    0.0312 C   0  0  0  0  0  0  0  0  0  0  0  0
   31.1091    0.0413    0.0289 C   0  0  0  0  0  0  0  0  0  0  0  0
   32.3401    0.0441    0.0226 C   0  0  0  0  0  0  0  0  0  0  0  0
   33.6773    0.0445    0.0164 C   0  0  0  0  0  0  0  0  0  0  0  0
   34.9083    0.0445    0.0077 C   0  0  0  0  0  0  0  0  0  0  0  0
   36.2501    0.0436   -0.0000 C   0  0  0  0  0  0  0  0  0  0  0  0
   37.4752    0.0419   -0.0067 C   0  0  0  0  0  0  0  0  0  0  0  0
   47.1625    0.0189    0.0389 C   0  0  0  0  0  0  0  0  0  0  0  0
   48.3876    0.0123    0.0486 C   0  0  0  0  0  0  0  0  0  0  0  0
   49.7294    0.0059    0.0569 C   0  0  0  0  0  0  0  0  0  0  0  0
   50.9604   -0.0024    0.0652 C   0  0  0  0  0  0  0  0  0  0  0  0
   52.2976   -0.0080    0.0683 C   0  0  0  0  0  0  0  0  0  0  0  0
   53.5286   -0.0074    0.0724 C   0  0  0  0  0  0  0  0  0  0  0  0
   54.8707   -0.0067    0.0693 C   0  0  0  0  0  0  0  0  0  0  0  0
   56.0955   -0.0049    0.0585 C   0  0  0  0  0  0  0  0  0  0  0  0
   42.3189    0.0310    0.0068 Zn  0  0  0  0  0  0  0  0  0  0  0  0
   38.8790    0.0390   -0.0082 C   0  0  0  0  0  0  0  0  0  0  0  0
   39.5202   -1.2169   -0.0149 C   0  0  0  0  0  0  0  0  0  0  0  0
   38.8397   -2.4777    0.0041 C   0  0  0  0  0  0  0  0  0  0  0  0
   39.7939   -3.4437   -0.0113 C   0  0  0  0  0  0  0  0  0  0  0  0
   41.0668   -2.7801   -0.0484 C   0  0  0  0  0  0  0  0  0  0  0  0
   40.8632   -1.4258   -0.0417 N   0  0  0  0  0  0  0  0  0  0  0  0
   42.3112   -3.4189   -0.0637 C   0  0  0  0  0  0  0  0  0  0  0  0
   43.5584   -2.7854   -0.0536 C   0  0  0  0  0  0  0  0  0  0  0  0
   44.8283   -3.4527   -0.1165 C   0  0  0  0  0  0  0  0  0  0  0  0
   45.7869   -2.4914   -0.0903 C   0  0  0  0  0  0  0  0  0  0  0  0
   43.7680   -1.4329   -0.0047 N   0  0  0  0  0  0  0  0  0  0  0  0
   45.1121   -1.2293   -0.0199 C   0  0  0  0  0  0  0  0  0  0  0  0
   45.7588    0.0228    0.0293 C   0  0  0  0  0  0  0  0  0  0  0  0
   45.1173    1.2780    0.0698 C   0  0  0  0  0  0  0  0  0  0  0  0
   45.7973    2.5366    0.1517 C   0  0  0  0  0  0  0  0  0  0  0  0
   44.8431    3.5026    0.1674 C   0  0  0  0  0  0  0  0  0  0  0  0
   43.5708    2.8417    0.0857 C   0  0  0  0  0  0  0  0  0  0  0  0
   42.3265    3.4810    0.0809 C   0  0  0  0  0  0  0  0  0  0  0  0
   42.3293    4.9660    0.1161 C   0  0  0  0  0  0  0  0  0  0  0  0
   41.7671    5.6481    1.1958 C   0  0  0  0  0  0  0  0  0  0  0  0
   41.7727    7.0345    1.2292 C   0  0  0  0  0  0  0  0  0  0  0  0
   42.3337    7.7557    0.1840 C   0  0  0  0  0  0  0  0  0  0  0  0
   42.8926    7.0843   -0.8950 C   0  0  0  0  0  0  0  0  0  0  0  0
   42.8938    5.6979   -0.9292 C   0  0  0  0  0  0  0  0  0  0  0  0
   41.0795    2.8479    0.0480 C   0  0  0  0  0  0  0  0  0  0  0  0
   39.8101    3.5174   -0.0040 C   0  0  0  0  0  0  0  0  0  0  0  0
   38.8516    2.5559   -0.0277 C   0  0  0  0  0  0  0  0  0  0  0  0
   39.5259    1.2920    0.0002 C   0  0  0  0  0  0  0  0  0  0  0  0
   40.8696    1.4946    0.0395 N   0  0  0  0  0  0  0  0  0  0  0  0
   43.7746    1.4882    0.0364 N   0  0  0  0  0  0  0  0  0  0  0  0
   42.3083   -4.9041   -0.0909 C   0  0  0  0  0  0  0  0  0  0  0  0
   41.7617   -5.5911   -1.1755 C   0  0  0  0  0  0  0  0  0  0  0  0
   41.7630   -6.9777   -1.1998 C   0  0  0  0  0  0  0  0  0  0  0  0
   42.3040   -7.6941   -0.1408 C   0  0  0  0  0  0  0  0  0  0  0  0
   42.8470   -7.0178    0.9432 C   0  0  0  0  0  0  0  0  0  0  0  0
   42.8526   -5.6312    0.9684 C   0  0  0  0  0  0  0  0  0  0  0  0
   37.7687   -2.6009    0.0322 H   0  0  0  0  0  0  0  0  0  0  0  0
   39.6501   -4.5119    0.0119 H   0  0  0  0  0  0  0  0  0  0  0  0
   44.9674   -4.5197   -0.1838 H   0  0  0  0  0  0  0  0  0  0  0  0
   46.8573   -2.6181   -0.1221 H   0  0  0  0  0  0  0  0  0  0  0  0
   46.8678    2.6579    0.1983 H   0  0  0  0  0  0  0  0  0  0  0  0
   44.9864    4.5686    0.2395 H   0  0  0  0  0  0  0  0  0  0  0  0
   41.3388    5.0859    2.0182 H   0  0  0  0  0  0  0  0  0  0  0  0
   41.3376    7.5541    2.0757 H   0  0  0  0  0  0  0  0  0  0  0  0
   42.3354    8.8395    0.2103 H   0  0  0  0  0  0  0  0  0  0  0  0
   43.3293    7.6431   -1.7154 H   0  0  0  0  0  0  0  0  0  0  0  0
   43.3204    5.1750   -1.7780 H   0  0  0  0  0  0  0  0  0  0  0  0
   39.6716    4.5862   -0.0310 H   0  0  0  0  0  0  0  0  0  0  0  0
   37.7816    2.6839   -0.0678 H   0  0  0  0  0  0  0  0  0  0  0  0
   41.3491   -5.0327   -2.0085 H   0  0  0  0  0  0  0  0  0  0  0  0
   41.3404   -7.5013   -2.0502 H   0  0  0  0  0  0  0  0  0  0  0  0
   42.3024   -8.7780   -0.1602 H   0  0  0  0  0  0  0  0  0  0  0  0
   43.2680   -7.5727    1.7743 H   0  0  0  0  0  0  0  0  0  0  0  0
   43.2669   -5.1042    1.8208 H   0  0  0  0  0  0  0  0  0  0  0  0
  2  3  4  0  0  0  0
  3  4  1  0  0  0  0
  4  5  2  0  0  0  0
  5  6  4  0  0  0  0
  1  7  1  0  0  0  0
  3  7  4  0  0  0  0
  6  7  4  0  0  0  0
  6  8  4  0  0  0  0
  8  9  4  0  0  0  0
  9 10  4  0  0  0  0
 10 11  2  0  0  0  0
  1 12  1  0  0  0  0
  9 12  4  0  0  0  0
 11 13  4  0  0  0  0
 12 13  4  0  0  0  0
 13 14  4  0  0  0  0
 14 15  4  0  0  0  0
 15 16  4  0  0  0  0
 16 17  2  0  0  0  0
 17 18  4  0  0  0  0
 18 19  4  0  0  0  0
 19 20  1  0  0  0  0
 20 21  4  0  0  0  0
 21 22  4  0  0  0  0
 22 23  4  0  0  0  0
 23 24  4  0  0  0  0
 20 25  4  0  0  0  0
 24 25  4  0  0  0  0
 19 26  4  0  0  0  0
 26 27  4  0  0  0  0
 27 28  2  0  0  0  0
  2 29  4  0  0  0  0
 28 29  1  0  0  0  0
  1 30  1  0  0  0  0
 26 30  4  0  0  0  0
 29 30  4  0  0  0  0
  1 31  1  0  0  0  0
 15 31  4  0  0  0  0
 18 31  4  0  0  0  0
  8 32  1  0  0  0  0
 32 33  4  0  0  0  0
 33 34  4  0  0  0  0
 34 35  4  0  0  0  0
 35 36  4  0  0  0  0
 32 37  4  0  0  0  0
 36 37  4  0  0  0  0
  2 38  1  0  0  0  0
  4 39  1  0  0  0  0
  5 40  1  0  0  0  0
 10 41  1  0  0  0  0
 11 42  1  0  0  0  0
 16 43  1  0  0  0  0
 17 44  1  0  0  0  0
 21 45  1  0  0  0  0
 22 46  1  0  0  0  0
 23 47  1  0  0  0  0
 24 48  1  0  0  0  0
 25 49  1  0  0  0  0
 27 50  1  0  0  0  0
 28 51  1  0  0  0  0
 33 52  1  0  0  0  0
 34 53  1  0  0  0  0
 35 54  1  0  0  0  0
 36 55  1  0  0  0  0
 37 56  1  0  0  0  0
 58 59  4  0  0  0  0
 59 60  1  0  0  0  0
 60 61  2  0  0  0  0
 61 62  4  0  0  0  0
 57 63  1  0  0  0  0
 59 63  4  0  0  0  0
 62 63  4  0  0  0  0
 62 64  4  0  0  0  0
 64 65  4  0  0  0  0
 65 66  4  0  0  0  0
 66 67  2  0  0  0  0
 57 68  1  0  0  0  0
 65 68  4  0  0  0  0
 67 69  4  0  0  0  0
 68 69  4  0  0  0  0
 69 70  4  0  0  0  0
 70 71  4  0  0  0  0
 71 72  4  0  0  0  0
 72 73  2  0  0  0  0
 73 74  4  0  0  0  0
 74 75  4  0  0  0  0
 75 76  1  0  0  0  0
 76 77  4  0  0  0  0
 77 78  4  0  0  0  0
 78 79  4  0  0  0  0
 79 80  4  0  0  0  0
 76 81  4  0  0  0  0
 80 81  4  0  0  0  0
 75 82  4  0  0  0  0
 82 83  4  0  0  0  0
 83 84  2  0  0  0  0
 58 85  4  0  0  0  0
 84 85  1  0  0  0  0
 57 86  1  0  0  0  0
 82 86  4  0  0  0  0
 85 86  4  0  0  0  0
 57 87  1  0  0  0  0
 71 87  4  0  0  0  0
 74 87  4  0  0  0  0
 64 88  1  0  0  0  0
 88 89  4  0  0  0  0
 89 90  4  0  0  0  0
 90 91  4  0  0  0  0
 91 92  4  0  0  0  0
 88 93  4  0  0  0  0
 92 93  4  0  0  0  0
 58 94  1  0  0  0  0
 60 95  1  0  0  0  0
 61 96  1  0  0  0  0
 66 97  1  0  0  0  0
 67 98  1  0  0  0  0
 72 99  1  0  0  0  0
 73100  1  0  0  0  0
 77101  1  0  0  0  0
 78102  1  0  0  0  0
 79103  1  0  0  0  0
 80104  1  0  0  0  0
 81105  1  0  0  0  0
 83106  1  0  0  0  0
 84107  1  0  0  0  0
 89108  1  0  0  0  0
 90109  1  0  0  0  0
 91110  1  0  0  0  0
 92111  1  0  0  0  0
 93112  1  0  0  0  0
 14113  4  0  0  0  0
113114  3  0  0  0  0
114115  4  0  0  0  0
115116  3  0  0  0  0
116117  4  0  0  0  0
117118  3  0  0  0  0
118119  4  0  0  0  0
119120  3  0  0  0  0
121122  3  0  0  0  0
122123  4  0  0  0  0
123124  3  0  0  0  0
124125  4  0  0  0  0
125126  3  0  0  0  0
126127  4  0  0  0  0
 70128  4  0  0  0  0
127128  3  0  0  0  0
120130  4  0  0  0  0
130131  4  0  0  0  0
131132  4  0  0  0  0
132133  2  0  0  0  0
133134  4  0  0  0  0
129135  1  0  0  0  0
131135  4  0  0  0  0
134135  4  0  0  0  0
134136  4  0  0  0  0
136137  4  0  0  0  0
137138  4  0  0  0  0
138139  2  0  0  0  0
129140  1  0  0  0  0
137140  4  0  0  0  0
139141  4  0  0  0  0
140141  4  0  0  0  0
121142  4  0  0  0  0
141142  4  0  0  0  0
142143  4  0  0  0  0
143144  4  0  0  0  0
144145  2  0  0  0  0
145146  4  0  0  0  0
146147  4  0  0  0  0
147148  1  0  0  0  0
148149  4  0  0  0  0
149150  4  0  0  0  0
150151  4  0  0  0  0
151152  4  0  0  0  0
148153  4  0  0  0  0
152153  4  0  0  0  0
147154  4  0  0  0  0
154155  4  0  0  0  0
155156  2  0  0  0  0
130157  4  0  0  0  0
156157  4  0  0  0  0
129158  1  0  0  0  0
154158  4  0  0  0  0
157158  4  0  0  0  0
129159  1  0  0  0  0
143159  4  0  0  0  0
146159  4  0  0  0  0
136160  1  0  0  0  0
160161  4  0  0  0  0
161162  4  0  0  0  0
162163  4  0  0  0  0
163164  4  0  0  0  0
160165  4  0  0  0  0
164165  4  0  0  0  0
132166  1  0  0  0  0
133167  1  0  0  0  0
138168  1  0  0  0  0
139169  1  0  0  0  0
144170  1  0  0  0  0
145171  1  0  0  0  0
149172  1  0  0  0  0
150173  1  0  0  0  0
151174  1  0  0  0  0
152175  1  0  0  0  0
153176  1  0  0  0  0
155177  1  0  0  0  0
156178  1  0  0  0  0
161179  1  0  0  0  0
162180  1  0  0  0  0
163181  1  0  0  0  0
164182  1  0  0  0  0
165183  1  0  0  0  0
M  END
