 xtb: 6.5.1 (b24c23e)
          07292222183D

160191  0     0  0            999 V2000
   20.4045   -0.0200   -0.0200 Co  0  0  0  0  0  0  0  0  0  0  0  0
   16.9961   -0.0119   -0.0793 C   0  0  0  0  0  0  0  0  0  0  0  0
   17.6630   -0.8740   -0.9214 C   0  0  0  0  0  0  0  0  0  0  0  0
   16.9969   -1.7722   -1.8178 C   0  0  0  0  0  0  0  0  0  0  0  0
   17.9641   -2.4624   -2.4641 C   0  0  0  0  0  0  0  0  0  0  0  0
   19.2168   -1.9794   -1.9634 C   0  0  0  0  0  0  0  0  0  0  0  0
   19.0249   -1.0063   -1.0173 N   0  0  0  0  0  0  0  0  0  0  0  0
   20.4373   -2.4445   -2.4026 C   0  0  0  0  0  0  0  0  0  0  0  0
   21.6433   -1.9708   -1.9402 C   0  0  0  0  0  0  0  0  0  0  0  0
   22.9066   -2.4461   -2.4164 C   0  0  0  0  0  0  0  0  0  0  0  0
   23.8571   -1.7512   -1.7490 C   0  0  0  0  0  0  0  0  0  0  0  0
   21.8153   -0.9940   -0.9863 N   0  0  0  0  0  0  0  0  0  0  0  0
   23.1691   -0.8592   -0.8669 C   0  0  0  0  0  0  0  0  0  0  0  0
   23.8332    0.0163   -0.0052 C   0  0  0  0  0  0  0  0  0  0  0  0
   23.1437    0.8692    0.8591 C   0  0  0  0  0  0  0  0  0  0  0  0
   23.8050    1.7619    1.7607 C   0  0  0  0  0  0  0  0  0  0  0  0
   22.8343    2.4124    2.4438 C   0  0  0  0  0  0  0  0  0  0  0  0
   21.5855    1.9155    1.9516 C   0  0  0  0  0  0  0  0  0  0  0  0
   21.7864    0.9663    0.9758 N   0  0  0  0  0  0  0  0  0  0  0  0
   20.3655    2.3553    2.4112 C   0  0  0  0  0  0  0  0  0  0  0  0
   19.1589    1.8965    1.9291 C   0  0  0  0  0  0  0  0  0  0  0  0
   17.8916    2.3742    2.3974 C   0  0  0  0  0  0  0  0  0  0  0  0
   16.9446    1.7157    1.6908 C   0  0  0  0  0  0  0  0  0  0  0  0
   17.6375    0.8348    0.7975 C   0  0  0  0  0  0  0  0  0  0  0  0
   18.9957    0.9518    0.9495 N   0  0  0  0  0  0  0  0  0  0  0  0
   15.9127   -0.0059   -0.1013 H   0  0  0  0  0  0  0  0  0  0  0  0
   15.9258   -1.8479   -1.9190 H   0  0  0  0  0  0  0  0  0  0  0  0
   17.8641   -3.2300   -3.2152 H   0  0  0  0  0  0  0  0  0  0  0  0
   20.4482   -3.2203   -3.1593 H   0  0  0  0  0  0  0  0  0  0  0  0
   23.0270   -3.2114   -3.1665 H   0  0  0  0  0  0  0  0  0  0  0  0
   24.9299   -1.8219   -1.8303 H   0  0  0  0  0  0  0  0  0  0  0  0
   24.8753    1.8607    1.8456 H   0  0  0  0  0  0  0  0  0  0  0  0
   22.9320    3.1633    3.2116 H   0  0  0  0  0  0  0  0  0  0  0  0
   20.3532    3.1096    3.1893 H   0  0  0  0  0  0  0  0  0  0  0  0
   17.7687    3.1198    3.1670 H   0  0  0  0  0  0  0  0  0  0  0  0
   15.8711    1.7991    1.7521 H   0  0  0  0  0  0  0  0  0  0  0  0
   68.5071   -0.0010   -0.0136 Co  0  0  0  0  0  0  0  0  0  0  0  0
   71.9149    0.0426    0.0581 C   0  0  0  0  0  0  0  0  0  0  0  0
   71.2468    1.2436   -0.0314 C   0  0  0  0  0  0  0  0  0  0  0  0
   71.9115    2.5113   -0.1035 C   0  0  0  0  0  0  0  0  0  0  0  0
   70.9434    3.4521   -0.1897 C   0  0  0  0  0  0  0  0  0  0  0  0
   69.6913    2.7558   -0.1633 C   0  0  0  0  0  0  0  0  0  0  0  0
   69.8848    1.4017   -0.0705 N   0  0  0  0  0  0  0  0  0  0  0  0
   68.4703    3.3925   -0.2055 C   0  0  0  0  0  0  0  0  0  0  0  0
   67.2652    2.7305   -0.1533 C   0  0  0  0  0  0  0  0  0  0  0  0
   66.0012    3.4017   -0.1690 C   0  0  0  0  0  0  0  0  0  0  0  0
   65.0519    2.4394   -0.1003 C   0  0  0  0  0  0  0  0  0  0  0  0
   67.0951    1.3674   -0.0766 N   0  0  0  0  0  0  0  0  0  0  0  0
   65.7411    1.1866   -0.0489 C   0  0  0  0  0  0  0  0  0  0  0  0
   65.0789   -0.0413   -0.0064 C   0  0  0  0  0  0  0  0  0  0  0  0
   65.7694   -1.2538    0.0179 C   0  0  0  0  0  0  0  0  0  0  0  0
   65.1099   -2.5232    0.0462 C   0  0  0  0  0  0  0  0  0  0  0  0
   66.0820   -3.4647    0.0700 C   0  0  0  0  0  0  0  0  0  0  0  0
   67.3299   -2.7639    0.0596 C   0  0  0  0  0  0  0  0  0  0  0  0
   67.1275   -1.4035    0.0248 N   0  0  0  0  0  0  0  0  0  0  0  0
   68.5506   -3.3981    0.0949 C   0  0  0  0  0  0  0  0  0  0  0  0
   69.7556   -2.7306    0.1051 C   0  0  0  0  0  0  0  0  0  0  0  0
   71.0234   -3.3958    0.1649 C   0  0  0  0  0  0  0  0  0  0  0  0
   71.9687   -2.4283    0.1650 C   0  0  0  0  0  0  0  0  0  0  0  0
   71.2747   -1.1761    0.0996 C   0  0  0  0  0  0  0  0  0  0  0  0
   69.9171   -1.3696    0.0664 N   0  0  0  0  0  0  0  0  0  0  0  0
   72.9981    0.0566    0.0864 H   0  0  0  0  0  0  0  0  0  0  0  0
   72.9824    2.6385   -0.0904 H   0  0  0  0  0  0  0  0  0  0  0  0
   71.0424    4.5237   -0.2613 H   0  0  0  0  0  0  0  0  0  0  0  0
   68.4579    4.4742   -0.2725 H   0  0  0  0  0  0  0  0  0  0  0  0
   65.8795    4.4718   -0.2240 H   0  0  0  0  0  0  0  0  0  0  0  0
   63.9791    2.5463   -0.0888 H   0  0  0  0  0  0  0  0  0  0  0  0
   64.0398   -2.6545    0.0472 H   0  0  0  0  0  0  0  0  0  0  0  0
   65.9857   -4.5385    0.0961 H   0  0  0  0  0  0  0  0  0  0  0  0
   68.5641   -4.4814    0.1248 H   0  0  0  0  0  0  0  0  0  0  0  0
   71.1477   -4.4664    0.2027 H   0  0  0  0  0  0  0  0  0  0  0  0
   73.0421   -2.5279    0.2014 H   0  0  0  0  0  0  0  0  0  0  0  0
   29.0325    0.0264    0.0025 C   0  0  0  0  0  0  0  0  0  0  0  0
   27.8034    0.0296    0.0026 C   0  0  0  0  0  0  0  0  0  0  0  0
   26.4604    0.0314   -0.0004 C   0  0  0  0  0  0  0  0  0  0  0  0
   25.2360    0.0319   -0.0042 C   0  0  0  0  0  0  0  0  0  0  0  0
   30.3752    0.0207    0.0002 C   0  0  0  0  0  0  0  0  0  0  0  0
   31.5999    0.0136   -0.0052 C   0  0  0  0  0  0  0  0  0  0  0  0
   45.0696   -0.0313   -0.0251 C   0  0  0  0  0  0  0  0  0  0  0  0
   43.8399   -0.0312   -0.0245 C   0  0  0  0  0  0  0  0  0  0  0  0
   42.4981   -0.0287   -0.0227 C   0  0  0  0  0  0  0  0  0  0  0  0
   41.2730   -0.0300   -0.0221 C   0  0  0  0  0  0  0  0  0  0  0  0
   46.4114   -0.0332   -0.0237 C   0  0  0  0  0  0  0  0  0  0  0  0
   47.6364   -0.0320   -0.0222 C   0  0  0  0  0  0  0  0  0  0  0  0
   61.1068   -0.0659   -0.0052 C   0  0  0  0  0  0  0  0  0  0  0  0
   59.8784   -0.0640   -0.0099 C   0  0  0  0  0  0  0  0  0  0  0  0
   58.5345   -0.0614   -0.0126 C   0  0  0  0  0  0  0  0  0  0  0  0
   57.3103   -0.0540   -0.0126 C   0  0  0  0  0  0  0  0  0  0  0  0
   62.4510   -0.0625   -0.0042 C   0  0  0  0  0  0  0  0  0  0  0  0
   63.6746   -0.0560   -0.0014 C   0  0  0  0  0  0  0  0  0  0  0  0
   36.4370   -0.0193   -0.0023 Co  0  0  0  0  0  0  0  0  0  0  0  0
   33.0017    0.0048   -0.0057 C   0  0  0  0  0  0  0  0  0  0  0  0
   33.6854    0.9096    0.8105 C   0  0  0  0  0  0  0  0  0  0  0  0
   33.0171    1.8521    1.6538 C   0  0  0  0  0  0  0  0  0  0  0  0
   33.9836    2.5540    2.2915 C   0  0  0  0  0  0  0  0  0  0  0  0
   35.2344    2.0342    1.8316 C   0  0  0  0  0  0  0  0  0  0  0  0
   35.0415    1.0225    0.9208 N   0  0  0  0  0  0  0  0  0  0  0  0
   36.4526    2.5097    2.2628 C   0  0  0  0  0  0  0  0  0  0  0  0
   37.6645    2.0246    1.8265 C   0  0  0  0  0  0  0  0  0  0  0  0
   38.9220    2.5340    2.2805 C   0  0  0  0  0  0  0  0  0  0  0  0
   39.8795    1.8240    1.6385 C   0  0  0  0  0  0  0  0  0  0  0  0
   37.8452    1.0108    0.9148 N   0  0  0  0  0  0  0  0  0  0  0  0
   39.1994    0.8866    0.7988 C   0  0  0  0  0  0  0  0  0  0  0  0
   39.8721   -0.0263   -0.0181 C   0  0  0  0  0  0  0  0  0  0  0  0
   39.1884   -0.9396   -0.8254 C   0  0  0  0  0  0  0  0  0  0  0  0
   39.8570   -1.8876   -1.6624 C   0  0  0  0  0  0  0  0  0  0  0  0
   38.8908   -2.6004   -2.2880 C   0  0  0  0  0  0  0  0  0  0  0  0
   37.6396   -2.0807   -1.8284 C   0  0  0  0  0  0  0  0  0  0  0  0
   37.8328   -1.0591   -0.9280 N   0  0  0  0  0  0  0  0  0  0  0  0
   36.4217   -2.5598   -2.2547 C   0  0  0  0  0  0  0  0  0  0  0  0
   35.2094   -2.0664   -1.8266 C   0  0  0  0  0  0  0  0  0  0  0  0
   33.9523   -2.5722   -2.2850 C   0  0  0  0  0  0  0  0  0  0  0  0
   32.9945   -1.8510   -1.6557 C   0  0  0  0  0  0  0  0  0  0  0  0
   33.6742   -0.9118   -0.8181 C   0  0  0  0  0  0  0  0  0  0  0  0
   35.0288   -1.0448   -0.9243 N   0  0  0  0  0  0  0  0  0  0  0  0
   31.9463    1.9483    1.7331 H   0  0  0  0  0  0  0  0  0  0  0  0
   33.8808    3.3526    3.0087 H   0  0  0  0  0  0  0  0  0  0  0  0
   36.4574    3.3157    2.9877 H   0  0  0  0  0  0  0  0  0  0  0  0
   39.0348    3.3317    2.9972 H   0  0  0  0  0  0  0  0  0  0  0  0
   40.9515    1.9112    1.7129 H   0  0  0  0  0  0  0  0  0  0  0  0
   40.9280   -1.9796   -1.7458 H   0  0  0  0  0  0  0  0  0  0  0  0
   38.9938   -3.4057   -2.9977 H   0  0  0  0  0  0  0  0  0  0  0  0
   36.4163   -3.3724   -2.9719 H   0  0  0  0  0  0  0  0  0  0  0  0
   33.8397   -3.3747   -2.9964 H   0  0  0  0  0  0  0  0  0  0  0  0
   31.9225   -1.9321   -1.7371 H   0  0  0  0  0  0  0  0  0  0  0  0
   52.4723   -0.0334   -0.0279 Co  0  0  0  0  0  0  0  0  0  0  0  0
   49.0374   -0.0326   -0.0231 C   0  0  0  0  0  0  0  0  0  0  0  0
   49.7169    0.8786    0.7899 C   0  0  0  0  0  0  0  0  0  0  0  0
   49.0440    1.8204    1.6306 C   0  0  0  0  0  0  0  0  0  0  0  0
   50.0068    2.5381    2.2556 C   0  0  0  0  0  0  0  0  0  0  0  0
   51.2605    2.0281    1.7917 C   0  0  0  0  0  0  0  0  0  0  0  0
   51.0720    1.0052    0.8917 N   0  0  0  0  0  0  0  0  0  0  0  0
   52.4759    2.5220    2.2075 C   0  0  0  0  0  0  0  0  0  0  0  0
   53.6903    2.0398    1.7724 C   0  0  0  0  0  0  0  0  0  0  0  0
   54.9452    2.5634    2.2169 C   0  0  0  0  0  0  0  0  0  0  0  0
   55.9062    1.8431    1.5917 C   0  0  0  0  0  0  0  0  0  0  0  0
   53.8753    1.0099    0.8808 N   0  0  0  0  0  0  0  0  0  0  0  0
   55.2309    0.8862    0.7704 C   0  0  0  0  0  0  0  0  0  0  0  0
   55.9072   -0.0472   -0.0181 C   0  0  0  0  0  0  0  0  0  0  0  0
   55.2283   -0.9722   -0.8143 C   0  0  0  0  0  0  0  0  0  0  0  0
   55.9006   -1.9286   -1.6384 C   0  0  0  0  0  0  0  0  0  0  0  0
   54.9375   -2.6341   -2.2772 C   0  0  0  0  0  0  0  0  0  0  0  0
   53.6844   -2.1039   -1.8356 C   0  0  0  0  0  0  0  0  0  0  0  0
   53.8724   -1.0834   -0.9340 N   0  0  0  0  0  0  0  0  0  0  0  0
   52.4685   -2.5762   -2.2776 C   0  0  0  0  0  0  0  0  0  0  0  0
   51.2546   -2.0834   -1.8563 C   0  0  0  0  0  0  0  0  0  0  0  0
   49.9994   -2.5907   -2.3191 C   0  0  0  0  0  0  0  0  0  0  0  0
   49.0386   -1.8787   -1.6843 C   0  0  0  0  0  0  0  0  0  0  0  0
   49.7144   -0.9419   -0.8404 C   0  0  0  0  0  0  0  0  0  0  0  0
   51.0691   -1.0674   -0.9478 N   0  0  0  0  0  0  0  0  0  0  0  0
   47.9726    1.9057    1.7160 H   0  0  0  0  0  0  0  0  0  0  0  0
   49.9000    3.3417    2.9667 H   0  0  0  0  0  0  0  0  0  0  0  0
   52.4777    3.3382    2.9207 H   0  0  0  0  0  0  0  0  0  0  0  0
   55.0540    3.3756    2.9178 H   0  0  0  0  0  0  0  0  0  0  0  0
   56.9778    1.9344    1.6669 H   0  0  0  0  0  0  0  0  0  0  0  0
   56.9718   -2.0289   -1.7075 H   0  0  0  0  0  0  0  0  0  0  0  0
   55.0439   -3.4408   -2.9847 H   0  0  0  0  0  0  0  0  0  0  0  0
   52.4679   -3.3865   -2.9975 H   0  0  0  0  0  0  0  0  0  0  0  0
   49.8903   -3.3892   -3.0355 H   0  0  0  0  0  0  0  0  0  0  0  0
   47.9670   -1.9645   -1.7658 H   0  0  0  0  0  0  0  0  0  0  0  0
  2  3  4  0  0  0  0
  3  4  1  0  0  0  0
  4  5  2  0  0  0  0
  5  6  1  0  0  0  0
  1  7  1  0  0  0  0
  3  7  4  0  0  0  0
  6  7  4  0  0  0  0
  6  8  4  0  0  0  0
  8  9  4  0  0  0  0
  9 10  1  0  0  0  0
 10 11  2  0  0  0  0
  1 12  1  0  0  0  0
  9 12  4  0  0  0  0
 11 13  4  0  0  0  0
 12 13  4  0  0  0  0
 13 14  4  0  0  0  0
 14 15  4  0  0  0  0
 15 16  4  0  0  0  0
 16 17  2  0  0  0  0
 17 18  1  0  0  0  0
  1 19  1  0  0  0  0
 15 19  4  0  0  0  0
 18 19  4  0  0  0  0
 18 20  4  0  0  0  0
 20 21  4  0  0  0  0
 21 22  1  0  0  0  0
 22 23  2  0  0  0  0
  2 24  4  0  0  0  0
 23 24  1  0  0  0  0
  1 25  1  0  0  0  0
 21 25  4  0  0  0  0
 24 25  4  0  0  0  0
  2 26  1  0  0  0  0
  4 27  1  0  0  0  0
  5 28  1  0  0  0  0
  8 29  1  0  0  0  0
 10 30  1  0  0  0  0
 11 31  1  0  0  0  0
 16 32  1  0  0  0  0
 17 33  1  0  0  0  0
 20 34  1  0  0  0  0
 22 35  1  0  0  0  0
 23 36  1  0  0  0  0
 38 39  4  0  0  0  0
 39 40  1  0  0  0  0
 40 41  2  0  0  0  0
 41 42  1  0  0  0  0
 37 43  1  0  0  0  0
 39 43  4  0  0  0  0
 42 43  4  0  0  0  0
 42 44  4  0  0  0  0
 44 45  4  0  0  0  0
 45 46  1  0  0  0  0
 46 47  2  0  0  0  0
 37 48  1  0  0  0  0
 45 48  4  0  0  0  0
 47 49  4  0  0  0  0
 48 49  4  0  0  0  0
 49 50  4  0  0  0  0
 50 51  4  0  0  0  0
 51 52  4  0  0  0  0
 52 53  2  0  0  0  0
 53 54  1  0  0  0  0
 37 55  1  0  0  0  0
 51 55  4  0  0  0  0
 54 55  4  0  0  0  0
 54 56  4  0  0  0  0
 56 57  4  0  0  0  0
 57 58  1  0  0  0  0
 58 59  2  0  0  0  0
 38 60  4  0  0  0  0
 59 60  1  0  0  0  0
 37 61  1  0  0  0  0
 57 61  4  0  0  0  0
 60 61  4  0  0  0  0
 38 62  1  0  0  0  0
 40 63  1  0  0  0  0
 41 64  1  0  0  0  0
 44 65  1  0  0  0  0
 46 66  1  0  0  0  0
 47 67  1  0  0  0  0
 52 68  1  0  0  0  0
 53 69  1  0  0  0  0
 56 70  1  0  0  0  0
 58 71  1  0  0  0  0
 59 72  1  0  0  0  0
 73 74  3  0  0  0  0
 74 75  4  0  0  0  0
 14 76  4  0  0  0  0
 75 76  3  0  0  0  0
 73 77  4  0  0  0  0
 77 78  3  0  0  0  0
 79 80  3  0  0  0  0
 80 81  4  0  0  0  0
 81 82  3  0  0  0  0
 79 83  4  0  0  0  0
 83 84  3  0  0  0  0
 85 86  3  0  0  0  0
 86 87  4  0  0  0  0
 87 88  3  0  0  0  0
 85 89  4  0  0  0  0
 50 90  4  0  0  0  0
 89 90  3  0  0  0  0
 78 92  4  0  0  0  0
 92 93  4  0  0  0  0
 93 94  4  0  0  0  0
 94 95  2  0  0  0  0
 95 96  4  0  0  0  0
 91 97  1  0  0  0  0
 93 97  4  0  0  0  0
 96 97  4  0  0  0  0
 96 98  4  0  0  0  0
 98 99  4  0  0  0  0
 99100  4  0  0  0  0
100101  2  0  0  0  0
 91102  1  0  0  0  0
 99102  4  0  0  0  0
101103  4  0  0  0  0
102103  4  0  0  0  0
 82104  4  0  0  0  0
103104  4  0  0  0  0
104105  4  0  0  0  0
105106  4  0  0  0  0
106107  2  0  0  0  0
107108  4  0  0  0  0
 91109  1  0  0  0  0
105109  4  0  0  0  0
108109  4  0  0  0  0
108110  4  0  0  0  0
110111  4  0  0  0  0
111112  4  0  0  0  0
112113  2  0  0  0  0
 92114  4  0  0  0  0
113114  4  0  0  0  0
 91115  1  0  0  0  0
111115  4  0  0  0  0
114115  4  0  0  0  0
 94116  1  0  0  0  0
 95117  1  0  0  0  0
 98118  1  0  0  0  0
100119  1  0  0  0  0
101120  1  0  0  0  0
106121  1  0  0  0  0
107122  1  0  0  0  0
110123  1  0  0  0  0
112124  1  0  0  0  0
113125  1  0  0  0  0
 84127  4  0  0  0  0
127128  4  0  0  0  0
128129  4  0  0  0  0
129130  2  0  0  0  0
130131  4  0  0  0  0
126132  1  0  0  0  0
128132  4  0  0  0  0
131132  4  0  0  0  0
131133  4  0  0  0  0
133134  4  0  0  0  0
134135  4  0  0  0  0
135136  2  0  0  0  0
126137  1  0  0  0  0
134137  4  0  0  0  0
136138  4  0  0  0  0
137138  4  0  0  0  0
 88139  4  0  0  0  0
138139  4  0  0  0  0
139140  4  0  0  0  0
140141  4  0  0  0  0
141142  2  0  0  0  0
142143  4  0  0  0  0
126144  1  0  0  0  0
140144  4  0  0  0  0
143144  4  0  0  0  0
143145  4  0  0  0  0
145146  4  0  0  0  0
146147  4  0  0  0  0
147148  2  0  0  0  0
127149  4  0  0  0  0
148149  4  0  0  0  0
126150  1  0  0  0  0
146150  4  0  0  0  0
149150  4  0  0  0  0
129151  1  0  0  0  0
130152  1  0  0  0  0
133153  1  0  0  0  0
135154  1  0  0  0  0
136155  1  0  0  0  0
141156  1  0  0  0  0
142157  1  0  0  0  0
145158  1  0  0  0  0
147159  1  0  0  0  0
148160  1  0  0  0  0
M  END
