 xtb: 6.5.1 (b24c23e)
          07302207553D

225254  0     0  0            999 V2000
   35.5346    0.0358    0.0019 Cu  0  0  0  0  0  0  0  0  0  0  0  0
   32.1212    0.0776   -0.0061 C   0  0  0  0  0  0  0  0  0  0  0  0
   32.7605    1.2039    0.4916 C   0  0  0  0  0  0  0  0  0  0  0  0
   32.0936    2.3732    0.9916 C   0  0  0  0  0  0  0  0  0  0  0  0
   33.0583    3.2383    1.3923 C   0  0  0  0  0  0  0  0  0  0  0  0
   34.3237    2.6034    1.1432 C   0  0  0  0  0  0  0  0  0  0  0  0
   34.1119    1.3723    0.5916 N   0  0  0  0  0  0  0  0  0  0  0  0
   35.5673    3.1606    1.4366 C   0  0  0  0  0  0  0  0  0  0  0  0
   35.5851    4.5260    2.0387 C   0  0  0  0  0  0  0  0  0  0  0  0
   35.6529    5.6495    1.2095 C   0  0  0  0  0  0  0  0  0  0  0  0
   35.7068    5.4775   -0.2853 C   0  0  0  0  0  0  0  0  0  0  0  0
   35.6705    6.9178    1.7770 C   0  0  0  0  0  0  0  0  0  0  0  0
   35.6212    7.0838    3.1576 C   0  0  0  0  0  0  0  0  0  0  0  0
   35.6617    8.4633    3.7577 C   0  0  0  0  0  0  0  0  0  0  0  0
   35.5550    5.9592    3.9731 C   0  0  0  0  0  0  0  0  0  0  0  0
   35.5361    4.6809    3.4266 C   0  0  0  0  0  0  0  0  0  0  0  0
   35.4644    3.4677    4.3152 C   0  0  0  0  0  0  0  0  0  0  0  0
   36.7978    2.5473    1.2067 C   0  0  0  0  0  0  0  0  0  0  0  0
   38.0719    3.1264    1.5263 C   0  0  0  0  0  0  0  0  0  0  0  0
   39.0209    2.2382    1.1353 C   0  0  0  0  0  0  0  0  0  0  0  0
   36.9894    1.3187    0.6343 N   0  0  0  0  0  0  0  0  0  0  0  0
   38.3342    1.1129    0.5725 C   0  0  0  0  0  0  0  0  0  0  0  0
   38.9676   -0.0052    0.0086 C   0  0  0  0  0  0  0  0  0  0  0  0
   38.3098   -1.1086   -0.5564 C   0  0  0  0  0  0  0  0  0  0  0  0
   38.9717   -2.2507   -1.1152 C   0  0  0  0  0  0  0  0  0  0  0  0
   38.0032   -3.1160   -1.5097 C   0  0  0  0  0  0  0  0  0  0  0  0
   36.7420   -2.5060   -1.1965 C   0  0  0  0  0  0  0  0  0  0  0  0
   36.9608   -1.2821   -0.6236 N   0  0  0  0  0  0  0  0  0  0  0  0
   35.4978   -3.0889   -1.4325 C   0  0  0  0  0  0  0  0  0  0  0  0
   35.4845   -4.4547   -2.0337 C   0  0  0  0  0  0  0  0  0  0  0  0
   35.4436   -4.6095   -3.4228 C   0  0  0  0  0  0  0  0  0  0  0  0
   35.4098   -3.3952   -4.3122 C   0  0  0  0  0  0  0  0  0  0  0  0
   35.4361   -5.8873   -3.9677 C   0  0  0  0  0  0  0  0  0  0  0  0
   35.4690   -7.0138   -3.1503 C   0  0  0  0  0  0  0  0  0  0  0  0
   35.4563   -8.3884   -3.7631 C   0  0  0  0  0  0  0  0  0  0  0  0
   35.5079   -6.8484   -1.7708 C   0  0  0  0  0  0  0  0  0  0  0  0
   35.5163   -5.5784   -1.2040 C   0  0  0  0  0  0  0  0  0  0  0  0
   35.5610   -5.4074    0.2912 C   0  0  0  0  0  0  0  0  0  0  0  0
   34.2668   -2.5012   -1.1452 C   0  0  0  0  0  0  0  0  0  0  0  0
   32.9875   -3.1049   -1.4008 C   0  0  0  0  0  0  0  0  0  0  0  0
   32.0423   -2.2165   -1.0044 C   0  0  0  0  0  0  0  0  0  0  0  0
   32.7352   -1.0639   -0.5008 C   0  0  0  0  0  0  0  0  0  0  0  0
   34.0825   -1.2653   -0.5945 N   0  0  0  0  0  0  0  0  0  0  0  0
   31.0362    0.0908   -0.0086 H   0  0  0  0  0  0  0  0  0  0  0  0
   31.0230    2.5016    1.0252 H   0  0  0  0  0  0  0  0  0  0  0  0
   32.9382    4.2204    1.8215 H   0  0  0  0  0  0  0  0  0  0  0  0
   34.8282    4.9328   -0.6363 H   0  0  0  0  0  0  0  0  0  0  0  0
   36.5905    4.9023   -0.5684 H   0  0  0  0  0  0  0  0  0  0  0  0
   35.7433    6.4437   -0.7877 H   0  0  0  0  0  0  0  0  0  0  0  0
   35.7224    7.7900    1.1333 H   0  0  0  0  0  0  0  0  0  0  0  0
   35.2116    8.4699    4.7506 H   0  0  0  0  0  0  0  0  0  0  0  0
   36.6975    8.7980    3.8508 H   0  0  0  0  0  0  0  0  0  0  0  0
   35.1320    9.1765    3.1253 H   0  0  0  0  0  0  0  0  0  0  0  0
   35.5166    6.0788    5.0510 H   0  0  0  0  0  0  0  0  0  0  0  0
   36.3286    2.8226    4.1456 H   0  0  0  0  0  0  0  0  0  0  0  0
   35.4431    3.7549    5.3660 H   0  0  0  0  0  0  0  0  0  0  0  0
   34.5667    2.8876    4.0925 H   0  0  0  0  0  0  0  0  0  0  0  0
   38.2111    4.0900    1.9898 H   0  0  0  0  0  0  0  0  0  0  0  0
   40.0928    2.3289    1.2126 H   0  0  0  0  0  0  0  0  0  0  0  0
   40.0414   -2.3671   -1.1875 H   0  0  0  0  0  0  0  0  0  0  0  0
   38.1211   -4.0831   -1.9718 H   0  0  0  0  0  0  0  0  0  0  0  0
   34.5261   -2.7918   -4.0957 H   0  0  0  0  0  0  0  0  0  0  0  0
   35.3880   -3.6824   -5.3631 H   0  0  0  0  0  0  0  0  0  0  0  0
   36.2894   -2.7728   -4.1372 H   0  0  0  0  0  0  0  0  0  0  0  0
   35.4055   -6.0086   -5.0457 H   0  0  0  0  0  0  0  0  0  0  0  0
   36.2576   -8.4855   -4.4976 H   0  0  0  0  0  0  0  0  0  0  0  0
   35.5854   -9.1574   -3.0015 H   0  0  0  0  0  0  0  0  0  0  0  0
   34.5081   -8.5640   -4.2753 H   0  0  0  0  0  0  0  0  0  0  0  0
   35.5334   -7.7199   -1.1249 H   0  0  0  0  0  0  0  0  0  0  0  0
   34.6928   -4.8414    0.6342 H   0  0  0  0  0  0  0  0  0  0  0  0
   36.4558   -4.8538    0.5823 H   0  0  0  0  0  0  0  0  0  0  0  0
   35.5693   -6.3740    0.7940 H   0  0  0  0  0  0  0  0  0  0  0  0
   32.8454   -4.0836   -1.8310 H   0  0  0  0  0  0  0  0  0  0  0  0
   30.9691   -2.3187   -1.0432 H   0  0  0  0  0  0  0  0  0  0  0  0
   57.3593   -0.0494   -0.0571 Cu  0  0  0  0  0  0  0  0  0  0  0  0
   60.7728   -0.0562   -0.0837 C   0  0  0  0  0  0  0  0  0  0  0  0
   60.1402   -1.1899   -0.5729 C   0  0  0  0  0  0  0  0  0  0  0  0
   60.8140   -2.3529   -1.0783 C   0  0  0  0  0  0  0  0  0  0  0  0
   59.8542   -3.2293   -1.4664 C   0  0  0  0  0  0  0  0  0  0  0  0
   58.5850   -2.6077   -1.2038 C   0  0  0  0  0  0  0  0  0  0  0  0
   58.7897   -1.3731   -0.6576 N   0  0  0  0  0  0  0  0  0  0  0  0
   57.3442   -3.1794   -1.4811 C   0  0  0  0  0  0  0  0  0  0  0  0
   57.3341   -4.5470   -2.0783 C   0  0  0  0  0  0  0  0  0  0  0  0
   57.3629   -4.7062   -3.4664 C   0  0  0  0  0  0  0  0  0  0  0  0
   57.4065   -3.4951   -4.3599 C   0  0  0  0  0  0  0  0  0  0  0  0
   57.3503   -5.9862   -4.0082 C   0  0  0  0  0  0  0  0  0  0  0  0
   57.3104   -7.1090   -3.1879 C   0  0  0  0  0  0  0  0  0  0  0  0
   57.2754   -8.4895   -3.7861 C   0  0  0  0  0  0  0  0  0  0  0  0
   57.2814   -6.9389   -1.8076 C   0  0  0  0  0  0  0  0  0  0  0  0
   57.2931   -5.6682   -1.2445 C   0  0  0  0  0  0  0  0  0  0  0  0
   57.2616   -5.4919    0.2504 C   0  0  0  0  0  0  0  0  0  0  0  0
   56.1098   -2.5785   -1.2393 C   0  0  0  0  0  0  0  0  0  0  0  0
   54.8385   -3.1719   -1.5431 C   0  0  0  0  0  0  0  0  0  0  0  0
   53.8845   -2.2921   -1.1454 C   0  0  0  0  0  0  0  0  0  0  0  0
   55.9115   -1.3500   -0.6689 N   0  0  0  0  0  0  0  0  0  0  0  0
   54.5654   -1.1578   -0.5937 C   0  0  0  0  0  0  0  0  0  0  0  0
   53.9264   -0.0439   -0.0277 C   0  0  0  0  0  0  0  0  0  0  0  0
   54.5785    1.0682    0.5265 C   0  0  0  0  0  0  0  0  0  0  0  0
   53.9106    2.2054    1.0882 C   0  0  0  0  0  0  0  0  0  0  0  0
   54.8740    3.0829    1.4681 C   0  0  0  0  0  0  0  0  0  0  0  0
   56.1381    2.4850    1.1435 C   0  0  0  0  0  0  0  0  0  0  0  0
   55.9262    1.2564    0.5782 N   0  0  0  0  0  0  0  0  0  0  0  0
   57.3785    3.0816    1.3643 C   0  0  0  0  0  0  0  0  0  0  0  0
   57.3842    4.4497    1.9605 C   0  0  0  0  0  0  0  0  0  0  0  0
   57.3316    5.5709    1.1263 C   0  0  0  0  0  0  0  0  0  0  0  0
   57.2707    5.3932   -0.3675 C   0  0  0  0  0  0  0  0  0  0  0  0
   57.3348    6.8412    1.6884 C   0  0  0  0  0  0  0  0  0  0  0  0
   57.3885    7.0124    3.0689 C   0  0  0  0  0  0  0  0  0  0  0  0
   57.3978    8.3987    3.6548 C   0  0  0  0  0  0  0  0  0  0  0  0
   57.4408    5.8910    3.8886 C   0  0  0  0  0  0  0  0  0  0  0  0
   57.4389    4.6099    3.3472 C   0  0  0  0  0  0  0  0  0  0  0  0
   57.4928    3.3996    4.2411 C   0  0  0  0  0  0  0  0  0  0  0  0
   58.6125    2.5047    1.0682 C   0  0  0  0  0  0  0  0  0  0  0  0
   59.8882    3.1212    1.3109 C   0  0  0  0  0  0  0  0  0  0  0  0
   60.8384    2.2406    0.9092 C   0  0  0  0  0  0  0  0  0  0  0  0
   60.1522    1.0801    0.4148 C   0  0  0  0  0  0  0  0  0  0  0  0
   58.8039    1.2688    0.5198 N   0  0  0  0  0  0  0  0  0  0  0  0
   61.8579   -0.0584   -0.0918 H   0  0  0  0  0  0  0  0  0  0  0  0
   61.8855   -2.4697   -1.1243 H   0  0  0  0  0  0  0  0  0  0  0  0
   59.9801   -4.2108   -1.8952 H   0  0  0  0  0  0  0  0  0  0  0  0
   58.2987   -2.9019   -4.1504 H   0  0  0  0  0  0  0  0  0  0  0  0
   56.5355   -2.8616   -4.1815 H   0  0  0  0  0  0  0  0  0  0  0  0
   57.4185   -3.7857   -5.4099 H   0  0  0  0  0  0  0  0  0  0  0  0
   57.3729   -6.1095   -5.0861 H   0  0  0  0  0  0  0  0  0  0  0  0
   57.7406   -9.2145   -3.1177 H   0  0  0  0  0  0  0  0  0  0  0  0
   56.2399   -8.7964   -3.9519 H   0  0  0  0  0  0  0  0  0  0  0  0
   57.7928   -8.5108   -4.7455 H   0  0  0  0  0  0  0  0  0  0  0  0
   57.2504   -7.8091   -1.1600 H   0  0  0  0  0  0  0  0  0  0  0  0
   56.3781   -4.9227    0.5458 H   0  0  0  0  0  0  0  0  0  0  0  0
   57.2406   -6.4568    0.7562 H   0  0  0  0  0  0  0  0  0  0  0  0
   58.1414   -4.9395    0.5857 H   0  0  0  0  0  0  0  0  0  0  0  0
   54.7044   -4.1387   -2.0016 H   0  0  0  0  0  0  0  0  0  0  0  0
   52.8129   -2.3942   -1.2110 H   0  0  0  0  0  0  0  0  0  0  0  0
   52.8405    2.3105    1.1721 H   0  0  0  0  0  0  0  0  0  0  0  0
   54.7508    4.0507    1.9274 H   0  0  0  0  0  0  0  0  0  0  0  0
   58.1425    4.8382   -0.7192 H   0  0  0  0  0  0  0  0  0  0  0  0
   57.2425    6.3577   -0.8737 H   0  0  0  0  0  0  0  0  0  0  0  0
   56.3802    4.8261   -0.6452 H   0  0  0  0  0  0  0  0  0  0  0  0
   57.2934    7.7119    1.0419 H   0  0  0  0  0  0  0  0  0  0  0  0
   56.5773    8.9911    3.2468 H   0  0  0  0  0  0  0  0  0  0  0  0
   57.3001    8.3657    4.7398 H   0  0  0  0  0  0  0  0  0  0  0  0
   58.3332    8.9050    3.4071 H   0  0  0  0  0  0  0  0  0  0  0  0
   57.4823    6.0138    4.9660 H   0  0  0  0  0  0  0  0  0  0  0  0
   58.3785    2.8022    4.0167 H   0  0  0  0  0  0  0  0  0  0  0  0
   56.6160    2.7698    4.0789 H   0  0  0  0  0  0  0  0  0  0  0  0
   57.5247    3.6913    5.2905 H   0  0  0  0  0  0  0  0  0  0  0  0
   60.0247    4.1025    1.7370 H   0  0  0  0  0  0  0  0  0  0  0  0
   61.9109    2.3528    0.9390 H   0  0  0  0  0  0  0  0  0  0  0  0
   40.3810   -0.0193    0.0089 C   0  0  0  0  0  0  0  0  0  0  0  0
   41.5960   -0.0258    0.0094 C   0  0  0  0  0  0  0  0  0  0  0  0
   51.2980   -0.0457   -0.0109 C   0  0  0  0  0  0  0  0  0  0  0  0
   52.5130   -0.0421   -0.0170 C   0  0  0  0  0  0  0  0  0  0  0  0
   46.4471   -0.0422    0.0014 Cu  0  0  0  0  0  0  0  0  0  0  0  0
   43.0092   -0.0322    0.0078 C   0  0  0  0  0  0  0  0  0  0  0  0
   43.6582    0.2429    1.2217 C   0  0  0  0  0  0  0  0  0  0  0  0
   42.9872    0.5060    2.4608 C   0  0  0  0  0  0  0  0  0  0  0  0
   43.9492    0.6854    3.4017 C   0  0  0  0  0  0  0  0  0  0  0  0
   45.2149    0.5386    2.7407 C   0  0  0  0  0  0  0  0  0  0  0  0
   45.0055    0.2718    1.4147 N   0  0  0  0  0  0  0  0  0  0  0  0
   46.4556    0.6543    3.3655 C   0  0  0  0  0  0  0  0  0  0  0  0
   46.4594    0.9113    4.8357 C   0  0  0  0  0  0  0  0  0  0  0  0
   46.4573    2.2211    5.3219 C   0  0  0  0  0  0  0  0  0  0  0  0
   46.4528    3.3788    4.3595 C   0  0  0  0  0  0  0  0  0  0  0  0
   46.4586    2.4408    6.6950 C   0  0  0  0  0  0  0  0  0  0  0  0
   46.4610    1.3755    7.5888 C   0  0  0  0  0  0  0  0  0  0  0  0
   46.4791    1.6188    9.0739 C   0  0  0  0  0  0  0  0  0  0  0  0
   46.4647    0.0750    7.0933 C   0  0  0  0  0  0  0  0  0  0  0  0
   46.4635   -0.1675    5.7253 C   0  0  0  0  0  0  0  0  0  0  0  0
   46.4656   -1.5772    5.1966 C   0  0  0  0  0  0  0  0  0  0  0  0
   47.6932    0.5379    2.7347 C   0  0  0  0  0  0  0  0  0  0  0  0
   48.9622    0.6854    3.3891 C   0  0  0  0  0  0  0  0  0  0  0  0
   49.9194    0.5023    2.4441 C   0  0  0  0  0  0  0  0  0  0  0  0
   47.8959    0.2678    1.4083 N   0  0  0  0  0  0  0  0  0  0  0  0
   49.2421    0.2363    1.2091 C   0  0  0  0  0  0  0  0  0  0  0  0
   49.8849   -0.0465   -0.0063 C   0  0  0  0  0  0  0  0  0  0  0  0
   49.2359   -0.3301   -1.2182 C   0  0  0  0  0  0  0  0  0  0  0  0
   49.9069   -0.6009   -2.4556 C   0  0  0  0  0  0  0  0  0  0  0  0
   48.9449   -0.7843   -3.3957 C   0  0  0  0  0  0  0  0  0  0  0  0
   47.6793   -0.6315   -2.7361 C   0  0  0  0  0  0  0  0  0  0  0  0
   47.8886   -0.3589   -1.4112 N   0  0  0  0  0  0  0  0  0  0  0  0
   46.4387   -0.7438   -3.3617 C   0  0  0  0  0  0  0  0  0  0  0  0
   46.4355   -1.0048   -4.8311 C   0  0  0  0  0  0  0  0  0  0  0  0
   46.4314    0.0713   -5.7239 C   0  0  0  0  0  0  0  0  0  0  0  0
   46.4315    1.4827   -5.1995 C   0  0  0  0  0  0  0  0  0  0  0  0
   46.4271   -0.1753   -7.0913 C   0  0  0  0  0  0  0  0  0  0  0  0
   46.4259   -1.4772   -7.5828 C   0  0  0  0  0  0  0  0  0  0  0  0
   46.4392   -1.7254   -9.0671 C   0  0  0  0  0  0  0  0  0  0  0  0
   46.4311   -2.5398   -6.6859 C   0  0  0  0  0  0  0  0  0  0  0  0
   46.4355   -2.3160   -5.3135 C   0  0  0  0  0  0  0  0  0  0  0  0
   46.4387   -3.4708   -4.3476 C   0  0  0  0  0  0  0  0  0  0  0  0
   45.2011   -0.6196   -2.7325 C   0  0  0  0  0  0  0  0  0  0  0  0
   43.9321   -0.7594   -3.3886 C   0  0  0  0  0  0  0  0  0  0  0  0
   42.9748   -0.5721   -2.4445 C   0  0  0  0  0  0  0  0  0  0  0  0
   43.6521   -0.3121   -1.2082 C   0  0  0  0  0  0  0  0  0  0  0  0
   44.9984   -0.3497   -1.4061 N   0  0  0  0  0  0  0  0  0  0  0  0
   41.9166    0.5419    2.5851 H   0  0  0  0  0  0  0  0  0  0  0  0
   43.8238    0.8996    4.4510 H   0  0  0  0  0  0  0  0  0  0  0  0
   47.3319    3.3374    3.7135 H   0  0  0  0  0  0  0  0  0  0  0  0
   46.4549    4.3290    4.8927 H   0  0  0  0  0  0  0  0  0  0  0  0
   45.5680    3.3371    3.7213 H   0  0  0  0  0  0  0  0  0  0  0  0
   46.4558    3.4583    7.0719 H   0  0  0  0  0  0  0  0  0  0  0  0
   47.4970    1.5134    9.4562 H   0  0  0  0  0  0  0  0  0  0  0  0
   45.8483    0.8951    9.5913 H   0  0  0  0  0  0  0  0  0  0  0  0
   46.1285    2.6238    9.3092 H   0  0  0  0  0  0  0  0  0  0  0  0
   46.4668   -0.7620    7.7840 H   0  0  0  0  0  0  0  0  0  0  0  0
   45.5841   -1.7507    4.5765 H   0  0  0  0  0  0  0  0  0  0  0  0
   47.3479   -1.7479    4.5768 H   0  0  0  0  0  0  0  0  0  0  0  0
   46.4668   -2.2993    6.0126 H   0  0  0  0  0  0  0  0  0  0  0  0
   49.0929    0.9025    4.4372 H   0  0  0  0  0  0  0  0  0  0  0  0
   50.9907    0.5374    2.5630 H   0  0  0  0  0  0  0  0  0  0  0  0
   50.9775   -0.6393   -2.5793 H   0  0  0  0  0  0  0  0  0  0  0  0
   49.0703   -1.0044   -4.4439 H   0  0  0  0  0  0  0  0  0  0  0  0
   45.5527    1.6552   -4.5752 H   0  0  0  0  0  0  0  0  0  0  0  0
   46.4258    2.2023   -6.0176 H   0  0  0  0  0  0  0  0  0  0  0  0
   47.3166    1.6582   -4.5850 H   0  0  0  0  0  0  0  0  0  0  0  0
   46.4229    0.6597   -7.7844 H   0  0  0  0  0  0  0  0  0  0  0  0
   46.0791   -2.7279   -9.2985 H   0  0  0  0  0  0  0  0  0  0  0  0
   47.4575   -1.6308   -9.4513 H   0  0  0  0  0  0  0  0  0  0  0  0
   45.8143   -0.9975   -9.5861 H   0  0  0  0  0  0  0  0  0  0  0  0
   46.4301   -3.5585   -7.0598 H   0  0  0  0  0  0  0  0  0  0  0  0
   46.4399   -4.4226   -4.8780 H   0  0  0  0  0  0  0  0  0  0  0  0
   45.5575   -3.4290   -3.7046 H   0  0  0  0  0  0  0  0  0  0  0  0
   47.3213   -3.4258   -3.7067 H   0  0  0  0  0  0  0  0  0  0  0  0
   43.8015   -0.9745   -4.4371 H   0  0  0  0  0  0  0  0  0  0  0  0
   41.9035   -0.6011   -2.5648 H   0  0  0  0  0  0  0  0  0  0  0  0
  2  3  4  0  0  0  0
  3  4  1  0  0  0  0
  4  5  2  0  0  0  0
  5  6  4  0  0  0  0
  1  7  1  0  0  0  0
  3  7  4  0  0  0  0
  6  7  4  0  0  0  0
  6  8  4  0  0  0  0
  8  9  1  0  0  0  0
  9 10  4  0  0  0  0
 10 11  1  0  0  0  0
 10 12  4  0  0  0  0
 12 13  4  0  0  0  0
 13 14  1  0  0  0  0
 13 15  4  0  0  0  0
  9 16  4  0  0  0  0
 15 16  4  0  0  0  0
 16 17  1  0  0  0  0
  8 18  4  0  0  0  0
 18 19  4  0  0  0  0
 19 20  2  0  0  0  0
  1 21  1  0  0  0  0
 18 21  4  0  0  0  0
 20 22  4  0  0  0  0
 21 22  4  0  0  0  0
 22 23  4  0  0  0  0
 23 24  4  0  0  0  0
 24 25  4  0  0  0  0
 25 26  2  0  0  0  0
 26 27  4  0  0  0  0
  1 28  1  0  0  0  0
 24 28  4  0  0  0  0
 27 28  4  0  0  0  0
 27 29  4  0  0  0  0
 29 30  1  0  0  0  0
 30 31  4  0  0  0  0
 31 32  1  0  0  0  0
 31 33  4  0  0  0  0
 33 34  4  0  0  0  0
 34 35  1  0  0  0  0
 34 36  4  0  0  0  0
 30 37  4  0  0  0  0
 36 37  4  0  0  0  0
 37 38  1  0  0  0  0
 29 39  4  0  0  0  0
 39 40  4  0  0  0  0
 40 41  2  0  0  0  0
  2 42  4  0  0  0  0
 41 42  1  0  0  0  0
  1 43  1  0  0  0  0
 39 43  4  0  0  0  0
 42 43  4  0  0  0  0
  2 44  1  0  0  0  0
  4 45  1  0  0  0  0
  5 46  1  0  0  0  0
 11 47  1  0  0  0  0
 11 48  1  0  0  0  0
 11 49  1  0  0  0  0
 12 50  1  0  0  0  0
 14 51  1  0  0  0  0
 14 52  1  0  0  0  0
 14 53  1  0  0  0  0
 15 54  1  0  0  0  0
 17 55  1  0  0  0  0
 17 56  1  0  0  0  0
 17 57  1  0  0  0  0
 19 58  1  0  0  0  0
 20 59  1  0  0  0  0
 25 60  1  0  0  0  0
 26 61  1  0  0  0  0
 32 62  1  0  0  0  0
 32 63  1  0  0  0  0
 32 64  1  0  0  0  0
 33 65  1  0  0  0  0
 35 66  1  0  0  0  0
 35 67  1  0  0  0  0
 35 68  1  0  0  0  0
 36 69  1  0  0  0  0
 38 70  1  0  0  0  0
 38 71  1  0  0  0  0
 38 72  1  0  0  0  0
 40 73  1  0  0  0  0
 41 74  1  0  0  0  0
 76 77  4  0  0  0  0
 77 78  1  0  0  0  0
 78 79  2  0  0  0  0
 79 80  4  0  0  0  0
 75 81  1  0  0  0  0
 77 81  4  0  0  0  0
 80 81  4  0  0  0  0
 80 82  4  0  0  0  0
 82 83  1  0  0  0  0
 83 84  4  0  0  0  0
 84 85  1  0  0  0  0
 84 86  4  0  0  0  0
 86 87  4  0  0  0  0
 87 88  1  0  0  0  0
 87 89  4  0  0  0  0
 83 90  4  0  0  0  0
 89 90  4  0  0  0  0
 90 91  1  0  0  0  0
 82 92  4  0  0  0  0
 92 93  4  0  0  0  0
 93 94  2  0  0  0  0
 75 95  1  0  0  0  0
 92 95  4  0  0  0  0
 94 96  4  0  0  0  0
 95 96  4  0  0  0  0
 96 97  4  0  0  0  0
 97 98  4  0  0  0  0
 98 99  4  0  0  0  0
 99100  2  0  0  0  0
100101  4  0  0  0  0
 75102  1  0  0  0  0
 98102  4  0  0  0  0
101102  4  0  0  0  0
101103  4  0  0  0  0
103104  1  0  0  0  0
104105  4  0  0  0  0
105106  1  0  0  0  0
105107  4  0  0  0  0
107108  4  0  0  0  0
108109  1  0  0  0  0
108110  4  0  0  0  0
104111  4  0  0  0  0
110111  4  0  0  0  0
111112  1  0  0  0  0
103113  4  0  0  0  0
113114  4  0  0  0  0
114115  2  0  0  0  0
 76116  4  0  0  0  0
115116  1  0  0  0  0
 75117  1  0  0  0  0
113117  4  0  0  0  0
116117  4  0  0  0  0
 76118  1  0  0  0  0
 78119  1  0  0  0  0
 79120  1  0  0  0  0
 85121  1  0  0  0  0
 85122  1  0  0  0  0
 85123  1  0  0  0  0
 86124  1  0  0  0  0
 88125  1  0  0  0  0
 88126  1  0  0  0  0
 88127  1  0  0  0  0
 89128  1  0  0  0  0
 91129  1  0  0  0  0
 91130  1  0  0  0  0
 91131  1  0  0  0  0
 93132  1  0  0  0  0
 94133  1  0  0  0  0
 99134  1  0  0  0  0
100135  1  0  0  0  0
106136  1  0  0  0  0
106137  1  0  0  0  0
106138  1  0  0  0  0
107139  1  0  0  0  0
109140  1  0  0  0  0
109141  1  0  0  0  0
109142  1  0  0  0  0
110143  1  0  0  0  0
112144  1  0  0  0  0
112145  1  0  0  0  0
112146  1  0  0  0  0
114147  1  0  0  0  0
115148  1  0  0  0  0
 23149  1  0  0  0  0
149150  3  0  0  0  0
 97152  1  0  0  0  0
151152  3  0  0  0  0
150154  1  0  0  0  0
154155  4  0  0  0  0
155156  4  0  0  0  0
156157  2  0  0  0  0
157158  4  0  0  0  0
153159  1  0  0  0  0
155159  4  0  0  0  0
158159  4  0  0  0  0
158160  4  0  0  0  0
160161  1  0  0  0  0
161162  4  0  0  0  0
162163  1  0  0  0  0
162164  4  0  0  0  0
164165  4  0  0  0  0
165166  1  0  0  0  0
165167  4  0  0  0  0
161168  4  0  0  0  0
167168  4  0  0  0  0
168169  1  0  0  0  0
160170  4  0  0  0  0
170171  4  0  0  0  0
171172  2  0  0  0  0
153173  1  0  0  0  0
170173  4  0  0  0  0
172174  4  0  0  0  0
173174  4  0  0  0  0
151175  1  0  0  0  0
174175  4  0  0  0  0
175176  4  0  0  0  0
176177  4  0  0  0  0
177178  2  0  0  0  0
178179  4  0  0  0  0
153180  1  0  0  0  0
176180  4  0  0  0  0
179180  4  0  0  0  0
179181  4  0  0  0  0
181182  1  0  0  0  0
182183  4  0  0  0  0
183184  1  0  0  0  0
183185  4  0  0  0  0
185186  4  0  0  0  0
186187  1  0  0  0  0
186188  4  0  0  0  0
182189  4  0  0  0  0
188189  4  0  0  0  0
189190  1  0  0  0  0
181191  4  0  0  0  0
191192  4  0  0  0  0
192193  2  0  0  0  0
154194  4  0  0  0  0
193194  4  0  0  0  0
153195  1  0  0  0  0
191195  4  0  0  0  0
194195  4  0  0  0  0
156196  1  0  0  0  0
157197  1  0  0  0  0
163198  1  0  0  0  0
163199  1  0  0  0  0
163200  1  0  0  0  0
164201  1  0  0  0  0
166202  1  0  0  0  0
166203  1  0  0  0  0
166204  1  0  0  0  0
167205  1  0  0  0  0
169206  1  0  0  0  0
169207  1  0  0  0  0
169208  1  0  0  0  0
171209  1  0  0  0  0
172210  1  0  0  0  0
177211  1  0  0  0  0
178212  1  0  0  0  0
184213  1  0  0  0  0
184214  1  0  0  0  0
184215  1  0  0  0  0
185216  1  0  0  0  0
187217  1  0  0  0  0
187218  1  0  0  0  0
187219  1  0  0  0  0
188220  1  0  0  0  0
190221  1  0  0  0  0
190222  1  0  0  0  0
190223  1  0  0  0  0
192224  1  0  0  0  0
193225  1  0  0  0  0
M  END
