214

C 25.351724 -0.048981 0.087421
C 26.080322 1.231088 0.600470
C 25.470197 2.337556 1.145949
C 26.491794 3.283609 1.419096
C 27.691725 2.723859 1.026104
N 27.433457 1.454106 0.573401
C 29.115261 3.422155 1.057126
C 30.243582 2.709576 0.791562
C 31.547379 3.338622 0.739640
C 32.448006 2.412586 0.432794
N 30.439078 1.381456 0.516319
C 31.769230 1.139461 0.289485
C 32.436559 -0.005490 -0.015122
C 31.661972 -1.386733 -0.124360
C 32.209542 -2.643345 0.048786
C 31.184955 -3.592976 -0.187643
C 30.037379 -2.890455 -0.486110
C 28.624644 -3.515685 -0.848656
C 28.593212 -4.902090 -1.369080
C 28.229898 -5.966687 -0.534591
C 28.210450 -7.280612 -1.018480
C 27.778922 -8.407241 -0.130683
C 28.545436 -7.518616 -2.359182
C 28.928070 -6.466182 -3.203020
C 29.258416 -6.718068 -4.642146
C 28.940075 -5.158943 -2.700157
C 27.499416 -2.769883 -0.694888
C 26.175077 -3.269518 -1.020027
C 25.290533 -2.313671 -0.751633
C 26.015102 -1.168467 -0.257215
N 27.336803 -1.487684 -0.248645
N 30.324684 -1.548632 -0.394282
C 29.154392 4.877918 1.336285
C 29.425026 5.342007 2.629317
C 29.453315 6.714733 2.904786
C 29.789911 7.195184 4.282926
C 29.223671 7.624321 1.862507
C 28.934946 7.175413 0.565677
C 28.716777 8.148177 -0.552543
C 28.912464 5.798613 0.310203
H 24.272971 -0.014961 -0.006371
H 24.410919 2.457046 1.312997
H 26.363869 4.272320 1.834350
H 28.135111 0.788605 0.257139
H 31.758567 4.380015 0.905666
H 33.500560 2.598052 0.322028
H 33.235711 -2.857571 0.305558
H 31.273487 -4.668492 -0.147662
H 27.957156 -5.744995 0.495868
H 26.725806 -8.645996 -0.312771
H 28.384645 -9.300774 -0.318360
H 27.901400 -8.147707 0.926697
H 28.507845 -8.532803 -2.748595
H 30.003234 -6.001460 -5.002644
H 29.680058 -7.719546 -4.777312
H 28.356355 -6.629104 -5.254775
H 29.213745 -4.318208 -3.335515
H 25.945085 -4.243305 -1.413437
H 24.225822 -2.373502 -0.886000
H 29.637371 -0.802269 -0.461190
H 29.620825 4.610490 3.411573
H 29.400314 6.508549 5.042086
H 29.345116 8.176961 4.474574
H 30.874816 7.272581 4.397707
H 29.270019 8.691695 2.061853
H 28.302531 9.089917 -0.177436
H 29.664666 8.356672 -1.057235
H 28.005559 7.749813 -1.283480
H 28.711587 5.418675 -0.690129
C 61.931430 -0.019760 0.095344
C 61.202831 -1.383659 -0.108552
C 61.812956 -2.614121 -0.196761
C 60.791359 -3.568567 -0.438959
C 59.591428 -2.886964 -0.495342
N 59.849696 -1.562452 -0.244577
C 58.167893 -3.505274 -0.821335
C 57.039571 -2.756151 -0.690540
C 55.735774 -3.272796 -1.053130
C 54.835147 -2.318602 -0.850128
N 56.844075 -1.470918 -0.257139
C 55.513923 -1.147480 -0.330648
C 54.846594 -0.005490 -0.015122
C 55.621181 1.241727 0.588380
C 55.073611 2.238730 1.372623
C 56.098199 3.177715 1.648316
C 57.245775 2.722208 1.035835
C 58.658509 3.444942 1.038807
C 58.689941 4.904337 1.290057
C 59.053255 5.401532 2.548046
C 59.072703 6.779918 2.794213
C 59.504231 7.303717 4.129544
C 58.737717 7.662615 1.757402
C 58.355083 7.180639 0.497490
C 58.024737 8.125038 -0.617248
C 58.343078 5.798438 0.271076
C 59.783738 2.723624 0.794747
C 61.108076 3.319070 0.766553
C 61.992621 2.358573 0.515305
C 61.268051 1.120476 0.363461
N 59.946350 1.391635 0.532119
N 56.958469 1.517807 0.437222
C 58.128761 -4.902644 -1.315839
C 57.858127 -5.956373 -0.434382
C 57.829838 -7.280216 -0.890123
C 57.493242 -8.391061 0.056517
C 58.059482 -7.538665 -2.249130
C 58.348207 -6.496119 -3.141533
C 58.566376 -6.770725 -4.597993
C 58.370689 -5.178860 -2.666479
H 63.010182 -0.001738 -0.002785
H 62.872234 -2.801632 -0.112961
H 60.919284 -4.631616 -0.580066
H 59.148042 -0.828346 -0.181318
H 55.524586 -4.255406 -1.435938
H 53.782593 -2.422705 -1.039415
H 54.047442 2.293894 1.702443
H 56.009666 4.085702 2.226150
H 59.325997 4.689640 3.325353
H 60.557347 7.601753 4.093013
H 58.898508 8.169660 4.418971
H 59.381753 6.545569 4.910966
H 58.775308 8.734596 1.933681
H 57.279919 7.688712 -1.290380
H 57.603095 9.057611 -0.227972
H 58.926798 8.357749 -1.190899
H 58.069408 5.393842 -0.701969
H 61.338068 4.358204 0.918972
H 63.057331 2.478087 0.429570
H 57.645782 0.907486 0.002432
H 57.662328 -5.720243 0.610263
H 57.882839 -8.181998 1.058556
H 57.938037 -9.335164 -0.274062
H 56.408337 -8.515841 0.116475
H 58.013134 -8.560529 -2.616307
H 58.980622 -7.772957 -4.750019
H 57.618487 -6.695698 -5.138877
H 59.277594 -6.057676 -5.027556
H 58.571567 -4.345620 -3.337842
C 36.054433 0.007241 -0.012597
C 34.802162 -0.011940 -0.016946
C 37.368101 0.006475 -0.010665
C 38.871235 -0.011940 -0.016946
C 49.750259 0.007241 -0.012597
C 48.497988 -0.011940 -0.016946
C 51.063927 0.006475 -0.010665
C 52.567060 -0.011940 -0.016946
C 40.066308 0.012546 0.032683
C 40.857693 -1.127224 0.798637
C 40.344684 -1.993402 1.742934
C 41.381417 -2.892443 2.100908
C 42.497421 -2.542594 1.370157
N 42.189168 -1.423664 0.637247
C 43.890239 -3.297645 1.364251
C 45.024233 -2.632110 1.020163
C 46.312311 -3.289703 0.940735
C 47.219299 -2.390922 0.573465
N 45.230995 -1.323833 0.679251
C 46.555724 -1.113658 0.403799
C 47.219486 0.012546 0.032683
C 46.427394 1.375556 -0.129829
C 46.937855 2.648277 0.029566
C 45.901382 3.563160 -0.286510
C 44.788011 2.821154 -0.621027
C 43.396043 3.389203 -1.119733
C 43.401306 4.699900 -1.812061
C 42.973593 5.855821 -1.146526
C 42.994292 7.100600 -1.787996
C 42.570306 8.334081 -1.050926
C 43.472944 7.181605 -3.103430
C 43.893646 6.032460 -3.788179
C 44.431808 6.125166 -5.183122
C 43.864221 4.796769 -3.129168
C 42.262047 2.660464 -0.945590
C 40.974169 3.106531 -1.435586
C 40.067065 2.186383 -1.126357
C 40.730412 1.108004 -0.420935
N 42.055122 1.447114 -0.349144
N 45.097399 1.494543 -0.451650
C 43.884603 -4.741938 1.698129
C 43.423036 -5.676985 0.764772
C 43.389164 -7.042208 1.076511
C 42.852084 -8.024554 0.080978
C 43.804029 -7.462675 2.348488
C 44.281630 -6.540790 3.290764
C 44.698473 -6.988481 4.658299
C 44.307190 -5.180161 2.959627
H 39.332426 -1.995212 2.117386
H 41.316756 -3.715408 2.796861
H 42.853527 -0.877204 0.096994
H 46.507496 -4.329588 1.133573
H 48.264364 -2.596532 0.430365
H 47.948276 2.893798 0.319246
H 45.964251 4.641062 -0.289555
H 42.625642 5.762191 -0.119095
H 43.434408 8.793066 -0.560342
H 42.123166 9.062128 -1.735994
H 41.816929 8.098758 -0.291361
H 43.517611 8.147699 -3.599435
H 44.217706 5.210754 -5.746317
H 45.514801 6.279918 -5.157077
H 43.969055 6.956003 -5.726205
H 44.203892 3.890491 -3.627738
H 40.778858 4.019668 -1.969137
H 39.022166 2.249291 -1.369346
H 44.433806 0.727699 -0.509300
H 43.086871 -5.318204 -0.206644
H 43.302509 -9.012418 0.223949
H 43.081971 -7.708952 -0.942245
H 41.766652 -8.112616 0.189745
H 43.755339 -8.517270 2.606784
H 45.486190 -6.341519 5.058684
H 45.098544 -8.007455 4.631099
H 43.840978 -6.964178 5.337837
H 44.653753 -4.437091 3.676054
