 xtb: 6.5.1 (b24c23e)
          07272217363D

214234  0     0  0            999 V2000
   26.8051    0.0832   -0.0086 C   0  0  0  0  0  0  0  0  0  0  0  0
   27.4186    1.2814    0.3332 C   0  0  0  0  0  0  0  0  0  0  0  0
   26.7726    2.4940    0.7043 C   0  0  0  0  0  0  0  0  0  0  0  0
   27.7393    3.4275    0.9527 C   0  0  0  0  0  0  0  0  0  0  0  0
   29.0072    2.8184    0.7299 C   0  0  0  0  0  0  0  0  0  0  0  0
   28.7628    1.5236    0.3689 N   0  0  0  0  0  0  0  0  0  0  0  0
   30.2722    3.4022    0.8601 C   0  0  0  0  0  0  0  0  0  0  0  0
   31.4849    2.7397    0.6575 C   0  0  0  0  0  0  0  0  0  0  0  0
   32.7827    3.3865    0.7305 C   0  0  0  0  0  0  0  0  0  0  0  0
   33.7013    2.4301    0.4820 C   0  0  0  0  0  0  0  0  0  0  0  0
   31.6368    1.4215    0.3514 N   0  0  0  0  0  0  0  0  0  0  0  0
   32.9636    1.2030    0.2515 C   0  0  0  0  0  0  0  0  0  0  0  0
   33.5979   -0.0275   -0.0139 C   0  0  0  0  0  0  0  0  0  0  0  0
   32.9585   -1.2531   -0.2788 C   0  0  0  0  0  0  0  0  0  0  0  0
   33.5970   -2.4976   -0.5244 C   0  0  0  0  0  0  0  0  0  0  0  0
   32.6260   -3.4298   -0.7660 C   0  0  0  0  0  0  0  0  0  0  0  0
   31.3634   -2.7799   -0.6833 C   0  0  0  0  0  0  0  0  0  0  0  0
   30.0998   -3.3524   -0.8614 C   0  0  0  0  0  0  0  0  0  0  0  0
   30.0610   -4.7894   -1.2290 C   0  0  0  0  0  0  0  0  0  0  0  0
   29.4386   -5.7129   -0.3902 C   0  0  0  0  0  0  0  0  0  0  0  0
   29.3983   -7.0612   -0.7294 C   0  0  0  0  0  0  0  0  0  0  0  0
   28.7122   -8.0474    0.1770 C   0  0  0  0  0  0  0  0  0  0  0  0
   29.9812   -7.4826   -1.9207 C   0  0  0  0  0  0  0  0  0  0  0  0
   30.6066   -6.5733   -2.7685 C   0  0  0  0  0  0  0  0  0  0  0  0
   31.2169   -7.0332   -4.0650 C   0  0  0  0  0  0  0  0  0  0  0  0
   30.6452   -5.2283   -2.4165 C   0  0  0  0  0  0  0  0  0  0  0  0
   28.8860   -2.6716   -0.7223 C   0  0  0  0  0  0  0  0  0  0  0  0
   27.5816   -3.2688   -0.9630 C   0  0  0  0  0  0  0  0  0  0  0  0
   26.6695   -2.3059   -0.7209 C   0  0  0  0  0  0  0  0  0  0  0  0
   27.4157   -1.1185   -0.3434 C   0  0  0  0  0  0  0  0  0  0  0  0
   28.7470   -1.3728   -0.3645 N   0  0  0  0  0  0  0  0  0  0  0  0
   31.6163   -1.4689   -0.3757 N   0  0  0  0  0  0  0  0  0  0  0  0
   30.3085    4.8352    1.2447 C   0  0  0  0  0  0  0  0  0  0  0  0
   30.9224    5.2259    2.4331 C   0  0  0  0  0  0  0  0  0  0  0  0
   30.9526    6.5661    2.8066 C   0  0  0  0  0  0  0  0  0  0  0  0
   31.6288    6.9752    4.0873 C   0  0  0  0  0  0  0  0  0  0  0  0
   30.3675    7.5175    1.9781 C   0  0  0  0  0  0  0  0  0  0  0  0
   29.7511    7.1433    0.7867 C   0  0  0  0  0  0  0  0  0  0  0  0
   29.1387    8.1874   -0.1075 C   0  0  0  0  0  0  0  0  0  0  0  0
   29.7233    5.8012    0.4260 C   0  0  0  0  0  0  0  0  0  0  0  0
   25.7198    0.0964   -0.0112 H   0  0  0  0  0  0  0  0  0  0  0  0
   25.7040    2.6205    0.7750 H   0  0  0  0  0  0  0  0  0  0  0  0
   27.5934    4.4474    1.2695 H   0  0  0  0  0  0  0  0  0  0  0  0
   29.4844    0.8413    0.1616 H   0  0  0  0  0  0  0  0  0  0  0  0
   32.9457    4.4332    0.9304 H   0  0  0  0  0  0  0  0  0  0  0  0
   34.7752    2.5216    0.4463 H   0  0  0  0  0  0  0  0  0  0  0  0
   34.6642   -2.6508   -0.5116 H   0  0  0  0  0  0  0  0  0  0  0  0
   32.7674   -4.4776   -0.9754 H   0  0  0  0  0  0  0  0  0  0  0  0
   29.0004   -5.3752    0.5427 H   0  0  0  0  0  0  0  0  0  0  0  0
   27.6390   -8.0542   -0.0269 H   0  0  0  0  0  0  0  0  0  0  0  0
   29.0955   -9.0554    0.0180 H   0  0  0  0  0  0  0  0  0  0  0  0
   28.8552   -7.7757    1.2233 H   0  0  0  0  0  0  0  0  0  0  0  0
   29.9503   -8.5333   -2.1905 H   0  0  0  0  0  0  0  0  0  0  0  0
   32.0980   -6.4396   -4.3104 H   0  0  0  0  0  0  0  0  0  0  0  0
   31.5025   -8.0838   -4.0097 H   0  0  0  0  0  0  0  0  0  0  0  0
   30.4947   -6.9187   -4.8766 H   0  0  0  0  0  0  0  0  0  0  0  0
   31.1176   -4.5089   -3.0767 H   0  0  0  0  0  0  0  0  0  0  0  0
   27.4128   -4.2839   -1.2850 H   0  0  0  0  0  0  0  0  0  0  0  0
   25.5943   -2.3606   -0.7904 H   0  0  0  0  0  0  0  0  0  0  0  0
   30.8982   -0.7651   -0.2391 H   0  0  0  0  0  0  0  0  0  0  0  0
   31.3623    4.4736    3.0786 H   0  0  0  0  0  0  0  0  0  0  0  0
   31.4233    6.2542    4.8793 H   0  0  0  0  0  0  0  0  0  0  0  0
   31.2912    7.9600    4.4101 H   0  0  0  0  0  0  0  0  0  0  0  0
   32.7104    7.0151    3.9398 H   0  0  0  0  0  0  0  0  0  0  0  0
   30.3880    8.5643    2.2637 H   0  0  0  0  0  0  0  0  0  0  0  0
   28.6298    8.9503    0.4827 H   0  0  0  0  0  0  0  0  0  0  0  0
   29.9184    8.6786   -0.6941 H   0  0  0  0  0  0  0  0  0  0  0  0
   28.4234    7.7395   -0.7973 H   0  0  0  0  0  0  0  0  0  0  0  0
   29.2587    5.4996   -0.5065 H   0  0  0  0  0  0  0  0  0  0  0  0
   60.4746   -0.0707   -0.0451 C   0  0  0  0  0  0  0  0  0  0  0  0
   59.8642   -1.2864   -0.3252 C   0  0  0  0  0  0  0  0  0  0  0  0
   60.5137   -2.5250   -0.5885 C   0  0  0  0  0  0  0  0  0  0  0  0
   59.5494   -3.4657   -0.8182 C   0  0  0  0  0  0  0  0  0  0  0  0
   58.2795   -2.8299   -0.7117 C   0  0  0  0  0  0  0  0  0  0  0  0
   58.5204   -1.5205   -0.4055 N   0  0  0  0  0  0  0  0  0  0  0  0
   57.0163   -3.4124   -0.8626 C   0  0  0  0  0  0  0  0  0  0  0  0
   55.8009   -2.7425   -0.7069 C   0  0  0  0  0  0  0  0  0  0  0  0
   54.5036   -3.3583   -0.9206 C   0  0  0  0  0  0  0  0  0  0  0  0
   53.5822   -2.4021   -0.6821 C   0  0  0  0  0  0  0  0  0  0  0  0
   55.6456   -1.4339   -0.3634 N   0  0  0  0  0  0  0  0  0  0  0  0
   54.3178   -1.2017   -0.3338 C   0  0  0  0  0  0  0  0  0  0  0  0
   53.6808    0.0171   -0.0236 C   0  0  0  0  0  0  0  0  0  0  0  0
   54.3168    1.2338    0.2869 C   0  0  0  0  0  0  0  0  0  0  0  0
   53.6736    2.4517    0.6331 C   0  0  0  0  0  0  0  0  0  0  0  0
   54.6417    3.3876    0.8715 C   0  0  0  0  0  0  0  0  0  0  0  0
   55.9076    2.7716    0.6677 C   0  0  0  0  0  0  0  0  0  0  0  0
   57.1703    3.3553    0.8122 C   0  0  0  0  0  0  0  0  0  0  0  0
   57.2081    4.7901    1.1883 C   0  0  0  0  0  0  0  0  0  0  0  0
   57.8122    5.1840    2.3817 C   0  0  0  0  0  0  0  0  0  0  0  0
   57.8526    6.5259    2.7449 C   0  0  0  0  0  0  0  0  0  0  0  0
   58.5206    6.9411    4.0279 C   0  0  0  0  0  0  0  0  0  0  0  0
   57.2873    7.4777    1.9018 C   0  0  0  0  0  0  0  0  0  0  0  0
   56.6805    7.1009    0.7075 C   0  0  0  0  0  0  0  0  0  0  0  0
   56.0900    8.1386   -0.2086 C   0  0  0  0  0  0  0  0  0  0  0  0
   56.6426    5.7555    0.3563 C   0  0  0  0  0  0  0  0  0  0  0  0
   58.3862    2.6877    0.6319 C   0  0  0  0  0  0  0  0  0  0  0  0
   59.6901    3.3258    0.7271 C   0  0  0  0  0  0  0  0  0  0  0  0
   60.6047    2.3647    0.4872 C   0  0  0  0  0  0  0  0  0  0  0  0
   59.8609    1.1428    0.2367 C   0  0  0  0  0  0  0  0  0  0  0  0
   58.5285    1.3767    0.3238 N   0  0  0  0  0  0  0  0  0  0  0  0
   55.6588    1.4692    0.3219 N   0  0  0  0  0  0  0  0  0  0  0  0
   56.9876   -4.8534   -1.2179 C   0  0  0  0  0  0  0  0  0  0  0  0
   56.4022   -5.7788   -0.3562 C   0  0  0  0  0  0  0  0  0  0  0  0
   56.3807   -7.1319   -0.6805 C   0  0  0  0  0  0  0  0  0  0  0  0
   55.7346   -8.1199    0.2528 C   0  0  0  0  0  0  0  0  0  0  0  0
   56.9457   -7.5546   -1.8790 C   0  0  0  0  0  0  0  0  0  0  0  0
   57.5338   -6.6421   -2.7511 C   0  0  0  0  0  0  0  0  0  0  0  0
   58.1244   -7.1125   -4.0529 C   0  0  0  0  0  0  0  0  0  0  0  0
   57.5533   -5.2935   -2.4146 C   0  0  0  0  0  0  0  0  0  0  0  0
   61.5600   -0.0793   -0.0490 H   0  0  0  0  0  0  0  0  0  0  0  0
   61.5828   -2.6660   -0.5923 H   0  0  0  0  0  0  0  0  0  0  0  0
   59.6979   -4.5113   -1.0346 H   0  0  0  0  0  0  0  0  0  0  0  0
   57.7972   -0.8252   -0.2546 H   0  0  0  0  0  0  0  0  0  0  0  0
   54.3423   -4.3799   -1.2246 H   0  0  0  0  0  0  0  0  0  0  0  0
   52.5078   -2.4740   -0.7384 H   0  0  0  0  0  0  0  0  0  0  0  0
   52.6053    2.5828    0.6966 H   0  0  0  0  0  0  0  0  0  0  0  0
   54.4957    4.4125    1.1714 H   0  0  0  0  0  0  0  0  0  0  0  0
   58.2360    4.4318    3.0380 H   0  0  0  0  0  0  0  0  0  0  0  0
   59.5947    7.0574    3.8657 H   0  0  0  0  0  0  0  0  0  0  0  0
   58.1252    7.8927    4.3834 H   0  0  0  0  0  0  0  0  0  0  0  0
   58.3758    6.1867    4.8017 H   0  0  0  0  0  0  0  0  0  0  0  0
   57.3173    8.5262    2.1803 H   0  0  0  0  0  0  0  0  0  0  0  0
   55.2223    7.7414   -0.7361 H   0  0  0  0  0  0  0  0  0  0  0  0
   55.7888    9.0248    0.3502 H   0  0  0  0  0  0  0  0  0  0  0  0
   56.8300    8.4408   -0.9532 H   0  0  0  0  0  0  0  0  0  0  0  0
   56.1859    5.4527   -0.5796 H   0  0  0  0  0  0  0  0  0  0  0  0
   59.8571    4.3704    0.9355 H   0  0  0  0  0  0  0  0  0  0  0  0
   61.6803    2.4455    0.4667 H   0  0  0  0  0  0  0  0  0  0  0  0
   56.3796    0.7805    0.1327 H   0  0  0  0  0  0  0  0  0  0  0  0
   55.9780   -5.4396    0.5825 H   0  0  0  0  0  0  0  0  0  0  0  0
   55.9335   -7.8565    1.2921 H   0  0  0  0  0  0  0  0  0  0  0  0
   56.1017   -9.1294    0.0677 H   0  0  0  0  0  0  0  0  0  0  0  0
   54.6523   -8.1170    0.1049 H   0  0  0  0  0  0  0  0  0  0  0  0
   56.9315   -8.6085   -2.1372 H   0  0  0  0  0  0  0  0  0  0  0  0
   58.6317   -8.0692   -3.9234 H   0  0  0  0  0  0  0  0  0  0  0  0
   57.3327   -7.2474   -4.7932 H   0  0  0  0  0  0  0  0  0  0  0  0
   58.8365   -6.3855   -4.4434 H   0  0  0  0  0  0  0  0  0  0  0  0
   57.9967   -4.5717   -3.0919 H   0  0  0  0  0  0  0  0  0  0  0  0
   36.2267   -0.0530   -0.0213 C   0  0  0  0  0  0  0  0  0  0  0  0
   35.0046   -0.0448   -0.0179 C   0  0  0  0  0  0  0  0  0  0  0  0
   37.5767   -0.0533   -0.0254 C   0  0  0  0  0  0  0  0  0  0  0  0
   38.7989   -0.0451   -0.0287 C   0  0  0  0  0  0  0  0  0  0  0  0
   49.7019    0.0363   -0.0202 C   0  0  0  0  0  0  0  0  0  0  0  0
   48.4797    0.0256   -0.0239 C   0  0  0  0  0  0  0  0  0  0  0  0
   51.0518    0.0364   -0.0192 C   0  0  0  0  0  0  0  0  0  0  0  0
   52.2740    0.0316   -0.0210 C   0  0  0  0  0  0  0  0  0  0  0  0
   40.2048   -0.0374   -0.0324 C   0  0  0  0  0  0  0  0  0  0  0  0
   40.8392   -1.2225    0.3858 C   0  0  0  0  0  0  0  0  0  0  0  0
   40.1999   -2.4038    0.8427 C   0  0  0  0  0  0  0  0  0  0  0  0
   41.1721   -3.3172    1.1471 C   0  0  0  0  0  0  0  0  0  0  0  0
   42.4341   -2.7223    0.8745 C   0  0  0  0  0  0  0  0  0  0  0  0
   42.1819   -1.4535    0.4255 N   0  0  0  0  0  0  0  0  0  0  0  0
   43.6972   -3.3030    1.0396 C   0  0  0  0  0  0  0  0  0  0  0  0
   44.9188   -2.6728    0.7980 C   0  0  0  0  0  0  0  0  0  0  0  0
   46.2059   -3.3341    0.9179 C   0  0  0  0  0  0  0  0  0  0  0  0
   47.1410   -2.4089    0.6180 C   0  0  0  0  0  0  0  0  0  0  0  0
   45.0925   -1.3787    0.4121 N   0  0  0  0  0  0  0  0  0  0  0  0
   46.4236   -1.1880    0.3087 C   0  0  0  0  0  0  0  0  0  0  0  0
   47.0739    0.0157   -0.0290 C   0  0  0  0  0  0  0  0  0  0  0  0
   46.4388    1.2221   -0.3803 C   0  0  0  0  0  0  0  0  0  0  0  0
   47.0772    2.4443   -0.7149 C   0  0  0  0  0  0  0  0  0  0  0  0
   46.1050    3.3543   -1.0293 C   0  0  0  0  0  0  0  0  0  0  0  0
   44.8439    2.7108   -0.9016 C   0  0  0  0  0  0  0  0  0  0  0  0
   43.5817    3.2716   -1.1298 C   0  0  0  0  0  0  0  0  0  0  0  0
   43.5631    4.6737   -1.6186 C   0  0  0  0  0  0  0  0  0  0  0  0
   42.9671    5.6788   -0.8578 C   0  0  0  0  0  0  0  0  0  0  0  0
   42.9439    6.9910   -1.3163 C   0  0  0  0  0  0  0  0  0  0  0  0
   42.3186    8.0778   -0.4841 C   0  0  0  0  0  0  0  0  0  0  0  0
   43.5203    7.2946   -2.5468 C   0  0  0  0  0  0  0  0  0  0  0  0
   44.1166    6.3026   -3.3184 C   0  0  0  0  0  0  0  0  0  0  0  0
   44.7490    6.6388   -4.6419 C   0  0  0  0  0  0  0  0  0  0  0  0
   44.1389    4.9939   -2.8468 C   0  0  0  0  0  0  0  0  0  0  0  0
   42.3594    2.6245   -0.9437 C   0  0  0  0  0  0  0  0  0  0  0  0
   41.0720    3.2284   -1.2376 C   0  0  0  0  0  0  0  0  0  0  0  0
   40.1369    2.3078   -0.9239 C   0  0  0  0  0  0  0  0  0  0  0  0
   40.8548    1.1404   -0.4516 C   0  0  0  0  0  0  0  0  0  0  0  0
   42.1856    1.3553   -0.4822 N   0  0  0  0  0  0  0  0  0  0  0  0
   45.0963    1.4276   -0.4959 N   0  0  0  0  0  0  0  0  0  0  0  0
   43.7183   -4.7090    1.5162 C   0  0  0  0  0  0  0  0  0  0  0  0
   43.1377   -5.7208    0.7538 C   0  0  0  0  0  0  0  0  0  0  0  0
   43.1550   -7.0392    1.1984 C   0  0  0  0  0  0  0  0  0  0  0  0
   42.5137   -8.1214    0.3723 C   0  0  0  0  0  0  0  0  0  0  0  0
   43.7525   -7.3394    2.4181 C   0  0  0  0  0  0  0  0  0  0  0  0
   44.3361   -6.3394    3.1915 C   0  0  0  0  0  0  0  0  0  0  0  0
   44.9618   -6.6747    4.5184 C   0  0  0  0  0  0  0  0  0  0  0  0
   44.3171   -5.0266    2.7349 C   0  0  0  0  0  0  0  0  0  0  0  0
   39.1326   -2.5279    0.9306 H   0  0  0  0  0  0  0  0  0  0  0  0
   41.0299   -4.3128    1.5347 H   0  0  0  0  0  0  0  0  0  0  0  0
   42.8967   -0.7808    0.1690 H   0  0  0  0  0  0  0  0  0  0  0  0
   46.3511   -4.3691    1.1817 H   0  0  0  0  0  0  0  0  0  0  0  0
   48.2135   -2.5180    0.5942 H   0  0  0  0  0  0  0  0  0  0  0  0
   48.1442    2.5991   -0.7108 H   0  0  0  0  0  0  0  0  0  0  0  0
   46.2459    4.3834   -1.3171 H   0  0  0  0  0  0  0  0  0  0  0  0
   42.5306    5.4312    0.1036 H   0  0  0  0  0  0  0  0  0  0  0  0
   43.0907    8.6004    0.0853 H   0  0  0  0  0  0  0  0  0  0  0  0
   41.8138    8.8078   -1.1175 H   0  0  0  0  0  0  0  0  0  0  0  0
   41.5978    7.6628    0.2204 H   0  0  0  0  0  0  0  0  0  0  0  0
   43.5000    8.3171   -2.9097 H   0  0  0  0  0  0  0  0  0  0  0  0
   44.6370    5.8133   -5.3453 H   0  0  0  0  0  0  0  0  0  0  0  0
   45.8169    6.8253   -4.5062 H   0  0  0  0  0  0  0  0  0  0  0  0
   44.2994    7.5336   -5.0726 H   0  0  0  0  0  0  0  0  0  0  0  0
   44.5875    4.2094   -3.4465 H   0  0  0  0  0  0  0  0  0  0  0  0
   40.9259    4.2175   -1.6403 H   0  0  0  0  0  0  0  0  0  0  0  0
   39.0642    2.3824   -1.0047 H   0  0  0  0  0  0  0  0  0  0  0  0
   44.3822    0.7316   -0.3091 H   0  0  0  0  0  0  0  0  0  0  0  0
   42.6881   -5.4777   -0.2029 H   0  0  0  0  0  0  0  0  0  0  0  0
   42.9276   -9.0987    0.6204 H   0  0  0  0  0  0  0  0  0  0  0  0
   42.6618   -7.9346   -0.6917 H   0  0  0  0  0  0  0  0  0  0  0  0
   41.4386   -8.1470    0.5646 H   0  0  0  0  0  0  0  0  0  0  0  0
   43.7676   -8.3658    2.7701 H   0  0  0  0  0  0  0  0  0  0  0  0
   45.7059   -5.9286    4.7974 H   0  0  0  0  0  0  0  0  0  0  0  0
   45.4389   -7.6546    4.4851 H   0  0  0  0  0  0  0  0  0  0  0  0
   44.1943   -6.6980    5.2955 H   0  0  0  0  0  0  0  0  0  0  0  0
   44.7579   -4.2368    3.3333 H   0  0  0  0  0  0  0  0  0  0  0  0
  1  2  4  0  0  0  0
  2  3  4  0  0  0  0
  3  4  2  0  0  0  0
  4  5  4  0  0  0  0
  2  6  4  0  0  0  0
  5  6  4  0  0  0  0
  5  7  4  0  0  0  0
  7  8  4  0  0  0  0
  8  9  1  0  0  0  0
  9 10  2  0  0  0  0
  8 11  4  0  0  0  0
 10 12  1  0  0  0  0
 11 12  4  0  0  0  0
 12 13  4  0  0  0  0
 13 14  4  0  0  0  0
 14 15  4  0  0  0  0
 15 16  2  0  0  0  0
 16 17  4  0  0  0  0
 17 18  4  0  0  0  0
 18 19  1  0  0  0  0
 19 20  4  0  0  0  0
 20 21  4  0  0  0  0
 21 22  1  0  0  0  0
 21 23  4  0  0  0  0
 23 24  4  0  0  0  0
 24 25  1  0  0  0  0
 19 26  4  0  0  0  0
 24 26  4  0  0  0  0
 18 27  4  0  0  0  0
 27 28  1  0  0  0  0
 28 29  2  0  0  0  0
  1 30  4  0  0  0  0
 29 30  1  0  0  0  0
 27 31  4  0  0  0  0
 30 31  4  0  0  0  0
 14 32  4  0  0  0  0
 17 32  4  0  0  0  0
  7 33  1  0  0  0  0
 33 34  4  0  0  0  0
 34 35  4  0  0  0  0
 35 36  1  0  0  0  0
 35 37  4  0  0  0  0
 37 38  4  0  0  0  0
 38 39  1  0  0  0  0
 33 40  4  0  0  0  0
 38 40  4  0  0  0  0
  1 41  1  0  0  0  0
  3 42  1  0  0  0  0
  4 43  1  0  0  0  0
  6 44  1  0  0  0  0
  9 45  1  0  0  0  0
 10 46  1  0  0  0  0
 15 47  1  0  0  0  0
 16 48  1  0  0  0  0
 20 49  1  0  0  0  0
 22 50  1  0  0  0  0
 22 51  1  0  0  0  0
 22 52  1  0  0  0  0
 23 53  1  0  0  0  0
 25 54  1  0  0  0  0
 25 55  1  0  0  0  0
 25 56  1  0  0  0  0
 26 57  1  0  0  0  0
 28 58  1  0  0  0  0
 29 59  1  0  0  0  0
 32 60  1  0  0  0  0
 34 61  1  0  0  0  0
 36 62  1  0  0  0  0
 36 63  1  0  0  0  0
 36 64  1  0  0  0  0
 37 65  1  0  0  0  0
 39 66  1  0  0  0  0
 39 67  1  0  0  0  0
 39 68  1  0  0  0  0
 40 69  1  0  0  0  0
 70 71  4  0  0  0  0
 71 72  4  0  0  0  0
 72 73  2  0  0  0  0
 73 74  4  0  0  0  0
 71 75  4  0  0  0  0
 74 75  4  0  0  0  0
 74 76  4  0  0  0  0
 76 77  4  0  0  0  0
 77 78  1  0  0  0  0
 78 79  2  0  0  0  0
 77 80  4  0  0  0  0
 79 81  1  0  0  0  0
 80 81  4  0  0  0  0
 81 82  4  0  0  0  0
 82 83  4  0  0  0  0
 83 84  4  0  0  0  0
 84 85  2  0  0  0  0
 85 86  4  0  0  0  0
 86 87  4  0  0  0  0
 87 88  1  0  0  0  0
 88 89  4  0  0  0  0
 89 90  4  0  0  0  0
 90 91  1  0  0  0  0
 90 92  4  0  0  0  0
 92 93  4  0  0  0  0
 93 94  1  0  0  0  0
 88 95  4  0  0  0  0
 93 95  4  0  0  0  0
 87 96  4  0  0  0  0
 96 97  1  0  0  0  0
 97 98  2  0  0  0  0
 70 99  4  0  0  0  0
 98 99  1  0  0  0  0
 96100  4  0  0  0  0
 99100  4  0  0  0  0
 83101  4  0  0  0  0
 86101  4  0  0  0  0
 76102  1  0  0  0  0
102103  4  0  0  0  0
103104  4  0  0  0  0
104105  1  0  0  0  0
104106  4  0  0  0  0
106107  4  0  0  0  0
107108  1  0  0  0  0
102109  4  0  0  0  0
107109  4  0  0  0  0
 70110  1  0  0  0  0
 72111  1  0  0  0  0
 73112  1  0  0  0  0
 75113  1  0  0  0  0
 78114  1  0  0  0  0
 79115  1  0  0  0  0
 84116  1  0  0  0  0
 85117  1  0  0  0  0
 89118  1  0  0  0  0
 91119  1  0  0  0  0
 91120  1  0  0  0  0
 91121  1  0  0  0  0
 92122  1  0  0  0  0
 94123  1  0  0  0  0
 94124  1  0  0  0  0
 94125  1  0  0  0  0
 95126  1  0  0  0  0
 97127  1  0  0  0  0
 98128  1  0  0  0  0
101129  1  0  0  0  0
103130  1  0  0  0  0
105131  1  0  0  0  0
105132  1  0  0  0  0
105133  1  0  0  0  0
106134  1  0  0  0  0
108135  1  0  0  0  0
108136  1  0  0  0  0
108137  1  0  0  0  0
109138  1  0  0  0  0
 13140  4  0  0  0  0
139140  3  0  0  0  0
139141  4  0  0  0  0
141142  3  0  0  0  0
143144  3  0  0  0  0
143145  4  0  0  0  0
 82146  4  0  0  0  0
145146  3  0  0  0  0
142147  4  0  0  0  0
147148  4  0  0  0  0
148149  4  0  0  0  0
149150  2  0  0  0  0
150151  4  0  0  0  0
148152  4  0  0  0  0
151152  4  0  0  0  0
151153  4  0  0  0  0
153154  4  0  0  0  0
154155  1  0  0  0  0
155156  2  0  0  0  0
154157  4  0  0  0  0
156158  1  0  0  0  0
157158  4  0  0  0  0
144159  4  0  0  0  0
158159  4  0  0  0  0
159160  4  0  0  0  0
160161  4  0  0  0  0
161162  2  0  0  0  0
162163  4  0  0  0  0
163164  4  0  0  0  0
164165  1  0  0  0  0
165166  4  0  0  0  0
166167  4  0  0  0  0
167168  1  0  0  0  0
167169  4  0  0  0  0
169170  4  0  0  0  0
170171  1  0  0  0  0
165172  4  0  0  0  0
170172  4  0  0  0  0
164173  4  0  0  0  0
173174  1  0  0  0  0
174175  2  0  0  0  0
147176  4  0  0  0  0
175176  1  0  0  0  0
173177  4  0  0  0  0
176177  4  0  0  0  0
160178  4  0  0  0  0
163178  4  0  0  0  0
153179  1  0  0  0  0
179180  4  0  0  0  0
180181  4  0  0  0  0
181182  1  0  0  0  0
181183  4  0  0  0  0
183184  4  0  0  0  0
184185  1  0  0  0  0
179186  4  0  0  0  0
184186  4  0  0  0  0
149187  1  0  0  0  0
150188  1  0  0  0  0
152189  1  0  0  0  0
155190  1  0  0  0  0
156191  1  0  0  0  0
161192  1  0  0  0  0
162193  1  0  0  0  0
166194  1  0  0  0  0
168195  1  0  0  0  0
168196  1  0  0  0  0
168197  1  0  0  0  0
169198  1  0  0  0  0
171199  1  0  0  0  0
171200  1  0  0  0  0
171201  1  0  0  0  0
172202  1  0  0  0  0
174203  1  0  0  0  0
175204  1  0  0  0  0
178205  1  0  0  0  0
180206  1  0  0  0  0
182207  1  0  0  0  0
182208  1  0  0  0  0
182209  1  0  0  0  0
183210  1  0  0  0  0
185211  1  0  0  0  0
185212  1  0  0  0  0
185213  1  0  0  0  0
186214  1  0  0  0  0
M  END
