 xtb: 6.5.1 (b24c23e)
          07302207493D

294333  0     0  0            999 V2000
   38.7039    0.0418   -0.0986 Cu  0  0  0  0  0  0  0  0  0  0  0  0
   35.3030    0.1490   -0.2803 C   0  0  0  0  0  0  0  0  0  0  0  0
   35.9472    1.3276    0.0648 C   0  0  0  0  0  0  0  0  0  0  0  0
   35.2822    2.5593    0.3799 C   0  0  0  0  0  0  0  0  0  0  0  0
   36.2470    3.4626    0.6836 C   0  0  0  0  0  0  0  0  0  0  0  0
   37.5117    2.7931    0.5461 C   0  0  0  0  0  0  0  0  0  0  0  0
   37.2980    1.4962    0.1766 N   0  0  0  0  0  0  0  0  0  0  0  0
   38.7587    3.3773    0.7791 C   0  0  0  0  0  0  0  0  0  0  0  0
   39.9843    2.7185    0.6734 C   0  0  0  0  0  0  0  0  0  0  0  0
   41.2664    3.3366    0.8585 C   0  0  0  0  0  0  0  0  0  0  0  0
   42.2046    2.3784    0.6495 C   0  0  0  0  0  0  0  0  0  0  0  0
   40.1626    1.3995    0.3471 N   0  0  0  0  0  0  0  0  0  0  0  0
   41.5038    1.1707    0.3315 C   0  0  0  0  0  0  0  0  0  0  0  0
   42.1297   -0.0553    0.0425 C   0  0  0  0  0  0  0  0  0  0  0  0
   41.4604   -1.2493   -0.2801 C   0  0  0  0  0  0  0  0  0  0  0  0
   42.1176   -2.4857   -0.5806 C   0  0  0  0  0  0  0  0  0  0  0  0
   41.1463   -3.3943   -0.8506 C   0  0  0  0  0  0  0  0  0  0  0  0
   39.8872   -2.7191   -0.7121 C   0  0  0  0  0  0  0  0  0  0  0  0
   38.6397   -3.3050   -0.9314 C   0  0  0  0  0  0  0  0  0  0  0  0
   38.6098   -4.7492   -1.2774 C   0  0  0  0  0  0  0  0  0  0  0  0
   38.1242   -5.1670   -2.5146 C   0  0  0  0  0  0  0  0  0  0  0  0
   38.0889   -6.5197   -2.8400 C   0  0  0  0  0  0  0  0  0  0  0  0
   37.5466   -6.9599   -4.1731 C   0  0  0  0  0  0  0  0  0  0  0  0
   38.5386   -7.4551   -1.9145 C   0  0  0  0  0  0  0  0  0  0  0  0
   39.0256   -7.0531   -0.6731 C   0  0  0  0  0  0  0  0  0  0  0  0
   39.5206   -8.0786    0.3107 C   0  0  0  0  0  0  0  0  0  0  0  0
   39.0618   -5.6991   -0.3616 C   0  0  0  0  0  0  0  0  0  0  0  0
   37.4152   -2.6380   -0.8500 C   0  0  0  0  0  0  0  0  0  0  0  0
   36.1277   -3.2470   -1.0459 C   0  0  0  0  0  0  0  0  0  0  0  0
   35.1964   -2.2770   -0.8702 C   0  0  0  0  0  0  0  0  0  0  0  0
   35.9048   -1.0698   -0.5548 C   0  0  0  0  0  0  0  0  0  0  0  0
   37.2481   -1.3172   -0.5470 N   0  0  0  0  0  0  0  0  0  0  0  0
   40.1123   -1.4117   -0.3685 N   0  0  0  0  0  0  0  0  0  0  0  0
   38.7807    4.8106    1.1687 C   0  0  0  0  0  0  0  0  0  0  0  0
   38.3195    5.7868    0.2868 C   0  0  0  0  0  0  0  0  0  0  0  0
   38.3330    7.1292    0.6495 C   0  0  0  0  0  0  0  0  0  0  0  0
   37.8582    8.1829   -0.3144 C   0  0  0  0  0  0  0  0  0  0  0  0
   38.8089    7.4913    1.9063 C   0  0  0  0  0  0  0  0  0  0  0  0
   39.2721    6.5285    2.7978 C   0  0  0  0  0  0  0  0  0  0  0  0
   39.7600    6.9288    4.1639 C   0  0  0  0  0  0  0  0  0  0  0  0
   39.2577    5.1892    2.4224 C   0  0  0  0  0  0  0  0  0  0  0  0
   34.2192    0.1803   -0.3270 H   0  0  0  0  0  0  0  0  0  0  0  0
   34.2125    2.6987    0.3734 H   0  0  0  0  0  0  0  0  0  0  0  0
   36.1208    4.4902    0.9847 H   0  0  0  0  0  0  0  0  0  0  0  0
   41.4238    4.3745    1.1039 H   0  0  0  0  0  0  0  0  0  0  0  0
   43.2777    2.4724    0.6997 H   0  0  0  0  0  0  0  0  0  0  0  0
   43.1864   -2.6289   -0.5864 H   0  0  0  0  0  0  0  0  0  0  0  0
   41.2671   -4.4280   -1.1320 H   0  0  0  0  0  0  0  0  0  0  0  0
   37.7868   -4.4278   -3.2329 H   0  0  0  0  0  0  0  0  0  0  0  0
   37.9070   -7.9556   -4.4317 H   0  0  0  0  0  0  0  0  0  0  0  0
   36.4552   -6.9897   -4.1382 H   0  0  0  0  0  0  0  0  0  0  0  0
   37.8399   -6.2629   -4.9588 H   0  0  0  0  0  0  0  0  0  0  0  0
   38.5102   -8.5115   -2.1612 H   0  0  0  0  0  0  0  0  0  0  0  0
   39.6056   -7.6519    1.3100 H   0  0  0  0  0  0  0  0  0  0  0  0
   38.8441   -8.9334    0.3487 H   0  0  0  0  0  0  0  0  0  0  0  0
   40.5052   -8.4412    0.0072 H   0  0  0  0  0  0  0  0  0  0  0  0
   39.4271   -5.3735    0.6063 H   0  0  0  0  0  0  0  0  0  0  0  0
   35.9642   -4.2872   -1.2776 H   0  0  0  0  0  0  0  0  0  0  0  0
   34.1230   -2.3594   -0.9372 H   0  0  0  0  0  0  0  0  0  0  0  0
   37.9622    5.4929   -0.6942 H   0  0  0  0  0  0  0  0  0  0  0  0
   37.3712    9.0017    0.2160 H   0  0  0  0  0  0  0  0  0  0  0  0
   37.1574    7.7630   -1.0361 H   0  0  0  0  0  0  0  0  0  0  0  0
   38.7084    8.5936   -0.8638 H   0  0  0  0  0  0  0  0  0  0  0  0
   38.8186    8.5376    2.1944 H   0  0  0  0  0  0  0  0  0  0  0  0
   38.9222    6.9522    4.8647 H   0  0  0  0  0  0  0  0  0  0  0  0
   40.2094    7.9219    4.1402 H   0  0  0  0  0  0  0  0  0  0  0  0
   40.4956    6.2166    4.5382 H   0  0  0  0  0  0  0  0  0  0  0  0
   39.6045    4.4282    3.1130 H   0  0  0  0  0  0  0  0  0  0  0  0
   94.5372    0.0449   -0.0732 Cu  0  0  0  0  0  0  0  0  0  0  0  0
   97.9371    0.1992   -0.2530 C   0  0  0  0  0  0  0  0  0  0  0  0
   97.2869   -0.4670   -1.2808 C   0  0  0  0  0  0  0  0  0  0  0  0
   97.9452   -1.1160   -2.3783 C   0  0  0  0  0  0  0  0  0  0  0  0
   96.9760   -1.6665   -3.1506 C   0  0  0  0  0  0  0  0  0  0  0  0
   95.7151   -1.3493   -2.5372 C   0  0  0  0  0  0  0  0  0  0  0  0
   95.9355   -0.6265   -1.4001 N   0  0  0  0  0  0  0  0  0  0  0  0
   94.4655   -1.7428   -3.0210 C   0  0  0  0  0  0  0  0  0  0  0  0
   93.2435   -1.4593   -2.4095 C   0  0  0  0  0  0  0  0  0  0  0  0
   91.9586   -1.8166   -2.9404 C   0  0  0  0  0  0  0  0  0  0  0  0
   91.0250   -1.3460   -2.0752 C   0  0  0  0  0  0  0  0  0  0  0  0
   93.0714   -0.7721   -1.2366 N   0  0  0  0  0  0  0  0  0  0  0  0
   91.7312   -0.6955   -1.0124 C   0  0  0  0  0  0  0  0  0  0  0  0
   91.1112   -0.0678    0.0826 C   0  0  0  0  0  0  0  0  0  0  0  0
   91.7864    0.5822    1.1304 C   0  0  0  0  0  0  0  0  0  0  0  0
   91.1363    1.2194    2.2361 C   0  0  0  0  0  0  0  0  0  0  0  0
   92.1128    1.7332    3.0263 C   0  0  0  0  0  0  0  0  0  0  0  0
   93.3680    1.4106    2.4090 C   0  0  0  0  0  0  0  0  0  0  0  0
   94.6184    1.7865    2.9016 C   0  0  0  0  0  0  0  0  0  0  0  0
   94.6544    2.5230    4.1912 C   0  0  0  0  0  0  0  0  0  0  0  0
   95.1278    3.8322    4.2424 C   0  0  0  0  0  0  0  0  0  0  0  0
   95.1646    4.5237    5.4497 C   0  0  0  0  0  0  0  0  0  0  0  0
   95.6906    5.9330    5.4951 C   0  0  0  0  0  0  0  0  0  0  0  0
   94.7302    3.8922    6.6100 C   0  0  0  0  0  0  0  0  0  0  0  0
   94.2569    2.5828    6.5753 C   0  0  0  0  0  0  0  0  0  0  0  0
   93.7785    1.9196    7.8386 C   0  0  0  0  0  0  0  0  0  0  0  0
   94.2177    1.9049    5.3627 C   0  0  0  0  0  0  0  0  0  0  0  0
   95.8392    1.5238    2.2762 C   0  0  0  0  0  0  0  0  0  0  0  0
   97.1293    1.8883    2.7957 C   0  0  0  0  0  0  0  0  0  0  0  0
   98.0555    1.4497    1.9076 C   0  0  0  0  0  0  0  0  0  0  0  0
   97.3414    0.8041    0.8435 C   0  0  0  0  0  0  0  0  0  0  0  0
   95.9998    0.8614    1.0932 N   0  0  0  0  0  0  0  0  0  0  0  0
   93.1356    0.7133    1.2526 N   0  0  0  0  0  0  0  0  0  0  0  0
   94.4354   -2.5214   -4.2856 C   0  0  0  0  0  0  0  0  0  0  0  0
   94.8826   -1.9485   -5.4753 C   0  0  0  0  0  0  0  0  0  0  0  0
   94.8580   -2.6741   -6.6613 C   0  0  0  0  0  0  0  0  0  0  0  0
   95.3161   -2.0437   -7.9488 C   0  0  0  0  0  0  0  0  0  0  0  0
   94.3858   -3.9834   -6.6502 C   0  0  0  0  0  0  0  0  0  0  0  0
   93.9375   -4.5695   -5.4705 C   0  0  0  0  0  0  0  0  0  0  0  0
   93.4534   -5.9944   -5.4646 C   0  0  0  0  0  0  0  0  0  0  0  0
   93.9624   -3.8324   -4.2911 C   0  0  0  0  0  0  0  0  0  0  0  0
   99.0203    0.2392   -0.3047 H   0  0  0  0  0  0  0  0  0  0  0  0
   99.0139   -1.1457   -2.5224 H   0  0  0  0  0  0  0  0  0  0  0  0
   97.0968   -2.2461   -4.0517 H   0  0  0  0  0  0  0  0  0  0  0  0
   91.7962   -2.3478   -3.8643 H   0  0  0  0  0  0  0  0  0  0  0  0
   89.9517   -1.4238   -2.1438 H   0  0  0  0  0  0  0  0  0  0  0  0
   90.0685    1.2652    2.3787 H   0  0  0  0  0  0  0  0  0  0  0  0
   91.9981    2.2931    3.9403 H   0  0  0  0  0  0  0  0  0  0  0  0
   95.4539    4.3181    3.3292 H   0  0  0  0  0  0  0  0  0  0  0  0
   95.3269    6.4570    6.3789 H   0  0  0  0  0  0  0  0  0  0  0  0
   96.7823    5.9208    5.5299 H   0  0  0  0  0  0  0  0  0  0  0  0
   95.3877    6.4872    4.6061 H   0  0  0  0  0  0  0  0  0  0  0  0
   94.7597    4.4252    7.5549 H   0  0  0  0  0  0  0  0  0  0  0  0
   93.7064    0.8398    7.7093 H   0  0  0  0  0  0  0  0  0  0  0  0
   94.4577    2.1311    8.6654 H   0  0  0  0  0  0  0  0  0  0  0  0
   92.7907    2.2998    8.1080 H   0  0  0  0  0  0  0  0  0  0  0  0
   93.8616    0.8812    5.3232 H   0  0  0  0  0  0  0  0  0  0  0  0
   97.2976    2.4048    3.7270 H   0  0  0  0  0  0  0  0  0  0  0  0
   99.1291    1.5414    1.9595 H   0  0  0  0  0  0  0  0  0  0  0  0
   95.2371   -0.9235   -5.4730 H   0  0  0  0  0  0  0  0  0  0  0  0
   95.7982   -2.7812   -8.5911 H   0  0  0  0  0  0  0  0  0  0  0  0
   96.0164   -1.2307   -7.7567 H   0  0  0  0  0  0  0  0  0  0  0  0
   94.4583   -1.6346   -8.4874 H   0  0  0  0  0  0  0  0  0  0  0  0
   94.3670   -4.5538   -7.5732 H   0  0  0  0  0  0  0  0  0  0  0  0
   94.2946   -6.6709   -5.2967 H   0  0  0  0  0  0  0  0  0  0  0  0
   92.9961   -6.2531   -6.4199 H   0  0  0  0  0  0  0  0  0  0  0  0
   92.7255   -6.1542   -4.6691 H   0  0  0  0  0  0  0  0  0  0  0  0
   93.6268   -4.2819   -3.3629 H   0  0  0  0  0  0  0  0  0  0  0  0
   43.5345   -0.0859    0.0694 C   0  0  0  0  0  0  0  0  0  0  0  0
   44.7589   -0.1042    0.0843 C   0  0  0  0  0  0  0  0  0  0  0  0
   46.1017   -0.1143    0.0955 C   0  0  0  0  0  0  0  0  0  0  0  0
   47.3324   -0.1239    0.0965 C   0  0  0  0  0  0  0  0  0  0  0  0
   48.6704   -0.1272    0.0924 C   0  0  0  0  0  0  0  0  0  0  0  0
   49.9012   -0.1226    0.0850 C   0  0  0  0  0  0  0  0  0  0  0  0
   51.2436   -0.1178    0.0715 C   0  0  0  0  0  0  0  0  0  0  0  0
   52.4683   -0.1126    0.0532 C   0  0  0  0  0  0  0  0  0  0  0  0
   62.1505   -0.0491   -0.0611 C   0  0  0  0  0  0  0  0  0  0  0  0
   63.3754   -0.0425   -0.0680 C   0  0  0  0  0  0  0  0  0  0  0  0
   64.7178   -0.0348   -0.0706 C   0  0  0  0  0  0  0  0  0  0  0  0
   65.9489   -0.0301   -0.0692 C   0  0  0  0  0  0  0  0  0  0  0  0
   67.2866   -0.0286   -0.0673 C   0  0  0  0  0  0  0  0  0  0  0  0
   68.5176   -0.0294   -0.0609 C   0  0  0  0  0  0  0  0  0  0  0  0
   69.8600   -0.0319   -0.0522 C   0  0  0  0  0  0  0  0  0  0  0  0
   71.0850   -0.0355   -0.0422 C   0  0  0  0  0  0  0  0  0  0  0  0
   80.7700   -0.0774    0.1179 C   0  0  0  0  0  0  0  0  0  0  0  0
   81.9945   -0.0823    0.1362 C   0  0  0  0  0  0  0  0  0  0  0  0
   83.3378   -0.0868    0.1508 C   0  0  0  0  0  0  0  0  0  0  0  0
   84.5684   -0.0875    0.1628 C   0  0  0  0  0  0  0  0  0  0  0  0
   85.9072   -0.0936    0.1629 C   0  0  0  0  0  0  0  0  0  0  0  0
   87.1377   -0.0935    0.1646 C   0  0  0  0  0  0  0  0  0  0  0  0
   88.4813   -0.0879    0.1466 C   0  0  0  0  0  0  0  0  0  0  0  0
   89.7054   -0.0828    0.1259 C   0  0  0  0  0  0  0  0  0  0  0  0
   57.3091   -0.0824   -0.0179 Cu  0  0  0  0  0  0  0  0  0  0  0  0
   53.8727   -0.1038    0.0327 C   0  0  0  0  0  0  0  0  0  0  0  0
   54.5124    1.1424   -0.0994 C   0  0  0  0  0  0  0  0  0  0  0  0
   53.8270    2.3977   -0.1669 C   0  0  0  0  0  0  0  0  0  0  0  0
   54.7759    3.3584   -0.3069 C   0  0  0  0  0  0  0  0  0  0  0  0
   56.0473    2.6935   -0.3335 C   0  0  0  0  0  0  0  0  0  0  0  0
   55.8540    1.3443   -0.1971 N   0  0  0  0  0  0  0  0  0  0  0  0
   57.2814    3.3335   -0.4626 C   0  0  0  0  0  0  0  0  0  0  0  0
   58.5261    2.7024   -0.4212 C   0  0  0  0  0  0  0  0  0  0  0  0
   59.7873    3.3593   -0.6137 C   0  0  0  0  0  0  0  0  0  0  0  0
   60.7520    2.4113   -0.4960 C   0  0  0  0  0  0  0  0  0  0  0  0
   58.7412    1.3670   -0.2047 N   0  0  0  0  0  0  0  0  0  0  0  0
   60.0865    1.1696   -0.2411 C   0  0  0  0  0  0  0  0  0  0  0  0
   60.7461   -0.0587   -0.0510 C   0  0  0  0  0  0  0  0  0  0  0  0
   60.1069   -1.2964    0.1469 C   0  0  0  0  0  0  0  0  0  0  0  0
   60.7939   -2.5302    0.3826 C   0  0  0  0  0  0  0  0  0  0  0  0
   59.8448   -3.4925    0.5097 C   0  0  0  0  0  0  0  0  0  0  0  0
   58.5714   -2.8519    0.3447 C   0  0  0  0  0  0  0  0  0  0  0  0
   57.3366   -3.5007    0.4077 C   0  0  0  0  0  0  0  0  0  0  0  0
   57.3508   -4.9748    0.5859 C   0  0  0  0  0  0  0  0  0  0  0  0
   56.7863   -5.5526    1.7214 C   0  0  0  0  0  0  0  0  0  0  0  0
   56.7998   -6.9333    1.8927 C   0  0  0  0  0  0  0  0  0  0  0  0
   56.2102   -7.5468    3.1340 C   0  0  0  0  0  0  0  0  0  0  0  0
   57.3805   -7.7357    0.9160 C   0  0  0  0  0  0  0  0  0  0  0  0
   57.9452   -7.1736   -0.2260 C   0  0  0  0  0  0  0  0  0  0  0  0
   58.5807   -8.0547   -1.2673 C   0  0  0  0  0  0  0  0  0  0  0  0
   57.9304   -5.7927   -0.3839 C   0  0  0  0  0  0  0  0  0  0  0  0
   56.0913   -2.8760    0.3167 C   0  0  0  0  0  0  0  0  0  0  0  0
   54.8279   -3.5566    0.3220 C   0  0  0  0  0  0  0  0  0  0  0  0
   53.8636   -2.6066    0.2191 C   0  0  0  0  0  0  0  0  0  0  0  0
   54.5313   -1.3424    0.1410 C   0  0  0  0  0  0  0  0  0  0  0  0
   55.8776   -1.5283    0.1966 N   0  0  0  0  0  0  0  0  0  0  0  0
   58.7639   -1.5123    0.1332 N   0  0  0  0  0  0  0  0  0  0  0  0
   57.2695    4.8053   -0.6591 C   0  0  0  0  0  0  0  0  0  0  0  0
   57.8572    5.6456    0.2849 C   0  0  0  0  0  0  0  0  0  0  0  0
   57.8457    7.0253    0.1073 C   0  0  0  0  0  0  0  0  0  0  0  0
   58.4945    7.9243    1.1249 C   0  0  0  0  0  0  0  0  0  0  0  0
   57.2469    7.5614   -1.0284 C   0  0  0  0  0  0  0  0  0  0  0  0
   56.6568    6.7353   -1.9808 C   0  0  0  0  0  0  0  0  0  0  0  0
   56.0304    7.3264   -3.2148 C   0  0  0  0  0  0  0  0  0  0  0  0
   56.6694    5.3580   -1.7899 C   0  0  0  0  0  0  0  0  0  0  0  0
   52.7573    2.5193   -0.1060 H   0  0  0  0  0  0  0  0  0  0  0  0
   54.6324    4.4248   -0.3731 H   0  0  0  0  0  0  0  0  0  0  0  0
   59.9141    4.4088   -0.8248 H   0  0  0  0  0  0  0  0  0  0  0  0
   61.8202    2.5313   -0.5813 H   0  0  0  0  0  0  0  0  0  0  0  0
   61.8650   -2.6358    0.4485 H   0  0  0  0  0  0  0  0  0  0  0  0
   59.9898   -4.5415    0.7112 H   0  0  0  0  0  0  0  0  0  0  0  0
   56.3468   -4.9161    2.4817 H   0  0  0  0  0  0  0  0  0  0  0  0
   55.8913   -8.5724    2.9475 H   0  0  0  0  0  0  0  0  0  0  0  0
   56.9570   -7.5617    3.9311 H   0  0  0  0  0  0  0  0  0  0  0  0
   55.3544   -6.9684    3.4831 H   0  0  0  0  0  0  0  0  0  0  0  0
   57.3912   -8.8133    1.0433 H   0  0  0  0  0  0  0  0  0  0  0  0
   58.6709   -7.5312   -2.2190 H   0  0  0  0  0  0  0  0  0  0  0  0
   57.9930   -8.9610   -1.4171 H   0  0  0  0  0  0  0  0  0  0  0  0
   59.5810   -8.3506   -0.9433 H   0  0  0  0  0  0  0  0  0  0  0  0
   58.3548   -5.3431   -1.2749 H   0  0  0  0  0  0  0  0  0  0  0  0
   54.6995   -4.6252    0.3834 H   0  0  0  0  0  0  0  0  0  0  0  0
   52.7941   -2.7409    0.1896 H   0  0  0  0  0  0  0  0  0  0  0  0
   58.3090    5.2167    1.1727 H   0  0  0  0  0  0  0  0  0  0  0  0
   58.0322    8.9116    1.1232 H   0  0  0  0  0  0  0  0  0  0  0  0
   59.5548    8.0445    0.8907 H   0  0  0  0  0  0  0  0  0  0  0  0
   58.4152    7.4983    2.1253 H   0  0  0  0  0  0  0  0  0  0  0  0
   57.2364    8.6369   -1.1721 H   0  0  0  0  0  0  0  0  0  0  0  0
   55.5761    8.2927   -2.9939 H   0  0  0  0  0  0  0  0  0  0  0  0
   55.2677    6.6617   -3.6207 H   0  0  0  0  0  0  0  0  0  0  0  0
   56.7933    7.4781   -3.9819 H   0  0  0  0  0  0  0  0  0  0  0  0
   56.2226    4.7031   -2.5300 H   0  0  0  0  0  0  0  0  0  0  0  0
   75.9273   -0.0576    0.0242 Cu  0  0  0  0  0  0  0  0  0  0  0  0
   72.4894   -0.0417   -0.0266 C   0  0  0  0  0  0  0  0  0  0  0  0
   73.1467    1.1967   -0.1444 C   0  0  0  0  0  0  0  0  0  0  0  0
   72.4776    2.4591   -0.2378 C   0  0  0  0  0  0  0  0  0  0  0  0
   73.4409    3.4090   -0.3502 C   0  0  0  0  0  0  0  0  0  0  0  0
   74.7053    2.7303   -0.3327 C   0  0  0  0  0  0  0  0  0  0  0  0
   74.4929    1.3837   -0.1990 N   0  0  0  0  0  0  0  0  0  0  0  0
   75.9497    3.3570   -0.4212 C   0  0  0  0  0  0  0  0  0  0  0  0
   77.1860    2.7138   -0.3363 C   0  0  0  0  0  0  0  0  0  0  0  0
   78.4595    3.3584   -0.4851 C   0  0  0  0  0  0  0  0  0  0  0  0
   79.4102    2.4006   -0.3381 C   0  0  0  0  0  0  0  0  0  0  0  0
   77.3803    1.3761   -0.1154 N   0  0  0  0  0  0  0  0  0  0  0  0
   78.7243    1.1647   -0.1095 C   0  0  0  0  0  0  0  0  0  0  0  0
   79.3646   -0.0715    0.0914 C   0  0  0  0  0  0  0  0  0  0  0  0
   78.7068   -1.3029    0.2631 C   0  0  0  0  0  0  0  0  0  0  0  0
   79.3731   -2.5461    0.5095 C   0  0  0  0  0  0  0  0  0  0  0  0
   78.4099   -3.4976    0.6082 C   0  0  0  0  0  0  0  0  0  0  0  0
   77.1486   -2.8412    0.4144 C   0  0  0  0  0  0  0  0  0  0  0  0
   75.9050   -3.4754    0.4449 C   0  0  0  0  0  0  0  0  0  0  0  0
   75.8962   -4.9496    0.6233 C   0  0  0  0  0  0  0  0  0  0  0  0
   75.2985   -5.5184    1.7463 C   0  0  0  0  0  0  0  0  0  0  0  0
   75.2868   -6.8992    1.9175 C   0  0  0  0  0  0  0  0  0  0  0  0
   74.6599   -7.5026    3.1453 C   0  0  0  0  0  0  0  0  0  0  0  0
   75.8757   -7.7104    0.9531 C   0  0  0  0  0  0  0  0  0  0  0  0
   76.4739   -7.1571   -0.1760 C   0  0  0  0  0  0  0  0  0  0  0  0
   77.1182   -8.0473   -1.2041 C   0  0  0  0  0  0  0  0  0  0  0  0
   76.4843   -5.7761   -0.3337 C   0  0  0  0  0  0  0  0  0  0  0  0
   74.6696   -2.8370    0.3220 C   0  0  0  0  0  0  0  0  0  0  0  0
   73.3992   -3.5040    0.2944 C   0  0  0  0  0  0  0  0  0  0  0  0
   72.4483   -2.5438    0.1649 C   0  0  0  0  0  0  0  0  0  0  0  0
   73.1314   -1.2870    0.1033 C   0  0  0  0  0  0  0  0  0  0  0  0
   74.4736   -1.4872    0.1952 N   0  0  0  0  0  0  0  0  0  0  0  0
   77.3620   -1.5033    0.2137 N   0  0  0  0  0  0  0  0  0  0  0  0
   75.9580    4.8278   -0.6260 C   0  0  0  0  0  0  0  0  0  0  0  0
   76.5190    5.6703    0.3321 C   0  0  0  0  0  0  0  0  0  0  0  0
   76.5241    7.0487    0.1444 C   0  0  0  0  0  0  0  0  0  0  0  0
   77.1441    7.9504    1.1775 C   0  0  0  0  0  0  0  0  0  0  0  0
   75.9688    7.5811   -1.0148 C   0  0  0  0  0  0  0  0  0  0  0  0
   75.4058    6.7526   -1.9815 C   0  0  0  0  0  0  0  0  0  0  0  0
   74.8256    7.3388   -3.2402 C   0  0  0  0  0  0  0  0  0  0  0  0
   75.4019    5.3768   -1.7808 C   0  0  0  0  0  0  0  0  0  0  0  0
   71.4079    2.5923   -0.2123 H   0  0  0  0  0  0  0  0  0  0  0  0
   73.3113    4.4766   -0.4241 H   0  0  0  0  0  0  0  0  0  0  0  0
   78.6037    4.4071   -0.6886 H   0  0  0  0  0  0  0  0  0  0  0  0
   80.4817    2.5100   -0.3879 H   0  0  0  0  0  0  0  0  0  0  0  0
   80.4409   -2.6646    0.6018 H   0  0  0  0  0  0  0  0  0  0  0  0
   78.5374   -4.5493    0.8075 H   0  0  0  0  0  0  0  0  0  0  0  0
   74.8521   -4.8751    2.4967 H   0  0  0  0  0  0  0  0  0  0  0  0
   74.3375   -8.5264    2.9549 H   0  0  0  0  0  0  0  0  0  0  0  0
   75.3853   -7.5199    3.9619 H   0  0  0  0  0  0  0  0  0  0  0  0
   73.8001   -6.9156    3.4693 H   0  0  0  0  0  0  0  0  0  0  0  0
   75.8663   -8.7881    1.0798 H   0  0  0  0  0  0  0  0  0  0  0  0
   77.2160   -7.5320   -2.1597 H   0  0  0  0  0  0  0  0  0  0  0  0
   76.5326   -8.9554   -1.3508 H   0  0  0  0  0  0  0  0  0  0  0  0
   78.1162   -8.3392   -0.8694 H   0  0  0  0  0  0  0  0  0  0  0  0
   76.9347   -5.3331   -1.2153 H   0  0  0  0  0  0  0  0  0  0  0  0
   73.2576   -4.5710    0.3531 H   0  0  0  0  0  0  0  0  0  0  0  0
   71.3787   -2.6668    0.1066 H   0  0  0  0  0  0  0  0  0  0  0  0
   76.9361    5.2446    1.2382 H   0  0  0  0  0  0  0  0  0  0  0  0
   76.6931    8.9425    1.1495 H   0  0  0  0  0  0  0  0  0  0  0  0
   78.2136    8.0570    0.9823 H   0  0  0  0  0  0  0  0  0  0  0  0
   77.0227    7.5348    2.1781 H   0  0  0  0  0  0  0  0  0  0  0  0
   75.9709    8.6557   -1.1661 H   0  0  0  0  0  0  0  0  0  0  0  0
   74.3715    8.3101   -3.0420 H   0  0  0  0  0  0  0  0  0  0  0  0
   74.0718    6.6765   -3.6662 H   0  0  0  0  0  0  0  0  0  0  0  0
   75.6148    7.4788   -3.9825 H   0  0  0  0  0  0  0  0  0  0  0  0
   74.9761    4.7197   -2.5313 H   0  0  0  0  0  0  0  0  0  0  0  0
  2  3  4  0  0  0  0
  3  4  1  0  0  0  0
  4  5  2  0  0  0  0
  5  6  4  0  0  0  0
  1  7  1  0  0  0  0
  3  7  4  0  0  0  0
  6  7  4  0  0  0  0
  6  8  4  0  0  0  0
  8  9  4  0  0  0  0
  9 10  4  0  0  0  0
 10 11  2  0  0  0  0
  1 12  1  0  0  0  0
  9 12  4  0  0  0  0
 11 13  4  0  0  0  0
 12 13  4  0  0  0  0
 13 14  4  0  0  0  0
 14 15  4  0  0  0  0
 15 16  4  0  0  0  0
 16 17  2  0  0  0  0
 17 18  4  0  0  0  0
 18 19  4  0  0  0  0
 19 20  1  0  0  0  0
 20 21  4  0  0  0  0
 21 22  4  0  0  0  0
 22 23  1  0  0  0  0
 22 24  4  0  0  0  0
 24 25  4  0  0  0  0
 25 26  1  0  0  0  0
 20 27  4  0  0  0  0
 25 27  4  0  0  0  0
 19 28  4  0  0  0  0
 28 29  4  0  0  0  0
 29 30  2  0  0  0  0
  2 31  4  0  0  0  0
 30 31  1  0  0  0  0
  1 32  1  0  0  0  0
 28 32  4  0  0  0  0
 31 32  4  0  0  0  0
  1 33  1  0  0  0  0
 15 33  4  0  0  0  0
 18 33  4  0  0  0  0
  8 34  1  0  0  0  0
 34 35  4  0  0  0  0
 35 36  4  0  0  0  0
 36 37  1  0  0  0  0
 36 38  4  0  0  0  0
 38 39  4  0  0  0  0
 39 40  1  0  0  0  0
 34 41  4  0  0  0  0
 39 41  4  0  0  0  0
  2 42  1  0  0  0  0
  4 43  1  0  0  0  0
  5 44  1  0  0  0  0
 10 45  1  0  0  0  0
 11 46  1  0  0  0  0
 16 47  1  0  0  0  0
 17 48  1  0  0  0  0
 21 49  1  0  0  0  0
 23 50  1  0  0  0  0
 23 51  1  0  0  0  0
 23 52  1  0  0  0  0
 24 53  1  0  0  0  0
 26 54  1  0  0  0  0
 26 55  1  0  0  0  0
 26 56  1  0  0  0  0
 27 57  1  0  0  0  0
 29 58  1  0  0  0  0
 30 59  1  0  0  0  0
 35 60  1  0  0  0  0
 37 61  1  0  0  0  0
 37 62  1  0  0  0  0
 37 63  1  0  0  0  0
 38 64  1  0  0  0  0
 40 65  1  0  0  0  0
 40 66  1  0  0  0  0
 40 67  1  0  0  0  0
 41 68  1  0  0  0  0
 70 71  4  0  0  0  0
 71 72  1  0  0  0  0
 72 73  2  0  0  0  0
 73 74  4  0  0  0  0
 69 75  1  0  0  0  0
 71 75  4  0  0  0  0
 74 75  4  0  0  0  0
 74 76  4  0  0  0  0
 76 77  4  0  0  0  0
 77 78  4  0  0  0  0
 78 79  2  0  0  0  0
 69 80  1  0  0  0  0
 77 80  4  0  0  0  0
 79 81  4  0  0  0  0
 80 81  4  0  0  0  0
 81 82  4  0  0  0  0
 82 83  4  0  0  0  0
 83 84  4  0  0  0  0
 84 85  2  0  0  0  0
 85 86  4  0  0  0  0
 86 87  4  0  0  0  0
 87 88  1  0  0  0  0
 88 89  4  0  0  0  0
 89 90  4  0  0  0  0
 90 91  1  0  0  0  0
 90 92  4  0  0  0  0
 92 93  4  0  0  0  0
 93 94  1  0  0  0  0
 88 95  4  0  0  0  0
 93 95  4  0  0  0  0
 87 96  4  0  0  0  0
 96 97  4  0  0  0  0
 97 98  2  0  0  0  0
 70 99  4  0  0  0  0
 98 99  1  0  0  0  0
 69100  1  0  0  0  0
 96100  4  0  0  0  0
 99100  4  0  0  0  0
 69101  1  0  0  0  0
 83101  4  0  0  0  0
 86101  4  0  0  0  0
 76102  1  0  0  0  0
102103  4  0  0  0  0
103104  4  0  0  0  0
104105  1  0  0  0  0
104106  4  0  0  0  0
106107  4  0  0  0  0
107108  1  0  0  0  0
102109  4  0  0  0  0
107109  4  0  0  0  0
 70110  1  0  0  0  0
 72111  1  0  0  0  0
 73112  1  0  0  0  0
 78113  1  0  0  0  0
 79114  1  0  0  0  0
 84115  1  0  0  0  0
 85116  1  0  0  0  0
 89117  1  0  0  0  0
 91118  1  0  0  0  0
 91119  1  0  0  0  0
 91120  1  0  0  0  0
 92121  1  0  0  0  0
 94122  1  0  0  0  0
 94123  1  0  0  0  0
 94124  1  0  0  0  0
 95125  1  0  0  0  0
 97126  1  0  0  0  0
 98127  1  0  0  0  0
103128  1  0  0  0  0
105129  1  0  0  0  0
105130  1  0  0  0  0
105131  1  0  0  0  0
106132  1  0  0  0  0
108133  1  0  0  0  0
108134  1  0  0  0  0
108135  1  0  0  0  0
109136  1  0  0  0  0
 14137  4  0  0  0  0
137138  3  0  0  0  0
138139  4  0  0  0  0
139140  3  0  0  0  0
140141  4  0  0  0  0
141142  3  0  0  0  0
142143  4  0  0  0  0
143144  3  0  0  0  0
145146  3  0  0  0  0
146147  4  0  0  0  0
147148  3  0  0  0  0
148149  4  0  0  0  0
149150  3  0  0  0  0
150151  4  0  0  0  0
151152  3  0  0  0  0
153154  3  0  0  0  0
154155  4  0  0  0  0
155156  3  0  0  0  0
156157  4  0  0  0  0
157158  3  0  0  0  0
158159  4  0  0  0  0
 82160  4  0  0  0  0
159160  3  0  0  0  0
144162  4  0  0  0  0
162163  4  0  0  0  0
163164  4  0  0  0  0
164165  2  0  0  0  0
165166  4  0  0  0  0
161167  1  0  0  0  0
163167  4  0  0  0  0
166167  4  0  0  0  0
166168  4  0  0  0  0
168169  4  0  0  0  0
169170  4  0  0  0  0
170171  2  0  0  0  0
161172  1  0  0  0  0
169172  4  0  0  0  0
171173  4  0  0  0  0
172173  4  0  0  0  0
145174  4  0  0  0  0
173174  4  0  0  0  0
174175  4  0  0  0  0
175176  4  0  0  0  0
176177  2  0  0  0  0
177178  4  0  0  0  0
178179  4  0  0  0  0
179180  1  0  0  0  0
180181  4  0  0  0  0
181182  4  0  0  0  0
182183  1  0  0  0  0
182184  4  0  0  0  0
184185  4  0  0  0  0
185186  1  0  0  0  0
180187  4  0  0  0  0
185187  4  0  0  0  0
179188  4  0  0  0  0
188189  4  0  0  0  0
189190  2  0  0  0  0
162191  4  0  0  0  0
190191  4  0  0  0  0
161192  1  0  0  0  0
188192  4  0  0  0  0
191192  4  0  0  0  0
161193  1  0  0  0  0
175193  4  0  0  0  0
178193  4  0  0  0  0
168194  1  0  0  0  0
194195  4  0  0  0  0
195196  4  0  0  0  0
196197  1  0  0  0  0
196198  4  0  0  0  0
198199  4  0  0  0  0
199200  1  0  0  0  0
194201  4  0  0  0  0
199201  4  0  0  0  0
164202  1  0  0  0  0
165203  1  0  0  0  0
170204  1  0  0  0  0
171205  1  0  0  0  0
176206  1  0  0  0  0
177207  1  0  0  0  0
181208  1  0  0  0  0
183209  1  0  0  0  0
183210  1  0  0  0  0
183211  1  0  0  0  0
184212  1  0  0  0  0
186213  1  0  0  0  0
186214  1  0  0  0  0
186215  1  0  0  0  0
187216  1  0  0  0  0
189217  1  0  0  0  0
190218  1  0  0  0  0
195219  1  0  0  0  0
197220  1  0  0  0  0
197221  1  0  0  0  0
197222  1  0  0  0  0
198223  1  0  0  0  0
200224  1  0  0  0  0
200225  1  0  0  0  0
200226  1  0  0  0  0
201227  1  0  0  0  0
152229  4  0  0  0  0
229230  4  0  0  0  0
230231  4  0  0  0  0
231232  2  0  0  0  0
232233  4  0  0  0  0
228234  1  0  0  0  0
230234  4  0  0  0  0
233234  4  0  0  0  0
233235  4  0  0  0  0
235236  4  0  0  0  0
236237  4  0  0  0  0
237238  2  0  0  0  0
228239  1  0  0  0  0
236239  4  0  0  0  0
238240  4  0  0  0  0
239240  4  0  0  0  0
153241  4  0  0  0  0
240241  4  0  0  0  0
241242  4  0  0  0  0
242243  4  0  0  0  0
243244  2  0  0  0  0
244245  4  0  0  0  0
245246  4  0  0  0  0
246247  1  0  0  0  0
247248  4  0  0  0  0
248249  4  0  0  0  0
249250  1  0  0  0  0
249251  4  0  0  0  0
251252  4  0  0  0  0
252253  1  0  0  0  0
247254  4  0  0  0  0
252254  4  0  0  0  0
246255  4  0  0  0  0
255256  4  0  0  0  0
256257  2  0  0  0  0
229258  4  0  0  0  0
257258  4  0  0  0  0
228259  1  0  0  0  0
255259  4  0  0  0  0
258259  4  0  0  0  0
228260  1  0  0  0  0
242260  4  0  0  0  0
245260  4  0  0  0  0
235261  1  0  0  0  0
261262  4  0  0  0  0
262263  4  0  0  0  0
263264  1  0  0  0  0
263265  4  0  0  0  0
265266  4  0  0  0  0
266267  1  0  0  0  0
261268  4  0  0  0  0
266268  4  0  0  0  0
231269  1  0  0  0  0
232270  1  0  0  0  0
237271  1  0  0  0  0
238272  1  0  0  0  0
243273  1  0  0  0  0
244274  1  0  0  0  0
248275  1  0  0  0  0
250276  1  0  0  0  0
250277  1  0  0  0  0
250278  1  0  0  0  0
251279  1  0  0  0  0
253280  1  0  0  0  0
253281  1  0  0  0  0
253282  1  0  0  0  0
254283  1  0  0  0  0
256284  1  0  0  0  0
257285  1  0  0  0  0
262286  1  0  0  0  0
264287  1  0  0  0  0
264288  1  0  0  0  0
264289  1  0  0  0  0
265290  1  0  0  0  0
267291  1  0  0  0  0
267292  1  0  0  0  0
267293  1  0  0  0  0
268294  1  0  0  0  0
M  END
