 xtb: 6.5.1 (b24c23e)
          07282220433D

188208  0     0  0            999 V2000
   24.7289    0.1101    0.0246 C   0  0  0  0  0  0  0  0  0  0  0  0
   25.3460    1.2405   -0.4957 C   0  0  0  0  0  0  0  0  0  0  0  0
   24.7018    2.3870   -1.0394 C   0  0  0  0  0  0  0  0  0  0  0  0
   25.6699    3.2716   -1.4240 C   0  0  0  0  0  0  0  0  0  0  0  0
   26.9370    2.6987   -1.1174 C   0  0  0  0  0  0  0  0  0  0  0  0
   26.6907    1.4709   -0.5711 N   0  0  0  0  0  0  0  0  0  0  0  0
   28.2038    3.2538   -1.3327 C   0  0  0  0  0  0  0  0  0  0  0  0
   28.2463    4.6195   -1.9095 C   0  0  0  0  0  0  0  0  0  0  0  0
   28.8809    4.8526   -3.1303 C   0  0  0  0  0  0  0  0  0  0  0  0
   28.9196    6.1255   -3.6774 C   0  0  0  0  0  0  0  0  0  0  0  0
   28.3252    7.1876   -2.9998 C   0  0  0  0  0  0  0  0  0  0  0  0
   28.3419    8.4507   -3.4978 O   0  0  0  0  0  0  0  0  0  0  0  0
   27.6911    6.9695   -1.7781 C   0  0  0  0  0  0  0  0  0  0  0  0
   27.6512    5.6938   -1.2435 C   0  0  0  0  0  0  0  0  0  0  0  0
   29.4136    2.6171   -1.0444 C   0  0  0  0  0  0  0  0  0  0  0  0
   30.7157    3.2383   -1.2074 C   0  0  0  0  0  0  0  0  0  0  0  0
   31.6285    2.3160   -0.8380 C   0  0  0  0  0  0  0  0  0  0  0  0
   29.5573    1.3512   -0.5641 N   0  0  0  0  0  0  0  0  0  0  0  0
   30.8829    1.1374   -0.4415 C   0  0  0  0  0  0  0  0  0  0  0  0
   31.5098   -0.0496   -0.0114 C   0  0  0  0  0  0  0  0  0  0  0  0
   30.8656   -1.2194    0.4333 C   0  0  0  0  0  0  0  0  0  0  0  0
   31.5004   -2.4235    0.8375 C   0  0  0  0  0  0  0  0  0  0  0  0
   30.5280   -3.3040    1.2238 C   0  0  0  0  0  0  0  0  0  0  0  0
   29.2684   -2.6599    1.0755 C   0  0  0  0  0  0  0  0  0  0  0  0
   29.5241   -1.4071    0.5832 N   0  0  0  0  0  0  0  0  0  0  0  0
   28.0042   -3.1902    1.3550 C   0  0  0  0  0  0  0  0  0  0  0  0
   27.9644   -4.5559    1.9303 C   0  0  0  0  0  0  0  0  0  0  0  0
   28.5973   -4.8345    3.1446 C   0  0  0  0  0  0  0  0  0  0  0  0
   28.5612   -6.1062    3.6882 C   0  0  0  0  0  0  0  0  0  0  0  0
   27.8924   -7.1269    3.0149 C   0  0  0  0  0  0  0  0  0  0  0  0
   27.8800   -8.3642    3.5742 O   0  0  0  0  0  0  0  0  0  0  0  0
   27.2603   -6.8657    1.8014 C   0  0  0  0  0  0  0  0  0  0  0  0
   27.2957   -5.5866    1.2684 C   0  0  0  0  0  0  0  0  0  0  0  0
   26.7938   -2.5245    1.1318 C   0  0  0  0  0  0  0  0  0  0  0  0
   25.4873   -3.0616    1.4785 C   0  0  0  0  0  0  0  0  0  0  0  0
   24.5811   -2.1380    1.0992 C   0  0  0  0  0  0  0  0  0  0  0  0
   25.3332   -1.0319    0.5340 C   0  0  0  0  0  0  0  0  0  0  0  0
   26.6623   -1.2950    0.5797 N   0  0  0  0  0  0  0  0  0  0  0  0
   23.6437    0.1314    0.0317 H   0  0  0  0  0  0  0  0  0  0  0  0
   23.6334    2.5047   -1.1256 H   0  0  0  0  0  0  0  0  0  0  0  0
   25.5247    4.2337   -1.8879 H   0  0  0  0  0  0  0  0  0  0  0  0
   27.4121    0.8246   -0.2692 H   0  0  0  0  0  0  0  0  0  0  0  0
   29.3330    4.0246   -3.6648 H   0  0  0  0  0  0  0  0  0  0  0  0
   29.4085    6.2990   -4.6301 H   0  0  0  0  0  0  0  0  0  0  0  0
   28.8117    8.4906   -4.3416 H   0  0  0  0  0  0  0  0  0  0  0  0
   27.2378    7.8052   -1.2595 H   0  0  0  0  0  0  0  0  0  0  0  0
   27.1709    5.5283   -0.2855 H   0  0  0  0  0  0  0  0  0  0  0  0
   30.8861    4.2485   -1.5428 H   0  0  0  0  0  0  0  0  0  0  0  0
   32.7031    2.4033   -0.8182 H   0  0  0  0  0  0  0  0  0  0  0  0
   32.5658   -2.5878    0.8255 H   0  0  0  0  0  0  0  0  0  0  0  0
   30.6676   -4.3148    1.5708 H   0  0  0  0  0  0  0  0  0  0  0  0
   28.8072   -0.7242    0.3612 H   0  0  0  0  0  0  0  0  0  0  0  0
   29.1050   -4.0378    3.6768 H   0  0  0  0  0  0  0  0  0  0  0  0
   29.0443   -6.3222    4.6330 H   0  0  0  0  0  0  0  0  0  0  0  0
   27.3837   -8.9914    3.0318 H   0  0  0  0  0  0  0  0  0  0  0  0
   26.7453   -7.6642    1.2782 H   0  0  0  0  0  0  0  0  0  0  0  0
   26.8154   -5.3886    0.3167 H   0  0  0  0  0  0  0  0  0  0  0  0
   25.3123   -4.0105    1.9596 H   0  0  0  0  0  0  0  0  0  0  0  0
   23.5065   -2.1691    1.1897 H   0  0  0  0  0  0  0  0  0  0  0  0
   63.4898   -0.0326    0.0880 C   0  0  0  0  0  0  0  0  0  0  0  0
   62.8649   -1.0765    0.7582 C   0  0  0  0  0  0  0  0  0  0  0  0
   63.5012   -2.1624    1.4224 C   0  0  0  0  0  0  0  0  0  0  0  0
   62.5273   -2.9579    1.9576 C   0  0  0  0  0  0  0  0  0  0  0  0
   61.2645   -2.3779    1.6464 C   0  0  0  0  0  0  0  0  0  0  0  0
   61.5190   -1.2525    0.9147 N   0  0  0  0  0  0  0  0  0  0  0  0
   59.9943   -2.8539    1.9914 C   0  0  0  0  0  0  0  0  0  0  0  0
   59.9439   -4.0850    2.8172 C   0  0  0  0  0  0  0  0  0  0  0  0
   59.3065   -5.2315    2.3412 C   0  0  0  0  0  0  0  0  0  0  0  0
   59.2605   -6.3863    3.1064 C   0  0  0  0  0  0  0  0  0  0  0  0
   59.8504   -6.4035    4.3681 C   0  0  0  0  0  0  0  0  0  0  0  0
   59.8264   -7.5120    5.1520 O   0  0  0  0  0  0  0  0  0  0  0  0
   60.4875   -5.2646    4.8570 C   0  0  0  0  0  0  0  0  0  0  0  0
   60.5345   -4.1187    4.0829 C   0  0  0  0  0  0  0  0  0  0  0  0
   58.7886   -2.2561    1.6160 C   0  0  0  0  0  0  0  0  0  0  0  0
   57.4829   -2.7303    2.0384 C   0  0  0  0  0  0  0  0  0  0  0  0
   56.5757   -1.9056    1.4753 C   0  0  0  0  0  0  0  0  0  0  0  0
   58.6525   -1.1525    0.8303 N   0  0  0  0  0  0  0  0  0  0  0  0
   57.3283   -0.9232    0.7196 C   0  0  0  0  0  0  0  0  0  0  0  0
   56.7085    0.1078   -0.0149 C   0  0  0  0  0  0  0  0  0  0  0  0
   57.3590    1.1273   -0.7344 C   0  0  0  0  0  0  0  0  0  0  0  0
   56.7299    2.1429   -1.5022 C   0  0  0  0  0  0  0  0  0  0  0  0
   57.7080    2.9356   -2.0356 C   0  0  0  0  0  0  0  0  0  0  0  0
   58.9661    2.4333   -1.6011 C   0  0  0  0  0  0  0  0  0  0  0  0
   58.7029    1.3351   -0.8251 N   0  0  0  0  0  0  0  0  0  0  0  0
   60.2350    2.9333   -1.9128 C   0  0  0  0  0  0  0  0  0  0  0  0
   60.2858    4.1581   -2.7466 C   0  0  0  0  0  0  0  0  0  0  0  0
   59.6851    5.3421   -2.3111 C   0  0  0  0  0  0  0  0  0  0  0  0
   59.7325    6.4880   -3.0850 C   0  0  0  0  0  0  0  0  0  0  0  0
   60.3805    6.4627   -4.3187 C   0  0  0  0  0  0  0  0  0  0  0  0
   60.4049    7.6037   -5.0545 O   0  0  0  0  0  0  0  0  0  0  0  0
   60.9806    5.2887   -4.7682 C   0  0  0  0  0  0  0  0  0  0  0  0
   60.9340    4.1477   -3.9825 C   0  0  0  0  0  0  0  0  0  0  0  0
   61.4419    2.3605   -1.4962 C   0  0  0  0  0  0  0  0  0  0  0  0
   62.7542    2.9223   -1.7759 C   0  0  0  0  0  0  0  0  0  0  0  0
   63.6545    2.0874   -1.2187 C   0  0  0  0  0  0  0  0  0  0  0  0
   62.8934    1.0235   -0.5883 C   0  0  0  0  0  0  0  0  0  0  0  0
   61.5648    1.2258   -0.7678 N   0  0  0  0  0  0  0  0  0  0  0  0
   64.5750   -0.0519    0.1011 H   0  0  0  0  0  0  0  0  0  0  0  0
   64.5685   -2.3084    1.4714 H   0  0  0  0  0  0  0  0  0  0  0  0
   62.6659   -3.8719    2.5120 H   0  0  0  0  0  0  0  0  0  0  0  0
   60.8021   -0.6409    0.5390 H   0  0  0  0  0  0  0  0  0  0  0  0
   58.8582   -5.2235    1.3540 H   0  0  0  0  0  0  0  0  0  0  0  0
   58.7693   -7.2764    2.7279 H   0  0  0  0  0  0  0  0  0  0  0  0
   59.3551   -8.2379    4.7216 H   0  0  0  0  0  0  0  0  0  0  0  0
   60.9376   -5.2904    5.8418 H   0  0  0  0  0  0  0  0  0  0  0  0
   61.0172   -3.2285    4.4708 H   0  0  0  0  0  0  0  0  0  0  0  0
   57.3062   -3.5703    2.6905 H   0  0  0  0  0  0  0  0  0  0  0  0
   55.5008   -1.9323    1.5564 H   0  0  0  0  0  0  0  0  0  0  0  0
   55.6640    2.2417   -1.6302 H   0  0  0  0  0  0  0  0  0  0  0  0
   57.5732    3.7867   -2.6828 H   0  0  0  0  0  0  0  0  0  0  0  0
   59.4168    0.7586   -0.3919 H   0  0  0  0  0  0  0  0  0  0  0  0
   59.1940    5.3673   -1.3447 H   0  0  0  0  0  0  0  0  0  0  0  0
   59.2743    7.4088   -2.7458 H   0  0  0  0  0  0  0  0  0  0  0  0
   60.8850    7.4782   -5.8838 H   0  0  0  0  0  0  0  0  0  0  0  0
   61.4797    5.2721   -5.7311 H   0  0  0  0  0  0  0  0  0  0  0  0
   61.3894    3.2311   -4.3404 H   0  0  0  0  0  0  0  0  0  0  0  0
   62.9369    3.8393   -2.3128 H   0  0  0  0  0  0  0  0  0  0  0  0
   64.7306    2.1630   -1.2095 H   0  0  0  0  0  0  0  0  0  0  0  0
   36.7117   -0.1349   -0.0313 C   0  0  0  0  0  0  0  0  0  0  0  0
   35.4836   -0.1241   -0.0291 C   0  0  0  0  0  0  0  0  0  0  0  0
   34.1391   -0.1079   -0.0259 C   0  0  0  0  0  0  0  0  0  0  0  0
   32.9157   -0.0802   -0.0198 C   0  0  0  0  0  0  0  0  0  0  0  0
   38.0562   -0.1347   -0.0278 C   0  0  0  0  0  0  0  0  0  0  0  0
   39.2801   -0.1267   -0.0217 C   0  0  0  0  0  0  0  0  0  0  0  0
   52.7333    0.1420   -0.0668 C   0  0  0  0  0  0  0  0  0  0  0  0
   51.5054    0.1354   -0.0716 C   0  0  0  0  0  0  0  0  0  0  0  0
   50.1604    0.1192   -0.0768 C   0  0  0  0  0  0  0  0  0  0  0  0
   48.9370    0.0941   -0.0798 C   0  0  0  0  0  0  0  0  0  0  0  0
   54.0785    0.1404   -0.0537 C   0  0  0  0  0  0  0  0  0  0  0  0
   55.3019    0.1292   -0.0395 C   0  0  0  0  0  0  0  0  0  0  0  0
   40.6855   -0.1097   -0.0107 C   0  0  0  0  0  0  0  0  0  0  0  0
   41.3301   -1.2078   -0.6110 C   0  0  0  0  0  0  0  0  0  0  0  0
   40.6977   -2.3073   -1.2470 C   0  0  0  0  0  0  0  0  0  0  0  0
   41.6756   -3.1357   -1.7257 C   0  0  0  0  0  0  0  0  0  0  0  0
   42.9349   -2.5694   -1.3874 C   0  0  0  0  0  0  0  0  0  0  0  0
   42.6747   -1.4037   -0.7174 N   0  0  0  0  0  0  0  0  0  0  0  0
   44.2029   -3.0734   -1.7022 C   0  0  0  0  0  0  0  0  0  0  0  0
   44.2388   -4.3726   -2.4177 C   0  0  0  0  0  0  0  0  0  0  0  0
   44.8158   -4.4685   -3.6846 C   0  0  0  0  0  0  0  0  0  0  0  0
   44.8463   -5.6789   -4.3595 C   0  0  0  0  0  0  0  0  0  0  0  0
   44.3017   -6.8154   -3.7662 C   0  0  0  0  0  0  0  0  0  0  0  0
   44.3125   -8.0211   -4.3904 O   0  0  0  0  0  0  0  0  0  0  0  0
   43.7250   -6.7342   -2.5000 C   0  0  0  0  0  0  0  0  0  0  0  0
   43.6928   -5.5202   -1.8371 C   0  0  0  0  0  0  0  0  0  0  0  0
   45.4166   -2.4528   -1.3990 C   0  0  0  0  0  0  0  0  0  0  0  0
   46.7159   -3.0345   -1.6850 C   0  0  0  0  0  0  0  0  0  0  0  0
   47.6359   -2.1553   -1.2371 C   0  0  0  0  0  0  0  0  0  0  0  0
   45.5692   -1.2515   -0.7771 N   0  0  0  0  0  0  0  0  0  0  0  0
   46.8977   -1.0441   -0.6700 C   0  0  0  0  0  0  0  0  0  0  0  0
   47.5310    0.0677   -0.0804 C   0  0  0  0  0  0  0  0  0  0  0  0
   46.8866    1.1573    0.5351 C   0  0  0  0  0  0  0  0  0  0  0  0
   47.5198    2.2485    1.1849 C   0  0  0  0  0  0  0  0  0  0  0  0
   46.5427    3.0665    1.6824 C   0  0  0  0  0  0  0  0  0  0  0  0
   45.2830    2.5038    1.3401 C   0  0  0  0  0  0  0  0  0  0  0  0
   45.5422    1.3493    0.6504 N   0  0  0  0  0  0  0  0  0  0  0  0
   44.0152    3.0030    1.6621 C   0  0  0  0  0  0  0  0  0  0  0  0
   43.9758    4.2848    2.4084 C   0  0  0  0  0  0  0  0  0  0  0  0
   44.5203    5.4488    1.8605 C   0  0  0  0  0  0  0  0  0  0  0  0
   44.4808    6.6447    2.5554 C   0  0  0  0  0  0  0  0  0  0  0  0
   43.8985    6.6904    3.8208 C   0  0  0  0  0  0  0  0  0  0  0  0
   43.8805    7.8792    4.4763 O   0  0  0  0  0  0  0  0  0  0  0  0
   43.3552    5.5369    4.3816 C   0  0  0  0  0  0  0  0  0  0  0  0
   43.3926    4.3453    3.6747 C   0  0  0  0  0  0  0  0  0  0  0  0
   42.8016    2.3919    1.3407 C   0  0  0  0  0  0  0  0  0  0  0  0
   41.5031    2.9784    1.6200 C   0  0  0  0  0  0  0  0  0  0  0  0
   40.5825    2.1103    1.1521 C   0  0  0  0  0  0  0  0  0  0  0  0
   41.3198    0.9996    0.5832 C   0  0  0  0  0  0  0  0  0  0  0  0
   42.6481    1.1982    0.7043 N   0  0  0  0  0  0  0  0  0  0  0  0
   39.6306   -2.4355   -1.3309 H   0  0  0  0  0  0  0  0  0  0  0  0
   41.5380   -4.0514   -2.2771 H   0  0  0  0  0  0  0  0  0  0  0  0
   43.3867   -0.7729   -0.3644 H   0  0  0  0  0  0  0  0  0  0  0  0
   45.2283   -3.5821   -4.1533 H   0  0  0  0  0  0  0  0  0  0  0  0
   45.2902   -5.7456   -5.3471 H   0  0  0  0  0  0  0  0  0  0  0  0
   44.7414   -7.9668   -5.2549 H   0  0  0  0  0  0  0  0  0  0  0  0
   43.3093   -7.6265   -2.0486 H   0  0  0  0  0  0  0  0  0  0  0  0
   43.2569   -5.4611   -0.8461 H   0  0  0  0  0  0  0  0  0  0  0  0
   46.8809   -3.9936   -2.1485 H   0  0  0  0  0  0  0  0  0  0  0  0
   48.7110   -2.2319   -1.2663 H   0  0  0  0  0  0  0  0  0  0  0  0
   48.5870    2.3773    1.2659 H   0  0  0  0  0  0  0  0  0  0  0  0
   46.6809    3.9733    2.2482 H   0  0  0  0  0  0  0  0  0  0  0  0
   44.8297    0.7219    0.2926 H   0  0  0  0  0  0  0  0  0  0  0  0
   44.9601    5.4178    0.8699 H   0  0  0  0  0  0  0  0  0  0  0  0
   44.8947    7.5503    2.1296 H   0  0  0  0  0  0  0  0  0  0  0  0
   43.4497    7.8003    5.3380 H   0  0  0  0  0  0  0  0  0  0  0  0
   42.9065    5.5759    5.3684 H   0  0  0  0  0  0  0  0  0  0  0  0
   42.9801    3.4453    4.1170 H   0  0  0  0  0  0  0  0  0  0  0  0
   41.3395    3.9337    2.0918 H   0  0  0  0  0  0  0  0  0  0  0  0
   39.5077    2.1937    1.1707 H   0  0  0  0  0  0  0  0  0  0  0  0
  1  2  4  0  0  0  0
  2  3  4  0  0  0  0
  3  4  2  0  0  0  0
  4  5  4  0  0  0  0
  2  6  4  0  0  0  0
  5  6  4  0  0  0  0
  5  7  4  0  0  0  0
  7  8  1  0  0  0  0
  8  9  4  0  0  0  0
  9 10  4  0  0  0  0
 10 11  4  0  0  0  0
 11 12  1  0  0  0  0
 11 13  4  0  0  0  0
  8 14  4  0  0  0  0
 13 14  4  0  0  0  0
  7 15  4  0  0  0  0
 15 16  1  0  0  0  0
 16 17  2  0  0  0  0
 15 18  4  0  0  0  0
 17 19  1  0  0  0  0
 18 19  4  0  0  0  0
 19 20  4  0  0  0  0
 20 21  4  0  0  0  0
 21 22  4  0  0  0  0
 22 23  2  0  0  0  0
 23 24  4  0  0  0  0
 21 25  4  0  0  0  0
 24 25  4  0  0  0  0
 24 26  4  0  0  0  0
 26 27  1  0  0  0  0
 27 28  4  0  0  0  0
 28 29  4  0  0  0  0
 29 30  4  0  0  0  0
 30 31  1  0  0  0  0
 30 32  4  0  0  0  0
 27 33  4  0  0  0  0
 32 33  4  0  0  0  0
 26 34  4  0  0  0  0
 34 35  1  0  0  0  0
 35 36  2  0  0  0  0
  1 37  4  0  0  0  0
 36 37  1  0  0  0  0
 34 38  4  0  0  0  0
 37 38  4  0  0  0  0
  1 39  1  0  0  0  0
  3 40  1  0  0  0  0
  4 41  1  0  0  0  0
  6 42  1  0  0  0  0
  9 43  1  0  0  0  0
 10 44  1  0  0  0  0
 12 45  1  0  0  0  0
 13 46  1  0  0  0  0
 14 47  1  0  0  0  0
 16 48  1  0  0  0  0
 17 49  1  0  0  0  0
 22 50  1  0  0  0  0
 23 51  1  0  0  0  0
 25 52  1  0  0  0  0
 28 53  1  0  0  0  0
 29 54  1  0  0  0  0
 31 55  1  0  0  0  0
 32 56  1  0  0  0  0
 33 57  1  0  0  0  0
 35 58  1  0  0  0  0
 36 59  1  0  0  0  0
 60 61  4  0  0  0  0
 61 62  4  0  0  0  0
 62 63  2  0  0  0  0
 63 64  4  0  0  0  0
 61 65  4  0  0  0  0
 64 65  4  0  0  0  0
 64 66  4  0  0  0  0
 66 67  1  0  0  0  0
 67 68  4  0  0  0  0
 68 69  4  0  0  0  0
 69 70  4  0  0  0  0
 70 71  1  0  0  0  0
 70 72  4  0  0  0  0
 67 73  4  0  0  0  0
 72 73  4  0  0  0  0
 66 74  4  0  0  0  0
 74 75  1  0  0  0  0
 75 76  2  0  0  0  0
 74 77  4  0  0  0  0
 76 78  1  0  0  0  0
 77 78  4  0  0  0  0
 78 79  4  0  0  0  0
 79 80  4  0  0  0  0
 80 81  4  0  0  0  0
 81 82  2  0  0  0  0
 82 83  4  0  0  0  0
 80 84  4  0  0  0  0
 83 84  4  0  0  0  0
 83 85  4  0  0  0  0
 85 86  1  0  0  0  0
 86 87  4  0  0  0  0
 87 88  4  0  0  0  0
 88 89  4  0  0  0  0
 89 90  1  0  0  0  0
 89 91  4  0  0  0  0
 86 92  4  0  0  0  0
 91 92  4  0  0  0  0
 85 93  4  0  0  0  0
 93 94  1  0  0  0  0
 94 95  2  0  0  0  0
 60 96  4  0  0  0  0
 95 96  1  0  0  0  0
 93 97  4  0  0  0  0
 96 97  4  0  0  0  0
 60 98  1  0  0  0  0
 62 99  1  0  0  0  0
 63100  1  0  0  0  0
 65101  1  0  0  0  0
 68102  1  0  0  0  0
 69103  1  0  0  0  0
 71104  1  0  0  0  0
 72105  1  0  0  0  0
 73106  1  0  0  0  0
 75107  1  0  0  0  0
 76108  1  0  0  0  0
 81109  1  0  0  0  0
 82110  1  0  0  0  0
 84111  1  0  0  0  0
 87112  1  0  0  0  0
 88113  1  0  0  0  0
 90114  1  0  0  0  0
 91115  1  0  0  0  0
 92116  1  0  0  0  0
 94117  1  0  0  0  0
 95118  1  0  0  0  0
119120  3  0  0  0  0
120121  4  0  0  0  0
 20122  4  0  0  0  0
121122  3  0  0  0  0
119123  4  0  0  0  0
123124  3  0  0  0  0
125126  3  0  0  0  0
126127  4  0  0  0  0
127128  3  0  0  0  0
125129  4  0  0  0  0
 79130  4  0  0  0  0
129130  3  0  0  0  0
124131  4  0  0  0  0
131132  4  0  0  0  0
132133  4  0  0  0  0
133134  2  0  0  0  0
134135  4  0  0  0  0
132136  4  0  0  0  0
135136  4  0  0  0  0
135137  4  0  0  0  0
137138  1  0  0  0  0
138139  4  0  0  0  0
139140  4  0  0  0  0
140141  4  0  0  0  0
141142  1  0  0  0  0
141143  4  0  0  0  0
138144  4  0  0  0  0
143144  4  0  0  0  0
137145  4  0  0  0  0
145146  1  0  0  0  0
146147  2  0  0  0  0
145148  4  0  0  0  0
147149  1  0  0  0  0
148149  4  0  0  0  0
128150  4  0  0  0  0
149150  4  0  0  0  0
150151  4  0  0  0  0
151152  4  0  0  0  0
152153  2  0  0  0  0
153154  4  0  0  0  0
151155  4  0  0  0  0
154155  4  0  0  0  0
154156  4  0  0  0  0
156157  1  0  0  0  0
157158  4  0  0  0  0
158159  4  0  0  0  0
159160  4  0  0  0  0
160161  1  0  0  0  0
160162  4  0  0  0  0
157163  4  0  0  0  0
162163  4  0  0  0  0
156164  4  0  0  0  0
164165  1  0  0  0  0
165166  2  0  0  0  0
131167  4  0  0  0  0
166167  1  0  0  0  0
164168  4  0  0  0  0
167168  4  0  0  0  0
133169  1  0  0  0  0
134170  1  0  0  0  0
136171  1  0  0  0  0
139172  1  0  0  0  0
140173  1  0  0  0  0
142174  1  0  0  0  0
143175  1  0  0  0  0
144176  1  0  0  0  0
146177  1  0  0  0  0
147178  1  0  0  0  0
152179  1  0  0  0  0
153180  1  0  0  0  0
155181  1  0  0  0  0
158182  1  0  0  0  0
159183  1  0  0  0  0
161184  1  0  0  0  0
162185  1  0  0  0  0
163186  1  0  0  0  0
165187  1  0  0  0  0
166188  1  0  0  0  0
M  END
