 xtb: 6.5.1 (b24c23e)
          07292214053D

126139  0     0  0            999 V2000
   12.0645   -0.1292    0.0947 C   0  0  0  0  0  0  0  0  0  0  0  0
   12.6763   -0.9979    0.9896 C   0  0  0  0  0  0  0  0  0  0  0  0
   12.0259   -1.9058    1.8712 C   0  0  0  0  0  0  0  0  0  0  0  0
   12.9889   -2.5653    2.5825 C   0  0  0  0  0  0  0  0  0  0  0  0
   14.2586   -2.0734    2.1666 C   0  0  0  0  0  0  0  0  0  0  0  0
   14.0192   -1.1390    1.1987 N   0  0  0  0  0  0  0  0  0  0  0  0
   15.5220   -2.4652    2.6261 C   0  0  0  0  0  0  0  0  0  0  0  0
   15.5546   -3.4725    3.7124 C   0  0  0  0  0  0  0  0  0  0  0  0
   16.2062   -4.6952    3.5324 C   0  0  0  0  0  0  0  0  0  0  0  0
   16.2346   -5.6399    4.5427 C   0  0  0  0  0  0  0  0  0  0  0  0
   15.6201   -5.3741    5.7691 C   0  0  0  0  0  0  0  0  0  0  0  0
   15.6128   -6.3318    6.7686 N   0  0  0  0  0  0  0  0  0  0  0  0
   14.9618   -4.1560    5.9558 C   0  0  0  0  0  0  0  0  0  0  0  0
   14.9304   -3.2205    4.9368 C   0  0  0  0  0  0  0  0  0  0  0  0
   16.7351   -1.9735    2.1360 C   0  0  0  0  0  0  0  0  0  0  0  0
   18.0340   -2.3413    2.6691 C   0  0  0  0  0  0  0  0  0  0  0  0
   18.9509   -1.6700    1.9411 C   0  0  0  0  0  0  0  0  0  0  0  0
   16.8847   -1.0787    1.1201 N   0  0  0  0  0  0  0  0  0  0  0  0
   18.2107   -0.8845    0.9734 C   0  0  0  0  0  0  0  0  0  0  0  0
   18.8438   -0.0523    0.0275 C   0  0  0  0  0  0  0  0  0  0  0  0
   18.2058    0.7822   -0.9105 C   0  0  0  0  0  0  0  0  0  0  0  0
   18.8492    1.5988   -1.8773 C   0  0  0  0  0  0  0  0  0  0  0  0
   17.8817    2.2639   -2.5791 C   0  0  0  0  0  0  0  0  0  0  0  0
   16.6168    1.8795   -2.0554 C   0  0  0  0  0  0  0  0  0  0  0  0
   16.8647    0.9756   -1.0557 N   0  0  0  0  0  0  0  0  0  0  0  0
   15.3544    2.3086   -2.4813 C   0  0  0  0  0  0  0  0  0  0  0  0
   15.3202    3.3280   -3.5555 C   0  0  0  0  0  0  0  0  0  0  0  0
   14.6747    3.0671   -4.7669 C   0  0  0  0  0  0  0  0  0  0  0  0
   14.6408    4.0171   -5.7721 C   0  0  0  0  0  0  0  0  0  0  0  0
   15.2424    5.2635   -5.5799 C   0  0  0  0  0  0  0  0  0  0  0  0
   15.2422    6.2031   -6.5965 N   0  0  0  0  0  0  0  0  0  0  0  0
   15.8955    5.5304   -4.3739 C   0  0  0  0  0  0  0  0  0  0  0  0
   15.9334    4.5709   -3.3778 C   0  0  0  0  0  0  0  0  0  0  0  0
   14.1403    1.8439   -1.9628 C   0  0  0  0  0  0  0  0  0  0  0  0
   12.8338    2.3335   -2.3733 C   0  0  0  0  0  0  0  0  0  0  0  0
   11.9237    1.6448   -1.6548 C   0  0  0  0  0  0  0  0  0  0  0  0
   12.6732    0.7457   -0.7958 C   0  0  0  0  0  0  0  0  0  0  0  0
   14.0042    0.8988   -1.0024 N   0  0  0  0  0  0  0  0  0  0  0  0
   10.9791   -0.1409    0.1004 H   0  0  0  0  0  0  0  0  0  0  0  0
   10.9571   -2.0338    1.9378 H   0  0  0  0  0  0  0  0  0  0  0  0
   12.8381   -3.3339    3.3232 H   0  0  0  0  0  0  0  0  0  0  0  0
   14.7447   -0.6310    0.7039 H   0  0  0  0  0  0  0  0  0  0  0  0
   16.6772   -4.9133    2.5801 H   0  0  0  0  0  0  0  0  0  0  0  0
   16.7346   -6.5897    4.3868 H   0  0  0  0  0  0  0  0  0  0  0  0
   15.4578   -5.9752    7.6980 H   0  0  0  0  0  0  0  0  0  0  0  0
   16.3546   -7.0112    6.7123 H   0  0  0  0  0  0  0  0  0  0  0  0
   14.4800   -3.9450    6.9043 H   0  0  0  0  0  0  0  0  0  0  0  0
   14.4350   -2.2691    5.0977 H   0  0  0  0  0  0  0  0  0  0  0  0
   18.2010   -3.0096    3.4983 H   0  0  0  0  0  0  0  0  0  0  0  0
   20.0250   -1.6807    2.0372 H   0  0  0  0  0  0  0  0  0  0  0  0
   19.9168    1.6588   -2.0153 H   0  0  0  0  0  0  0  0  0  0  0  0
   18.0287    2.9511   -3.3964 H   0  0  0  0  0  0  0  0  0  0  0  0
   16.1423    0.5140   -0.5129 H   0  0  0  0  0  0  0  0  0  0  0  0
   14.2138    2.0987   -4.9278 H   0  0  0  0  0  0  0  0  0  0  0  0
   14.1462    3.7984   -6.7122 H   0  0  0  0  0  0  0  0  0  0  0  0
   14.5041    6.0962   -7.2741 H   0  0  0  0  0  0  0  0  0  0  0  0
   15.3836    7.1545   -6.2963 H   0  0  0  0  0  0  0  0  0  0  0  0
   16.3679    6.4946   -4.2201 H   0  0  0  0  0  0  0  0  0  0  0  0
   16.4248    4.7941   -2.4370 H   0  0  0  0  0  0  0  0  0  0  0  0
   12.6604    3.1090   -3.1021 H   0  0  0  0  0  0  0  0  0  0  0  0
   10.8478    1.7234   -1.6745 H   0  0  0  0  0  0  0  0  0  0  0  0
   32.2288    0.0653   -0.1451 C   0  0  0  0  0  0  0  0  0  0  0  0
   31.6173    0.7394   -1.1946 C   0  0  0  0  0  0  0  0  0  0  0  0
   32.2678    1.3931   -2.2780 C   0  0  0  0  0  0  0  0  0  0  0  0
   31.3048    1.9328   -3.0840 C   0  0  0  0  0  0  0  0  0  0  0  0
   30.0349    1.6361   -2.5127 C   0  0  0  0  0  0  0  0  0  0  0  0
   30.2742    0.9074   -1.3818 N   0  0  0  0  0  0  0  0  0  0  0  0
   28.7715    1.9901   -3.0019 C   0  0  0  0  0  0  0  0  0  0  0  0
   28.7395    2.8169   -4.2314 C   0  0  0  0  0  0  0  0  0  0  0  0
   28.0963    2.3579   -5.3836 C   0  0  0  0  0  0  0  0  0  0  0  0
   28.0690    3.1253   -6.5345 C   0  0  0  0  0  0  0  0  0  0  0  0
   28.6756    4.3839   -6.5530 C   0  0  0  0  0  0  0  0  0  0  0  0
   28.6839    5.1382   -7.7137 N   0  0  0  0  0  0  0  0  0  0  0  0
   29.3253    4.8483   -5.4065 C   0  0  0  0  0  0  0  0  0  0  0  0
   29.3561    4.0702   -4.2628 C   0  0  0  0  0  0  0  0  0  0  0  0
   27.5581    1.6236   -2.4131 C   0  0  0  0  0  0  0  0  0  0  0  0
   26.2593    2.0548   -2.8966 C   0  0  0  0  0  0  0  0  0  0  0  0
   25.3420    1.5015   -2.0758 C   0  0  0  0  0  0  0  0  0  0  0  0
   27.4081    0.8424   -1.3076 N   0  0  0  0  0  0  0  0  0  0  0  0
   26.0818    0.7434   -1.0862 C   0  0  0  0  0  0  0  0  0  0  0  0
   25.4484    0.0162   -0.0576 C   0  0  0  0  0  0  0  0  0  0  0  0
   26.0862   -0.7036    0.9711 C   0  0  0  0  0  0  0  0  0  0  0  0
   25.4426   -1.4546    1.9897 C   0  0  0  0  0  0  0  0  0  0  0  0
   26.4101   -1.9864    2.7972 C   0  0  0  0  0  0  0  0  0  0  0  0
   27.6752   -1.5684    2.3004 C   0  0  0  0  0  0  0  0  0  0  0  0
   27.4274   -0.8030    1.1910 N   0  0  0  0  0  0  0  0  0  0  0  0
   28.9376   -1.8881    2.8135 C   0  0  0  0  0  0  0  0  0  0  0  0
   28.9711   -2.7000    4.0522 C   0  0  0  0  0  0  0  0  0  0  0  0
   29.6096   -3.9426    4.0748 C   0  0  0  0  0  0  0  0  0  0  0  0
   29.6425   -4.7027    5.2303 C   0  0  0  0  0  0  0  0  0  0  0  0
   29.0470   -4.2258    6.4009 C   0  0  0  0  0  0  0  0  0  0  0  0
   29.0462   -4.9991    7.5491 N   0  0  0  0  0  0  0  0  0  0  0  0
   28.4009   -2.9870    6.3854 C   0  0  0  0  0  0  0  0  0  0  0  0
   28.3639   -2.2380    5.2227 C   0  0  0  0  0  0  0  0  0  0  0  0
   30.1520   -1.4923    2.2415 C   0  0  0  0  0  0  0  0  0  0  0  0
   31.4584   -1.7840    2.8103 C   0  0  0  0  0  0  0  0  0  0  0  0
   32.3688   -1.2402    1.9771 C   0  0  0  0  0  0  0  0  0  0  0  0
   31.6197   -0.6052    0.9077 C   0  0  0  0  0  0  0  0  0  0  0  0
   30.2885   -0.7708    1.1036 N   0  0  0  0  0  0  0  0  0  0  0  0
   33.3142    0.0696   -0.1566 H   0  0  0  0  0  0  0  0  0  0  0  0
   33.3367    1.4319   -2.4159 H   0  0  0  0  0  0  0  0  0  0  0  0
   31.4556    2.4796   -4.0007 H   0  0  0  0  0  0  0  0  0  0  0  0
   29.5487    0.5394   -0.7757 H   0  0  0  0  0  0  0  0  0  0  0  0
   27.6312    1.3782   -5.3804 H   0  0  0  0  0  0  0  0  0  0  0  0
   27.5758    2.7533   -7.4259 H   0  0  0  0  0  0  0  0  0  0  0  0
   28.8318    6.1255   -7.5780 H   0  0  0  0  0  0  0  0  0  0  0  0
   27.9465    4.9234   -8.3659 H   0  0  0  0  0  0  0  0  0  0  0  0
   29.8009    5.8230   -5.4155 H   0  0  0  0  0  0  0  0  0  0  0  0
   29.8449    4.4472   -3.3710 H   0  0  0  0  0  0  0  0  0  0  0  0
   26.0927    2.7056   -3.7398 H   0  0  0  0  0  0  0  0  0  0  0  0
   24.2679    1.5911   -2.1098 H   0  0  0  0  0  0  0  0  0  0  0  0
   24.3749   -1.5725    2.0815 H   0  0  0  0  0  0  0  0  0  0  0  0
   26.2631   -2.6228    3.6545 H   0  0  0  0  0  0  0  0  0  0  0  0
   28.1499   -0.3826    0.6159 H   0  0  0  0  0  0  0  0  0  0  0  0
   30.0659   -4.3243    3.1680 H   0  0  0  0  0  0  0  0  0  0  0  0
   30.1315   -5.6708    5.2321 H   0  0  0  0  0  0  0  0  0  0  0  0
   29.7806   -5.6872    7.5987 H   0  0  0  0  0  0  0  0  0  0  0  0
   28.9105   -4.4873    8.4063 H   0  0  0  0  0  0  0  0  0  0  0  0
   27.9333   -2.6131    7.2898 H   0  0  0  0  0  0  0  0  0  0  0  0
   27.8777   -1.2684    5.2249 H   0  0  0  0  0  0  0  0  0  0  0  0
   31.6314   -2.3200    3.7297 H   0  0  0  0  0  0  0  0  0  0  0  0
   33.4448   -1.2433    2.0576 H   0  0  0  0  0  0  0  0  0  0  0  0
   21.4717   -0.0286   -0.0078 C   0  0  0  0  0  0  0  0  0  0  0  0
   20.2494   -0.0409    0.0093 C   0  0  0  0  0  0  0  0  0  0  0  0
   22.8206   -0.0139   -0.0254 C   0  0  0  0  0  0  0  0  0  0  0  0
   24.0428    0.0013   -0.0426 C   0  0  0  0  0  0  0  0  0  0  0  0
  1  2  4  0  0  0  0
  2  3  4  0  0  0  0
  3  4  2  0  0  0  0
  4  5  4  0  0  0  0
  2  6  4  0  0  0  0
  5  6  4  0  0  0  0
  5  7  4  0  0  0  0
  7  8  1  0  0  0  0
  8  9  4  0  0  0  0
  9 10  4  0  0  0  0
 10 11  4  0  0  0  0
 11 12  1  0  0  0  0
 11 13  4  0  0  0  0
  8 14  4  0  0  0  0
 13 14  4  0  0  0  0
  7 15  4  0  0  0  0
 15 16  1  0  0  0  0
 16 17  2  0  0  0  0
 15 18  4  0  0  0  0
 17 19  1  0  0  0  0
 18 19  4  0  0  0  0
 19 20  4  0  0  0  0
 20 21  4  0  0  0  0
 21 22  4  0  0  0  0
 22 23  2  0  0  0  0
 23 24  4  0  0  0  0
 21 25  4  0  0  0  0
 24 25  4  0  0  0  0
 24 26  4  0  0  0  0
 26 27  1  0  0  0  0
 27 28  4  0  0  0  0
 28 29  4  0  0  0  0
 29 30  4  0  0  0  0
 30 31  1  0  0  0  0
 30 32  4  0  0  0  0
 27 33  4  0  0  0  0
 32 33  4  0  0  0  0
 26 34  4  0  0  0  0
 34 35  1  0  0  0  0
 35 36  2  0  0  0  0
  1 37  4  0  0  0  0
 36 37  1  0  0  0  0
 34 38  4  0  0  0  0
 37 38  4  0  0  0  0
  1 39  1  0  0  0  0
  3 40  1  0  0  0  0
  4 41  1  0  0  0  0
  6 42  1  0  0  0  0
  9 43  1  0  0  0  0
 10 44  1  0  0  0  0
 12 45  1  0  0  0  0
 12 46  1  0  0  0  0
 13 47  1  0  0  0  0
 14 48  1  0  0  0  0
 16 49  1  0  0  0  0
 17 50  1  0  0  0  0
 22 51  1  0  0  0  0
 23 52  1  0  0  0  0
 25 53  1  0  0  0  0
 28 54  1  0  0  0  0
 29 55  1  0  0  0  0
 31 56  1  0  0  0  0
 31 57  1  0  0  0  0
 32 58  1  0  0  0  0
 33 59  1  0  0  0  0
 35 60  1  0  0  0  0
 36 61  1  0  0  0  0
 62 63  4  0  0  0  0
 63 64  4  0  0  0  0
 64 65  2  0  0  0  0
 65 66  4  0  0  0  0
 63 67  4  0  0  0  0
 66 67  4  0  0  0  0
 66 68  4  0  0  0  0
 68 69  1  0  0  0  0
 69 70  4  0  0  0  0
 70 71  4  0  0  0  0
 71 72  4  0  0  0  0
 72 73  1  0  0  0  0
 72 74  4  0  0  0  0
 69 75  4  0  0  0  0
 74 75  4  0  0  0  0
 68 76  4  0  0  0  0
 76 77  1  0  0  0  0
 77 78  2  0  0  0  0
 76 79  4  0  0  0  0
 78 80  1  0  0  0  0
 79 80  4  0  0  0  0
 80 81  4  0  0  0  0
 81 82  4  0  0  0  0
 82 83  4  0  0  0  0
 83 84  2  0  0  0  0
 84 85  4  0  0  0  0
 82 86  4  0  0  0  0
 85 86  4  0  0  0  0
 85 87  4  0  0  0  0
 87 88  1  0  0  0  0
 88 89  4  0  0  0  0
 89 90  4  0  0  0  0
 90 91  4  0  0  0  0
 91 92  1  0  0  0  0
 91 93  4  0  0  0  0
 88 94  4  0  0  0  0
 93 94  4  0  0  0  0
 87 95  4  0  0  0  0
 95 96  1  0  0  0  0
 96 97  2  0  0  0  0
 62 98  4  0  0  0  0
 97 98  1  0  0  0  0
 95 99  4  0  0  0  0
 98 99  4  0  0  0  0
 62100  1  0  0  0  0
 64101  1  0  0  0  0
 65102  1  0  0  0  0
 67103  1  0  0  0  0
 70104  1  0  0  0  0
 71105  1  0  0  0  0
 73106  1  0  0  0  0
 73107  1  0  0  0  0
 74108  1  0  0  0  0
 75109  1  0  0  0  0
 77110  1  0  0  0  0
 78111  1  0  0  0  0
 83112  1  0  0  0  0
 84113  1  0  0  0  0
 86114  1  0  0  0  0
 89115  1  0  0  0  0
 90116  1  0  0  0  0
 92117  1  0  0  0  0
 92118  1  0  0  0  0
 93119  1  0  0  0  0
 94120  1  0  0  0  0
 96121  1  0  0  0  0
 97122  1  0  0  0  0
 20124  4  0  0  0  0
123124  3  0  0  0  0
123125  4  0  0  0  0
 81126  4  0  0  0  0
125126  3  0  0  0  0
M  END
