 xtb: 6.5.1 (b24c23e)
          07302216043D

203232  0     0  0            999 V2000
   31.4220    0.0550    0.0133 Zn  0  0  0  0  0  0  0  0  0  0  0  0
   28.0145    0.1041    0.0605 C   0  0  0  0  0  0  0  0  0  0  0  0
   28.6451   -0.2025    1.2602 C   0  0  0  0  0  0  0  0  0  0  0  0
   27.9720   -0.5243    2.4877 C   0  0  0  0  0  0  0  0  0  0  0  0
   28.9313   -0.7594    3.4170 C   0  0  0  0  0  0  0  0  0  0  0  0
   30.2038   -0.5723    2.7703 C   0  0  0  0  0  0  0  0  0  0  0  0
   29.9948   -0.2457    1.4628 N   0  0  0  0  0  0  0  0  0  0  0  0
   31.4563   -0.7252    3.3769 C   0  0  0  0  0  0  0  0  0  0  0  0
   31.4747   -1.0694    4.8199 C   0  0  0  0  0  0  0  0  0  0  0  0
   30.9290   -0.1948    5.7629 C   0  0  0  0  0  0  0  0  0  0  0  0
   30.9542   -0.5088    7.1118 C   0  0  0  0  0  0  0  0  0  0  0  0
   31.5246   -1.7087    7.5048 C   0  0  0  0  0  0  0  0  0  0  0  0
   31.5713   -2.1072    9.2109 S   0  0  0  0  0  0  0  0  0  0  0  0
   31.5010   -0.9216   10.0134 O   0  0  0  0  0  0  0  0  0  0  0  0
   30.1430   -2.8752    9.3137 O   0  0  0  0  0  0  0  0  0  0  0  0
   32.6088   -3.0578    9.4853 O   0  0  0  0  0  0  0  0  0  0  0  0
   32.0730   -2.5972    6.5940 C   0  0  0  0  0  0  0  0  0  0  0  0
   32.0467   -2.2703    5.2485 C   0  0  0  0  0  0  0  0  0  0  0  0
   32.6957   -0.5828    2.7424 C   0  0  0  0  0  0  0  0  0  0  0  0
   33.9761   -0.6823    3.3880 C   0  0  0  0  0  0  0  0  0  0  0  0
   34.9207   -0.4715    2.4367 C   0  0  0  0  0  0  0  0  0  0  0  0
   32.8864   -0.2987    1.4175 N   0  0  0  0  0  0  0  0  0  0  0  0
   34.2283   -0.2335    1.2040 C   0  0  0  0  0  0  0  0  0  0  0  0
   34.8567    0.0163   -0.0315 C   0  0  0  0  0  0  0  0  0  0  0  0
   34.2024    0.2761   -1.2513 C   0  0  0  0  0  0  0  0  0  0  0  0
   34.8675    0.4917   -2.5028 C   0  0  0  0  0  0  0  0  0  0  0  0
   33.9032    0.7164   -3.4311 C   0  0  0  0  0  0  0  0  0  0  0  0
   32.6382    0.6501   -2.7518 C   0  0  0  0  0  0  0  0  0  0  0  0
   32.8571    0.3696   -1.4304 N   0  0  0  0  0  0  0  0  0  0  0  0
   31.3860    0.8196   -3.3537 C   0  0  0  0  0  0  0  0  0  0  0  0
   31.3728    1.1508   -4.7998 C   0  0  0  0  0  0  0  0  0  0  0  0
   30.7682    0.2878   -5.7173 C   0  0  0  0  0  0  0  0  0  0  0  0
   30.7593    0.5907   -7.0689 C   0  0  0  0  0  0  0  0  0  0  0  0
   31.3584    1.7664   -7.4908 C   0  0  0  0  0  0  0  0  0  0  0  0
   31.3449    2.1606   -9.1990 S   0  0  0  0  0  0  0  0  0  0  0  0
   31.4698    3.5747   -9.4040 O   0  0  0  0  0  0  0  0  0  0  0  0
   32.7606    1.4813   -9.6169 O   0  0  0  0  0  0  0  0  0  0  0  0
   30.2870    1.4616   -9.8654 O   0  0  0  0  0  0  0  0  0  0  0  0
   31.9596    2.6462   -6.6051 C   0  0  0  0  0  0  0  0  0  0  0  0
   31.9657    2.3310   -5.2565 C   0  0  0  0  0  0  0  0  0  0  0  0
   30.1468    0.7060   -2.7117 C   0  0  0  0  0  0  0  0  0  0  0  0
   28.8628    0.9289   -3.3234 C   0  0  0  0  0  0  0  0  0  0  0  0
   27.9234    0.7277   -2.3665 C   0  0  0  0  0  0  0  0  0  0  0  0
   28.6206    0.3900   -1.1567 C   0  0  0  0  0  0  0  0  0  0  0  0
   29.9649    0.3915   -1.3972 N   0  0  0  0  0  0  0  0  0  0  0  0
   26.9292    0.1208    0.0756 H   0  0  0  0  0  0  0  0  0  0  0  0
   26.9011   -0.5698    2.6089 H   0  0  0  0  0  0  0  0  0  0  0  0
   28.7948   -1.0454    4.4476 H   0  0  0  0  0  0  0  0  0  0  0  0
   30.4999    0.7452    5.4359 H   0  0  0  0  0  0  0  0  0  0  0  0
   30.5458    0.1678    7.8519 H   0  0  0  0  0  0  0  0  0  0  0  0
   30.0028   -3.1985   10.2120 H   0  0  0  0  0  0  0  0  0  0  0  0
   32.5154   -3.5243    6.9365 H   0  0  0  0  0  0  0  0  0  0  0  0
   32.4619   -2.9555    4.5187 H   0  0  0  0  0  0  0  0  0  0  0  0
   34.1312   -0.8748    4.4374 H   0  0  0  0  0  0  0  0  0  0  0  0
   35.9927   -0.4693    2.5530 H   0  0  0  0  0  0  0  0  0  0  0  0
   35.9358    0.4652   -2.6466 H   0  0  0  0  0  0  0  0  0  0  0  0
   34.0352    0.8978   -4.4855 H   0  0  0  0  0  0  0  0  0  0  0  0
   30.3163   -0.6334   -5.3683 H   0  0  0  0  0  0  0  0  0  0  0  0
   30.2940   -0.0716   -7.7881 H   0  0  0  0  0  0  0  0  0  0  0  0
   33.0546    1.8245  -10.4694 H   0  0  0  0  0  0  0  0  0  0  0  0
   32.4075    3.5629   -6.9678 H   0  0  0  0  0  0  0  0  0  0  0  0
   32.4198    3.0115   -4.5456 H   0  0  0  0  0  0  0  0  0  0  0  0
   28.7057    1.2149   -4.3511 H   0  0  0  0  0  0  0  0  0  0  0  0
   26.8514    0.8056   -2.4579 H   0  0  0  0  0  0  0  0  0  0  0  0
   63.5241    0.0441   -0.0048 Zn  0  0  0  0  0  0  0  0  0  0  0  0
   66.9319    0.1239   -0.0290 C   0  0  0  0  0  0  0  0  0  0  0  0
   66.3010    0.2782   -1.2574 C   0  0  0  0  0  0  0  0  0  0  0  0
   66.9740    0.4366   -2.5166 C   0  0  0  0  0  0  0  0  0  0  0  0
   66.0145    0.5542   -3.4677 C   0  0  0  0  0  0  0  0  0  0  0  0
   64.7420    0.4801   -2.7986 C   0  0  0  0  0  0  0  0  0  0  0  0
   64.9512    0.3035   -1.4626 N   0  0  0  0  0  0  0  0  0  0  0  0
   63.4894    0.5496   -3.4203 C   0  0  0  0  0  0  0  0  0  0  0  0
   63.4715    0.7637   -4.8883 C   0  0  0  0  0  0  0  0  0  0  0  0
   64.0068    1.9312   -5.4384 C   0  0  0  0  0  0  0  0  0  0  0  0
   63.9817    2.1402   -6.8075 C   0  0  0  0  0  0  0  0  0  0  0  0
   63.4218    1.1664   -7.6187 C   0  0  0  0  0  0  0  0  0  0  0  0
   63.3743    1.4300   -9.3507 S   0  0  0  0  0  0  0  0  0  0  0  0
   63.4305    2.8298   -9.6536 O   0  0  0  0  0  0  0  0  0  0  0  0
   64.8088    0.7682   -9.7309 O   0  0  0  0  0  0  0  0  0  0  0  0
   62.3457    0.6393   -9.9610 O   0  0  0  0  0  0  0  0  0  0  0  0
   62.8845   -0.0022   -7.1037 C   0  0  0  0  0  0  0  0  0  0  0  0
   62.9107   -0.1980   -5.7329 C   0  0  0  0  0  0  0  0  0  0  0  0
   62.2502    0.4363   -2.7797 C   0  0  0  0  0  0  0  0  0  0  0  0
   60.9693    0.5660   -3.4190 C   0  0  0  0  0  0  0  0  0  0  0  0
   60.0250    0.4066   -2.4575 C   0  0  0  0  0  0  0  0  0  0  0  0
   62.0598    0.2159   -1.4426 N   0  0  0  0  0  0  0  0  0  0  0  0
   60.7178    0.1873   -1.2216 C   0  0  0  0  0  0  0  0  0  0  0  0
   60.0896   -0.0244    0.0211 C   0  0  0  0  0  0  0  0  0  0  0  0
   60.7440   -0.2153    1.2536 C   0  0  0  0  0  0  0  0  0  0  0  0
   60.0792   -0.4666    2.4986 C   0  0  0  0  0  0  0  0  0  0  0  0
   61.0437   -0.5941    3.4449 C   0  0  0  0  0  0  0  0  0  0  0  0
   62.3086   -0.4109    2.7872 C   0  0  0  0  0  0  0  0  0  0  0  0
   62.0893   -0.1926    1.4541 N   0  0  0  0  0  0  0  0  0  0  0  0
   63.5611   -0.4746    3.4084 C   0  0  0  0  0  0  0  0  0  0  0  0
   63.5768   -0.6996    4.8748 C   0  0  0  0  0  0  0  0  0  0  0  0
   64.1798   -1.8424    5.4065 C   0  0  0  0  0  0  0  0  0  0  0  0
   64.1946   -2.0592    6.7745 C   0  0  0  0  0  0  0  0  0  0  0  0
   63.6030   -1.1195    7.6030 C   0  0  0  0  0  0  0  0  0  0  0  0
   63.6261   -1.3822    9.3362 S   0  0  0  0  0  0  0  0  0  0  0  0
   63.5106   -0.1426   10.0486 O   0  0  0  0  0  0  0  0  0  0  0  0
   62.2081   -2.1617    9.4846 O   0  0  0  0  0  0  0  0  0  0  0  0
   64.6829   -2.2817    9.6911 O   0  0  0  0  0  0  0  0  0  0  0  0
   63.0029    0.0266    7.1068 C   0  0  0  0  0  0  0  0  0  0  0  0
   62.9907    0.2309    5.7371 C   0  0  0  0  0  0  0  0  0  0  0  0
   64.8001   -0.3443    2.7691 C   0  0  0  0  0  0  0  0  0  0  0  0
   66.0839   -0.3597    3.4202 C   0  0  0  0  0  0  0  0  0  0  0  0
   67.0232   -0.1918    2.4567 C   0  0  0  0  0  0  0  0  0  0  0  0
   66.3260   -0.0619    1.2075 C   0  0  0  0  0  0  0  0  0  0  0  0
   64.9819   -0.1527    1.4312 N   0  0  0  0  0  0  0  0  0  0  0  0
   68.0171    0.1503   -0.0363 H   0  0  0  0  0  0  0  0  0  0  0  0
   68.0449    0.4465   -2.6452 H   0  0  0  0  0  0  0  0  0  0  0  0
   66.1510    0.6696   -4.5311 H   0  0  0  0  0  0  0  0  0  0  0  0
   64.4276    2.6868   -4.7852 H   0  0  0  0  0  0  0  0  0  0  0  0
   64.3819    3.0472   -7.2429 H   0  0  0  0  0  0  0  0  0  0  0  0
   64.9334    0.7710  -10.6877 H   0  0  0  0  0  0  0  0  0  0  0  0
   62.4504   -0.7402   -7.7665 H   0  0  0  0  0  0  0  0  0  0  0  0
   62.5041   -1.1094   -5.3102 H   0  0  0  0  0  0  0  0  0  0  0  0
   60.8136    0.7675   -4.4665 H   0  0  0  0  0  0  0  0  0  0  0  0
   58.9528    0.4406   -2.5665 H   0  0  0  0  0  0  0  0  0  0  0  0
   59.0108   -0.5429    2.6234 H   0  0  0  0  0  0  0  0  0  0  0  0
   60.9120   -0.8063    4.4936 H   0  0  0  0  0  0  0  0  0  0  0  0
   64.6265   -2.5712    4.7403 H   0  0  0  0  0  0  0  0  0  0  0  0
   64.6591   -2.9414    7.1967 H   0  0  0  0  0  0  0  0  0  0  0  0
   61.9136   -2.1425   10.4032 H   0  0  0  0  0  0  0  0  0  0  0  0
   62.5609    0.7466    7.7841 H   0  0  0  0  0  0  0  0  0  0  0  0
   62.5377    1.1270    5.3293 H   0  0  0  0  0  0  0  0  0  0  0  0
   66.2410   -0.4720    4.4810 H   0  0  0  0  0  0  0  0  0  0  0  0
   68.0950   -0.1502    2.5707 H   0  0  0  0  0  0  0  0  0  0  0  0
   40.0596   -0.0255   -0.0647 C   0  0  0  0  0  0  0  0  0  0  0  0
   38.8320   -0.0154   -0.0626 C   0  0  0  0  0  0  0  0  0  0  0  0
   37.4866   -0.0061   -0.0562 C   0  0  0  0  0  0  0  0  0  0  0  0
   36.2635    0.0041   -0.0475 C   0  0  0  0  0  0  0  0  0  0  0  0
   41.4049   -0.0318   -0.0632 C   0  0  0  0  0  0  0  0  0  0  0  0
   42.6283   -0.0361   -0.0569 C   0  0  0  0  0  0  0  0  0  0  0  0
   56.1142   -0.0686    0.0342 C   0  0  0  0  0  0  0  0  0  0  0  0
   54.8865   -0.0745    0.0268 C   0  0  0  0  0  0  0  0  0  0  0  0
   53.5412   -0.0770    0.0195 C   0  0  0  0  0  0  0  0  0  0  0  0
   52.3179   -0.0780    0.0104 C   0  0  0  0  0  0  0  0  0  0  0  0
   57.4596   -0.0603    0.0335 C   0  0  0  0  0  0  0  0  0  0  0  0
   58.6828   -0.0461    0.0310 C   0  0  0  0  0  0  0  0  0  0  0  0
   47.4734   -0.0545   -0.0291 Zn  0  0  0  0  0  0  0  0  0  0  0  0
   44.0347   -0.0413   -0.0500 C   0  0  0  0  0  0  0  0  0  0  0  0
   44.6776    1.0359    0.5906 C   0  0  0  0  0  0  0  0  0  0  0  0
   43.9998    2.1114    1.2527 C   0  0  0  0  0  0  0  0  0  0  0  0
   44.9555    2.9490    1.7295 C   0  0  0  0  0  0  0  0  0  0  0  0
   46.2273    2.3956    1.3548 C   0  0  0  0  0  0  0  0  0  0  0  0
   46.0218    1.2275    0.6722 N   0  0  0  0  0  0  0  0  0  0  0  0
   47.4742    2.9502    1.6635 C   0  0  0  0  0  0  0  0  0  0  0  0
   47.4741    4.2450    2.3889 C   0  0  0  0  0  0  0  0  0  0  0  0
   48.0338    4.3380    3.6655 C   0  0  0  0  0  0  0  0  0  0  0  0
   48.0359    5.5439    4.3472 C   0  0  0  0  0  0  0  0  0  0  0  0
   47.4758    6.6539    3.7361 C   0  0  0  0  0  0  0  0  0  0  0  0
   47.4874    8.1869    4.5868 S   0  0  0  0  0  0  0  0  0  0  0  0
   47.4258    9.2873    3.6690 O   0  0  0  0  0  0  0  0  0  0  0  0
   46.0377    8.0755    5.3113 O   0  0  0  0  0  0  0  0  0  0  0  0
   48.5049    8.1906    5.5950 O   0  0  0  0  0  0  0  0  0  0  0  0
   46.9182    6.5948    2.4690 C   0  0  0  0  0  0  0  0  0  0  0  0
   46.9176    5.3827    1.7988 C   0  0  0  0  0  0  0  0  0  0  0  0
   48.7208    2.3967    1.3515 C   0  0  0  0  0  0  0  0  0  0  0  0
   49.9932    3.0020    1.6322 C   0  0  0  0  0  0  0  0  0  0  0  0
   50.9483    2.1567    1.1678 C   0  0  0  0  0  0  0  0  0  0  0  0
   48.9253    1.2059    0.7091 N   0  0  0  0  0  0  0  0  0  0  0  0
   50.2695    1.0337    0.5912 C   0  0  0  0  0  0  0  0  0  0  0  0
   50.9114   -0.0715   -0.0011 C   0  0  0  0  0  0  0  0  0  0  0  0
   50.2680   -1.1696   -0.6047 C   0  0  0  0  0  0  0  0  0  0  0  0
   50.9450   -2.2984   -1.1720 C   0  0  0  0  0  0  0  0  0  0  0  0
   49.9894   -3.1324   -1.6554 C   0  0  0  0  0  0  0  0  0  0  0  0
   48.7186   -2.5147   -1.3953 C   0  0  0  0  0  0  0  0  0  0  0  0
   48.9243   -1.3277   -0.7461 N   0  0  0  0  0  0  0  0  0  0  0  0
   47.4718   -3.0552   -1.7292 C   0  0  0  0  0  0  0  0  0  0  0  0
   47.4715   -4.3460   -2.4612 C   0  0  0  0  0  0  0  0  0  0  0  0
   48.0566   -4.4390   -3.7266 C   0  0  0  0  0  0  0  0  0  0  0  0
   48.0589   -5.6411   -4.4148 C   0  0  0  0  0  0  0  0  0  0  0  0
   47.4727   -6.7476   -3.8219 C   0  0  0  0  0  0  0  0  0  0  0  0
   47.4834   -8.2761   -4.6804 S   0  0  0  0  0  0  0  0  0  0  0  0
   47.3871   -9.3800   -3.7699 O   0  0  0  0  0  0  0  0  0  0  0  0
   46.0516   -8.1403   -5.4363 O   0  0  0  0  0  0  0  0  0  0  0  0
   48.5225   -8.2893   -5.6663 O   0  0  0  0  0  0  0  0  0  0  0  0
   46.8895   -6.6886   -2.5664 C   0  0  0  0  0  0  0  0  0  0  0  0
   46.8896   -5.4804   -1.8893 C   0  0  0  0  0  0  0  0  0  0  0  0
   46.2253   -2.4913   -1.4355 C   0  0  0  0  0  0  0  0  0  0  0  0
   44.9538   -3.0336   -1.8271 C   0  0  0  0  0  0  0  0  0  0  0  0
   43.9988   -2.1909   -1.3577 C   0  0  0  0  0  0  0  0  0  0  0  0
   44.6770   -1.1225   -0.6846 C   0  0  0  0  0  0  0  0  0  0  0  0
   46.0206   -1.3238   -0.7515 N   0  0  0  0  0  0  0  0  0  0  0  0
   42.9292    2.2036    1.3430 H   0  0  0  0  0  0  0  0  0  0  0  0
   44.8136    3.8553    2.2959 H   0  0  0  0  0  0  0  0  0  0  0  0
   48.4576    3.4551    4.1298 H   0  0  0  0  0  0  0  0  0  0  0  0
   48.4673    5.6269    5.3368 H   0  0  0  0  0  0  0  0  0  0  0  0
   45.7496    8.9455    5.6131 H   0  0  0  0  0  0  0  0  0  0  0  0
   46.5003    7.4851    2.0161 H   0  0  0  0  0  0  0  0  0  0  0  0
   46.4975    5.3175    0.8019 H   0  0  0  0  0  0  0  0  0  0  0  0
   50.1363    3.9571    2.1113 H   0  0  0  0  0  0  0  0  0  0  0  0
   52.0190    2.2797    1.2022 H   0  0  0  0  0  0  0  0  0  0  0  0
   52.0148   -2.4325   -1.1878 H   0  0  0  0  0  0  0  0  0  0  0  0
   50.1310   -4.0878   -2.1342 H   0  0  0  0  0  0  0  0  0  0  0  0
   48.5002   -3.5588   -4.1771 H   0  0  0  0  0  0  0  0  0  0  0  0
   48.5101   -5.7240   -5.3955 H   0  0  0  0  0  0  0  0  0  0  0  0
   45.7695   -9.0006   -5.7699 H   0  0  0  0  0  0  0  0  0  0  0  0
   46.4514   -7.5762   -2.1274 H   0  0  0  0  0  0  0  0  0  0  0  0
   46.4501   -5.4159   -0.9007 H   0  0  0  0  0  0  0  0  0  0  0  0
   44.8112   -3.9365   -2.3987 H   0  0  0  0  0  0  0  0  0  0  0  0
   42.9287   -2.2751   -1.4602 H   0  0  0  0  0  0  0  0  0  0  0  0
  2  3  4  0  0  0  0
  3  4  1  0  0  0  0
  4  5  2  0  0  0  0
  5  6  4  0  0  0  0
  1  7  1  0  0  0  0
  3  7  4  0  0  0  0
  6  7  4  0  0  0  0
  6  8  4  0  0  0  0
  8  9  1  0  0  0  0
  9 10  4  0  0  0  0
 10 11  4  0  0  0  0
 11 12  4  0  0  0  0
 12 13  1  0  0  0  0
 13 14  2  0  0  0  0
 13 15  1  0  0  0  0
 13 16  2  0  0  0  0
 12 17  4  0  0  0  0
  9 18  4  0  0  0  0
 17 18  4  0  0  0  0
  8 19  4  0  0  0  0
 19 20  4  0  0  0  0
 20 21  2  0  0  0  0
  1 22  1  0  0  0  0
 19 22  4  0  0  0  0
 21 23  4  0  0  0  0
 22 23  4  0  0  0  0
 23 24  4  0  0  0  0
 24 25  4  0  0  0  0
 25 26  4  0  0  0  0
 26 27  2  0  0  0  0
 27 28  4  0  0  0  0
  1 29  1  0  0  0  0
 25 29  4  0  0  0  0
 28 29  4  0  0  0  0
 28 30  4  0  0  0  0
 30 31  1  0  0  0  0
 31 32  4  0  0  0  0
 32 33  4  0  0  0  0
 33 34  4  0  0  0  0
 34 35  1  0  0  0  0
 35 36  2  0  0  0  0
 35 37  1  0  0  0  0
 35 38  2  0  0  0  0
 34 39  4  0  0  0  0
 31 40  4  0  0  0  0
 39 40  4  0  0  0  0
 30 41  4  0  0  0  0
 41 42  4  0  0  0  0
 42 43  2  0  0  0  0
  2 44  4  0  0  0  0
 43 44  1  0  0  0  0
  1 45  1  0  0  0  0
 41 45  4  0  0  0  0
 44 45  4  0  0  0  0
  2 46  1  0  0  0  0
  4 47  1  0  0  0  0
  5 48  1  0  0  0  0
 10 49  1  0  0  0  0
 11 50  1  0  0  0  0
 15 51  1  0  0  0  0
 17 52  1  0  0  0  0
 18 53  1  0  0  0  0
 20 54  1  0  0  0  0
 21 55  1  0  0  0  0
 26 56  1  0  0  0  0
 27 57  1  0  0  0  0
 32 58  1  0  0  0  0
 33 59  1  0  0  0  0
 37 60  1  0  0  0  0
 39 61  1  0  0  0  0
 40 62  1  0  0  0  0
 42 63  1  0  0  0  0
 43 64  1  0  0  0  0
 66 67  4  0  0  0  0
 67 68  1  0  0  0  0
 68 69  2  0  0  0  0
 69 70  4  0  0  0  0
 65 71  1  0  0  0  0
 67 71  4  0  0  0  0
 70 71  4  0  0  0  0
 70 72  4  0  0  0  0
 72 73  1  0  0  0  0
 73 74  4  0  0  0  0
 74 75  4  0  0  0  0
 75 76  4  0  0  0  0
 76 77  1  0  0  0  0
 77 78  2  0  0  0  0
 77 79  1  0  0  0  0
 77 80  2  0  0  0  0
 76 81  4  0  0  0  0
 73 82  4  0  0  0  0
 81 82  4  0  0  0  0
 72 83  4  0  0  0  0
 83 84  4  0  0  0  0
 84 85  2  0  0  0  0
 65 86  1  0  0  0  0
 83 86  4  0  0  0  0
 85 87  4  0  0  0  0
 86 87  4  0  0  0  0
 87 88  4  0  0  0  0
 88 89  4  0  0  0  0
 89 90  4  0  0  0  0
 90 91  2  0  0  0  0
 91 92  4  0  0  0  0
 65 93  1  0  0  0  0
 89 93  4  0  0  0  0
 92 93  4  0  0  0  0
 92 94  4  0  0  0  0
 94 95  1  0  0  0  0
 95 96  4  0  0  0  0
 96 97  4  0  0  0  0
 97 98  4  0  0  0  0
 98 99  1  0  0  0  0
 99100  2  0  0  0  0
 99101  1  0  0  0  0
 99102  2  0  0  0  0
 98103  4  0  0  0  0
 95104  4  0  0  0  0
103104  4  0  0  0  0
 94105  4  0  0  0  0
105106  4  0  0  0  0
106107  2  0  0  0  0
 66108  4  0  0  0  0
107108  1  0  0  0  0
 65109  1  0  0  0  0
105109  4  0  0  0  0
108109  4  0  0  0  0
 66110  1  0  0  0  0
 68111  1  0  0  0  0
 69112  1  0  0  0  0
 74113  1  0  0  0  0
 75114  1  0  0  0  0
 79115  1  0  0  0  0
 81116  1  0  0  0  0
 82117  1  0  0  0  0
 84118  1  0  0  0  0
 85119  1  0  0  0  0
 90120  1  0  0  0  0
 91121  1  0  0  0  0
 96122  1  0  0  0  0
 97123  1  0  0  0  0
101124  1  0  0  0  0
103125  1  0  0  0  0
104126  1  0  0  0  0
106127  1  0  0  0  0
107128  1  0  0  0  0
129130  3  0  0  0  0
130131  4  0  0  0  0
 24132  4  0  0  0  0
131132  3  0  0  0  0
129133  4  0  0  0  0
133134  3  0  0  0  0
135136  3  0  0  0  0
136137  4  0  0  0  0
137138  3  0  0  0  0
135139  4  0  0  0  0
 88140  4  0  0  0  0
139140  3  0  0  0  0
134142  4  0  0  0  0
142143  4  0  0  0  0
143144  4  0  0  0  0
144145  2  0  0  0  0
145146  4  0  0  0  0
141147  1  0  0  0  0
143147  4  0  0  0  0
146147  4  0  0  0  0
146148  4  0  0  0  0
148149  1  0  0  0  0
149150  4  0  0  0  0
150151  4  0  0  0  0
151152  4  0  0  0  0
152153  1  0  0  0  0
153154  2  0  0  0  0
153155  1  0  0  0  0
153156  2  0  0  0  0
152157  4  0  0  0  0
149158  4  0  0  0  0
157158  4  0  0  0  0
148159  4  0  0  0  0
159160  4  0  0  0  0
160161  2  0  0  0  0
141162  1  0  0  0  0
159162  4  0  0  0  0
161163  4  0  0  0  0
162163  4  0  0  0  0
138164  4  0  0  0  0
163164  4  0  0  0  0
164165  4  0  0  0  0
165166  4  0  0  0  0
166167  2  0  0  0  0
167168  4  0  0  0  0
141169  1  0  0  0  0
165169  4  0  0  0  0
168169  4  0  0  0  0
168170  4  0  0  0  0
170171  1  0  0  0  0
171172  4  0  0  0  0
172173  4  0  0  0  0
173174  4  0  0  0  0
174175  1  0  0  0  0
175176  2  0  0  0  0
175177  1  0  0  0  0
175178  2  0  0  0  0
174179  4  0  0  0  0
171180  4  0  0  0  0
179180  4  0  0  0  0
170181  4  0  0  0  0
181182  4  0  0  0  0
182183  2  0  0  0  0
142184  4  0  0  0  0
183184  4  0  0  0  0
141185  1  0  0  0  0
181185  4  0  0  0  0
184185  4  0  0  0  0
144186  1  0  0  0  0
145187  1  0  0  0  0
150188  1  0  0  0  0
151189  1  0  0  0  0
155190  1  0  0  0  0
157191  1  0  0  0  0
158192  1  0  0  0  0
160193  1  0  0  0  0
161194  1  0  0  0  0
166195  1  0  0  0  0
167196  1  0  0  0  0
172197  1  0  0  0  0
173198  1  0  0  0  0
177199  1  0  0  0  0
179200  1  0  0  0  0
180201  1  0  0  0  0
182202  1  0  0  0  0
183203  1  0  0  0  0
M  END
