656

C 127.299843 0.049849 0.004663
C 128.024697 -1.004085 0.895947
C 127.409246 -1.991262 1.632031
C 128.430674 -2.695400 2.319825
C 129.636350 -2.107948 1.986377
N 129.379371 -1.104434 1.086493
C 131.064404 -2.493309 2.556645
C 131.113905 -3.440597 3.695400
C 131.363292 -4.798995 3.477058
C 131.415899 -5.689587 4.553494
C 131.261346 -5.229284 5.863985
N 131.222688 -6.140503 6.934053
C 130.937760 -3.884752 6.072844
C 130.886389 -2.990434 4.999319
C 132.193054 -1.936288 2.039006
C 133.502349 -2.216669 2.591747
C 134.403875 -1.520310 1.909589
N 132.386092 -1.058664 1.003637
C 133.720258 -0.768772 0.875426
C 134.390163 0.036188 0.007590
C 133.615631 0.816221 -1.138952
C 134.170012 1.309382 -2.303819
C 133.144957 1.976830 -3.017982
C 131.988258 1.860879 -2.277869
N 132.274494 1.115356 -1.157878
C 130.571209 2.463723 -2.657531
C 130.521427 3.545486 -3.665833
C 130.301611 3.245577 -5.013929
C 130.252539 4.268046 -5.965775
C 130.375677 5.605172 -5.578426
N 130.415480 6.621316 -6.549360
C 130.665665 5.896058 -4.241599
C 130.717492 4.876066 -3.286257
C 129.449040 1.988752 -2.056887
C 128.123770 2.501212 -2.357743
C 127.240192 1.830460 -1.624960
C 127.965418 0.871227 -0.828796
N 129.287878 1.011641 -1.114020
H 126.220841 0.115526 0.073926
H 126.346585 -2.175413 1.679248
H 128.298654 -3.524333 3.000011
H 130.083140 -0.526549 0.633534
H 131.511119 -5.152123 2.459800
H 131.589591 -6.741476 4.351826
H 131.451162 -5.698065 7.818607
H 131.788387 -6.964022 6.754387
H 130.731600 -3.511551 7.070782
H 130.661890 -1.938823 5.165557
H 133.718411 -2.864943 3.421819
H 135.460074 -1.533607 2.105864
H 135.201474 1.213246 -2.605672
H 133.241336 2.487323 -3.964225
H 131.585772 0.798640 -0.480347
H 130.176077 2.207076 -5.310801
H 130.108242 4.003426 -7.007725
H 129.868273 6.384754 -7.369752
H 130.164742 7.525315 -6.163268
H 130.845304 6.917734 -3.922881
H 130.915594 5.105587 -2.241459
H 127.892132 3.287661 -3.053053
H 126.175174 1.973943 -1.620725
C 278.069799 0.036468 0.021557
C 277.344944 0.662646 -1.208510
C 277.960396 1.153042 -2.338045
C 276.938968 1.661262 -3.181005
C 275.733292 1.471238 -2.532794
N 275.990271 0.825141 -1.349836
C 274.305238 1.938076 -3.038533
C 274.255737 2.829573 -4.221474
C 274.006350 2.305887 -5.493744
C 273.953743 3.149709 -6.607222
C 274.108296 4.530794 -6.459333
N 274.146954 5.363692 -7.591431
C 274.431882 5.042072 -5.198388
C 274.483253 4.201938 -4.081949
C 273.176588 1.561788 -2.377753
C 271.867293 2.035611 -2.777287
C 270.965767 1.531094 -1.943191
N 272.983550 0.754971 -1.286304
C 271.649384 0.696571 -0.974752
C 270.979479 0.036188 0.007590
C 271.754011 -0.901199 1.029506
C 271.199630 -1.922135 1.776375
C 272.224685 -2.464428 2.589661
C 273.381384 -1.770551 2.307266
N 273.095148 -0.851104 1.325024
C 274.798433 -2.002035 2.981046
C 274.848215 -2.735745 4.265006
C 275.068031 -4.116695 4.281860
C 275.117103 -4.809032 5.495170
C 274.993965 -4.125705 6.708022
N 274.954161 -4.838071 7.919549
C 274.703977 -2.757790 6.684966
C 274.652150 -2.061484 5.473266
C 275.920602 -1.526155 2.381122
C 277.245872 -1.701630 2.948870
C 278.129450 -1.141969 2.128103
C 277.404224 -0.586690 1.012007
N 276.081764 -0.832168 1.214020
H 279.148801 0.118934 0.069623
H 279.023057 1.156822 -2.528116
H 277.070988 2.133492 -4.143701
H 275.286502 0.516592 -0.683563
H 273.858523 1.234789 -5.604474
H 273.780051 2.712461 -7.584951
H 273.918480 6.326071 -7.363368
H 273.581255 5.000170 -8.351902
H 274.638042 6.098963 -5.063693
H 274.707752 4.604634 -3.096375
H 271.651231 2.695123 -3.598460
H 269.909568 1.719105 -2.001091
H 270.168168 -2.237983 1.751936
H 272.128306 -3.268582 3.303325
H 273.783870 -0.264132 0.861535
H 275.193565 -4.643549 3.338969
H 275.261400 -5.883893 5.476251
H 275.501369 -5.690837 7.877192
H 275.204900 -4.255177 8.711077
H 274.524337 -2.213525 7.606475
H 274.454048 -0.991889 5.457368
H 277.477510 -2.198313 3.873675
H 279.194468 -1.104981 2.266801
C 140.469202 0.037291 0.016080
C 139.260263 0.023836 0.007632
C 137.838734 0.032655 -0.004351
C 136.627064 0.040094 0.006512
C 141.885806 0.030616 0.016613
C 143.106502 0.040094 0.006512
C 156.174068 0.037291 0.016080
C 154.965128 0.023836 0.007632
C 153.543599 0.032655 -0.004351
C 152.331930 0.040094 0.006512
C 157.590672 0.030616 0.016613
C 158.811368 0.040094 0.006512
C 171.878933 0.037291 0.016080
C 170.669994 0.023836 0.007632
C 169.248465 0.032655 -0.004351
C 168.036796 0.040094 0.006512
C 173.295538 0.030616 0.016613
C 174.516234 0.040094 0.006512
C 187.583799 0.037291 0.016080
C 186.374860 0.023836 0.007632
C 184.953331 0.032655 -0.004351
C 183.741661 0.040094 0.006512
C 189.000403 0.030616 0.016613
C 190.221099 0.040094 0.006512
C 203.288665 0.037291 0.016080
C 202.079726 0.023836 0.007632
C 200.658197 0.032655 -0.004351
C 199.446527 0.040094 0.006512
C 204.705269 0.030616 0.016613
C 205.925965 0.040094 0.006512
C 218.993531 0.037291 0.016080
C 217.784591 0.023836 0.007632
C 216.363062 0.032655 -0.004351
C 215.151393 0.040094 0.006512
C 220.410135 0.030616 0.016613
C 221.630831 0.040094 0.006512
C 234.698396 0.037291 0.016080
C 233.489457 0.023836 0.007632
C 232.067928 0.032655 -0.004351
C 230.856258 0.040094 0.006512
C 236.115001 0.030616 0.016613
C 237.335696 0.040094 0.006512
C 250.403262 0.037291 0.016080
C 249.194323 0.023836 0.007632
C 247.772794 0.032655 -0.004351
C 246.561124 0.040094 0.006512
C 251.819866 0.030616 0.016613
C 253.040562 0.040094 0.006512
C 266.108128 0.037291 0.016080
C 264.899188 0.023836 0.007632
C 263.477659 0.032655 -0.004351
C 262.265990 0.040094 0.006512
C 267.524732 0.030616 0.016613
C 268.745428 0.040094 0.006512
C 144.141557 -0.013708 -0.002662
C 144.934202 -0.599867 1.237969
C 144.425709 -1.410300 2.232800
C 145.462323 -1.622813 3.177373
C 146.573343 -0.941937 2.725904
N 146.263495 -0.386787 1.509546
C 147.963068 -0.810772 3.473685
C 147.957209 -0.903426 4.952361
C 148.416777 -2.057304 5.596130
C 148.408100 -2.139386 6.991864
C 147.978487 -1.056737 7.764366
N 147.884977 -1.177707 9.161704
C 147.449000 0.063905 7.118056
C 147.457259 0.150629 5.722348
C 149.097795 -0.573480 2.763670
C 150.384767 -0.384280 3.401035
C 151.292443 -0.165336 2.455870
N 149.305760 -0.445426 1.418007
C 150.630135 -0.203577 1.167583
C 151.294241 -0.013708 -0.002662
C 150.501583 -0.063350 -1.373858
C 151.009889 -0.416498 -2.607538
C 149.973294 -0.239317 -3.559399
C 148.862470 0.209031 -2.876136
N 149.172422 0.240012 -1.539474
C 147.472776 0.624424 -3.511588
C 147.478458 1.121744 -4.907174
C 147.976081 2.394813 -5.199543
C 147.983941 2.864823 -6.516593
C 147.456410 2.088263 -7.552262
N 147.549677 2.527557 -8.884276
C 147.029150 0.788055 -7.268765
C 147.020791 0.313814 -5.953523
C 146.338074 0.562675 -2.765499
C 145.051083 0.987585 -3.276794
C 144.143384 0.816161 -2.321889
C 144.805695 0.273308 -1.152922
N 146.130123 0.150019 -1.478286
H 143.416245 -1.788439 2.287857
H 145.399996 -2.189975 4.094097
H 146.925478 0.071541 0.890012
H 148.777318 -2.889977 4.996163
H 148.749667 -3.055382 7.462277
H 148.577402 -1.817484 9.536193
H 147.899406 -0.274644 9.623813
H 147.031566 0.887334 7.688083
H 147.068085 1.035001 5.222844
H 150.580207 -0.404598 4.458180
H 152.336682 0.012404 2.636920
H 152.019223 -0.742798 -2.807142
H 150.035474 -0.399551 -4.625410
H 148.510525 0.417429 -0.789454
H 148.363676 3.011718 -4.391902
H 148.399535 3.847004 -6.716096
H 146.858567 2.085376 -9.480846
H 147.533041 3.539595 -8.953448
H 146.689152 0.130700 -8.062044
H 146.662005 -0.688503 -5.730111
H 144.855669 1.385467 -4.256432
H 143.099112 1.050652 -2.418325
C 159.846423 -0.013708 -0.002662
C 160.639068 -0.599867 1.237969
C 160.130575 -1.410300 2.232800
C 161.167189 -1.622813 3.177373
C 162.278208 -0.941937 2.725904
N 161.968361 -0.386787 1.509546
C 163.667934 -0.810772 3.473685
C 163.662075 -0.903426 4.952361
C 164.121643 -2.057304 5.596130
C 164.112966 -2.139386 6.991864
C 163.683352 -1.056737 7.764366
N 163.589843 -1.177707 9.161704
C 163.153866 0.063905 7.118056
C 163.162125 0.150629 5.722348
C 164.802661 -0.573480 2.763670
C 166.089633 -0.384280 3.401035
C 166.997308 -0.165336 2.455870
N 165.010626 -0.445426 1.418007
C 166.335001 -0.203577 1.167583
C 166.999107 -0.013708 -0.002662
C 166.206449 -0.063350 -1.373858
C 166.714755 -0.416498 -2.607538
C 165.678160 -0.239317 -3.559399
C 164.567336 0.209031 -2.876136
N 164.877287 0.240012 -1.539474
C 163.177642 0.624424 -3.511588
C 163.183323 1.121744 -4.907174
C 163.680947 2.394813 -5.199543
C 163.688807 2.864823 -6.516593
C 163.161276 2.088263 -7.552262
N 163.254543 2.527557 -8.884276
C 162.734015 0.788055 -7.268765
C 162.725656 0.313814 -5.953523
C 162.042939 0.562675 -2.765499
C 160.755949 0.987585 -3.276794
C 159.848250 0.816161 -2.321889
C 160.510561 0.273308 -1.152922
N 161.834989 0.150019 -1.478286
H 159.121111 -1.788439 2.287857
H 161.104862 -2.189975 4.094097
H 162.630344 0.071541 0.890012
H 164.482183 -2.889977 4.996163
H 164.454532 -3.055382 7.462277
H 164.282267 -1.817484 9.536193
H 163.604272 -0.274644 9.623813
H 162.736432 0.887334 7.688083
H 162.772951 1.035001 5.222844
H 166.285072 -0.404598 4.458180
H 168.041548 0.012404 2.636920
H 167.724089 -0.742798 -2.807142
H 165.740339 -0.399551 -4.625410
H 164.215391 0.417429 -0.789454
H 164.068541 3.011718 -4.391902
H 164.104400 3.847004 -6.716096
H 162.563433 2.085376 -9.480846
H 163.237907 3.539595 -8.953448
H 162.394017 0.130700 -8.062044
H 162.366870 -0.688503 -5.730111
H 160.560535 1.385467 -4.256432
H 158.803978 1.050652 -2.418325
C 175.551288 -0.013708 -0.002662
C 176.343933 -0.599867 1.237969
C 175.835441 -1.410300 2.232800
C 176.872055 -1.622813 3.177373
C 177.983074 -0.941937 2.725904
N 177.673227 -0.386787 1.509546
C 179.372799 -0.810772 3.473685
C 179.366941 -0.903426 4.952361
C 179.826508 -2.057304 5.596130
C 179.817832 -2.139386 6.991864
C 179.388218 -1.056737 7.764366
N 179.294709 -1.177707 9.161704
C 178.858732 0.063905 7.118056
C 178.866990 0.150629 5.722348
C 180.507527 -0.573480 2.763670
C 181.794498 -0.384280 3.401035
C 182.702174 -0.165336 2.455870
N 180.715492 -0.445426 1.418007
C 182.039867 -0.203577 1.167583
C 182.703973 -0.013708 -0.002662
C 181.911315 -0.063350 -1.373858
C 182.419620 -0.416498 -2.607538
C 181.383026 -0.239317 -3.559399
C 180.272202 0.209031 -2.876136
N 180.582153 0.240012 -1.539474
C 178.882508 0.624424 -3.511588
C 178.888189 1.121744 -4.907174
C 179.385813 2.394813 -5.199543
C 179.393673 2.864823 -6.516593
C 178.866142 2.088263 -7.552262
N 178.959409 2.527557 -8.884276
C 178.438881 0.788055 -7.268765
C 178.430522 0.313814 -5.953523
C 177.747805 0.562675 -2.765499
C 176.460815 0.987585 -3.276794
C 175.553116 0.816161 -2.321889
C 176.215427 0.273308 -1.152922
N 177.539855 0.150019 -1.478286
H 174.825976 -1.788439 2.287857
H 176.809728 -2.189975 4.094097
H 178.335209 0.071541 0.890012
H 180.187049 -2.889977 4.996163
H 180.159398 -3.055382 7.462277
H 179.987133 -1.817484 9.536193
H 179.309137 -0.274644 9.623813
H 178.441297 0.887334 7.688083
H 178.477816 1.035001 5.222844
H 181.989938 -0.404598 4.458180
H 183.746413 0.012404 2.636920
H 183.428954 -0.742798 -2.807142
H 181.445205 -0.399551 -4.625410
H 179.920256 0.417429 -0.789454
H 179.773407 3.011718 -4.391902
H 179.809266 3.847004 -6.716096
H 178.268298 2.085376 -9.480846
H 178.942773 3.539595 -8.953448
H 178.098883 0.130700 -8.062044
H 178.071736 -0.688503 -5.730111
H 176.265401 1.385467 -4.256432
H 174.508844 1.050652 -2.418325
C 191.256154 -0.013708 -0.002662
C 192.048799 -0.599867 1.237969
C 191.540306 -1.410300 2.232800
C 192.576920 -1.622813 3.177373
C 193.687940 -0.941937 2.725904
N 193.378093 -0.386787 1.509546
C 195.077665 -0.810772 3.473685
C 195.071807 -0.903426 4.952361
C 195.531374 -2.057304 5.596130
C 195.522697 -2.139386 6.991864
C 195.093084 -1.056737 7.764366
N 194.999575 -1.177707 9.161704
C 194.563597 0.063905 7.118056
C 194.571856 0.150629 5.722348
C 196.212392 -0.573480 2.763670
C 197.499364 -0.384280 3.401035
C 198.407040 -0.165336 2.455870
N 196.420358 -0.445426 1.418007
C 197.744733 -0.203577 1.167583
C 198.408839 -0.013708 -0.002662
C 197.616181 -0.063350 -1.373858
C 198.124486 -0.416498 -2.607538
C 197.087891 -0.239317 -3.559399
C 195.977068 0.209031 -2.876136
N 196.287019 0.240012 -1.539474
C 194.587374 0.624424 -3.511588
C 194.593055 1.121744 -4.907174
C 195.090678 2.394813 -5.199543
C 195.098538 2.864823 -6.516593
C 194.571007 2.088263 -7.552262
N 194.664274 2.527557 -8.884276
C 194.143747 0.788055 -7.268765
C 194.135388 0.313814 -5.953523
C 193.452671 0.562675 -2.765499
C 192.165680 0.987585 -3.276794
C 191.257981 0.816161 -2.321889
C 191.920292 0.273308 -1.152922
N 193.244720 0.150019 -1.478286
H 190.530842 -1.788439 2.287857
H 192.514593 -2.189975 4.094097
H 194.040075 0.071541 0.890012
H 195.891915 -2.889977 4.996163
H 195.864264 -3.055382 7.462277
H 195.691999 -1.817484 9.536193
H 195.014003 -0.274644 9.623813
H 194.146163 0.887334 7.688083
H 194.182682 1.035001 5.222844
H 197.694804 -0.404598 4.458180
H 199.451279 0.012404 2.636920
H 199.133820 -0.742798 -2.807142
H 197.150071 -0.399551 -4.625410
H 195.625122 0.417429 -0.789454
H 195.478273 3.011718 -4.391902
H 195.514132 3.847004 -6.716096
H 193.973164 2.085376 -9.480846
H 194.647638 3.539595 -8.953448
H 193.803749 0.130700 -8.062044
H 193.776602 -0.688503 -5.730111
H 191.970266 1.385467 -4.256432
H 190.213709 1.050652 -2.418325
C 206.961020 -0.013708 -0.002662
C 207.753665 -0.599867 1.237969
C 207.245172 -1.410300 2.232800
C 208.281786 -1.622813 3.177373
C 209.392805 -0.941937 2.725904
N 209.082958 -0.386787 1.509546
C 210.782531 -0.810772 3.473685
C 210.776672 -0.903426 4.952361
C 211.236240 -2.057304 5.596130
C 211.227563 -2.139386 6.991864
C 210.797949 -1.056737 7.764366
N 210.704440 -1.177707 9.161704
C 210.268463 0.063905 7.118056
C 210.276722 0.150629 5.722348
C 211.917258 -0.573480 2.763670
C 213.204230 -0.384280 3.401035
C 214.111906 -0.165336 2.455870
N 212.125223 -0.445426 1.418007
C 213.449598 -0.203577 1.167583
C 214.113704 -0.013708 -0.002662
C 213.321046 -0.063350 -1.373858
C 213.829352 -0.416498 -2.607538
C 212.792757 -0.239317 -3.559399
C 211.681933 0.209031 -2.876136
N 211.991885 0.240012 -1.539474
C 210.292239 0.624424 -3.511588
C 210.297920 1.121744 -4.907174
C 210.795544 2.394813 -5.199543
C 210.803404 2.864823 -6.516593
C 210.275873 2.088263 -7.552262
N 210.369140 2.527557 -8.884276
C 209.848613 0.788055 -7.268765
C 209.840254 0.313814 -5.953523
C 209.157536 0.562675 -2.765499
C 207.870546 0.987585 -3.276794
C 206.962847 0.816161 -2.321889
C 207.625158 0.273308 -1.152922
N 208.949586 0.150019 -1.478286
H 206.235708 -1.788439 2.287857
H 208.219459 -2.189975 4.094097
H 209.744941 0.071541 0.890012
H 211.596781 -2.889977 4.996163
H 211.569130 -3.055382 7.462277
H 211.396864 -1.817484 9.536193
H 210.718869 -0.274644 9.623813
H 209.851029 0.887334 7.688083
H 209.887548 1.035001 5.222844
H 213.399670 -0.404598 4.458180
H 215.156145 0.012404 2.636920
H 214.838686 -0.742798 -2.807142
H 212.854936 -0.399551 -4.625410
H 211.329988 0.417429 -0.789454
H 211.183139 3.011718 -4.391902
H 211.218998 3.847004 -6.716096
H 209.678030 2.085376 -9.480846
H 210.352504 3.539595 -8.953448
H 209.508614 0.130700 -8.062044
H 209.481467 -0.688503 -5.730111
H 207.675132 1.385467 -4.256432
H 205.918575 1.050652 -2.418325
C 222.665886 -0.013708 -0.002662
C 223.458531 -0.599867 1.237969
C 222.950038 -1.410300 2.232800
C 223.986652 -1.622813 3.177373
C 225.097671 -0.941937 2.725904
N 224.787824 -0.386787 1.509546
C 226.487397 -0.810772 3.473685
C 226.481538 -0.903426 4.952361
C 226.941105 -2.057304 5.596130
C 226.932429 -2.139386 6.991864
C 226.502815 -1.056737 7.764366
N 226.409306 -1.177707 9.161704
C 225.973329 0.063905 7.118056
C 225.981587 0.150629 5.722348
C 227.622124 -0.573480 2.763670
C 228.909096 -0.384280 3.401035
C 229.816771 -0.165336 2.455870
N 227.830089 -0.445426 1.418007
C 229.154464 -0.203577 1.167583
C 229.818570 -0.013708 -0.002662
C 229.025912 -0.063350 -1.373858
C 229.534218 -0.416498 -2.607538
C 228.497623 -0.239317 -3.559399
C 227.386799 0.209031 -2.876136
N 227.696750 0.240012 -1.539474
C 225.997105 0.624424 -3.511588
C 226.002786 1.121744 -4.907174
C 226.500410 2.394813 -5.199543
C 226.508270 2.864823 -6.516593
C 225.980739 2.088263 -7.552262
N 226.074006 2.527557 -8.884276
C 225.553478 0.788055 -7.268765
C 225.545119 0.313814 -5.953523
C 224.862402 0.562675 -2.765499
C 223.575412 0.987585 -3.276794
C 222.667713 0.816161 -2.321889
C 223.330024 0.273308 -1.152922
N 224.654452 0.150019 -1.478286
H 221.940574 -1.788439 2.287857
H 223.924325 -2.189975 4.094097
H 225.449806 0.071541 0.890012
H 227.301646 -2.889977 4.996163
H 227.273995 -3.055382 7.462277
H 227.101730 -1.817484 9.536193
H 226.423735 -0.274644 9.623813
H 225.555895 0.887334 7.688083
H 225.592414 1.035001 5.222844
H 229.104535 -0.404598 4.458180
H 230.861011 0.012404 2.636920
H 230.543552 -0.742798 -2.807142
H 228.559802 -0.399551 -4.625410
H 227.034853 0.417429 -0.789454
H 226.888004 3.011718 -4.391902
H 226.923863 3.847004 -6.716096
H 225.382896 2.085376 -9.480846
H 226.057370 3.539595 -8.953448
H 225.213480 0.130700 -8.062044
H 225.186333 -0.688503 -5.730111
H 223.379998 1.385467 -4.256432
H 221.623441 1.050652 -2.418325
C 238.370751 -0.013708 -0.002662
C 239.163396 -0.599867 1.237969
C 238.654904 -1.410300 2.232800
C 239.691518 -1.622813 3.177373
C 240.802537 -0.941937 2.725904
N 240.492690 -0.386787 1.509546
C 242.192262 -0.810772 3.473685
C 242.186404 -0.903426 4.952361
C 242.645971 -2.057304 5.596130
C 242.637295 -2.139386 6.991864
C 242.207681 -1.056737 7.764366
N 242.114172 -1.177707 9.161704
C 241.678194 0.063905 7.118056
C 241.686453 0.150629 5.722348
C 243.326989 -0.573480 2.763670
C 244.613961 -0.384280 3.401035
C 245.521637 -0.165336 2.455870
N 243.534955 -0.445426 1.418007
C 244.859330 -0.203577 1.167583
C 245.523436 -0.013708 -0.002662
C 244.730778 -0.063350 -1.373858
C 245.239083 -0.416498 -2.607538
C 244.202489 -0.239317 -3.559399
C 243.091665 0.209031 -2.876136
N 243.401616 0.240012 -1.539474
C 241.701971 0.624424 -3.511588
C 241.707652 1.121744 -4.907174
C 242.205276 2.394813 -5.199543
C 242.213136 2.864823 -6.516593
C 241.685605 2.088263 -7.552262
N 241.778872 2.527557 -8.884276
C 241.258344 0.788055 -7.268765
C 241.249985 0.313814 -5.953523
C 240.567268 0.562675 -2.765499
C 239.280277 0.987585 -3.276794
C 238.372579 0.816161 -2.321889
C 239.034890 0.273308 -1.152922
N 240.359318 0.150019 -1.478286
H 237.645439 -1.788439 2.287857
H 239.629190 -2.189975 4.094097
H 241.154672 0.071541 0.890012
H 243.006512 -2.889977 4.996163
H 242.978861 -3.055382 7.462277
H 242.806596 -1.817484 9.536193
H 242.128600 -0.274644 9.623813
H 241.260760 0.887334 7.688083
H 241.297279 1.035001 5.222844
H 244.809401 -0.404598 4.458180
H 246.565876 0.012404 2.636920
H 246.248417 -0.742798 -2.807142
H 244.264668 -0.399551 -4.625410
H 242.739719 0.417429 -0.789454
H 242.592870 3.011718 -4.391902
H 242.628729 3.847004 -6.716096
H 241.087761 2.085376 -9.480846
H 241.762235 3.539595 -8.953448
H 240.918346 0.130700 -8.062044
H 240.891199 -0.688503 -5.730111
H 239.084864 1.385467 -4.256432
H 237.328306 1.050652 -2.418325
C 254.075617 -0.013708 -0.002662
C 254.868262 -0.599867 1.237969
C 254.359769 -1.410300 2.232800
C 255.396383 -1.622813 3.177373
C 256.507403 -0.941937 2.725904
N 256.197555 -0.386787 1.509546
C 257.897128 -0.810772 3.473685
C 257.891269 -0.903426 4.952361
C 258.350837 -2.057304 5.596130
C 258.342160 -2.139386 6.991864
C 257.912547 -1.056737 7.764366
N 257.819037 -1.177707 9.161704
C 257.383060 0.063905 7.118056
C 257.391319 0.150629 5.722348
C 259.031855 -0.573480 2.763670
C 260.318827 -0.384280 3.401035
C 261.226503 -0.165336 2.455870
N 259.239820 -0.445426 1.418007
C 260.564195 -0.203577 1.167583
C 261.228301 -0.013708 -0.002662
C 260.435643 -0.063350 -1.373858
C 260.943949 -0.416498 -2.607538
C 259.907354 -0.239317 -3.559399
C 258.796530 0.209031 -2.876136
N 259.106482 0.240012 -1.539474
C 257.406836 0.624424 -3.511588
C 257.412518 1.121744 -4.907174
C 257.910141 2.394813 -5.199543
C 257.918001 2.864823 -6.516593
C 257.390470 2.088263 -7.552262
N 257.483737 2.527557 -8.884276
C 256.963210 0.788055 -7.268765
C 256.954851 0.313814 -5.953523
C 256.272134 0.562675 -2.765499
C 254.985143 0.987585 -3.276794
C 254.077444 0.816161 -2.321889
C 254.739755 0.273308 -1.152922
N 256.064183 0.150019 -1.478286
H 253.350305 -1.788439 2.287857
H 255.334056 -2.189975 4.094097
H 256.859538 0.071541 0.890012
H 258.711378 -2.889977 4.996163
H 258.683727 -3.055382 7.462277
H 258.511462 -1.817484 9.536193
H 257.833466 -0.274644 9.623813
H 256.965626 0.887334 7.688083
H 257.002145 1.035001 5.222844
H 260.514267 -0.404598 4.458180
H 262.270742 0.012404 2.636920
H 261.953283 -0.742798 -2.807142
H 259.969534 -0.399551 -4.625410
H 258.444585 0.417429 -0.789454
H 258.297736 3.011718 -4.391902
H 258.333595 3.847004 -6.716096
H 256.792627 2.085376 -9.480846
H 257.467101 3.539595 -8.953448
H 256.623212 0.130700 -8.062044
H 256.596065 -0.688503 -5.730111
H 254.789729 1.385467 -4.256432
H 253.033172 1.050652 -2.418325
