 xtb: 6.5.1 (b24c23e)
          07292220043D

234273  0     0  0            999 V2000
   43.3303   -0.0034    0.0174 Fe  0  0  0  0  0  0  0  0  0  0  0  0
   39.9379   -0.0300    0.0249 C   0  0  0  0  0  0  0  0  0  0  0  0
   40.5900   -1.2349   -0.1362 C   0  0  0  0  0  0  0  0  0  0  0  0
   39.9109   -2.4862   -0.2882 C   0  0  0  0  0  0  0  0  0  0  0  0
   40.8679   -3.4419   -0.3452 C   0  0  0  0  0  0  0  0  0  0  0  0
   42.1310   -2.7712   -0.2334 C   0  0  0  0  0  0  0  0  0  0  0  0
   41.9475   -1.4200   -0.1175 N   0  0  0  0  0  0  0  0  0  0  0  0
   43.3532   -3.4314   -0.1668 C   0  0  0  0  0  0  0  0  0  0  0  0
   44.5630   -2.7692   -0.0229 C   0  0  0  0  0  0  0  0  0  0  0  0
   45.8320   -3.4325    0.0321 C   0  0  0  0  0  0  0  0  0  0  0  0
   46.7770   -2.4643    0.0931 C   0  0  0  0  0  0  0  0  0  0  0  0
   44.7361   -1.4051    0.0090 N   0  0  0  0  0  0  0  0  0  0  0  0
   46.0841   -1.2141    0.0650 C   0  0  0  0  0  0  0  0  0  0  0  0
   46.7429    0.0214    0.0290 C   0  0  0  0  0  0  0  0  0  0  0  0
   46.0661    1.2468   -0.0125 C   0  0  0  0  0  0  0  0  0  0  0  0
   46.7385    2.5064   -0.0837 C   0  0  0  0  0  0  0  0  0  0  0  0
   45.7782    3.4609   -0.0440 C   0  0  0  0  0  0  0  0  0  0  0  0
   44.5222    2.7795    0.0620 C   0  0  0  0  0  0  0  0  0  0  0  0
   43.3012    3.4263    0.1826 C   0  0  0  0  0  0  0  0  0  0  0  0
   43.2873    4.9077    0.2516 C   0  0  0  0  0  0  0  0  0  0  0  0
   42.6596    5.6554   -0.7453 C   0  0  0  0  0  0  0  0  0  0  0  0
   42.6520    7.0407   -0.6814 C   0  0  0  0  0  0  0  0  0  0  0  0
   43.2634    7.6941    0.3801 C   0  0  0  0  0  0  0  0  0  0  0  0
   43.8862    6.9564    1.3777 C   0  0  0  0  0  0  0  0  0  0  0  0
   43.9021    5.5712    1.3140 C   0  0  0  0  0  0  0  0  0  0  0  0
   42.0886    2.7475    0.2422 C   0  0  0  0  0  0  0  0  0  0  0  0
   40.8191    3.3935    0.4116 C   0  0  0  0  0  0  0  0  0  0  0  0
   39.8767    2.4227    0.3640 C   0  0  0  0  0  0  0  0  0  0  0  0
   40.5723    1.1855    0.1760 C   0  0  0  0  0  0  0  0  0  0  0  0
   41.9259    1.3937    0.1284 N   0  0  0  0  0  0  0  0  0  0  0  0
   44.7157    1.4180    0.0501 N   0  0  0  0  0  0  0  0  0  0  0  0
   43.3610   -4.9132   -0.2486 C   0  0  0  0  0  0  0  0  0  0  0  0
   42.9771   -5.5561   -1.4256 C   0  0  0  0  0  0  0  0  0  0  0  0
   42.9884   -6.9408   -1.5021 C   0  0  0  0  0  0  0  0  0  0  0  0
   43.3762   -7.6975   -0.4047 C   0  0  0  0  0  0  0  0  0  0  0  0
   43.7559   -7.0641    0.7707 C   0  0  0  0  0  0  0  0  0  0  0  0
   43.7518   -5.6794    0.8496 C   0  0  0  0  0  0  0  0  0  0  0  0
   38.8537   -0.0394    0.0360 H   0  0  0  0  0  0  0  0  0  0  0  0
   38.8392   -2.5991   -0.3329 H   0  0  0  0  0  0  0  0  0  0  0  0
   40.7427   -4.5083   -0.4397 H   0  0  0  0  0  0  0  0  0  0  0  0
   45.9717   -4.5010    0.0126 H   0  0  0  0  0  0  0  0  0  0  0  0
   47.8488   -2.5709    0.1409 H   0  0  0  0  0  0  0  0  0  0  0  0
   47.8072    2.6281   -0.1566 H   0  0  0  0  0  0  0  0  0  0  0  0
   45.8985    4.5310   -0.0880 H   0  0  0  0  0  0  0  0  0  0  0  0
   42.1912    5.1463   -1.5802 H   0  0  0  0  0  0  0  0  0  0  0  0
   42.1668    7.6127   -1.4645 H   0  0  0  0  0  0  0  0  0  0  0  0
   43.2545    8.7770    0.4297 H   0  0  0  0  0  0  0  0  0  0  0  0
   44.3623    7.4621    2.2105 H   0  0  0  0  0  0  0  0  0  0  0  0
   44.3797    4.9954    2.0989 H   0  0  0  0  0  0  0  0  0  0  0  0
   40.6807    4.4530    0.5538 H   0  0  0  0  0  0  0  0  0  0  0  0
   38.8056    2.5156    0.4487 H   0  0  0  0  0  0  0  0  0  0  0  0
   42.6837   -4.9654   -2.2862 H   0  0  0  0  0  0  0  0  0  0  0  0
   42.6935   -7.4311   -2.4233 H   0  0  0  0  0  0  0  0  0  0  0  0
   43.3823   -8.7799   -0.4655 H   0  0  0  0  0  0  0  0  0  0  0  0
   44.0567   -7.6509    1.6315 H   0  0  0  0  0  0  0  0  0  0  0  0
   44.0389   -5.1853    1.7711 H   0  0  0  0  0  0  0  0  0  0  0  0
   83.5901    0.0586    0.0233 Fe  0  0  0  0  0  0  0  0  0  0  0  0
   86.9817    0.0774    0.0461 C   0  0  0  0  0  0  0  0  0  0  0  0
   86.3326    1.2890   -0.0709 C   0  0  0  0  0  0  0  0  0  0  0  0
   87.0147    2.5439   -0.1706 C   0  0  0  0  0  0  0  0  0  0  0  0
   86.0600    3.5034   -0.1889 C   0  0  0  0  0  0  0  0  0  0  0  0
   84.7951    2.8317   -0.1064 C   0  0  0  0  0  0  0  0  0  0  0  0
   84.9754    1.4764   -0.0473 N   0  0  0  0  0  0  0  0  0  0  0  0
   83.5744    3.4911   -0.0100 C   0  0  0  0  0  0  0  0  0  0  0  0
   82.3633    2.8254    0.1052 C   0  0  0  0  0  0  0  0  0  0  0  0
   81.0956    3.4878    0.1922 C   0  0  0  0  0  0  0  0  0  0  0  0
   80.1488    2.5196    0.2101 C   0  0  0  0  0  0  0  0  0  0  0  0
   82.1875    1.4617    0.0744 N   0  0  0  0  0  0  0  0  0  0  0  0
   80.8392    1.2707    0.1231 C   0  0  0  0  0  0  0  0  0  0  0  0
   80.1781    0.0398    0.0265 C   0  0  0  0  0  0  0  0  0  0  0  0
   80.8527   -1.1832   -0.0784 C   0  0  0  0  0  0  0  0  0  0  0  0
   80.1786   -2.4360   -0.2185 C   0  0  0  0  0  0  0  0  0  0  0  0
   81.1370   -3.3933   -0.2212 C   0  0  0  0  0  0  0  0  0  0  0  0
   82.3934   -2.7209   -0.0710 C   0  0  0  0  0  0  0  0  0  0  0  0
   83.6118   -3.3753    0.0343 C   0  0  0  0  0  0  0  0  0  0  0  0
   83.6226   -4.8581    0.0393 C   0  0  0  0  0  0  0  0  0  0  0  0
   84.2664   -5.5639   -0.9778 C   0  0  0  0  0  0  0  0  0  0  0  0
   84.2719   -6.9506   -0.9729 C   0  0  0  0  0  0  0  0  0  0  0  0
   83.6419   -7.6477    0.0492 C   0  0  0  0  0  0  0  0  0  0  0  0
   83.0028   -6.9522    1.0667 C   0  0  0  0  0  0  0  0  0  0  0  0
   82.9892   -5.5655    1.0618 C   0  0  0  0  0  0  0  0  0  0  0  0
   84.8247   -2.7021    0.1378 C   0  0  0  0  0  0  0  0  0  0  0  0
   86.0915   -3.3568    0.2934 C   0  0  0  0  0  0  0  0  0  0  0  0
   87.0360   -2.3869    0.2925 C   0  0  0  0  0  0  0  0  0  0  0  0
   86.3443   -1.1418    0.1473 C   0  0  0  0  0  0  0  0  0  0  0  0
   84.9908   -1.3451    0.0808 N   0  0  0  0  0  0  0  0  0  0  0  0
   82.2023   -1.3600   -0.0173 N   0  0  0  0  0  0  0  0  0  0  0  0
   83.5693    4.9750   -0.0238 C   0  0  0  0  0  0  0  0  0  0  0  0
   83.9578    5.6712   -1.1685 C   0  0  0  0  0  0  0  0  0  0  0  0
   83.9486    7.0581   -1.1807 C   0  0  0  0  0  0  0  0  0  0  0  0
   83.5579    7.7637   -0.0508 C   0  0  0  0  0  0  0  0  0  0  0  0
   83.1735    7.0771    1.0928 C   0  0  0  0  0  0  0  0  0  0  0  0
   83.1759    5.6902    1.1075 C   0  0  0  0  0  0  0  0  0  0  0  0
   88.0659    0.0842    0.0625 H   0  0  0  0  0  0  0  0  0  0  0  0
   88.0866    2.6561   -0.2093 H   0  0  0  0  0  0  0  0  0  0  0  0
   86.1879    4.5725   -0.2387 H   0  0  0  0  0  0  0  0  0  0  0  0
   80.9577    4.5563    0.2214 H   0  0  0  0  0  0  0  0  0  0  0  0
   79.0773    2.6259    0.2638 H   0  0  0  0  0  0  0  0  0  0  0  0
   79.1102   -2.5516   -0.3051 H   0  0  0  0  0  0  0  0  0  0  0  0
   81.0151   -4.4595   -0.3211 H   0  0  0  0  0  0  0  0  0  0  0  0
   84.7494   -5.0205   -1.7822 H   0  0  0  0  0  0  0  0  0  0  0  0
   84.7698   -7.4894   -1.7714 H   0  0  0  0  0  0  0  0  0  0  0  0
   83.6494   -8.7317    0.0531 H   0  0  0  0  0  0  0  0  0  0  0  0
   82.5125   -7.4921    1.8691 H   0  0  0  0  0  0  0  0  0  0  0  0
   82.4988   -5.0230    1.8624 H   0  0  0  0  0  0  0  0  0  0  0  0
   86.2267   -4.4214    0.3951 H   0  0  0  0  0  0  0  0  0  0  0  0
   88.1061   -2.4854    0.3828 H   0  0  0  0  0  0  0  0  0  0  0  0
   84.2533    5.1207   -2.0547 H   0  0  0  0  0  0  0  0  0  0  0  0
   84.2472    7.5900   -2.0773 H   0  0  0  0  0  0  0  0  0  0  0  0
   83.5530    8.8478   -0.0616 H   0  0  0  0  0  0  0  0  0  0  0  0
   82.8702    7.6238    1.9788 H   0  0  0  0  0  0  0  0  0  0  0  0
   82.8855    5.1545    2.0043 H   0  0  0  0  0  0  0  0  0  0  0  0
   49.3675    0.0367    0.0179 C   0  0  0  0  0  0  0  0  0  0  0  0
   48.1432    0.0308    0.0263 C   0  0  0  0  0  0  0  0  0  0  0  0
   50.7131    0.0405    0.0149 C   0  0  0  0  0  0  0  0  0  0  0  0
   51.9376    0.0445    0.0093 C   0  0  0  0  0  0  0  0  0  0  0  0
   62.7910    0.0479    0.0181 C   0  0  0  0  0  0  0  0  0  0  0  0
   61.5659    0.0472    0.0270 C   0  0  0  0  0  0  0  0  0  0  0  0
   64.1354    0.0456    0.0100 C   0  0  0  0  0  0  0  0  0  0  0  0
   65.3605    0.0419    0.0028 C   0  0  0  0  0  0  0  0  0  0  0  0
   76.2079    0.0306    0.0318 C   0  0  0  0  0  0  0  0  0  0  0  0
   74.9834    0.0286    0.0326 C   0  0  0  0  0  0  0  0  0  0  0  0
   77.5534    0.0327    0.0310 C   0  0  0  0  0  0  0  0  0  0  0  0
   78.7778    0.0328    0.0283 C   0  0  0  0  0  0  0  0  0  0  0  0
   56.7525    0.0448    0.0250 Fe  0  0  0  0  0  0  0  0  0  0  0  0
   53.3368    0.0442    0.0096 C   0  0  0  0  0  0  0  0  0  0  0  0
   54.0071   -1.1750    0.1795 C   0  0  0  0  0  0  0  0  0  0  0  0
   53.3338   -2.4182    0.3850 C   0  0  0  0  0  0  0  0  0  0  0  0
   54.2893   -3.3799    0.3876 C   0  0  0  0  0  0  0  0  0  0  0  0
   55.5406   -2.7175    0.1743 C   0  0  0  0  0  0  0  0  0  0  0  0
   55.3542   -1.3597    0.0901 N   0  0  0  0  0  0  0  0  0  0  0  0
   56.7524   -3.3791    0.0134 C   0  0  0  0  0  0  0  0  0  0  0  0
   57.9638   -2.7173   -0.1395 C   0  0  0  0  0  0  0  0  0  0  0  0
   59.2161   -3.3784   -0.3531 C   0  0  0  0  0  0  0  0  0  0  0  0
   60.1716   -2.4169   -0.3416 C   0  0  0  0  0  0  0  0  0  0  0  0
   58.1508   -1.3592   -0.0460 N   0  0  0  0  0  0  0  0  0  0  0  0
   59.4973   -1.1747   -0.1321 C   0  0  0  0  0  0  0  0  0  0  0  0
   60.1678    0.0458    0.0319 C   0  0  0  0  0  0  0  0  0  0  0  0
   59.4953    1.2647    0.2007 C   0  0  0  0  0  0  0  0  0  0  0  0
   60.1672    2.5057    0.4243 C   0  0  0  0  0  0  0  0  0  0  0  0
   59.2107    3.4661    0.4394 C   0  0  0  0  0  0  0  0  0  0  0  0
   57.9605    2.8062    0.2104 C   0  0  0  0  0  0  0  0  0  0  0  0
   56.7506    3.4684    0.0453 C   0  0  0  0  0  0  0  0  0  0  0  0
   56.7473    4.9501    0.0619 C   0  0  0  0  0  0  0  0  0  0  0  0
   56.0213    5.6430    1.0317 C   0  0  0  0  0  0  0  0  0  0  0  0
   56.0230    7.0295    1.0501 C   0  0  0  0  0  0  0  0  0  0  0  0
   56.7418    7.7395    0.0981 C   0  0  0  0  0  0  0  0  0  0  0  0
   57.4627    7.0571   -0.8725 C   0  0  0  0  0  0  0  0  0  0  0  0
   57.4697    5.6706   -0.8901 C   0  0  0  0  0  0  0  0  0  0  0  0
   55.5417    2.8060   -0.1348 C   0  0  0  0  0  0  0  0  0  0  0  0
   54.2929    3.4673   -0.3657 C   0  0  0  0  0  0  0  0  0  0  0  0
   53.3378    2.5051   -0.3731 C   0  0  0  0  0  0  0  0  0  0  0  0
   54.0090    1.2627   -0.1574 C   0  0  0  0  0  0  0  0  0  0  0  0
   55.3550    1.4480   -0.0527 N   0  0  0  0  0  0  0  0  0  0  0  0
   58.1491    1.4488    0.1094 N   0  0  0  0  0  0  0  0  0  0  0  0
   56.7506   -4.8612    0.0033 C   0  0  0  0  0  0  0  0  0  0  0  0
   56.0533   -5.5592   -0.9836 C   0  0  0  0  0  0  0  0  0  0  0  0
   56.0567   -6.9458   -0.9950 C   0  0  0  0  0  0  0  0  0  0  0  0
   56.7475   -7.6504   -0.0183 C   0  0  0  0  0  0  0  0  0  0  0  0
   57.4397   -6.9626    0.9693 C   0  0  0  0  0  0  0  0  0  0  0  0
   57.4460   -5.5759    0.9795 C   0  0  0  0  0  0  0  0  0  0  0  0
   52.2682   -2.5268    0.5074 H   0  0  0  0  0  0  0  0  0  0  0  0
   54.1671   -4.4419    0.5246 H   0  0  0  0  0  0  0  0  0  0  0  0
   59.3386   -4.4395   -0.4963 H   0  0  0  0  0  0  0  0  0  0  0  0
   61.2375   -2.5247   -0.4617 H   0  0  0  0  0  0  0  0  0  0  0  0
   61.2322    2.6131    0.5529 H   0  0  0  0  0  0  0  0  0  0  0  0
   59.3319    4.5258    0.5941 H   0  0  0  0  0  0  0  0  0  0  0  0
   55.4689    5.0894    1.7827 H   0  0  0  0  0  0  0  0  0  0  0  0
   55.4603    7.5580    1.8116 H   0  0  0  0  0  0  0  0  0  0  0  0
   56.7401    8.8235    0.1123 H   0  0  0  0  0  0  0  0  0  0  0  0
   58.0232    7.6072   -1.6201 H   0  0  0  0  0  0  0  0  0  0  0  0
   58.0235    5.1387   -1.6557 H   0  0  0  0  0  0  0  0  0  0  0  0
   54.1718    4.5288   -0.5074 H   0  0  0  0  0  0  0  0  0  0  0  0
   52.2739    2.6126   -0.5101 H   0  0  0  0  0  0  0  0  0  0  0  0
   55.5224   -5.0095   -1.7528 H   0  0  0  0  0  0  0  0  0  0  0  0
   55.5175   -7.4786   -1.7703 H   0  0  0  0  0  0  0  0  0  0  0  0
   56.7464   -8.7344   -0.0267 H   0  0  0  0  0  0  0  0  0  0  0  0
   57.9777   -7.5085    1.7364 H   0  0  0  0  0  0  0  0  0  0  0  0
   57.9779   -5.0394    1.7573 H   0  0  0  0  0  0  0  0  0  0  0  0
   70.1714    0.0328    0.0206 Fe  0  0  0  0  0  0  0  0  0  0  0  0
   66.7586    0.0382    0.0022 C   0  0  0  0  0  0  0  0  0  0  0  0
   67.4277   -1.1862    0.1420 C   0  0  0  0  0  0  0  0  0  0  0  0
   66.7543   -2.4326    0.3277 C   0  0  0  0  0  0  0  0  0  0  0  0
   67.7090   -3.3949    0.3087 C   0  0  0  0  0  0  0  0  0  0  0  0
   68.9600   -2.7301    0.0987 C   0  0  0  0  0  0  0  0  0  0  0  0
   68.7735   -1.3699    0.0438 N   0  0  0  0  0  0  0  0  0  0  0  0
   70.1682   -3.3871   -0.0977 C   0  0  0  0  0  0  0  0  0  0  0  0
   71.3773   -2.7190   -0.2556 C   0  0  0  0  0  0  0  0  0  0  0  0
   72.6250   -3.3695   -0.5206 C   0  0  0  0  0  0  0  0  0  0  0  0
   73.5812   -2.4089   -0.4835 C   0  0  0  0  0  0  0  0  0  0  0  0
   71.5658   -1.3668   -0.1096 N   0  0  0  0  0  0  0  0  0  0  0  0
   72.9119   -1.1778   -0.2052 C   0  0  0  0  0  0  0  0  0  0  0  0
   73.5842    0.0289    0.0330 C   0  0  0  0  0  0  0  0  0  0  0  0
   72.9128    1.2358    0.2730 C   0  0  0  0  0  0  0  0  0  0  0  0
   73.5819    2.4628    0.5681 C   0  0  0  0  0  0  0  0  0  0  0  0
   72.6270    3.4247    0.6074 C   0  0  0  0  0  0  0  0  0  0  0  0
   71.3807    2.7797    0.3233 C   0  0  0  0  0  0  0  0  0  0  0  0
   70.1760    3.4523    0.1509 C   0  0  0  0  0  0  0  0  0  0  0  0
   70.1798    4.9328    0.2034 C   0  0  0  0  0  0  0  0  0  0  0  0
   69.4232    5.6088    1.1617 C   0  0  0  0  0  0  0  0  0  0  0  0
   69.4306    6.9945    1.2101 C   0  0  0  0  0  0  0  0  0  0  0  0
   70.1864    7.7211    0.3001 C   0  0  0  0  0  0  0  0  0  0  0  0
   70.9392    7.0559   -0.6580 C   0  0  0  0  0  0  0  0  0  0  0  0
   70.9401    5.6701   -0.7057 C   0  0  0  0  0  0  0  0  0  0  0  0
   68.9697    2.7992   -0.0694 C   0  0  0  0  0  0  0  0  0  0  0  0
   67.7242    3.4674   -0.3003 C   0  0  0  0  0  0  0  0  0  0  0  0
   66.7668    2.5079   -0.3321 C   0  0  0  0  0  0  0  0  0  0  0  0
   67.4335    1.2599   -0.1344 C   0  0  0  0  0  0  0  0  0  0  0  0
   68.7783    1.4396   -0.0178 N   0  0  0  0  0  0  0  0  0  0  0  0
   71.5678    1.4282    0.1687 N   0  0  0  0  0  0  0  0  0  0  0  0
   70.1695   -4.8682   -0.1401 C   0  0  0  0  0  0  0  0  0  0  0  0
   69.4395   -5.5494   -1.1151 C   0  0  0  0  0  0  0  0  0  0  0  0
   69.4441   -6.9355   -1.1522 C   0  0  0  0  0  0  0  0  0  0  0  0
   70.1698   -7.6568   -0.2139 C   0  0  0  0  0  0  0  0  0  0  0  0
   70.8960   -6.9861    0.7608 C   0  0  0  0  0  0  0  0  0  0  0  0
   70.9005   -5.6000    0.7969 C   0  0  0  0  0  0  0  0  0  0  0  0
   65.6892   -2.5425    0.4541 H   0  0  0  0  0  0  0  0  0  0  0  0
   67.5863   -4.4589    0.4284 H   0  0  0  0  0  0  0  0  0  0  0  0
   72.7447   -4.4232   -0.7132 H   0  0  0  0  0  0  0  0  0  0  0  0
   74.6449   -2.5111   -0.6263 H   0  0  0  0  0  0  0  0  0  0  0  0
   74.6444    2.5615    0.7220 H   0  0  0  0  0  0  0  0  0  0  0  0
   72.7473    4.4758    0.8129 H   0  0  0  0  0  0  0  0  0  0  0  0
   68.8425    5.0422    1.8810 H   0  0  0  0  0  0  0  0  0  0  0  0
   68.8432    7.5094    1.9622 H   0  0  0  0  0  0  0  0  0  0  0  0
   70.1890    8.8045    0.3377 H   0  0  0  0  0  0  0  0  0  0  0  0
   71.5292    7.6189   -1.3727 H   0  0  0  0  0  0  0  0  0  0  0  0
   71.5185    5.1521   -1.4626 H   0  0  0  0  0  0  0  0  0  0  0  0
   67.6064    4.5314   -0.4248 H   0  0  0  0  0  0  0  0  0  0  0  0
   65.7043    2.6209   -0.4758 H   0  0  0  0  0  0  0  0  0  0  0  0
   68.8817   -4.9868   -1.8555 H   0  0  0  0  0  0  0  0  0  0  0  0
   68.8781   -7.4548   -1.9176 H   0  0  0  0  0  0  0  0  0  0  0  0
   70.1695   -8.7405   -0.2423 H   0  0  0  0  0  0  0  0  0  0  0  0
   71.4622   -7.5450    1.4977 H   0  0  0  0  0  0  0  0  0  0  0  0
   71.4587   -5.0772    1.5655 H   0  0  0  0  0  0  0  0  0  0  0  0
  2  3  4  0  0  0  0
  3  4  4  0  0  0  0
  4  5  2  0  0  0  0
  5  6  4  0  0  0  0
  1  7  1  0  0  0  0
  3  7  4  0  0  0  0
  6  7  4  0  0  0  0
  6  8  4  0  0  0  0
  8  9  4  0  0  0  0
  9 10  4  0  0  0  0
 10 11  2  0  0  0  0
  1 12  1  0  0  0  0
  9 12  4  0  0  0  0
 11 13  4  0  0  0  0
 12 13  4  0  0  0  0
 13 14  4  0  0  0  0
 14 15  4  0  0  0  0
 15 16  4  0  0  0  0
 16 17  2  0  0  0  0
 17 18  4  0  0  0  0
 18 19  4  0  0  0  0
 19 20  1  0  0  0  0
 20 21  4  0  0  0  0
 21 22  4  0  0  0  0
 22 23  4  0  0  0  0
 23 24  4  0  0  0  0
 20 25  4  0  0  0  0
 24 25  4  0  0  0  0
 19 26  4  0  0  0  0
 26 27  4  0  0  0  0
 27 28  2  0  0  0  0
  2 29  4  0  0  0  0
 28 29  4  0  0  0  0
  1 30  1  0  0  0  0
 26 30  4  0  0  0  0
 29 30  4  0  0  0  0
  1 31  1  0  0  0  0
 15 31  4  0  0  0  0
 18 31  4  0  0  0  0
  8 32  1  0  0  0  0
 32 33  4  0  0  0  0
 33 34  4  0  0  0  0
 34 35  4  0  0  0  0
 35 36  4  0  0  0  0
 32 37  4  0  0  0  0
 36 37  4  0  0  0  0
  2 38  1  0  0  0  0
  4 39  1  0  0  0  0
  5 40  1  0  0  0  0
 10 41  1  0  0  0  0
 11 42  1  0  0  0  0
 16 43  1  0  0  0  0
 17 44  1  0  0  0  0
 21 45  1  0  0  0  0
 22 46  1  0  0  0  0
 23 47  1  0  0  0  0
 24 48  1  0  0  0  0
 25 49  1  0  0  0  0
 27 50  1  0  0  0  0
 28 51  1  0  0  0  0
 33 52  1  0  0  0  0
 34 53  1  0  0  0  0
 35 54  1  0  0  0  0
 36 55  1  0  0  0  0
 37 56  1  0  0  0  0
 58 59  4  0  0  0  0
 59 60  4  0  0  0  0
 60 61  2  0  0  0  0
 61 62  4  0  0  0  0
 57 63  1  0  0  0  0
 59 63  4  0  0  0  0
 62 63  4  0  0  0  0
 62 64  4  0  0  0  0
 64 65  4  0  0  0  0
 65 66  4  0  0  0  0
 66 67  2  0  0  0  0
 57 68  1  0  0  0  0
 65 68  4  0  0  0  0
 67 69  4  0  0  0  0
 68 69  4  0  0  0  0
 69 70  4  0  0  0  0
 70 71  4  0  0  0  0
 71 72  4  0  0  0  0
 72 73  2  0  0  0  0
 73 74  4  0  0  0  0
 74 75  4  0  0  0  0
 75 76  1  0  0  0  0
 76 77  4  0  0  0  0
 77 78  4  0  0  0  0
 78 79  4  0  0  0  0
 79 80  4  0  0  0  0
 76 81  4  0  0  0  0
 80 81  4  0  0  0  0
 75 82  4  0  0  0  0
 82 83  4  0  0  0  0
 83 84  2  0  0  0  0
 58 85  4  0  0  0  0
 84 85  4  0  0  0  0
 57 86  1  0  0  0  0
 82 86  4  0  0  0  0
 85 86  4  0  0  0  0
 57 87  1  0  0  0  0
 71 87  4  0  0  0  0
 74 87  4  0  0  0  0
 64 88  1  0  0  0  0
 88 89  4  0  0  0  0
 89 90  4  0  0  0  0
 90 91  4  0  0  0  0
 91 92  4  0  0  0  0
 88 93  4  0  0  0  0
 92 93  4  0  0  0  0
 58 94  1  0  0  0  0
 60 95  1  0  0  0  0
 61 96  1  0  0  0  0
 66 97  1  0  0  0  0
 67 98  1  0  0  0  0
 72 99  1  0  0  0  0
 73100  1  0  0  0  0
 77101  1  0  0  0  0
 78102  1  0  0  0  0
 79103  1  0  0  0  0
 80104  1  0  0  0  0
 81105  1  0  0  0  0
 83106  1  0  0  0  0
 84107  1  0  0  0  0
 89108  1  0  0  0  0
 90109  1  0  0  0  0
 91110  1  0  0  0  0
 92111  1  0  0  0  0
 93112  1  0  0  0  0
 14114  4  0  0  0  0
113114  3  0  0  0  0
113115  4  0  0  0  0
115116  3  0  0  0  0
117118  3  0  0  0  0
117119  4  0  0  0  0
119120  3  0  0  0  0
121122  3  0  0  0  0
121123  4  0  0  0  0
 70124  4  0  0  0  0
123124  3  0  0  0  0
116126  4  0  0  0  0
126127  4  0  0  0  0
127128  4  0  0  0  0
128129  2  0  0  0  0
129130  4  0  0  0  0
125131  1  0  0  0  0
127131  4  0  0  0  0
130131  4  0  0  0  0
130132  4  0  0  0  0
132133  4  0  0  0  0
133134  4  0  0  0  0
134135  2  0  0  0  0
125136  1  0  0  0  0
133136  4  0  0  0  0
135137  4  0  0  0  0
136137  4  0  0  0  0
118138  4  0  0  0  0
137138  4  0  0  0  0
138139  4  0  0  0  0
139140  4  0  0  0  0
140141  2  0  0  0  0
141142  4  0  0  0  0
142143  4  0  0  0  0
143144  1  0  0  0  0
144145  4  0  0  0  0
145146  4  0  0  0  0
146147  4  0  0  0  0
147148  4  0  0  0  0
144149  4  0  0  0  0
148149  4  0  0  0  0
143150  4  0  0  0  0
150151  4  0  0  0  0
151152  2  0  0  0  0
126153  4  0  0  0  0
152153  4  0  0  0  0
125154  1  0  0  0  0
150154  4  0  0  0  0
153154  4  0  0  0  0
125155  1  0  0  0  0
139155  4  0  0  0  0
142155  4  0  0  0  0
132156  1  0  0  0  0
156157  4  0  0  0  0
157158  4  0  0  0  0
158159  4  0  0  0  0
159160  4  0  0  0  0
156161  4  0  0  0  0
160161  4  0  0  0  0
128162  1  0  0  0  0
129163  1  0  0  0  0
134164  1  0  0  0  0
135165  1  0  0  0  0
140166  1  0  0  0  0
141167  1  0  0  0  0
145168  1  0  0  0  0
146169  1  0  0  0  0
147170  1  0  0  0  0
148171  1  0  0  0  0
149172  1  0  0  0  0
151173  1  0  0  0  0
152174  1  0  0  0  0
157175  1  0  0  0  0
158176  1  0  0  0  0
159177  1  0  0  0  0
160178  1  0  0  0  0
161179  1  0  0  0  0
120181  4  0  0  0  0
181182  4  0  0  0  0
182183  4  0  0  0  0
183184  2  0  0  0  0
184185  4  0  0  0  0
180186  1  0  0  0  0
182186  4  0  0  0  0
185186  4  0  0  0  0
185187  4  0  0  0  0
187188  4  0  0  0  0
188189  4  0  0  0  0
189190  2  0  0  0  0
180191  1  0  0  0  0
188191  4  0  0  0  0
190192  4  0  0  0  0
191192  4  0  0  0  0
122193  4  0  0  0  0
192193  4  0  0  0  0
193194  4  0  0  0  0
194195  4  0  0  0  0
195196  2  0  0  0  0
196197  4  0  0  0  0
197198  4  0  0  0  0
198199  1  0  0  0  0
199200  4  0  0  0  0
200201  4  0  0  0  0
201202  4  0  0  0  0
202203  4  0  0  0  0
199204  4  0  0  0  0
203204  4  0  0  0  0
198205  4  0  0  0  0
205206  4  0  0  0  0
206207  2  0  0  0  0
181208  4  0  0  0  0
207208  4  0  0  0  0
180209  1  0  0  0  0
205209  4  0  0  0  0
208209  4  0  0  0  0
180210  1  0  0  0  0
194210  4  0  0  0  0
197210  4  0  0  0  0
187211  1  0  0  0  0
211212  4  0  0  0  0
212213  4  0  0  0  0
213214  4  0  0  0  0
214215  4  0  0  0  0
211216  4  0  0  0  0
215216  4  0  0  0  0
183217  1  0  0  0  0
184218  1  0  0  0  0
189219  1  0  0  0  0
190220  1  0  0  0  0
195221  1  0  0  0  0
196222  1  0  0  0  0
200223  1  0  0  0  0
201224  1  0  0  0  0
202225  1  0  0  0  0
203226  1  0  0  0  0
204227  1  0  0  0  0
206228  1  0  0  0  0
207229  1  0  0  0  0
212230  1  0  0  0  0
213231  1  0  0  0  0
214232  1  0  0  0  0
215233  1  0  0  0  0
216234  1  0  0  0  0
M  END
