586

C 107.096873 1.192830 -0.177668
C 107.996475 1.582183 -1.386925
C 107.907447 2.734128 -2.143038
C 108.994642 2.710965 -3.056395
C 109.673222 1.523204 -2.856794
N 109.103119 0.878932 -1.784493
C 110.965325 0.999396 -3.620161
C 110.837271 0.675449 -5.069057
C 111.140114 -0.611819 -5.535736
C 110.906859 -0.986978 -6.862639
C 110.291689 -0.105430 -7.747890
N 109.945224 -0.492066 -9.066354
C 109.072747 -1.658281 -9.092798
C 110.028219 1.198001 -7.310968
C 110.300033 1.578064 -5.988449
C 112.069703 0.725801 -2.868775
C 113.345375 0.359237 -3.449978
C 114.202678 0.120036 -2.463369
N 112.242534 0.713748 -1.508791
C 113.511422 0.299957 -1.197447
C 114.103729 0.054064 -0.001797
C 113.277068 0.128393 1.365999
C 113.810285 0.024831 2.633236
C 112.734340 0.002497 3.556390
C 111.570457 0.072859 2.824204
N 111.907822 0.217442 1.495281
C 110.098055 -0.032939 3.428446
C 109.963912 -0.497714 4.828932
C 109.727343 0.419012 5.859725
C 109.613459 -0.015725 7.183999
C 109.763849 -1.370715 7.517041
N 109.592695 -1.872838 8.821159
C 109.779248 -0.960259 9.934932
C 109.983757 -2.276494 6.470532
C 110.099326 -1.846468 5.144419
C 109.020034 0.253338 2.656357
C 107.649091 0.114321 3.120109
C 106.831288 0.453389 2.125577
C 107.651148 0.813612 0.989203
N 108.951473 0.678021 1.361388
H 106.023181 1.231957 -0.292824
H 107.177352 3.521778 -2.021779
H 109.251852 3.484448 -3.768821
H 109.534315 0.135381 -1.250033
H 111.531974 -1.349466 -4.833383
H 111.186812 -1.986084 -7.173505
H 109.519050 0.297086 -9.544079
H 108.209949 -1.533759 -8.427309
H 108.689842 -1.800397 -10.105026
H 109.609504 -2.574006 -8.815662
H 109.545824 1.909559 -7.971138
H 110.074388 2.589383 -5.665534
H 113.570080 0.321946 -4.496041
H 115.230818 -0.161913 -2.602629
H 114.857932 -0.060817 2.877695
H 112.808081 -0.108420 4.626574
H 111.244820 0.337614 0.730558
H 109.630503 1.478161 5.614733
H 109.419848 0.736350 7.947874
H 110.103260 -2.743264 8.929918
H 108.969804 -0.223895 9.982066
H 110.750283 -0.450206 9.883099
H 109.753710 -1.531241 10.871761
H 110.062095 -3.339976 6.671852
H 110.275139 -2.560630 4.342867
H 107.343107 -0.226349 4.092076
H 105.757729 0.433082 2.148904
C 245.224063 1.200311 0.115833
C 244.324461 1.650763 1.303684
C 244.413489 2.839732 2.000130
C 243.326294 2.863130 2.913481
C 242.647713 1.666742 2.774649
N 243.217816 0.968679 1.736562
C 241.355610 1.182504 3.563710
C 241.483665 0.932791 5.027228
C 241.180821 -0.329032 5.558880
C 241.414077 -0.636106 6.903172
C 242.029247 0.289397 7.742364
N 242.375712 -0.029569 9.078812
C 243.248188 -1.192922 9.164634
C 242.292716 1.568876 7.239606
C 242.020903 1.881071 5.899443
C 240.251232 0.870985 2.827237
C 238.975561 0.534506 3.426361
C 238.118257 0.245353 2.453218
N 240.078401 0.789664 1.469633
C 238.809514 0.360549 1.179774
C 238.217207 0.054064 -0.001797
C 239.043868 0.058615 -1.371603
C 238.510651 -0.109371 -2.631919
C 239.586595 -0.178705 -3.552736
C 240.750479 -0.071134 -2.825085
N 240.413114 0.140962 -1.505254
C 242.222881 -0.207578 -3.423153
C 242.357023 -0.743096 -4.798143
C 242.593593 0.119927 -5.874299
C 242.707476 -0.381710 -7.174706
C 242.557087 -1.751907 -7.438287
N 242.728241 -2.319815 -8.715131
C 242.541688 -1.465162 -9.873948
C 242.337178 -2.603196 -6.346992
C 242.221610 -2.106171 -5.044508
C 243.300902 0.117662 -2.666650
C 244.671845 -0.044800 -3.122718
C 245.489647 0.344492 -2.146752
C 244.669788 0.762140 -1.030205
N 243.369462 0.607764 -1.394998
H 246.297755 1.245254 0.228845
H 245.143583 3.620182 1.838903
H 243.069083 3.671903 3.585577
H 242.786620 0.198866 1.240676
H 240.788962 -1.101501 4.895018
H 241.134124 -1.618077 7.264533
H 242.801886 0.782896 9.515714
H 244.110986 -1.102466 8.493665
H 243.631094 -1.283287 10.182788
H 242.711432 -2.121577 8.934509
H 242.775111 2.313142 7.862669
H 242.246547 2.874626 5.525426
H 238.750855 0.550555 4.472965
H 237.090118 -0.029135 2.606661
H 237.463003 -0.207362 -2.871697
H 239.512855 -0.343998 -4.615880
H 241.076115 0.299937 -0.747646
H 242.690433 1.190181 -5.683583
H 242.901088 0.330474 -7.975903
H 242.217676 -3.194652 -8.779405
H 243.351131 -0.732155 -9.958535
H 241.570653 -0.953131 -9.848167
H 242.567226 -2.083129 -10.780473
H 242.258840 -3.675554 -6.493872
H 242.045797 -2.778571 -4.207615
H 244.977829 -0.434544 -4.076068
H 246.563207 0.323024 -2.169014
C 116.369555 0.069265 0.008837
C 117.827781 0.047429 -0.009037
C 118.961709 0.026675 -0.010528
C 120.323091 0.014085 -0.012719
C 121.597310 0.024392 -0.017484
C 122.785772 0.043190 -0.023640
C 124.138133 0.067974 -0.007772
C 125.238400 0.069265 0.008837
C 134.800326 0.069265 0.008837
C 136.258552 0.047429 -0.009037
C 137.392481 0.026675 -0.010528
C 138.753862 0.014085 -0.012719
C 140.028081 0.024392 -0.017484
C 141.216544 0.043190 -0.023640
C 142.568904 0.067974 -0.007772
C 143.669172 0.069265 0.008837
C 153.231098 0.069265 0.008837
C 154.689324 0.047429 -0.009037
C 155.823252 0.026675 -0.010528
C 157.184634 0.014085 -0.012719
C 158.458853 0.024392 -0.017484
C 159.647315 0.043190 -0.023640
C 160.999676 0.067974 -0.007772
C 162.099943 0.069265 0.008837
C 171.661870 0.069265 0.008837
C 173.120096 0.047429 -0.009037
C 174.254024 0.026675 -0.010528
C 175.615406 0.014085 -0.012719
C 176.889624 0.024392 -0.017484
C 178.078087 0.043190 -0.023640
C 179.430448 0.067974 -0.007772
C 180.530715 0.069265 0.008837
C 190.092641 0.069265 0.008837
C 191.550867 0.047429 -0.009037
C 192.684795 0.026675 -0.010528
C 194.046177 0.014085 -0.012719
C 195.320396 0.024392 -0.017484
C 196.508858 0.043190 -0.023640
C 197.861219 0.067974 -0.007772
C 198.961487 0.069265 0.008837
C 208.523413 0.069265 0.008837
C 209.981639 0.047429 -0.009037
C 211.115567 0.026675 -0.010528
C 212.476949 0.014085 -0.012719
C 213.751168 0.024392 -0.017484
C 214.939630 0.043190 -0.023640
C 216.291991 0.067974 -0.007772
C 217.392258 0.069265 0.008837
C 226.954184 0.069265 0.008837
C 228.412411 0.047429 -0.009037
C 229.546339 0.026675 -0.010528
C 230.907721 0.014085 -0.012719
C 232.181939 0.024392 -0.017484
C 233.370402 0.043190 -0.023640
C 234.722763 0.067974 -0.007772
C 235.823030 0.069265 0.008837
C 126.535300 -0.028090 -0.000642
C 127.310470 0.019176 1.385985
C 126.729363 0.033545 2.638441
C 127.771453 0.071083 3.592346
C 128.965395 0.079455 2.901058
N 128.676323 0.048528 1.557353
C 130.405464 0.115145 3.563074
C 130.467039 0.183412 5.044356
C 130.532598 -0.984075 5.807392
C 130.563729 -0.911682 7.204336
C 130.497062 0.321063 7.873141
N 130.572942 0.324239 9.277425
C 130.092834 1.496571 9.984108
C 130.486611 1.485086 7.094199
C 130.455556 1.419027 5.695606
C 131.533175 0.086341 2.805303
C 132.847023 0.113407 3.414777
C 133.756987 0.069572 2.450913
N 131.728046 0.031162 1.450059
C 133.072732 0.018509 1.174054
C 133.756439 -0.028090 -0.000642
C 132.981584 -0.069189 -1.387712
C 133.562411 -0.068934 -2.640743
C 132.520400 -0.108028 -3.594878
C 131.326677 -0.129468 -2.903228
N 131.616061 -0.105288 -1.559209
C 129.887339 -0.171213 -3.563906
C 129.819266 -0.239476 -5.044705
C 129.769696 0.930155 -5.806806
C 129.696736 0.864774 -7.203801
C 129.640622 -0.367172 -7.867949
N 129.609636 -0.496344 -9.268561
C 129.068401 0.607535 -10.039280
C 129.748196 -1.532827 -7.092908
C 129.820655 -1.473768 -5.697066
C 128.759050 -0.143700 -2.806203
C 127.444859 -0.173936 -3.415398
C 126.534577 -0.130388 -2.451915
C 127.218799 -0.075852 -1.175321
N 128.563496 -0.086453 -1.451189
H 125.672097 0.015777 2.853441
H 127.661030 0.087761 4.666507
H 129.363685 0.038810 0.807534
H 130.567397 -1.946629 5.302469
H 130.636401 -1.838711 7.764778
H 130.191821 -0.542468 9.647309
H 129.061723 1.739430 9.706488
H 130.108798 1.296114 11.060432
H 130.738088 2.363408 9.809661
H 130.500952 2.469355 7.547688
H 130.430536 2.329682 5.101197
H 133.063405 0.159393 4.467475
H 134.818352 0.075976 2.618299
H 134.619462 -0.041710 -2.855971
H 132.630932 -0.116973 -4.669513
H 130.929041 -0.103165 -0.809111
H 129.789630 1.892499 -5.300236
H 129.680680 1.801910 -7.747989
H 129.197253 -1.390465 -9.522379
H 129.722951 1.484005 -10.000236
H 128.996594 0.307610 -11.089950
H 128.062795 0.879684 -9.701498
H 129.768492 -2.509295 -7.566904
H 129.878935 -2.385541 -5.107319
H 127.228280 -0.221710 -4.467787
H 125.473211 -0.138666 -2.618870
C 144.966072 -0.028090 -0.000642
C 145.741242 0.019176 1.385985
C 145.160134 0.033545 2.638441
C 146.202224 0.071083 3.592346
C 147.396167 0.079455 2.901058
N 147.107095 0.048528 1.557353
C 148.836235 0.115145 3.563074
C 148.897810 0.183412 5.044356
C 148.963369 -0.984075 5.807392
C 148.994501 -0.911682 7.204336
C 148.927833 0.321063 7.873141
N 149.003714 0.324239 9.277425
C 148.523606 1.496571 9.984108
C 148.917383 1.485086 7.094199
C 148.886328 1.419027 5.695606
C 149.963947 0.086341 2.805303
C 151.277795 0.113407 3.414777
C 152.187759 0.069572 2.450913
N 150.158817 0.031162 1.450059
C 151.503504 0.018509 1.174054
C 152.187211 -0.028090 -0.000642
C 151.412356 -0.069189 -1.387712
C 151.993183 -0.068934 -2.640743
C 150.951172 -0.108028 -3.594878
C 149.757449 -0.129468 -2.903228
N 150.046833 -0.105288 -1.559209
C 148.318110 -0.171213 -3.563906
C 148.250038 -0.239476 -5.044705
C 148.200467 0.930155 -5.806806
C 148.127508 0.864774 -7.203801
C 148.071394 -0.367172 -7.867949
N 148.040407 -0.496344 -9.268561
C 147.499173 0.607535 -10.039280
C 148.178968 -1.532827 -7.092908
C 148.251426 -1.473768 -5.697066
C 147.189821 -0.143700 -2.806203
C 145.875631 -0.173936 -3.415398
C 144.965348 -0.130388 -2.451915
C 145.649571 -0.075852 -1.175321
N 146.994267 -0.086453 -1.451189
H 144.102868 0.015777 2.853441
H 146.091801 0.087761 4.666507
H 147.794456 0.038810 0.807534
H 148.998168 -1.946629 5.302469
H 149.067172 -1.838711 7.764778
H 148.622593 -0.542468 9.647309
H 147.492495 1.739430 9.706488
H 148.539569 1.296114 11.060432
H 149.168859 2.363408 9.809661
H 148.931723 2.469355 7.547688
H 148.861307 2.329682 5.101197
H 151.494177 0.159393 4.467475
H 153.249123 0.075976 2.618299
H 153.050233 -0.041710 -2.855971
H 151.061704 -0.116973 -4.669513
H 149.359813 -0.103165 -0.809111
H 148.220401 1.892499 -5.300236
H 148.111452 1.801910 -7.747989
H 147.628025 -1.390465 -9.522379
H 148.153723 1.484005 -10.000236
H 147.427366 0.307610 -11.089950
H 146.493567 0.879684 -9.701498
H 148.199264 -2.509295 -7.566904
H 148.309707 -2.385541 -5.107319
H 145.659052 -0.221710 -4.467787
H 143.903982 -0.138666 -2.618870
C 163.396843 -0.028090 -0.000642
C 164.172013 0.019176 1.385985
C 163.590906 0.033545 2.638441
C 164.632996 0.071083 3.592346
C 165.826939 0.079455 2.901058
N 165.537867 0.048528 1.557353
C 167.267007 0.115145 3.563074
C 167.328582 0.183412 5.044356
C 167.394141 -0.984075 5.807392
C 167.425272 -0.911682 7.204336
C 167.358605 0.321063 7.873141
N 167.434485 0.324239 9.277425
C 166.954378 1.496571 9.984108
C 167.348154 1.485086 7.094199
C 167.317100 1.419027 5.695606
C 168.394718 0.086341 2.805303
C 169.708567 0.113407 3.414777
C 170.618531 0.069572 2.450913
N 168.589589 0.031162 1.450059
C 169.934275 0.018509 1.174054
C 170.617983 -0.028090 -0.000642
C 169.843127 -0.069189 -1.387712
C 170.423954 -0.068934 -2.640743
C 169.381943 -0.108028 -3.594878
C 168.188220 -0.129468 -2.903228
N 168.477605 -0.105288 -1.559209
C 166.748882 -0.171213 -3.563906
C 166.680810 -0.239476 -5.044705
C 166.631239 0.930155 -5.806806
C 166.558280 0.864774 -7.203801
C 166.502165 -0.367172 -7.867949
N 166.471179 -0.496344 -9.268561
C 165.929944 0.607535 -10.039280
C 166.609739 -1.532827 -7.092908
C 166.682198 -1.473768 -5.697066
C 165.620593 -0.143700 -2.806203
C 164.306402 -0.173936 -3.415398
C 163.396120 -0.130388 -2.451915
C 164.080342 -0.075852 -1.175321
N 165.425039 -0.086453 -1.451189
H 162.533640 0.015777 2.853441
H 164.522573 0.087761 4.666507
H 166.225228 0.038810 0.807534
H 167.428940 -1.946629 5.302469
H 167.497944 -1.838711 7.764778
H 167.053364 -0.542468 9.647309
H 165.923266 1.739430 9.706488
H 166.970341 1.296114 11.060432
H 167.599631 2.363408 9.809661
H 167.362495 2.469355 7.547688
H 167.292079 2.329682 5.101197
H 169.924948 0.159393 4.467475
H 171.679895 0.075976 2.618299
H 171.481005 -0.041710 -2.855971
H 169.492475 -0.116973 -4.669513
H 167.790585 -0.103165 -0.809111
H 166.651173 1.892499 -5.300236
H 166.542224 1.801910 -7.747989
H 166.058797 -1.390465 -9.522379
H 166.584494 1.484005 -10.000236
H 165.858138 0.307610 -11.089950
H 164.924338 0.879684 -9.701498
H 166.630035 -2.509295 -7.566904
H 166.740478 -2.385541 -5.107319
H 164.089824 -0.221710 -4.467787
H 162.334754 -0.138666 -2.618870
C 181.827615 -0.028090 -0.000642
C 182.602785 0.019176 1.385985
C 182.021678 0.033545 2.638441
C 183.063768 0.071083 3.592346
C 184.257710 0.079455 2.901058
N 183.968638 0.048528 1.557353
C 185.697778 0.115145 3.563074
C 185.759354 0.183412 5.044356
C 185.824913 -0.984075 5.807392
C 185.856044 -0.911682 7.204336
C 185.789376 0.321063 7.873141
N 185.865257 0.324239 9.277425
C 185.385149 1.496571 9.984108
C 185.778926 1.485086 7.094199
C 185.747871 1.419027 5.695606
C 186.825490 0.086341 2.805303
C 188.139338 0.113407 3.414777
C 189.049302 0.069572 2.450913
N 187.020361 0.031162 1.450059
C 188.365047 0.018509 1.174054
C 189.048754 -0.028090 -0.000642
C 188.273899 -0.069189 -1.387712
C 188.854726 -0.068934 -2.640743
C 187.812715 -0.108028 -3.594878
C 186.618992 -0.129468 -2.903228
N 186.908376 -0.105288 -1.559209
C 185.179654 -0.171213 -3.563906
C 185.111581 -0.239476 -5.044705
C 185.062011 0.930155 -5.806806
C 184.989051 0.864774 -7.203801
C 184.932937 -0.367172 -7.867949
N 184.901951 -0.496344 -9.268561
C 184.360716 0.607535 -10.039280
C 185.040511 -1.532827 -7.092908
C 185.112970 -1.473768 -5.697066
C 184.051365 -0.143700 -2.806203
C 182.737174 -0.173936 -3.415398
C 181.826892 -0.130388 -2.451915
C 182.511114 -0.075852 -1.175321
N 183.855811 -0.086453 -1.451189
H 180.964412 0.015777 2.853441
H 182.953345 0.087761 4.666507
H 184.656000 0.038810 0.807534
H 185.859712 -1.946629 5.302469
H 185.928715 -1.838711 7.764778
H 185.484136 -0.542468 9.647309
H 184.354038 1.739430 9.706488
H 185.401112 1.296114 11.060432
H 186.030403 2.363408 9.809661
H 185.793267 2.469355 7.547688
H 185.722851 2.329682 5.101197
H 188.355720 0.159393 4.467475
H 190.110666 0.075976 2.618299
H 189.911776 -0.041710 -2.855971
H 187.923247 -0.116973 -4.669513
H 186.221356 -0.103165 -0.809111
H 185.081945 1.892499 -5.300236
H 184.972995 1.801910 -7.747989
H 184.489568 -1.390465 -9.522379
H 185.015266 1.484005 -10.000236
H 184.288909 0.307610 -11.089950
H 183.355110 0.879684 -9.701498
H 185.060807 -2.509295 -7.566904
H 185.171250 -2.385541 -5.107319
H 182.520595 -0.221710 -4.467787
H 180.765526 -0.138666 -2.618870
C 200.258386 -0.028090 -0.000642
C 201.033556 0.019176 1.385985
C 200.452449 0.033545 2.638441
C 201.494539 0.071083 3.592346
C 202.688482 0.079455 2.901058
N 202.399410 0.048528 1.557353
C 204.128550 0.115145 3.563074
C 204.190125 0.183412 5.044356
C 204.255684 -0.984075 5.807392
C 204.286815 -0.911682 7.204336
C 204.220148 0.321063 7.873141
N 204.296029 0.324239 9.277425
C 203.815921 1.496571 9.984108
C 204.209698 1.485086 7.094199
C 204.178643 1.419027 5.695606
C 205.256262 0.086341 2.805303
C 206.570110 0.113407 3.414777
C 207.480074 0.069572 2.450913
N 205.451132 0.031162 1.450059
C 206.795818 0.018509 1.174054
C 207.479526 -0.028090 -0.000642
C 206.704671 -0.069189 -1.387712
C 207.285498 -0.068934 -2.640743
C 206.243487 -0.108028 -3.594878
C 205.049764 -0.129468 -2.903228
N 205.339148 -0.105288 -1.559209
C 203.610425 -0.171213 -3.563906
C 203.542353 -0.239476 -5.044705
C 203.492782 0.930155 -5.806806
C 203.419823 0.864774 -7.203801
C 203.363709 -0.367172 -7.867949
N 203.332722 -0.496344 -9.268561
C 202.791488 0.607535 -10.039280
C 203.471283 -1.532827 -7.092908
C 203.543741 -1.473768 -5.697066
C 202.482136 -0.143700 -2.806203
C 201.167946 -0.173936 -3.415398
C 200.257663 -0.130388 -2.451915
C 200.941886 -0.075852 -1.175321
N 202.286582 -0.086453 -1.451189
H 199.395183 0.015777 2.853441
H 201.384116 0.087761 4.666507
H 203.086771 0.038810 0.807534
H 204.290483 -1.946629 5.302469
H 204.359487 -1.838711 7.764778
H 203.914907 -0.542468 9.647309
H 202.784810 1.739430 9.706488
H 203.831884 1.296114 11.060432
H 204.461174 2.363408 9.809661
H 204.224038 2.469355 7.547688
H 204.153622 2.329682 5.101197
H 206.786491 0.159393 4.467475
H 208.541438 0.075976 2.618299
H 208.342548 -0.041710 -2.855971
H 206.354019 -0.116973 -4.669513
H 204.652128 -0.103165 -0.809111
H 203.512716 1.892499 -5.300236
H 203.403767 1.801910 -7.747989
H 202.920340 -1.390465 -9.522379
H 203.446037 1.484005 -10.000236
H 202.719681 0.307610 -11.089950
H 201.785882 0.879684 -9.701498
H 203.491579 -2.509295 -7.566904
H 203.602021 -2.385541 -5.107319
H 200.951367 -0.221710 -4.467787
H 199.196297 -0.138666 -2.618870
C 218.689158 -0.028090 -0.000642
C 219.464328 0.019176 1.385985
C 218.883221 0.033545 2.638441
C 219.925311 0.071083 3.592346
C 221.119254 0.079455 2.901058
N 220.830181 0.048528 1.557353
C 222.559322 0.115145 3.563074
C 222.620897 0.183412 5.044356
C 222.686456 -0.984075 5.807392
C 222.717587 -0.911682 7.204336
C 222.650920 0.321063 7.873141
N 222.726800 0.324239 9.277425
C 222.246693 1.496571 9.984108
C 222.640469 1.485086 7.094199
C 222.609415 1.419027 5.695606
C 223.687033 0.086341 2.805303
C 225.000882 0.113407 3.414777
C 225.910846 0.069572 2.450913
N 223.881904 0.031162 1.450059
C 225.226590 0.018509 1.174054
C 225.910298 -0.028090 -0.000642
C 225.135442 -0.069189 -1.387712
C 225.716269 -0.068934 -2.640743
C 224.674258 -0.108028 -3.594878
C 223.480535 -0.129468 -2.903228
N 223.769920 -0.105288 -1.559209
C 222.041197 -0.171213 -3.563906
C 221.973124 -0.239476 -5.044705
C 221.923554 0.930155 -5.806806
C 221.850594 0.864774 -7.203801
C 221.794480 -0.367172 -7.867949
N 221.763494 -0.496344 -9.268561
C 221.222259 0.607535 -10.039280
C 221.902054 -1.532827 -7.092908
C 221.974513 -1.473768 -5.697066
C 220.912908 -0.143700 -2.806203
C 219.598717 -0.173936 -3.415398
C 218.688435 -0.130388 -2.451915
C 219.372657 -0.075852 -1.175321
N 220.717354 -0.086453 -1.451189
H 217.825955 0.015777 2.853441
H 219.814888 0.087761 4.666507
H 221.517543 0.038810 0.807534
H 222.721255 -1.946629 5.302469
H 222.790259 -1.838711 7.764778
H 222.345679 -0.542468 9.647309
H 221.215581 1.739430 9.706488
H 222.262656 1.296114 11.060432
H 222.891946 2.363408 9.809661
H 222.654810 2.469355 7.547688
H 222.584394 2.329682 5.101197
H 225.217263 0.159393 4.467475
H 226.972210 0.075976 2.618299
H 226.773320 -0.041710 -2.855971
H 224.784790 -0.116973 -4.669513
H 223.082899 -0.103165 -0.809111
H 221.943488 1.892499 -5.300236
H 221.834539 1.801910 -7.747989
H 221.351112 -1.390465 -9.522379
H 221.876809 1.484005 -10.000236
H 221.150453 0.307610 -11.089950
H 220.216653 0.879684 -9.701498
H 221.922350 -2.509295 -7.566904
H 222.032793 -2.385541 -5.107319
H 219.382139 -0.221710 -4.467787
H 217.627069 -0.138666 -2.618870
