 xtb: 6.5.1 (b24c23e)
          07272214003D

180200  0     0  0            999 V2000
   31.5595    0.0978    0.0067 C   0  0  0  0  0  0  0  0  0  0  0  0
   32.1669    1.3448   -0.0609 C   0  0  0  0  0  0  0  0  0  0  0  0
   31.5125    2.6086   -0.0837 C   0  0  0  0  0  0  0  0  0  0  0  0
   32.4718    3.5782   -0.1600 C   0  0  0  0  0  0  0  0  0  0  0  0
   33.7436    2.9372   -0.2003 C   0  0  0  0  0  0  0  0  0  0  0  0
   33.5088    1.5938   -0.1260 N   0  0  0  0  0  0  0  0  0  0  0  0
   35.0053    3.5377   -0.2805 C   0  0  0  0  0  0  0  0  0  0  0  0
   35.0327    5.0161   -0.3796 C   0  0  0  0  0  0  0  0  0  0  0  0
   35.6878    5.7794    0.5901 C   0  0  0  0  0  0  0  0  0  0  0  0
   35.7077    7.1599    0.5063 C   0  0  0  0  0  0  0  0  0  0  0  0
   35.0716    7.8072   -0.5572 C   0  0  0  0  0  0  0  0  0  0  0  0
   35.0882    9.2279   -0.6460 C   0  0  0  0  0  0  0  0  0  0  0  0
   35.0992   10.3764   -0.7170 N   0  0  0  0  0  0  0  0  0  0  0  0
   34.4174    7.0484   -1.5323 C   0  0  0  0  0  0  0  0  0  0  0  0
   34.3986    5.6684   -1.4400 C   0  0  0  0  0  0  0  0  0  0  0  0
   36.2225    2.8500   -0.2739 C   0  0  0  0  0  0  0  0  0  0  0  0
   37.5165    3.4906   -0.4263 C   0  0  0  0  0  0  0  0  0  0  0  0
   38.4387    2.5082   -0.3610 C   0  0  0  0  0  0  0  0  0  0  0  0
   36.3799    1.5047   -0.1438 N   0  0  0  0  0  0  0  0  0  0  0  0
   37.7080    1.2687   -0.1809 C   0  0  0  0  0  0  0  0  0  0  0  0
   38.3468    0.0217   -0.0380 C   0  0  0  0  0  0  0  0  0  0  0  0
   37.7152   -1.2258    0.1164 C   0  0  0  0  0  0  0  0  0  0  0  0
   38.3614   -2.4815    0.2683 C   0  0  0  0  0  0  0  0  0  0  0  0
   37.3969   -3.4471    0.3477 C   0  0  0  0  0  0  0  0  0  0  0  0
   36.1297   -2.8109    0.2346 C   0  0  0  0  0  0  0  0  0  0  0  0
   36.3735   -1.4691    0.1090 N   0  0  0  0  0  0  0  0  0  0  0  0
   34.8687   -3.4170    0.2634 C   0  0  0  0  0  0  0  0  0  0  0  0
   34.8378   -4.8948    0.3674 C   0  0  0  0  0  0  0  0  0  0  0  0
   34.2067   -5.5167    1.4476 C   0  0  0  0  0  0  0  0  0  0  0  0
   34.1675   -6.8961    1.5427 C   0  0  0  0  0  0  0  0  0  0  0  0
   34.7586   -7.6843    0.5508 C   0  0  0  0  0  0  0  0  0  0  0  0
   34.7140   -9.1043    0.6408 C   0  0  0  0  0  0  0  0  0  0  0  0
   34.6762  -10.2520    0.7142 N   0  0  0  0  0  0  0  0  0  0  0  0
   35.3926   -7.0673   -0.5318 C   0  0  0  0  0  0  0  0  0  0  0  0
   35.4324   -5.6873   -0.6176 C   0  0  0  0  0  0  0  0  0  0  0  0
   33.6500   -2.7334    0.1934 C   0  0  0  0  0  0  0  0  0  0  0  0
   32.3470   -3.3804    0.1686 C   0  0  0  0  0  0  0  0  0  0  0  0
   31.4317   -2.3933    0.0991 C   0  0  0  0  0  0  0  0  0  0  0  0
   32.1744   -1.1455    0.0684 C   0  0  0  0  0  0  0  0  0  0  0  0
   33.5070   -1.3894    0.1169 N   0  0  0  0  0  0  0  0  0  0  0  0
   30.4743    0.1058    0.0131 H   0  0  0  0  0  0  0  0  0  0  0  0
   30.4438    2.7442   -0.0387 H   0  0  0  0  0  0  0  0  0  0  0  0
   32.3178    4.6448   -0.1769 H   0  0  0  0  0  0  0  0  0  0  0  0
   34.2358    0.8862   -0.1162 H   0  0  0  0  0  0  0  0  0  0  0  0
   36.1693    5.2828    1.4248 H   0  0  0  0  0  0  0  0  0  0  0  0
   36.2136    7.7448    1.2656 H   0  0  0  0  0  0  0  0  0  0  0  0
   33.9268    7.5460   -2.3606 H   0  0  0  0  0  0  0  0  0  0  0  0
   33.9031    5.0840   -2.2072 H   0  0  0  0  0  0  0  0  0  0  0  0
   37.6769    4.5458   -0.5773 H   0  0  0  0  0  0  0  0  0  0  0  0
   39.5116    2.5907   -0.4278 H   0  0  0  0  0  0  0  0  0  0  0  0
   39.4293   -2.6204    0.3108 H   0  0  0  0  0  0  0  0  0  0  0  0
   37.5472   -4.5060    0.4809 H   0  0  0  0  0  0  0  0  0  0  0  0
   35.6491   -0.7637    0.0238 H   0  0  0  0  0  0  0  0  0  0  0  0
   33.7579   -4.9092    2.2253 H   0  0  0  0  0  0  0  0  0  0  0  0
   33.6793   -7.3707    2.3859 H   0  0  0  0  0  0  0  0  0  0  0  0
   35.8491   -7.6749   -1.3044 H   0  0  0  0  0  0  0  0  0  0  0  0
   35.9109   -5.2138   -1.4676 H   0  0  0  0  0  0  0  0  0  0  0  0
   32.1798   -4.4453    0.1883 H   0  0  0  0  0  0  0  0  0  0  0  0
   30.3565   -2.4706    0.0614 H   0  0  0  0  0  0  0  0  0  0  0  0
   60.0748   -0.0768    0.1012 C   0  0  0  0  0  0  0  0  0  0  0  0
   59.4733   -1.2826    0.4374 C   0  0  0  0  0  0  0  0  0  0  0  0
   60.1323   -2.4826    0.8264 C   0  0  0  0  0  0  0  0  0  0  0  0
   59.1768   -3.4308    1.0600 C   0  0  0  0  0  0  0  0  0  0  0  0
   57.9033   -2.8433    0.8108 C   0  0  0  0  0  0  0  0  0  0  0  0
   58.1327   -1.5463    0.4496 N   0  0  0  0  0  0  0  0  0  0  0  0
   56.6443   -3.4441    0.9247 C   0  0  0  0  0  0  0  0  0  0  0  0
   56.6242   -4.8786    1.2967 C   0  0  0  0  0  0  0  0  0  0  0  0
   55.9777   -5.3021    2.4605 C   0  0  0  0  0  0  0  0  0  0  0  0
   55.9622   -6.6400    2.8113 C   0  0  0  0  0  0  0  0  0  0  0  0
   56.5930   -7.5858    1.9976 C   0  0  0  0  0  0  0  0  0  0  0  0
   56.5777   -8.9640    2.3535 C   0  0  0  0  0  0  0  0  0  0  0  0
   56.5691  -10.0783    2.6408 N   0  0  0  0  0  0  0  0  0  0  0  0
   57.2392   -7.1679    0.8304 C   0  0  0  0  0  0  0  0  0  0  0  0
   57.2548   -5.8277    0.4884 C   0  0  0  0  0  0  0  0  0  0  0  0
   55.4241   -2.7979    0.7078 C   0  0  0  0  0  0  0  0  0  0  0  0
   54.1341   -3.4617    0.7645 C   0  0  0  0  0  0  0  0  0  0  0  0
   53.2074   -2.5183    0.4974 C   0  0  0  0  0  0  0  0  0  0  0  0
   55.2600   -1.4844    0.3911 N   0  0  0  0  0  0  0  0  0  0  0  0
   53.9318   -1.2830    0.2686 C   0  0  0  0  0  0  0  0  0  0  0  0
   53.2869   -0.0709   -0.0468 C   0  0  0  0  0  0  0  0  0  0  0  0
   53.9122    1.1529   -0.3480 C   0  0  0  0  0  0  0  0  0  0  0  0
   53.2597    2.3841   -0.6225 C   0  0  0  0  0  0  0  0  0  0  0  0
   54.2200    3.3293   -0.8546 C   0  0  0  0  0  0  0  0  0  0  0  0
   55.4909    2.7014   -0.7358 C   0  0  0  0  0  0  0  0  0  0  0  0
   55.2530    1.3895   -0.4222 N   0  0  0  0  0  0  0  0  0  0  0  0
   56.7501    3.2963   -0.8728 C   0  0  0  0  0  0  0  0  0  0  0  0
   56.7762    4.7329   -1.2343 C   0  0  0  0  0  0  0  0  0  0  0  0
   57.3801    5.6631   -0.3843 C   0  0  0  0  0  0  0  0  0  0  0  0
   57.4091    7.0058   -0.7148 C   0  0  0  0  0  0  0  0  0  0  0  0
   56.8353    7.4457   -1.9114 C   0  0  0  0  0  0  0  0  0  0  0  0
   56.8659    8.8265   -2.2560 C   0  0  0  0  0  0  0  0  0  0  0  0
   56.8905    9.9433   -2.5325 N   0  0  0  0  0  0  0  0  0  0  0  0
   56.2313    6.5191   -2.7665 C   0  0  0  0  0  0  0  0  0  0  0  0
   56.2012    5.1784   -2.4270 C   0  0  0  0  0  0  0  0  0  0  0  0
   57.9713    2.6386   -0.6886 C   0  0  0  0  0  0  0  0  0  0  0  0
   59.2728    3.2561   -0.8943 C   0  0  0  0  0  0  0  0  0  0  0  0
   60.1922    2.3094   -0.6202 C   0  0  0  0  0  0  0  0  0  0  0  0
   59.4542    1.1122   -0.2574 C   0  0  0  0  0  0  0  0  0  0  0  0
   58.1199    1.3448   -0.3194 N   0  0  0  0  0  0  0  0  0  0  0  0
   61.1599   -0.0726    0.1240 H   0  0  0  0  0  0  0  0  0  0  0  0
   61.2012   -2.5911    0.9177 H   0  0  0  0  0  0  0  0  0  0  0  0
   59.3345   -4.4460    1.3864 H   0  0  0  0  0  0  0  0  0  0  0  0
   57.4033   -0.8773    0.2268 H   0  0  0  0  0  0  0  0  0  0  0  0
   55.4990   -4.5705    3.1015 H   0  0  0  0  0  0  0  0  0  0  0  0
   55.4631   -6.9599    3.7185 H   0  0  0  0  0  0  0  0  0  0  0  0
   57.7256   -7.8984    0.1945 H   0  0  0  0  0  0  0  0  0  0  0  0
   57.7443   -5.5105   -0.4256 H   0  0  0  0  0  0  0  0  0  0  0  0
   53.9798   -4.5097    0.9637 H   0  0  0  0  0  0  0  0  0  0  0  0
   52.1365   -2.6280    0.4383 H   0  0  0  0  0  0  0  0  0  0  0  0
   52.1910    2.5240   -0.6281 H   0  0  0  0  0  0  0  0  0  0  0  0
   54.0642    4.3727   -1.0752 H   0  0  0  0  0  0  0  0  0  0  0  0
   55.9803    0.7022   -0.2544 H   0  0  0  0  0  0  0  0  0  0  0  0
   57.8143    5.3280    0.5508 H   0  0  0  0  0  0  0  0  0  0  0  0
   57.8751    7.7214   -0.0475 H   0  0  0  0  0  0  0  0  0  0  0  0
   55.7895    6.8558   -3.6971 H   0  0  0  0  0  0  0  0  0  0  0  0
   55.7454    4.4619   -3.1010 H   0  0  0  0  0  0  0  0  0  0  0  0
   59.4359    4.2709   -1.2195 H   0  0  0  0  0  0  0  0  0  0  0  0
   61.2678    2.3811   -0.6584 H   0  0  0  0  0  0  0  0  0  0  0  0
   39.7579    0.0071   -0.0492 C   0  0  0  0  0  0  0  0  0  0  0  0
   40.9743   -0.0118   -0.0561 C   0  0  0  0  0  0  0  0  0  0  0  0
   50.6601   -0.0643   -0.0723 C   0  0  0  0  0  0  0  0  0  0  0  0
   51.8768   -0.0695   -0.0625 C   0  0  0  0  0  0  0  0  0  0  0  0
   42.3847   -0.0232   -0.0639 C   0  0  0  0  0  0  0  0  0  0  0  0
   43.0134    0.9214   -0.8957 C   0  0  0  0  0  0  0  0  0  0  0  0
   42.3691    1.8777   -1.7229 C   0  0  0  0  0  0  0  0  0  0  0  0
   43.3361    2.5778   -2.3904 C   0  0  0  0  0  0  0  0  0  0  0  0
   44.6010    2.0607   -1.9980 C   0  0  0  0  0  0  0  0  0  0  0  0
   44.3556    1.0699   -1.0860 N   0  0  0  0  0  0  0  0  0  0  0  0
   45.8613    2.4836   -2.4381 C   0  0  0  0  0  0  0  0  0  0  0  0
   45.8753    3.5492   -3.4699 C   0  0  0  0  0  0  0  0  0  0  0  0
   45.2863    3.3311   -4.7177 C   0  0  0  0  0  0  0  0  0  0  0  0
   45.3038    4.3172   -5.6875 C   0  0  0  0  0  0  0  0  0  0  0  0
   45.9089    5.5495   -5.4230 C   0  0  0  0  0  0  0  0  0  0  0  0
   45.9270    6.5658   -6.4198 C   0  0  0  0  0  0  0  0  0  0  0  0
   45.9452    7.3841   -7.2284 N   0  0  0  0  0  0  0  0  0  0  0  0
   46.4953    5.7747   -4.1741 C   0  0  0  0  0  0  0  0  0  0  0  0
   46.4793    4.7817   -3.2110 C   0  0  0  0  0  0  0  0  0  0  0  0
   47.0872    1.9807   -1.9984 C   0  0  0  0  0  0  0  0  0  0  0  0
   48.3718    2.4037   -2.5273 C   0  0  0  0  0  0  0  0  0  0  0  0
   49.3094    1.6950   -1.8651 C   0  0  0  0  0  0  0  0  0  0  0  0
   47.2653    1.0212   -1.0497 N   0  0  0  0  0  0  0  0  0  0  0  0
   48.5970    0.8353   -0.9405 C   0  0  0  0  0  0  0  0  0  0  0  0
   49.2506   -0.0615   -0.0736 C   0  0  0  0  0  0  0  0  0  0  0  0
   48.6226   -0.9628    0.8055 C   0  0  0  0  0  0  0  0  0  0  0  0
   49.2676   -1.8298    1.7257 C   0  0  0  0  0  0  0  0  0  0  0  0
   48.3008   -2.5249    2.3986 C   0  0  0  0  0  0  0  0  0  0  0  0
   47.0353   -2.1088    1.9014 C   0  0  0  0  0  0  0  0  0  0  0  0
   47.2806   -1.1591    0.9465 N   0  0  0  0  0  0  0  0  0  0  0  0
   45.7741   -2.5529    2.3165 C   0  0  0  0  0  0  0  0  0  0  0  0
   45.7554   -3.6012    3.3655 C   0  0  0  0  0  0  0  0  0  0  0  0
   46.3380   -4.8498    3.1369 C   0  0  0  0  0  0  0  0  0  0  0  0
   46.3207   -5.8256    4.1175 C   0  0  0  0  0  0  0  0  0  0  0  0
   45.7225   -5.5663    5.3541 C   0  0  0  0  0  0  0  0  0  0  0  0
   45.7072   -6.5658    6.3678 C   0  0  0  0  0  0  0  0  0  0  0  0
   45.6960   -7.3716    7.1891 N   0  0  0  0  0  0  0  0  0  0  0  0
   45.1397   -4.3173    5.5888 C   0  0  0  0  0  0  0  0  0  0  0  0
   45.1555   -3.3486    4.6017 C   0  0  0  0  0  0  0  0  0  0  0  0
   44.5486   -2.0870    1.8351 C   0  0  0  0  0  0  0  0  0  0  0  0
   43.2631   -2.6221    2.2474 C   0  0  0  0  0  0  0  0  0  0  0  0
   42.3253   -1.9197    1.5791 C   0  0  0  0  0  0  0  0  0  0  0  0
   43.0379   -0.9641    0.7544 C   0  0  0  0  0  0  0  0  0  0  0  0
   44.3709   -1.0961    0.9199 N   0  0  0  0  0  0  0  0  0  0  0  0
   41.3016    2.0077   -1.7944 H   0  0  0  0  0  0  0  0  0  0  0  0
   43.1881    3.3864   -3.0873 H   0  0  0  0  0  0  0  0  0  0  0  0
   45.0737    0.5256   -0.6197 H   0  0  0  0  0  0  0  0  0  0  0  0
   44.8282    2.3720   -4.9316 H   0  0  0  0  0  0  0  0  0  0  0  0
   44.8513    4.1377   -6.6557 H   0  0  0  0  0  0  0  0  0  0  0  0
   46.9612    6.7303   -3.9641 H   0  0  0  0  0  0  0  0  0  0  0  0
   46.9252    4.9639   -2.2398 H   0  0  0  0  0  0  0  0  0  0  0  0
   48.5154    3.1316   -3.3092 H   0  0  0  0  0  0  0  0  0  0  0  0
   50.3806    1.7228   -1.9845 H   0  0  0  0  0  0  0  0  0  0  0  0
   50.3348   -1.8982    1.8598 H   0  0  0  0  0  0  0  0  0  0  0  0
   48.4492   -3.2530    3.1791 H   0  0  0  0  0  0  0  0  0  0  0  0
   46.5623   -0.6626    0.4300 H   0  0  0  0  0  0  0  0  0  0  0  0
   46.7913   -5.0599    2.1747 H   0  0  0  0  0  0  0  0  0  0  0  0
   46.7692   -6.7943    3.9305 H   0  0  0  0  0  0  0  0  0  0  0  0
   44.6777   -4.1117    6.5473 H   0  0  0  0  0  0  0  0  0  0  0  0
   44.7133   -2.3771    4.7913 H   0  0  0  0  0  0  0  0  0  0  0  0
   43.1190   -3.4334    2.9423 H   0  0  0  0  0  0  0  0  0  0  0  0
   41.2529   -2.0209    1.6237 H   0  0  0  0  0  0  0  0  0  0  0  0
  1  2  4  0  0  0  0
  2  3  4  0  0  0  0
  3  4  2  0  0  0  0
  4  5  4  0  0  0  0
  2  6  4  0  0  0  0
  5  6  4  0  0  0  0
  5  7  4  0  0  0  0
  7  8  1  0  0  0  0
  8  9  4  0  0  0  0
  9 10  4  0  0  0  0
 10 11  4  0  0  0  0
 11 12  1  0  0  0  0
 12 13  3  0  0  0  0
 11 14  4  0  0  0  0
  8 15  4  0  0  0  0
 14 15  4  0  0  0  0
  7 16  4  0  0  0  0
 16 17  1  0  0  0  0
 17 18  2  0  0  0  0
 16 19  4  0  0  0  0
 18 20  1  0  0  0  0
 19 20  4  0  0  0  0
 20 21  4  0  0  0  0
 21 22  4  0  0  0  0
 22 23  4  0  0  0  0
 23 24  2  0  0  0  0
 24 25  4  0  0  0  0
 22 26  4  0  0  0  0
 25 26  4  0  0  0  0
 25 27  4  0  0  0  0
 27 28  1  0  0  0  0
 28 29  4  0  0  0  0
 29 30  4  0  0  0  0
 30 31  4  0  0  0  0
 31 32  1  0  0  0  0
 32 33  3  0  0  0  0
 31 34  4  0  0  0  0
 28 35  4  0  0  0  0
 34 35  4  0  0  0  0
 27 36  4  0  0  0  0
 36 37  1  0  0  0  0
 37 38  2  0  0  0  0
  1 39  4  0  0  0  0
 38 39  1  0  0  0  0
 36 40  4  0  0  0  0
 39 40  4  0  0  0  0
  1 41  1  0  0  0  0
  3 42  1  0  0  0  0
  4 43  1  0  0  0  0
  6 44  1  0  0  0  0
  9 45  1  0  0  0  0
 10 46  1  0  0  0  0
 14 47  1  0  0  0  0
 15 48  1  0  0  0  0
 17 49  1  0  0  0  0
 18 50  1  0  0  0  0
 23 51  1  0  0  0  0
 24 52  1  0  0  0  0
 26 53  1  0  0  0  0
 29 54  1  0  0  0  0
 30 55  1  0  0  0  0
 34 56  1  0  0  0  0
 35 57  1  0  0  0  0
 37 58  1  0  0  0  0
 38 59  1  0  0  0  0
 60 61  4  0  0  0  0
 61 62  4  0  0  0  0
 62 63  2  0  0  0  0
 63 64  4  0  0  0  0
 61 65  4  0  0  0  0
 64 65  4  0  0  0  0
 64 66  4  0  0  0  0
 66 67  1  0  0  0  0
 67 68  4  0  0  0  0
 68 69  4  0  0  0  0
 69 70  4  0  0  0  0
 70 71  1  0  0  0  0
 71 72  3  0  0  0  0
 70 73  4  0  0  0  0
 67 74  4  0  0  0  0
 73 74  4  0  0  0  0
 66 75  4  0  0  0  0
 75 76  1  0  0  0  0
 76 77  2  0  0  0  0
 75 78  4  0  0  0  0
 77 79  1  0  0  0  0
 78 79  4  0  0  0  0
 79 80  4  0  0  0  0
 80 81  4  0  0  0  0
 81 82  4  0  0  0  0
 82 83  2  0  0  0  0
 83 84  4  0  0  0  0
 81 85  4  0  0  0  0
 84 85  4  0  0  0  0
 84 86  4  0  0  0  0
 86 87  1  0  0  0  0
 87 88  4  0  0  0  0
 88 89  4  0  0  0  0
 89 90  4  0  0  0  0
 90 91  1  0  0  0  0
 91 92  3  0  0  0  0
 90 93  4  0  0  0  0
 87 94  4  0  0  0  0
 93 94  4  0  0  0  0
 86 95  4  0  0  0  0
 95 96  1  0  0  0  0
 96 97  2  0  0  0  0
 60 98  4  0  0  0  0
 97 98  1  0  0  0  0
 95 99  4  0  0  0  0
 98 99  4  0  0  0  0
 60100  1  0  0  0  0
 62101  1  0  0  0  0
 63102  1  0  0  0  0
 65103  1  0  0  0  0
 68104  1  0  0  0  0
 69105  1  0  0  0  0
 73106  1  0  0  0  0
 74107  1  0  0  0  0
 76108  1  0  0  0  0
 77109  1  0  0  0  0
 82110  1  0  0  0  0
 83111  1  0  0  0  0
 85112  1  0  0  0  0
 88113  1  0  0  0  0
 89114  1  0  0  0  0
 93115  1  0  0  0  0
 94116  1  0  0  0  0
 96117  1  0  0  0  0
 97118  1  0  0  0  0
 21119  4  0  0  0  0
119120  3  0  0  0  0
 80122  4  0  0  0  0
121122  3  0  0  0  0
120123  4  0  0  0  0
123124  4  0  0  0  0
124125  4  0  0  0  0
125126  2  0  0  0  0
126127  4  0  0  0  0
124128  4  0  0  0  0
127128  4  0  0  0  0
127129  4  0  0  0  0
129130  1  0  0  0  0
130131  4  0  0  0  0
131132  4  0  0  0  0
132133  4  0  0  0  0
133134  1  0  0  0  0
134135  3  0  0  0  0
133136  4  0  0  0  0
130137  4  0  0  0  0
136137  4  0  0  0  0
129138  4  0  0  0  0
138139  1  0  0  0  0
139140  2  0  0  0  0
138141  4  0  0  0  0
140142  1  0  0  0  0
141142  4  0  0  0  0
121143  4  0  0  0  0
142143  4  0  0  0  0
143144  4  0  0  0  0
144145  4  0  0  0  0
145146  2  0  0  0  0
146147  4  0  0  0  0
144148  4  0  0  0  0
147148  4  0  0  0  0
147149  4  0  0  0  0
149150  1  0  0  0  0
150151  4  0  0  0  0
151152  4  0  0  0  0
152153  4  0  0  0  0
153154  1  0  0  0  0
154155  3  0  0  0  0
153156  4  0  0  0  0
150157  4  0  0  0  0
156157  4  0  0  0  0
149158  4  0  0  0  0
158159  1  0  0  0  0
159160  2  0  0  0  0
123161  4  0  0  0  0
160161  1  0  0  0  0
158162  4  0  0  0  0
161162  4  0  0  0  0
125163  1  0  0  0  0
126164  1  0  0  0  0
128165  1  0  0  0  0
131166  1  0  0  0  0
132167  1  0  0  0  0
136168  1  0  0  0  0
137169  1  0  0  0  0
139170  1  0  0  0  0
140171  1  0  0  0  0
145172  1  0  0  0  0
146173  1  0  0  0  0
148174  1  0  0  0  0
151175  1  0  0  0  0
152176  1  0  0  0  0
156177  1  0  0  0  0
157178  1  0  0  0  0
159179  1  0  0  0  0
160180  1  0  0  0  0
M  END
