189

Zn 23.933703 0.280036 0.202032
C 20.599160 0.153870 0.160373
C 21.260051 -1.007529 0.161141
C 20.608167 -2.310211 0.211538
C 21.546861 -3.237100 0.156683
C 22.851746 -2.569092 0.057430
N 22.676147 -1.151706 0.071807
C 24.042184 -3.195298 -0.057433
C 24.093426 -4.675947 -0.106713
C 23.622724 -5.336601 -1.175527
C 23.611864 -6.842241 -1.249718
N 24.415526 -7.459703 -0.191592
C 24.862279 -6.731421 0.956736
C 24.713096 -5.410070 1.013367
C 25.332575 -2.460754 -0.134621
C 26.612855 -3.090287 -0.482096
C 27.547359 -2.162819 -0.421818
N 25.478344 -1.197648 0.124628
C 26.871361 -0.930617 -0.036007
C 27.467372 0.249061 0.203586
C 26.703349 1.458342 0.578924
C 27.227481 2.519948 1.178855
C 26.185373 3.525799 1.262182
C 25.095442 3.012061 0.702428
N 25.333588 1.680217 0.244866
C 23.824316 3.752820 0.501814
C 23.863537 5.236714 0.507145
C 23.186870 5.935152 1.434160
C 23.162441 7.442209 1.445438
N 24.169230 8.025334 0.554848
C 24.845513 7.256943 -0.446210
C 24.706953 5.933614 -0.484101
C 22.662973 3.104424 0.288263
C 21.361534 3.717416 0.026798
C 20.498227 2.723164 -0.057593
C 21.240127 1.478231 0.134505
N 22.502139 1.688307 0.336777
H 19.515934 0.128879 0.175187
H 19.545270 -2.501240 0.284663
H 21.357530 -4.301843 0.179485
H 23.175697 -4.786526 -1.995766
H 24.009167 -7.158329 -2.237975
H 22.563347 -7.196277 -1.161119
H 24.566341 -8.492597 -0.218348
H 25.344022 -7.256230 1.772262
H 25.072292 -4.868049 1.880411
H 26.780257 -4.126907 -0.744240
H 28.598507 -2.317879 -0.623150
H 28.248912 2.633470 1.517159
H 26.289361 4.521027 1.675325
H 22.587260 5.413065 2.170806
H 23.347391 7.795595 2.481530
H 22.154781 7.785758 1.129929
H 24.311908 9.059137 0.571008
H 25.486330 7.754080 -1.163732
H 25.235382 5.362968 -1.238378
H 21.123384 4.767277 -0.080870
H 19.435803 2.825566 -0.239118
Zn 58.650637 0.219143 0.195420
C 61.985180 0.351309 0.181812
C 61.324288 1.485475 0.431845
C 61.976173 2.746978 0.760675
C 61.037479 3.664039 0.906046
C 59.732594 3.032904 0.665725
N 59.908193 1.645466 0.375539
C 58.542156 3.669169 0.687948
C 58.490914 5.125886 0.957623
C 58.961616 6.000553 0.055523
C 58.972476 7.487026 0.306231
N 58.168814 7.862981 1.472228
C 57.722061 6.905195 2.437473
C 57.871244 5.602486 2.209170
C 57.251765 2.968312 0.454896
C 55.971485 3.657755 0.250643
C 55.036980 2.738965 0.110445
N 57.105995 1.679000 0.436990
C 55.712979 1.452671 0.222784
C 55.116968 0.249061 0.203586
C 55.880991 -1.012598 0.310616
C 55.356859 -2.178230 0.668701
C 56.398967 -3.178523 0.534190
C 57.488898 -2.556613 0.097752
N 57.250752 -1.157599 -0.063280
C 58.760024 -3.237047 -0.257183
C 58.720803 -4.687501 -0.570480
C 59.397470 -5.568635 0.185017
C 59.421899 -7.042988 -0.127443
N 58.415110 -7.421366 -1.122439
C 57.738827 -6.456016 -1.935237
C 57.877387 -5.155397 -1.688206
C 59.921367 -2.557927 -0.326586
C 61.222806 -3.100511 -0.713529
C 62.086113 -2.111319 -0.582548
C 61.344213 -0.936632 -0.127714
N 60.082201 -1.185228 0.024753
H 63.068406 0.372538 0.201645
H 63.039069 2.917860 0.873098
H 61.226810 4.699072 1.156853
H 59.408643 5.639355 -0.863668
H 58.575173 8.007867 -0.591147
H 60.020993 7.813794 0.468756
H 58.017999 8.877544 1.667796
H 57.240318 7.242728 3.346638
H 57.512047 4.886995 2.939667
H 55.804083 4.726481 0.217109
H 53.985832 2.933625 -0.052913
H 54.335428 -2.361719 0.974754
H 56.294979 -4.239232 0.724089
H 59.997080 -5.216830 1.016555
H 59.236949 -7.610525 0.808651
H 60.429559 -7.310810 -0.509338
H 58.272432 -8.434543 -1.328551
H 57.098010 -6.787558 -2.742742
H 57.348957 -4.436153 -2.302420
H 61.460956 -4.102793 -1.044030
H 63.148537 -2.172371 -0.781822
C 28.797359 0.263752 0.213862
C 30.255586 0.241915 0.195988
C 31.389514 0.221162 0.194497
C 32.750895 0.208572 0.192306
C 34.025114 0.218878 0.187541
C 35.213577 0.237676 0.181385
C 36.565937 0.262461 0.197253
C 37.666205 0.263752 0.213862
C 44.794098 0.263752 0.213862
C 46.252325 0.241915 0.195988
C 47.386253 0.221162 0.194497
C 48.747634 0.208572 0.192306
C 50.021853 0.218878 0.187541
C 51.210316 0.237676 0.181385
C 52.562676 0.262461 0.197253
C 53.662944 0.263752 0.213862
Zn 41.000565 -0.021077 -0.308935
C 38.166914 -0.580898 -0.474346
C 38.486143 0.464424 -1.239344
C 38.281982 1.864927 -0.864743
C 39.091134 2.616669 -1.592493
C 39.956109 1.726233 -2.370158
N 39.541334 0.374831 -2.189438
C 41.188644 2.064046 -2.788067
C 41.533310 3.480048 -3.086202
C 40.739758 4.212726 -3.885855
C 41.048305 5.642872 -4.247506
N 42.176659 6.183454 -3.483543
C 43.034825 5.362633 -2.689394
C 42.744813 4.081487 -2.492647
C 42.289307 1.097233 -2.595147
C 43.419262 0.897765 -3.504362
C 44.316287 0.159747 -2.867122
N 42.499997 0.542867 -1.444095
C 43.776880 -0.075512 -1.529635
C 44.440369 -0.580898 -0.474346
C 43.838102 -0.629481 0.881116
C 44.516342 -0.635061 2.025377
C 43.542128 -0.692050 3.107402
C 42.334132 -0.727827 2.550151
N 42.436891 -0.686492 1.125275
C 41.045679 -0.871656 3.289884
C 41.059956 -1.304010 4.710395
C 41.638887 -2.465074 5.054824
C 41.708983 -2.927148 6.487099
N 40.766703 -2.208958 7.343784
C 40.239839 -0.928730 6.978703
C 40.380723 -0.482495 5.730262
C 39.870889 -0.704915 2.650187
C 38.540315 -1.101280 3.117528
C 37.739895 -1.028358 2.062353
C 38.536399 -0.534904 0.940364
N 39.769205 -0.359233 1.280208
H 37.602657 2.233654 -0.108319
H 39.192235 3.687333 -1.484802
H 39.863948 3.761055 -4.334379
H 41.282257 5.695361 -5.333876
H 40.147679 6.264208 -4.049814
H 42.418126 7.188708 -3.599600
H 43.914694 5.790525 -2.232583
H 43.397518 3.485048 -1.868698
H 43.524707 1.296879 -4.505438
H 45.274458 -0.146093 -3.265557
H 45.590625 -0.590115 2.137914
H 43.764199 -0.722991 4.167316
H 42.125334 -3.069568 4.304001
H 42.738481 -2.768052 6.866276
H 41.478781 -4.012811 6.525348
H 40.605808 -2.559071 8.315050
H 39.697444 -0.344560 7.703839
H 39.962480 0.482900 5.463743
H 38.261486 -1.469076 4.095021
H 36.699565 -1.313425 2.040253
