 xtb: 6.5.1 (b24c23e)
          07302211383D

242281  0     0  0            999 V2000
   50.6863    0.0408    0.0333 Ni  0  0  0  0  0  0  0  0  0  0  0  0
   47.2955    0.0528    0.1508 C   0  0  0  0  0  0  0  0  0  0  0  0
   47.9501    1.2650    0.2182 C   0  0  0  0  0  0  0  0  0  0  0  0
   47.2770    2.5254    0.2979 C   0  0  0  0  0  0  0  0  0  0  0  0
   48.2367    3.4700    0.4336 C   0  0  0  0  0  0  0  0  0  0  0  0
   49.4952    2.7830    0.4534 C   0  0  0  0  0  0  0  0  0  0  0  0
   49.3107    1.4342    0.2811 N   0  0  0  0  0  0  0  0  0  0  0  0
   50.7164    3.4067    0.6750 C   0  0  0  0  0  0  0  0  0  0  0  0
   50.7333    4.8635    0.9455 C   0  0  0  0  0  0  0  0  0  0  0  0
   50.0846    5.3838    2.0675 C   0  0  0  0  0  0  0  0  0  0  0  0
   50.1029    6.7431    2.3240 C   0  0  0  0  0  0  0  0  0  0  0  0
   50.7686    7.6116    1.4539 C   0  0  0  0  0  0  0  0  0  0  0  0
   50.7864    9.0114    1.7129 C   0  0  0  0  0  0  0  0  0  0  0  0
   50.8004   10.1427    1.9228 N   0  0  0  0  0  0  0  0  0  0  0  0
   51.4170    7.0957    0.3279 C   0  0  0  0  0  0  0  0  0  0  0  0
   51.4004    5.7346    0.0813 C   0  0  0  0  0  0  0  0  0  0  0  0
   51.9232    2.7199    0.6624 C   0  0  0  0  0  0  0  0  0  0  0  0
   53.1859    3.3242    0.9620 C   0  0  0  0  0  0  0  0  0  0  0  0
   54.1300    2.3710    0.7742 C   0  0  0  0  0  0  0  0  0  0  0  0
   52.0901    1.3942    0.3323 N   0  0  0  0  0  0  0  0  0  0  0  0
   53.4419    1.1877    0.3664 C   0  0  0  0  0  0  0  0  0  0  0  0
   54.0984    0.0164   -0.0208 C   0  0  0  0  0  0  0  0  0  0  0  0
   53.4136   -1.1406   -0.4021 C   0  0  0  0  0  0  0  0  0  0  0  0
   54.0711   -2.3247   -0.8549 C   0  0  0  0  0  0  0  0  0  0  0  0
   53.1064   -3.2570   -1.0434 C   0  0  0  0  0  0  0  0  0  0  0  0
   51.8627   -2.6417   -0.6909 C   0  0  0  0  0  0  0  0  0  0  0  0
   52.0601   -1.3266   -0.3356 N   0  0  0  0  0  0  0  0  0  0  0  0
   50.6474   -3.3134   -0.6668 C   0  0  0  0  0  0  0  0  0  0  0  0
   50.6306   -4.7635   -0.9704 C   0  0  0  0  0  0  0  0  0  0  0  0
   49.9065   -5.2514   -2.0605 C   0  0  0  0  0  0  0  0  0  0  0  0
   49.8893   -6.6050   -2.3455 C   0  0  0  0  0  0  0  0  0  0  0  0
   50.5951   -7.5006   -1.5366 C   0  0  0  0  0  0  0  0  0  0  0  0
   50.5764   -8.8948   -1.8241 C   0  0  0  0  0  0  0  0  0  0  0  0
   50.5591  -10.0217   -2.0558 N   0  0  0  0  0  0  0  0  0  0  0  0
   51.3193   -7.0173   -0.4428 C   0  0  0  0  0  0  0  0  0  0  0  0
   51.3369   -5.6618   -0.1673 C   0  0  0  0  0  0  0  0  0  0  0  0
   49.4476   -2.6836   -0.3601 C   0  0  0  0  0  0  0  0  0  0  0  0
   48.1882   -3.3627   -0.2657 C   0  0  0  0  0  0  0  0  0  0  0  0
   47.2492   -2.4164   -0.0324 C   0  0  0  0  0  0  0  0  0  0  0  0
   47.9359   -1.1621    0.0239 C   0  0  0  0  0  0  0  0  0  0  0  0
   49.2870   -1.3382   -0.1441 N   0  0  0  0  0  0  0  0  0  0  0  0
   46.2127    0.0556    0.1929 H   0  0  0  0  0  0  0  0  0  0  0  0
   46.2070    2.6506    0.2514 H   0  0  0  0  0  0  0  0  0  0  0  0
   48.1170    4.5383    0.5121 H   0  0  0  0  0  0  0  0  0  0  0  0
   49.5771    4.7119    2.7504 H   0  0  0  0  0  0  0  0  0  0  0  0
   49.6030    7.1393    3.2002 H   0  0  0  0  0  0  0  0  0  0  0  0
   51.9311    7.7665   -0.3504 H   0  0  0  0  0  0  0  0  0  0  0  0
   51.8960    5.3385   -0.7979 H   0  0  0  0  0  0  0  0  0  0  0  0
   53.3214    4.3446    1.2814 H   0  0  0  0  0  0  0  0  0  0  0  0
   55.1986    2.4476    0.8943 H   0  0  0  0  0  0  0  0  0  0  0  0
   55.1347   -2.4150   -1.0059 H   0  0  0  0  0  0  0  0  0  0  0  0
   53.2169   -4.2703   -1.3934 H   0  0  0  0  0  0  0  0  0  0  0  0
   49.3669   -4.5586   -2.6963 H   0  0  0  0  0  0  0  0  0  0  0  0
   49.3299   -6.9759   -3.1963 H   0  0  0  0  0  0  0  0  0  0  0  0
   51.8649   -7.7090    0.1884 H   0  0  0  0  0  0  0  0  0  0  0  0
   51.8898   -5.2917    0.6887 H   0  0  0  0  0  0  0  0  0  0  0  0
   48.0541   -4.4279   -0.3618 H   0  0  0  0  0  0  0  0  0  0  0  0
   46.1848   -2.5362    0.0916 H   0  0  0  0  0  0  0  0  0  0  0  0
   90.9920    0.0089    0.0606 Ni  0  0  0  0  0  0  0  0  0  0  0  0
   94.3842    0.0021    0.1716 C   0  0  0  0  0  0  0  0  0  0  0  0
   93.7295   -1.2032    0.3149 C   0  0  0  0  0  0  0  0  0  0  0  0
   94.4042   -2.4555    0.4719 C   0  0  0  0  0  0  0  0  0  0  0  0
   93.4451   -3.3928    0.6535 C   0  0  0  0  0  0  0  0  0  0  0  0
   92.1852   -2.7085    0.6235 C   0  0  0  0  0  0  0  0  0  0  0  0
   92.3687   -1.3706    0.3797 N   0  0  0  0  0  0  0  0  0  0  0  0
   90.9631   -3.3253    0.8575 C   0  0  0  0  0  0  0  0  0  0  0  0
   90.9470   -4.7680    1.1961 C   0  0  0  0  0  0  0  0  0  0  0  0
   91.5783   -5.2316    2.3524 C   0  0  0  0  0  0  0  0  0  0  0  0
   91.5608   -6.5773    2.6728 C   0  0  0  0  0  0  0  0  0  0  0  0
   90.9128   -7.4889    1.8340 C   0  0  0  0  0  0  0  0  0  0  0  0
   90.8952   -8.8748    2.1595 C   0  0  0  0  0  0  0  0  0  0  0  0
   90.8809   -9.9946    2.4239 N   0  0  0  0  0  0  0  0  0  0  0  0
   90.2818   -7.0299    0.6740 C   0  0  0  0  0  0  0  0  0  0  0  0
   90.2979   -5.6820    0.3632 C   0  0  0  0  0  0  0  0  0  0  0  0
   89.7543   -2.6444    0.7969 C   0  0  0  0  0  0  0  0  0  0  0  0
   88.4901   -3.2415    1.1054 C   0  0  0  0  0  0  0  0  0  0  0  0
   87.5458   -2.2979    0.8772 C   0  0  0  0  0  0  0  0  0  0  0  0
   89.5878   -1.3324    0.4167 N   0  0  0  0  0  0  0  0  0  0  0  0
   88.2350   -1.1270    0.4359 C   0  0  0  0  0  0  0  0  0  0  0  0
   87.5788    0.0342    0.0228 C   0  0  0  0  0  0  0  0  0  0  0  0
   88.2606    1.1795   -0.3936 C   0  0  0  0  0  0  0  0  0  0  0  0
   87.5991    2.3484   -0.8797 C   0  0  0  0  0  0  0  0  0  0  0  0
   88.5637    3.2668   -1.1256 C   0  0  0  0  0  0  0  0  0  0  0  0
   89.8117    2.6599   -0.7730 C   0  0  0  0  0  0  0  0  0  0  0  0
   89.6161    1.3626   -0.3572 N   0  0  0  0  0  0  0  0  0  0  0  0
   91.0304    3.3243   -0.8104 C   0  0  0  0  0  0  0  0  0  0  0  0
   91.0494    4.7546   -1.1978 C   0  0  0  0  0  0  0  0  0  0  0  0
   91.7457    5.1694   -2.3352 C   0  0  0  0  0  0  0  0  0  0  0  0
   91.7648    6.5032   -2.7018 C   0  0  0  0  0  0  0  0  0  0  0  0
   91.0890    7.4521   -1.9289 C   0  0  0  0  0  0  0  0  0  0  0  0
   91.1099    8.8261   -2.3007 C   0  0  0  0  0  0  0  0  0  0  0  0
   91.1261    9.9369   -2.6006 N   0  0  0  0  0  0  0  0  0  0  0  0
   90.3934    7.0421   -0.7876 C   0  0  0  0  0  0  0  0  0  0  0  0
   90.3736    5.7058   -0.4303 C   0  0  0  0  0  0  0  0  0  0  0  0
   92.2330    2.7064   -0.4918 C   0  0  0  0  0  0  0  0  0  0  0  0
   93.4952    3.3859   -0.4548 C   0  0  0  0  0  0  0  0  0  0  0  0
   94.4341    2.4531   -0.1724 C   0  0  0  0  0  0  0  0  0  0  0  0
   93.7448    1.2070   -0.0310 C   0  0  0  0  0  0  0  0  0  0  0  0
   92.3926    1.3758   -0.1976 N   0  0  0  0  0  0  0  0  0  0  0  0
   95.4672    0.0010    0.2117 H   0  0  0  0  0  0  0  0  0  0  0  0
   95.4747   -2.5808    0.4402 H   0  0  0  0  0  0  0  0  0  0  0  0
   93.5661   -4.4547    0.7931 H   0  0  0  0  0  0  0  0  0  0  0  0
   92.0718   -4.5259    3.0110 H   0  0  0  0  0  0  0  0  0  0  0  0
   92.0473   -6.9293    3.5748 H   0  0  0  0  0  0  0  0  0  0  0  0
   89.7814   -7.7343    0.0200 H   0  0  0  0  0  0  0  0  0  0  0  0
   89.8161   -5.3303   -0.5421 H   0  0  0  0  0  0  0  0  0  0  0  0
   88.3539   -4.2505    1.4588 H   0  0  0  0  0  0  0  0  0  0  0  0
   86.4765   -2.3725    0.9915 H   0  0  0  0  0  0  0  0  0  0  0  0
   86.5332    2.4375   -1.0141 H   0  0  0  0  0  0  0  0  0  0  0  0
   88.4507    4.2653   -1.5150 H   0  0  0  0  0  0  0  0  0  0  0  0
   92.2621    4.4347   -2.9425 H   0  0  0  0  0  0  0  0  0  0  0  0
   92.3021    6.8172   -3.5889 H   0  0  0  0  0  0  0  0  0  0  0  0
   89.8716    7.7755   -0.1841 H   0  0  0  0  0  0  0  0  0  0  0  0
   89.8429    5.3929    0.4618 H   0  0  0  0  0  0  0  0  0  0  0  0
   93.6306    4.4426   -0.6185 H   0  0  0  0  0  0  0  0  0  0  0  0
   95.5001    2.5770   -0.0669 H   0  0  0  0  0  0  0  0  0  0  0  0
   56.7253   -0.0017   -0.0415 C   0  0  0  0  0  0  0  0  0  0  0  0
   55.5039    0.0048   -0.0339 C   0  0  0  0  0  0  0  0  0  0  0  0
   58.0756   -0.0056   -0.0480 C   0  0  0  0  0  0  0  0  0  0  0  0
   59.2972   -0.0062   -0.0514 C   0  0  0  0  0  0  0  0  0  0  0  0
   70.1595    0.0172    0.0154 C   0  0  0  0  0  0  0  0  0  0  0  0
   68.9379    0.0123    0.0069 C   0  0  0  0  0  0  0  0  0  0  0  0
   71.5097    0.0228    0.0196 C   0  0  0  0  0  0  0  0  0  0  0  0
   72.7313    0.0287    0.0201 C   0  0  0  0  0  0  0  0  0  0  0  0
   83.5982    0.0586    0.0038 C   0  0  0  0  0  0  0  0  0  0  0  0
   82.3773    0.0607   -0.0010 C   0  0  0  0  0  0  0  0  0  0  0  0
   84.9502    0.0536    0.0104 C   0  0  0  0  0  0  0  0  0  0  0  0
   86.1710    0.0464    0.0158 C   0  0  0  0  0  0  0  0  0  0  0  0
   64.1177    0.0061   -0.0358 Ni  0  0  0  0  0  0  0  0  0  0  0  0
   60.7023   -0.0025   -0.0519 C   0  0  0  0  0  0  0  0  0  0  0  0
   61.3792   -1.1905   -0.3419 C   0  0  0  0  0  0  0  0  0  0  0  0
   60.7143   -2.4257   -0.6085 C   0  0  0  0  0  0  0  0  0  0  0  0
   61.6731   -3.3136   -0.9672 C   0  0  0  0  0  0  0  0  0  0  0  0
   62.9203   -2.6130   -0.9265 C   0  0  0  0  0  0  0  0  0  0  0  0
   62.7318   -1.3183   -0.4999 N   0  0  0  0  0  0  0  0  0  0  0  0
   64.1320   -3.1634   -1.3239 C   0  0  0  0  0  0  0  0  0  0  0  0
   64.1377   -4.5345   -1.8851 C   0  0  0  0  0  0  0  0  0  0  0  0
   63.4288   -4.8234   -3.0533 C   0  0  0  0  0  0  0  0  0  0  0  0
   63.4355   -6.1013   -3.5831 C   0  0  0  0  0  0  0  0  0  0  0  0
   64.1498   -7.1203   -2.9459 C   0  0  0  0  0  0  0  0  0  0  0  0
   64.1564   -8.4373   -3.4866 C   0  0  0  0  0  0  0  0  0  0  0  0
   64.1619   -9.5016   -3.9239 N   0  0  0  0  0  0  0  0  0  0  0  0
   64.8576   -6.8368   -1.7742 C   0  0  0  0  0  0  0  0  0  0  0  0
   64.8523   -5.5551   -1.2537 C   0  0  0  0  0  0  0  0  0  0  0  0
   65.3386   -2.4843   -1.2165 C   0  0  0  0  0  0  0  0  0  0  0  0
   66.5927   -3.0072   -1.6659 C   0  0  0  0  0  0  0  0  0  0  0  0
   67.5438   -2.1178   -1.2910 C   0  0  0  0  0  0  0  0  0  0  0  0
   65.5156   -1.2591   -0.6148 N   0  0  0  0  0  0  0  0  0  0  0  0
   66.8672   -1.0509   -0.6254 C   0  0  0  0  0  0  0  0  0  0  0  0
   67.5329    0.0094   -0.0038 C   0  0  0  0  0  0  0  0  0  0  0  0
   66.8538    1.0694    0.6039 C   0  0  0  0  0  0  0  0  0  0  0  0
   67.5156    2.1396    1.2790 C   0  0  0  0  0  0  0  0  0  0  0  0
   66.5563    3.0303    1.6292 C   0  0  0  0  0  0  0  0  0  0  0  0
   65.3123    2.5042    1.1563 C   0  0  0  0  0  0  0  0  0  0  0  0
   65.5025    1.2760    0.5649 N   0  0  0  0  0  0  0  0  0  0  0  0
   64.1032    3.1827    1.2351 C   0  0  0  0  0  0  0  0  0  0  0  0
   64.0967    4.5587    1.7842 C   0  0  0  0  0  0  0  0  0  0  0  0
   63.3641    4.8581    2.9351 C   0  0  0  0  0  0  0  0  0  0  0  0
   63.3575    6.1414    3.4515 C   0  0  0  0  0  0  0  0  0  0  0  0
   64.0823    7.1553    2.8182 C   0  0  0  0  0  0  0  0  0  0  0  0
   64.0737    8.4784    3.3439 C   0  0  0  0  0  0  0  0  0  0  0  0
   64.0677    9.5483    3.7673 N   0  0  0  0  0  0  0  0  0  0  0  0
   64.8151    6.8610    1.6645 C   0  0  0  0  0  0  0  0  0  0  0  0
   64.8227    5.5740    1.1575 C   0  0  0  0  0  0  0  0  0  0  0  0
   62.8995    2.6262    0.8224 C   0  0  0  0  0  0  0  0  0  0  0  0
   61.6490    3.3218    0.8426 C   0  0  0  0  0  0  0  0  0  0  0  0
   60.6975    2.4254    0.4854 C   0  0  0  0  0  0  0  0  0  0  0  0
   61.3706    1.1910    0.2369 C   0  0  0  0  0  0  0  0  0  0  0  0
   62.7210    1.3268    0.4055 N   0  0  0  0  0  0  0  0  0  0  0  0
   59.6500   -2.5777   -0.5297 H   0  0  0  0  0  0  0  0  0  0  0  0
   61.5564   -4.3517   -1.2323 H   0  0  0  0  0  0  0  0  0  0  0  0
   62.8828   -4.0330   -3.5557 H   0  0  0  0  0  0  0  0  0  0  0  0
   62.8888   -6.3168   -4.4936 H   0  0  0  0  0  0  0  0  0  0  0  0
   65.4091   -7.6253   -1.2756 H   0  0  0  0  0  0  0  0  0  0  0  0
   65.3934   -5.3411   -0.3390 H   0  0  0  0  0  0  0  0  0  0  0  0
   66.7192   -3.9337   -2.2017 H   0  0  0  0  0  0  0  0  0  0  0  0
   68.6099   -2.1664   -1.4434 H   0  0  0  0  0  0  0  0  0  0  0  0
   68.5782    2.1895    1.4536 H   0  0  0  0  0  0  0  0  0  0  0  0
   66.6708    3.9593    2.1633 H   0  0  0  0  0  0  0  0  0  0  0  0
   62.8096    4.0717    3.4347 H   0  0  0  0  0  0  0  0  0  0  0  0
   62.7918    6.3652    4.3483 H   0  0  0  0  0  0  0  0  0  0  0  0
   65.3752    7.6454    1.1691 H   0  0  0  0  0  0  0  0  0  0  0  0
   65.3830    5.3515    0.2563 H   0  0  0  0  0  0  0  0  0  0  0  0
   61.5250    4.3622    1.0949 H   0  0  0  0  0  0  0  0  0  0  0  0
   59.6334    2.5721    0.3948 H   0  0  0  0  0  0  0  0  0  0  0  0
   77.5534    0.0519   -0.0044 Ni  0  0  0  0  0  0  0  0  0  0  0  0
   74.1365    0.0353    0.0155 C   0  0  0  0  0  0  0  0  0  0  0  0
   74.8125   -1.1468   -0.2991 C   0  0  0  0  0  0  0  0  0  0  0  0
   74.1453   -2.3785   -0.5767 C   0  0  0  0  0  0  0  0  0  0  0  0
   75.1022   -3.2641   -0.9450 C   0  0  0  0  0  0  0  0  0  0  0  0
   76.3504   -2.5655   -0.8997 C   0  0  0  0  0  0  0  0  0  0  0  0
   76.1644   -1.2738   -0.4625 N   0  0  0  0  0  0  0  0  0  0  0  0
   77.5608   -3.1178   -1.2970 C   0  0  0  0  0  0  0  0  0  0  0  0
   77.5622   -4.4878   -1.8614 C   0  0  0  0  0  0  0  0  0  0  0  0
   76.8583   -4.7695   -3.0345 C   0  0  0  0  0  0  0  0  0  0  0  0
   76.8589   -6.0464   -3.5666 C   0  0  0  0  0  0  0  0  0  0  0  0
   77.5620   -7.0716   -2.9270 C   0  0  0  0  0  0  0  0  0  0  0  0
   77.5620   -8.3877   -3.4699 C   0  0  0  0  0  0  0  0  0  0  0  0
   77.5620   -9.4511   -3.9096 N   0  0  0  0  0  0  0  0  0  0  0  0
   78.2650   -6.7953   -1.7507 C   0  0  0  0  0  0  0  0  0  0  0  0
   78.2657   -5.5145   -1.2278 C   0  0  0  0  0  0  0  0  0  0  0  0
   78.7694   -2.4428   -1.1864 C   0  0  0  0  0  0  0  0  0  0  0  0
   80.0222   -2.9726   -1.6316 C   0  0  0  0  0  0  0  0  0  0  0  0
   80.9756   -2.0838   -1.2620 C   0  0  0  0  0  0  0  0  0  0  0  0
   78.9490   -1.2152   -0.5911 N   0  0  0  0  0  0  0  0  0  0  0  0
   80.3016   -1.0098   -0.6049 C   0  0  0  0  0  0  0  0  0  0  0  0
   80.9700    0.0600   -0.0050 C   0  0  0  0  0  0  0  0  0  0  0  0
   80.2965    1.1300    0.5885 C   0  0  0  0  0  0  0  0  0  0  0  0
   80.9658    2.2133    1.2352 C   0  0  0  0  0  0  0  0  0  0  0  0
   80.0089    3.1031    1.5928 C   0  0  0  0  0  0  0  0  0  0  0  0
   78.7582    2.5630    1.1538 C   0  0  0  0  0  0  0  0  0  0  0  0
   78.9431    1.3302    0.5715 N   0  0  0  0  0  0  0  0  0  0  0  0
   77.5457    3.2311    1.2645 C   0  0  0  0  0  0  0  0  0  0  0  0
   77.5430    4.6083    1.8112 C   0  0  0  0  0  0  0  0  0  0  0  0
   76.8469    4.9024    2.9858 C   0  0  0  0  0  0  0  0  0  0  0  0
   76.8440    6.1867    3.4997 C   0  0  0  0  0  0  0  0  0  0  0  0
   77.5361    7.2069    2.8403 C   0  0  0  0  0  0  0  0  0  0  0  0
   77.5320    8.5307    3.3639 C   0  0  0  0  0  0  0  0  0  0  0  0
   77.5282    9.6007    3.7872 N   0  0  0  0  0  0  0  0  0  0  0  0
   78.2321    6.9178    1.6628 C   0  0  0  0  0  0  0  0  0  0  0  0
   78.2362    5.6299    1.1581 C   0  0  0  0  0  0  0  0  0  0  0  0
   76.3359    2.6642    0.8866 C   0  0  0  0  0  0  0  0  0  0  0  0
   75.0812    3.3504    0.9434 C   0  0  0  0  0  0  0  0  0  0  0  0
   74.1284    2.4516    0.5973 C   0  0  0  0  0  0  0  0  0  0  0  0
   74.8043    1.2248    0.3194 C   0  0  0  0  0  0  0  0  0  0  0  0
   76.1570    1.3668    0.4631 N   0  0  0  0  0  0  0  0  0  0  0  0
   73.0810   -2.5302   -0.4964 H   0  0  0  0  0  0  0  0  0  0  0  0
   74.9837   -4.2997   -1.2189 H   0  0  0  0  0  0  0  0  0  0  0  0
   76.3206   -3.9743   -3.5383 H   0  0  0  0  0  0  0  0  0  0  0  0
   76.3158   -6.2564   -4.4805 H   0  0  0  0  0  0  0  0  0  0  0  0
   78.8078   -7.5886   -1.2503 H   0  0  0  0  0  0  0  0  0  0  0  0
   78.8029   -5.3061   -0.3095 H   0  0  0  0  0  0  0  0  0  0  0  0
   80.1460   -3.9027   -2.1616 H   0  0  0  0  0  0  0  0  0  0  0  0
   82.0415   -2.1360   -1.4142 H   0  0  0  0  0  0  0  0  0  0  0  0
   82.0313    2.2712    1.3876 H   0  0  0  0  0  0  0  0  0  0  0  0
   80.1288    4.0399    2.1119 H   0  0  0  0  0  0  0  0  0  0  0  0
   76.3182    4.1113    3.5054 H   0  0  0  0  0  0  0  0  0  0  0  0
   76.3067    6.4065    4.4148 H   0  0  0  0  0  0  0  0  0  0  0  0
   78.7668    7.7070    1.1473 H   0  0  0  0  0  0  0  0  0  0  0  0
   78.7679    5.4113    0.2389 H   0  0  0  0  0  0  0  0  0  0  0  0
   74.9557    4.3871    1.2100 H   0  0  0  0  0  0  0  0  0  0  0  0
   73.0615    2.5915    0.5315 H   0  0  0  0  0  0  0  0  0  0  0  0
  2  3  4  0  0  0  0
  3  4  4  0  0  0  0
  4  5  2  0  0  0  0
  5  6  4  0  0  0  0
  1  7  1  0  0  0  0
  3  7  4  0  0  0  0
  6  7  4  0  0  0  0
  6  8  4  0  0  0  0
  8  9  1  0  0  0  0
  9 10  4  0  0  0  0
 10 11  4  0  0  0  0
 11 12  4  0  0  0  0
 12 13  1  0  0  0  0
 13 14  3  0  0  0  0
 12 15  4  0  0  0  0
  9 16  4  0  0  0  0
 15 16  4  0  0  0  0
  8 17  4  0  0  0  0
 17 18  4  0  0  0  0
 18 19  2  0  0  0  0
  1 20  1  0  0  0  0
 17 20  4  0  0  0  0
 19 21  4  0  0  0  0
 20 21  4  0  0  0  0
 21 22  4  0  0  0  0
 22 23  4  0  0  0  0
 23 24  4  0  0  0  0
 24 25  2  0  0  0  0
 25 26  4  0  0  0  0
  1 27  1  0  0  0  0
 23 27  4  0  0  0  0
 26 27  4  0  0  0  0
 26 28  4  0  0  0  0
 28 29  1  0  0  0  0
 29 30  4  0  0  0  0
 30 31  4  0  0  0  0
 31 32  4  0  0  0  0
 32 33  1  0  0  0  0
 33 34  3  0  0  0  0
 32 35  4  0  0  0  0
 29 36  4  0  0  0  0
 35 36  4  0  0  0  0
 28 37  4  0  0  0  0
 37 38  4  0  0  0  0
 38 39  2  0  0  0  0
  2 40  4  0  0  0  0
 39 40  4  0  0  0  0
  1 41  1  0  0  0  0
 37 41  4  0  0  0  0
 40 41  4  0  0  0  0
  2 42  1  0  0  0  0
  4 43  1  0  0  0  0
  5 44  1  0  0  0  0
 10 45  1  0  0  0  0
 11 46  1  0  0  0  0
 15 47  1  0  0  0  0
 16 48  1  0  0  0  0
 18 49  1  0  0  0  0
 19 50  1  0  0  0  0
 24 51  1  0  0  0  0
 25 52  1  0  0  0  0
 30 53  1  0  0  0  0
 31 54  1  0  0  0  0
 35 55  1  0  0  0  0
 36 56  1  0  0  0  0
 38 57  1  0  0  0  0
 39 58  1  0  0  0  0
 60 61  4  0  0  0  0
 61 62  4  0  0  0  0
 62 63  2  0  0  0  0
 63 64  4  0  0  0  0
 59 65  1  0  0  0  0
 61 65  4  0  0  0  0
 64 65  4  0  0  0  0
 64 66  4  0  0  0  0
 66 67  1  0  0  0  0
 67 68  4  0  0  0  0
 68 69  4  0  0  0  0
 69 70  4  0  0  0  0
 70 71  1  0  0  0  0
 71 72  3  0  0  0  0
 70 73  4  0  0  0  0
 67 74  4  0  0  0  0
 73 74  4  0  0  0  0
 66 75  4  0  0  0  0
 75 76  4  0  0  0  0
 76 77  2  0  0  0  0
 59 78  1  0  0  0  0
 75 78  4  0  0  0  0
 77 79  4  0  0  0  0
 78 79  4  0  0  0  0
 79 80  4  0  0  0  0
 80 81  4  0  0  0  0
 81 82  4  0  0  0  0
 82 83  2  0  0  0  0
 83 84  4  0  0  0  0
 59 85  1  0  0  0  0
 81 85  4  0  0  0  0
 84 85  4  0  0  0  0
 84 86  4  0  0  0  0
 86 87  1  0  0  0  0
 87 88  4  0  0  0  0
 88 89  4  0  0  0  0
 89 90  4  0  0  0  0
 90 91  1  0  0  0  0
 91 92  3  0  0  0  0
 90 93  4  0  0  0  0
 87 94  4  0  0  0  0
 93 94  4  0  0  0  0
 86 95  4  0  0  0  0
 95 96  4  0  0  0  0
 96 97  2  0  0  0  0
 60 98  4  0  0  0  0
 97 98  4  0  0  0  0
 59 99  1  0  0  0  0
 95 99  4  0  0  0  0
 98 99  4  0  0  0  0
 60100  1  0  0  0  0
 62101  1  0  0  0  0
 63102  1  0  0  0  0
 68103  1  0  0  0  0
 69104  1  0  0  0  0
 73105  1  0  0  0  0
 74106  1  0  0  0  0
 76107  1  0  0  0  0
 77108  1  0  0  0  0
 82109  1  0  0  0  0
 83110  1  0  0  0  0
 88111  1  0  0  0  0
 89112  1  0  0  0  0
 93113  1  0  0  0  0
 94114  1  0  0  0  0
 96115  1  0  0  0  0
 97116  1  0  0  0  0
 22118  4  0  0  0  0
117118  3  0  0  0  0
117119  4  0  0  0  0
119120  3  0  0  0  0
121122  3  0  0  0  0
121123  4  0  0  0  0
123124  3  0  0  0  0
125126  3  0  0  0  0
125127  4  0  0  0  0
 80128  4  0  0  0  0
127128  3  0  0  0  0
120130  4  0  0  0  0
130131  4  0  0  0  0
131132  4  0  0  0  0
132133  2  0  0  0  0
133134  4  0  0  0  0
129135  1  0  0  0  0
131135  4  0  0  0  0
134135  4  0  0  0  0
134136  4  0  0  0  0
136137  1  0  0  0  0
137138  4  0  0  0  0
138139  4  0  0  0  0
139140  4  0  0  0  0
140141  1  0  0  0  0
141142  3  0  0  0  0
140143  4  0  0  0  0
137144  4  0  0  0  0
143144  4  0  0  0  0
136145  4  0  0  0  0
145146  4  0  0  0  0
146147  2  0  0  0  0
129148  1  0  0  0  0
145148  4  0  0  0  0
147149  4  0  0  0  0
148149  4  0  0  0  0
122150  4  0  0  0  0
149150  4  0  0  0  0
150151  4  0  0  0  0
151152  4  0  0  0  0
152153  2  0  0  0  0
153154  4  0  0  0  0
129155  1  0  0  0  0
151155  4  0  0  0  0
154155  4  0  0  0  0
154156  4  0  0  0  0
156157  1  0  0  0  0
157158  4  0  0  0  0
158159  4  0  0  0  0
159160  4  0  0  0  0
160161  1  0  0  0  0
161162  3  0  0  0  0
160163  4  0  0  0  0
157164  4  0  0  0  0
163164  4  0  0  0  0
156165  4  0  0  0  0
165166  4  0  0  0  0
166167  2  0  0  0  0
130168  4  0  0  0  0
167168  4  0  0  0  0
129169  1  0  0  0  0
165169  4  0  0  0  0
168169  4  0  0  0  0
132170  1  0  0  0  0
133171  1  0  0  0  0
138172  1  0  0  0  0
139173  1  0  0  0  0
143174  1  0  0  0  0
144175  1  0  0  0  0
146176  1  0  0  0  0
147177  1  0  0  0  0
152178  1  0  0  0  0
153179  1  0  0  0  0
158180  1  0  0  0  0
159181  1  0  0  0  0
163182  1  0  0  0  0
164183  1  0  0  0  0
166184  1  0  0  0  0
167185  1  0  0  0  0
124187  4  0  0  0  0
187188  4  0  0  0  0
188189  4  0  0  0  0
189190  2  0  0  0  0
190191  4  0  0  0  0
186192  1  0  0  0  0
188192  4  0  0  0  0
191192  4  0  0  0  0
191193  4  0  0  0  0
193194  1  0  0  0  0
194195  4  0  0  0  0
195196  4  0  0  0  0
196197  4  0  0  0  0
197198  1  0  0  0  0
198199  3  0  0  0  0
197200  4  0  0  0  0
194201  4  0  0  0  0
200201  4  0  0  0  0
193202  4  0  0  0  0
202203  4  0  0  0  0
203204  2  0  0  0  0
186205  1  0  0  0  0
202205  4  0  0  0  0
204206  4  0  0  0  0
205206  4  0  0  0  0
126207  4  0  0  0  0
206207  4  0  0  0  0
207208  4  0  0  0  0
208209  4  0  0  0  0
209210  2  0  0  0  0
210211  4  0  0  0  0
186212  1  0  0  0  0
208212  4  0  0  0  0
211212  4  0  0  0  0
211213  4  0  0  0  0
213214  1  0  0  0  0
214215  4  0  0  0  0
215216  4  0  0  0  0
216217  4  0  0  0  0
217218  1  0  0  0  0
218219  3  0  0  0  0
217220  4  0  0  0  0
214221  4  0  0  0  0
220221  4  0  0  0  0
213222  4  0  0  0  0
222223  4  0  0  0  0
223224  2  0  0  0  0
187225  4  0  0  0  0
224225  4  0  0  0  0
186226  1  0  0  0  0
222226  4  0  0  0  0
225226  4  0  0  0  0
189227  1  0  0  0  0
190228  1  0  0  0  0
195229  1  0  0  0  0
196230  1  0  0  0  0
200231  1  0  0  0  0
201232  1  0  0  0  0
203233  1  0  0  0  0
204234  1  0  0  0  0
209235  1  0  0  0  0
210236  1  0  0  0  0
215237  1  0  0  0  0
216238  1  0  0  0  0
220239  1  0  0  0  0
221240  1  0  0  0  0
223241  1  0  0  0  0
224242  1  0  0  0  0
M  END
