197

Zn 29.212884 -0.048181 -0.019087
C 25.879745 0.102831 0.087322
C 26.546557 1.259777 0.065923
C 25.898185 2.565395 0.064718
C 26.841826 3.487465 0.056757
C 28.146973 2.812416 0.054689
N 27.966991 1.396190 0.059725
C 29.340923 3.437307 0.084606
C 29.378447 4.916010 0.092121
C 29.169108 5.631285 -1.094853
C 29.190762 7.029624 -1.091915
O 28.976485 7.710802 -2.290303
C 29.423826 7.725283 0.108236
O 29.439454 9.120816 0.104171
C 29.637601 7.009270 1.300328
O 29.870447 7.691968 2.492969
C 29.615125 5.608039 1.286935
C 30.639130 2.713202 0.122962
C 31.938404 3.382728 0.254386
C 32.872729 2.455558 0.239731
N 30.773754 1.425428 0.022377
C 32.179625 1.181657 0.088203
C 32.774834 -0.019052 -0.020193
C 32.021874 -1.284583 -0.200344
C 32.587164 -2.446524 -0.505472
C 31.539668 -3.445584 -0.535669
C 30.397978 -2.831417 -0.249613
N 30.611729 -1.434699 -0.023324
C 29.088868 -3.525131 -0.131144
C 29.070052 -5.003912 -0.149750
C 29.216682 -5.721915 1.043658
C 29.195397 -7.120377 1.034801
O 29.337126 -7.805661 2.241532
C 29.032071 -7.812343 -0.179184
O 29.015240 -9.207777 -0.180200
C 28.890167 -7.092562 -1.379728
O 28.732727 -7.771966 -2.586938
C 28.908339 -5.691250 -1.359714
C 27.926194 -2.859956 -0.009050
C 26.602264 -3.468127 0.109666
C 25.743253 -2.469484 0.161401
C 26.509363 -1.226853 0.081407
N 27.784097 -1.441605 -0.019037
H 24.796861 0.135616 0.111942
H 24.833559 2.761155 0.073832
H 26.658146 4.554115 0.063315
H 28.985376 5.100963 -2.021544
H 28.981459 8.722242 -2.343278
H 29.589828 9.661071 0.947177
H 30.026760 7.199643 3.364890
H 29.777851 5.057440 2.205595
H 32.121970 4.445288 0.344299
H 33.936517 2.638735 0.314487
H 33.636816 -2.631433 -0.687445
H 31.674561 -4.500350 -0.738613
H 29.343857 -5.194160 1.981107
H 29.318810 -8.816727 2.291900
H 28.901347 -9.745894 -1.030627
H 28.632888 -7.277666 -3.466355
H 28.798000 -5.137767 -2.284759
H 26.350372 -4.520286 0.144159
H 24.668255 -2.567287 0.244846
Zn 64.235417 0.009764 -0.015793
C 67.568556 -0.152336 0.072814
C 66.901744 -1.299400 -0.079582
C 67.550115 -2.596468 -0.228765
C 66.606475 -3.511694 -0.341187
C 65.301328 -2.840760 -0.266728
N 65.481310 -1.434232 -0.101202
C 64.107378 -3.465015 -0.307832
C 64.069854 -4.935041 -0.467970
C 64.279193 -5.511168 -1.728368
C 64.257539 -6.900829 -1.883945
O 64.471816 -7.441785 -3.151818
C 64.024475 -7.728036 -0.770377
O 64.008846 -9.114115 -0.932594
C 63.810700 -7.151755 0.495189
O 63.577854 -7.965234 1.602764
C 63.833176 -5.758037 0.640706
C 62.809170 -2.749924 -0.187650
C 61.509897 -3.430031 -0.132960
C 60.575571 -2.507176 -0.042430
N 62.674547 -1.459048 -0.141623
C 61.268676 -1.224309 -0.048590
C 60.673467 -0.019052 -0.020193
C 61.426426 1.258743 -0.055741
C 60.861137 2.447781 -0.227201
C 61.908633 3.443826 -0.143965
C 63.050323 2.801193 0.070635
N 62.836572 1.387828 0.137154
C 64.359433 3.477009 0.266970
C 64.378249 4.948369 0.416097
C 64.231619 5.526477 1.683197
C 64.252903 6.916931 1.832906
O 64.111175 7.461021 3.109534
C 64.416230 7.742037 0.705176
O 64.433061 9.128594 0.862332
C 64.558134 7.162971 -0.569216
O 64.715574 7.974828 -1.691638
C 64.539962 5.768421 -0.708164
C 65.522107 2.802282 0.312882
C 66.846037 3.393077 0.499766
C 67.705048 2.395006 0.437976
C 66.938937 1.169450 0.217652
N 65.664204 1.394203 0.142196
H 68.651440 -0.187699 0.093560
H 68.614742 -2.791999 -0.241898
H 66.790155 -4.572213 -0.455571
H 64.462925 -4.879227 -2.588978
H 64.466842 -8.440702 -3.319094
H 63.858473 -9.746439 -0.156256
H 63.421541 -7.574910 2.524869
H 63.670450 -5.315112 1.615853
H 61.326331 -4.495935 -0.164063
H 59.511783 -2.697645 0.011081
H 59.811485 2.652124 -0.387043
H 61.773740 4.514797 -0.226048
H 64.104444 4.895867 2.554786
H 64.129491 8.459863 3.274177
H 64.546954 9.759636 0.078379
H 64.815412 7.583393 -2.621415
H 64.650301 5.323355 -1.689981
H 67.097929 4.434546 0.653295
H 68.780046 2.482720 0.531969
C 39.181575 -0.017949 -0.011703
C 37.972636 -0.031404 -0.020150
C 36.551107 -0.022585 -0.032133
C 35.339437 -0.015146 -0.021270
C 40.598179 -0.024624 -0.011170
C 41.818875 -0.015146 -0.021270
C 55.474414 -0.017949 -0.011703
C 54.265474 -0.031404 -0.020150
C 52.843946 -0.022585 -0.032133
C 51.632276 -0.015146 -0.021270
C 56.891018 -0.024624 -0.011170
C 58.111714 -0.015146 -0.021270
Zn 46.683353 -0.043165 -0.051495
C 43.273723 0.041708 0.045232
C 43.930189 1.210345 0.164803
C 43.288600 2.509401 0.377234
C 44.226659 3.435813 0.399484
C 45.525472 2.784321 0.202185
N 45.347540 1.372712 0.060766
C 46.710426 3.428545 0.150149
C 46.740146 4.904208 0.253421
C 47.202642 5.517164 1.426851
C 47.245277 6.914319 1.525641
O 47.698215 7.524898 2.695566
C 46.830272 7.705155 0.444798
O 46.882792 9.094548 0.560557
C 46.367887 7.094163 -0.736297
O 45.956425 7.877198 -1.813729
C 46.323776 5.696061 -0.826610
C 48.011486 2.730106 -0.003093
C 49.284864 3.421817 -0.238157
C 50.238640 2.512998 -0.267637
N 48.177605 1.448245 0.102796
C 49.579995 1.230703 -0.055737
C 50.195042 0.041708 0.045232
C 49.446094 -1.217133 0.243621
C 49.984273 -2.348704 0.679993
C 48.951813 -3.365659 0.620872
C 47.853569 -2.785875 0.150174
N 48.075252 -1.400630 -0.109438
C 46.594871 -3.504298 -0.162044
C 46.656798 -4.969173 -0.384981
C 47.391574 -5.483234 -1.460328
C 47.462947 -6.861903 -1.675725
O 48.194187 -7.332056 -2.767205
C 46.804239 -7.750622 -0.803877
O 46.898498 -9.121671 -1.057210
C 46.072057 -7.234155 0.293783
O 45.400319 -8.051448 1.206388
C 46.007971 -5.850227 0.491230
C 45.418558 -2.855830 -0.265647
C 44.137137 -3.457733 -0.619349
C 43.247878 -2.487415 -0.561359
C 43.949948 -1.258166 -0.176396
N 45.219061 -1.466155 -0.003952
H 42.232198 2.708068 0.502147
H 44.041798 4.491757 0.547412
H 47.527884 4.909523 2.263208
H 47.988973 6.980444 3.503769
H 46.590183 9.709537 -0.192634
H 45.596585 7.462977 -2.666054
H 45.970055 5.226097 -1.737989
H 49.436361 4.486038 -0.363775
H 51.292037 2.711005 -0.417255
H 51.009331 -2.500095 0.992618
H 49.069104 -4.410508 0.877795
H 47.904881 -4.810668 -2.138227
H 48.277144 -8.319693 -2.977905
H 46.448439 -9.835170 -0.500108
H 45.391401 -9.059924 1.163700
H 45.451697 -5.459424 1.335423
H 43.929926 -4.485539 -0.886098
H 42.192976 -2.601622 -0.774822
