 xtb: 6.5.1 (b24c23e)
          07292218513D

282321  0     0  0            999 V2000
   46.5111    0.1122   -0.4095 Fe  0  0  0  0  0  0  0  0  0  0  0  0
   43.2416    0.3356   -1.2143 C   0  0  0  0  0  0  0  0  0  0  0  0
   43.8435    1.4507   -0.6657 C   0  0  0  0  0  0  0  0  0  0  0  0
   43.1429    2.6623   -0.3632 C   0  0  0  0  0  0  0  0  0  0  0  0
   44.0297    3.4800    0.2526 C   0  0  0  0  0  0  0  0  0  0  0  0
   45.2845    2.7855    0.2800 C   0  0  0  0  0  0  0  0  0  0  0  0
   45.1480    1.5343   -0.2575 N   0  0  0  0  0  0  0  0  0  0  0  0
   46.4789    3.3449    0.7232 C   0  0  0  0  0  0  0  0  0  0  0  0
   47.6991    2.6933    0.6082 C   0  0  0  0  0  0  0  0  0  0  0  0
   48.9642    3.3231    0.8445 C   0  0  0  0  0  0  0  0  0  0  0  0
   49.9188    2.4173    0.5208 C   0  0  0  0  0  0  0  0  0  0  0  0
   47.8851    1.4068    0.1641 N   0  0  0  0  0  0  0  0  0  0  0  0
   49.2348    1.2273    0.1211 C   0  0  0  0  0  0  0  0  0  0  0  0
   49.8920    0.0218   -0.1618 C   0  0  0  0  0  0  0  0  0  0  0  0
   49.2074   -1.1846   -0.3668 C   0  0  0  0  0  0  0  0  0  0  0  0
   49.8625   -2.4519   -0.4566 C   0  0  0  0  0  0  0  0  0  0  0  0
   48.8875   -3.3846   -0.5814 C   0  0  0  0  0  0  0  0  0  0  0  0
   47.6400   -2.6794   -0.6009 C   0  0  0  0  0  0  0  0  0  0  0  0
   46.4201   -3.2798   -0.8788 C   0  0  0  0  0  0  0  0  0  0  0  0
   46.3841   -4.7557   -1.0181 C   0  0  0  0  0  0  0  0  0  0  0  0
   46.0868   -5.3492   -2.2421 C   0  0  0  0  0  0  0  0  0  0  0  0
   46.0681   -6.7360   -2.3686 C   0  0  0  0  0  0  0  0  0  0  0  0
   45.7439   -7.3607   -3.6987 C   0  0  0  0  0  0  0  0  0  0  0  0
   46.3473   -7.5250   -1.2591 C   0  0  0  0  0  0  0  0  0  0  0  0
   46.6501   -6.9453   -0.0285 C   0  0  0  0  0  0  0  0  0  0  0  0
   46.9452   -7.8175    1.1617 C   0  0  0  0  0  0  0  0  0  0  0  0
   46.6692   -5.5611    0.0853 C   0  0  0  0  0  0  0  0  0  0  0  0
   45.2556   -2.5493   -1.0981 C   0  0  0  0  0  0  0  0  0  0  0  0
   44.0120   -3.1203   -1.5279 C   0  0  0  0  0  0  0  0  0  0  0  0
   43.1458   -2.0929   -1.6955 C   0  0  0  0  0  0  0  0  0  0  0  0
   43.8454   -0.9012   -1.3201 C   0  0  0  0  0  0  0  0  0  0  0  0
   45.1355   -1.1933   -0.9629 N   0  0  0  0  0  0  0  0  0  0  0  0
   47.8562   -1.3303   -0.4511 N   0  0  0  0  0  0  0  0  0  0  0  0
   46.4704    4.7229    1.2709 C   0  0  0  0  0  0  0  0  0  0  0  0
   46.1018    5.8040    0.4713 C   0  0  0  0  0  0  0  0  0  0  0  0
   46.1026    7.0950    0.9876 C   0  0  0  0  0  0  0  0  0  0  0  0
   45.7313    8.2644    0.1163 C   0  0  0  0  0  0  0  0  0  0  0  0
   46.4720    7.2992    2.3143 C   0  0  0  0  0  0  0  0  0  0  0  0
   46.8448    6.2307    3.1234 C   0  0  0  0  0  0  0  0  0  0  0  0
   47.2232    6.4577    4.5620 C   0  0  0  0  0  0  0  0  0  0  0  0
   46.8461    4.9440    2.5945 C   0  0  0  0  0  0  0  0  0  0  0  0
   42.2009    0.4165   -1.5081 H   0  0  0  0  0  0  0  0  0  0  0  0
   42.1005    2.8367   -0.5780 H   0  0  0  0  0  0  0  0  0  0  0  0
   43.8618    4.4679    0.6498 H   0  0  0  0  0  0  0  0  0  0  0  0
   49.0935    4.3364    1.1887 H   0  0  0  0  0  0  0  0  0  0  0  0
   50.9909    2.5251    0.5603 H   0  0  0  0  0  0  0  0  0  0  0  0
   50.9302   -2.5954   -0.4149 H   0  0  0  0  0  0  0  0  0  0  0  0
   48.9941   -4.4525   -0.6810 H   0  0  0  0  0  0  0  0  0  0  0  0
   45.8908   -4.7248   -3.1069 H   0  0  0  0  0  0  0  0  0  0  0  0
   45.8773   -8.4419   -3.6663 H   0  0  0  0  0  0  0  0  0  0  0  0
   44.7084   -7.1472   -3.9713 H   0  0  0  0  0  0  0  0  0  0  0  0
   46.3876   -6.9513   -4.4789 H   0  0  0  0  0  0  0  0  0  0  0  0
   46.3350   -8.6062   -1.3511 H   0  0  0  0  0  0  0  0  0  0  0  0
   47.3431   -7.2291    1.9882 H   0  0  0  0  0  0  0  0  0  0  0  0
   46.0322   -8.3129    1.4987 H   0  0  0  0  0  0  0  0  0  0  0  0
   47.6696   -8.5899    0.8993 H   0  0  0  0  0  0  0  0  0  0  0  0
   46.8956   -5.0956    1.0382 H   0  0  0  0  0  0  0  0  0  0  0  0
   43.8355   -4.1725   -1.6817 H   0  0  0  0  0  0  0  0  0  0  0  0
   42.1161   -2.1234   -2.0147 H   0  0  0  0  0  0  0  0  0  0  0  0
   45.8323    5.6340   -0.5653 H   0  0  0  0  0  0  0  0  0  0  0  0
   45.1805    9.0125    0.6873 H   0  0  0  0  0  0  0  0  0  0  0  0
   45.1203    7.9435   -0.7274 H   0  0  0  0  0  0  0  0  0  0  0  0
   46.6349    8.7364   -0.2763 H   0  0  0  0  0  0  0  0  0  0  0  0
   46.4717    8.3054    2.7209 H   0  0  0  0  0  0  0  0  0  0  0  0
   46.3446    6.3370    5.1999 H   0  0  0  0  0  0  0  0  0  0  0  0
   47.6130    7.4653    4.7076 H   0  0  0  0  0  0  0  0  0  0  0  0
   47.9759    5.7373    4.8831 H   0  0  0  0  0  0  0  0  0  0  0  0
   47.1277    4.1011    3.2161 H   0  0  0  0  0  0  0  0  0  0  0  0
   86.7445    0.1900   -0.1825 Fe  0  0  0  0  0  0  0  0  0  0  0  0
   90.0606    0.7437   -0.5966 C   0  0  0  0  0  0  0  0  0  0  0  0
   89.3992    0.0259   -1.5717 C   0  0  0  0  0  0  0  0  0  0  0  0
   90.0490   -0.5462   -2.7125 C   0  0  0  0  0  0  0  0  0  0  0  0
   89.1341   -1.3330   -3.3264 C   0  0  0  0  0  0  0  0  0  0  0  0
   87.9144   -1.2133   -2.5810 C   0  0  0  0  0  0  0  0  0  0  0  0
   88.0861   -0.3640   -1.5211 N   0  0  0  0  0  0  0  0  0  0  0  0
   86.7449   -1.9047   -2.8785 C   0  0  0  0  0  0  0  0  0  0  0  0
   85.5551   -1.7031   -2.1929 C   0  0  0  0  0  0  0  0  0  0  0  0
   84.3088   -2.3056   -2.5641 C   0  0  0  0  0  0  0  0  0  0  0  0
   83.3501   -1.7239   -1.8036 C   0  0  0  0  0  0  0  0  0  0  0  0
   85.3574   -0.7879   -1.1864 N   0  0  0  0  0  0  0  0  0  0  0  0
   84.0135   -0.7823   -0.9572 C   0  0  0  0  0  0  0  0  0  0  0  0
   83.3436    0.0593   -0.0623 C   0  0  0  0  0  0  0  0  0  0  0  0
   84.0149    0.8714    0.8565 C   0  0  0  0  0  0  0  0  0  0  0  0
   83.3492    1.6318    1.8679 C   0  0  0  0  0  0  0  0  0  0  0  0
   84.3132    2.1110    2.6909 C   0  0  0  0  0  0  0  0  0  0  0  0
   85.5680    1.6614    2.1655 C   0  0  0  0  0  0  0  0  0  0  0  0
   86.7988    1.9542    2.7398 C   0  0  0  0  0  0  0  0  0  0  0  0
   86.8111    2.6358    4.0561 C   0  0  0  0  0  0  0  0  0  0  0  0
   87.3666    3.9045    4.2004 C   0  0  0  0  0  0  0  0  0  0  0  0
   87.3693    4.5376    5.4410 C   0  0  0  0  0  0  0  0  0  0  0  0
   87.9637    5.9136    5.5760 C   0  0  0  0  0  0  0  0  0  0  0  0
   86.8148    3.8895    6.5381 C   0  0  0  0  0  0  0  0  0  0  0  0
   86.2532    2.6205    6.4090 C   0  0  0  0  0  0  0  0  0  0  0  0
   85.6633    1.9337    7.6110 C   0  0  0  0  0  0  0  0  0  0  0  0
   86.2510    2.0011    5.1661 C   0  0  0  0  0  0  0  0  0  0  0  0
   88.0063    1.6704    2.1123 C   0  0  0  0  0  0  0  0  0  0  0  0
   89.2924    2.0386    2.6307 C   0  0  0  0  0  0  0  0  0  0  0  0
   90.1996    1.7575    1.6652 C   0  0  0  0  0  0  0  0  0  0  0  0
   89.4743    1.1765    0.5762 C   0  0  0  0  0  0  0  0  0  0  0  0
   88.1392    1.1070    0.8705 N   0  0  0  0  0  0  0  0  0  0  0  0
   85.3690    0.9324    1.0193 N   0  0  0  0  0  0  0  0  0  0  0  0
   86.7509   -2.8660   -4.0091 C   0  0  0  0  0  0  0  0  0  0  0  0
   86.9383   -2.4169   -5.3154 C   0  0  0  0  0  0  0  0  0  0  0  0
   86.9386   -3.3155   -6.3765 C   0  0  0  0  0  0  0  0  0  0  0  0
   87.1157   -2.8253   -7.7882 C   0  0  0  0  0  0  0  0  0  0  0  0
   86.7511   -4.6713   -6.1223 C   0  0  0  0  0  0  0  0  0  0  0  0
   86.5610   -5.1337   -4.8241 C   0  0  0  0  0  0  0  0  0  0  0  0
   86.3790   -6.6030   -4.5547 C   0  0  0  0  0  0  0  0  0  0  0  0
   86.5599   -4.2252   -3.7703 C   0  0  0  0  0  0  0  0  0  0  0  0
   91.1208    0.9259   -0.7318 H   0  0  0  0  0  0  0  0  0  0  0  0
   91.0814   -0.3792   -2.9762 H   0  0  0  0  0  0  0  0  0  0  0  0
   89.2637   -1.9480   -4.2023 H   0  0  0  0  0  0  0  0  0  0  0  0
   84.1904   -3.0579   -3.3269 H   0  0  0  0  0  0  0  0  0  0  0  0
   82.2874   -1.9058   -1.8037 H   0  0  0  0  0  0  0  0  0  0  0  0
   82.2805    1.7565    1.9372 H   0  0  0  0  0  0  0  0  0  0  0  0
   84.1974    2.7267    3.5680 H   0  0  0  0  0  0  0  0  0  0  0  0
   87.7814    4.4095    3.3349 H   0  0  0  0  0  0  0  0  0  0  0  0
   87.9607    6.2410    6.6155 H   0  0  0  0  0  0  0  0  0  0  0  0
   88.9916    5.9213    5.2096 H   0  0  0  0  0  0  0  0  0  0  0  0
   87.3911    6.6306    4.9845 H   0  0  0  0  0  0  0  0  0  0  0  0
   86.8156    4.3765    7.5079 H   0  0  0  0  0  0  0  0  0  0  0  0
   85.1605    1.0099    7.3257 H   0  0  0  0  0  0  0  0  0  0  0  0
   86.4493    1.6926    8.3295 H   0  0  0  0  0  0  0  0  0  0  0  0
   84.9431    2.5860    8.1074 H   0  0  0  0  0  0  0  0  0  0  0  0
   85.8255    1.0101    5.0519 H   0  0  0  0  0  0  0  0  0  0  0  0
   89.4661    2.4627    3.6064 H   0  0  0  0  0  0  0  0  0  0  0  0
   91.2680    1.9050    1.6793 H   0  0  0  0  0  0  0  0  0  0  0  0
   87.0674   -1.3564   -5.5018 H   0  0  0  0  0  0  0  0  0  0  0  0
   87.6611   -3.5557   -8.3864 H   0  0  0  0  0  0  0  0  0  0  0  0
   87.6563   -1.8789   -7.8066 H   0  0  0  0  0  0  0  0  0  0  0  0
   86.1391   -2.6689   -8.2521 H   0  0  0  0  0  0  0  0  0  0  0  0
   86.7515   -5.3756   -6.9480 H   0  0  0  0  0  0  0  0  0  0  0  0
   87.3397   -7.0552   -4.2980 H   0  0  0  0  0  0  0  0  0  0  0  0
   85.9859   -7.1145   -5.4334 H   0  0  0  0  0  0  0  0  0  0  0  0
   85.6970   -6.7614   -3.7188 H   0  0  0  0  0  0  0  0  0  0  0  0
   86.4224   -4.5738   -2.7526 H   0  0  0  0  0  0  0  0  0  0  0  0
   52.5156   -0.0139   -0.1604 C   0  0  0  0  0  0  0  0  0  0  0  0
   51.2910    0.0039   -0.1572 C   0  0  0  0  0  0  0  0  0  0  0  0
   53.8606   -0.0291   -0.1564 C   0  0  0  0  0  0  0  0  0  0  0  0
   55.0853   -0.0438   -0.1472 C   0  0  0  0  0  0  0  0  0  0  0  0
   65.9333   -0.0693   -0.0694 C   0  0  0  0  0  0  0  0  0  0  0  0
   64.7085   -0.0767   -0.0819 C   0  0  0  0  0  0  0  0  0  0  0  0
   67.2781   -0.0599   -0.0583 C   0  0  0  0  0  0  0  0  0  0  0  0
   68.5028   -0.0460   -0.0438 C   0  0  0  0  0  0  0  0  0  0  0  0
   79.3668    0.0199   -0.0472 C   0  0  0  0  0  0  0  0  0  0  0  0
   78.1444    0.0051   -0.0470 C   0  0  0  0  0  0  0  0  0  0  0  0
   80.7165    0.0321   -0.0500 C   0  0  0  0  0  0  0  0  0  0  0  0
   81.9388    0.0429   -0.0496 C   0  0  0  0  0  0  0  0  0  0  0  0
   59.8969   -0.0635   -0.1027 Fe  0  0  0  0  0  0  0  0  0  0  0  0
   56.4837   -0.0513   -0.1338 C   0  0  0  0  0  0  0  0  0  0  0  0
   57.1595    1.1702   -0.0017 C   0  0  0  0  0  0  0  0  0  0  0  0
   56.4947    2.4241    0.1612 C   0  0  0  0  0  0  0  0  0  0  0  0
   57.4546    3.3806    0.1118 C   0  0  0  0  0  0  0  0  0  0  0  0
   58.6998    2.7040   -0.0923 C   0  0  0  0  0  0  0  0  0  0  0  0
   58.5063    1.3445   -0.1114 N   0  0  0  0  0  0  0  0  0  0  0  0
   59.9092    3.3493   -0.3209 C   0  0  0  0  0  0  0  0  0  0  0  0
   61.1139    2.6718   -0.4635 C   0  0  0  0  0  0  0  0  0  0  0  0
   62.3640    3.3080   -0.7509 C   0  0  0  0  0  0  0  0  0  0  0  0
   63.3168    2.3459   -0.6799 C   0  0  0  0  0  0  0  0  0  0  0  0
   61.2977    1.3239   -0.2729 N   0  0  0  0  0  0  0  0  0  0  0  0
   62.6427    1.1272   -0.3614 C   0  0  0  0  0  0  0  0  0  0  0  0
   63.3101   -0.0757   -0.0899 C   0  0  0  0  0  0  0  0  0  0  0  0
   62.6327   -1.2737    0.1781 C   0  0  0  0  0  0  0  0  0  0  0  0
   63.2956   -2.4956    0.5074 C   0  0  0  0  0  0  0  0  0  0  0  0
   62.3347   -3.4493    0.5826 C   0  0  0  0  0  0  0  0  0  0  0  0
   61.0908   -2.8053    0.2848 C   0  0  0  0  0  0  0  0  0  0  0  0
   59.8815   -3.4744    0.1411 C   0  0  0  0  0  0  0  0  0  0  0  0
   59.8720   -4.9513    0.2608 C   0  0  0  0  0  0  0  0  0  0  0  0
   59.1242   -5.5676    1.2626 C   0  0  0  0  0  0  0  0  0  0  0  0
   59.1155   -6.9533    1.3861 C   0  0  0  0  0  0  0  0  0  0  0  0
   58.3296   -7.6097    2.4886 C   0  0  0  0  0  0  0  0  0  0  0  0
   59.8562   -7.7212    0.4936 C   0  0  0  0  0  0  0  0  0  0  0  0
   60.6032   -7.1203   -0.5166 C   0  0  0  0  0  0  0  0  0  0  0  0
   61.4031   -7.9682   -1.4682 C   0  0  0  0  0  0  0  0  0  0  0  0
   60.6113   -5.7348   -0.6254 C   0  0  0  0  0  0  0  0  0  0  0  0
   58.6796   -2.8223   -0.1088 C   0  0  0  0  0  0  0  0  0  0  0  0
   57.4328   -3.4919   -0.3267 C   0  0  0  0  0  0  0  0  0  0  0  0
   56.4816   -2.5287   -0.4074 C   0  0  0  0  0  0  0  0  0  0  0  0
   57.1530   -1.2781   -0.2462 C   0  0  0  0  0  0  0  0  0  0  0  0
   58.4961   -1.4614   -0.1085 N   0  0  0  0  0  0  0  0  0  0  0  0
   61.2866   -1.4604    0.0846 N   0  0  0  0  0  0  0  0  0  0  0  0
   59.9145    4.8276   -0.4203 C   0  0  0  0  0  0  0  0  0  0  0  0
   60.6522    5.5902    0.4836 C   0  0  0  0  0  0  0  0  0  0  0  0
   60.6571    6.9785    0.3967 C   0  0  0  0  0  0  0  0  0  0  0  0
   61.4643    7.7947    1.3696 C   0  0  0  0  0  0  0  0  0  0  0  0
   59.9257    7.6008   -0.6101 C   0  0  0  0  0  0  0  0  0  0  0  0
   59.1864    6.8526   -1.5221 C   0  0  0  0  0  0  0  0  0  0  0  0
   58.4172    7.5377   -2.6190 C   0  0  0  0  0  0  0  0  0  0  0  0
   59.1815    5.4661   -1.4202 C   0  0  0  0  0  0  0  0  0  0  0  0
   55.4312    2.5430    0.2928 H   0  0  0  0  0  0  0  0  0  0  0  0
   57.3392    4.4480    0.2061 H   0  0  0  0  0  0  0  0  0  0  0  0
   62.4875    4.3542   -0.9788 H   0  0  0  0  0  0  0  0  0  0  0  0
   64.3808    2.4393   -0.8263 H   0  0  0  0  0  0  0  0  0  0  0  0
   64.3584   -2.5964    0.6581 H   0  0  0  0  0  0  0  0  0  0  0  0
   62.4488   -4.4945    0.8190 H   0  0  0  0  0  0  0  0  0  0  0  0
   58.5598   -4.9570    1.9588 H   0  0  0  0  0  0  0  0  0  0  0  0
   58.0184   -8.6138    2.2000 H   0  0  0  0  0  0  0  0  0  0  0  0
   58.9467   -7.6896    3.3865 H   0  0  0  0  0  0  0  0  0  0  0  0
   57.4451   -7.0227    2.7371 H   0  0  0  0  0  0  0  0  0  0  0  0
   59.8501   -8.8027    0.5828 H   0  0  0  0  0  0  0  0  0  0  0  0
   61.7419   -7.3830   -2.3228 H   0  0  0  0  0  0  0  0  0  0  0  0
   60.8063   -8.8066   -1.8297 H   0  0  0  0  0  0  0  0  0  0  0  0
   62.2801   -8.3739   -0.9592 H   0  0  0  0  0  0  0  0  0  0  0  0
   61.1780   -5.2544   -1.4153 H   0  0  0  0  0  0  0  0  0  0  0  0
   57.3108   -4.5595   -0.4095 H   0  0  0  0  0  0  0  0  0  0  0  0
   55.4199   -2.6409   -0.5574 H   0  0  0  0  0  0  0  0  0  0  0  0
   61.2078    5.0935    1.2715 H   0  0  0  0  0  0  0  0  0  0  0  0
   61.0239    8.7822    1.5083 H   0  0  0  0  0  0  0  0  0  0  0  0
   62.4802    7.9255    0.9899 H   0  0  0  0  0  0  0  0  0  0  0  0
   61.5260    7.2957    2.3369 H   0  0  0  0  0  0  0  0  0  0  0  0
   59.9283    8.6835   -0.6836 H   0  0  0  0  0  0  0  0  0  0  0  0
   58.0037    8.4840   -2.2690 H   0  0  0  0  0  0  0  0  0  0  0  0
   57.6035    6.9069   -2.9767 H   0  0  0  0  0  0  0  0  0  0  0  0
   59.0805    7.7490   -3.4608 H   0  0  0  0  0  0  0  0  0  0  0  0
   58.6184    4.8708   -2.1306 H   0  0  0  0  0  0  0  0  0  0  0  0
   73.3212   -0.0193   -0.0256 Fe  0  0  0  0  0  0  0  0  0  0  0  0
   69.9016   -0.0373   -0.0319 C   0  0  0  0  0  0  0  0  0  0  0  0
   70.5653    1.1970   -0.0380 C   0  0  0  0  0  0  0  0  0  0  0  0
   69.8801    2.4506   -0.0075 C   0  0  0  0  0  0  0  0  0  0  0  0
   70.8302    3.4129   -0.0944 C   0  0  0  0  0  0  0  0  0  0  0  0
   72.0910    2.7399   -0.1900 C   0  0  0  0  0  0  0  0  0  0  0  0
   71.9128    1.3788   -0.1188 N   0  0  0  0  0  0  0  0  0  0  0  0
   73.3028    3.3915   -0.3728 C   0  0  0  0  0  0  0  0  0  0  0  0
   74.5232    2.7275   -0.4198 C   0  0  0  0  0  0  0  0  0  0  0  0
   75.7761    3.3811   -0.6519 C   0  0  0  0  0  0  0  0  0  0  0  0
   76.7365    2.4307   -0.5493 C   0  0  0  0  0  0  0  0  0  0  0  0
   74.7142    1.3834   -0.2173 N   0  0  0  0  0  0  0  0  0  0  0  0
   76.0654    1.2010   -0.2679 C   0  0  0  0  0  0  0  0  0  0  0  0
   76.7397   -0.0034   -0.0418 C   0  0  0  0  0  0  0  0  0  0  0  0
   76.0795   -1.2141    0.1923 C   0  0  0  0  0  0  0  0  0  0  0  0
   76.7652   -2.4371    0.4679 C   0  0  0  0  0  0  0  0  0  0  0  0
   75.8145   -3.3953    0.5877 C   0  0  0  0  0  0  0  0  0  0  0  0
   74.5529   -2.7532    0.3716 C   0  0  0  0  0  0  0  0  0  0  0  0
   73.3379   -3.4278    0.3443 C   0  0  0  0  0  0  0  0  0  0  0  0
   73.3430   -4.9012    0.5118 C   0  0  0  0  0  0  0  0  0  0  0  0
   72.7053   -5.4836    1.6059 C   0  0  0  0  0  0  0  0  0  0  0  0
   72.7030   -6.8650    1.7684 C   0  0  0  0  0  0  0  0  0  0  0  0
   72.0346   -7.4865    2.9648 C   0  0  0  0  0  0  0  0  0  0  0  0
   73.3399   -7.6633    0.8233 C   0  0  0  0  0  0  0  0  0  0  0  0
   73.9772   -7.0964   -0.2769 C   0  0  0  0  0  0  0  0  0  0  0  0
   74.6723   -7.9719   -1.2842 C   0  0  0  0  0  0  0  0  0  0  0  0
   73.9798   -5.7139   -0.4252 C   0  0  0  0  0  0  0  0  0  0  0  0
   72.1187   -2.7894    0.1649 C   0  0  0  0  0  0  0  0  0  0  0  0
   70.8651   -3.4765    0.0770 C   0  0  0  0  0  0  0  0  0  0  0  0
   69.9057   -2.5255   -0.0285 C   0  0  0  0  0  0  0  0  0  0  0  0
   70.5779   -1.2645   -0.0121 C   0  0  0  0  0  0  0  0  0  0  0  0
   71.9268   -1.4313    0.0777 N   0  0  0  0  0  0  0  0  0  0  0  0
   74.7295   -1.4083    0.1607 N   0  0  0  0  0  0  0  0  0  0  0  0
   73.2952    4.8657   -0.5315 C   0  0  0  0  0  0  0  0  0  0  0  0
   73.9495    5.6773    0.3936 C   0  0  0  0  0  0  0  0  0  0  0  0
   73.9408    7.0609    0.2492 C   0  0  0  0  0  0  0  0  0  0  0  0
   74.6612    7.9295    1.2447 C   0  0  0  0  0  0  0  0  0  0  0  0
   73.2778    7.6291   -0.8339 C   0  0  0  0  0  0  0  0  0  0  0  0
   72.6212    6.8316   -1.7670 C   0  0  0  0  0  0  0  0  0  0  0  0
   71.9241    7.4580   -2.9444 C   0  0  0  0  0  0  0  0  0  0  0  0
   72.6316    5.4503   -1.6097 C   0  0  0  0  0  0  0  0  0  0  0  0
   68.8110    2.5641    0.0736 H   0  0  0  0  0  0  0  0  0  0  0  0
   70.6994    4.4826   -0.0895 H   0  0  0  0  0  0  0  0  0  0  0  0
   75.8957    4.4296   -0.8702 H   0  0  0  0  0  0  0  0  0  0  0  0
   77.8041    2.5369   -0.6557 H   0  0  0  0  0  0  0  0  0  0  0  0
   77.8351   -2.5337    0.5587 H   0  0  0  0  0  0  0  0  0  0  0  0
   75.9458   -4.4424    0.8067 H   0  0  0  0  0  0  0  0  0  0  0  0
   72.2202   -4.8495    2.3399 H   0  0  0  0  0  0  0  0  0  0  0  0
   71.6589   -8.4818    2.7264 H   0  0  0  0  0  0  0  0  0  0  0  0
   72.7524   -7.5813    3.7828 H   0  0  0  0  0  0  0  0  0  0  0  0
   71.2056   -6.8690    3.3110 H   0  0  0  0  0  0  0  0  0  0  0  0
   73.3366   -8.7418    0.9430 H   0  0  0  0  0  0  0  0  0  0  0  0
   74.7676   -7.4626   -2.2431 H   0  0  0  0  0  0  0  0  0  0  0  0
   74.1240   -8.9029   -1.4313 H   0  0  0  0  0  0  0  0  0  0  0  0
   75.6747   -8.2220   -0.9294 H   0  0  0  0  0  0  0  0  0  0  0  0
   74.4610   -5.2602   -1.2846 H   0  0  0  0  0  0  0  0  0  0  0  0
   70.7451   -4.5475    0.0886 H   0  0  0  0  0  0  0  0  0  0  0  0
   68.8381   -2.6513   -0.1109 H   0  0  0  0  0  0  0  0  0  0  0  0
   74.4509    5.2232    1.2412 H   0  0  0  0  0  0  0  0  0  0  0  0
   74.2213    8.9261    1.2822 H   0  0  0  0  0  0  0  0  0  0  0  0
   75.7102    8.0308    0.9570 H   0  0  0  0  0  0  0  0  0  0  0  0
   74.6251    7.4890    2.2414 H   0  0  0  0  0  0  0  0  0  0  0  0
   73.2690    8.7079   -0.9514 H   0  0  0  0  0  0  0  0  0  0  0  0
   71.4838    8.4166   -2.6685 H   0  0  0  0  0  0  0  0  0  0  0  0
   71.1388    6.8045   -3.3245 H   0  0  0  0  0  0  0  0  0  0  0  0
   72.6410    7.6337   -3.7497 H   0  0  0  0  0  0  0  0  0  0  0  0
   72.1339    4.8169   -2.3358 H   0  0  0  0  0  0  0  0  0  0  0  0
  2  3  4  0  0  0  0
  3  4  4  0  0  0  0
  4  5  2  0  0  0  0
  5  6  4  0  0  0  0
  1  7  1  0  0  0  0
  3  7  4  0  0  0  0
  6  7  4  0  0  0  0
  6  8  4  0  0  0  0
  8  9  4  0  0  0  0
  9 10  4  0  0  0  0
 10 11  2  0  0  0  0
  1 12  1  0  0  0  0
  9 12  4  0  0  0  0
 11 13  4  0  0  0  0
 12 13  4  0  0  0  0
 13 14  4  0  0  0  0
 14 15  4  0  0  0  0
 15 16  4  0  0  0  0
 16 17  2  0  0  0  0
 17 18  4  0  0  0  0
 18 19  4  0  0  0  0
 19 20  1  0  0  0  0
 20 21  4  0  0  0  0
 21 22  4  0  0  0  0
 22 23  1  0  0  0  0
 22 24  4  0  0  0  0
 24 25  4  0  0  0  0
 25 26  1  0  0  0  0
 20 27  4  0  0  0  0
 25 27  4  0  0  0  0
 19 28  4  0  0  0  0
 28 29  4  0  0  0  0
 29 30  2  0  0  0  0
  2 31  4  0  0  0  0
 30 31  4  0  0  0  0
  1 32  1  0  0  0  0
 28 32  4  0  0  0  0
 31 32  4  0  0  0  0
  1 33  1  0  0  0  0
 15 33  4  0  0  0  0
 18 33  4  0  0  0  0
  8 34  1  0  0  0  0
 34 35  4  0  0  0  0
 35 36  4  0  0  0  0
 36 37  1  0  0  0  0
 36 38  4  0  0  0  0
 38 39  4  0  0  0  0
 39 40  1  0  0  0  0
 34 41  4  0  0  0  0
 39 41  4  0  0  0  0
  2 42  1  0  0  0  0
  4 43  1  0  0  0  0
  5 44  1  0  0  0  0
 10 45  1  0  0  0  0
 11 46  1  0  0  0  0
 16 47  1  0  0  0  0
 17 48  1  0  0  0  0
 21 49  1  0  0  0  0
 23 50  1  0  0  0  0
 23 51  1  0  0  0  0
 23 52  1  0  0  0  0
 24 53  1  0  0  0  0
 26 54  1  0  0  0  0
 26 55  1  0  0  0  0
 26 56  1  0  0  0  0
 27 57  1  0  0  0  0
 29 58  1  0  0  0  0
 30 59  1  0  0  0  0
 35 60  1  0  0  0  0
 37 61  1  0  0  0  0
 37 62  1  0  0  0  0
 37 63  1  0  0  0  0
 38 64  1  0  0  0  0
 40 65  1  0  0  0  0
 40 66  1  0  0  0  0
 40 67  1  0  0  0  0
 41 68  1  0  0  0  0
 70 71  4  0  0  0  0
 71 72  4  0  0  0  0
 72 73  2  0  0  0  0
 73 74  4  0  0  0  0
 69 75  1  0  0  0  0
 71 75  4  0  0  0  0
 74 75  4  0  0  0  0
 74 76  4  0  0  0  0
 76 77  4  0  0  0  0
 77 78  4  0  0  0  0
 78 79  2  0  0  0  0
 69 80  1  0  0  0  0
 77 80  4  0  0  0  0
 79 81  4  0  0  0  0
 80 81  4  0  0  0  0
 81 82  4  0  0  0  0
 82 83  4  0  0  0  0
 83 84  4  0  0  0  0
 84 85  2  0  0  0  0
 85 86  4  0  0  0  0
 86 87  4  0  0  0  0
 87 88  1  0  0  0  0
 88 89  4  0  0  0  0
 89 90  4  0  0  0  0
 90 91  1  0  0  0  0
 90 92  4  0  0  0  0
 92 93  4  0  0  0  0
 93 94  1  0  0  0  0
 88 95  4  0  0  0  0
 93 95  4  0  0  0  0
 87 96  4  0  0  0  0
 96 97  4  0  0  0  0
 97 98  2  0  0  0  0
 70 99  4  0  0  0  0
 98 99  4  0  0  0  0
 69100  1  0  0  0  0
 96100  4  0  0  0  0
 99100  4  0  0  0  0
 69101  1  0  0  0  0
 83101  4  0  0  0  0
 86101  4  0  0  0  0
 76102  1  0  0  0  0
102103  4  0  0  0  0
103104  4  0  0  0  0
104105  1  0  0  0  0
104106  4  0  0  0  0
106107  4  0  0  0  0
107108  1  0  0  0  0
102109  4  0  0  0  0
107109  4  0  0  0  0
 70110  1  0  0  0  0
 72111  1  0  0  0  0
 73112  1  0  0  0  0
 78113  1  0  0  0  0
 79114  1  0  0  0  0
 84115  1  0  0  0  0
 85116  1  0  0  0  0
 89117  1  0  0  0  0
 91118  1  0  0  0  0
 91119  1  0  0  0  0
 91120  1  0  0  0  0
 92121  1  0  0  0  0
 94122  1  0  0  0  0
 94123  1  0  0  0  0
 94124  1  0  0  0  0
 95125  1  0  0  0  0
 97126  1  0  0  0  0
 98127  1  0  0  0  0
103128  1  0  0  0  0
105129  1  0  0  0  0
105130  1  0  0  0  0
105131  1  0  0  0  0
106132  1  0  0  0  0
108133  1  0  0  0  0
108134  1  0  0  0  0
108135  1  0  0  0  0
109136  1  0  0  0  0
 14138  4  0  0  0  0
137138  3  0  0  0  0
137139  4  0  0  0  0
139140  3  0  0  0  0
141142  3  0  0  0  0
141143  4  0  0  0  0
143144  3  0  0  0  0
145146  3  0  0  0  0
145147  4  0  0  0  0
 82148  1  0  0  0  0
147148  3  0  0  0  0
140150  4  0  0  0  0
150151  4  0  0  0  0
151152  4  0  0  0  0
152153  2  0  0  0  0
153154  4  0  0  0  0
149155  1  0  0  0  0
151155  4  0  0  0  0
154155  4  0  0  0  0
154156  4  0  0  0  0
156157  4  0  0  0  0
157158  4  0  0  0  0
158159  2  0  0  0  0
149160  1  0  0  0  0
157160  4  0  0  0  0
159161  4  0  0  0  0
160161  4  0  0  0  0
142162  4  0  0  0  0
161162  4  0  0  0  0
162163  4  0  0  0  0
163164  4  0  0  0  0
164165  2  0  0  0  0
165166  4  0  0  0  0
166167  4  0  0  0  0
167168  1  0  0  0  0
168169  4  0  0  0  0
169170  4  0  0  0  0
170171  1  0  0  0  0
170172  4  0  0  0  0
172173  4  0  0  0  0
173174  1  0  0  0  0
168175  4  0  0  0  0
173175  4  0  0  0  0
167176  4  0  0  0  0
176177  4  0  0  0  0
177178  2  0  0  0  0
150179  4  0  0  0  0
178179  4  0  0  0  0
149180  1  0  0  0  0
176180  4  0  0  0  0
179180  4  0  0  0  0
149181  1  0  0  0  0
163181  4  0  0  0  0
166181  4  0  0  0  0
156182  1  0  0  0  0
182183  4  0  0  0  0
183184  4  0  0  0  0
184185  1  0  0  0  0
184186  4  0  0  0  0
186187  4  0  0  0  0
187188  1  0  0  0  0
182189  4  0  0  0  0
187189  4  0  0  0  0
152190  1  0  0  0  0
153191  1  0  0  0  0
158192  1  0  0  0  0
159193  1  0  0  0  0
164194  1  0  0  0  0
165195  1  0  0  0  0
169196  1  0  0  0  0
171197  1  0  0  0  0
171198  1  0  0  0  0
171199  1  0  0  0  0
172200  1  0  0  0  0
174201  1  0  0  0  0
174202  1  0  0  0  0
174203  1  0  0  0  0
175204  1  0  0  0  0
177205  1  0  0  0  0
178206  1  0  0  0  0
183207  1  0  0  0  0
185208  1  0  0  0  0
185209  1  0  0  0  0
185210  1  0  0  0  0
186211  1  0  0  0  0
188212  1  0  0  0  0
188213  1  0  0  0  0
188214  1  0  0  0  0
189215  1  0  0  0  0
144217  4  0  0  0  0
217218  4  0  0  0  0
218219  4  0  0  0  0
219220  2  0  0  0  0
220221  4  0  0  0  0
216222  1  0  0  0  0
218222  4  0  0  0  0
221222  4  0  0  0  0
221223  4  0  0  0  0
223224  4  0  0  0  0
224225  4  0  0  0  0
225226  2  0  0  0  0
216227  1  0  0  0  0
224227  4  0  0  0  0
226228  4  0  0  0  0
227228  4  0  0  0  0
146229  1  0  0  0  0
228229  4  0  0  0  0
229230  4  0  0  0  0
230231  4  0  0  0  0
231232  2  0  0  0  0
232233  4  0  0  0  0
233234  4  0  0  0  0
234235  1  0  0  0  0
235236  4  0  0  0  0
236237  4  0  0  0  0
237238  1  0  0  0  0
237239  4  0  0  0  0
239240  4  0  0  0  0
240241  1  0  0  0  0
235242  4  0  0  0  0
240242  4  0  0  0  0
234243  4  0  0  0  0
243244  4  0  0  0  0
244245  2  0  0  0  0
217246  4  0  0  0  0
245246  4  0  0  0  0
216247  1  0  0  0  0
243247  4  0  0  0  0
246247  4  0  0  0  0
216248  1  0  0  0  0
230248  4  0  0  0  0
233248  4  0  0  0  0
223249  1  0  0  0  0
249250  4  0  0  0  0
250251  4  0  0  0  0
251252  1  0  0  0  0
251253  4  0  0  0  0
253254  4  0  0  0  0
254255  1  0  0  0  0
249256  4  0  0  0  0
254256  4  0  0  0  0
219257  1  0  0  0  0
220258  1  0  0  0  0
225259  1  0  0  0  0
226260  1  0  0  0  0
231261  1  0  0  0  0
232262  1  0  0  0  0
236263  1  0  0  0  0
238264  1  0  0  0  0
238265  1  0  0  0  0
238266  1  0  0  0  0
239267  1  0  0  0  0
241268  1  0  0  0  0
241269  1  0  0  0  0
241270  1  0  0  0  0
242271  1  0  0  0  0
244272  1  0  0  0  0
245273  1  0  0  0  0
250274  1  0  0  0  0
252275  1  0  0  0  0
252276  1  0  0  0  0
252277  1  0  0  0  0
253278  1  0  0  0  0
255279  1  0  0  0  0
255280  1  0  0  0  0
255281  1  0  0  0  0
256282  1  0  0  0  0
M  END
