 xtb: 6.5.1 (b24c23e)
          07302205373D

120139  0     0  0            999 V2000
   13.9157   -0.0509   -0.0091 Cu  0  0  0  0  0  0  0  0  0  0  0  0
   10.5135   -0.0626   -0.1425 C   0  0  0  0  0  0  0  0  0  0  0  0
   11.1424   -1.2989   -0.1596 C   0  0  0  0  0  0  0  0  0  0  0  0
   10.4607   -2.5611   -0.1825 C   0  0  0  0  0  0  0  0  0  0  0  0
   11.4150   -3.5250   -0.1953 C   0  0  0  0  0  0  0  0  0  0  0  0
   12.6895   -2.8599   -0.1942 C   0  0  0  0  0  0  0  0  0  0  0  0
   12.4918   -1.5090   -0.1619 N   0  0  0  0  0  0  0  0  0  0  0  0
   13.9317   -3.4995   -0.2113 C   0  0  0  0  0  0  0  0  0  0  0  0
   13.9462   -4.9800   -0.3092 C   0  0  0  0  0  0  0  0  0  0  0  0
   13.4227   -5.6211   -1.3649 C   0  0  0  0  0  0  0  0  0  0  0  0
   13.4176   -7.1235   -1.4785 C   0  0  0  0  0  0  0  0  0  0  0  0
   14.3674   -7.7287   -0.5408 N   0  0  0  0  0  0  0  0  0  0  0  0
   14.7195   -7.0743    0.6117 C   0  0  0  0  0  0  0  0  0  0  0  0
   14.5688   -5.7466    0.7612 C   0  0  0  0  0  0  0  0  0  0  0  0
   15.1660   -2.8487   -0.1480 C   0  0  0  0  0  0  0  0  0  0  0  0
   16.4421   -3.5011   -0.2258 C   0  0  0  0  0  0  0  0  0  0  0  0
   17.3908   -2.5340   -0.1414 C   0  0  0  0  0  0  0  0  0  0  0  0
   15.3581   -1.4976   -0.0270 N   0  0  0  0  0  0  0  0  0  0  0  0
   16.7021   -1.2846   -0.0183 C   0  0  0  0  0  0  0  0  0  0  0  0
   17.3404   -0.0377    0.1015 C   0  0  0  0  0  0  0  0  0  0  0  0
   16.6861    1.2037    0.1893 C   0  0  0  0  0  0  0  0  0  0  0  0
   17.3557    2.4576    0.3620 C   0  0  0  0  0  0  0  0  0  0  0  0
   16.3960    3.4171    0.3897 C   0  0  0  0  0  0  0  0  0  0  0  0
   15.1328    2.7556    0.2254 C   0  0  0  0  0  0  0  0  0  0  0  0
   15.3428    1.4064    0.1133 N   0  0  0  0  0  0  0  0  0  0  0  0
   13.8923    3.3969    0.2018 C   0  0  0  0  0  0  0  0  0  0  0  0
   13.8870    4.8771    0.3048 C   0  0  0  0  0  0  0  0  0  0  0  0
   13.2816    5.5092    1.3214 C   0  0  0  0  0  0  0  0  0  0  0  0
   13.2522    7.0109    1.4393 C   0  0  0  0  0  0  0  0  0  0  0  0
   14.2548    7.6309    0.5686 N   0  0  0  0  0  0  0  0  0  0  0  0
   14.6982    6.9828   -0.5554 C   0  0  0  0  0  0  0  0  0  0  0  0
   14.5769    5.6534   -0.7163 C   0  0  0  0  0  0  0  0  0  0  0  0
   12.6598    2.7487    0.0880 C   0  0  0  0  0  0  0  0  0  0  0  0
   11.3848    3.4054   -0.0108 C   0  0  0  0  0  0  0  0  0  0  0  0
   10.4412    2.4353   -0.1032 C   0  0  0  0  0  0  0  0  0  0  0  0
   11.1310    1.1776   -0.0740 C   0  0  0  0  0  0  0  0  0  0  0  0
   12.4745    1.3965    0.0367 N   0  0  0  0  0  0  0  0  0  0  0  0
    9.4291   -0.0660   -0.1862 H   0  0  0  0  0  0  0  0  0  0  0  0
    9.3886   -2.6806   -0.1774 H   0  0  0  0  0  0  0  0  0  0  0  0
   11.2748   -4.5940   -0.1932 H   0  0  0  0  0  0  0  0  0  0  0  0
   12.9620   -5.0859   -2.1872 H   0  0  0  0  0  0  0  0  0  0  0  0
   13.7046   -7.4267   -2.4944 H   0  0  0  0  0  0  0  0  0  0  0  0
   12.4001   -7.5174   -1.2955 H   0  0  0  0  0  0  0  0  0  0  0  0
   14.2924   -8.7338   -0.4775 H   0  0  0  0  0  0  0  0  0  0  0  0
   15.2060   -7.6955    1.3570 H   0  0  0  0  0  0  0  0  0  0  0  0
   14.8987   -5.2393    1.6568 H   0  0  0  0  0  0  0  0  0  0  0  0
   16.5896   -4.5628   -0.3410 H   0  0  0  0  0  0  0  0  0  0  0  0
   18.4630   -2.6464   -0.1650 H   0  0  0  0  0  0  0  0  0  0  0  0
   18.4231    2.5780    0.4563 H   0  0  0  0  0  0  0  0  0  0  0  0
   16.5274    4.4793    0.5188 H   0  0  0  0  0  0  0  0  0  0  0  0
   12.7675    4.9662    2.1061 H   0  0  0  0  0  0  0  0  0  0  0  0
   13.4675    7.3134    2.4732 H   0  0  0  0  0  0  0  0  0  0  0  0
   12.2445    7.3940    1.1905 H   0  0  0  0  0  0  0  0  0  0  0  0
   14.1705    8.6349    0.5005 H   0  0  0  0  0  0  0  0  0  0  0  0
   15.2283    7.6118   -1.2636 H   0  0  0  0  0  0  0  0  0  0  0  0
   14.9772    5.1522   -1.5862 H   0  0  0  0  0  0  0  0  0  0  0  0
   11.2382    4.4735   -0.0213 H   0  0  0  0  0  0  0  0  0  0  0  0
    9.3722    2.5479   -0.1947 H   0  0  0  0  0  0  0  0  0  0  0  0
   27.3705    0.0523    0.0022 Cu  0  0  0  0  0  0  0  0  0  0  0  0
   30.7728    0.0919   -0.1236 C   0  0  0  0  0  0  0  0  0  0  0  0
   30.1438    1.3030    0.1247 C   0  0  0  0  0  0  0  0  0  0  0  0
   30.8254    2.5406    0.3739 C   0  0  0  0  0  0  0  0  0  0  0  0
   29.8712    3.4849    0.5675 C   0  0  0  0  0  0  0  0  0  0  0  0
   28.5966    2.8352    0.4248 C   0  0  0  0  0  0  0  0  0  0  0  0
   28.7944    1.5089    0.1665 N   0  0  0  0  0  0  0  0  0  0  0  0
   27.3545    3.4639    0.5442 C   0  0  0  0  0  0  0  0  0  0  0  0
   27.3402    4.9309    0.7661 C   0  0  0  0  0  0  0  0  0  0  0  0
   27.8649    5.7834   -0.1269 C   0  0  0  0  0  0  0  0  0  0  0  0
   27.8703    7.2752    0.0845 C   0  0  0  0  0  0  0  0  0  0  0  0
   26.9195    7.6655    1.1290 N   0  0  0  0  0  0  0  0  0  0  0  0
   26.5661    6.7793    2.1140 C   0  0  0  0  0  0  0  0  0  0  0  0
   26.7164    5.4503    1.9754 C   0  0  0  0  0  0  0  0  0  0  0  0
   26.1201    2.8149    0.4659 C   0  0  0  0  0  0  0  0  0  0  0  0
   24.8441    3.4690    0.5291 C   0  0  0  0  0  0  0  0  0  0  0  0
   23.8954    2.5063    0.4042 C   0  0  0  0  0  0  0  0  0  0  0  0
   25.9280    1.4692    0.2947 N   0  0  0  0  0  0  0  0  0  0  0  0
   24.5840    1.2594    0.2573 C   0  0  0  0  0  0  0  0  0  0  0  0
   23.9458    0.0157    0.1073 C   0  0  0  0  0  0  0  0  0  0  0  0
   24.6001   -1.2155   -0.0736 C   0  0  0  0  0  0  0  0  0  0  0  0
   23.9305   -2.4772   -0.1744 C   0  0  0  0  0  0  0  0  0  0  0  0
   24.8902   -3.4202   -0.3537 C   0  0  0  0  0  0  0  0  0  0  0  0
   26.1533   -2.7390   -0.3719 C   0  0  0  0  0  0  0  0  0  0  0  0
   25.9434   -1.3972   -0.1914 N   0  0  0  0  0  0  0  0  0  0  0  0
   27.3938   -3.3604   -0.5326 C   0  0  0  0  0  0  0  0  0  0  0  0
   27.3990   -4.8281   -0.7500 C   0  0  0  0  0  0  0  0  0  0  0  0
   28.0042   -5.6639    0.1073 C   0  0  0  0  0  0  0  0  0  0  0  0
   28.0333   -7.1559   -0.1001 C   0  0  0  0  0  0  0  0  0  0  0  0
   27.0305   -7.5742   -1.0835 N   0  0  0  0  0  0  0  0  0  0  0  0
   26.5874   -6.6998   -2.0422 C   0  0  0  0  0  0  0  0  0  0  0  0
   26.7092   -5.3669   -1.9139 C   0  0  0  0  0  0  0  0  0  0  0  0
   28.6264   -2.7030   -0.5040 C   0  0  0  0  0  0  0  0  0  0  0  0
   29.9015   -3.3233   -0.7410 C   0  0  0  0  0  0  0  0  0  0  0  0
   30.8451   -2.3561   -0.6222 C   0  0  0  0  0  0  0  0  0  0  0  0
   30.1553   -1.1340   -0.3237 C   0  0  0  0  0  0  0  0  0  0  0  0
   28.8117   -1.3715   -0.2634 N   0  0  0  0  0  0  0  0  0  0  0  0
   31.8572    0.1045   -0.1649 H   0  0  0  0  0  0  0  0  0  0  0  0
   31.8976    2.6561    0.4055 H   0  0  0  0  0  0  0  0  0  0  0  0
   30.0113    4.5285    0.7993 H   0  0  0  0  0  0  0  0  0  0  0  0
   28.3265    5.4369   -1.0444 H   0  0  0  0  0  0  0  0  0  0  0  0
   27.5846    7.7895   -0.8430 H   0  0  0  0  0  0  0  0  0  0  0  0
   28.8877    7.6203    0.3489 H   0  0  0  0  0  0  0  0  0  0  0  0
   26.9944    8.6336    1.4065 H   0  0  0  0  0  0  0  0  0  0  0  0
   26.0788    7.2264    2.9746 H   0  0  0  0  0  0  0  0  0  0  0  0
   26.3855    4.7628    2.7410 H   0  0  0  0  0  0  0  0  0  0  0  0
   24.6966    4.5307    0.6436 H   0  0  0  0  0  0  0  0  0  0  0  0
   22.8232    2.6212    0.4049 H   0  0  0  0  0  0  0  0  0  0  0  0
   22.8631   -2.6149   -0.1083 H   0  0  0  0  0  0  0  0  0  0  0  0
   24.7587   -4.4853   -0.4559 H   0  0  0  0  0  0  0  0  0  0  0  0
   28.5182   -5.3022    0.9903 H   0  0  0  0  0  0  0  0  0  0  0  0
   27.8180   -7.6733    0.8447 H   0  0  0  0  0  0  0  0  0  0  0  0
   29.0409   -7.4768   -0.4255 H   0  0  0  0  0  0  0  0  0  0  0  0
   27.1148   -8.5401   -1.3658 H   0  0  0  0  0  0  0  0  0  0  0  0
   26.0573   -7.1620   -2.8690 H   0  0  0  0  0  0  0  0  0  0  0  0
   26.3091   -4.6906   -2.6560 H   0  0  0  0  0  0  0  0  0  0  0  0
   30.0481   -4.3642   -0.9808 H   0  0  0  0  0  0  0  0  0  0  0  0
   31.9142   -2.4466   -0.7352 H   0  0  0  0  0  0  0  0  0  0  0  0
   19.9682   -0.0176    0.1352 C   0  0  0  0  0  0  0  0  0  0  0  0
   18.7463   -0.0307    0.1290 C   0  0  0  0  0  0  0  0  0  0  0  0
   21.3181   -0.0081    0.1373 C   0  0  0  0  0  0  0  0  0  0  0  0
   22.5398    0.0028    0.1314 C   0  0  0  0  0  0  0  0  0  0  0  0
  2  3  4  0  0  0  0
  3  4  1  0  0  0  0
  4  5  2  0  0  0  0
  5  6  4  0  0  0  0
  1  7  1  0  0  0  0
  3  7  4  0  0  0  0
  6  7  4  0  0  0  0
  6  8  4  0  0  0  0
  8  9  1  0  0  0  0
  9 10  2  0  0  0  0
 10 11  1  0  0  0  0
 11 12  1  0  0  0  0
 12 13  1  0  0  0  0
  9 14  1  0  0  0  0
 13 14  2  0  0  0  0
  8 15  4  0  0  0  0
 15 16  4  0  0  0  0
 16 17  2  0  0  0  0
  1 18  1  0  0  0  0
 15 18  4  0  0  0  0
 17 19  4  0  0  0  0
 18 19  4  0  0  0  0
 19 20  4  0  0  0  0
 20 21  4  0  0  0  0
 21 22  4  0  0  0  0
 22 23  2  0  0  0  0
 23 24  4  0  0  0  0
  1 25  1  0  0  0  0
 21 25  4  0  0  0  0
 24 25  4  0  0  0  0
 24 26  4  0  0  0  0
 26 27  1  0  0  0  0
 27 28  2  0  0  0  0
 28 29  1  0  0  0  0
 29 30  1  0  0  0  0
 30 31  1  0  0  0  0
 27 32  1  0  0  0  0
 31 32  2  0  0  0  0
 26 33  4  0  0  0  0
 33 34  4  0  0  0  0
 34 35  2  0  0  0  0
  2 36  4  0  0  0  0
 35 36  1  0  0  0  0
  1 37  1  0  0  0  0
 33 37  4  0  0  0  0
 36 37  4  0  0  0  0
  2 38  1  0  0  0  0
  4 39  1  0  0  0  0
  5 40  1  0  0  0  0
 10 41  1  0  0  0  0
 11 42  1  0  0  0  0
 11 43  1  0  0  0  0
 12 44  1  0  0  0  0
 13 45  1  0  0  0  0
 14 46  1  0  0  0  0
 16 47  1  0  0  0  0
 17 48  1  0  0  0  0
 22 49  1  0  0  0  0
 23 50  1  0  0  0  0
 28 51  1  0  0  0  0
 29 52  1  0  0  0  0
 29 53  1  0  0  0  0
 30 54  1  0  0  0  0
 31 55  1  0  0  0  0
 32 56  1  0  0  0  0
 34 57  1  0  0  0  0
 35 58  1  0  0  0  0
 60 61  4  0  0  0  0
 61 62  1  0  0  0  0
 62 63  2  0  0  0  0
 63 64  4  0  0  0  0
 59 65  1  0  0  0  0
 61 65  4  0  0  0  0
 64 65  4  0  0  0  0
 64 66  4  0  0  0  0
 66 67  1  0  0  0  0
 67 68  2  0  0  0  0
 68 69  1  0  0  0  0
 69 70  1  0  0  0  0
 70 71  1  0  0  0  0
 67 72  1  0  0  0  0
 71 72  2  0  0  0  0
 66 73  4  0  0  0  0
 73 74  4  0  0  0  0
 74 75  2  0  0  0  0
 59 76  1  0  0  0  0
 73 76  4  0  0  0  0
 75 77  4  0  0  0  0
 76 77  4  0  0  0  0
 77 78  4  0  0  0  0
 78 79  4  0  0  0  0
 79 80  4  0  0  0  0
 80 81  2  0  0  0  0
 81 82  4  0  0  0  0
 59 83  1  0  0  0  0
 79 83  4  0  0  0  0
 82 83  4  0  0  0  0
 82 84  4  0  0  0  0
 84 85  1  0  0  0  0
 85 86  2  0  0  0  0
 86 87  1  0  0  0  0
 87 88  1  0  0  0  0
 88 89  1  0  0  0  0
 85 90  1  0  0  0  0
 89 90  2  0  0  0  0
 84 91  4  0  0  0  0
 91 92  4  0  0  0  0
 92 93  2  0  0  0  0
 60 94  4  0  0  0  0
 93 94  1  0  0  0  0
 59 95  1  0  0  0  0
 91 95  4  0  0  0  0
 94 95  4  0  0  0  0
 60 96  1  0  0  0  0
 62 97  1  0  0  0  0
 63 98  1  0  0  0  0
 68 99  1  0  0  0  0
 69100  1  0  0  0  0
 69101  1  0  0  0  0
 70102  1  0  0  0  0
 71103  1  0  0  0  0
 72104  1  0  0  0  0
 74105  1  0  0  0  0
 75106  1  0  0  0  0
 80107  1  0  0  0  0
 81108  1  0  0  0  0
 86109  1  0  0  0  0
 87110  1  0  0  0  0
 87111  1  0  0  0  0
 88112  1  0  0  0  0
 89113  1  0  0  0  0
 90114  1  0  0  0  0
 92115  1  0  0  0  0
 93116  1  0  0  0  0
 20118  4  0  0  0  0
117118  3  0  0  0  0
117119  4  0  0  0  0
 78120  4  0  0  0  0
119120  3  0  0  0  0
M  END
