 xtb: 6.5.1 (b24c23e)
          07302205323D

228267  0     0  0            999 V2000
   47.1771    0.0023    0.0210 Ni  0  0  0  0  0  0  0  0  0  0  0  0
   43.7833   -0.0172    0.0912 C   0  0  0  0  0  0  0  0  0  0  0  0
   44.4395   -1.2293    0.1396 C   0  0  0  0  0  0  0  0  0  0  0  0
   43.7671   -2.4879    0.2474 C   0  0  0  0  0  0  0  0  0  0  0  0
   44.7219   -3.4448    0.1795 C   0  0  0  0  0  0  0  0  0  0  0  0
   45.9765   -2.7693    0.0211 C   0  0  0  0  0  0  0  0  0  0  0  0
   45.7961   -1.4086    0.0324 N   0  0  0  0  0  0  0  0  0  0  0  0
   47.1897   -3.4215   -0.1559 C   0  0  0  0  0  0  0  0  0  0  0  0
   48.3971   -2.7432   -0.2547 C   0  0  0  0  0  0  0  0  0  0  0  0
   49.6537   -3.3895   -0.4828 C   0  0  0  0  0  0  0  0  0  0  0  0
   50.6040   -2.4257   -0.4293 C   0  0  0  0  0  0  0  0  0  0  0  0
   48.5739   -1.3858   -0.1074 N   0  0  0  0  0  0  0  0  0  0  0  0
   49.9269   -1.1936   -0.1782 C   0  0  0  0  0  0  0  0  0  0  0  0
   50.5916    0.0206    0.0103 C   0  0  0  0  0  0  0  0  0  0  0  0
   49.9158    1.2300    0.1899 C   0  0  0  0  0  0  0  0  0  0  0  0
   50.5849    2.4783    0.3736 C   0  0  0  0  0  0  0  0  0  0  0  0
   49.6266    3.4350    0.3978 C   0  0  0  0  0  0  0  0  0  0  0  0
   48.3706    2.7657    0.2456 C   0  0  0  0  0  0  0  0  0  0  0  0
   47.1550    3.4273    0.1398 C   0  0  0  0  0  0  0  0  0  0  0  0
   47.1449    4.9114    0.1854 C   0  0  0  0  0  0  0  0  0  0  0  0
   46.7833    5.6477   -0.9427 C   0  0  0  0  0  0  0  0  0  0  0  0
   46.7748    7.0340   -0.9004 C   0  0  0  0  0  0  0  0  0  0  0  0
   47.1216    7.6988    0.2679 C   0  0  0  0  0  0  0  0  0  0  0  0
   47.4796    6.9719    1.3951 C   0  0  0  0  0  0  0  0  0  0  0  0
   47.4939    5.5855    1.3556 C   0  0  0  0  0  0  0  0  0  0  0  0
   45.9454    2.7599    0.0032 C   0  0  0  0  0  0  0  0  0  0  0  0
   44.6747    3.4207   -0.0617 C   0  0  0  0  0  0  0  0  0  0  0  0
   43.7289    2.4527   -0.0648 C   0  0  0  0  0  0  0  0  0  0  0  0
   44.4217    1.2020   -0.0006 C   0  0  0  0  0  0  0  0  0  0  0  0
   45.7800    1.3972    0.0220 N   0  0  0  0  0  0  0  0  0  0  0  0
   48.5597    1.4061    0.1366 N   0  0  0  0  0  0  0  0  0  0  0  0
   47.1958   -4.9022   -0.2393 C   0  0  0  0  0  0  0  0  0  0  0  0
   46.5222   -5.5542   -1.2728 C   0  0  0  0  0  0  0  0  0  0  0  0
   46.5306   -6.9388   -1.3507 C   0  0  0  0  0  0  0  0  0  0  0  0
   47.2055   -7.6877   -0.3963 C   0  0  0  0  0  0  0  0  0  0  0  0
   47.8753   -7.0461    0.6367 C   0  0  0  0  0  0  0  0  0  0  0  0
   47.8741   -5.6616    0.7150 C   0  0  0  0  0  0  0  0  0  0  0  0
   42.7000   -0.0232    0.1247 H   0  0  0  0  0  0  0  0  0  0  0  0
   42.7007   -2.6032    0.3592 H   0  0  0  0  0  0  0  0  0  0  0  0
   44.6018   -4.5146    0.2350 H   0  0  0  0  0  0  0  0  0  0  0  0
   49.7814   -4.4438   -0.6661 H   0  0  0  0  0  0  0  0  0  0  0  0
   51.6697   -2.5253   -0.5551 H   0  0  0  0  0  0  0  0  0  0  0  0
   51.6526    2.5948    0.4620 H   0  0  0  0  0  0  0  0  0  0  0  0
   49.7499    4.5008    0.4992 H   0  0  0  0  0  0  0  0  0  0  0  0
   46.5212    5.1292   -1.8583 H   0  0  0  0  0  0  0  0  0  0  0  0
   46.4965    7.5974   -1.7842 H   0  0  0  0  0  0  0  0  0  0  0  0
   47.1125    8.7824    0.3000 H   0  0  0  0  0  0  0  0  0  0  0  0
   47.7483    7.4867    2.3108 H   0  0  0  0  0  0  0  0  0  0  0  0
   47.7634    5.0183    2.2395 H   0  0  0  0  0  0  0  0  0  0  0  0
   44.5380    4.4897   -0.0839 H   0  0  0  0  0  0  0  0  0  0  0  0
   42.6558    2.5555   -0.0973 H   0  0  0  0  0  0  0  0  0  0  0  0
   46.0040   -4.9700   -2.0251 H   0  0  0  0  0  0  0  0  0  0  0  0
   46.0083   -7.4350   -2.1612 H   0  0  0  0  0  0  0  0  0  0  0  0
   47.2094   -8.7701   -0.4574 H   0  0  0  0  0  0  0  0  0  0  0  0
   48.4013   -7.6268    1.3864 H   0  0  0  0  0  0  0  0  0  0  0  0
   48.3884   -5.1622    1.5286 H   0  0  0  0  0  0  0  0  0  0  0  0
   79.7440    0.0702    0.1002 Ni  0  0  0  0  0  0  0  0  0  0  0  0
   83.1211    0.1074    0.4323 C   0  0  0  0  0  0  0  0  0  0  0  0
   82.4573    1.3164    0.4252 C   0  0  0  0  0  0  0  0  0  0  0  0
   83.1162    2.5795    0.5604 C   0  0  0  0  0  0  0  0  0  0  0  0
   82.1669    3.5310    0.4000 C   0  0  0  0  0  0  0  0  0  0  0  0
   80.9275    2.8473    0.1730 C   0  0  0  0  0  0  0  0  0  0  0  0
   81.1118    1.4882    0.2150 N   0  0  0  0  0  0  0  0  0  0  0  0
   79.7188    3.4937   -0.0513 C   0  0  0  0  0  0  0  0  0  0  0  0
   78.5143    2.8127   -0.1620 C   0  0  0  0  0  0  0  0  0  0  0  0
   77.2546    3.4575   -0.3765 C   0  0  0  0  0  0  0  0  0  0  0  0
   76.3068    2.4914   -0.3206 C   0  0  0  0  0  0  0  0  0  0  0  0
   78.3417    1.4530   -0.0270 N   0  0  0  0  0  0  0  0  0  0  0  0
   76.9894    1.2576   -0.0942 C   0  0  0  0  0  0  0  0  0  0  0  0
   76.3305    0.0325    0.0398 C   0  0  0  0  0  0  0  0  0  0  0  0
   77.0122   -1.1833    0.1304 C   0  0  0  0  0  0  0  0  0  0  0  0
   76.3486   -2.4468    0.1835 C   0  0  0  0  0  0  0  0  0  0  0  0
   77.3121   -3.3969    0.1283 C   0  0  0  0  0  0  0  0  0  0  0  0
   78.5666   -2.7101    0.0731 C   0  0  0  0  0  0  0  0  0  0  0  0
   79.7930   -3.3536   -0.0197 C   0  0  0  0  0  0  0  0  0  0  0  0
   79.8188   -4.8359   -0.1012 C   0  0  0  0  0  0  0  0  0  0  0  0
   80.2712   -5.4675   -1.2596 C   0  0  0  0  0  0  0  0  0  0  0  0
   80.2959   -6.8521   -1.3376 C   0  0  0  0  0  0  0  0  0  0  0  0
   79.8757   -7.6196   -0.2598 C   0  0  0  0  0  0  0  0  0  0  0  0
   79.4287   -6.9972    0.8978 C   0  0  0  0  0  0  0  0  0  0  0  0
   79.3980   -5.6129    0.9782 C   0  0  0  0  0  0  0  0  0  0  0  0
   81.0021   -2.6717   -0.0033 C   0  0  0  0  0  0  0  0  0  0  0  0
   82.2799   -3.3220    0.0116 C   0  0  0  0  0  0  0  0  0  0  0  0
   83.2109   -2.3534    0.1750 C   0  0  0  0  0  0  0  0  0  0  0  0
   82.5030   -1.1117    0.2465 C   0  0  0  0  0  0  0  0  0  0  0  0
   81.1510   -1.3132    0.1255 N   0  0  0  0  0  0  0  0  0  0  0  0
   78.3702   -1.3473    0.0839 N   0  0  0  0  0  0  0  0  0  0  0  0
   79.7153    4.9742   -0.1447 C   0  0  0  0  0  0  0  0  0  0  0  0
   80.4038    5.6158   -1.1747 C   0  0  0  0  0  0  0  0  0  0  0  0
   80.4019    6.9998   -1.2627 C   0  0  0  0  0  0  0  0  0  0  0  0
   79.7197    7.7582   -0.3209 C   0  0  0  0  0  0  0  0  0  0  0  0
   79.0365    7.1269    0.7095 C   0  0  0  0  0  0  0  0  0  0  0  0
   79.0309    5.7428    0.7975 C   0  0  0  0  0  0  0  0  0  0  0  0
   84.1969    0.1180    0.5630 H   0  0  0  0  0  0  0  0  0  0  0  0
   84.1715    2.7013    0.7461 H   0  0  0  0  0  0  0  0  0  0  0  0
   82.2798    4.6022    0.4402 H   0  0  0  0  0  0  0  0  0  0  0  0
   77.1223    4.5131   -0.5487 H   0  0  0  0  0  0  0  0  0  0  0  0
   75.2399    2.5900   -0.4368 H   0  0  0  0  0  0  0  0  0  0  0  0
   75.2804   -2.5767    0.2402 H   0  0  0  0  0  0  0  0  0  0  0  0
   77.1934   -4.4680    0.1216 H   0  0  0  0  0  0  0  0  0  0  0  0
   80.5920   -4.8684   -2.1045 H   0  0  0  0  0  0  0  0  0  0  0  0
   80.6447   -7.3337   -2.2444 H   0  0  0  0  0  0  0  0  0  0  0  0
   79.8976   -8.7017   -0.3214 H   0  0  0  0  0  0  0  0  0  0  0  0
   79.1033   -7.5924    1.7438 H   0  0  0  0  0  0  0  0  0  0  0  0
   79.0600   -5.1278    1.8871 H   0  0  0  0  0  0  0  0  0  0  0  0
   82.4287   -4.3864   -0.0715 H   0  0  0  0  0  0  0  0  0  0  0  0
   84.2828   -2.4503    0.2439 H   0  0  0  0  0  0  0  0  0  0  0  0
   80.9295    5.0237   -1.9156 H   0  0  0  0  0  0  0  0  0  0  0  0
   80.9355    7.4882   -2.0705 H   0  0  0  0  0  0  0  0  0  0  0  0
   79.7214    8.8402   -0.3895 H   0  0  0  0  0  0  0  0  0  0  0  0
   78.5060    7.7150    1.4503 H   0  0  0  0  0  0  0  0  0  0  0  0
   78.5071    5.2516    1.6100 H   0  0  0  0  0  0  0  0  0  0  0  0
   52.0009    0.0263    0.0097 C   0  0  0  0  0  0  0  0  0  0  0  0
   53.2172    0.0271    0.0108 C   0  0  0  0  0  0  0  0  0  0  0  0
   62.8528    0.0343    0.0515 C   0  0  0  0  0  0  0  0  0  0  0  0
   64.0692    0.0385    0.0603 C   0  0  0  0  0  0  0  0  0  0  0  0
   73.7049    0.0214    0.0449 C   0  0  0  0  0  0  0  0  0  0  0  0
   74.9213    0.0226    0.0422 C   0  0  0  0  0  0  0  0  0  0  0  0
   58.0358    0.0305    0.0326 Ni  0  0  0  0  0  0  0  0  0  0  0  0
   54.6256    0.0282    0.0150 C   0  0  0  0  0  0  0  0  0  0  0  0
   55.3003   -1.1732    0.2514 C   0  0  0  0  0  0  0  0  0  0  0  0
   54.6442   -2.4056    0.5499 C   0  0  0  0  0  0  0  0  0  0  0  0
   55.6009   -3.3660    0.5565 C   0  0  0  0  0  0  0  0  0  0  0  0
   56.8397   -2.7166    0.2552 C   0  0  0  0  0  0  0  0  0  0  0  0
   56.6499   -1.3598    0.1240 N   0  0  0  0  0  0  0  0  0  0  0  0
   58.0379   -3.3841    0.0334 C   0  0  0  0  0  0  0  0  0  0  0  0
   59.2354   -2.7157   -0.1883 C   0  0  0  0  0  0  0  0  0  0  0  0
   60.4752   -3.3637   -0.4888 C   0  0  0  0  0  0  0  0  0  0  0  0
   61.4307   -2.4020   -0.4829 C   0  0  0  0  0  0  0  0  0  0  0  0
   59.4234   -1.3584   -0.0584 N   0  0  0  0  0  0  0  0  0  0  0  0
   60.7723   -1.1701   -0.1867 C   0  0  0  0  0  0  0  0  0  0  0  0
   61.4452    0.0330    0.0459 C   0  0  0  0  0  0  0  0  0  0  0  0
   60.7686    1.2349    0.2745 C   0  0  0  0  0  0  0  0  0  0  0  0
   61.4229    2.4670    0.5786 C   0  0  0  0  0  0  0  0  0  0  0  0
   60.4659    3.4271    0.5808 C   0  0  0  0  0  0  0  0  0  0  0  0
   59.2293    2.7781    0.2692 C   0  0  0  0  0  0  0  0  0  0  0  0
   58.0329    3.4451    0.0383 C   0  0  0  0  0  0  0  0  0  0  0  0
   58.0289    4.9266    0.0453 C   0  0  0  0  0  0  0  0  0  0  0  0
   57.2247    5.6261    0.9465 C   0  0  0  0  0  0  0  0  0  0  0  0
   57.2227    7.0127    0.9542 C   0  0  0  0  0  0  0  0  0  0  0  0
   58.0174    7.7169    0.0598 C   0  0  0  0  0  0  0  0  0  0  0  0
   58.8180    7.0284   -0.8415 C   0  0  0  0  0  0  0  0  0  0  0  0
   58.8275    5.6418   -0.8484 C   0  0  0  0  0  0  0  0  0  0  0  0
   56.8383    2.7760   -0.1984 C   0  0  0  0  0  0  0  0  0  0  0  0
   55.6024    3.4238   -0.5143 C   0  0  0  0  0  0  0  0  0  0  0  0
   54.6471    2.4619   -0.5200 C   0  0  0  0  0  0  0  0  0  0  0  0
   55.3013    1.2303   -0.2145 C   0  0  0  0  0  0  0  0  0  0  0  0
   56.6491    1.4189   -0.0712 N   0  0  0  0  0  0  0  0  0  0  0  0
   59.4205    1.4214    0.1369 N   0  0  0  0  0  0  0  0  0  0  0  0
   58.0382   -4.8657    0.0307 C   0  0  0  0  0  0  0  0  0  0  0  0
   57.2494   -5.5706   -0.8796 C   0  0  0  0  0  0  0  0  0  0  0  0
   57.2548   -6.9573   -0.8850 C   0  0  0  0  0  0  0  0  0  0  0  0
   58.0413   -7.6560    0.0209 C   0  0  0  0  0  0  0  0  0  0  0  0
   58.8257   -6.9619    0.9321 C   0  0  0  0  0  0  0  0  0  0  0  0
   58.8280   -5.5752    0.9366 C   0  0  0  0  0  0  0  0  0  0  0  0
   53.5867   -2.5092    0.7312 H   0  0  0  0  0  0  0  0  0  0  0  0
   55.4879   -4.4201    0.7512 H   0  0  0  0  0  0  0  0  0  0  0  0
   60.5899   -4.4177   -0.6824 H   0  0  0  0  0  0  0  0  0  0  0  0
   62.4885   -2.5041   -0.6630 H   0  0  0  0  0  0  0  0  0  0  0  0
   62.4793    2.5703    0.7665 H   0  0  0  0  0  0  0  0  0  0  0  0
   60.5775    4.4807    0.7784 H   0  0  0  0  0  0  0  0  0  0  0  0
   56.6129    5.0773    1.6539 H   0  0  0  0  0  0  0  0  0  0  0  0
   56.5982    7.5457    1.6625 H   0  0  0  0  0  0  0  0  0  0  0  0
   58.0127    8.8010    0.0652 H   0  0  0  0  0  0  0  0  0  0  0  0
   59.4380    7.5740   -1.5443 H   0  0  0  0  0  0  0  0  0  0  0  0
   59.4436    5.1057   -1.5617 H   0  0  0  0  0  0  0  0  0  0  0  0
   55.4900    4.4777   -0.7100 H   0  0  0  0  0  0  0  0  0  0  0  0
   53.5921    2.5645   -0.7149 H   0  0  0  0  0  0  0  0  0  0  0  0
   56.6443   -5.0262   -1.5960 H   0  0  0  0  0  0  0  0  0  0  0  0
   56.6428   -7.4948   -1.6009 H   0  0  0  0  0  0  0  0  0  0  0  0
   58.0430   -8.7401    0.0167 H   0  0  0  0  0  0  0  0  0  0  0  0
   59.4391   -7.5031    1.6440 H   0  0  0  0  0  0  0  0  0  0  0  0
   59.4319   -5.0348    1.6570 H   0  0  0  0  0  0  0  0  0  0  0  0
   68.8862    0.0310    0.0665 Ni  0  0  0  0  0  0  0  0  0  0  0  0
   65.4768    0.0374    0.0653 C   0  0  0  0  0  0  0  0  0  0  0  0
   66.1488   -1.1757    0.2423 C   0  0  0  0  0  0  0  0  0  0  0  0
   65.4901   -2.4183    0.4883 C   0  0  0  0  0  0  0  0  0  0  0  0
   66.4448   -3.3802    0.4521 C   0  0  0  0  0  0  0  0  0  0  0  0
   67.6840   -2.7212    0.1742 C   0  0  0  0  0  0  0  0  0  0  0  0
   67.4970   -1.3595    0.1021 N   0  0  0  0  0  0  0  0  0  0  0  0
   68.8791   -3.3803   -0.0848 C   0  0  0  0  0  0  0  0  0  0  0  0
   70.0752   -2.7039   -0.2910 C   0  0  0  0  0  0  0  0  0  0  0  0
   71.3089   -3.3400   -0.6377 C   0  0  0  0  0  0  0  0  0  0  0  0
   72.2668   -2.3815   -0.5998 C   0  0  0  0  0  0  0  0  0  0  0  0
   70.2685   -1.3547   -0.1011 N   0  0  0  0  0  0  0  0  0  0  0  0
   71.6168   -1.1637   -0.2359 C   0  0  0  0  0  0  0  0  0  0  0  0
   72.2965    0.0237    0.0512 C   0  0  0  0  0  0  0  0  0  0  0  0
   71.6255    1.2147    0.3442 C   0  0  0  0  0  0  0  0  0  0  0  0
   72.2850    2.4296    0.7009 C   0  0  0  0  0  0  0  0  0  0  0  0
   71.3311    3.3916    0.7523 C   0  0  0  0  0  0  0  0  0  0  0  0
   70.0907    2.7609    0.4197 C   0  0  0  0  0  0  0  0  0  0  0  0
   68.8943    3.4415    0.2295 C   0  0  0  0  0  0  0  0  0  0  0  0
   68.8978    4.9215    0.2987 C   0  0  0  0  0  0  0  0  0  0  0  0
   68.1077    5.5881    1.2364 C   0  0  0  0  0  0  0  0  0  0  0  0
   68.1138    6.9733    1.2999 C   0  0  0  0  0  0  0  0  0  0  0  0
   68.9024    7.7090    0.4257 C   0  0  0  0  0  0  0  0  0  0  0  0
   69.6890    7.0533   -0.5117 C   0  0  0  0  0  0  0  0  0  0  0  0
   69.6905    5.6680   -0.5744 C   0  0  0  0  0  0  0  0  0  0  0  0
   67.6953    2.7879   -0.0257 C   0  0  0  0  0  0  0  0  0  0  0  0
   66.4581    3.4533   -0.2978 C   0  0  0  0  0  0  0  0  0  0  0  0
   65.5002    2.4951   -0.3427 C   0  0  0  0  0  0  0  0  0  0  0  0
   66.1542    1.2484   -0.1052 C   0  0  0  0  0  0  0  0  0  0  0  0
   67.5031    1.4264    0.0373 N   0  0  0  0  0  0  0  0  0  0  0  0
   70.2766    1.4114    0.2246 N   0  0  0  0  0  0  0  0  0  0  0  0
   68.8800   -4.8606   -0.1429 C   0  0  0  0  0  0  0  0  0  0  0  0
   68.0822   -5.5348   -1.0685 C   0  0  0  0  0  0  0  0  0  0  0  0
   68.0888   -6.9205   -1.1214 C   0  0  0  0  0  0  0  0  0  0  0  0
   68.8855   -7.6490   -0.2485 C   0  0  0  0  0  0  0  0  0  0  0  0
   69.6795   -6.9857    0.6773 C   0  0  0  0  0  0  0  0  0  0  0  0
   69.6806   -5.6000    0.7292 C   0  0  0  0  0  0  0  0  0  0  0  0
   64.4327   -2.5271    0.6674 H   0  0  0  0  0  0  0  0  0  0  0  0
   66.3297   -4.4412    0.6022 H   0  0  0  0  0  0  0  0  0  0  0  0
   71.4178   -4.3840   -0.8824 H   0  0  0  0  0  0  0  0  0  0  0  0
   73.3213   -2.4774   -0.8007 H   0  0  0  0  0  0  0  0  0  0  0  0
   73.3426    2.5219    0.8878 H   0  0  0  0  0  0  0  0  0  0  0  0
   71.4476    4.4349    0.9965 H   0  0  0  0  0  0  0  0  0  0  0  0
   67.5007    5.0147    1.9281 H   0  0  0  0  0  0  0  0  0  0  0  0
   67.5002    7.4807    2.0362 H   0  0  0  0  0  0  0  0  0  0  0  0
   68.9039    8.7920    0.4747 H   0  0  0  0  0  0  0  0  0  0  0  0
   70.3041    7.6234   -1.1990 H   0  0  0  0  0  0  0  0  0  0  0  0
   70.2957    5.1578   -1.3156 H   0  0  0  0  0  0  0  0  0  0  0  0
   66.3467    4.5159   -0.4394 H   0  0  0  0  0  0  0  0  0  0  0  0
   64.4432    2.6089   -0.5210 H   0  0  0  0  0  0  0  0  0  0  0  0
   67.4691   -4.9672   -1.7597 H   0  0  0  0  0  0  0  0  0  0  0  0
   67.4695   -7.4339   -1.8485 H   0  0  0  0  0  0  0  0  0  0  0  0
   68.8877   -8.7323   -0.2897 H   0  0  0  0  0  0  0  0  0  0  0  0
   70.3010   -7.5501    1.3636 H   0  0  0  0  0  0  0  0  0  0  0  0
   70.2921   -5.0835    1.4607 H   0  0  0  0  0  0  0  0  0  0  0  0
  2  3  4  0  0  0  0
  3  4  4  0  0  0  0
  4  5  2  0  0  0  0
  5  6  4  0  0  0  0
  1  7  1  0  0  0  0
  3  7  4  0  0  0  0
  6  7  4  0  0  0  0
  6  8  4  0  0  0  0
  8  9  4  0  0  0  0
  9 10  4  0  0  0  0
 10 11  2  0  0  0  0
  1 12  1  0  0  0  0
  9 12  4  0  0  0  0
 11 13  4  0  0  0  0
 12 13  4  0  0  0  0
 13 14  4  0  0  0  0
 14 15  4  0  0  0  0
 15 16  4  0  0  0  0
 16 17  2  0  0  0  0
 17 18  4  0  0  0  0
 18 19  4  0  0  0  0
 19 20  1  0  0  0  0
 20 21  4  0  0  0  0
 21 22  4  0  0  0  0
 22 23  4  0  0  0  0
 23 24  4  0  0  0  0
 20 25  4  0  0  0  0
 24 25  4  0  0  0  0
 19 26  4  0  0  0  0
 26 27  4  0  0  0  0
 27 28  2  0  0  0  0
  2 29  4  0  0  0  0
 28 29  4  0  0  0  0
  1 30  1  0  0  0  0
 26 30  4  0  0  0  0
 29 30  4  0  0  0  0
  1 31  1  0  0  0  0
 15 31  4  0  0  0  0
 18 31  4  0  0  0  0
  8 32  1  0  0  0  0
 32 33  4  0  0  0  0
 33 34  4  0  0  0  0
 34 35  4  0  0  0  0
 35 36  4  0  0  0  0
 32 37  4  0  0  0  0
 36 37  4  0  0  0  0
  2 38  1  0  0  0  0
  4 39  1  0  0  0  0
  5 40  1  0  0  0  0
 10 41  1  0  0  0  0
 11 42  1  0  0  0  0
 16 43  1  0  0  0  0
 17 44  1  0  0  0  0
 21 45  1  0  0  0  0
 22 46  1  0  0  0  0
 23 47  1  0  0  0  0
 24 48  1  0  0  0  0
 25 49  1  0  0  0  0
 27 50  1  0  0  0  0
 28 51  1  0  0  0  0
 33 52  1  0  0  0  0
 34 53  1  0  0  0  0
 35 54  1  0  0  0  0
 36 55  1  0  0  0  0
 37 56  1  0  0  0  0
 58 59  4  0  0  0  0
 59 60  4  0  0  0  0
 60 61  2  0  0  0  0
 61 62  4  0  0  0  0
 57 63  1  0  0  0  0
 59 63  4  0  0  0  0
 62 63  4  0  0  0  0
 62 64  4  0  0  0  0
 64 65  4  0  0  0  0
 65 66  4  0  0  0  0
 66 67  2  0  0  0  0
 57 68  1  0  0  0  0
 65 68  4  0  0  0  0
 67 69  4  0  0  0  0
 68 69  4  0  0  0  0
 69 70  4  0  0  0  0
 70 71  4  0  0  0  0
 71 72  4  0  0  0  0
 72 73  2  0  0  0  0
 73 74  4  0  0  0  0
 74 75  4  0  0  0  0
 75 76  1  0  0  0  0
 76 77  4  0  0  0  0
 77 78  4  0  0  0  0
 78 79  4  0  0  0  0
 79 80  4  0  0  0  0
 76 81  4  0  0  0  0
 80 81  4  0  0  0  0
 75 82  4  0  0  0  0
 82 83  4  0  0  0  0
 83 84  2  0  0  0  0
 58 85  4  0  0  0  0
 84 85  4  0  0  0  0
 57 86  1  0  0  0  0
 82 86  4  0  0  0  0
 85 86  4  0  0  0  0
 57 87  1  0  0  0  0
 71 87  4  0  0  0  0
 74 87  4  0  0  0  0
 64 88  1  0  0  0  0
 88 89  4  0  0  0  0
 89 90  4  0  0  0  0
 90 91  4  0  0  0  0
 91 92  4  0  0  0  0
 88 93  4  0  0  0  0
 92 93  4  0  0  0  0
 58 94  1  0  0  0  0
 60 95  1  0  0  0  0
 61 96  1  0  0  0  0
 66 97  1  0  0  0  0
 67 98  1  0  0  0  0
 72 99  1  0  0  0  0
 73100  1  0  0  0  0
 77101  1  0  0  0  0
 78102  1  0  0  0  0
 79103  1  0  0  0  0
 80104  1  0  0  0  0
 81105  1  0  0  0  0
 83106  1  0  0  0  0
 84107  1  0  0  0  0
 89108  1  0  0  0  0
 90109  1  0  0  0  0
 91110  1  0  0  0  0
 92111  1  0  0  0  0
 93112  1  0  0  0  0
 14113  4  0  0  0  0
113114  3  0  0  0  0
115116  3  0  0  0  0
 70118  4  0  0  0  0
117118  3  0  0  0  0
114120  4  0  0  0  0
120121  4  0  0  0  0
121122  4  0  0  0  0
122123  2  0  0  0  0
123124  4  0  0  0  0
119125  1  0  0  0  0
121125  4  0  0  0  0
124125  4  0  0  0  0
124126  4  0  0  0  0
126127  4  0  0  0  0
127128  4  0  0  0  0
128129  2  0  0  0  0
119130  1  0  0  0  0
127130  4  0  0  0  0
129131  4  0  0  0  0
130131  4  0  0  0  0
115132  4  0  0  0  0
131132  4  0  0  0  0
132133  4  0  0  0  0
133134  4  0  0  0  0
134135  2  0  0  0  0
135136  4  0  0  0  0
136137  4  0  0  0  0
137138  1  0  0  0  0
138139  4  0  0  0  0
139140  4  0  0  0  0
140141  4  0  0  0  0
141142  4  0  0  0  0
138143  4  0  0  0  0
142143  4  0  0  0  0
137144  4  0  0  0  0
144145  4  0  0  0  0
145146  2  0  0  0  0
120147  4  0  0  0  0
146147  4  0  0  0  0
119148  1  0  0  0  0
144148  4  0  0  0  0
147148  4  0  0  0  0
119149  1  0  0  0  0
133149  4  0  0  0  0
136149  4  0  0  0  0
126150  1  0  0  0  0
150151  4  0  0  0  0
151152  4  0  0  0  0
152153  4  0  0  0  0
153154  4  0  0  0  0
150155  4  0  0  0  0
154155  4  0  0  0  0
122156  1  0  0  0  0
123157  1  0  0  0  0
128158  1  0  0  0  0
129159  1  0  0  0  0
134160  1  0  0  0  0
135161  1  0  0  0  0
139162  1  0  0  0  0
140163  1  0  0  0  0
141164  1  0  0  0  0
142165  1  0  0  0  0
143166  1  0  0  0  0
145167  1  0  0  0  0
146168  1  0  0  0  0
151169  1  0  0  0  0
152170  1  0  0  0  0
153171  1  0  0  0  0
154172  1  0  0  0  0
155173  1  0  0  0  0
116175  4  0  0  0  0
175176  4  0  0  0  0
176177  4  0  0  0  0
177178  2  0  0  0  0
178179  4  0  0  0  0
174180  1  0  0  0  0
176180  4  0  0  0  0
179180  4  0  0  0  0
179181  4  0  0  0  0
181182  4  0  0  0  0
182183  4  0  0  0  0
183184  2  0  0  0  0
174185  1  0  0  0  0
182185  4  0  0  0  0
184186  4  0  0  0  0
185186  4  0  0  0  0
117187  4  0  0  0  0
186187  4  0  0  0  0
187188  4  0  0  0  0
188189  4  0  0  0  0
189190  2  0  0  0  0
190191  4  0  0  0  0
191192  4  0  0  0  0
192193  1  0  0  0  0
193194  4  0  0  0  0
194195  4  0  0  0  0
195196  4  0  0  0  0
196197  4  0  0  0  0
193198  4  0  0  0  0
197198  4  0  0  0  0
192199  4  0  0  0  0
199200  4  0  0  0  0
200201  2  0  0  0  0
175202  4  0  0  0  0
201202  4  0  0  0  0
174203  1  0  0  0  0
199203  4  0  0  0  0
202203  4  0  0  0  0
174204  1  0  0  0  0
188204  4  0  0  0  0
191204  4  0  0  0  0
181205  1  0  0  0  0
205206  4  0  0  0  0
206207  4  0  0  0  0
207208  4  0  0  0  0
208209  4  0  0  0  0
205210  4  0  0  0  0
209210  4  0  0  0  0
177211  1  0  0  0  0
178212  1  0  0  0  0
183213  1  0  0  0  0
184214  1  0  0  0  0
189215  1  0  0  0  0
190216  1  0  0  0  0
194217  1  0  0  0  0
195218  1  0  0  0  0
196219  1  0  0  0  0
197220  1  0  0  0  0
198221  1  0  0  0  0
200222  1  0  0  0  0
201223  1  0  0  0  0
206224  1  0  0  0  0
207225  1  0  0  0  0
208226  1  0  0  0  0
209227  1  0  0  0  0
210228  1  0  0  0  0
M  END
