 xtb: 6.5.1 (b24c23e)
          07302204433D

304343  0     0  0            999 V2000
   42.9802   -0.0777    0.0850 Co  0  0  0  0  0  0  0  0  0  0  0  0
   39.6186   -0.2461    0.3193 C   0  0  0  0  0  0  0  0  0  0  0  0
   40.3108    0.4476    1.2885 C   0  0  0  0  0  0  0  0  0  0  0  0
   39.6840    1.1057    2.3946 C   0  0  0  0  0  0  0  0  0  0  0  0
   40.6396    1.8555    2.9918 C   0  0  0  0  0  0  0  0  0  0  0  0
   41.8527    1.6449    2.2585 C   0  0  0  0  0  0  0  0  0  0  0  0
   41.6498    0.7448    1.2431 N   0  0  0  0  0  0  0  0  0  0  0  0
   43.0199    2.3664    2.4606 C   0  0  0  0  0  0  0  0  0  0  0  0
   44.1781    2.1015    1.7492 C   0  0  0  0  0  0  0  0  0  0  0  0
   45.4202    2.7793    1.9684 C   0  0  0  0  0  0  0  0  0  0  0  0
   46.3663    2.0952    1.2822 C   0  0  0  0  0  0  0  0  0  0  0  0
   44.3554    1.0443    0.8845 N   0  0  0  0  0  0  0  0  0  0  0  0
   45.6992    1.0083    0.6375 C   0  0  0  0  0  0  0  0  0  0  0  0
   46.3688   -0.0027   -0.0548 C   0  0  0  0  0  0  0  0  0  0  0  0
   45.6832   -1.0098   -0.7355 C   0  0  0  0  0  0  0  0  0  0  0  0
   46.3352   -2.0483   -1.4699 C   0  0  0  0  0  0  0  0  0  0  0  0
   45.3678   -2.7073   -2.1514 C   0  0  0  0  0  0  0  0  0  0  0  0
   44.1271   -2.0707   -1.8288 C   0  0  0  0  0  0  0  0  0  0  0  0
   42.9181   -2.3773   -2.4323 C   0  0  0  0  0  0  0  0  0  0  0  0
   42.8941   -3.3837   -3.5277 C   0  0  0  0  0  0  0  0  0  0  0  0
   43.5141   -3.1109   -4.7548 C   0  0  0  0  0  0  0  0  0  0  0  0
   44.1044   -1.8921   -4.8645 O   0  0  0  0  0  0  0  0  0  0  0  0
   44.7790   -1.5262   -6.0512 C   0  0  0  0  0  0  0  0  0  0  0  0
   43.4919   -4.0545   -5.7815 C   0  0  0  0  0  0  0  0  0  0  0  0
   42.8554   -5.2691   -5.5759 C   0  0  0  0  0  0  0  0  0  0  0  0
   42.2390   -5.5632   -4.3691 C   0  0  0  0  0  0  0  0  0  0  0  0
   42.2567   -4.6185   -3.3436 C   0  0  0  0  0  0  0  0  0  0  0  0
   41.6906   -4.8200   -2.1245 O   0  0  0  0  0  0  0  0  0  0  0  0
   41.0168   -6.0283   -1.8371 C   0  0  0  0  0  0  0  0  0  0  0  0
   41.7285   -1.7928   -2.0257 C   0  0  0  0  0  0  0  0  0  0  0  0
   40.4512   -2.0831   -2.6076 C   0  0  0  0  0  0  0  0  0  0  0  0
   39.5190   -1.5024   -1.8167 C   0  0  0  0  0  0  0  0  0  0  0  0
   40.2286   -0.8408   -0.7639 C   0  0  0  0  0  0  0  0  0  0  0  0
   41.5836   -0.9741   -0.9336 N   0  0  0  0  0  0  0  0  0  0  0  0
   44.3286   -1.0615   -0.9156 N   0  0  0  0  0  0  0  0  0  0  0  0
   43.0350    3.4457    3.4857 C   0  0  0  0  0  0  0  0  0  0  0  0
   42.9856    3.1305    4.8497 C   0  0  0  0  0  0  0  0  0  0  0  0
   42.9294    1.8060    5.1512 O   0  0  0  0  0  0  0  0  0  0  0  0
   42.8931    1.3792    6.4979 C   0  0  0  0  0  0  0  0  0  0  0  0
   43.0041    4.1431    5.8083 C   0  0  0  0  0  0  0  0  0  0  0  0
   43.0674    5.4663    5.3983 C   0  0  0  0  0  0  0  0  0  0  0  0
   43.1158    5.8022    4.0538 C   0  0  0  0  0  0  0  0  0  0  0  0
   43.1027    4.7894    3.0953 C   0  0  0  0  0  0  0  0  0  0  0  0
   43.1439    5.0163    1.7559 O   0  0  0  0  0  0  0  0  0  0  0  0
   43.2172    6.3358    1.2550 C   0  0  0  0  0  0  0  0  0  0  0  0
   38.5399   -0.3094    0.4025 H   0  0  0  0  0  0  0  0  0  0  0  0
   38.6405    1.0097    2.6502 H   0  0  0  0  0  0  0  0  0  0  0  0
   40.5443    2.5049    3.8467 H   0  0  0  0  0  0  0  0  0  0  0  0
   45.5422    3.6528    2.5877 H   0  0  0  0  0  0  0  0  0  0  0  0
   47.4249    2.2889    1.2152 H   0  0  0  0  0  0  0  0  0  0  0  0
   47.3988   -2.2255   -1.4644 H   0  0  0  0  0  0  0  0  0  0  0  0
   45.4713   -3.5455   -2.8211 H   0  0  0  0  0  0  0  0  0  0  0  0
   44.0973   -1.5010   -6.9100 H   0  0  0  0  0  0  0  0  0  0  0  0
   45.1749   -0.5238   -5.8783 H   0  0  0  0  0  0  0  0  0  0  0  0
   45.6095   -2.2090   -6.2677 H   0  0  0  0  0  0  0  0  0  0  0  0
   43.9633   -3.8513   -6.7338 H   0  0  0  0  0  0  0  0  0  0  0  0
   42.8398   -6.0033   -6.3739 H   0  0  0  0  0  0  0  0  0  0  0  0
   41.7528   -6.5202   -4.2352 H   0  0  0  0  0  0  0  0  0  0  0  0
   40.6507   -5.9353   -0.8129 H   0  0  0  0  0  0  0  0  0  0  0  0
   40.1653   -6.1837   -2.5108 H   0  0  0  0  0  0  0  0  0  0  0  0
   41.6917   -6.8904   -1.9013 H   0  0  0  0  0  0  0  0  0  0  0  0
   40.3034   -2.6741   -3.4969 H   0  0  0  0  0  0  0  0  0  0  0  0
   38.4449   -1.5129   -1.9160 H   0  0  0  0  0  0  0  0  0  0  0  0
   42.8536    0.2886    6.4699 H   0  0  0  0  0  0  0  0  0  0  0  0
   42.0039    1.7583    7.0161 H   0  0  0  0  0  0  0  0  0  0  0  0
   43.7916    1.6932    7.0429 H   0  0  0  0  0  0  0  0  0  0  0  0
   42.9697    3.9103    6.8641 H   0  0  0  0  0  0  0  0  0  0  0  0
   43.0796    6.2539    6.1439 H   0  0  0  0  0  0  0  0  0  0  0  0
   43.1635    6.8430    3.7629 H   0  0  0  0  0  0  0  0  0  0  0  0
   44.1255    6.8459    1.5981 H   0  0  0  0  0  0  0  0  0  0  0  0
   43.2454    6.2465    0.1676 H   0  0  0  0  0  0  0  0  0  0  0  0
   42.3390    6.9252    1.5453 H   0  0  0  0  0  0  0  0  0  0  0  0
   90.8771   -0.0948    0.0329 Co  0  0  0  0  0  0  0  0  0  0  0  0
   94.2395   -0.3365    0.1444 C   0  0  0  0  0  0  0  0  0  0  0  0
   93.5474   -1.1910   -0.6870 C   0  0  0  0  0  0  0  0  0  0  0  0
   94.1743   -2.1774   -1.5137 C   0  0  0  0  0  0  0  0  0  0  0  0
   93.2152   -2.6566   -2.3402 C   0  0  0  0  0  0  0  0  0  0  0  0
   92.0009   -1.9708   -2.0099 C   0  0  0  0  0  0  0  0  0  0  0  0
   92.2058   -1.1085   -0.9635 N   0  0  0  0  0  0  0  0  0  0  0  0
   90.8306   -2.0580   -2.7512 C   0  0  0  0  0  0  0  0  0  0  0  0
   89.6742   -1.3946   -2.3773 C   0  0  0  0  0  0  0  0  0  0  0  0
   88.4316   -1.4954   -3.0818 C   0  0  0  0  0  0  0  0  0  0  0  0
   87.4879   -0.9256   -2.2950 C   0  0  0  0  0  0  0  0  0  0  0  0
   89.4983   -0.7144   -1.1922 N   0  0  0  0  0  0  0  0  0  0  0  0
   88.1570   -0.4722   -1.1165 C   0  0  0  0  0  0  0  0  0  0  0  0
   87.4878    0.0312    0.0034 C   0  0  0  0  0  0  0  0  0  0  0  0
   88.1771    0.5274    1.1132 C   0  0  0  0  0  0  0  0  0  0  0  0
   87.5283    1.0700    2.2654 C   0  0  0  0  0  0  0  0  0  0  0  0
   88.4959    1.6425    3.0210 C   0  0  0  0  0  0  0  0  0  0  0  0
   89.7331    1.4444    2.3288 C   0  0  0  0  0  0  0  0  0  0  0  0
   90.9391    2.0043    2.7173 C   0  0  0  0  0  0  0  0  0  0  0  0
   90.9624    2.9269    3.8838 C   0  0  0  0  0  0  0  0  0  0  0  0
   90.3292    4.1754    3.8111 C   0  0  0  0  0  0  0  0  0  0  0  0
   89.7278    4.4687    2.6288 O   0  0  0  0  0  0  0  0  0  0  0  0
   89.0458    5.6944    2.4557 C   0  0  0  0  0  0  0  0  0  0  0  0
   90.3512    5.0419    4.9035 C   0  0  0  0  0  0  0  0  0  0  0  0
   91.0001    4.6548    6.0661 C   0  0  0  0  0  0  0  0  0  0  0  0
   91.6296    3.4231    6.1631 C   0  0  0  0  0  0  0  0  0  0  0  0
   91.6127    2.5580    5.0696 C   0  0  0  0  0  0  0  0  0  0  0  0
   92.1913    1.3284    5.0730 O   0  0  0  0  0  0  0  0  0  0  0  0
   92.8743    0.8603    6.2181 C   0  0  0  0  0  0  0  0  0  0  0  0
   92.1272    1.7111    2.0635 C   0  0  0  0  0  0  0  0  0  0  0  0
   93.4020    2.2530    2.4318 C   0  0  0  0  0  0  0  0  0  0  0  0
   94.3353    1.5753    1.7232 C   0  0  0  0  0  0  0  0  0  0  0  0
   93.6279    0.6343    0.9084 C   0  0  0  0  0  0  0  0  0  0  0  0
   92.2733    0.7649    1.0812 N   0  0  0  0  0  0  0  0  0  0  0  0
   89.5294    0.7081    1.1839 N   0  0  0  0  0  0  0  0  0  0  0  0
   90.8127   -2.9027   -3.9765 C   0  0  0  0  0  0  0  0  0  0  0  0
   90.8676   -4.2990   -3.8758 C   0  0  0  0  0  0  0  0  0  0  0  0
   90.9315   -4.8009   -2.6142 O   0  0  0  0  0  0  0  0  0  0  0  0
   90.9727   -6.1973   -2.4001 C   0  0  0  0  0  0  0  0  0  0  0  0
   90.8457   -5.0898   -5.0241 C   0  0  0  0  0  0  0  0  0  0  0  0
   90.7739   -4.4808   -6.2679 C   0  0  0  0  0  0  0  0  0  0  0  0
   90.7201   -3.1007   -6.3919 C   0  0  0  0  0  0  0  0  0  0  0  0
   90.7362   -2.3098   -5.2435 C   0  0  0  0  0  0  0  0  0  0  0  0
   90.6901   -0.9515   -5.2609 O   0  0  0  0  0  0  0  0  0  0  0  0
   90.6097   -0.2536   -6.4872 C   0  0  0  0  0  0  0  0  0  0  0  0
   95.3193   -0.4197    0.1847 H   0  0  0  0  0  0  0  0  0  0  0  0
   95.2198   -2.4386   -1.4666 H   0  0  0  0  0  0  0  0  0  0  0  0
   93.3093   -3.3993   -3.1155 H   0  0  0  0  0  0  0  0  0  0  0  0
   88.3073   -1.9629   -4.0448 H   0  0  0  0  0  0  0  0  0  0  0  0
   86.4296   -0.8239   -2.4751 H   0  0  0  0  0  0  0  0  0  0  0  0
   86.4665    1.0239    2.4477 H   0  0  0  0  0  0  0  0  0  0  0  0
   88.3946    2.1621    3.9600 H   0  0  0  0  0  0  0  0  0  0  0  0
   89.7238    6.5501    2.5610 H   0  0  0  0  0  0  0  0  0  0  0  0
   88.6448    5.6777    1.4406 H   0  0  0  0  0  0  0  0  0  0  0  0
   88.2184    5.7975    3.1681 H   0  0  0  0  0  0  0  0  0  0  0  0
   89.8699    6.0095    4.8555 H   0  0  0  0  0  0  0  0  0  0  0  0
   91.0153    5.3282    6.9161 H   0  0  0  0  0  0  0  0  0  0  0  0
   92.1256    3.1460    7.0836 H   0  0  0  0  0  0  0  0  0  0  0  0
   93.2468   -0.1338    5.9639 H   0  0  0  0  0  0  0  0  0  0  0  0
   93.7220    1.5079    6.4731 H   0  0  0  0  0  0  0  0  0  0  0  0
   92.2039    0.7834    7.0827 H   0  0  0  0  0  0  0  0  0  0  0  0
   93.5481    3.0376    3.1564 H   0  0  0  0  0  0  0  0  0  0  0  0
   95.4084    1.6834    1.7396 H   0  0  0  0  0  0  0  0  0  0  0  0
   91.0181   -6.3374   -1.3185 H   0  0  0  0  0  0  0  0  0  0  0  0
   91.8609   -6.6483   -2.8590 H   0  0  0  0  0  0  0  0  0  0  0  0
   90.0737   -6.6898   -2.7898 H   0  0  0  0  0  0  0  0  0  0  0  0
   90.8841   -6.1687   -4.9572 H   0  0  0  0  0  0  0  0  0  0  0  0
   90.7592   -5.0958   -7.1609 H   0  0  0  0  0  0  0  0  0  0  0  0
   90.6656   -2.6528   -7.3750 H   0  0  0  0  0  0  0  0  0  0  0  0
   89.6997   -0.5165   -7.0401 H   0  0  0  0  0  0  0  0  0  0  0  0
   90.5797    0.8070   -6.2313 H   0  0  0  0  0  0  0  0  0  0  0  0
   91.4857   -0.4473   -7.1180 H   0  0  0  0  0  0  0  0  0  0  0  0
   51.5708    0.0303   -0.0928 C   0  0  0  0  0  0  0  0  0  0  0  0
   50.3427    0.0202   -0.0939 C   0  0  0  0  0  0  0  0  0  0  0  0
   48.9971    0.0128   -0.0882 C   0  0  0  0  0  0  0  0  0  0  0  0
   47.7738    0.0056   -0.0784 C   0  0  0  0  0  0  0  0  0  0  0  0
   52.9161    0.0377   -0.0872 C   0  0  0  0  0  0  0  0  0  0  0  0
   54.1398    0.0421   -0.0792 C   0  0  0  0  0  0  0  0  0  0  0  0
   67.5551   -0.1412   -0.0294 C   0  0  0  0  0  0  0  0  0  0  0  0
   66.3254   -0.1532   -0.0335 C   0  0  0  0  0  0  0  0  0  0  0  0
   64.9830   -0.1534   -0.0334 C   0  0  0  0  0  0  0  0  0  0  0  0
   63.7579   -0.1488   -0.0349 C   0  0  0  0  0  0  0  0  0  0  0  0
   68.8973   -0.1196   -0.0371 C   0  0  0  0  0  0  0  0  0  0  0  0
   70.1222   -0.0941   -0.0374 C   0  0  0  0  0  0  0  0  0  0  0  0
   83.5188    0.0729   -0.0162 C   0  0  0  0  0  0  0  0  0  0  0  0
   82.2894    0.0756   -0.0302 C   0  0  0  0  0  0  0  0  0  0  0  0
   80.9470    0.0732   -0.0400 C   0  0  0  0  0  0  0  0  0  0  0  0
   79.7218    0.0680   -0.0498 C   0  0  0  0  0  0  0  0  0  0  0  0
   84.8614    0.0651   -0.0068 C   0  0  0  0  0  0  0  0  0  0  0  0
   86.0863    0.0534    0.0020 C   0  0  0  0  0  0  0  0  0  0  0  0
   58.9507   -0.0312   -0.0507 Co  0  0  0  0  0  0  0  0  0  0  0  0
   55.5441    0.0362   -0.0678 C   0  0  0  0  0  0  0  0  0  0  0  0
   56.2119   -0.1980    1.1362 C   0  0  0  0  0  0  0  0  0  0  0  0
   55.5373   -0.4345    2.3737 C   0  0  0  0  0  0  0  0  0  0  0  0
   56.4888   -0.4389    3.3381 C   0  0  0  0  0  0  0  0  0  0  0  0
   57.7393   -0.2079    2.6827 C   0  0  0  0  0  0  0  0  0  0  0  0
   57.5625   -0.1043    1.3234 N   0  0  0  0  0  0  0  0  0  0  0  0
   58.9350   -0.0155    3.3549 C   0  0  0  0  0  0  0  0  0  0  0  0
   60.1379    0.1606    2.6951 C   0  0  0  0  0  0  0  0  0  0  0  0
   61.3867    0.3685    3.3622 C   0  0  0  0  0  0  0  0  0  0  0  0
   62.3480    0.3322    2.4086 C   0  0  0  0  0  0  0  0  0  0  0  0
   60.3277    0.0478    1.3364 N   0  0  0  0  0  0  0  0  0  0  0  0
   61.6807    0.1072    1.1649 C   0  0  0  0  0  0  0  0  0  0  0  0
   62.3570   -0.1239   -0.0366 C   0  0  0  0  0  0  0  0  0  0  0  0
   61.6753   -0.3143   -1.2421 C   0  0  0  0  0  0  0  0  0  0  0  0
   62.3358   -0.5844   -2.4802 C   0  0  0  0  0  0  0  0  0  0  0  0
   61.3841   -0.5426   -3.4431 C   0  0  0  0  0  0  0  0  0  0  0  0
   60.1483   -0.2397   -2.7882 C   0  0  0  0  0  0  0  0  0  0  0  0
   58.9676    0.0358   -3.4578 C   0  0  0  0  0  0  0  0  0  0  0  0
   58.9751    0.0635   -4.9454 C   0  0  0  0  0  0  0  0  0  0  0  0
   58.2969   -0.9216   -5.6761 C   0  0  0  0  0  0  0  0  0  0  0  0
   57.6657   -1.8753   -4.9431 O   0  0  0  0  0  0  0  0  0  0  0  0
   56.9432   -2.9093   -5.5805 C   0  0  0  0  0  0  0  0  0  0  0  0
   58.3069   -0.8961   -7.0703 C   0  0  0  0  0  0  0  0  0  0  0  0
   58.9898    0.1162   -7.7273 C   0  0  0  0  0  0  0  0  0  0  0  0
   59.6660    1.1025   -7.0253 C   0  0  0  0  0  0  0  0  0  0  0  0
   59.6616    1.0749   -5.6310 C   0  0  0  0  0  0  0  0  0  0  0  0
   60.2862    1.9989   -4.8557 O   0  0  0  0  0  0  0  0  0  0  0  0
   61.0087    3.0607   -5.4458 C   0  0  0  0  0  0  0  0  0  0  0  0
   57.7779    0.2804   -2.7896 C   0  0  0  0  0  0  0  0  0  0  0  0
   56.5446    0.5882   -3.4468 C   0  0  0  0  0  0  0  0  0  0  0  0
   55.5815    0.5749   -2.4945 C   0  0  0  0  0  0  0  0  0  0  0  0
   56.2330    0.2719   -1.2595 C   0  0  0  0  0  0  0  0  0  0  0  0
   57.5824    0.1444   -1.4350 N   0  0  0  0  0  0  0  0  0  0  0  0
   60.3320   -0.1536   -1.4270 N   0  0  0  0  0  0  0  0  0  0  0  0
   58.9242   -0.0036    4.8448 C   0  0  0  0  0  0  0  0  0  0  0  0
   59.3478   -1.1280    5.5635 C   0  0  0  0  0  0  0  0  0  0  0  0
   59.7501   -2.1900    4.8178 O   0  0  0  0  0  0  0  0  0  0  0  0
   60.1666   -3.3869    5.4437 C   0  0  0  0  0  0  0  0  0  0  0  0
   59.3325   -1.1162    6.9581 C   0  0  0  0  0  0  0  0  0  0  0  0
   58.8984    0.0208    7.6230 C   0  0  0  0  0  0  0  0  0  0  0  0
   58.4772    1.1461    6.9303 C   0  0  0  0  0  0  0  0  0  0  0  0
   58.4880    1.1333    5.5357 C   0  0  0  0  0  0  0  0  0  0  0  0
   58.1011    2.1819    4.7639 O   0  0  0  0  0  0  0  0  0  0  0  0
   57.6635    3.3865    5.3599 C   0  0  0  0  0  0  0  0  0  0  0  0
   54.4717   -0.5639    2.4743 H   0  0  0  0  0  0  0  0  0  0  0  0
   56.3695   -0.5766    4.4007 H   0  0  0  0  0  0  0  0  0  0  0  0
   61.4979    0.5093    4.4252 H   0  0  0  0  0  0  0  0  0  0  0  0
   63.4155    0.4357    2.5200 H   0  0  0  0  0  0  0  0  0  0  0  0
   63.3929   -0.7709   -2.5815 H   0  0  0  0  0  0  0  0  0  0  0  0
   61.4965   -0.6900   -4.5049 H   0  0  0  0  0  0  0  0  0  0  0  0
   56.1230   -2.5097   -6.1891 H   0  0  0  0  0  0  0  0  0  0  0  0
   56.5288   -3.5268   -4.7815 H   0  0  0  0  0  0  0  0  0  0  0  0
   57.5954   -3.5258   -6.2108 H   0  0  0  0  0  0  0  0  0  0  0  0
   57.7902   -1.6540   -7.6438 H   0  0  0  0  0  0  0  0  0  0  0  0
   58.9954    0.1368   -8.8115 H   0  0  0  0  0  0  0  0  0  0  0  0
   60.1888    1.8812   -7.5642 H   0  0  0  0  0  0  0  0  0  0  0  0
   61.4138    3.6478   -4.6195 H   0  0  0  0  0  0  0  0  0  0  0  0
   60.3582    3.6988   -6.0562 H   0  0  0  0  0  0  0  0  0  0  0  0
   61.8356    2.6895   -6.0632 H   0  0  0  0  0  0  0  0  0  0  0  0
   56.4412    0.7735   -4.5036 H   0  0  0  0  0  0  0  0  0  0  0  0
   54.5222    0.7457   -2.6013 H   0  0  0  0  0  0  0  0  0  0  0  0
   59.3649   -3.8206    6.0537 H   0  0  0  0  0  0  0  0  0  0  0  0
   60.4187   -4.0790    4.6382 H   0  0  0  0  0  0  0  0  0  0  0  0
   61.0522   -3.2257    6.0704 H   0  0  0  0  0  0  0  0  0  0  0  0
   59.6544   -1.9791    7.5255 H   0  0  0  0  0  0  0  0  0  0  0  0
   58.8877    0.0301    8.7074 H   0  0  0  0  0  0  0  0  0  0  0  0
   58.1450    2.0189    7.4764 H   0  0  0  0  0  0  0  0  0  0  0  0
   58.4503    3.8378    5.9766 H   0  0  0  0  0  0  0  0  0  0  0  0
   56.7677    3.2294    5.9728 H   0  0  0  0  0  0  0  0  0  0  0  0
   57.4213    4.0617    4.5372 H   0  0  0  0  0  0  0  0  0  0  0  0
   74.9224   -0.0177   -0.0472 Co  0  0  0  0  0  0  0  0  0  0  0  0
   71.5224   -0.0622   -0.0387 C   0  0  0  0  0  0  0  0  0  0  0  0
   72.2108   -0.2919    1.1574 C   0  0  0  0  0  0  0  0  0  0  0  0
   71.5642   -0.5839    2.3979 C   0  0  0  0  0  0  0  0  0  0  0  0
   72.5246   -0.5454    3.3537 C   0  0  0  0  0  0  0  0  0  0  0  0
   73.7521   -0.2295    2.6901 C   0  0  0  0  0  0  0  0  0  0  0  0
   73.5536   -0.1234    1.3331 N   0  0  0  0  0  0  0  0  0  0  0  0
   74.9293    0.0851    3.3473 C   0  0  0  0  0  0  0  0  0  0  0  0
   76.1027    0.3731    2.6716 C   0  0  0  0  0  0  0  0  0  0  0  0
   77.3355    0.7054    3.3171 C   0  0  0  0  0  0  0  0  0  0  0  0
   78.2925    0.6945    2.3575 C   0  0  0  0  0  0  0  0  0  0  0  0
   76.2929    0.2200    1.3176 N   0  0  0  0  0  0  0  0  0  0  0  0
   77.6383    0.3579    1.1323 C   0  0  0  0  0  0  0  0  0  0  0  0
   78.3212    0.0621   -0.0523 C   0  0  0  0  0  0  0  0  0  0  0  0
   77.6412   -0.2423   -1.2361 C   0  0  0  0  0  0  0  0  0  0  0  0
   78.2976   -0.5735   -2.4611 C   0  0  0  0  0  0  0  0  0  0  0  0
   77.3399   -0.5940   -3.4200 C   0  0  0  0  0  0  0  0  0  0  0  0
   76.1042   -0.2705   -2.7755 C   0  0  0  0  0  0  0  0  0  0  0  0
   74.9165   -0.0217   -3.4474 C   0  0  0  0  0  0  0  0  0  0  0  0
   74.9165   -0.0337   -4.9344 C   0  0  0  0  0  0  0  0  0  0  0  0
   74.2192   -1.0269   -5.6362 C   0  0  0  0  0  0  0  0  0  0  0  0
   73.5767   -1.9513   -4.8761 O   0  0  0  0  0  0  0  0  0  0  0  0
   72.8363   -2.9910   -5.4831 C   0  0  0  0  0  0  0  0  0  0  0  0
   74.2237   -1.0387   -7.0305 C   0  0  0  0  0  0  0  0  0  0  0  0
   74.9199   -0.0556   -7.7172 C   0  0  0  0  0  0  0  0  0  0  0  0
   75.6145    0.9382   -7.0445 C   0  0  0  0  0  0  0  0  0  0  0  0
   75.6159    0.9481   -5.6501 C   0  0  0  0  0  0  0  0  0  0  0  0
   76.2568    1.8841   -4.9031 O   0  0  0  0  0  0  0  0  0  0  0  0
   76.9982    2.9145   -5.5247 C   0  0  0  0  0  0  0  0  0  0  0  0
   73.7297    0.2309   -2.7775 C   0  0  0  0  0  0  0  0  0  0  0  0
   72.4865    0.5155   -3.4267 C   0  0  0  0  0  0  0  0  0  0  0  0
   71.5304    0.4911   -2.4670 C   0  0  0  0  0  0  0  0  0  0  0  0
   72.1957    0.2044   -1.2353 C   0  0  0  0  0  0  0  0  0  0  0  0
   73.5452    0.1076   -1.4193 N   0  0  0  0  0  0  0  0  0  0  0  0
   76.2945   -0.1129   -1.4230 N   0  0  0  0  0  0  0  0  0  0  0  0
   74.9370    0.1035    4.8379 C   0  0  0  0  0  0  0  0  0  0  0  0
   75.2212   -1.0664    5.5515 C   0  0  0  0  0  0  0  0  0  0  0  0
   75.4747   -2.1693    4.8001 O   0  0  0  0  0  0  0  0  0  0  0  0
   75.7840   -3.4015    5.4197 C   0  0  0  0  0  0  0  0  0  0  0  0
   75.2314   -1.0520    6.9461 C   0  0  0  0  0  0  0  0  0  0  0  0
   74.9571    0.1319    7.6144 C   0  0  0  0  0  0  0  0  0  0  0  0
   74.6726    1.3016    6.9258 C   0  0  0  0  0  0  0  0  0  0  0  0
   74.6625    1.2877    5.5311 C   0  0  0  0  0  0  0  0  0  0  0  0
   74.3976    2.3750    4.7612 O   0  0  0  0  0  0  0  0  0  0  0  0
   74.1041    3.6210    5.3608 C   0  0  0  0  0  0  0  0  0  0  0  0
   70.5089   -0.7761    2.5073 H   0  0  0  0  0  0  0  0  0  0  0  0
   72.4241   -0.7001    4.4159 H   0  0  0  0  0  0  0  0  0  0  0  0
   77.4418    0.9011    4.3720 H   0  0  0  0  0  0  0  0  0  0  0  0
   79.3502    0.8792    2.4555 H   0  0  0  0  0  0  0  0  0  0  0  0
   79.3565   -0.7513   -2.5594 H   0  0  0  0  0  0  0  0  0  0  0  0
   77.4490   -0.7965   -4.4731 H   0  0  0  0  0  0  0  0  0  0  0  0
   72.0188   -2.5955   -6.0980 H   0  0  0  0  0  0  0  0  0  0  0  0
   72.4171   -3.5814   -4.6663 H   0  0  0  0  0  0  0  0  0  0  0  0
   73.4765   -3.6330   -6.1001 H   0  0  0  0  0  0  0  0  0  0  0  0
   73.6926   -1.8033   -7.5814 H   0  0  0  0  0  0  0  0  0  0  0  0
   74.9212   -0.0642   -8.8016 H   0  0  0  0  0  0  0  0  0  0  0  0
   76.1469    1.6940   -7.6062 H   0  0  0  0  0  0  0  0  0  0  0  0
   77.4185    3.5155   -4.7163 H   0  0  0  0  0  0  0  0  0  0  0  0
   76.3582    3.5487   -6.1500 H   0  0  0  0  0  0  0  0  0  0  0  0
   77.8148    2.5098   -6.1347 H   0  0  0  0  0  0  0  0  0  0  0  0
   72.3716    0.6914   -4.4839 H   0  0  0  0  0  0  0  0  0  0  0  0
   70.4675    0.6416   -2.5677 H   0  0  0  0  0  0  0  0  0  0  0  0
   74.9566   -3.7542    6.0475 H   0  0  0  0  0  0  0  0  0  0  0  0
   75.9494   -4.1151    4.6105 H   0  0  0  0  0  0  0  0  0  0  0  0
   76.6942   -3.3281    6.0271 H   0  0  0  0  0  0  0  0  0  0  0  0
   75.4496   -1.9486    7.5105 H   0  0  0  0  0  0  0  0  0  0  0  0
   74.9653    0.1432    8.6988 H   0  0  0  0  0  0  0  0  0  0  0  0
   74.4623    2.2096    7.4749 H   0  0  0  0  0  0  0  0  0  0  0  0
   74.9426    3.9812    5.9692 H   0  0  0  0  0  0  0  0  0  0  0  0
   73.2027    3.5647    5.9830 H   0  0  0  0  0  0  0  0  0  0  0  0
   73.9304    4.3195    4.5403 H   0  0  0  0  0  0  0  0  0  0  0  0
  2  3  4  0  0  0  0
  3  4  1  0  0  0  0
  4  5  2  0  0  0  0
  5  6  4  0  0  0  0
  1  7  1  0  0  0  0
  3  7  4  0  0  0  0
  6  7  4  0  0  0  0
  6  8  4  0  0  0  0
  8  9  4  0  0  0  0
  9 10  4  0  0  0  0
 10 11  2  0  0  0  0
  1 12  1  0  0  0  0
  9 12  4  0  0  0  0
 11 13  4  0  0  0  0
 12 13  4  0  0  0  0
 13 14  4  0  0  0  0
 14 15  4  0  0  0  0
 15 16  4  0  0  0  0
 16 17  2  0  0  0  0
 17 18  4  0  0  0  0
 18 19  4  0  0  0  0
 19 20  1  0  0  0  0
 20 21  4  0  0  0  0
 21 22  1  0  0  0  0
 22 23  1  0  0  0  0
 21 24  4  0  0  0  0
 24 25  4  0  0  0  0
 25 26  4  0  0  0  0
 20 27  4  0  0  0  0
 26 27  4  0  0  0  0
 27 28  1  0  0  0  0
 28 29  1  0  0  0  0
 19 30  4  0  0  0  0
 30 31  4  0  0  0  0
 31 32  2  0  0  0  0
  2 33  4  0  0  0  0
 32 33  1  0  0  0  0
  1 34  1  0  0  0  0
 30 34  4  0  0  0  0
 33 34  4  0  0  0  0
  1 35  1  0  0  0  0
 15 35  4  0  0  0  0
 18 35  4  0  0  0  0
  8 36  1  0  0  0  0
 36 37  4  0  0  0  0
 37 38  1  0  0  0  0
 38 39  1  0  0  0  0
 37 40  4  0  0  0  0
 40 41  4  0  0  0  0
 41 42  4  0  0  0  0
 36 43  4  0  0  0  0
 42 43  4  0  0  0  0
 43 44  1  0  0  0  0
 44 45  1  0  0  0  0
  2 46  1  0  0  0  0
  4 47  1  0  0  0  0
  5 48  1  0  0  0  0
 10 49  1  0  0  0  0
 11 50  1  0  0  0  0
 16 51  1  0  0  0  0
 17 52  1  0  0  0  0
 23 53  1  0  0  0  0
 23 54  1  0  0  0  0
 23 55  1  0  0  0  0
 24 56  1  0  0  0  0
 25 57  1  0  0  0  0
 26 58  1  0  0  0  0
 29 59  1  0  0  0  0
 29 60  1  0  0  0  0
 29 61  1  0  0  0  0
 31 62  1  0  0  0  0
 32 63  1  0  0  0  0
 39 64  1  0  0  0  0
 39 65  1  0  0  0  0
 39 66  1  0  0  0  0
 40 67  1  0  0  0  0
 41 68  1  0  0  0  0
 42 69  1  0  0  0  0
 45 70  1  0  0  0  0
 45 71  1  0  0  0  0
 45 72  1  0  0  0  0
 74 75  4  0  0  0  0
 75 76  1  0  0  0  0
 76 77  2  0  0  0  0
 77 78  4  0  0  0  0
 73 79  1  0  0  0  0
 75 79  4  0  0  0  0
 78 79  4  0  0  0  0
 78 80  4  0  0  0  0
 80 81  4  0  0  0  0
 81 82  4  0  0  0  0
 82 83  2  0  0  0  0
 73 84  1  0  0  0  0
 81 84  4  0  0  0  0
 83 85  4  0  0  0  0
 84 85  4  0  0  0  0
 85 86  4  0  0  0  0
 86 87  4  0  0  0  0
 87 88  4  0  0  0  0
 88 89  2  0  0  0  0
 89 90  4  0  0  0  0
 90 91  4  0  0  0  0
 91 92  1  0  0  0  0
 92 93  4  0  0  0  0
 93 94  1  0  0  0  0
 94 95  1  0  0  0  0
 93 96  4  0  0  0  0
 96 97  4  0  0  0  0
 97 98  4  0  0  0  0
 92 99  4  0  0  0  0
 98 99  4  0  0  0  0
 99100  1  0  0  0  0
100101  1  0  0  0  0
 91102  4  0  0  0  0
102103  4  0  0  0  0
103104  2  0  0  0  0
 74105  4  0  0  0  0
104105  1  0  0  0  0
 73106  1  0  0  0  0
102106  4  0  0  0  0
105106  4  0  0  0  0
 73107  1  0  0  0  0
 87107  4  0  0  0  0
 90107  4  0  0  0  0
 80108  1  0  0  0  0
108109  4  0  0  0  0
109110  1  0  0  0  0
110111  1  0  0  0  0
109112  4  0  0  0  0
112113  4  0  0  0  0
113114  4  0  0  0  0
108115  4  0  0  0  0
114115  4  0  0  0  0
115116  1  0  0  0  0
116117  1  0  0  0  0
 74118  1  0  0  0  0
 76119  1  0  0  0  0
 77120  1  0  0  0  0
 82121  1  0  0  0  0
 83122  1  0  0  0  0
 88123  1  0  0  0  0
 89124  1  0  0  0  0
 95125  1  0  0  0  0
 95126  1  0  0  0  0
 95127  1  0  0  0  0
 96128  1  0  0  0  0
 97129  1  0  0  0  0
 98130  1  0  0  0  0
101131  1  0  0  0  0
101132  1  0  0  0  0
101133  1  0  0  0  0
103134  1  0  0  0  0
104135  1  0  0  0  0
111136  1  0  0  0  0
111137  1  0  0  0  0
111138  1  0  0  0  0
112139  1  0  0  0  0
113140  1  0  0  0  0
114141  1  0  0  0  0
117142  1  0  0  0  0
117143  1  0  0  0  0
117144  1  0  0  0  0
145146  3  0  0  0  0
146147  4  0  0  0  0
 14148  4  0  0  0  0
147148  3  0  0  0  0
145149  4  0  0  0  0
149150  3  0  0  0  0
151152  3  0  0  0  0
152153  4  0  0  0  0
153154  3  0  0  0  0
151155  4  0  0  0  0
155156  3  0  0  0  0
157158  3  0  0  0  0
158159  4  0  0  0  0
159160  3  0  0  0  0
157161  4  0  0  0  0
 86162  4  0  0  0  0
161162  3  0  0  0  0
150164  4  0  0  0  0
164165  4  0  0  0  0
165166  4  0  0  0  0
166167  2  0  0  0  0
167168  4  0  0  0  0
163169  1  0  0  0  0
165169  4  0  0  0  0
168169  4  0  0  0  0
168170  4  0  0  0  0
170171  4  0  0  0  0
171172  4  0  0  0  0
172173  2  0  0  0  0
163174  1  0  0  0  0
171174  4  0  0  0  0
173175  4  0  0  0  0
174175  4  0  0  0  0
154176  4  0  0  0  0
175176  4  0  0  0  0
176177  4  0  0  0  0
177178  4  0  0  0  0
178179  2  0  0  0  0
179180  4  0  0  0  0
180181  4  0  0  0  0
181182  1  0  0  0  0
182183  4  0  0  0  0
183184  1  0  0  0  0
184185  1  0  0  0  0
183186  4  0  0  0  0
186187  4  0  0  0  0
187188  4  0  0  0  0
182189  4  0  0  0  0
188189  4  0  0  0  0
189190  1  0  0  0  0
190191  1  0  0  0  0
181192  4  0  0  0  0
192193  4  0  0  0  0
193194  2  0  0  0  0
164195  4  0  0  0  0
194195  4  0  0  0  0
163196  1  0  0  0  0
192196  4  0  0  0  0
195196  4  0  0  0  0
163197  1  0  0  0  0
177197  4  0  0  0  0
180197  4  0  0  0  0
170198  1  0  0  0  0
198199  4  0  0  0  0
199200  1  0  0  0  0
200201  1  0  0  0  0
199202  4  0  0  0  0
202203  4  0  0  0  0
203204  4  0  0  0  0
198205  4  0  0  0  0
204205  4  0  0  0  0
205206  1  0  0  0  0
206207  1  0  0  0  0
166208  1  0  0  0  0
167209  1  0  0  0  0
172210  1  0  0  0  0
173211  1  0  0  0  0
178212  1  0  0  0  0
179213  1  0  0  0  0
185214  1  0  0  0  0
185215  1  0  0  0  0
185216  1  0  0  0  0
186217  1  0  0  0  0
187218  1  0  0  0  0
188219  1  0  0  0  0
191220  1  0  0  0  0
191221  1  0  0  0  0
191222  1  0  0  0  0
193223  1  0  0  0  0
194224  1  0  0  0  0
201225  1  0  0  0  0
201226  1  0  0  0  0
201227  1  0  0  0  0
202228  1  0  0  0  0
203229  1  0  0  0  0
204230  1  0  0  0  0
207231  1  0  0  0  0
207232  1  0  0  0  0
207233  1  0  0  0  0
156235  4  0  0  0  0
235236  4  0  0  0  0
236237  4  0  0  0  0
237238  2  0  0  0  0
238239  4  0  0  0  0
234240  1  0  0  0  0
236240  4  0  0  0  0
239240  4  0  0  0  0
239241  4  0  0  0  0
241242  4  0  0  0  0
242243  4  0  0  0  0
243244  2  0  0  0  0
234245  1  0  0  0  0
242245  4  0  0  0  0
244246  4  0  0  0  0
245246  4  0  0  0  0
160247  4  0  0  0  0
246247  4  0  0  0  0
247248  4  0  0  0  0
248249  4  0  0  0  0
249250  2  0  0  0  0
250251  4  0  0  0  0
251252  4  0  0  0  0
252253  1  0  0  0  0
253254  4  0  0  0  0
254255  1  0  0  0  0
255256  1  0  0  0  0
254257  4  0  0  0  0
257258  4  0  0  0  0
258259  4  0  0  0  0
253260  4  0  0  0  0
259260  4  0  0  0  0
260261  1  0  0  0  0
261262  1  0  0  0  0
252263  4  0  0  0  0
263264  4  0  0  0  0
264265  2  0  0  0  0
235266  4  0  0  0  0
265266  4  0  0  0  0
234267  1  0  0  0  0
263267  4  0  0  0  0
266267  4  0  0  0  0
234268  1  0  0  0  0
248268  4  0  0  0  0
251268  4  0  0  0  0
241269  1  0  0  0  0
269270  4  0  0  0  0
270271  1  0  0  0  0
271272  1  0  0  0  0
270273  4  0  0  0  0
273274  4  0  0  0  0
274275  4  0  0  0  0
269276  4  0  0  0  0
275276  4  0  0  0  0
276277  1  0  0  0  0
277278  1  0  0  0  0
237279  1  0  0  0  0
238280  1  0  0  0  0
243281  1  0  0  0  0
244282  1  0  0  0  0
249283  1  0  0  0  0
250284  1  0  0  0  0
256285  1  0  0  0  0
256286  1  0  0  0  0
256287  1  0  0  0  0
257288  1  0  0  0  0
258289  1  0  0  0  0
259290  1  0  0  0  0
262291  1  0  0  0  0
262292  1  0  0  0  0
262293  1  0  0  0  0
264294  1  0  0  0  0
265295  1  0  0  0  0
272296  1  0  0  0  0
272297  1  0  0  0  0
272298  1  0  0  0  0
273299  1  0  0  0  0
274300  1  0  0  0  0
275301  1  0  0  0  0
278302  1  0  0  0  0
278303  1  0  0  0  0
278304  1  0  0  0  0
M  END
