 xtb: 6.5.1 (b24c23e)
          07302203043D

274313  0     0  0            999 V2000
   54.1262    0.0703   -0.0790 Ni  0  0  0  0  0  0  0  0  0  0  0  0
   50.7412    0.1629   -0.1747 C   0  0  0  0  0  0  0  0  0  0  0  0
   51.3843    0.9280    0.7768 C   0  0  0  0  0  0  0  0  0  0  0  0
   50.7039    1.7145    1.7587 C   0  0  0  0  0  0  0  0  0  0  0  0
   51.6568    2.3915    2.4427 C   0  0  0  0  0  0  0  0  0  0  0  0
   52.9180    2.0355    1.8620 C   0  0  0  0  0  0  0  0  0  0  0  0
   52.7429    1.0996    0.8730 N   0  0  0  0  0  0  0  0  0  0  0  0
   54.1288    2.6271    2.2048 C   0  0  0  0  0  0  0  0  0  0  0  0
   54.1356    3.7215    3.2007 C   0  0  0  0  0  0  0  0  0  0  0  0
   53.3858    4.8832    2.9948 C   0  0  0  0  0  0  0  0  0  0  0  0
   53.3986    5.9067    3.9233 C   0  0  0  0  0  0  0  0  0  0  0  0
   54.1594    5.7966    5.0938 C   0  0  0  0  0  0  0  0  0  0  0  0
   54.0945    6.8238    6.0232 N   0  0  0  0  0  0  0  0  0  0  0  0
   55.1831    7.0065    6.9737 C   0  0  0  0  0  0  0  0  0  0  0  0
   54.9005    4.6313    5.3111 C   0  0  0  0  0  0  0  0  0  0  0  0
   54.8914    3.6161    4.3700 C   0  0  0  0  0  0  0  0  0  0  0  0
   55.3343    2.2343    1.6351 C   0  0  0  0  0  0  0  0  0  0  0  0
   56.5853    2.8820    1.8871 C   0  0  0  0  0  0  0  0  0  0  0  0
   57.5368    2.1624    1.2435 C   0  0  0  0  0  0  0  0  0  0  0  0
   55.5142    1.1529    0.8024 N   0  0  0  0  0  0  0  0  0  0  0  0
   56.8648    1.0818    0.5964 C   0  0  0  0  0  0  0  0  0  0  0  0
   57.5326    0.0436   -0.0595 C   0  0  0  0  0  0  0  0  0  0  0  0
   56.8573   -0.9980   -0.7025 C   0  0  0  0  0  0  0  0  0  0  0  0
   57.5192   -2.1095   -1.3058 C   0  0  0  0  0  0  0  0  0  0  0  0
   56.5608   -2.8473   -1.9179 C   0  0  0  0  0  0  0  0  0  0  0  0
   55.3173   -2.1726   -1.7019 C   0  0  0  0  0  0  0  0  0  0  0  0
   55.5071   -1.0609   -0.9115 N   0  0  0  0  0  0  0  0  0  0  0  0
   54.1143   -2.5558   -2.2824 C   0  0  0  0  0  0  0  0  0  0  0  0
   54.1042   -3.6989   -3.2222 C   0  0  0  0  0  0  0  0  0  0  0  0
   54.8894   -3.6852   -4.3765 C   0  0  0  0  0  0  0  0  0  0  0  0
   54.8789   -4.7492   -5.2623 C   0  0  0  0  0  0  0  0  0  0  0  0
   54.0870   -5.8714   -5.0024 C   0  0  0  0  0  0  0  0  0  0  0  0
   54.0029   -6.9443   -5.8773 N   0  0  0  0  0  0  0  0  0  0  0  0
   55.1076   -7.2215   -6.7857 C   0  0  0  0  0  0  0  0  0  0  0  0
   53.2942   -5.8881   -3.8481 C   0  0  0  0  0  0  0  0  0  0  0  0
   53.3014   -4.8165   -2.9758 C   0  0  0  0  0  0  0  0  0  0  0  0
   52.9184   -1.8974   -2.0170 C   0  0  0  0  0  0  0  0  0  0  0  0
   51.6736   -2.2063   -2.6568 C   0  0  0  0  0  0  0  0  0  0  0  0
   50.7267   -1.4387   -2.0666 C   0  0  0  0  0  0  0  0  0  0  0  0
   51.3944   -0.6554   -1.0732 C   0  0  0  0  0  0  0  0  0  0  0  0
   52.7433   -0.9119   -1.0782 N   0  0  0  0  0  0  0  0  0  0  0  0
   49.6584    0.1971   -0.2099 H   0  0  0  0  0  0  0  0  0  0  0  0
   49.6342    1.7298    1.8960 H   0  0  0  0  0  0  0  0  0  0  0  0
   51.5286    3.0711    3.2695 H   0  0  0  0  0  0  0  0  0  0  0  0
   52.8073    4.9917    2.0839 H   0  0  0  0  0  0  0  0  0  0  0  0
   52.8181    6.8062    3.7473 H   0  0  0  0  0  0  0  0  0  0  0  0
   53.7850    7.6991    5.6181 H   0  0  0  0  0  0  0  0  0  0  0  0
   56.1547    7.0569    6.4691 H   0  0  0  0  0  0  0  0  0  0  0  0
   55.1941    6.1859    7.6922 H   0  0  0  0  0  0  0  0  0  0  0  0
   55.0076    7.9383    7.5114 H   0  0  0  0  0  0  0  0  0  0  0  0
   55.4840    4.5092    6.2154 H   0  0  0  0  0  0  0  0  0  0  0  0
   55.4635    2.7132    4.5545 H   0  0  0  0  0  0  0  0  0  0  0  0
   56.7097    3.7774    2.4741 H   0  0  0  0  0  0  0  0  0  0  0  0
   58.6006    2.3336    1.2048 H   0  0  0  0  0  0  0  0  0  0  0  0
   58.5809   -2.2909   -1.2565 H   0  0  0  0  0  0  0  0  0  0  0  0
   56.6768   -3.7687   -2.4649 H   0  0  0  0  0  0  0  0  0  0  0  0
   55.5001   -2.8160   -4.5953 H   0  0  0  0  0  0  0  0  0  0  0  0
   55.4865   -4.6982   -6.1575 H   0  0  0  0  0  0  0  0  0  0  0  0
   53.6490   -7.7834   -5.4339 H   0  0  0  0  0  0  0  0  0  0  0  0
   55.1692   -6.4438   -7.5481 H   0  0  0  0  0  0  0  0  0  0  0  0
   54.9097   -8.1749   -7.2754 H   0  0  0  0  0  0  0  0  0  0  0  0
   56.0632   -7.2797   -6.2521 H   0  0  0  0  0  0  0  0  0  0  0  0
   52.6725   -6.7528   -3.6406 H   0  0  0  0  0  0  0  0  0  0  0  0
   52.6956   -4.8512   -2.0769 H   0  0  0  0  0  0  0  0  0  0  0  0
   51.5530   -2.9159   -3.4593 H   0  0  0  0  0  0  0  0  0  0  0  0
   49.6685   -1.3952   -2.2703 H   0  0  0  0  0  0  0  0  0  0  0  0
   94.3932    0.0376   -0.0278 Ni  0  0  0  0  0  0  0  0  0  0  0  0
   97.7777    0.1173   -0.1540 C   0  0  0  0  0  0  0  0  0  0  0  0
   97.1343   -0.9800   -0.6890 C   0  0  0  0  0  0  0  0  0  0  0  0
   97.8145   -2.1077   -1.2471 C   0  0  0  0  0  0  0  0  0  0  0  0
   96.8610   -2.9227   -1.7579 C   0  0  0  0  0  0  0  0  0  0  0  0
   95.5996   -2.2812   -1.5302 C   0  0  0  0  0  0  0  0  0  0  0  0
   95.7754   -1.1132   -0.8306 N   0  0  0  0  0  0  0  0  0  0  0  0
   94.3875   -2.7477   -2.0267 C   0  0  0  0  0  0  0  0  0  0  0  0
   94.3816   -3.9535   -2.8846 C   0  0  0  0  0  0  0  0  0  0  0  0
   95.1216   -3.9920   -4.0699 C   0  0  0  0  0  0  0  0  0  0  0  0
   95.1096   -5.1154   -4.8746 C   0  0  0  0  0  0  0  0  0  0  0  0
   94.3596   -6.2415   -4.5136 C   0  0  0  0  0  0  0  0  0  0  0  0
   94.4247   -7.3659   -5.3230 N   0  0  0  0  0  0  0  0  0  0  0  0
   93.3420   -8.3401   -5.2918 C   0  0  0  0  0  0  0  0  0  0  0  0
   93.6293   -6.2137   -3.3220 C   0  0  0  0  0  0  0  0  0  0  0  0
   93.6372   -5.0796   -2.5281 C   0  0  0  0  0  0  0  0  0  0  0  0
   93.1808   -2.1134   -1.7557 C   0  0  0  0  0  0  0  0  0  0  0  0
   91.9266   -2.5076   -2.3210 C   0  0  0  0  0  0  0  0  0  0  0  0
   90.9758   -1.7293   -1.7485 C   0  0  0  0  0  0  0  0  0  0  0  0
   93.0031   -1.0670   -0.8789 N   0  0  0  0  0  0  0  0  0  0  0  0
   91.6516   -0.8582   -0.8415 C   0  0  0  0  0  0  0  0  0  0  0  0
   90.9871    0.0076    0.0320 C   0  0  0  0  0  0  0  0  0  0  0  0
   91.6659    0.8693    0.8988 C   0  0  0  0  0  0  0  0  0  0  0  0
   91.0078    1.7036    1.8519 C   0  0  0  0  0  0  0  0  0  0  0  0
   91.9670    2.4727    2.4230 C   0  0  0  0  0  0  0  0  0  0  0  0
   93.2069    2.1172    1.8029 C   0  0  0  0  0  0  0  0  0  0  0  0
   93.0148    1.0948    0.9006 N   0  0  0  0  0  0  0  0  0  0  0  0
   94.4083    2.7761    2.0347 C   0  0  0  0  0  0  0  0  0  0  0  0
   94.4182    3.9531    2.9317 C   0  0  0  0  0  0  0  0  0  0  0  0
   93.6243    5.0686    2.6584 C   0  0  0  0  0  0  0  0  0  0  0  0
   93.6353    6.1763    3.4887 C   0  0  0  0  0  0  0  0  0  0  0  0
   94.4368    6.1873    4.6340 C   0  0  0  0  0  0  0  0  0  0  0  0
   94.5231    7.2873    5.4742 N   0  0  0  0  0  0  0  0  0  0  0  0
   93.4174    8.2333    5.5405 C   0  0  0  0  0  0  0  0  0  0  0  0
   95.2372    5.0721    4.9110 C   0  0  0  0  0  0  0  0  0  0  0  0
   95.2293    3.9757    4.0701 C   0  0  0  0  0  0  0  0  0  0  0  0
   95.6022    2.3726    1.4468 C   0  0  0  0  0  0  0  0  0  0  0  0
   96.8461    3.0685    1.5973 C   0  0  0  0  0  0  0  0  0  0  0  0
   97.7924    2.3209    0.9810 C   0  0  0  0  0  0  0  0  0  0  0  0
   97.1249    1.1747    0.4454 C   0  0  0  0  0  0  0  0  0  0  0  0
   95.7768    1.2351    0.6989 N   0  0  0  0  0  0  0  0  0  0  0  0
   98.8603    0.1457   -0.1989 H   0  0  0  0  0  0  0  0  0  0  0  0
   98.8844   -2.2433   -1.2363 H   0  0  0  0  0  0  0  0  0  0  0  0
   96.9888   -3.8761   -2.2443 H   0  0  0  0  0  0  0  0  0  0  0  0
   95.6918   -3.1205   -4.3726 H   0  0  0  0  0  0  0  0  0  0  0  0
   95.6822   -5.1289   -5.7961 H   0  0  0  0  0  0  0  0  0  0  0  0
   94.7231   -7.1514   -6.2669 H   0  0  0  0  0  0  0  0  0  0  0  0
   92.3661   -7.8629   -5.4371 H   0  0  0  0  0  0  0  0  0  0  0  0
   93.3436   -8.8708   -4.3389 H   0  0  0  0  0  0  0  0  0  0  0  0
   93.5138   -9.0600   -6.0920 H   0  0  0  0  0  0  0  0  0  0  0  0
   93.0552   -7.0763   -3.0066 H   0  0  0  0  0  0  0  0  0  0  0  0
   93.0734   -5.0738   -1.6014 H   0  0  0  0  0  0  0  0  0  0  0  0
   91.7995   -3.2760   -3.0660 H   0  0  0  0  0  0  0  0  0  0  0  0
   89.9104   -1.7354   -1.9134 H   0  0  0  0  0  0  0  0  0  0  0  0
   89.9481    1.6899    2.0498 H   0  0  0  0  0  0  0  0  0  0  0  0
   91.8539    3.2131    3.1980 H   0  0  0  0  0  0  0  0  0  0  0  0
   93.0063    5.0772    1.7671 H   0  0  0  0  0  0  0  0  0  0  0  0
   93.0206    7.0319    3.2373 H   0  0  0  0  0  0  0  0  0  0  0  0
   94.8850    7.0523    6.3906 H   0  0  0  0  0  0  0  0  0  0  0  0
   93.3458    8.7911    4.6059 H   0  0  0  0  0  0  0  0  0  0  0  0
   93.6220    8.9341    6.3499 H   0  0  0  0  0  0  0  0  0  0  0  0
   92.4644    7.7269    5.7319 H   0  0  0  0  0  0  0  0  0  0  0  0
   95.8658    5.0732    5.7954 H   0  0  0  0  0  0  0  0  0  0  0  0
   95.8414    3.1123    4.3070 H   0  0  0  0  0  0  0  0  0  0  0  0
   96.9669    4.0114    2.1055 H   0  0  0  0  0  0  0  0  0  0  0  0
   98.8499    2.5113    0.8887 H   0  0  0  0  0  0  0  0  0  0  0  0
   60.1590    0.0340   -0.0575 C   0  0  0  0  0  0  0  0  0  0  0  0
   58.9373    0.0384   -0.0591 C   0  0  0  0  0  0  0  0  0  0  0  0
   61.5087    0.0273   -0.0523 C   0  0  0  0  0  0  0  0  0  0  0  0
   62.7304    0.0222   -0.0454 C   0  0  0  0  0  0  0  0  0  0  0  0
   73.5910    0.0318   -0.0276 C   0  0  0  0  0  0  0  0  0  0  0  0
   72.3693    0.0240   -0.0269 C   0  0  0  0  0  0  0  0  0  0  0  0
   74.9406    0.0342   -0.0274 C   0  0  0  0  0  0  0  0  0  0  0  0
   76.1622    0.0421   -0.0297 C   0  0  0  0  0  0  0  0  0  0  0  0
   87.0111    0.0160    0.0421 C   0  0  0  0  0  0  0  0  0  0  0  0
   85.7893    0.0227    0.0335 C   0  0  0  0  0  0  0  0  0  0  0  0
   88.3608    0.0099    0.0457 C   0  0  0  0  0  0  0  0  0  0  0  0
   89.5825    0.0068    0.0436 C   0  0  0  0  0  0  0  0  0  0  0  0
   67.5501    0.0176   -0.0289 Ni  0  0  0  0  0  0  0  0  0  0  0  0
   64.1350    0.0164   -0.0348 C   0  0  0  0  0  0  0  0  0  0  0  0
   64.8061   -1.0433   -0.6519 C   0  0  0  0  0  0  0  0  0  0  0  0
   64.1291   -2.1233   -1.2943 C   0  0  0  0  0  0  0  0  0  0  0  0
   65.0838   -2.8885   -1.8767 C   0  0  0  0  0  0  0  0  0  0  0  0
   66.3428   -2.2776   -1.5790 C   0  0  0  0  0  0  0  0  0  0  0  0
   66.1604   -1.1511   -0.8080 N   0  0  0  0  0  0  0  0  0  0  0  0
   67.5534   -2.7157   -2.0999 C   0  0  0  0  0  0  0  0  0  0  0  0
   67.5568   -3.8926   -3.0022 C   0  0  0  0  0  0  0  0  0  0  0  0
   67.1846   -5.1544   -2.5328 C   0  0  0  0  0  0  0  0  0  0  0  0
   67.1952   -6.2512   -3.3742 C   0  0  0  0  0  0  0  0  0  0  0  0
   67.5682   -6.1147   -4.7169 C   0  0  0  0  0  0  0  0  0  0  0  0
   67.6124   -7.2528   -5.5093 N   0  0  0  0  0  0  0  0  0  0  0  0
   67.5136   -7.1263   -6.9573 C   0  0  0  0  0  0  0  0  0  0  0  0
   67.9457   -4.8546   -5.1892 C   0  0  0  0  0  0  0  0  0  0  0  0
   67.9389   -3.7625   -4.3378 C   0  0  0  0  0  0  0  0  0  0  0  0
   68.7628   -2.0960   -1.8140 C   0  0  0  0  0  0  0  0  0  0  0  0
   70.0235   -2.5485   -2.3173 C   0  0  0  0  0  0  0  0  0  0  0  0
   70.9763   -1.7794   -1.7373 C   0  0  0  0  0  0  0  0  0  0  0  0
   68.9425   -1.0482   -0.9384 N   0  0  0  0  0  0  0  0  0  0  0  0
   70.2964   -0.8668   -0.8755 C   0  0  0  0  0  0  0  0  0  0  0  0
   70.9649    0.0225   -0.0297 C   0  0  0  0  0  0  0  0  0  0  0  0
   70.2930    0.9084    0.8174 C   0  0  0  0  0  0  0  0  0  0  0  0
   70.9656    1.7828    1.7230 C   0  0  0  0  0  0  0  0  0  0  0  0
   70.0095    2.5416    2.3120 C   0  0  0  0  0  0  0  0  0  0  0  0
   68.7570    2.1366    1.7517 C   0  0  0  0  0  0  0  0  0  0  0  0
   68.9402    1.1017    0.8621 N   0  0  0  0  0  0  0  0  0  0  0  0
   67.5461    2.7527    2.0415 C   0  0  0  0  0  0  0  0  0  0  0  0
   67.5465    3.9338    2.9345 C   0  0  0  0  0  0  0  0  0  0  0  0
   66.8260    3.9271    4.1300 C   0  0  0  0  0  0  0  0  0  0  0  0
   66.8311    5.0241    4.9748 C   0  0  0  0  0  0  0  0  0  0  0  0
   67.5622    6.1667    4.6372 C   0  0  0  0  0  0  0  0  0  0  0  0
   67.5600    7.3126    5.4186 N   0  0  0  0  0  0  0  0  0  0  0  0
   67.2731    7.2123    6.8434 C   0  0  0  0  0  0  0  0  0  0  0  0
   68.2735    6.1839    3.4310 C   0  0  0  0  0  0  0  0  0  0  0  0
   68.2700    5.0814    2.5980 C   0  0  0  0  0  0  0  0  0  0  0  0
   66.3368    2.3055    1.5242 C   0  0  0  0  0  0  0  0  0  0  0  0
   65.0835    2.9544    1.7574 C   0  0  0  0  0  0  0  0  0  0  0  0
   64.1298    2.1832    1.1805 C   0  0  0  0  0  0  0  0  0  0  0  0
   64.8046    1.0743    0.5869 C   0  0  0  0  0  0  0  0  0  0  0  0
   66.1567    1.1690    0.7678 N   0  0  0  0  0  0  0  0  0  0  0  0
   63.0594   -2.2572   -1.3031 H   0  0  0  0  0  0  0  0  0  0  0  0
   64.9544   -3.7784   -2.4707 H   0  0  0  0  0  0  0  0  0  0  0  0
   66.9021   -5.2766   -1.4929 H   0  0  0  0  0  0  0  0  0  0  0  0
   66.9147   -7.2283   -2.9952 H   0  0  0  0  0  0  0  0  0  0  0  0
   67.0348   -8.0026   -5.1483 H   0  0  0  0  0  0  0  0  0  0  0  0
   66.6389   -6.5350   -7.2519 H   0  0  0  0  0  0  0  0  0  0  0  0
   68.4145   -6.6564   -7.3539 H   0  0  0  0  0  0  0  0  0  0  0  0
   67.4294   -8.1284   -7.3777 H   0  0  0  0  0  0  0  0  0  0  0  0
   68.2474   -4.7188   -6.2205 H   0  0  0  0  0  0  0  0  0  0  0  0
   68.2192   -2.7867   -4.7194 H   0  0  0  0  0  0  0  0  0  0  0  0
   70.1555   -3.3629   -3.0105 H   0  0  0  0  0  0  0  0  0  0  0  0
   72.0463   -1.8241   -1.8607 H   0  0  0  0  0  0  0  0  0  0  0  0
   72.0321    1.8002    1.8799 H   0  0  0  0  0  0  0  0  0  0  0  0
   70.1325    3.3039    3.0638 H   0  0  0  0  0  0  0  0  0  0  0  0
   66.2698    3.0397    4.4121 H   0  0  0  0  0  0  0  0  0  0  0  0
   66.2636    4.9842    5.8964 H   0  0  0  0  0  0  0  0  0  0  0  0
   68.3495    7.9175    5.2267 H   0  0  0  0  0  0  0  0  0  0  0  0
   67.9053    6.4608    7.3300 H   0  0  0  0  0  0  0  0  0  0  0  0
   67.4604    8.1871    7.2939 H   0  0  0  0  0  0  0  0  0  0  0  0
   66.2247    6.9530    6.9964 H   0  0  0  0  0  0  0  0  0  0  0  0
   68.8303    7.0725    3.1528 H   0  0  0  0  0  0  0  0  0  0  0  0
   68.8188    5.1120    1.6631 H   0  0  0  0  0  0  0  0  0  0  0  0
   64.9585    3.8838    2.2884 H   0  0  0  0  0  0  0  0  0  0  0  0
   63.0635    2.3394    1.1502 H   0  0  0  0  0  0  0  0  0  0  0  0
   80.9756    0.0532   -0.0247 Ni  0  0  0  0  0  0  0  0  0  0  0  0
   77.5663    0.0478   -0.0317 C   0  0  0  0  0  0  0  0  0  0  0  0
   78.2420   -1.0259   -0.6194 C   0  0  0  0  0  0  0  0  0  0  0  0
   77.5798   -2.1588   -1.1808 C   0  0  0  0  0  0  0  0  0  0  0  0
   78.5373   -2.9146   -1.7725 C   0  0  0  0  0  0  0  0  0  0  0  0
   79.7803   -2.2335   -1.5790 C   0  0  0  0  0  0  0  0  0  0  0  0
   79.5920   -1.0962   -0.8264 N   0  0  0  0  0  0  0  0  0  0  0  0
   80.9847   -2.6380   -2.1425 C   0  0  0  0  0  0  0  0  0  0  0  0
   80.9856   -3.7976   -3.0617 C   0  0  0  0  0  0  0  0  0  0  0  0
   81.7634   -4.9265   -2.7891 C   0  0  0  0  0  0  0  0  0  0  0  0
   81.7582   -6.0115   -3.6447 C   0  0  0  0  0  0  0  0  0  0  0  0
   80.9832   -5.9949   -4.8110 C   0  0  0  0  0  0  0  0  0  0  0  0
   80.9729   -7.1259   -5.6132 N   0  0  0  0  0  0  0  0  0  0  0  0
   80.6055   -7.0112   -7.0182 C   0  0  0  0  0  0  0  0  0  0  0  0
   80.2003   -4.8699   -5.0863 C   0  0  0  0  0  0  0  0  0  0  0  0
   80.2041   -3.7912   -4.2187 C   0  0  0  0  0  0  0  0  0  0  0  0
   82.1871   -1.9959   -1.8708 C   0  0  0  0  0  0  0  0  0  0  0  0
   83.4364   -2.3470   -2.4726 C   0  0  0  0  0  0  0  0  0  0  0  0
   84.3899   -1.6030   -1.8593 C   0  0  0  0  0  0  0  0  0  0  0  0
   82.3680   -1.0012   -0.9363 N   0  0  0  0  0  0  0  0  0  0  0  0
   83.7186   -0.7903   -0.8972 C   0  0  0  0  0  0  0  0  0  0  0  0
   84.3854    0.0320    0.0165 C   0  0  0  0  0  0  0  0  0  0  0  0
   83.7066    0.8695    0.9072 C   0  0  0  0  0  0  0  0  0  0  0  0
   84.3650    1.6880    1.8733 C   0  0  0  0  0  0  0  0  0  0  0  0
   83.4078    2.4587    2.4465 C   0  0  0  0  0  0  0  0  0  0  0  0
   82.1689    2.1141    1.8200 C   0  0  0  0  0  0  0  0  0  0  0  0
   82.3586    1.1010    0.9076 N   0  0  0  0  0  0  0  0  0  0  0  0
   80.9673    2.7711    2.0586 C   0  0  0  0  0  0  0  0  0  0  0  0
   80.9647    3.9488    2.9544 C   0  0  0  0  0  0  0  0  0  0  0  0
   80.1689    3.9728    4.1013 C   0  0  0  0  0  0  0  0  0  0  0  0
   80.1636    5.0691    4.9465 C   0  0  0  0  0  0  0  0  0  0  0  0
   80.9604    6.1812    4.6589 C   0  0  0  0  0  0  0  0  0  0  0  0
   80.9506    7.3282    5.4383 N   0  0  0  0  0  0  0  0  0  0  0  0
   80.5606    7.2450    6.8395 C   0  0  0  0  0  0  0  0  0  0  0  0
   81.7507    6.1671    3.5028 C   0  0  0  0  0  0  0  0  0  0  0  0
   81.7567    5.0648    2.6694 C   0  0  0  0  0  0  0  0  0  0  0  0
   79.7676    2.3592    1.4907 C   0  0  0  0  0  0  0  0  0  0  0  0
   78.5217    3.0393    1.6688 C   0  0  0  0  0  0  0  0  0  0  0  0
   77.5678    2.2679    1.0914 C   0  0  0  0  0  0  0  0  0  0  0  0
   78.2357    1.1292    0.5491 C   0  0  0  0  0  0  0  0  0  0  0  0
   79.5850    1.2086    0.7567 N   0  0  0  0  0  0  0  0  0  0  0  0
   76.5183   -2.3388   -1.1235 H   0  0  0  0  0  0  0  0  0  0  0  0
   78.4212   -3.8532   -2.2893 H   0  0  0  0  0  0  0  0  0  0  0  0
   82.3606   -4.9584   -1.8843 H   0  0  0  0  0  0  0  0  0  0  0  0
   82.3568   -6.8867   -3.4147 H   0  0  0  0  0  0  0  0  0  0  0  0
   81.7873   -7.7119   -5.4742 H   0  0  0  0  0  0  0  0  0  0  0  0
   79.5446   -6.7751   -7.1092 H   0  0  0  0  0  0  0  0  0  0  0  0
   81.1921   -6.2373   -7.5264 H   0  0  0  0  0  0  0  0  0  0  0  0
   80.7903   -7.9742   -7.4942 H   0  0  0  0  0  0  0  0  0  0  0  0
   79.5846   -4.8301   -5.9765 H   0  0  0  0  0  0  0  0  0  0  0  0
   79.6056   -2.9173   -4.4523 H   0  0  0  0  0  0  0  0  0  0  0  0
   83.5596   -3.0674   -3.2648 H   0  0  0  0  0  0  0  0  0  0  0  0
   85.4539   -1.5949   -2.0329 H   0  0  0  0  0  0  0  0  0  0  0  0
   85.4239    1.6669    2.0749 H   0  0  0  0  0  0  0  0  0  0  0  0
   83.5216    3.1923    3.2279 H   0  0  0  0  0  0  0  0  0  0  0  0
   79.5603    3.1089    4.3457 H   0  0  0  0  0  0  0  0  0  0  0  0
   79.5364    5.0529    5.8294 H   0  0  0  0  0  0  0  0  0  0  0  0
   81.7740    7.9020    5.3008 H   0  0  0  0  0  0  0  0  0  0  0  0
   81.1303    6.4744    7.3716 H   0  0  0  0  0  0  0  0  0  0  0  0
   80.7495    8.2149    7.2996 H   0  0  0  0  0  0  0  0  0  0  0  0
   79.4956    7.0229    6.9186 H   0  0  0  0  0  0  0  0  0  0  0  0
   82.3606    7.0318    3.2632 H   0  0  0  0  0  0  0  0  0  0  0  0
   82.3663    5.0725    1.7725 H   0  0  0  0  0  0  0  0  0  0  0  0
   78.4008    3.9869    2.1678 H   0  0  0  0  0  0  0  0  0  0  0  0
   76.5057    2.4424    1.0296 H   0  0  0  0  0  0  0  0  0  0  0  0
  2  3  4  0  0  0  0
  3  4  4  0  0  0  0
  4  5  2  0  0  0  0
  5  6  4  0  0  0  0
  1  7  1  0  0  0  0
  3  7  4  0  0  0  0
  6  7  4  0  0  0  0
  6  8  4  0  0  0  0
  8  9  1  0  0  0  0
  9 10  4  0  0  0  0
 10 11  4  0  0  0  0
 11 12  4  0  0  0  0
 12 13  1  0  0  0  0
 13 14  1  0  0  0  0
 12 15  4  0  0  0  0
  9 16  4  0  0  0  0
 15 16  4  0  0  0  0
  8 17  4  0  0  0  0
 17 18  4  0  0  0  0
 18 19  2  0  0  0  0
  1 20  1  0  0  0  0
 17 20  4  0  0  0  0
 19 21  4  0  0  0  0
 20 21  4  0  0  0  0
 21 22  4  0  0  0  0
 22 23  4  0  0  0  0
 23 24  4  0  0  0  0
 24 25  2  0  0  0  0
 25 26  4  0  0  0  0
  1 27  1  0  0  0  0
 23 27  4  0  0  0  0
 26 27  4  0  0  0  0
 26 28  4  0  0  0  0
 28 29  1  0  0  0  0
 29 30  4  0  0  0  0
 30 31  4  0  0  0  0
 31 32  4  0  0  0  0
 32 33  1  0  0  0  0
 33 34  1  0  0  0  0
 32 35  4  0  0  0  0
 29 36  4  0  0  0  0
 35 36  4  0  0  0  0
 28 37  4  0  0  0  0
 37 38  4  0  0  0  0
 38 39  2  0  0  0  0
  2 40  4  0  0  0  0
 39 40  4  0  0  0  0
  1 41  1  0  0  0  0
 37 41  4  0  0  0  0
 40 41  4  0  0  0  0
  2 42  1  0  0  0  0
  4 43  1  0  0  0  0
  5 44  1  0  0  0  0
 10 45  1  0  0  0  0
 11 46  1  0  0  0  0
 13 47  1  0  0  0  0
 14 48  1  0  0  0  0
 14 49  1  0  0  0  0
 14 50  1  0  0  0  0
 15 51  1  0  0  0  0
 16 52  1  0  0  0  0
 18 53  1  0  0  0  0
 19 54  1  0  0  0  0
 24 55  1  0  0  0  0
 25 56  1  0  0  0  0
 30 57  1  0  0  0  0
 31 58  1  0  0  0  0
 33 59  1  0  0  0  0
 34 60  1  0  0  0  0
 34 61  1  0  0  0  0
 34 62  1  0  0  0  0
 35 63  1  0  0  0  0
 36 64  1  0  0  0  0
 38 65  1  0  0  0  0
 39 66  1  0  0  0  0
 68 69  4  0  0  0  0
 69 70  4  0  0  0  0
 70 71  2  0  0  0  0
 71 72  4  0  0  0  0
 67 73  1  0  0  0  0
 69 73  4  0  0  0  0
 72 73  4  0  0  0  0
 72 74  4  0  0  0  0
 74 75  1  0  0  0  0
 75 76  4  0  0  0  0
 76 77  4  0  0  0  0
 77 78  4  0  0  0  0
 78 79  1  0  0  0  0
 79 80  1  0  0  0  0
 78 81  4  0  0  0  0
 75 82  4  0  0  0  0
 81 82  4  0  0  0  0
 74 83  4  0  0  0  0
 83 84  4  0  0  0  0
 84 85  2  0  0  0  0
 67 86  1  0  0  0  0
 83 86  4  0  0  0  0
 85 87  4  0  0  0  0
 86 87  4  0  0  0  0
 87 88  4  0  0  0  0
 88 89  4  0  0  0  0
 89 90  4  0  0  0  0
 90 91  2  0  0  0  0
 91 92  4  0  0  0  0
 67 93  1  0  0  0  0
 89 93  4  0  0  0  0
 92 93  4  0  0  0  0
 92 94  4  0  0  0  0
 94 95  1  0  0  0  0
 95 96  4  0  0  0  0
 96 97  4  0  0  0  0
 97 98  4  0  0  0  0
 98 99  1  0  0  0  0
 99100  1  0  0  0  0
 98101  4  0  0  0  0
 95102  4  0  0  0  0
101102  4  0  0  0  0
 94103  4  0  0  0  0
103104  4  0  0  0  0
104105  2  0  0  0  0
 68106  4  0  0  0  0
105106  4  0  0  0  0
 67107  1  0  0  0  0
103107  4  0  0  0  0
106107  4  0  0  0  0
 68108  1  0  0  0  0
 70109  1  0  0  0  0
 71110  1  0  0  0  0
 76111  1  0  0  0  0
 77112  1  0  0  0  0
 79113  1  0  0  0  0
 80114  1  0  0  0  0
 80115  1  0  0  0  0
 80116  1  0  0  0  0
 81117  1  0  0  0  0
 82118  1  0  0  0  0
 84119  1  0  0  0  0
 85120  1  0  0  0  0
 90121  1  0  0  0  0
 91122  1  0  0  0  0
 96123  1  0  0  0  0
 97124  1  0  0  0  0
 99125  1  0  0  0  0
100126  1  0  0  0  0
100127  1  0  0  0  0
100128  1  0  0  0  0
101129  1  0  0  0  0
102130  1  0  0  0  0
104131  1  0  0  0  0
105132  1  0  0  0  0
 22134  4  0  0  0  0
133134  3  0  0  0  0
133135  4  0  0  0  0
135136  3  0  0  0  0
137138  3  0  0  0  0
137139  4  0  0  0  0
139140  3  0  0  0  0
141142  3  0  0  0  0
141143  4  0  0  0  0
 88144  4  0  0  0  0
143144  3  0  0  0  0
136146  4  0  0  0  0
146147  4  0  0  0  0
147148  4  0  0  0  0
148149  2  0  0  0  0
149150  4  0  0  0  0
145151  1  0  0  0  0
147151  4  0  0  0  0
150151  4  0  0  0  0
150152  4  0  0  0  0
152153  1  0  0  0  0
153154  4  0  0  0  0
154155  4  0  0  0  0
155156  4  0  0  0  0
156157  1  0  0  0  0
157158  1  0  0  0  0
156159  4  0  0  0  0
153160  4  0  0  0  0
159160  4  0  0  0  0
152161  4  0  0  0  0
161162  4  0  0  0  0
162163  2  0  0  0  0
145164  1  0  0  0  0
161164  4  0  0  0  0
163165  4  0  0  0  0
164165  4  0  0  0  0
138166  4  0  0  0  0
165166  4  0  0  0  0
166167  4  0  0  0  0
167168  4  0  0  0  0
168169  2  0  0  0  0
169170  4  0  0  0  0
145171  1  0  0  0  0
167171  4  0  0  0  0
170171  4  0  0  0  0
170172  4  0  0  0  0
172173  1  0  0  0  0
173174  4  0  0  0  0
174175  4  0  0  0  0
175176  4  0  0  0  0
176177  1  0  0  0  0
177178  1  0  0  0  0
176179  4  0  0  0  0
173180  4  0  0  0  0
179180  4  0  0  0  0
172181  4  0  0  0  0
181182  4  0  0  0  0
182183  2  0  0  0  0
146184  4  0  0  0  0
183184  4  0  0  0  0
145185  1  0  0  0  0
181185  4  0  0  0  0
184185  4  0  0  0  0
148186  1  0  0  0  0
149187  1  0  0  0  0
154188  1  0  0  0  0
155189  1  0  0  0  0
157190  1  0  0  0  0
158191  1  0  0  0  0
158192  1  0  0  0  0
158193  1  0  0  0  0
159194  1  0  0  0  0
160195  1  0  0  0  0
162196  1  0  0  0  0
163197  1  0  0  0  0
168198  1  0  0  0  0
169199  1  0  0  0  0
174200  1  0  0  0  0
175201  1  0  0  0  0
177202  1  0  0  0  0
178203  1  0  0  0  0
178204  1  0  0  0  0
178205  1  0  0  0  0
179206  1  0  0  0  0
180207  1  0  0  0  0
182208  1  0  0  0  0
183209  1  0  0  0  0
140211  4  0  0  0  0
211212  4  0  0  0  0
212213  4  0  0  0  0
213214  2  0  0  0  0
214215  4  0  0  0  0
210216  1  0  0  0  0
212216  4  0  0  0  0
215216  4  0  0  0  0
215217  4  0  0  0  0
217218  1  0  0  0  0
218219  4  0  0  0  0
219220  4  0  0  0  0
220221  4  0  0  0  0
221222  1  0  0  0  0
222223  1  0  0  0  0
221224  4  0  0  0  0
218225  4  0  0  0  0
224225  4  0  0  0  0
217226  4  0  0  0  0
226227  4  0  0  0  0
227228  2  0  0  0  0
210229  1  0  0  0  0
226229  4  0  0  0  0
228230  4  0  0  0  0
229230  4  0  0  0  0
142231  4  0  0  0  0
230231  4  0  0  0  0
231232  4  0  0  0  0
232233  4  0  0  0  0
233234  2  0  0  0  0
234235  4  0  0  0  0
210236  1  0  0  0  0
232236  4  0  0  0  0
235236  4  0  0  0  0
235237  4  0  0  0  0
237238  1  0  0  0  0
238239  4  0  0  0  0
239240  4  0  0  0  0
240241  4  0  0  0  0
241242  1  0  0  0  0
242243  1  0  0  0  0
241244  4  0  0  0  0
238245  4  0  0  0  0
244245  4  0  0  0  0
237246  4  0  0  0  0
246247  4  0  0  0  0
247248  2  0  0  0  0
211249  4  0  0  0  0
248249  4  0  0  0  0
210250  1  0  0  0  0
246250  4  0  0  0  0
249250  4  0  0  0  0
213251  1  0  0  0  0
214252  1  0  0  0  0
219253  1  0  0  0  0
220254  1  0  0  0  0
222255  1  0  0  0  0
223256  1  0  0  0  0
223257  1  0  0  0  0
223258  1  0  0  0  0
224259  1  0  0  0  0
225260  1  0  0  0  0
227261  1  0  0  0  0
228262  1  0  0  0  0
233263  1  0  0  0  0
234264  1  0  0  0  0
239265  1  0  0  0  0
240266  1  0  0  0  0
242267  1  0  0  0  0
243268  1  0  0  0  0
243269  1  0  0  0  0
243270  1  0  0  0  0
244271  1  0  0  0  0
245272  1  0  0  0  0
247273  1  0  0  0  0
248274  1  0  0  0  0
M  END
