 xtb: 6.5.1 (b24c23e)
          07302207043D

 80 95  0     0  0            999 V2000
    5.2193   -0.0085   -0.0095 Zn  0  0  0  0  0  0  0  0  0  0  0  0
    1.7928   -0.0521   -0.0520 C   0  0  0  0  0  0  0  0  0  0  0  0
    2.4387   -0.9210   -0.9248 C   0  0  0  0  0  0  0  0  0  0  0  0
    1.7885   -1.8275   -1.8334 C   0  0  0  0  0  0  0  0  0  0  0  0
    2.7654   -2.4915   -2.5007 C   0  0  0  0  0  0  0  0  0  0  0  0
    4.0234   -1.9987   -2.0073 C   0  0  0  0  0  0  0  0  0  0  0  0
    3.7903   -1.0509   -1.0550 N   0  0  0  0  0  0  0  0  0  0  0  0
    5.2785   -2.4226   -2.4310 C   0  0  0  0  0  0  0  0  0  0  0  0
    6.5111   -1.9718   -1.9752 C   0  0  0  0  0  0  0  0  0  0  0  0
    7.7882   -2.4391   -2.4380 C   0  0  0  0  0  0  0  0  0  0  0  0
    8.7356   -1.7550   -1.7472 C   0  0  0  0  0  0  0  0  0  0  0  0
    6.7057   -1.0155   -1.0153 N   0  0  0  0  0  0  0  0  0  0  0  0
    8.0461   -0.8636   -0.8570 C   0  0  0  0  0  0  0  0  0  0  0  0
    8.6716    0.0295    0.0377 C   0  0  0  0  0  0  0  0  0  0  0  0
    8.0029    0.9116    0.9110 C   0  0  0  0  0  0  0  0  0  0  0  0
    8.6476    1.8202    1.8173 C   0  0  0  0  0  0  0  0  0  0  0  0
    7.6662    2.4854    2.4788 C   0  0  0  0  0  0  0  0  0  0  0  0
    6.4130    1.9887    1.9823 C   0  0  0  0  0  0  0  0  0  0  0  0
    6.6554    1.0345    1.0313 N   0  0  0  0  0  0  0  0  0  0  0  0
    5.1584    2.4105    2.4052 C   0  0  0  0  0  0  0  0  0  0  0  0
    3.9250    1.9541    1.9524 C   0  0  0  0  0  0  0  0  0  0  0  0
    2.6431    2.4132    2.4162 C   0  0  0  0  0  0  0  0  0  0  0  0
    1.7000    1.7228    1.7275 C   0  0  0  0  0  0  0  0  0  0  0  0
    2.3948    0.8336    0.8352 C   0  0  0  0  0  0  0  0  0  0  0  0
    3.7393    0.9984    0.9975 N   0  0  0  0  0  0  0  0  0  0  0  0
    0.7074   -0.0670   -0.0643 H   0  0  0  0  0  0  0  0  0  0  0  0
    0.7195   -1.9316   -1.9372 H   0  0  0  0  0  0  0  0  0  0  0  0
    2.6582   -3.2492   -3.2613 H   0  0  0  0  0  0  0  0  0  0  0  0
    5.2977   -3.1894   -3.1995 H   0  0  0  0  0  0  0  0  0  0  0  0
    7.9297   -3.1944   -3.1951 H   0  0  0  0  0  0  0  0  0  0  0  0
    9.8081   -1.8382   -1.8261 H   0  0  0  0  0  0  0  0  0  0  0  0
    9.7155    1.9270    1.9251 H   0  0  0  0  0  0  0  0  0  0  0  0
    7.7697    3.2459    3.2370 H   0  0  0  0  0  0  0  0  0  0  0  0
    5.1394    3.1780    3.1730 H   0  0  0  0  0  0  0  0  0  0  0  0
    2.4979    3.1686    3.1729 H   0  0  0  0  0  0  0  0  0  0  0  0
    0.6265    1.7986    1.8063 H   0  0  0  0  0  0  0  0  0  0  0  0
   23.8672    0.0080   -0.0033 Zn  0  0  0  0  0  0  0  0  0  0  0  0
   27.2936    0.0730   -0.0050 C   0  0  0  0  0  0  0  0  0  0  0  0
   26.6462    1.3023   -0.0658 C   0  0  0  0  0  0  0  0  0  0  0  0
   27.2948    2.5850   -0.1288 C   0  0  0  0  0  0  0  0  0  0  0  0
   26.3167    3.5240   -0.1751 C   0  0  0  0  0  0  0  0  0  0  0  0
   25.0595    2.8260   -0.1407 C   0  0  0  0  0  0  0  0  0  0  0  0
   25.2943    1.4843   -0.0750 N   0  0  0  0  0  0  0  0  0  0  0  0
   23.8037    3.4231   -0.1683 C   0  0  0  0  0  0  0  0  0  0  0  0
   22.5719    2.7814   -0.1347 C   0  0  0  0  0  0  0  0  0  0  0  0
   21.2940    3.4369   -0.1627 C   0  0  0  0  0  0  0  0  0  0  0  0
   20.3477    2.4649   -0.1126 C   0  0  0  0  0  0  0  0  0  0  0  0
   22.3789    1.4278   -0.0689 N   0  0  0  0  0  0  0  0  0  0  0  0
   21.0388    1.2073   -0.0541 C   0  0  0  0  0  0  0  0  0  0  0  0
   20.4149   -0.0562    0.0064 C   0  0  0  0  0  0  0  0  0  0  0  0
   21.0851   -1.2956    0.0593 C   0  0  0  0  0  0  0  0  0  0  0  0
   20.4421   -2.5783    0.1188 C   0  0  0  0  0  0  0  0  0  0  0  0
   21.4247   -3.5142    0.1612 C   0  0  0  0  0  0  0  0  0  0  0  0
   22.6770   -2.8111    0.1284 C   0  0  0  0  0  0  0  0  0  0  0  0
   22.4329   -1.4657    0.0658 N   0  0  0  0  0  0  0  0  0  0  0  0
   23.9323   -3.4061    0.1577 C   0  0  0  0  0  0  0  0  0  0  0  0
   25.1650   -2.7623    0.1291 C   0  0  0  0  0  0  0  0  0  0  0  0
   26.4477   -3.4125    0.1623 C   0  0  0  0  0  0  0  0  0  0  0  0
   27.3896   -2.4372    0.1169 C   0  0  0  0  0  0  0  0  0  0  0  0
   26.6932   -1.1798    0.0554 C   0  0  0  0  0  0  0  0  0  0  0  0
   25.3491   -1.4127    0.0648 N   0  0  0  0  0  0  0  0  0  0  0  0
   28.3790    0.0937   -0.0050 H   0  0  0  0  0  0  0  0  0  0  0  0
   28.3635    2.7332   -0.1360 H   0  0  0  0  0  0  0  0  0  0  0  0
   26.4225    4.5965   -0.2279 H   0  0  0  0  0  0  0  0  0  0  0  0
   23.7832    4.5074   -0.2209 H   0  0  0  0  0  0  0  0  0  0  0  0
   21.1511    4.5050   -0.2140 H   0  0  0  0  0  0  0  0  0  0  0  0
   19.2751    2.5782   -0.1152 H   0  0  0  0  0  0  0  0  0  0  0  0
   19.3744   -2.7312    0.1264 H   0  0  0  0  0  0  0  0  0  0  0  0
   21.3225   -4.5871    0.2109 H   0  0  0  0  0  0  0  0  0  0  0  0
   23.9527   -4.4905    0.2092 H   0  0  0  0  0  0  0  0  0  0  0  0
   26.5942   -4.4803    0.2138 H   0  0  0  0  0  0  0  0  0  0  0  0
   28.4632   -2.5450    0.1238 H   0  0  0  0  0  0  0  0  0  0  0  0
   10.0768    0.0360    0.0579 C   0  0  0  0  0  0  0  0  0  0  0  0
   11.3013    0.0218    0.0653 C   0  0  0  0  0  0  0  0  0  0  0  0
   12.6440    0.0043    0.0689 C   0  0  0  0  0  0  0  0  0  0  0  0
   13.8744   -0.0203    0.0609 C   0  0  0  0  0  0  0  0  0  0  0  0
   15.2124   -0.0428    0.0525 C   0  0  0  0  0  0  0  0  0  0  0  0
   16.4427   -0.0652    0.0421 C   0  0  0  0  0  0  0  0  0  0  0  0
   17.7856   -0.0742    0.0295 C   0  0  0  0  0  0  0  0  0  0  0  0
   19.0101   -0.0764    0.0155 C   0  0  0  0  0  0  0  0  0  0  0  0
  2  3  4  0  0  0  0
  3  4  1  0  0  0  0
  4  5  2  0  0  0  0
  5  6  1  0  0  0  0
  1  7  1  0  0  0  0
  3  7  4  0  0  0  0
  6  7  4  0  0  0  0
  6  8  4  0  0  0  0
  8  9  4  0  0  0  0
  9 10  4  0  0  0  0
 10 11  2  0  0  0  0
  1 12  1  0  0  0  0
  9 12  4  0  0  0  0
 11 13  4  0  0  0  0
 12 13  4  0  0  0  0
 13 14  4  0  0  0  0
 14 15  4  0  0  0  0
 15 16  4  0  0  0  0
 16 17  2  0  0  0  0
 17 18  4  0  0  0  0
  1 19  1  0  0  0  0
 15 19  4  0  0  0  0
 18 19  4  0  0  0  0
 18 20  4  0  0  0  0
 20 21  4  0  0  0  0
 21 22  1  0  0  0  0
 22 23  2  0  0  0  0
  2 24  4  0  0  0  0
 23 24  1  0  0  0  0
  1 25  1  0  0  0  0
 21 25  4  0  0  0  0
 24 25  4  0  0  0  0
  2 26  1  0  0  0  0
  4 27  1  0  0  0  0
  5 28  1  0  0  0  0
  8 29  1  0  0  0  0
 10 30  1  0  0  0  0
 11 31  1  0  0  0  0
 16 32  1  0  0  0  0
 17 33  1  0  0  0  0
 20 34  1  0  0  0  0
 22 35  1  0  0  0  0
 23 36  1  0  0  0  0
 38 39  4  0  0  0  0
 39 40  1  0  0  0  0
 40 41  2  0  0  0  0
 41 42  1  0  0  0  0
 37 43  1  0  0  0  0
 39 43  4  0  0  0  0
 42 43  4  0  0  0  0
 42 44  4  0  0  0  0
 44 45  4  0  0  0  0
 45 46  4  0  0  0  0
 46 47  2  0  0  0  0
 37 48  1  0  0  0  0
 45 48  4  0  0  0  0
 47 49  4  0  0  0  0
 48 49  4  0  0  0  0
 49 50  4  0  0  0  0
 50 51  4  0  0  0  0
 51 52  4  0  0  0  0
 52 53  2  0  0  0  0
 53 54  4  0  0  0  0
 37 55  1  0  0  0  0
 51 55  4  0  0  0  0
 54 55  4  0  0  0  0
 54 56  4  0  0  0  0
 56 57  4  0  0  0  0
 57 58  1  0  0  0  0
 58 59  2  0  0  0  0
 38 60  4  0  0  0  0
 59 60  1  0  0  0  0
 37 61  1  0  0  0  0
 57 61  4  0  0  0  0
 60 61  4  0  0  0  0
 38 62  1  0  0  0  0
 40 63  1  0  0  0  0
 41 64  1  0  0  0  0
 44 65  1  0  0  0  0
 46 66  1  0  0  0  0
 47 67  1  0  0  0  0
 52 68  1  0  0  0  0
 53 69  1  0  0  0  0
 56 70  1  0  0  0  0
 58 71  1  0  0  0  0
 59 72  1  0  0  0  0
 14 73  4  0  0  0  0
 73 74  3  0  0  0  0
 74 75  4  0  0  0  0
 75 76  3  0  0  0  0
 76 77  4  0  0  0  0
 77 78  3  0  0  0  0
 78 79  4  0  0  0  0
 50 80  4  0  0  0  0
 79 80  3  0  0  0  0
M  END
