 xtb: 6.5.1 (b24c23e)
          07302211233D

175204  0     0  0            999 V2000
   28.8269   -0.0135    0.0042 Zn  0  0  0  0  0  0  0  0  0  0  0  0
   25.4158   -0.0413   -0.0337 C   0  0  0  0  0  0  0  0  0  0  0  0
   26.0455   -1.2787   -0.0947 C   0  0  0  0  0  0  0  0  0  0  0  0
   25.3713   -2.5462   -0.1362 C   0  0  0  0  0  0  0  0  0  0  0  0
   26.3302   -3.5052   -0.1694 C   0  0  0  0  0  0  0  0  0  0  0  0
   27.6033   -2.8343   -0.1573 C   0  0  0  0  0  0  0  0  0  0  0  0
   27.3948   -1.4869   -0.1058 N   0  0  0  0  0  0  0  0  0  0  0  0
   28.8537   -3.4639   -0.1644 C   0  0  0  0  0  0  0  0  0  0  0  0
   30.0929   -2.8170   -0.1097 C   0  0  0  0  0  0  0  0  0  0  0  0
   31.3723   -3.4689   -0.1607 C   0  0  0  0  0  0  0  0  0  0  0  0
   32.3192   -2.4978   -0.1034 C   0  0  0  0  0  0  0  0  0  0  0  0
   30.2876   -1.4634   -0.0325 N   0  0  0  0  0  0  0  0  0  0  0  0
   31.6295   -1.2437   -0.0247 C   0  0  0  0  0  0  0  0  0  0  0  0
   32.2612    0.0152    0.0328 C   0  0  0  0  0  0  0  0  0  0  0  0
   31.6077    1.2631    0.0877 C   0  0  0  0  0  0  0  0  0  0  0  0
   32.2752    2.5311    0.1194 C   0  0  0  0  0  0  0  0  0  0  0  0
   31.3115    3.4864    0.1614 C   0  0  0  0  0  0  0  0  0  0  0  0
   30.0439    2.8099    0.1630 C   0  0  0  0  0  0  0  0  0  0  0  0
   28.7934    3.4368    0.1861 C   0  0  0  0  0  0  0  0  0  0  0  0
   28.7788    4.9195    0.2675 C   0  0  0  0  0  0  0  0  0  0  0  0
   28.2253    5.6792   -0.7640 C   0  0  0  0  0  0  0  0  0  0  0  0
   28.2126    7.0638   -0.6869 C   0  0  0  0  0  0  0  0  0  0  0  0
   28.7474    7.7063    0.4215 C   0  0  0  0  0  0  0  0  0  0  0  0
   29.2985    6.9578    1.4527 C   0  0  0  0  0  0  0  0  0  0  0  0
   29.3171    5.5732    1.3768 C   0  0  0  0  0  0  0  0  0  0  0  0
   27.5539    2.7874    0.1384 C   0  0  0  0  0  0  0  0  0  0  0  0
   26.2693    3.4326    0.2051 C   0  0  0  0  0  0  0  0  0  0  0  0
   25.3274    2.4587    0.1384 C   0  0  0  0  0  0  0  0  0  0  0  0
   26.0237    1.2065    0.0402 C   0  0  0  0  0  0  0  0  0  0  0  0
   27.3691    1.4386    0.0469 N   0  0  0  0  0  0  0  0  0  0  0  0
   30.2622    1.4588    0.1097 N   0  0  0  0  0  0  0  0  0  0  0  0
   28.8650   -4.9473   -0.2379 C   0  0  0  0  0  0  0  0  0  0  0  0
   28.3445   -5.6034   -1.3542 C   0  0  0  0  0  0  0  0  0  0  0  0
   28.3572   -6.9884   -1.4234 C   0  0  0  0  0  0  0  0  0  0  0  0
   28.8843   -7.7346   -0.3781 C   0  0  0  0  0  0  0  0  0  0  0  0
   29.4021   -7.0895    0.7369 C   0  0  0  0  0  0  0  0  0  0  0  0
   29.3957   -5.7045    0.8072 C   0  0  0  0  0  0  0  0  0  0  0  0
   24.3301   -0.0508   -0.0319 H   0  0  0  0  0  0  0  0  0  0  0  0
   24.3001   -2.6742   -0.1323 H   0  0  0  0  0  0  0  0  0  0  0  0
   26.1931   -4.5746   -0.1879 H   0  0  0  0  0  0  0  0  0  0  0  0
   31.5247   -4.5331   -0.2429 H   0  0  0  0  0  0  0  0  0  0  0  0
   33.3914   -2.6127   -0.1186 H   0  0  0  0  0  0  0  0  0  0  0  0
   33.3451    2.6660    0.1048 H   0  0  0  0  0  0  0  0  0  0  0  0
   31.4453    4.5561    0.1767 H   0  0  0  0  0  0  0  0  0  0  0  0
   27.8184    5.1795   -1.6362 H   0  0  0  0  0  0  0  0  0  0  0  0
   27.7842    7.6439   -1.4968 H   0  0  0  0  0  0  0  0  0  0  0  0
   28.7349    8.7887    0.4815 H   0  0  0  0  0  0  0  0  0  0  0  0
   29.7154    7.4548    2.3218 H   0  0  0  0  0  0  0  0  0  0  0  0
   29.7370    4.9899    2.1888 H   0  0  0  0  0  0  0  0  0  0  0  0
   26.1132    4.4951    0.3034 H   0  0  0  0  0  0  0  0  0  0  0  0
   24.2541    2.5665    0.1607 H   0  0  0  0  0  0  0  0  0  0  0  0
   27.9435   -5.0216   -2.1769 H   0  0  0  0  0  0  0  0  0  0  0  0
   27.9549   -7.4873   -2.2983 H   0  0  0  0  0  0  0  0  0  0  0  0
   28.8914   -8.8173   -0.4323 H   0  0  0  0  0  0  0  0  0  0  0  0
   29.8128   -7.6680    1.5570 H   0  0  0  0  0  0  0  0  0  0  0  0
   29.7900   -5.2027    1.6839 H   0  0  0  0  0  0  0  0  0  0  0  0
   55.7860    0.0537    0.0164 Zn  0  0  0  0  0  0  0  0  0  0  0  0
   59.1970    0.0776   -0.0419 C   0  0  0  0  0  0  0  0  0  0  0  0
   58.5692    1.3175   -0.0458 C   0  0  0  0  0  0  0  0  0  0  0  0
   59.2453    2.5846   -0.0364 C   0  0  0  0  0  0  0  0  0  0  0  0
   58.2880    3.5455   -0.0230 C   0  0  0  0  0  0  0  0  0  0  0  0
   57.0138    2.8767   -0.0328 C   0  0  0  0  0  0  0  0  0  0  0  0
   57.2201    1.5281   -0.0403 N   0  0  0  0  0  0  0  0  0  0  0  0
   55.7644    3.5081   -0.0057 C   0  0  0  0  0  0  0  0  0  0  0  0
   54.5244    2.8615    0.0311 C   0  0  0  0  0  0  0  0  0  0  0  0
   53.2460    3.5170    0.0173 C   0  0  0  0  0  0  0  0  0  0  0  0
   52.2976    2.5458    0.0426 C   0  0  0  0  0  0  0  0  0  0  0  0
   54.3278    1.5061    0.0537 N   0  0  0  0  0  0  0  0  0  0  0  0
   52.9855    1.2884    0.0634 C   0  0  0  0  0  0  0  0  0  0  0  0
   52.3519    0.0291    0.0722 C   0  0  0  0  0  0  0  0  0  0  0  0
   53.0037   -1.2209    0.0667 C   0  0  0  0  0  0  0  0  0  0  0  0
   52.3339   -2.4879    0.0462 C   0  0  0  0  0  0  0  0  0  0  0  0
   53.2960   -3.4457    0.0363 C   0  0  0  0  0  0  0  0  0  0  0  0
   54.5649   -2.7721    0.0588 C   0  0  0  0  0  0  0  0  0  0  0  0
   55.8144   -3.4014    0.0446 C   0  0  0  0  0  0  0  0  0  0  0  0
   55.8266   -4.8863    0.0577 C   0  0  0  0  0  0  0  0  0  0  0  0
   56.3745   -5.5984   -1.0102 C   0  0  0  0  0  0  0  0  0  0  0  0
   56.3839   -6.9852   -0.9977 C   0  0  0  0  0  0  0  0  0  0  0  0
   55.8515   -7.6773    0.0815 C   0  0  0  0  0  0  0  0  0  0  0  0
   55.3065   -6.9764    1.1487 C   0  0  0  0  0  0  0  0  0  0  0  0
   55.2912   -5.5897    1.1375 C   0  0  0  0  0  0  0  0  0  0  0  0
   57.0549   -2.7525    0.0184 C   0  0  0  0  0  0  0  0  0  0  0  0
   58.3386   -3.4021    0.0501 C   0  0  0  0  0  0  0  0  0  0  0  0
   59.2819   -2.4276    0.0211 C   0  0  0  0  0  0  0  0  0  0  0  0
   58.5874   -1.1712   -0.0188 C   0  0  0  0  0  0  0  0  0  0  0  0
   57.2416   -1.4013   -0.0148 N   0  0  0  0  0  0  0  0  0  0  0  0
   54.3489   -1.4195    0.0688 N   0  0  0  0  0  0  0  0  0  0  0  0
   55.7560    4.9932   -0.0180 C   0  0  0  0  0  0  0  0  0  0  0  0
   56.2739    5.6934   -1.1085 C   0  0  0  0  0  0  0  0  0  0  0  0
   56.2646    7.0801   -1.1208 C   0  0  0  0  0  0  0  0  0  0  0  0
   55.7433    7.7841   -0.0438 C   0  0  0  0  0  0  0  0  0  0  0  0
   55.2279    7.0950    1.0457 C   0  0  0  0  0  0  0  0  0  0  0  0
   55.2312    5.7083    1.0592 C   0  0  0  0  0  0  0  0  0  0  0  0
   60.2827    0.0855   -0.0459 H   0  0  0  0  0  0  0  0  0  0  0  0
   60.3168    2.7106   -0.0326 H   0  0  0  0  0  0  0  0  0  0  0  0
   58.4270    4.6145    0.0042 H   0  0  0  0  0  0  0  0  0  0  0  0
   53.0948    4.5838   -0.0200 H   0  0  0  0  0  0  0  0  0  0  0  0
   51.2256    2.6631    0.0412 H   0  0  0  0  0  0  0  0  0  0  0  0
   51.2636   -2.6202    0.0343 H   0  0  0  0  0  0  0  0  0  0  0  0
   53.1601   -4.5147    0.0034 H   0  0  0  0  0  0  0  0  0  0  0  0
   56.7793   -5.0597   -1.8598 H   0  0  0  0  0  0  0  0  0  0  0  0
   56.8079   -7.5279   -1.8353 H   0  0  0  0  0  0  0  0  0  0  0  0
   55.8614   -8.7613    0.0909 H   0  0  0  0  0  0  0  0  0  0  0  0
   54.8917   -7.5123    1.9954 H   0  0  0  0  0  0  0  0  0  0  0  0
   54.8760   -5.0439    1.9775 H   0  0  0  0  0  0  0  0  0  0  0  0
   58.4934   -4.4680    0.1014 H   0  0  0  0  0  0  0  0  0  0  0  0
   60.3551   -2.5379    0.0332 H   0  0  0  0  0  0  0  0  0  0  0  0
   56.6704    5.1449   -1.9559 H   0  0  0  0  0  0  0  0  0  0  0  0
   56.6651    7.6135   -1.9759 H   0  0  0  0  0  0  0  0  0  0  0  0
   55.7388    8.8681   -0.0535 H   0  0  0  0  0  0  0  0  0  0  0  0
   54.8217    7.6403    1.8905 H   0  0  0  0  0  0  0  0  0  0  0  0
   54.8391    5.1720    1.9163 H   0  0  0  0  0  0  0  0  0  0  0  0
   34.8890    0.0352    0.0127 C   0  0  0  0  0  0  0  0  0  0  0  0
   33.6666    0.0273    0.0239 C   0  0  0  0  0  0  0  0  0  0  0  0
   36.2382    0.0405    0.0018 C   0  0  0  0  0  0  0  0  0  0  0  0
   37.4607    0.0405   -0.0053 C   0  0  0  0  0  0  0  0  0  0  0  0
   48.3747    0.0143    0.0655 C   0  0  0  0  0  0  0  0  0  0  0  0
   47.1522    0.0123    0.0538 C   0  0  0  0  0  0  0  0  0  0  0  0
   49.7240    0.0168    0.0710 C   0  0  0  0  0  0  0  0  0  0  0  0
   50.9464    0.0192    0.0732 C   0  0  0  0  0  0  0  0  0  0  0  0
   42.3069    0.0268    0.0075 Zn  0  0  0  0  0  0  0  0  0  0  0  0
   38.8656    0.0371   -0.0098 C   0  0  0  0  0  0  0  0  0  0  0  0
   39.5060   -1.2188   -0.0244 C   0  0  0  0  0  0  0  0  0  0  0  0
   38.8250   -2.4796   -0.0174 C   0  0  0  0  0  0  0  0  0  0  0  0
   39.7788   -3.4460   -0.0351 C   0  0  0  0  0  0  0  0  0  0  0  0
   41.0523   -2.7829   -0.0606 C   0  0  0  0  0  0  0  0  0  0  0  0
   40.8493   -1.4286   -0.0472 N   0  0  0  0  0  0  0  0  0  0  0  0
   42.2964   -3.4224   -0.0676 C   0  0  0  0  0  0  0  0  0  0  0  0
   43.5442   -2.7902   -0.0458 C   0  0  0  0  0  0  0  0  0  0  0  0
   44.8139   -3.4590   -0.0968 C   0  0  0  0  0  0  0  0  0  0  0  0
   45.7734   -2.4984   -0.0660 C   0  0  0  0  0  0  0  0  0  0  0  0
   43.7550   -1.4379    0.0021 N   0  0  0  0  0  0  0  0  0  0  0  0
   45.0997   -1.2354   -0.0046 C   0  0  0  0  0  0  0  0  0  0  0  0
   45.7472    0.0161    0.0412 C   0  0  0  0  0  0  0  0  0  0  0  0
   45.1065    1.2717    0.0738 C   0  0  0  0  0  0  0  0  0  0  0  0
   45.7867    2.5304    0.1499 C   0  0  0  0  0  0  0  0  0  0  0  0
   44.8329    3.4971    0.1598 C   0  0  0  0  0  0  0  0  0  0  0  0
   43.5604    2.8364    0.0813 C   0  0  0  0  0  0  0  0  0  0  0  0
   42.3163    3.4764    0.0770 C   0  0  0  0  0  0  0  0  0  0  0  0
   42.3210    4.9615    0.1098 C   0  0  0  0  0  0  0  0  0  0  0  0
   41.7687    5.6460    1.1931 C   0  0  0  0  0  0  0  0  0  0  0  0
   41.7779    7.0324    1.2255 C   0  0  0  0  0  0  0  0  0  0  0  0
   42.3325    7.7515    0.1755 C   0  0  0  0  0  0  0  0  0  0  0  0
   42.8809    7.0779   -0.9075 C   0  0  0  0  0  0  0  0  0  0  0  0
   42.8787    5.6914   -0.9405 C   0  0  0  0  0  0  0  0  0  0  0  0
   41.0686    2.8444    0.0487 C   0  0  0  0  0  0  0  0  0  0  0  0
   39.7996    3.5147    0.0020 C   0  0  0  0  0  0  0  0  0  0  0  0
   38.8402    2.5539   -0.0196 C   0  0  0  0  0  0  0  0  0  0  0  0
   39.5135    1.2893    0.0035 C   0  0  0  0  0  0  0  0  0  0  0  0
   40.8576    1.4912    0.0393 N   0  0  0  0  0  0  0  0  0  0  0  0
   43.7637    1.4827    0.0382 N   0  0  0  0  0  0  0  0  0  0  0  0
   42.2920   -4.9077   -0.0966 C   0  0  0  0  0  0  0  0  0  0  0  0
   41.7595   -5.5930   -1.1892 C   0  0  0  0  0  0  0  0  0  0  0  0
   41.7574   -6.9797   -1.2139 C   0  0  0  0  0  0  0  0  0  0  0  0
   42.2805   -7.6979   -0.1472 C   0  0  0  0  0  0  0  0  0  0  0  0
   42.8098   -7.0233    0.9446 C   0  0  0  0  0  0  0  0  0  0  0  0
   42.8191   -5.6367    0.9700 C   0  0  0  0  0  0  0  0  0  0  0  0
   37.7538   -2.6025    0.0046 H   0  0  0  0  0  0  0  0  0  0  0  0
   39.6342   -4.5143   -0.0211 H   0  0  0  0  0  0  0  0  0  0  0  0
   44.9522   -4.5264   -0.1597 H   0  0  0  0  0  0  0  0  0  0  0  0
   46.8440   -2.6265   -0.0892 H   0  0  0  0  0  0  0  0  0  0  0  0
   46.8572    2.6521    0.1969 H   0  0  0  0  0  0  0  0  0  0  0  0
   44.9769    4.5635    0.2260 H   0  0  0  0  0  0  0  0  0  0  0  0
   41.3452    5.0855    2.0193 H   0  0  0  0  0  0  0  0  0  0  0  0
   41.3510    7.5536    2.0753 H   0  0  0  0  0  0  0  0  0  0  0  0
   42.3374    8.8354    0.2012 H   0  0  0  0  0  0  0  0  0  0  0  0
   43.3125    7.6350   -1.7318 H   0  0  0  0  0  0  0  0  0  0  0  0
   43.2978    5.1671   -1.7922 H   0  0  0  0  0  0  0  0  0  0  0  0
   39.6617    4.5837   -0.0227 H   0  0  0  0  0  0  0  0  0  0  0  0
   37.7701    2.6829   -0.0557 H   0  0  0  0  0  0  0  0  0  0  0  0
   41.3600   -5.0335   -2.0279 H   0  0  0  0  0  0  0  0  0  0  0  0
   41.3458   -7.5019   -2.0706 H   0  0  0  0  0  0  0  0  0  0  0  0
   42.2757   -8.7819   -0.1667 H   0  0  0  0  0  0  0  0  0  0  0  0
   43.2169   -7.5795    1.7818 H   0  0  0  0  0  0  0  0  0  0  0  0
   43.2229   -5.1112    1.8284 H   0  0  0  0  0  0  0  0  0  0  0  0
  2  3  4  0  0  0  0
  3  4  1  0  0  0  0
  4  5  2  0  0  0  0
  5  6  4  0  0  0  0
  1  7  1  0  0  0  0
  3  7  4  0  0  0  0
  6  7  4  0  0  0  0
  6  8  4  0  0  0  0
  8  9  4  0  0  0  0
  9 10  4  0  0  0  0
 10 11  2  0  0  0  0
  1 12  1  0  0  0  0
  9 12  4  0  0  0  0
 11 13  4  0  0  0  0
 12 13  4  0  0  0  0
 13 14  4  0  0  0  0
 14 15  4  0  0  0  0
 15 16  4  0  0  0  0
 16 17  2  0  0  0  0
 17 18  4  0  0  0  0
 18 19  4  0  0  0  0
 19 20  1  0  0  0  0
 20 21  4  0  0  0  0
 21 22  4  0  0  0  0
 22 23  4  0  0  0  0
 23 24  4  0  0  0  0
 20 25  4  0  0  0  0
 24 25  4  0  0  0  0
 19 26  4  0  0  0  0
 26 27  4  0  0  0  0
 27 28  2  0  0  0  0
  2 29  4  0  0  0  0
 28 29  1  0  0  0  0
  1 30  1  0  0  0  0
 26 30  4  0  0  0  0
 29 30  4  0  0  0  0
  1 31  1  0  0  0  0
 15 31  4  0  0  0  0
 18 31  4  0  0  0  0
  8 32  1  0  0  0  0
 32 33  4  0  0  0  0
 33 34  4  0  0  0  0
 34 35  4  0  0  0  0
 35 36  4  0  0  0  0
 32 37  4  0  0  0  0
 36 37  4  0  0  0  0
  2 38  1  0  0  0  0
  4 39  1  0  0  0  0
  5 40  1  0  0  0  0
 10 41  1  0  0  0  0
 11 42  1  0  0  0  0
 16 43  1  0  0  0  0
 17 44  1  0  0  0  0
 21 45  1  0  0  0  0
 22 46  1  0  0  0  0
 23 47  1  0  0  0  0
 24 48  1  0  0  0  0
 25 49  1  0  0  0  0
 27 50  1  0  0  0  0
 28 51  1  0  0  0  0
 33 52  1  0  0  0  0
 34 53  1  0  0  0  0
 35 54  1  0  0  0  0
 36 55  1  0  0  0  0
 37 56  1  0  0  0  0
 58 59  4  0  0  0  0
 59 60  1  0  0  0  0
 60 61  2  0  0  0  0
 61 62  4  0  0  0  0
 57 63  1  0  0  0  0
 59 63  4  0  0  0  0
 62 63  4  0  0  0  0
 62 64  4  0  0  0  0
 64 65  4  0  0  0  0
 65 66  4  0  0  0  0
 66 67  2  0  0  0  0
 57 68  1  0  0  0  0
 65 68  4  0  0  0  0
 67 69  4  0  0  0  0
 68 69  4  0  0  0  0
 69 70  4  0  0  0  0
 70 71  4  0  0  0  0
 71 72  4  0  0  0  0
 72 73  2  0  0  0  0
 73 74  4  0  0  0  0
 74 75  4  0  0  0  0
 75 76  1  0  0  0  0
 76 77  4  0  0  0  0
 77 78  4  0  0  0  0
 78 79  4  0  0  0  0
 79 80  4  0  0  0  0
 76 81  4  0  0  0  0
 80 81  4  0  0  0  0
 75 82  4  0  0  0  0
 82 83  4  0  0  0  0
 83 84  2  0  0  0  0
 58 85  4  0  0  0  0
 84 85  1  0  0  0  0
 57 86  1  0  0  0  0
 82 86  4  0  0  0  0
 85 86  4  0  0  0  0
 57 87  1  0  0  0  0
 71 87  4  0  0  0  0
 74 87  4  0  0  0  0
 64 88  1  0  0  0  0
 88 89  4  0  0  0  0
 89 90  4  0  0  0  0
 90 91  4  0  0  0  0
 91 92  4  0  0  0  0
 88 93  4  0  0  0  0
 92 93  4  0  0  0  0
 58 94  1  0  0  0  0
 60 95  1  0  0  0  0
 61 96  1  0  0  0  0
 66 97  1  0  0  0  0
 67 98  1  0  0  0  0
 72 99  1  0  0  0  0
 73100  1  0  0  0  0
 77101  1  0  0  0  0
 78102  1  0  0  0  0
 79103  1  0  0  0  0
 80104  1  0  0  0  0
 81105  1  0  0  0  0
 83106  1  0  0  0  0
 84107  1  0  0  0  0
 89108  1  0  0  0  0
 90109  1  0  0  0  0
 91110  1  0  0  0  0
 92111  1  0  0  0  0
 93112  1  0  0  0  0
 14114  4  0  0  0  0
113114  3  0  0  0  0
113115  4  0  0  0  0
115116  3  0  0  0  0
117118  3  0  0  0  0
117119  4  0  0  0  0
 70120  4  0  0  0  0
119120  3  0  0  0  0
116122  4  0  0  0  0
122123  4  0  0  0  0
123124  4  0  0  0  0
124125  2  0  0  0  0
125126  4  0  0  0  0
121127  1  0  0  0  0
123127  4  0  0  0  0
126127  4  0  0  0  0
126128  4  0  0  0  0
128129  4  0  0  0  0
129130  4  0  0  0  0
130131  2  0  0  0  0
121132  1  0  0  0  0
129132  4  0  0  0  0
131133  4  0  0  0  0
132133  4  0  0  0  0
118134  4  0  0  0  0
133134  4  0  0  0  0
134135  4  0  0  0  0
135136  4  0  0  0  0
136137  2  0  0  0  0
137138  4  0  0  0  0
138139  4  0  0  0  0
139140  1  0  0  0  0
140141  4  0  0  0  0
141142  4  0  0  0  0
142143  4  0  0  0  0
143144  4  0  0  0  0
140145  4  0  0  0  0
144145  4  0  0  0  0
139146  4  0  0  0  0
146147  4  0  0  0  0
147148  2  0  0  0  0
122149  4  0  0  0  0
148149  4  0  0  0  0
121150  1  0  0  0  0
146150  4  0  0  0  0
149150  4  0  0  0  0
121151  1  0  0  0  0
135151  4  0  0  0  0
138151  4  0  0  0  0
128152  1  0  0  0  0
152153  4  0  0  0  0
153154  4  0  0  0  0
154155  4  0  0  0  0
155156  4  0  0  0  0
152157  4  0  0  0  0
156157  4  0  0  0  0
124158  1  0  0  0  0
125159  1  0  0  0  0
130160  1  0  0  0  0
131161  1  0  0  0  0
136162  1  0  0  0  0
137163  1  0  0  0  0
141164  1  0  0  0  0
142165  1  0  0  0  0
143166  1  0  0  0  0
144167  1  0  0  0  0
145168  1  0  0  0  0
147169  1  0  0  0  0
148170  1  0  0  0  0
153171  1  0  0  0  0
154172  1  0  0  0  0
155173  1  0  0  0  0
156174  1  0  0  0  0
157175  1  0  0  0  0
M  END
