 xtb: 6.5.1 (b24c23e)
          07302208173D

189218  0     0  0            999 V2000
   27.1645   -0.1460   -0.0982 Cu  0  0  0  0  0  0  0  0  0  0  0  0
   23.7493   -0.0998   -0.0619 C   0  0  0  0  0  0  0  0  0  0  0  0
   24.3948    0.7791    0.7945 C   0  0  0  0  0  0  0  0  0  0  0  0
   23.7351    1.6937    1.6817 C   0  0  0  0  0  0  0  0  0  0  0  0
   24.7066    2.3704    2.3448 C   0  0  0  0  0  0  0  0  0  0  0  0
   25.9643    1.8722    1.8667 C   0  0  0  0  0  0  0  0  0  0  0  0
   25.7501    0.9110    0.9286 N   0  0  0  0  0  0  0  0  0  0  0  0
   27.2206    2.3149    2.3108 C   0  0  0  0  0  0  0  0  0  0  0  0
   27.2407    3.3215    3.3022 C   0  0  0  0  0  0  0  0  0  0  0  0
   27.2500    4.1837    4.1560 C   0  0  0  0  0  0  0  0  0  0  0  0
   27.2561    5.1845    5.1545 C   0  0  0  0  0  0  0  0  0  0  0  0
   28.4547    5.6880    5.6735 C   0  0  0  0  0  0  0  0  0  0  0  0
   28.4033    6.6647    6.6519 C   0  0  0  0  0  0  0  0  0  0  0  0
   27.2631    7.1561    7.1305 N   0  0  0  0  0  0  0  0  0  0  0  0
   26.1193    6.6832    6.6418 C   0  0  0  0  0  0  0  0  0  0  0  0
   26.0612    5.7073    5.6630 C   0  0  0  0  0  0  0  0  0  0  0  0
   28.4550    1.8321    1.8502 C   0  0  0  0  0  0  0  0  0  0  0  0
   29.7304    2.2905    2.3137 C   0  0  0  0  0  0  0  0  0  0  0  0
   30.6736    1.5863    1.6359 C   0  0  0  0  0  0  0  0  0  0  0  0
   28.6319    0.8642    0.9042 N   0  0  0  0  0  0  0  0  0  0  0  0
   29.9767    0.6969    0.7562 C   0  0  0  0  0  0  0  0  0  0  0  0
   30.6018   -0.2044   -0.1227 C   0  0  0  0  0  0  0  0  0  0  0  0
   29.9330   -1.0800   -0.9958 C   0  0  0  0  0  0  0  0  0  0  0  0
   30.5865   -1.9881   -1.8895 C   0  0  0  0  0  0  0  0  0  0  0  0
   29.6104   -2.6547   -2.5585 C   0  0  0  0  0  0  0  0  0  0  0  0
   28.3581   -2.1561   -2.0740 C   0  0  0  0  0  0  0  0  0  0  0  0
   28.5814   -1.1999   -1.1259 N   0  0  0  0  0  0  0  0  0  0  0  0
   27.1017   -2.5984   -2.5158 C   0  0  0  0  0  0  0  0  0  0  0  0
   27.0791   -3.6026   -3.5096 C   0  0  0  0  0  0  0  0  0  0  0  0
   27.0692   -4.4640   -4.3642 C   0  0  0  0  0  0  0  0  0  0  0  0
   27.0617   -5.4706   -5.3567 C   0  0  0  0  0  0  0  0  0  0  0  0
   28.2558   -5.9985   -5.8619 C   0  0  0  0  0  0  0  0  0  0  0  0
   28.1961   -6.9843   -6.8307 C   0  0  0  0  0  0  0  0  0  0  0  0
   27.0515   -7.4618   -7.3130 N   0  0  0  0  0  0  0  0  0  0  0  0
   25.9121   -6.9646   -6.8386 C   0  0  0  0  0  0  0  0  0  0  0  0
   25.8623   -5.9780   -5.8700 C   0  0  0  0  0  0  0  0  0  0  0  0
   25.8676   -2.1223   -2.0456 C   0  0  0  0  0  0  0  0  0  0  0  0
   24.5871   -2.5851   -2.4977 C   0  0  0  0  0  0  0  0  0  0  0  0
   23.6487   -1.8870   -1.8095 C   0  0  0  0  0  0  0  0  0  0  0  0
   24.3519   -0.9934   -0.9342 C   0  0  0  0  0  0  0  0  0  0  0  0
   25.6998   -1.1600   -1.0993 N   0  0  0  0  0  0  0  0  0  0  0  0
   22.6643   -0.0859   -0.0491 H   0  0  0  0  0  0  0  0  0  0  0  0
   22.6652    1.7947    1.7746 H   0  0  0  0  0  0  0  0  0  0  0  0
   24.5951    3.1396    3.0925 H   0  0  0  0  0  0  0  0  0  0  0  0
   29.4059    5.3158    5.3126 H   0  0  0  0  0  0  0  0  0  0  0  0
   29.3178    7.0729    7.0727 H   0  0  0  0  0  0  0  0  0  0  0  0
   25.2077    7.1059    7.0543 H   0  0  0  0  0  0  0  0  0  0  0  0
   25.1074    5.3503    5.2934 H   0  0  0  0  0  0  0  0  0  0  0  0
   29.8752    3.0534    3.0619 H   0  0  0  0  0  0  0  0  0  0  0  0
   31.7466    1.6559    1.7166 H   0  0  0  0  0  0  0  0  0  0  0  0
   31.6551   -2.0946   -1.9861 H   0  0  0  0  0  0  0  0  0  0  0  0
   29.7188   -3.4172   -3.3131 H   0  0  0  0  0  0  0  0  0  0  0  0
   29.2101   -5.6383   -5.4970 H   0  0  0  0  0  0  0  0  0  0  0  0
   29.1070   -7.4118   -7.2399 H   0  0  0  0  0  0  0  0  0  0  0  0
   24.9969   -7.3765   -7.2541 H   0  0  0  0  0  0  0  0  0  0  0  0
   24.9117   -5.6017   -5.5118 H   0  0  0  0  0  0  0  0  0  0  0  0
   24.4392   -3.3476   -3.2460 H   0  0  0  0  0  0  0  0  0  0  0  0
   22.5747   -1.9600   -1.8782 H   0  0  0  0  0  0  0  0  0  0  0  0
   64.4002   -0.2141   -0.1299 Cu  0  0  0  0  0  0  0  0  0  0  0  0
   67.8157   -0.2363   -0.1250 C   0  0  0  0  0  0  0  0  0  0  0  0
   67.1844   -1.4295   -0.4421 C   0  0  0  0  0  0  0  0  0  0  0  0
   67.8587   -2.6544   -0.7644 C   0  0  0  0  0  0  0  0  0  0  0  0
   66.8980   -3.5814   -1.0080 C   0  0  0  0  0  0  0  0  0  0  0  0
   65.6326   -2.9274   -0.8359 C   0  0  0  0  0  0  0  0  0  0  0  0
   65.8315   -1.6259   -0.4948 N   0  0  0  0  0  0  0  0  0  0  0  0
   64.3834   -3.5478   -0.9958 C   0  0  0  0  0  0  0  0  0  0  0  0
   64.3746   -4.9160   -1.3488 C   0  0  0  0  0  0  0  0  0  0  0  0
   64.3648   -6.0913   -1.6504 C   0  0  0  0  0  0  0  0  0  0  0  0
   64.3473   -7.4608   -2.0005 C   0  0  0  0  0  0  0  0  0  0  0  0
   63.1407   -8.1505   -2.1680 C   0  0  0  0  0  0  0  0  0  0  0  0
   63.1763   -9.4903   -2.5108 C   0  0  0  0  0  0  0  0  0  0  0  0
   64.3088  -10.1651   -2.6917 N   0  0  0  0  0  0  0  0  0  0  0  0
   65.4601   -9.5166   -2.5346 C   0  0  0  0  0  0  0  0  0  0  0  0
   65.5339   -8.1780   -2.1928 C   0  0  0  0  0  0  0  0  0  0  0  0
   63.1418   -2.9148   -0.8319 C   0  0  0  0  0  0  0  0  0  0  0  0
   61.8739   -3.5596   -0.9992 C   0  0  0  0  0  0  0  0  0  0  0  0
   60.9197   -2.6230   -0.7602 C   0  0  0  0  0  0  0  0  0  0  0  0
   62.9496   -1.6060   -0.4955 N   0  0  0  0  0  0  0  0  0  0  0  0
   61.6024   -1.4041   -0.4460 C   0  0  0  0  0  0  0  0  0  0  0  0
   60.9624   -0.1908   -0.1380 C   0  0  0  0  0  0  0  0  0  0  0  0
   61.6166    1.0134    0.1741 C   0  0  0  0  0  0  0  0  0  0  0  0
   60.9487    2.2407    0.4874 C   0  0  0  0  0  0  0  0  0  0  0  0
   61.9142    3.1638    0.7335 C   0  0  0  0  0  0  0  0  0  0  0  0
   63.1743    2.5024    0.5709 C   0  0  0  0  0  0  0  0  0  0  0  0
   62.9662    1.1971    0.2303 N   0  0  0  0  0  0  0  0  0  0  0  0
   64.4236    3.1184    0.7400 C   0  0  0  0  0  0  0  0  0  0  0  0
   64.4343    4.4862    1.0943 C   0  0  0  0  0  0  0  0  0  0  0  0
   64.4473    5.6615    1.3958 C   0  0  0  0  0  0  0  0  0  0  0  0
   64.4664    7.0314    1.7447 C   0  0  0  0  0  0  0  0  0  0  0  0
   63.2803    7.7506    1.9330 C   0  0  0  0  0  0  0  0  0  0  0  0
   63.3553    9.0900    2.2712 C   0  0  0  0  0  0  0  0  0  0  0  0
   64.5071    9.7375    2.4286 N   0  0  0  0  0  0  0  0  0  0  0  0
   65.6391    9.0607    2.2516 C   0  0  0  0  0  0  0  0  0  0  0  0
   65.6736    7.7199    1.9126 C   0  0  0  0  0  0  0  0  0  0  0  0
   65.6652    2.4820    0.5821 C   0  0  0  0  0  0  0  0  0  0  0  0
   66.9384    3.1198    0.7570 C   0  0  0  0  0  0  0  0  0  0  0  0
   67.8878    2.1809    0.5149 C   0  0  0  0  0  0  0  0  0  0  0  0
   67.1988    0.9647    0.1908 C   0  0  0  0  0  0  0  0  0  0  0  0
   65.8483    1.1784    0.2405 N   0  0  0  0  0  0  0  0  0  0  0  0
   68.9009   -0.2432   -0.1237 H   0  0  0  0  0  0  0  0  0  0  0  0
   68.9300   -2.7752   -0.7962 H   0  0  0  0  0  0  0  0  0  0  0  0
   67.0214   -4.6176   -1.2806 H   0  0  0  0  0  0  0  0  0  0  0  0
   62.1954   -7.6394   -2.0302 H   0  0  0  0  0  0  0  0  0  0  0  0
   62.2552  -10.0498   -2.6466 H   0  0  0  0  0  0  0  0  0  0  0  0
   66.3649  -10.0972   -2.6898 H   0  0  0  0  0  0  0  0  0  0  0  0
   66.4935   -7.6892   -2.0751 H   0  0  0  0  0  0  0  0  0  0  0  0
   61.7409   -4.5960   -1.2655 H   0  0  0  0  0  0  0  0  0  0  0  0
   59.8481   -2.7378   -0.7915 H   0  0  0  0  0  0  0  0  0  0  0  0
   59.8785    2.3692    0.5134 H   0  0  0  0  0  0  0  0  0  0  0  0
   61.7940    4.2012    1.0021 H   0  0  0  0  0  0  0  0  0  0  0  0
   62.3204    7.2627    1.8147 H   0  0  0  0  0  0  0  0  0  0  0  0
   62.4509    9.6722    2.4233 H   0  0  0  0  0  0  0  0  0  0  0  0
   66.5607    9.6194    2.3877 H   0  0  0  0  0  0  0  0  0  0  0  0
   66.6185    7.2074    1.7779 H   0  0  0  0  0  0  0  0  0  0  0  0
   67.0746    4.1542    1.0302 H   0  0  0  0  0  0  0  0  0  0  0  0
   68.9605    2.2881    0.5491 H   0  0  0  0  0  0  0  0  0  0  0  0
   32.0078   -0.2341   -0.1326 C   0  0  0  0  0  0  0  0  0  0  0  0
   33.2312   -0.2711   -0.1468 C   0  0  0  0  0  0  0  0  0  0  0  0
   34.5738   -0.3101   -0.1703 C   0  0  0  0  0  0  0  0  0  0  0  0
   35.8031   -0.3511   -0.1960 C   0  0  0  0  0  0  0  0  0  0  0  0
   37.1401   -0.4017   -0.2338 C   0  0  0  0  0  0  0  0  0  0  0  0
   38.3690   -0.4465   -0.2714 C   0  0  0  0  0  0  0  0  0  0  0  0
   39.7107   -0.4932   -0.3116 C   0  0  0  0  0  0  0  0  0  0  0  0
   40.9338   -0.5311   -0.3482 C   0  0  0  0  0  0  0  0  0  0  0  0
   50.6280   -0.4247   -0.2856 C   0  0  0  0  0  0  0  0  0  0  0  0
   51.8505   -0.3691   -0.2521 C   0  0  0  0  0  0  0  0  0  0  0  0
   53.1922   -0.3152   -0.2217 C   0  0  0  0  0  0  0  0  0  0  0  0
   54.4215   -0.2689   -0.1991 C   0  0  0  0  0  0  0  0  0  0  0  0
   55.7592   -0.2330   -0.1754 C   0  0  0  0  0  0  0  0  0  0  0  0
   56.9890   -0.2025   -0.1614 C   0  0  0  0  0  0  0  0  0  0  0  0
   58.3322   -0.1884   -0.1515 C   0  0  0  0  0  0  0  0  0  0  0  0
   59.5562   -0.1843   -0.1423 C   0  0  0  0  0  0  0  0  0  0  0  0
   45.7823   -0.5633   -0.3785 Cu  0  0  0  0  0  0  0  0  0  0  0  0
   42.3391   -0.5602   -0.3718 C   0  0  0  0  0  0  0  0  0  0  0  0
   42.9856    0.1507   -1.3982 C   0  0  0  0  0  0  0  0  0  0  0  0
   42.3097    0.8675   -2.4373 C   0  0  0  0  0  0  0  0  0  0  0  0
   43.2694    1.4065   -3.2334 C   0  0  0  0  0  0  0  0  0  0  0  0
   44.5333    1.0252   -2.6780 C   0  0  0  0  0  0  0  0  0  0  0  0
   44.3335    0.2609   -1.5655 N   0  0  0  0  0  0  0  0  0  0  0  0
   45.7797    1.4000   -3.2034 C   0  0  0  0  0  0  0  0  0  0  0  0
   45.7775    2.1848   -4.3788 C   0  0  0  0  0  0  0  0  0  0  0  0
   45.7730    2.8442   -5.3973 C   0  0  0  0  0  0  0  0  0  0  0  0
   45.7613    3.6073   -6.5875 C   0  0  0  0  0  0  0  0  0  0  0  0
   46.9508    4.0084   -7.2069 C   0  0  0  0  0  0  0  0  0  0  0  0
   46.8821    4.7489   -8.3735 C   0  0  0  0  0  0  0  0  0  0  0  0
   45.7334    5.1041   -8.9434 N   0  0  0  0  0  0  0  0  0  0  0  0
   44.5982    4.7278   -8.3600 C   0  0  0  0  0  0  0  0  0  0  0  0
   44.5573    3.9862   -7.1929 C   0  0  0  0  0  0  0  0  0  0  0  0
   47.0267    1.0633   -2.6548 C   0  0  0  0  0  0  0  0  0  0  0  0
   48.2887    1.4827   -3.1863 C   0  0  0  0  0  0  0  0  0  0  0  0
   49.2493    0.9671   -2.3758 C   0  0  0  0  0  0  0  0  0  0  0  0
   47.2285    0.3017   -1.5408 N   0  0  0  0  0  0  0  0  0  0  0  0
   48.5758    0.2269   -1.3516 C   0  0  0  0  0  0  0  0  0  0  0  0
   49.2238   -0.4768   -0.3209 C   0  0  0  0  0  0  0  0  0  0  0  0
   48.5780   -1.2359    0.6711 C   0  0  0  0  0  0  0  0  0  0  0  0
   49.2543   -1.9743    1.6948 C   0  0  0  0  0  0  0  0  0  0  0  0
   48.2956   -2.5789    2.4438 C   0  0  0  0  0  0  0  0  0  0  0  0
   47.0321   -2.2057    1.8825 C   0  0  0  0  0  0  0  0  0  0  0  0
   47.2310   -1.3909    0.8062 N   0  0  0  0  0  0  0  0  0  0  0  0
   45.7864   -2.6151    2.3826 C   0  0  0  0  0  0  0  0  0  0  0  0
   45.7869   -3.4765    3.5032 C   0  0  0  0  0  0  0  0  0  0  0  0
   45.7833   -4.2237    4.4591 C   0  0  0  0  0  0  0  0  0  0  0  0
   45.7759   -5.0982    5.5700 C   0  0  0  0  0  0  0  0  0  0  0  0
   44.5746   -5.5464    6.1319 C   0  0  0  0  0  0  0  0  0  0  0  0
   44.6208   -6.4047    7.2160 C   0  0  0  0  0  0  0  0  0  0  0  0
   45.7587   -6.8311    7.7583 N   0  0  0  0  0  0  0  0  0  0  0  0
   46.9049   -6.4092    7.2302 C   0  0  0  0  0  0  0  0  0  0  0  0
   46.9682   -5.5509    6.1469 C   0  0  0  0  0  0  0  0  0  0  0  0
   44.5384   -2.2344    1.8653 C   0  0  0  0  0  0  0  0  0  0  0  0
   43.2761   -2.6357    2.4099 C   0  0  0  0  0  0  0  0  0  0  0  0
   42.3143   -2.0536    1.6473 C   0  0  0  0  0  0  0  0  0  0  0  0
   42.9876   -1.3013    0.6319 C   0  0  0  0  0  0  0  0  0  0  0  0
   44.3358   -1.4259    0.7853 N   0  0  0  0  0  0  0  0  0  0  0  0
   41.2386    0.9398   -2.5388 H   0  0  0  0  0  0  0  0  0  0  0  0
   43.1425    2.0117   -4.1168 H   0  0  0  0  0  0  0  0  0  0  0  0
   47.9085    3.7404   -6.7774 H   0  0  0  0  0  0  0  0  0  0  0  0
   47.7892    5.0723   -8.8760 H   0  0  0  0  0  0  0  0  0  0  0  0
   43.6792    5.0349   -8.8511 H   0  0  0  0  0  0  0  0  0  0  0  0
   43.6101    3.7007   -6.7515 H   0  0  0  0  0  0  0  0  0  0  0  0
   48.4140    2.0950   -4.0651 H   0  0  0  0  0  0  0  0  0  0  0  0
   50.3194    1.0701   -2.4583 H   0  0  0  0  0  0  0  0  0  0  0  0
   50.3248   -2.0208    1.8149 H   0  0  0  0  0  0  0  0  0  0  0  0
   48.4230   -3.2188    3.3023 H   0  0  0  0  0  0  0  0  0  0  0  0
   43.6253   -5.2243    5.7213 H   0  0  0  0  0  0  0  0  0  0  0  0
   43.7042   -6.7683    7.6713 H   0  0  0  0  0  0  0  0  0  0  0  0
   47.8143   -6.7766    7.6970 H   0  0  0  0  0  0  0  0  0  0  0  0
   47.9239   -5.2327    5.7483 H   0  0  0  0  0  0  0  0  0  0  0  0
   43.1512   -3.2777    3.2673 H   0  0  0  0  0  0  0  0  0  0  0  0
   41.2436   -2.1248    1.7528 H   0  0  0  0  0  0  0  0  0  0  0  0
  2  3  4  0  0  0  0
  3  4  4  0  0  0  0
  4  5  2  0  0  0  0
  5  6  4  0  0  0  0
  1  7  1  0  0  0  0
  3  7  4  0  0  0  0
  6  7  4  0  0  0  0
  6  8  4  0  0  0  0
  8  9  1  0  0  0  0
  9 10  3  0  0  0  0
 10 11  1  0  0  0  0
 11 12  4  0  0  0  0
 12 13  4  0  0  0  0
 13 14  4  0  0  0  0
 14 15  4  0  0  0  0
 11 16  4  0  0  0  0
 15 16  4  0  0  0  0
  8 17  4  0  0  0  0
 17 18  4  0  0  0  0
 18 19  2  0  0  0  0
  1 20  1  0  0  0  0
 17 20  4  0  0  0  0
 19 21  4  0  0  0  0
 20 21  4  0  0  0  0
 21 22  4  0  0  0  0
 22 23  4  0  0  0  0
 23 24  4  0  0  0  0
 24 25  2  0  0  0  0
 25 26  4  0  0  0  0
  1 27  1  0  0  0  0
 23 27  4  0  0  0  0
 26 27  4  0  0  0  0
 26 28  4  0  0  0  0
 28 29  1  0  0  0  0
 29 30  3  0  0  0  0
 30 31  1  0  0  0  0
 31 32  4  0  0  0  0
 32 33  4  0  0  0  0
 33 34  4  0  0  0  0
 34 35  4  0  0  0  0
 31 36  4  0  0  0  0
 35 36  4  0  0  0  0
 28 37  4  0  0  0  0
 37 38  4  0  0  0  0
 38 39  2  0  0  0  0
  2 40  4  0  0  0  0
 39 40  4  0  0  0  0
  1 41  1  0  0  0  0
 37 41  4  0  0  0  0
 40 41  4  0  0  0  0
  2 42  1  0  0  0  0
  4 43  1  0  0  0  0
  5 44  1  0  0  0  0
 12 45  1  0  0  0  0
 13 46  1  0  0  0  0
 15 47  1  0  0  0  0
 16 48  1  0  0  0  0
 18 49  1  0  0  0  0
 19 50  1  0  0  0  0
 24 51  1  0  0  0  0
 25 52  1  0  0  0  0
 32 53  1  0  0  0  0
 33 54  1  0  0  0  0
 35 55  1  0  0  0  0
 36 56  1  0  0  0  0
 38 57  1  0  0  0  0
 39 58  1  0  0  0  0
 60 61  4  0  0  0  0
 61 62  4  0  0  0  0
 62 63  2  0  0  0  0
 63 64  4  0  0  0  0
 59 65  1  0  0  0  0
 61 65  4  0  0  0  0
 64 65  4  0  0  0  0
 64 66  4  0  0  0  0
 66 67  1  0  0  0  0
 67 68  3  0  0  0  0
 68 69  1  0  0  0  0
 69 70  4  0  0  0  0
 70 71  4  0  0  0  0
 71 72  4  0  0  0  0
 72 73  4  0  0  0  0
 69 74  4  0  0  0  0
 73 74  4  0  0  0  0
 66 75  4  0  0  0  0
 75 76  4  0  0  0  0
 76 77  2  0  0  0  0
 59 78  1  0  0  0  0
 75 78  4  0  0  0  0
 77 79  4  0  0  0  0
 78 79  4  0  0  0  0
 79 80  4  0  0  0  0
 80 81  4  0  0  0  0
 81 82  4  0  0  0  0
 82 83  2  0  0  0  0
 83 84  4  0  0  0  0
 59 85  1  0  0  0  0
 81 85  4  0  0  0  0
 84 85  4  0  0  0  0
 84 86  4  0  0  0  0
 86 87  1  0  0  0  0
 87 88  3  0  0  0  0
 88 89  1  0  0  0  0
 89 90  4  0  0  0  0
 90 91  4  0  0  0  0
 91 92  4  0  0  0  0
 92 93  4  0  0  0  0
 89 94  4  0  0  0  0
 93 94  4  0  0  0  0
 86 95  4  0  0  0  0
 95 96  4  0  0  0  0
 96 97  2  0  0  0  0
 60 98  4  0  0  0  0
 97 98  4  0  0  0  0
 59 99  1  0  0  0  0
 95 99  4  0  0  0  0
 98 99  4  0  0  0  0
 60100  1  0  0  0  0
 62101  1  0  0  0  0
 63102  1  0  0  0  0
 70103  1  0  0  0  0
 71104  1  0  0  0  0
 73105  1  0  0  0  0
 74106  1  0  0  0  0
 76107  1  0  0  0  0
 77108  1  0  0  0  0
 82109  1  0  0  0  0
 83110  1  0  0  0  0
 90111  1  0  0  0  0
 91112  1  0  0  0  0
 93113  1  0  0  0  0
 94114  1  0  0  0  0
 96115  1  0  0  0  0
 97116  1  0  0  0  0
 22117  4  0  0  0  0
117118  3  0  0  0  0
118119  4  0  0  0  0
119120  3  0  0  0  0
120121  4  0  0  0  0
121122  3  0  0  0  0
122123  4  0  0  0  0
123124  3  0  0  0  0
125126  3  0  0  0  0
126127  4  0  0  0  0
127128  3  0  0  0  0
128129  4  0  0  0  0
129130  3  0  0  0  0
130131  4  0  0  0  0
 80132  4  0  0  0  0
131132  3  0  0  0  0
124134  4  0  0  0  0
134135  4  0  0  0  0
135136  4  0  0  0  0
136137  2  0  0  0  0
137138  4  0  0  0  0
133139  1  0  0  0  0
135139  4  0  0  0  0
138139  4  0  0  0  0
138140  4  0  0  0  0
140141  1  0  0  0  0
141142  3  0  0  0  0
142143  1  0  0  0  0
143144  4  0  0  0  0
144145  4  0  0  0  0
145146  4  0  0  0  0
146147  4  0  0  0  0
143148  4  0  0  0  0
147148  4  0  0  0  0
140149  4  0  0  0  0
149150  4  0  0  0  0
150151  2  0  0  0  0
133152  1  0  0  0  0
149152  4  0  0  0  0
151153  4  0  0  0  0
152153  4  0  0  0  0
125154  4  0  0  0  0
153154  4  0  0  0  0
154155  4  0  0  0  0
155156  4  0  0  0  0
156157  2  0  0  0  0
157158  4  0  0  0  0
133159  1  0  0  0  0
155159  4  0  0  0  0
158159  4  0  0  0  0
158160  4  0  0  0  0
160161  1  0  0  0  0
161162  3  0  0  0  0
162163  1  0  0  0  0
163164  4  0  0  0  0
164165  4  0  0  0  0
165166  4  0  0  0  0
166167  4  0  0  0  0
163168  4  0  0  0  0
167168  4  0  0  0  0
160169  4  0  0  0  0
169170  4  0  0  0  0
170171  2  0  0  0  0
134172  4  0  0  0  0
171172  4  0  0  0  0
133173  1  0  0  0  0
169173  4  0  0  0  0
172173  4  0  0  0  0
136174  1  0  0  0  0
137175  1  0  0  0  0
144176  1  0  0  0  0
145177  1  0  0  0  0
147178  1  0  0  0  0
148179  1  0  0  0  0
150180  1  0  0  0  0
151181  1  0  0  0  0
156182  1  0  0  0  0
157183  1  0  0  0  0
164184  1  0  0  0  0
165185  1  0  0  0  0
167186  1  0  0  0  0
168187  1  0  0  0  0
170188  1  0  0  0  0
171189  1  0  0  0  0
M  END
