234

C 20.297102 -0.057760 -0.080895
C 21.024486 -0.254532 1.288890
C 20.423207 -0.607199 2.477202
C 21.443521 -0.641779 3.461393
C 22.624375 -0.278572 2.850796
N 22.368073 -0.103193 1.512734
C 24.042456 -0.131060 3.549099
C 25.176473 -0.074564 2.793215
C 26.488365 0.075717 3.390167
C 27.390072 0.136711 2.418240
N 25.370883 -0.115046 1.436929
C 26.705006 0.004437 1.146688
C 27.365287 0.012823 -0.040898
C 26.581489 -0.178842 -1.409355
C 27.093455 -0.728318 -2.568107
C 26.071603 -0.690121 -3.549645
C 24.967723 -0.114959 -2.965783
C 23.565212 0.149841 -3.670466
C 23.558271 0.363429 -5.148792
C 24.050327 1.552739 -5.724683
O 24.544666 2.637690 -5.048509
C 23.663494 3.205204 -4.078991
C 24.151788 1.678230 -7.117889
C 23.722412 0.653444 -7.957152
C 23.206525 -0.516859 -7.405664
C 23.142825 -0.679835 -6.015216
O 22.638131 -1.823582 -5.444712
C 22.885167 -3.045626 -6.134470
C 22.442060 0.176167 -2.905752
C 21.111033 0.339384 -3.462496
C 20.227393 0.258297 -2.470844
C 20.961708 0.067946 -1.244179
N 22.288511 0.050680 -1.552749
N 25.268919 0.140681 -1.646502
C 24.079737 -0.016003 5.038984
C 23.779194 1.198159 5.695731
O 23.315502 2.318633 5.053993
C 24.329127 2.992674 4.312046
C 23.811862 1.289450 7.092079
C 24.169927 0.185065 7.858548
C 24.456282 -1.027336 7.230484
C 24.411143 -1.139429 5.831529
O 24.616546 -2.327257 5.175625
C 25.402154 -3.313071 5.825649
H 19.205512 -0.021428 -0.075864
H 19.373172 -0.812327 2.618966
H 21.325425 -0.880573 4.505735
H 23.066288 0.095171 0.799825
H 26.701848 0.139495 4.441140
H 28.448008 0.247139 2.572544
H 28.087146 -1.125680 -2.690340
H 26.127902 -1.043103 -4.566906
H 24.175475 3.232607 -3.107772
H 23.450390 4.237558 -4.377816
H 22.713873 2.687790 -3.973041
H 24.569200 2.588586 -7.536863
H 23.789708 0.765473 -9.032798
H 22.859659 -1.300540 -8.070783
H 22.736405 -3.871870 -5.435805
H 22.166624 -3.170832 -6.951424
H 23.913659 -3.100250 -6.506289
H 20.873402 0.462017 -4.501580
H 19.155931 0.310312 -2.561847
H 24.592438 0.433192 -0.946580
H 24.610052 3.910500 4.837839
H 23.916960 3.280221 3.339612
H 25.229950 2.408532 4.140147
H 23.544419 2.224547 7.573195
H 24.199015 0.266162 8.941733
H 24.684343 -1.884127 7.852709
H 24.826376 -3.806785 6.611154
H 25.676313 -4.068727 5.086697
H 26.327195 -2.889456 6.232578
C 68.742070 -0.053946 0.005185
C 68.014686 -0.371097 -1.341829
C 68.615965 -0.827482 -2.494293
C 67.595651 -0.948972 -3.471568
C 66.414797 -0.533184 -2.895488
N 66.671099 -0.240149 -1.578181
C 64.996716 -0.448012 -3.604101
C 63.862699 -0.324883 -2.856176
C 62.550807 -0.227989 -3.464080
C 61.649099 -0.081271 -2.501356
N 63.668288 -0.245251 -1.501625
C 62.334165 -0.100566 -1.223089
C 61.673885 0.012823 -0.040898
C 62.457682 -0.057058 1.339148
C 61.945716 -0.501896 2.541957
C 62.967568 -0.377037 3.516270
C 64.071448 0.144232 2.883826
C 65.473959 0.470319 3.562327
C 65.480900 0.813820 5.015970
C 64.988845 2.049404 5.484415
O 64.494506 3.070299 4.714933
C 65.375678 3.549840 3.699021
C 64.887384 2.297624 6.861062
C 65.316759 1.351082 7.787674
C 65.832647 0.136590 7.341853
C 65.896346 -0.148725 5.971268
O 66.401040 -1.338448 5.504158
C 66.154004 -2.494698 6.299296
C 66.597111 0.428907 2.798282
C 67.928138 0.640725 3.338409
C 68.811779 0.472250 2.357814
C 68.077464 0.174154 1.152792
N 66.750660 0.184246 1.461680
N 63.770252 0.282186 1.547106
C 64.959435 -0.465178 -5.098323
C 65.259977 0.686141 -5.859882
O 65.723669 1.858982 -5.319759
C 64.710045 2.596002 -4.640335
C 65.227309 0.653574 -7.258833
C 64.869244 -0.514272 -7.924621
C 64.582890 -1.666373 -7.191788
C 64.628028 -1.654297 -5.788401
O 64.422626 -2.779459 -5.030011
C 63.637018 -3.818901 -5.590298
H 69.833660 -0.018201 -0.003040
H 69.666000 -1.044344 -2.617358
H 67.713747 -1.279196 -4.490697
H 65.972883 0.020491 -0.885609
H 62.337323 -0.257413 -4.516575
H 60.591164 0.015076 -2.664823
H 60.952026 -0.886890 2.698855
H 62.911269 -0.638665 4.560764
H 64.863697 3.491237 2.729185
H 65.588781 4.604578 3.905369
H 66.325298 3.025084 3.639249
H 64.469971 3.241468 7.197879
H 65.249464 1.557807 8.849196
H 66.179512 -0.585194 8.073678
H 66.302767 -3.379497 5.676446
H 66.872547 -2.547158 7.124123
H 65.125512 -2.516222 6.674490
H 68.165770 0.854780 4.362574
H 69.883241 0.532110 2.443860
H 64.446734 0.511647 0.824055
H 64.429119 3.463728 -5.245244
H 65.122211 2.968429 -3.697143
H 63.809221 2.029353 -4.417445
H 65.494752 1.542455 -7.820767
H 64.840156 -0.529295 -9.010734
H 64.354829 -2.574839 -7.735796
H 64.212795 -4.380154 -6.329058
H 63.362858 -4.506239 -4.787408
H 62.711976 -3.432937 -6.033098
C 30.443584 0.026481 -0.031344
C 31.901810 0.004644 -0.049218
C 33.035738 -0.016110 -0.050709
C 34.397120 -0.028699 -0.052900
C 35.671339 -0.018393 -0.057665
C 36.859801 0.000405 -0.063821
C 38.212162 0.025190 -0.047953
C 39.312429 0.026481 -0.031344
C 49.611422 0.026481 -0.031344
C 51.069648 0.004644 -0.049218
C 52.203576 -0.016110 -0.050709
C 53.564958 -0.028699 -0.052900
C 54.839176 -0.018393 -0.057665
C 56.027639 0.000405 -0.063821
C 57.380000 0.025190 -0.047953
C 58.480267 0.026481 -0.031344
C 40.970571 -0.031886 0.089898
C 41.761734 1.224497 0.653282
C 41.232841 2.258810 1.396972
C 42.267733 3.206328 1.583618
C 43.402432 2.719767 0.971121
N 43.101400 1.481433 0.460767
C 44.809880 3.453100 0.875062
C 45.941884 2.731612 0.643773
C 47.242633 3.360133 0.522240
C 48.152738 2.413311 0.342039
N 46.147051 1.386540 0.486469
C 47.479636 1.131371 0.298177
C 48.148822 -0.031886 0.089898
C 47.347216 -1.395582 -0.013080
C 47.846007 -2.666622 0.218619
C 46.810122 -3.588755 -0.066481
C 45.711045 -2.851098 -0.470959
C 44.316264 -3.436715 -0.949214
C 44.322393 -4.783555 -1.599212
C 43.958473 -5.915596 -0.820717
O 43.634003 -5.699155 0.495223
C 42.694664 -6.589946 1.079087
C 44.000769 -7.205882 -1.368340
C 44.411075 -7.394348 -2.679424
C 44.776135 -6.294168 -3.447664
C 44.722988 -4.989523 -2.936412
O 45.133572 -4.062191 -3.864558
C 44.463228 -2.800835 -3.848529
C 43.178754 -2.708364 -0.779201
C 41.874741 -3.216875 -1.158735
C 40.962062 -2.299478 -0.865339
C 41.639455 -1.148477 -0.299189
N 42.976097 -1.451125 -0.277587
N 46.026416 -1.518843 -0.370532
C 44.839244 4.937558 1.026857
C 44.906020 5.774084 -0.105927
O 44.966344 5.215466 -1.360132
C 43.831262 5.571059 -2.152348
C 44.975382 7.168681 0.028866
C 44.943719 7.754325 1.292266
C 44.837277 6.948923 2.424101
C 44.804281 5.554452 2.296346
O 44.643504 4.849355 3.461658
C 45.879490 4.273955 3.891450
H 40.213100 2.343042 1.750745
H 42.196663 4.145218 2.109425
H 43.771901 0.849002 0.026674
H 47.446599 4.412798 0.581651
H 49.205751 2.585349 0.231325
H 48.849104 -2.909243 0.543619
H 46.861953 -4.668386 0.001396
H 42.295300 -6.117920 1.983730
H 43.189586 -7.521369 1.382321
H 41.845304 -6.789928 0.409609
H 43.754904 -8.075578 -0.771913
H 44.461250 -8.392337 -3.102536
H 45.105004 -6.443038 -4.467001
H 44.467781 -2.457872 -4.898639
H 43.399648 -2.900182 -3.561464
H 45.005390 -2.057396 -3.249183
H 41.674650 -4.175478 -1.597739
H 39.907992 -2.413225 -1.036930
H 45.380596 -0.742457 -0.492999
H 44.059234 6.485761 -2.715914
H 42.921736 5.723707 -1.558688
H 43.651892 4.765588 -2.878520
H 45.071142 7.795226 -0.852318
H 45.002226 8.833594 1.392422
H 44.803544 7.393297 3.411030
H 46.625925 4.160544 3.102067
H 45.662376 3.287702 4.321686
H 46.305469 4.905994 4.679440
