 xtb: 6.5.1 (b24c23e)
          07312201163D

234254  0     0  0            999 V2000
   22.5024    0.0406    0.0711 C   0  0  0  0  0  0  0  0  0  0  0  0
   23.1272    0.0440    1.3115 C   0  0  0  0  0  0  0  0  0  0  0  0
   22.5002    0.0048    2.5890 C   0  0  0  0  0  0  0  0  0  0  0  0
   23.4807    0.0324    3.5404 C   0  0  0  0  0  0  0  0  0  0  0  0
   24.7383    0.0876    2.8746 C   0  0  0  0  0  0  0  0  0  0  0  0
   24.4745    0.0950    1.5338 N   0  0  0  0  0  0  0  0  0  0  0  0
   26.0074    0.1266    3.4594 C   0  0  0  0  0  0  0  0  0  0  0  0
   27.2184    0.1378    2.7673 C   0  0  0  0  0  0  0  0  0  0  0  0
   28.5149    0.1414    3.4202 C   0  0  0  0  0  0  0  0  0  0  0  0
   29.4381    0.1556    2.4363 C   0  0  0  0  0  0  0  0  0  0  0  0
   27.3749    0.1626    1.4147 N   0  0  0  0  0  0  0  0  0  0  0  0
   28.7034    0.1675    1.1857 C   0  0  0  0  0  0  0  0  0  0  0  0
   29.3367    0.1862   -0.0741 C   0  0  0  0  0  0  0  0  0  0  0  0
   28.6851    0.2150   -1.3214 C   0  0  0  0  0  0  0  0  0  0  0  0
   29.3057    0.2587   -2.5986 C   0  0  0  0  0  0  0  0  0  0  0  0
   28.3201    0.2879   -3.5456 C   0  0  0  0  0  0  0  0  0  0  0  0
   27.0662    0.2595   -2.8745 C   0  0  0  0  0  0  0  0  0  0  0  0
   25.7975    0.2675   -3.4588 C   0  0  0  0  0  0  0  0  0  0  0  0
   25.7578    0.2834   -4.9527 C   0  0  0  0  0  0  0  0  0  0  0  0
   25.9089    1.4298   -5.7375 C   0  0  0  0  0  0  0  0  0  0  0  0
   26.0797    2.6957   -5.2712 O   0  0  0  0  0  0  0  0  0  0  0  0
   25.6740    3.1079   -3.9787 C   0  0  0  0  0  0  0  0  0  0  0  0
   25.9187    1.3244   -7.1342 C   0  0  0  0  0  0  0  0  0  0  0  0
   25.7671    0.0959   -7.7442 C   0  0  0  0  0  0  0  0  0  0  0  0
   25.5952   -1.0554   -6.9846 C   0  0  0  0  0  0  0  0  0  0  0  0
   25.5941   -0.9583   -5.5978 C   0  0  0  0  0  0  0  0  0  0  0  0
   25.4542   -2.0276   -4.7686 O   0  0  0  0  0  0  0  0  0  0  0  0
   25.2610   -3.3233   -5.2992 C   0  0  0  0  0  0  0  0  0  0  0  0
   24.5869    0.1903   -2.7659 C   0  0  0  0  0  0  0  0  0  0  0  0
   23.2850    0.1593   -3.4130 C   0  0  0  0  0  0  0  0  0  0  0  0
   22.3692    0.0941   -2.4253 C   0  0  0  0  0  0  0  0  0  0  0  0
   23.1113    0.0924   -1.1764 C   0  0  0  0  0  0  0  0  0  0  0  0
   24.4435    0.1553   -1.4198 N   0  0  0  0  0  0  0  0  0  0  0  0
   27.3387    0.2185   -1.5319 N   0  0  0  0  0  0  0  0  0  0  0  0
   26.0465    0.0683    4.9525 C   0  0  0  0  0  0  0  0  0  0  0  0
   25.8296    1.1603    5.7970 C   0  0  0  0  0  0  0  0  0  0  0  0
   25.5851    2.4375    5.3999 O   0  0  0  0  0  0  0  0  0  0  0  0
   25.9465    2.9386    4.1260 C   0  0  0  0  0  0  0  0  0  0  0  0
   25.8289    0.9804    7.1862 C   0  0  0  0  0  0  0  0  0  0  0  0
   26.0525   -0.2678    7.7303 C   0  0  0  0  0  0  0  0  0  0  0  0
   26.2878   -1.3656    6.9108 C   0  0  0  0  0  0  0  0  0  0  0  0
   26.2808   -1.1948    5.5312 C   0  0  0  0  0  0  0  0  0  0  0  0
   26.4774   -2.2094    4.6467 O   0  0  0  0  0  0  0  0  0  0  0  0
   26.7612   -3.5152    5.1070 C   0  0  0  0  0  0  0  0  0  0  0  0
   21.4182   -0.0047    0.0878 H   0  0  0  0  0  0  0  0  0  0  0  0
   21.4341   -0.0388    2.7451 H   0  0  0  0  0  0  0  0  0  0  0  0
   23.3555    0.0136    4.6110 H   0  0  0  0  0  0  0  0  0  0  0  0
   25.1829    0.1103    0.8079 H   0  0  0  0  0  0  0  0  0  0  0  0
   28.6686    0.1286    4.4874 H   0  0  0  0  0  0  0  0  0  0  0  0
   30.5132    0.1594    2.5205 H   0  0  0  0  0  0  0  0  0  0  0  0
   30.3716    0.2673   -2.7602 H   0  0  0  0  0  0  0  0  0  0  0  0
   28.4415    0.3223   -4.6161 H   0  0  0  0  0  0  0  0  0  0  0  0
   26.3808    2.7789   -3.2091 H   0  0  0  0  0  0  0  0  0  0  0  0
   25.6570    4.2004   -4.0012 H   0  0  0  0  0  0  0  0  0  0  0  0
   24.6726    2.7371   -3.7356 H   0  0  0  0  0  0  0  0  0  0  0  0
   26.0458    2.2288   -7.7158 H   0  0  0  0  0  0  0  0  0  0  0  0
   25.7756    0.0254   -8.8260 H   0  0  0  0  0  0  0  0  0  0  0  0
   25.4723   -2.0108   -7.4768 H   0  0  0  0  0  0  0  0  0  0  0  0
   25.1609   -3.9909   -4.4413 H   0  0  0  0  0  0  0  0  0  0  0  0
   24.3486   -3.3769   -5.9056 H   0  0  0  0  0  0  0  0  0  0  0  0
   26.1183   -3.6417   -5.9049 H   0  0  0  0  0  0  0  0  0  0  0  0
   23.1261    0.1791   -4.4795 H   0  0  0  0  0  0  0  0  0  0  0  0
   21.2939    0.0515   -2.5018 H   0  0  0  0  0  0  0  0  0  0  0  0
   26.6340    0.1727   -0.8035 H   0  0  0  0  0  0  0  0  0  0  0  0
   26.9620    2.6369    3.8494 H   0  0  0  0  0  0  0  0  0  0  0  0
   25.9042    4.0276    4.2063 H   0  0  0  0  0  0  0  0  0  0  0  0
   25.2457    2.6119    3.3501 H   0  0  0  0  0  0  0  0  0  0  0  0
   25.6510    1.8438    7.8148 H   0  0  0  0  0  0  0  0  0  0  0  0
   26.0508   -0.3958    8.8069 H   0  0  0  0  0  0  0  0  0  0  0  0
   26.4652   -2.3375    7.3515 H   0  0  0  0  0  0  0  0  0  0  0  0
   25.9313   -3.9230    5.6970 H   0  0  0  0  0  0  0  0  0  0  0  0
   26.9011   -4.1280    4.2145 H   0  0  0  0  0  0  0  0  0  0  0  0
   27.6787   -3.5384    5.7074 H   0  0  0  0  0  0  0  0  0  0  0  0
   66.5441    0.1156   -0.1159 C   0  0  0  0  0  0  0  0  0  0  0  0
   65.9282   -0.0226   -1.3530 C   0  0  0  0  0  0  0  0  0  0  0  0
   66.5651   -0.1536   -2.6195 C   0  0  0  0  0  0  0  0  0  0  0  0
   65.5911   -0.2605   -3.5718 C   0  0  0  0  0  0  0  0  0  0  0  0
   64.3276   -0.1996   -2.9176 C   0  0  0  0  0  0  0  0  0  0  0  0
   64.5815   -0.0535   -1.5828 N   0  0  0  0  0  0  0  0  0  0  0  0
   63.0618   -0.2762   -3.5059 C   0  0  0  0  0  0  0  0  0  0  0  0
   61.8470   -0.2505   -2.8207 C   0  0  0  0  0  0  0  0  0  0  0  0
   60.5557   -0.3599   -3.4745 C   0  0  0  0  0  0  0  0  0  0  0  0
   59.6259   -0.2791   -2.5001 C   0  0  0  0  0  0  0  0  0  0  0  0
   61.6808   -0.0967   -1.4779 N   0  0  0  0  0  0  0  0  0  0  0  0
   60.3514   -0.1142   -1.2548 C   0  0  0  0  0  0  0  0  0  0  0  0
   59.7083    0.0180   -0.0068 C   0  0  0  0  0  0  0  0  0  0  0  0
   60.3493    0.1894    1.2345 C   0  0  0  0  0  0  0  0  0  0  0  0
   59.7187    0.3376    2.4987 C   0  0  0  0  0  0  0  0  0  0  0  0
   60.6966    0.4849    3.4430 C   0  0  0  0  0  0  0  0  0  0  0  0
   61.9554    0.4287    2.7829 C   0  0  0  0  0  0  0  0  0  0  0  0
   63.2192    0.5341    3.3683 C   0  0  0  0  0  0  0  0  0  0  0  0
   63.2495    0.6862    4.8550 C   0  0  0  0  0  0  0  0  0  0  0  0
   63.0863    1.8959    5.5351 C   0  0  0  0  0  0  0  0  0  0  0  0
   62.9029    3.1149    4.9621 O   0  0  0  0  0  0  0  0  0  0  0  0
   63.2677    3.4117    3.6267 C   0  0  0  0  0  0  0  0  0  0  0  0
   63.0770    1.9138    6.9360 C   0  0  0  0  0  0  0  0  0  0  0  0
   63.2398    0.7458    7.6523 C   0  0  0  0  0  0  0  0  0  0  0  0
   63.4215   -0.4668    6.9976 C   0  0  0  0  0  0  0  0  0  0  0  0
   63.4228   -0.4922    5.6077 C   0  0  0  0  0  0  0  0  0  0  0  0
   63.5734   -1.6291    4.8758 O   0  0  0  0  0  0  0  0  0  0  0  0
   63.7787   -2.8710    5.5185 C   0  0  0  0  0  0  0  0  0  0  0  0
   64.4362    0.4374    2.6895 C   0  0  0  0  0  0  0  0  0  0  0  0
   65.7340    0.5146    3.3411 C   0  0  0  0  0  0  0  0  0  0  0  0
   66.6582    0.3978    2.3660 C   0  0  0  0  0  0  0  0  0  0  0  0
   65.9252    0.2548    1.1200 C   0  0  0  0  0  0  0  0  0  0  0  0
   64.5900    0.2865    1.3525 N   0  0  0  0  0  0  0  0  0  0  0  0
   61.6935    0.2513    1.4494 N   0  0  0  0  0  0  0  0  0  0  0  0
   63.0347   -0.4720   -4.9869 C   0  0  0  0  0  0  0  0  0  0  0  0
   63.2526    0.5444   -5.9211 C   0  0  0  0  0  0  0  0  0  0  0  0
   63.4804    1.8529   -5.6270 O   0  0  0  0  0  0  0  0  0  0  0  0
   63.0253    2.4651   -4.4335 C   0  0  0  0  0  0  0  0  0  0  0  0
   63.2750    0.2450   -7.2888 C   0  0  0  0  0  0  0  0  0  0  0  0
   63.0689   -1.0484   -7.7244 C   0  0  0  0  0  0  0  0  0  0  0  0
   62.8291   -2.0720   -6.8153 C   0  0  0  0  0  0  0  0  0  0  0  0
   62.8161   -1.7824   -5.4555 C   0  0  0  0  0  0  0  0  0  0  0  0
   62.6152   -2.7181   -4.4890 O   0  0  0  0  0  0  0  0  0  0  0  0
   62.3438   -4.0606   -4.8380 C   0  0  0  0  0  0  0  0  0  0  0  0
   67.6293    0.1154   -0.1252 H   0  0  0  0  0  0  0  0  0  0  0  0
   67.6332   -0.1633   -2.7680 H   0  0  0  0  0  0  0  0  0  0  0  0
   65.7247   -0.3747   -4.6354 H   0  0  0  0  0  0  0  0  0  0  0  0
   63.8682   -0.0009   -0.8636 H   0  0  0  0  0  0  0  0  0  0  0  0
   60.4093   -0.4856   -4.5353 H   0  0  0  0  0  0  0  0  0  0  0  0
   58.5521   -0.3223   -2.5880 H   0  0  0  0  0  0  0  0  0  0  0  0
   58.6518    0.3310    2.6540 H   0  0  0  0  0  0  0  0  0  0  0  0
   60.5671    0.6181    4.5048 H   0  0  0  0  0  0  0  0  0  0  0  0
   62.5540    2.9918    2.9094 H   0  0  0  0  0  0  0  0  0  0  0  0
   63.2532    4.5013    3.5453 H   0  0  0  0  0  0  0  0  0  0  0  0
   64.2741    3.0468    3.3953 H   0  0  0  0  0  0  0  0  0  0  0  0
   62.9412    2.8649    7.4352 H   0  0  0  0  0  0  0  0  0  0  0  0
   63.2320    0.7715    8.7361 H   0  0  0  0  0  0  0  0  0  0  0  0
   63.5525   -1.3739    7.5722 H   0  0  0  0  0  0  0  0  0  0  0  0
   63.8862   -3.6106    4.7227 H   0  0  0  0  0  0  0  0  0  0  0  0
   64.6910   -2.8620    6.1272 H   0  0  0  0  0  0  0  0  0  0  0  0
   62.9242   -3.1432    6.1498 H   0  0  0  0  0  0  0  0  0  0  0  0
   65.8848    0.6357    4.4020 H   0  0  0  0  0  0  0  0  0  0  0  0
   67.7339    0.4044    2.4495 H   0  0  0  0  0  0  0  0  0  0  0  0
   62.4043    0.1575    0.7315 H   0  0  0  0  0  0  0  0  0  0  0  0
   62.0080    2.1471   -4.1829 H   0  0  0  0  0  0  0  0  0  0  0  0
   63.0294    3.5414   -4.6232 H   0  0  0  0  0  0  0  0  0  0  0  0
   63.6915    2.2500   -3.5909 H   0  0  0  0  0  0  0  0  0  0  0  0
   63.4543    1.0518   -7.9881 H   0  0  0  0  0  0  0  0  0  0  0  0
   63.0867   -1.2702   -8.7855 H   0  0  0  0  0  0  0  0  0  0  0  0
   62.6643   -3.0798   -7.1720 H   0  0  0  0  0  0  0  0  0  0  0  0
   63.1831   -4.5129   -5.3803 H   0  0  0  0  0  0  0  0  0  0  0  0
   62.1957   -4.5946   -3.8975 H   0  0  0  0  0  0  0  0  0  0  0  0
   61.4340   -4.1412   -5.4452 H   0  0  0  0  0  0  0  0  0  0  0  0
   30.7421    0.1773   -0.1029 C   0  0  0  0  0  0  0  0  0  0  0  0
   31.9662    0.1611   -0.1345 C   0  0  0  0  0  0  0  0  0  0  0  0
   33.3089    0.1412   -0.1657 C   0  0  0  0  0  0  0  0  0  0  0  0
   34.5391    0.1203   -0.1970 C   0  0  0  0  0  0  0  0  0  0  0  0
   35.8769    0.0972   -0.2282 C   0  0  0  0  0  0  0  0  0  0  0  0
   37.1072    0.0744   -0.2537 C   0  0  0  0  0  0  0  0  0  0  0  0
   38.4498    0.0569   -0.2754 C   0  0  0  0  0  0  0  0  0  0  0  0
   39.6745    0.0395   -0.2914 C   0  0  0  0  0  0  0  0  0  0  0  0
   49.3701   -0.0655   -0.1145 C   0  0  0  0  0  0  0  0  0  0  0  0
   50.5943   -0.0782   -0.0778 C   0  0  0  0  0  0  0  0  0  0  0  0
   51.9367   -0.0837   -0.0461 C   0  0  0  0  0  0  0  0  0  0  0  0
   53.1672   -0.0831   -0.0218 C   0  0  0  0  0  0  0  0  0  0  0  0
   54.5052   -0.0738   -0.0012 C   0  0  0  0  0  0  0  0  0  0  0  0
   55.7359   -0.0573    0.0136 C   0  0  0  0  0  0  0  0  0  0  0  0
   57.0787   -0.0373    0.0183 C   0  0  0  0  0  0  0  0  0  0  0  0
   58.3033   -0.0168    0.0108 C   0  0  0  0  0  0  0  0  0  0  0  0
   41.0793    0.0312   -0.2970 C   0  0  0  0  0  0  0  0  0  0  0  0
   41.7153    1.2340    0.0655 C   0  0  0  0  0  0  0  0  0  0  0  0
   41.0777    2.4480    0.4330 C   0  0  0  0  0  0  0  0  0  0  0  0
   42.0520    3.3671    0.7086 C   0  0  0  0  0  0  0  0  0  0  0  0
   43.3138    2.7416    0.5141 C   0  0  0  0  0  0  0  0  0  0  0  0
   43.0588    1.4529    0.1285 N   0  0  0  0  0  0  0  0  0  0  0  0
   44.5756    3.3156    0.6993 C   0  0  0  0  0  0  0  0  0  0  0  0
   45.7988    2.6657    0.5399 C   0  0  0  0  0  0  0  0  0  0  0  0
   47.0850    3.3158    0.7181 C   0  0  0  0  0  0  0  0  0  0  0  0
   48.0246    2.3771    0.4851 C   0  0  0  0  0  0  0  0  0  0  0  0
   45.9787    1.3615    0.1915 N   0  0  0  0  0  0  0  0  0  0  0  0
   47.3108    1.1579    0.1568 C   0  0  0  0  0  0  0  0  0  0  0  0
   47.9660   -0.0506   -0.1547 C   0  0  0  0  0  0  0  0  0  0  0  0
   47.3326   -1.2551   -0.5164 C   0  0  0  0  0  0  0  0  0  0  0  0
   47.9674   -2.4810   -0.8464 C   0  0  0  0  0  0  0  0  0  0  0  0
   46.9922   -3.3898   -1.1546 C   0  0  0  0  0  0  0  0  0  0  0  0
   45.7333   -2.7438   -1.0197 C   0  0  0  0  0  0  0  0  0  0  0  0
   44.4722   -3.3040   -1.2458 C   0  0  0  0  0  0  0  0  0  0  0  0
   44.4569   -4.7493   -1.6296 C   0  0  0  0  0  0  0  0  0  0  0  0
   44.2777   -5.6757   -0.5831 C   0  0  0  0  0  0  0  0  0  0  0  0
   44.1120   -5.1282    0.6513 O   0  0  0  0  0  0  0  0  0  0  0  0
   43.8865   -5.9544    1.7755 C   0  0  0  0  0  0  0  0  0  0  0  0
   44.2878   -7.0450   -0.8219 C   0  0  0  0  0  0  0  0  0  0  0  0
   44.4847   -7.5040   -2.1190 C   0  0  0  0  0  0  0  0  0  0  0  0
   44.6555   -6.6154   -3.1606 C   0  0  0  0  0  0  0  0  0  0  0  0
   44.6382   -5.2338   -2.9276 C   0  0  0  0  0  0  0  0  0  0  0  0
   44.8314   -4.4815   -4.0425 O   0  0  0  0  0  0  0  0  0  0  0  0
   44.4969   -3.1085   -4.1283 C   0  0  0  0  0  0  0  0  0  0  0  0
   43.2485   -2.6597   -1.0712 C   0  0  0  0  0  0  0  0  0  0  0  0
   41.9655   -3.3037   -1.2865 C   0  0  0  0  0  0  0  0  0  0  0  0
   41.0229   -2.3746   -1.0227 C   0  0  0  0  0  0  0  0  0  0  0  0
   41.7331   -1.1657   -0.6531 C   0  0  0  0  0  0  0  0  0  0  0  0
   43.0658   -1.3634   -0.6971 N   0  0  0  0  0  0  0  0  0  0  0  0
   45.9899   -1.4553   -0.6319 N   0  0  0  0  0  0  0  0  0  0  0  0
   44.5932    4.7493    1.1080 C   0  0  0  0  0  0  0  0  0  0  0  0
   44.1841    5.7467    0.2127 C   0  0  0  0  0  0  0  0  0  0  0  0
   43.7890    5.3169   -1.0154 O   0  0  0  0  0  0  0  0  0  0  0  0
   43.3779    6.2453   -1.9994 C   0  0  0  0  0  0  0  0  0  0  0  0
   44.2058    7.0878    0.5936 C   0  0  0  0  0  0  0  0  0  0  0  0
   44.6297    7.4256    1.8699 C   0  0  0  0  0  0  0  0  0  0  0  0
   45.0331    6.4556    2.7749 C   0  0  0  0  0  0  0  0  0  0  0  0
   45.0168    5.1145    2.3932 C   0  0  0  0  0  0  0  0  0  0  0  0
   45.3808    4.0925    3.2108 O   0  0  0  0  0  0  0  0  0  0  0  0
   45.8598    4.3538    4.5149 C   0  0  0  0  0  0  0  0  0  0  0  0
   40.0098    2.5889    0.4794 H   0  0  0  0  0  0  0  0  0  0  0  0
   41.9139    4.3893    1.0209 H   0  0  0  0  0  0  0  0  0  0  0  0
   43.7713    0.7587   -0.0704 H   0  0  0  0  0  0  0  0  0  0  0  0
   47.2246    4.3513    0.9830 H   0  0  0  0  0  0  0  0  0  0  0  0
   49.0981    2.4736    0.5191 H   0  0  0  0  0  0  0  0  0  0  0  0
   49.0341   -2.6373   -0.8458 H   0  0  0  0  0  0  0  0  0  0  0  0
   47.1253   -4.4183   -1.4484 H   0  0  0  0  0  0  0  0  0  0  0  0
   43.7629   -5.2820    2.6265 H   0  0  0  0  0  0  0  0  0  0  0  0
   44.7381   -6.6196    1.9632 H   0  0  0  0  0  0  0  0  0  0  0  0
   42.9767   -6.5551    1.6560 H   0  0  0  0  0  0  0  0  0  0  0  0
   44.1520   -7.7530   -0.0155 H   0  0  0  0  0  0  0  0  0  0  0  0
   44.4991   -8.5708   -2.3115 H   0  0  0  0  0  0  0  0  0  0  0  0
   44.8044   -6.9616   -4.1756 H   0  0  0  0  0  0  0  0  0  0  0  0
   44.5367   -2.8551   -5.1905 H   0  0  0  0  0  0  0  0  0  0  0  0
   43.4872   -2.9172   -3.7500 H   0  0  0  0  0  0  0  0  0  0  0  0
   45.2142   -2.4828   -3.5860 H   0  0  0  0  0  0  0  0  0  0  0  0
   41.8330   -4.3295   -1.5911 H   0  0  0  0  0  0  0  0  0  0  0  0
   39.9497   -2.4709   -1.0661 H   0  0  0  0  0  0  0  0  0  0  0  0
   45.2794   -0.7565   -0.4421 H   0  0  0  0  0  0  0  0  0  0  0  0
   44.1833    6.9453   -2.2521 H   0  0  0  0  0  0  0  0  0  0  0  0
   42.4949    6.8095   -1.6752 H   0  0  0  0  0  0  0  0  0  0  0  0
   43.1229    5.6577   -2.8833 H   0  0  0  0  0  0  0  0  0  0  0  0
   43.8964    7.8656   -0.0915 H   0  0  0  0  0  0  0  0  0  0  0  0
   44.6443    8.4686    2.1666 H   0  0  0  0  0  0  0  0  0  0  0  0
   45.3544    6.7476    3.7657 H   0  0  0  0  0  0  0  0  0  0  0  0
   46.7608    4.9787    4.4934 H   0  0  0  0  0  0  0  0  0  0  0  0
   46.1070    3.3825    4.9473 H   0  0  0  0  0  0  0  0  0  0  0  0
   45.0957    4.8396    5.1338 H   0  0  0  0  0  0  0  0  0  0  0  0
  1  2  4  0  0  0  0
  2  3  4  0  0  0  0
  3  4  2  0  0  0  0
  4  5  4  0  0  0  0
  2  6  4  0  0  0  0
  5  6  4  0  0  0  0
  5  7  4  0  0  0  0
  7  8  4  0  0  0  0
  8  9  1  0  0  0  0
  9 10  2  0  0  0  0
  8 11  4  0  0  0  0
 10 12  1  0  0  0  0
 11 12  4  0  0  0  0
 12 13  4  0  0  0  0
 13 14  4  0  0  0  0
 14 15  4  0  0  0  0
 15 16  2  0  0  0  0
 16 17  4  0  0  0  0
 17 18  4  0  0  0  0
 18 19  1  0  0  0  0
 19 20  4  0  0  0  0
 20 21  1  0  0  0  0
 21 22  1  0  0  0  0
 20 23  4  0  0  0  0
 23 24  4  0  0  0  0
 24 25  4  0  0  0  0
 19 26  4  0  0  0  0
 25 26  4  0  0  0  0
 26 27  1  0  0  0  0
 27 28  1  0  0  0  0
 18 29  4  0  0  0  0
 29 30  1  0  0  0  0
 30 31  2  0  0  0  0
  1 32  4  0  0  0  0
 31 32  1  0  0  0  0
 29 33  4  0  0  0  0
 32 33  4  0  0  0  0
 14 34  4  0  0  0  0
 17 34  4  0  0  0  0
  7 35  1  0  0  0  0
 35 36  4  0  0  0  0
 36 37  1  0  0  0  0
 37 38  1  0  0  0  0
 36 39  4  0  0  0  0
 39 40  4  0  0  0  0
 40 41  4  0  0  0  0
 35 42  4  0  0  0  0
 41 42  4  0  0  0  0
 42 43  1  0  0  0  0
 43 44  1  0  0  0  0
  1 45  1  0  0  0  0
  3 46  1  0  0  0  0
  4 47  1  0  0  0  0
  6 48  1  0  0  0  0
  9 49  1  0  0  0  0
 10 50  1  0  0  0  0
 15 51  1  0  0  0  0
 16 52  1  0  0  0  0
 22 53  1  0  0  0  0
 22 54  1  0  0  0  0
 22 55  1  0  0  0  0
 23 56  1  0  0  0  0
 24 57  1  0  0  0  0
 25 58  1  0  0  0  0
 28 59  1  0  0  0  0
 28 60  1  0  0  0  0
 28 61  1  0  0  0  0
 30 62  1  0  0  0  0
 31 63  1  0  0  0  0
 34 64  1  0  0  0  0
 38 65  1  0  0  0  0
 38 66  1  0  0  0  0
 38 67  1  0  0  0  0
 39 68  1  0  0  0  0
 40 69  1  0  0  0  0
 41 70  1  0  0  0  0
 44 71  1  0  0  0  0
 44 72  1  0  0  0  0
 44 73  1  0  0  0  0
 74 75  4  0  0  0  0
 75 76  4  0  0  0  0
 76 77  2  0  0  0  0
 77 78  4  0  0  0  0
 75 79  4  0  0  0  0
 78 79  4  0  0  0  0
 78 80  4  0  0  0  0
 80 81  4  0  0  0  0
 81 82  1  0  0  0  0
 82 83  2  0  0  0  0
 81 84  4  0  0  0  0
 83 85  1  0  0  0  0
 84 85  4  0  0  0  0
 85 86  4  0  0  0  0
 86 87  4  0  0  0  0
 87 88  4  0  0  0  0
 88 89  2  0  0  0  0
 89 90  4  0  0  0  0
 90 91  4  0  0  0  0
 91 92  1  0  0  0  0
 92 93  4  0  0  0  0
 93 94  1  0  0  0  0
 94 95  1  0  0  0  0
 93 96  4  0  0  0  0
 96 97  4  0  0  0  0
 97 98  4  0  0  0  0
 92 99  4  0  0  0  0
 98 99  4  0  0  0  0
 99100  1  0  0  0  0
100101  1  0  0  0  0
 91102  4  0  0  0  0
102103  1  0  0  0  0
103104  2  0  0  0  0
 74105  4  0  0  0  0
104105  1  0  0  0  0
102106  4  0  0  0  0
105106  4  0  0  0  0
 87107  4  0  0  0  0
 90107  4  0  0  0  0
 80108  1  0  0  0  0
108109  4  0  0  0  0
109110  1  0  0  0  0
110111  1  0  0  0  0
109112  4  0  0  0  0
112113  4  0  0  0  0
113114  4  0  0  0  0
108115  4  0  0  0  0
114115  4  0  0  0  0
115116  1  0  0  0  0
116117  1  0  0  0  0
 74118  1  0  0  0  0
 76119  1  0  0  0  0
 77120  1  0  0  0  0
 79121  1  0  0  0  0
 82122  1  0  0  0  0
 83123  1  0  0  0  0
 88124  1  0  0  0  0
 89125  1  0  0  0  0
 95126  1  0  0  0  0
 95127  1  0  0  0  0
 95128  1  0  0  0  0
 96129  1  0  0  0  0
 97130  1  0  0  0  0
 98131  1  0  0  0  0
101132  1  0  0  0  0
101133  1  0  0  0  0
101134  1  0  0  0  0
103135  1  0  0  0  0
104136  1  0  0  0  0
107137  1  0  0  0  0
111138  1  0  0  0  0
111139  1  0  0  0  0
111140  1  0  0  0  0
112141  1  0  0  0  0
113142  1  0  0  0  0
114143  1  0  0  0  0
117144  1  0  0  0  0
117145  1  0  0  0  0
117146  1  0  0  0  0
 13147  4  0  0  0  0
147148  3  0  0  0  0
148149  4  0  0  0  0
149150  3  0  0  0  0
150151  4  0  0  0  0
151152  3  0  0  0  0
152153  4  0  0  0  0
153154  3  0  0  0  0
155156  3  0  0  0  0
156157  4  0  0  0  0
157158  3  0  0  0  0
158159  4  0  0  0  0
159160  3  0  0  0  0
160161  4  0  0  0  0
 86162  4  0  0  0  0
161162  3  0  0  0  0
154163  4  0  0  0  0
163164  4  0  0  0  0
164165  4  0  0  0  0
165166  2  0  0  0  0
166167  4  0  0  0  0
164168  4  0  0  0  0
167168  4  0  0  0  0
167169  4  0  0  0  0
169170  4  0  0  0  0
170171  1  0  0  0  0
171172  2  0  0  0  0
170173  4  0  0  0  0
172174  1  0  0  0  0
173174  4  0  0  0  0
155175  4  0  0  0  0
174175  4  0  0  0  0
175176  4  0  0  0  0
176177  4  0  0  0  0
177178  2  0  0  0  0
178179  4  0  0  0  0
179180  4  0  0  0  0
180181  1  0  0  0  0
181182  4  0  0  0  0
182183  1  0  0  0  0
183184  1  0  0  0  0
182185  4  0  0  0  0
185186  4  0  0  0  0
186187  4  0  0  0  0
181188  4  0  0  0  0
187188  4  0  0  0  0
188189  1  0  0  0  0
189190  1  0  0  0  0
180191  4  0  0  0  0
191192  1  0  0  0  0
192193  2  0  0  0  0
163194  4  0  0  0  0
193194  1  0  0  0  0
191195  4  0  0  0  0
194195  4  0  0  0  0
176196  4  0  0  0  0
179196  4  0  0  0  0
169197  1  0  0  0  0
197198  4  0  0  0  0
198199  1  0  0  0  0
199200  1  0  0  0  0
198201  4  0  0  0  0
201202  4  0  0  0  0
202203  4  0  0  0  0
197204  4  0  0  0  0
203204  4  0  0  0  0
204205  1  0  0  0  0
205206  1  0  0  0  0
165207  1  0  0  0  0
166208  1  0  0  0  0
168209  1  0  0  0  0
171210  1  0  0  0  0
172211  1  0  0  0  0
177212  1  0  0  0  0
178213  1  0  0  0  0
184214  1  0  0  0  0
184215  1  0  0  0  0
184216  1  0  0  0  0
185217  1  0  0  0  0
186218  1  0  0  0  0
187219  1  0  0  0  0
190220  1  0  0  0  0
190221  1  0  0  0  0
190222  1  0  0  0  0
192223  1  0  0  0  0
193224  1  0  0  0  0
196225  1  0  0  0  0
200226  1  0  0  0  0
200227  1  0  0  0  0
200228  1  0  0  0  0
201229  1  0  0  0  0
202230  1  0  0  0  0
203231  1  0  0  0  0
206232  1  0  0  0  0
206233  1  0  0  0  0
206234  1  0  0  0  0
M  END
