 xtb: 6.5.1 (b24c23e)
          07292221423D

237266  0     0  0            999 V2000
   27.8730    0.0072    0.0034 Fe  0  0  0  0  0  0  0  0  0  0  0  0
   24.4729    0.1115   -0.0997 C   0  0  0  0  0  0  0  0  0  0  0  0
   25.1371    1.2086    0.4085 C   0  0  0  0  0  0  0  0  0  0  0  0
   24.4726    2.3693    0.9214 C   0  0  0  0  0  0  0  0  0  0  0  0
   25.4415    3.2266    1.3201 C   0  0  0  0  0  0  0  0  0  0  0  0
   26.6962    2.5887    1.0451 C   0  0  0  0  0  0  0  0  0  0  0  0
   26.4974    1.3541    0.4883 N   0  0  0  0  0  0  0  0  0  0  0  0
   27.9270    3.1786    1.2973 C   0  0  0  0  0  0  0  0  0  0  0  0
   27.9520    4.5464    1.8877 C   0  0  0  0  0  0  0  0  0  0  0  0
   27.9059    5.6676    1.0541 C   0  0  0  0  0  0  0  0  0  0  0  0
   27.8261    5.4914   -0.4388 C   0  0  0  0  0  0  0  0  0  0  0  0
   27.9349    6.9380    1.6170 C   0  0  0  0  0  0  0  0  0  0  0  0
   28.0077    7.1077    2.9959 C   0  0  0  0  0  0  0  0  0  0  0  0
   28.0614    8.4888    3.5912 C   0  0  0  0  0  0  0  0  0  0  0  0
   28.0522    5.9846    3.8154 C   0  0  0  0  0  0  0  0  0  0  0  0
   28.0248    4.7044    3.2747 C   0  0  0  0  0  0  0  0  0  0  0  0
   28.0742    3.4931    4.1672 C   0  0  0  0  0  0  0  0  0  0  0  0
   29.1348    2.5565    1.0277 C   0  0  0  0  0  0  0  0  0  0  0  0
   30.4077    3.1629    1.2806 C   0  0  0  0  0  0  0  0  0  0  0  0
   31.3487    2.2603    0.9140 C   0  0  0  0  0  0  0  0  0  0  0  0
   29.2987    1.2976    0.4998 N   0  0  0  0  0  0  0  0  0  0  0  0
   30.6477    1.1079    0.4388 C   0  0  0  0  0  0  0  0  0  0  0  0
   31.2957   -0.0441   -0.0212 C   0  0  0  0  0  0  0  0  0  0  0  0
   30.6067   -1.1743   -0.4753 C   0  0  0  0  0  0  0  0  0  0  0  0
   31.2651   -2.3650   -0.9152 C   0  0  0  0  0  0  0  0  0  0  0  0
   30.2920   -3.2369   -1.2726 C   0  0  0  0  0  0  0  0  0  0  0  0
   29.0424   -2.5719   -1.0532 C   0  0  0  0  0  0  0  0  0  0  0  0
   29.2521   -1.3048   -0.5625 N   0  0  0  0  0  0  0  0  0  0  0  0
   27.8132   -3.1469   -1.3311 C   0  0  0  0  0  0  0  0  0  0  0  0
   27.7873   -4.5293   -1.8866 C   0  0  0  0  0  0  0  0  0  0  0  0
   27.8815   -4.7261   -3.2679 C   0  0  0  0  0  0  0  0  0  0  0  0
   28.0042   -3.5414   -4.1886 C   0  0  0  0  0  0  0  0  0  0  0  0
   27.8618   -6.0191   -3.7754 C   0  0  0  0  0  0  0  0  0  0  0  0
   27.7506   -7.1185   -2.9287 C   0  0  0  0  0  0  0  0  0  0  0  0
   27.7236   -8.5099   -3.5016 C   0  0  0  0  0  0  0  0  0  0  0  0
   27.6553   -6.9103   -1.5576 C   0  0  0  0  0  0  0  0  0  0  0  0
   27.6726   -5.6249   -1.0271 C   0  0  0  0  0  0  0  0  0  0  0  0
   27.5722   -5.4074    0.4592 C   0  0  0  0  0  0  0  0  0  0  0  0
   26.6056   -2.4951   -1.1232 C   0  0  0  0  0  0  0  0  0  0  0  0
   25.3299   -3.0780   -1.4223 C   0  0  0  0  0  0  0  0  0  0  0  0
   24.3931   -2.1614   -1.0829 C   0  0  0  0  0  0  0  0  0  0  0  0
   25.0982   -1.0226   -0.5752 C   0  0  0  0  0  0  0  0  0  0  0  0
   26.4517   -1.2329   -0.6160 N   0  0  0  0  0  0  0  0  0  0  0  0
   23.3892    0.1387   -0.1186 H   0  0  0  0  0  0  0  0  0  0  0  0
   23.4018    2.4910    0.9647 H   0  0  0  0  0  0  0  0  0  0  0  0
   25.3363    4.2044    1.7620 H   0  0  0  0  0  0  0  0  0  0  0  0
   26.9100    4.9627   -0.7091 H   0  0  0  0  0  0  0  0  0  0  0  0
   28.6704    4.8994   -0.7968 H   0  0  0  0  0  0  0  0  0  0  0  0
   27.8345    6.4559   -0.9456 H   0  0  0  0  0  0  0  0  0  0  0  0
   27.8994    7.8087    0.9703 H   0  0  0  0  0  0  0  0  0  0  0  0
   27.6418    8.4953    4.5974 H   0  0  0  0  0  0  0  0  0  0  0  0
   29.0988    8.8261    3.6534 H   0  0  0  0  0  0  0  0  0  0  0  0
   27.5110    9.1995    2.9741 H   0  0  0  0  0  0  0  0  0  0  0  0
   28.1081    6.1074    4.8921 H   0  0  0  0  0  0  0  0  0  0  0  0
   28.9762    2.9119    3.9657 H   0  0  0  0  0  0  0  0  0  0  0  0
   28.0739    3.7829    5.2174 H   0  0  0  0  0  0  0  0  0  0  0  0
   27.2137    2.8481    3.9803 H   0  0  0  0  0  0  0  0  0  0  0  0
   30.5459    4.1518    1.6868 H   0  0  0  0  0  0  0  0  0  0  0  0
   32.4222    2.3501    0.9566 H   0  0  0  0  0  0  0  0  0  0  0  0
   32.3344   -2.5008   -0.9379 H   0  0  0  0  0  0  0  0  0  0  0  0
   30.3940   -4.2415   -1.6502 H   0  0  0  0  0  0  0  0  0  0  0  0
   27.1621   -2.8617   -4.0465 H   0  0  0  0  0  0  0  0  0  0  0  0
   28.0266   -3.8589   -5.2306 H   0  0  0  0  0  0  0  0  0  0  0  0
   28.9198   -2.9875   -3.9725 H   0  0  0  0  0  0  0  0  0  0  0  0
   27.9358   -6.1734   -4.8470 H   0  0  0  0  0  0  0  0  0  0  0  0
   28.5394   -8.6465   -4.2130 H   0  0  0  0  0  0  0  0  0  0  0  0
   27.8152   -9.2586   -2.7149 H   0  0  0  0  0  0  0  0  0  0  0  0
   26.7837   -8.6791   -4.0313 H   0  0  0  0  0  0  0  0  0  0  0  0
   27.5680   -7.7607   -0.8893 H   0  0  0  0  0  0  0  0  0  0  0  0
   26.6838   -4.8190    0.6966 H   0  0  0  0  0  0  0  0  0  0  0  0
   28.4427   -4.8576    0.8217 H   0  0  0  0  0  0  0  0  0  0  0  0
   27.5128   -6.3578    0.9886 H   0  0  0  0  0  0  0  0  0  0  0  0
   25.1898   -4.0626   -1.8385 H   0  0  0  0  0  0  0  0  0  0  0  0
   23.3195   -2.2317   -1.1577 H   0  0  0  0  0  0  0  0  0  0  0  0
   65.0373   -0.0203   -0.0355 Fe  0  0  0  0  0  0  0  0  0  0  0  0
   68.4361   -0.0341   -0.1614 C   0  0  0  0  0  0  0  0  0  0  0  0
   67.7706   -1.1905   -0.5135 C   0  0  0  0  0  0  0  0  0  0  0  0
   68.4311   -2.4048   -0.8886 C   0  0  0  0  0  0  0  0  0  0  0  0
   67.4598   -3.2921   -1.2091 C   0  0  0  0  0  0  0  0  0  0  0  0
   66.2078   -2.6147   -1.0357 C   0  0  0  0  0  0  0  0  0  0  0  0
   66.4105   -1.3339   -0.5968 N   0  0  0  0  0  0  0  0  0  0  0  0
   64.9786   -3.1815   -1.3434 C   0  0  0  0  0  0  0  0  0  0  0  0
   64.9505   -4.5744   -1.8714 C   0  0  0  0  0  0  0  0  0  0  0  0
   65.0708   -4.8055   -3.2446 C   0  0  0  0  0  0  0  0  0  0  0  0
   65.2322   -3.6455   -4.1905 C   0  0  0  0  0  0  0  0  0  0  0  0
   65.0391   -6.1104   -3.7224 C   0  0  0  0  0  0  0  0  0  0  0  0
   64.8916   -7.1866   -2.8534 C   0  0  0  0  0  0  0  0  0  0  0  0
   64.8366   -8.5937   -3.3840 C   0  0  0  0  0  0  0  0  0  0  0  0
   64.7738   -6.9443   -1.4885 C   0  0  0  0  0  0  0  0  0  0  0  0
   64.8019   -5.6479   -0.9884 C   0  0  0  0  0  0  0  0  0  0  0  0
   64.6738   -5.3924    0.4897 C   0  0  0  0  0  0  0  0  0  0  0  0
   63.7756   -2.5136   -1.1822 C   0  0  0  0  0  0  0  0  0  0  0  0
   62.5049   -3.0809   -1.5217 C   0  0  0  0  0  0  0  0  0  0  0  0
   61.5654   -2.1707   -1.1694 C   0  0  0  0  0  0  0  0  0  0  0  0
   63.6131   -1.2567   -0.6493 N   0  0  0  0  0  0  0  0  0  0  0  0
   62.2647   -1.0542   -0.6131 C   0  0  0  0  0  0  0  0  0  0  0  0
   61.6172    0.0527   -0.0530 C   0  0  0  0  0  0  0  0  0  0  0  0
   62.3084    1.1315    0.5101 C   0  0  0  0  0  0  0  0  0  0  0  0
   61.6551    2.2523    1.1117 C   0  0  0  0  0  0  0  0  0  0  0  0
   62.6295    3.1206    1.4750 C   0  0  0  0  0  0  0  0  0  0  0  0
   63.8750    2.5262    1.0911 C   0  0  0  0  0  0  0  0  0  0  0  0
   63.6620    1.2977    0.5122 N   0  0  0  0  0  0  0  0  0  0  0  0
   65.1008    3.1543    1.2402 C   0  0  0  0  0  0  0  0  0  0  0  0
   65.1295    4.5266    1.8197 C   0  0  0  0  0  0  0  0  0  0  0  0
   64.9798    5.6377    0.9838 C   0  0  0  0  0  0  0  0  0  0  0  0
   64.7909    5.4434   -0.4970 C   0  0  0  0  0  0  0  0  0  0  0  0
   65.0071    6.9132    1.5335 C   0  0  0  0  0  0  0  0  0  0  0  0
   65.1795    7.0989    2.9023 C   0  0  0  0  0  0  0  0  0  0  0  0
   65.2170    8.4902    3.4747 C   0  0  0  0  0  0  0  0  0  0  0  0
   65.3280    5.9868    3.7232 C   0  0  0  0  0  0  0  0  0  0  0  0
   65.3048    4.7006    3.1950 C   0  0  0  0  0  0  0  0  0  0  0  0
   65.4640    3.5007    4.0901 C   0  0  0  0  0  0  0  0  0  0  0  0
   66.3034    2.5675    0.8713 C   0  0  0  0  0  0  0  0  0  0  0  0
   67.5764    3.2131    1.0103 C   0  0  0  0  0  0  0  0  0  0  0  0
   68.5126    2.3197    0.6122 C   0  0  0  0  0  0  0  0  0  0  0  0
   67.8101    1.1302    0.2332 C   0  0  0  0  0  0  0  0  0  0  0  0
   66.4573    1.3027    0.3703 N   0  0  0  0  0  0  0  0  0  0  0  0
   69.5199   -0.0445   -0.1862 H   0  0  0  0  0  0  0  0  0  0  0  0
   69.5010   -2.5406   -0.8980 H   0  0  0  0  0  0  0  0  0  0  0  0
   67.5621   -4.3134   -1.5392 H   0  0  0  0  0  0  0  0  0  0  0  0
   66.1430   -3.0908   -3.9573 H   0  0  0  0  0  0  0  0  0  0  0  0
   64.3896   -2.9581   -4.0950 H   0  0  0  0  0  0  0  0  0  0  0  0
   65.2879   -3.9897   -5.2228 H   0  0  0  0  0  0  0  0  0  0  0  0
   65.1321   -6.2902   -4.7885 H   0  0  0  0  0  0  0  0  0  0  0  0
   65.2385   -9.2992   -2.6564 H   0  0  0  0  0  0  0  0  0  0  0  0
   63.8005   -8.8724   -3.5902 H   0  0  0  0  0  0  0  0  0  0  0  0
   65.4024   -8.6821   -4.3117 H   0  0  0  0  0  0  0  0  0  0  0  0
   64.6595   -7.7778   -0.8032 H   0  0  0  0  0  0  0  0  0  0  0  0
   63.7800   -4.8001    0.6949 H   0  0  0  0  0  0  0  0  0  0  0  0
   64.6061   -6.3290    1.0423 H   0  0  0  0  0  0  0  0  0  0  0  0
   65.5363   -4.8313    0.8541 H   0  0  0  0  0  0  0  0  0  0  0  0
   62.3667   -4.0527   -1.9673 H   0  0  0  0  0  0  0  0  0  0  0  0
   60.4933   -2.2376   -1.2622 H   0  0  0  0  0  0  0  0  0  0  0  0
   60.5877    2.3478    1.2306 H   0  0  0  0  0  0  0  0  0  0  0  0
   62.5309    4.0797    1.9572 H   0  0  0  0  0  0  0  0  0  0  0  0
   65.6264    4.8792   -0.9154 H   0  0  0  0  0  0  0  0  0  0  0  0
   64.7238    6.4023   -1.0100 H   0  0  0  0  0  0  0  0  0  0  0  0
   63.8770    4.8786   -0.6910 H   0  0  0  0  0  0  0  0  0  0  0  0
   64.8909    7.7763    0.8861 H   0  0  0  0  0  0  0  0  0  0  0  0
   64.3953    9.0894    3.0799 H   0  0  0  0  0  0  0  0  0  0  0  0
   65.1447    8.4678    4.5620 H   0  0  0  0  0  0  0  0  0  0  0  0
   66.1532    8.9820    3.2018 H   0  0  0  0  0  0  0  0  0  0  0  0
   65.4626    6.1212    4.7915 H   0  0  0  0  0  0  0  0  0  0  0  0
   66.3470    2.9274    3.8013 H   0  0  0  0  0  0  0  0  0  0  0  0
   64.5966    2.8439    4.0016 H   0  0  0  0  0  0  0  0  0  0  0  0
   65.5694    3.8031    5.1315 H   0  0  0  0  0  0  0  0  0  0  0  0
   67.7157    4.2194    1.3715 H   0  0  0  0  0  0  0  0  0  0  0  0
   69.5846    2.4330    0.5786 H   0  0  0  0  0  0  0  0  0  0  0  0
   32.6973   -0.0679   -0.0201 C   0  0  0  0  0  0  0  0  0  0  0  0
   33.9230   -0.0816   -0.0225 C   0  0  0  0  0  0  0  0  0  0  0  0
   35.2635   -0.0929   -0.0213 C   0  0  0  0  0  0  0  0  0  0  0  0
   36.4956   -0.0954   -0.0252 C   0  0  0  0  0  0  0  0  0  0  0  0
   37.8313   -0.0972   -0.0239 C   0  0  0  0  0  0  0  0  0  0  0  0
   39.0634   -0.0939   -0.0215 C   0  0  0  0  0  0  0  0  0  0  0  0
   40.4037   -0.0897   -0.0197 C   0  0  0  0  0  0  0  0  0  0  0  0
   41.6296   -0.0829   -0.0149 C   0  0  0  0  0  0  0  0  0  0  0  0
   51.2828    0.0642   -0.0208 C   0  0  0  0  0  0  0  0  0  0  0  0
   52.5085    0.0815   -0.0223 C   0  0  0  0  0  0  0  0  0  0  0  0
   53.8491    0.0944   -0.0221 C   0  0  0  0  0  0  0  0  0  0  0  0
   55.0810    0.1082   -0.0299 C   0  0  0  0  0  0  0  0  0  0  0  0
   56.4171    0.1082   -0.0332 C   0  0  0  0  0  0  0  0  0  0  0  0
   57.6489    0.1037   -0.0418 C   0  0  0  0  0  0  0  0  0  0  0  0
   58.9899    0.0933   -0.0437 C   0  0  0  0  0  0  0  0  0  0  0  0
   60.2153    0.0754   -0.0439 C   0  0  0  0  0  0  0  0  0  0  0  0
   46.4569   -0.0684   -0.0087 Fe  0  0  0  0  0  0  0  0  0  0  0  0
   43.0304   -0.0708   -0.0137 C   0  0  0  0  0  0  0  0  0  0  0  0
   43.6982    0.2091    1.1847 C   0  0  0  0  0  0  0  0  0  0  0  0
   43.0191    0.4737    2.4147 C   0  0  0  0  0  0  0  0  0  0  0  0
   43.9756    0.5957    3.3668 C   0  0  0  0  0  0  0  0  0  0  0  0
   45.2344    0.4085    2.7106 C   0  0  0  0  0  0  0  0  0  0  0  0
   45.0495    0.1977    1.3658 N   0  0  0  0  0  0  0  0  0  0  0  0
   46.4505    0.3987    3.3767 C   0  0  0  0  0  0  0  0  0  0  0  0
   46.4449    0.5651    4.8572 C   0  0  0  0  0  0  0  0  0  0  0  0
   46.5701    1.8393    5.4177 C   0  0  0  0  0  0  0  0  0  0  0  0
   46.7138    3.0423    4.5243 C   0  0  0  0  0  0  0  0  0  0  0  0
   46.5575    1.9804    6.8005 C   0  0  0  0  0  0  0  0  0  0  0  0
   46.4221    0.8729    7.6311 C   0  0  0  0  0  0  0  0  0  0  0  0
   46.4280    1.0347    9.1271 C   0  0  0  0  0  0  0  0  0  0  0  0
   46.3007   -0.3905    7.0613 C   0  0  0  0  0  0  0  0  0  0  0  0
   46.3096   -0.5559    5.6815 C   0  0  0  0  0  0  0  0  0  0  0  0
   46.1739   -1.9254    5.0715 C   0  0  0  0  0  0  0  0  0  0  0  0
   47.6701    0.2416    2.7358 C   0  0  0  0  0  0  0  0  0  0  0  0
   48.9278    0.2365    3.4202 C   0  0  0  0  0  0  0  0  0  0  0  0
   49.8879    0.1461    2.4681 C   0  0  0  0  0  0  0  0  0  0  0  0
   47.8600    0.1383    1.3793 N   0  0  0  0  0  0  0  0  0  0  0  0
   49.2120    0.0923    1.2096 C   0  0  0  0  0  0  0  0  0  0  0  0
   49.8817    0.0408   -0.0190 C   0  0  0  0  0  0  0  0  0  0  0  0
   49.2110   -0.0421   -1.2452 C   0  0  0  0  0  0  0  0  0  0  0  0
   49.8859   -0.0869   -2.5047 C   0  0  0  0  0  0  0  0  0  0  0  0
   48.9281   -0.2294   -3.4527 C   0  0  0  0  0  0  0  0  0  0  0  0
   47.6730   -0.2736   -2.7649 C   0  0  0  0  0  0  0  0  0  0  0  0
   47.8605   -0.1312   -1.4115 N   0  0  0  0  0  0  0  0  0  0  0  0
   46.4599   -0.4898   -3.4008 C   0  0  0  0  0  0  0  0  0  0  0  0
   46.4603   -0.6863   -4.8776 C   0  0  0  0  0  0  0  0  0  0  0  0
   46.2651    0.4088   -5.7244 C   0  0  0  0  0  0  0  0  0  0  0  0
   46.0591    1.7818   -5.1427 C   0  0  0  0  0  0  0  0  0  0  0  0
   46.2646    0.2151   -7.1006 C   0  0  0  0  0  0  0  0  0  0  0  0
   46.4532   -1.0514   -7.6447 C   0  0  0  0  0  0  0  0  0  0  0  0
   46.4687   -1.2440   -9.1370 C   0  0  0  0  0  0  0  0  0  0  0  0
   46.6473   -2.1330   -6.7919 C   0  0  0  0  0  0  0  0  0  0  0  0
   46.6529   -1.9633   -5.4123 C   0  0  0  0  0  0  0  0  0  0  0  0
   46.8600   -3.1387   -4.4950 C   0  0  0  0  0  0  0  0  0  0  0  0
   45.2455   -0.5318   -2.7326 C   0  0  0  0  0  0  0  0  0  0  0  0
   43.9929   -0.7730   -3.3831 C   0  0  0  0  0  0  0  0  0  0  0  0
   43.0331   -0.6564   -2.4335 C   0  0  0  0  0  0  0  0  0  0  0  0
   43.7042   -0.3458   -1.2101 C   0  0  0  0  0  0  0  0  0  0  0  0
   45.0538   -0.2885   -1.3945 N   0  0  0  0  0  0  0  0  0  0  0  0
   41.9486    0.5442    2.5208 H   0  0  0  0  0  0  0  0  0  0  0  0
   43.8557    0.7897    4.4203 H   0  0  0  0  0  0  0  0  0  0  0  0
   47.6168    2.9569    3.9169 H   0  0  0  0  0  0  0  0  0  0  0  0
   46.7735    3.9582    5.1114 H   0  0  0  0  0  0  0  0  0  0  0  0
   45.8616    3.1153    3.8462 H   0  0  0  0  0  0  0  0  0  0  0  0
   46.6523    2.9698    7.2359 H   0  0  0  0  0  0  0  0  0  0  0  0
   47.4437    0.9121    9.5102 H   0  0  0  0  0  0  0  0  0  0  0  0
   45.7950    0.2838    9.6008 H   0  0  0  0  0  0  0  0  0  0  0  0
   46.0747    2.0257    9.4128 H   0  0  0  0  0  0  0  0  0  0  0  0
   46.1949   -1.2601    7.7017 H   0  0  0  0  0  0  0  0  0  0  0  0
   45.2782   -1.9755    4.4495 H   0  0  0  0  0  0  0  0  0  0  0  0
   47.0338   -2.1448    4.4360 H   0  0  0  0  0  0  0  0  0  0  0  0
   46.1053   -2.6905    5.8442 H   0  0  0  0  0  0  0  0  0  0  0  0
   49.0444    0.2987    4.4901 H   0  0  0  0  0  0  0  0  0  0  0  0
   50.9587    0.1183    2.5904 H   0  0  0  0  0  0  0  0  0  0  0  0
   50.9547   -0.0213   -2.6301 H   0  0  0  0  0  0  0  0  0  0  0  0
   49.0450   -0.3048   -4.5217 H   0  0  0  0  0  0  0  0  0  0  0  0
   45.1680    1.7965   -4.5122 H   0  0  0  0  0  0  0  0  0  0  0  0
   45.9410    2.5247   -5.9309 H   0  0  0  0  0  0  0  0  0  0  0  0
   46.9117    2.0622   -4.5214 H   0  0  0  0  0  0  0  0  0  0  0  0
   46.1128    1.0646   -7.7584 H   0  0  0  0  0  0  0  0  0  0  0  0
   46.1405   -2.2491   -9.4028 H   0  0  0  0  0  0  0  0  0  0  0  0
   47.4830   -1.1057   -9.5187 H   0  0  0  0  0  0  0  0  0  0  0  0
   45.8200   -0.5188   -9.6289 H   0  0  0  0  0  0  0  0  0  0  0  0
   46.7946   -3.1246   -7.2072 H   0  0  0  0  0  0  0  0  0  0  0  0
   46.9762   -4.0606   -5.0639 H   0  0  0  0  0  0  0  0  0  0  0  0
   46.0089   -3.2478   -3.8202 H   0  0  0  0  0  0  0  0  0  0  0  0
   47.7526   -2.9899   -3.8844 H   0  0  0  0  0  0  0  0  0  0  0  0
   43.8790   -0.9986   -4.4310 H   0  0  0  0  0  0  0  0  0  0  0  0
   41.9653   -0.7639   -2.5369 H   0  0  0  0  0  0  0  0  0  0  0  0
  2  3  4  0  0  0  0
  3  4  4  0  0  0  0
  4  5  2  0  0  0  0
  5  6  4  0  0  0  0
  1  7  1  0  0  0  0
  3  7  4  0  0  0  0
  6  7  4  0  0  0  0
  6  8  4  0  0  0  0
  8  9  1  0  0  0  0
  9 10  4  0  0  0  0
 10 11  1  0  0  0  0
 10 12  4  0  0  0  0
 12 13  4  0  0  0  0
 13 14  1  0  0  0  0
 13 15  4  0  0  0  0
  9 16  4  0  0  0  0
 15 16  4  0  0  0  0
 16 17  1  0  0  0  0
  8 18  4  0  0  0  0
 18 19  4  0  0  0  0
 19 20  2  0  0  0  0
  1 21  1  0  0  0  0
 18 21  4  0  0  0  0
 20 22  4  0  0  0  0
 21 22  4  0  0  0  0
 22 23  4  0  0  0  0
 23 24  4  0  0  0  0
 24 25  4  0  0  0  0
 25 26  2  0  0  0  0
 26 27  4  0  0  0  0
  1 28  1  0  0  0  0
 24 28  4  0  0  0  0
 27 28  4  0  0  0  0
 27 29  4  0  0  0  0
 29 30  1  0  0  0  0
 30 31  4  0  0  0  0
 31 32  1  0  0  0  0
 31 33  4  0  0  0  0
 33 34  4  0  0  0  0
 34 35  1  0  0  0  0
 34 36  4  0  0  0  0
 30 37  4  0  0  0  0
 36 37  4  0  0  0  0
 37 38  1  0  0  0  0
 29 39  4  0  0  0  0
 39 40  4  0  0  0  0
 40 41  2  0  0  0  0
  2 42  4  0  0  0  0
 41 42  4  0  0  0  0
  1 43  1  0  0  0  0
 39 43  4  0  0  0  0
 42 43  4  0  0  0  0
  2 44  1  0  0  0  0
  4 45  1  0  0  0  0
  5 46  1  0  0  0  0
 11 47  1  0  0  0  0
 11 48  1  0  0  0  0
 11 49  1  0  0  0  0
 12 50  1  0  0  0  0
 14 51  1  0  0  0  0
 14 52  1  0  0  0  0
 14 53  1  0  0  0  0
 15 54  1  0  0  0  0
 17 55  1  0  0  0  0
 17 56  1  0  0  0  0
 17 57  1  0  0  0  0
 19 58  1  0  0  0  0
 20 59  1  0  0  0  0
 25 60  1  0  0  0  0
 26 61  1  0  0  0  0
 32 62  1  0  0  0  0
 32 63  1  0  0  0  0
 32 64  1  0  0  0  0
 33 65  1  0  0  0  0
 35 66  1  0  0  0  0
 35 67  1  0  0  0  0
 35 68  1  0  0  0  0
 36 69  1  0  0  0  0
 38 70  1  0  0  0  0
 38 71  1  0  0  0  0
 38 72  1  0  0  0  0
 40 73  1  0  0  0  0
 41 74  1  0  0  0  0
 76 77  4  0  0  0  0
 77 78  4  0  0  0  0
 78 79  2  0  0  0  0
 79 80  4  0  0  0  0
 75 81  1  0  0  0  0
 77 81  4  0  0  0  0
 80 81  4  0  0  0  0
 80 82  4  0  0  0  0
 82 83  1  0  0  0  0
 83 84  4  0  0  0  0
 84 85  1  0  0  0  0
 84 86  4  0  0  0  0
 86 87  4  0  0  0  0
 87 88  1  0  0  0  0
 87 89  4  0  0  0  0
 83 90  4  0  0  0  0
 89 90  4  0  0  0  0
 90 91  1  0  0  0  0
 82 92  4  0  0  0  0
 92 93  4  0  0  0  0
 93 94  2  0  0  0  0
 75 95  1  0  0  0  0
 92 95  4  0  0  0  0
 94 96  4  0  0  0  0
 95 96  4  0  0  0  0
 96 97  4  0  0  0  0
 97 98  4  0  0  0  0
 98 99  4  0  0  0  0
 99100  2  0  0  0  0
100101  4  0  0  0  0
 75102  1  0  0  0  0
 98102  4  0  0  0  0
101102  4  0  0  0  0
101103  4  0  0  0  0
103104  1  0  0  0  0
104105  4  0  0  0  0
105106  1  0  0  0  0
105107  4  0  0  0  0
107108  4  0  0  0  0
108109  1  0  0  0  0
108110  4  0  0  0  0
104111  4  0  0  0  0
110111  4  0  0  0  0
111112  1  0  0  0  0
103113  4  0  0  0  0
113114  4  0  0  0  0
114115  2  0  0  0  0
 76116  4  0  0  0  0
115116  4  0  0  0  0
 75117  1  0  0  0  0
113117  4  0  0  0  0
116117  4  0  0  0  0
 76118  1  0  0  0  0
 78119  1  0  0  0  0
 79120  1  0  0  0  0
 85121  1  0  0  0  0
 85122  1  0  0  0  0
 85123  1  0  0  0  0
 86124  1  0  0  0  0
 88125  1  0  0  0  0
 88126  1  0  0  0  0
 88127  1  0  0  0  0
 89128  1  0  0  0  0
 91129  1  0  0  0  0
 91130  1  0  0  0  0
 91131  1  0  0  0  0
 93132  1  0  0  0  0
 94133  1  0  0  0  0
 99134  1  0  0  0  0
100135  1  0  0  0  0
106136  1  0  0  0  0
106137  1  0  0  0  0
106138  1  0  0  0  0
107139  1  0  0  0  0
109140  1  0  0  0  0
109141  1  0  0  0  0
109142  1  0  0  0  0
110143  1  0  0  0  0
112144  1  0  0  0  0
112145  1  0  0  0  0
112146  1  0  0  0  0
114147  1  0  0  0  0
115148  1  0  0  0  0
 23149  4  0  0  0  0
149150  3  0  0  0  0
150151  4  0  0  0  0
151152  3  0  0  0  0
152153  4  0  0  0  0
153154  3  0  0  0  0
154155  4  0  0  0  0
155156  3  0  0  0  0
157158  3  0  0  0  0
158159  4  0  0  0  0
159160  3  0  0  0  0
160161  4  0  0  0  0
161162  3  0  0  0  0
162163  4  0  0  0  0
 97164  4  0  0  0  0
163164  3  0  0  0  0
156166  4  0  0  0  0
166167  4  0  0  0  0
167168  4  0  0  0  0
168169  2  0  0  0  0
169170  4  0  0  0  0
165171  1  0  0  0  0
167171  4  0  0  0  0
170171  4  0  0  0  0
170172  4  0  0  0  0
172173  1  0  0  0  0
173174  4  0  0  0  0
174175  1  0  0  0  0
174176  4  0  0  0  0
176177  4  0  0  0  0
177178  1  0  0  0  0
177179  4  0  0  0  0
173180  4  0  0  0  0
179180  4  0  0  0  0
180181  1  0  0  0  0
172182  4  0  0  0  0
182183  4  0  0  0  0
183184  2  0  0  0  0
165185  1  0  0  0  0
182185  4  0  0  0  0
184186  4  0  0  0  0
185186  4  0  0  0  0
157187  4  0  0  0  0
186187  4  0  0  0  0
187188  4  0  0  0  0
188189  4  0  0  0  0
189190  2  0  0  0  0
190191  4  0  0  0  0
165192  1  0  0  0  0
188192  4  0  0  0  0
191192  4  0  0  0  0
191193  4  0  0  0  0
193194  1  0  0  0  0
194195  4  0  0  0  0
195196  1  0  0  0  0
195197  4  0  0  0  0
197198  4  0  0  0  0
198199  1  0  0  0  0
198200  4  0  0  0  0
194201  4  0  0  0  0
200201  4  0  0  0  0
201202  1  0  0  0  0
193203  4  0  0  0  0
203204  4  0  0  0  0
204205  2  0  0  0  0
166206  4  0  0  0  0
205206  4  0  0  0  0
165207  1  0  0  0  0
203207  4  0  0  0  0
206207  4  0  0  0  0
168208  1  0  0  0  0
169209  1  0  0  0  0
175210  1  0  0  0  0
175211  1  0  0  0  0
175212  1  0  0  0  0
176213  1  0  0  0  0
178214  1  0  0  0  0
178215  1  0  0  0  0
178216  1  0  0  0  0
179217  1  0  0  0  0
181218  1  0  0  0  0
181219  1  0  0  0  0
181220  1  0  0  0  0
183221  1  0  0  0  0
184222  1  0  0  0  0
189223  1  0  0  0  0
190224  1  0  0  0  0
196225  1  0  0  0  0
196226  1  0  0  0  0
196227  1  0  0  0  0
197228  1  0  0  0  0
199229  1  0  0  0  0
199230  1  0  0  0  0
199231  1  0  0  0  0
200232  1  0  0  0  0
202233  1  0  0  0  0
202234  1  0  0  0  0
202235  1  0  0  0  0
204236  1  0  0  0  0
205237  1  0  0  0  0
M  END
