310

C 66.584876 0.017745 -0.121982
C 67.319632 -1.264492 -0.619469
C 66.724548 -2.357464 -1.206274
C 67.750007 -3.307855 -1.450583
C 68.936174 -2.763447 -0.997587
N 68.669685 -1.495471 -0.545877
C 70.353975 -3.470448 -0.973159
C 70.383164 -4.941267 -1.141546
C 70.677050 -5.512361 -2.387066
C 70.692654 -6.900405 -2.538602
C 70.412605 -7.716076 -1.438960
C 70.423834 -9.186329 -1.575491
O 70.661851 -9.759844 -2.632184
C 70.117922 -7.157001 -0.191520
C 70.103280 -5.769445 -0.047039
C 71.483905 -2.753343 -0.730887
C 72.784712 -3.383848 -0.635716
C 73.685974 -2.446933 -0.365258
N 71.681479 -1.415209 -0.515359
C 73.009351 -1.167710 -0.281672
C 73.675045 -0.013614 -0.010384
C 72.896942 1.367754 0.055717
C 73.439043 2.620330 -0.155488
C 72.412480 3.572669 0.062077
C 71.269247 2.874348 0.388038
N 71.560723 1.531697 0.329242
C 69.856873 3.500502 0.744088
C 69.816711 4.906439 1.200850
C 70.113566 5.229942 2.530619
C 70.085106 6.560570 2.954486
C 69.761158 7.567830 2.041457
C 69.726984 8.981525 2.466460
O 69.966306 9.343867 3.612687
C 69.463908 7.256837 0.710613
C 69.493270 5.925698 0.294048
C 68.732109 2.750231 0.616132
C 67.407457 3.257865 0.927915
C 66.522918 2.296657 0.679275
C 67.247638 1.141356 0.210366
N 68.570133 1.457410 0.204102
H 65.505395 -0.016213 -0.035129
H 65.672065 -2.465735 -1.419222
H 67.630872 -4.288761 -1.885279
H 69.363907 -0.831792 -0.210656
H 70.896704 -4.860522 -3.230484
H 70.924168 -7.333394 -3.507634
H 70.201033 -9.758168 -0.659315
H 69.899682 -7.776670 0.671959
H 69.878045 -5.313290 0.915246
H 72.997278 -4.431287 -0.752992
H 74.737246 -2.629311 -0.237065
H 74.463491 2.830451 -0.422904
H 72.500481 4.646258 -0.006836
H 70.877513 0.784012 0.419302
H 70.363421 4.432472 3.227790
H 70.315100 6.800424 3.988574
H 69.469978 9.715147 1.683689
H 69.208841 8.027376 -0.010165
H 69.262262 5.660295 -0.736565
H 67.175364 4.239589 1.299293
H 65.458043 2.359974 0.808883
C 117.166677 0.022199 -0.120633
C 116.431922 1.365037 0.176709
C 117.027005 2.599943 0.294747
C 116.001546 3.526230 0.618665
C 114.815379 2.821977 0.693587
N 115.081868 1.516399 0.366067
C 113.397578 3.396682 1.106094
C 113.368389 4.713871 1.781870
C 113.074503 5.879951 1.062338
C 113.058899 7.118922 1.706218
C 113.338948 7.187609 3.073629
C 113.327719 8.486658 3.775597
O 113.089702 9.550007 3.214519
C 113.633631 6.030466 3.801426
C 113.648273 4.795815 3.151947
C 112.267648 2.665628 0.909888
C 110.966841 3.137443 1.338823
C 110.065579 2.207864 1.044137
N 112.070074 1.432689 0.346937
C 110.742202 1.097130 0.404084
C 110.076508 -0.013614 -0.010384
C 110.854611 -1.199638 -0.721647
C 110.312510 -2.124676 -1.592197
C 111.339073 -3.037748 -1.939448
C 112.482307 -2.637530 -1.280868
N 112.190830 -1.487773 -0.585003
C 113.894680 -3.356021 -1.331953
C 113.934842 -4.779192 -1.731799
C 113.637987 -5.785999 -0.804826
C 113.666447 -7.128262 -1.190266
C 113.990395 -7.459877 -2.508684
C 114.024569 -8.871886 -2.939257
O 113.785247 -9.809196 -2.186544
C 114.287645 -6.462883 -3.443491
C 114.258283 -5.124245 -3.051692
C 115.019444 -2.660785 -1.022234
C 116.344096 -3.256109 -1.044409
C 117.228635 -2.318419 -0.718094
C 116.503915 -1.097051 -0.467386
N 115.181420 -1.356546 -0.647917
H 118.246158 0.002275 -0.029531
H 118.079488 2.808154 0.177624
H 116.120681 4.583517 0.801099
H 114.387646 0.778239 0.276835
H 112.854849 5.805448 -0.001005
H 112.827385 8.016720 1.140127
H 113.550520 8.454239 4.855100
H 113.851871 6.067074 4.863615
H 113.873508 3.882483 3.699573
H 110.754275 4.074011 1.822271
H 109.014307 2.288500 1.251966
H 109.288062 -2.151166 -1.931255
H 111.251072 -3.892792 -2.592319
H 112.874040 -0.915624 -0.095319
H 113.388132 -5.509200 0.217616
H 113.436453 -7.901452 -0.462911
H 114.281575 -9.048077 -3.997505
H 114.542712 -6.704179 -4.470637
H 114.489292 -4.331725 -3.761984
H 116.576189 -4.278952 -1.279980
H 118.293510 -2.442996 -0.645377
C 75.500626 -0.013614 -0.010384
C 76.722544 -0.013614 -0.010384
C 86.010087 -0.013614 -0.010384
C 87.232005 -0.013614 -0.010384
C 96.519548 -0.013614 -0.010384
C 97.741466 -0.013614 -0.010384
C 107.029009 -0.013614 -0.010384
C 108.250927 -0.013614 -0.010384
C 77.769378 0.009832 0.007500
C 78.554086 0.879224 -1.059395
C 78.012553 1.476060 -2.172738
C 79.051600 2.173532 -2.835143
C 80.202784 1.977982 -2.111231
N 79.901027 1.151749 -1.054724
C 81.621136 2.594484 -2.447237
C 81.658810 3.775016 -3.346267
C 81.883797 3.619735 -4.719263
C 81.926492 4.734284 -5.560613
C 81.738916 6.009500 -5.024466
C 81.781926 7.202786 -5.894345
O 81.943222 7.140821 -7.107609
C 81.507183 6.178220 -3.656789
C 81.467597 5.059710 -2.821426
C 82.751975 2.074297 -1.900406
C 84.058193 2.624127 -2.194912
C 84.969691 1.921805 -1.532426
N 82.951147 1.031507 -1.033976
C 84.291564 0.888788 -0.774915
C 84.973657 0.009832 0.007500
C 84.197558 -1.099151 0.842986
C 84.776702 -2.111333 1.586466
C 83.735506 -2.836144 2.210806
C 82.543228 -2.248103 1.833523
N 82.832384 -1.212767 0.974395
C 81.109235 -2.681709 2.341193
C 81.046365 -3.777972 3.335345
C 80.922142 -5.100275 2.888392
C 80.889330 -6.149194 3.805950
C 80.966920 -5.868869 5.175114
C 80.920529 -6.993273 6.129696
O 80.988858 -6.843172 7.343501
C 81.081208 -4.553183 5.632735
C 81.125924 -3.507724 4.708383
C 79.980412 -2.088521 1.876381
C 78.672410 -2.452926 2.379305
C 77.765179 -1.705665 1.764850
C 78.444934 -0.846907 0.817249
N 79.784234 -1.112412 0.939358
H 76.981290 1.422589 -2.477328
H 78.965863 2.755863 -3.737869
H 80.573681 0.764197 -0.403674
H 82.032540 2.621528 -5.119905
H 82.109118 4.600623 -6.621856
H 81.653645 8.176902 -5.391115
H 81.356840 7.162181 -3.226290
H 81.294268 5.171540 -1.751829
H 84.270657 3.455734 -2.841058
H 86.026622 2.108356 -1.570225
H 85.832872 -2.303209 1.690684
H 83.847486 -3.680813 2.878207
H 82.143519 -0.614990 0.521321
H 80.851394 -5.290447 1.817572
H 80.803946 -7.166054 3.436545
H 80.819338 -7.998621 5.688027
H 81.136694 -4.336648 6.696327
H 81.219021 -2.476978 5.041096
H 78.459877 -3.192255 3.130119
H 76.707898 -1.757587 1.947147
C 88.278839 0.009832 0.007500
C 89.063547 0.879224 -1.059395
C 88.522013 1.476060 -2.172738
C 89.561061 2.173532 -2.835143
C 90.712245 1.977982 -2.111231
N 90.410487 1.151749 -1.054724
C 92.130597 2.594484 -2.447237
C 92.168271 3.775016 -3.346267
C 92.393258 3.619735 -4.719263
C 92.435953 4.734284 -5.560613
C 92.248377 6.009500 -5.024466
C 92.291387 7.202786 -5.894345
O 92.452682 7.140821 -7.107609
C 92.016644 6.178220 -3.656789
C 91.977058 5.059710 -2.821426
C 93.261436 2.074297 -1.900406
C 94.567654 2.624127 -2.194912
C 95.479152 1.921805 -1.532426
N 93.460608 1.031507 -1.033976
C 94.801024 0.888788 -0.774915
C 95.483118 0.009832 0.007500
C 94.707019 -1.099151 0.842986
C 95.286163 -2.111333 1.586466
C 94.244967 -2.836144 2.210806
C 93.052689 -2.248103 1.833523
N 93.341845 -1.212767 0.974395
C 91.618696 -2.681709 2.341193
C 91.555825 -3.777972 3.335345
C 91.431603 -5.100275 2.888392
C 91.398791 -6.149194 3.805950
C 91.476381 -5.868869 5.175114
C 91.429990 -6.993273 6.129696
O 91.498318 -6.843172 7.343501
C 91.590669 -4.553183 5.632735
C 91.635385 -3.507724 4.708383
C 90.489873 -2.088521 1.876381
C 89.181871 -2.452926 2.379305
C 88.274639 -1.705665 1.764850
C 88.954395 -0.846907 0.817249
N 90.293695 -1.112412 0.939358
H 87.490751 1.422589 -2.477328
H 89.475324 2.755863 -3.737869
H 91.083142 0.764197 -0.403674
H 92.542001 2.621528 -5.119905
H 92.618579 4.600623 -6.621856
H 92.163106 8.176902 -5.391115
H 91.866301 7.162181 -3.226290
H 91.803728 5.171540 -1.751829
H 94.780118 3.455734 -2.841058
H 96.536083 2.108356 -1.570225
H 96.342333 -2.303209 1.690684
H 94.356947 -3.680813 2.878207
H 92.652980 -0.614990 0.521321
H 91.360855 -5.290447 1.817572
H 91.313407 -7.166054 3.436545
H 91.328799 -7.998621 5.688027
H 91.646155 -4.336648 6.696327
H 91.728482 -2.476978 5.041096
H 88.969338 -3.192255 3.130119
H 87.217359 -1.757587 1.947147
C 98.788299 0.009832 0.007500
C 99.573008 0.879224 -1.059395
C 99.031474 1.476060 -2.172738
C 100.070522 2.173532 -2.835143
C 101.221706 1.977982 -2.111231
N 100.919948 1.151749 -1.054724
C 102.640058 2.594484 -2.447237
C 102.677732 3.775016 -3.346267
C 102.902719 3.619735 -4.719263
C 102.945414 4.734284 -5.560613
C 102.757838 6.009500 -5.024466
C 102.800848 7.202786 -5.894345
O 102.962143 7.140821 -7.107609
C 102.526105 6.178220 -3.656789
C 102.486519 5.059710 -2.821426
C 103.770897 2.074297 -1.900406
C 105.077115 2.624127 -2.194912
C 105.988613 1.921805 -1.532426
N 103.970068 1.031507 -1.033976
C 105.310485 0.888788 -0.774915
C 105.992579 0.009832 0.007500
C 105.216480 -1.099151 0.842986
C 105.795624 -2.111333 1.586466
C 104.754428 -2.836144 2.210806
C 103.562149 -2.248103 1.833523
N 103.851306 -1.212767 0.974395
C 102.128157 -2.681709 2.341193
C 102.065286 -3.777972 3.335345
C 101.941063 -5.100275 2.888392
C 101.908252 -6.149194 3.805950
C 101.985842 -5.868869 5.175114
C 101.939450 -6.993273 6.129696
O 102.007779 -6.843172 7.343501
C 102.100130 -4.553183 5.632735
C 102.144846 -3.507724 4.708383
C 100.999334 -2.088521 1.876381
C 99.691331 -2.452926 2.379305
C 98.784100 -1.705665 1.764850
C 99.463856 -0.846907 0.817249
N 100.803156 -1.112412 0.939358
H 98.000212 1.422589 -2.477328
H 99.984785 2.755863 -3.737869
H 101.592603 0.764197 -0.403674
H 103.051462 2.621528 -5.119905
H 103.128040 4.600623 -6.621856
H 102.672567 8.176902 -5.391115
H 102.375762 7.162181 -3.226290
H 102.313189 5.171540 -1.751829
H 105.289579 3.455734 -2.841058
H 107.045544 2.108356 -1.570225
H 106.851794 -2.303209 1.690684
H 104.866408 -3.680813 2.878207
H 103.162441 -0.614990 0.521321
H 101.870316 -5.290447 1.817572
H 101.822867 -7.166054 3.436545
H 101.838260 -7.998621 5.688027
H 102.155615 -4.336648 6.696327
H 102.237943 -2.476978 5.041096
H 99.478799 -3.192255 3.130119
H 97.726820 -1.757587 1.947147
