 xtb: 6.5.1 (b24c23e)
          07302203313D

310344  0     0  0            999 V2000
   66.7168   -0.0434   -0.0690 C   0  0  0  0  0  0  0  0  0  0  0  0
   67.3197   -1.2895   -0.1804 C   0  0  0  0  0  0  0  0  0  0  0  0
   66.6614   -2.5431   -0.3254 C   0  0  0  0  0  0  0  0  0  0  0  0
   67.6182   -3.5158   -0.3953 C   0  0  0  0  0  0  0  0  0  0  0  0
   68.8922   -2.8886   -0.2822 C   0  0  0  0  0  0  0  0  0  0  0  0
   68.6614   -1.5477   -0.1651 N   0  0  0  0  0  0  0  0  0  0  0  0
   70.1531   -3.4953   -0.3086 C   0  0  0  0  0  0  0  0  0  0  0  0
   70.1809   -4.9717   -0.4309 C   0  0  0  0  0  0  0  0  0  0  0  0
   70.8093   -5.5770   -1.5239 C   0  0  0  0  0  0  0  0  0  0  0  0
   70.8357   -6.9531   -1.6400 C   0  0  0  0  0  0  0  0  0  0  0  0
   70.2384   -7.7575   -0.6636 C   0  0  0  0  0  0  0  0  0  0  0  0
   70.2853   -9.2240   -0.8079 C   0  0  0  0  0  0  0  0  0  0  0  0
   70.8159   -9.7887   -1.7299 O   0  0  0  0  0  0  0  0  0  0  0  0
   69.6110   -7.1544    0.4290 C   0  0  0  0  0  0  0  0  0  0  0  0
   69.5803   -5.7757    0.5419 C   0  0  0  0  0  0  0  0  0  0  0  0
   71.3725   -2.8167   -0.2303 C   0  0  0  0  0  0  0  0  0  0  0  0
   72.6654   -3.4767   -0.1931 C   0  0  0  0  0  0  0  0  0  0  0  0
   73.5909   -2.4986   -0.1157 C   0  0  0  0  0  0  0  0  0  0  0  0
   71.5341   -1.4676   -0.1553 N   0  0  0  0  0  0  0  0  0  0  0  0
   72.8633   -1.2442   -0.0956 C   0  0  0  0  0  0  0  0  0  0  0  0
   73.5058    0.0084   -0.0514 C   0  0  0  0  0  0  0  0  0  0  0  0
   72.8770    1.2668   -0.0210 C   0  0  0  0  0  0  0  0  0  0  0  0
   73.5268    2.5293    0.0026 C   0  0  0  0  0  0  0  0  0  0  0  0
   72.5651    3.4995    0.0577 C   0  0  0  0  0  0  0  0  0  0  0  0
   71.2962    2.8571    0.0837 C   0  0  0  0  0  0  0  0  0  0  0  0
   71.5363    1.5103    0.0215 N   0  0  0  0  0  0  0  0  0  0  0  0
   70.0366    3.4648    0.1389 C   0  0  0  0  0  0  0  0  0  0  0  0
   70.0143    4.9426    0.2315 C   0  0  0  0  0  0  0  0  0  0  0  0
   70.6248    5.5944    1.3080 C   0  0  0  0  0  0  0  0  0  0  0  0
   70.6062    6.9730    1.3913 C   0  0  0  0  0  0  0  0  0  0  0  0
   69.9809    7.7339    0.3978 C   0  0  0  0  0  0  0  0  0  0  0  0
   69.9825    9.2041    0.5059 C   0  0  0  0  0  0  0  0  0  0  0  0
   70.5060    9.8078    1.4072 O   0  0  0  0  0  0  0  0  0  0  0  0
   69.3701    7.0845   -0.6778 C   0  0  0  0  0  0  0  0  0  0  0  0
   69.3850    5.7035   -0.7582 C   0  0  0  0  0  0  0  0  0  0  0  0
   68.8159    2.7813    0.1193 C   0  0  0  0  0  0  0  0  0  0  0  0
   67.5154    3.4224    0.2409 C   0  0  0  0  0  0  0  0  0  0  0  0
   66.5973    2.4372    0.1825 C   0  0  0  0  0  0  0  0  0  0  0  0
   67.3357    1.1949    0.0367 C   0  0  0  0  0  0  0  0  0  0  0  0
   68.6690    1.4399    0.0126 N   0  0  0  0  0  0  0  0  0  0  0  0
   65.6315   -0.0474   -0.0675 H   0  0  0  0  0  0  0  0  0  0  0  0
   65.5918   -2.6694   -0.3766 H   0  0  0  0  0  0  0  0  0  0  0  0
   67.4614   -4.5746   -0.5230 H   0  0  0  0  0  0  0  0  0  0  0  0
   69.3908   -0.8472   -0.0845 H   0  0  0  0  0  0  0  0  0  0  0  0
   71.2621   -4.9561   -2.2887 H   0  0  0  0  0  0  0  0  0  0  0  0
   71.3169   -7.4297   -2.4873 H   0  0  0  0  0  0  0  0  0  0  0  0
   69.7870   -9.7794    0.0151 H   0  0  0  0  0  0  0  0  0  0  0  0
   69.1486   -7.7708    1.1933 H   0  0  0  0  0  0  0  0  0  0  0  0
   69.1061   -5.3121    1.3997 H   0  0  0  0  0  0  0  0  0  0  0  0
   72.8224   -4.5429   -0.2101 H   0  0  0  0  0  0  0  0  0  0  0  0
   74.6638   -2.5930   -0.0750 H   0  0  0  0  0  0  0  0  0  0  0  0
   74.5952    2.6698   -0.0209 H   0  0  0  0  0  0  0  0  0  0  0  0
   72.7190    4.5661    0.0712 H   0  0  0  0  0  0  0  0  0  0  0  0
   70.8100    0.8017    0.0113 H   0  0  0  0  0  0  0  0  0  0  0  0
   71.0972    5.0078    2.0879 H   0  0  0  0  0  0  0  0  0  0  0  0
   71.0728    7.4851    2.2260 H   0  0  0  0  0  0  0  0  0  0  0  0
   69.4564    9.7232   -0.3234 H   0  0  0  0  0  0  0  0  0  0  0  0
   68.8855    7.6671   -1.4546 H   0  0  0  0  0  0  0  0  0  0  0  0
   68.9236    5.2035   -1.6023 H   0  0  0  0  0  0  0  0  0  0  0  0
   67.3527    4.4805    0.3682 H   0  0  0  0  0  0  0  0  0  0  0  0
   65.5227    2.5112    0.2387 H   0  0  0  0  0  0  0  0  0  0  0  0
  117.0151    0.0168    0.0277 C   0  0  0  0  0  0  0  0  0  0  0  0
  116.4143    1.2497    0.2456 C   0  0  0  0  0  0  0  0  0  0  0  0
  117.0759    2.4945    0.4439 C   0  0  0  0  0  0  0  0  0  0  0  0
  116.1212    3.4550    0.6237 C   0  0  0  0  0  0  0  0  0  0  0  0
  114.8451    2.8262    0.5501 C   0  0  0  0  0  0  0  0  0  0  0  0
  115.0729    1.5005    0.3138 N   0  0  0  0  0  0  0  0  0  0  0  0
  113.5856    3.4265    0.6585 C   0  0  0  0  0  0  0  0  0  0  0  0
  113.5617    4.8810    0.9396 C   0  0  0  0  0  0  0  0  0  0  0  0
  112.9616    5.7685    0.0409 C   0  0  0  0  0  0  0  0  0  0  0  0
  112.9364    7.1233    0.3099 C   0  0  0  0  0  0  0  0  0  0  0  0
  113.5064    7.6225    1.4858 C   0  0  0  0  0  0  0  0  0  0  0  0
  113.4601    9.0715    1.7540 C   0  0  0  0  0  0  0  0  0  0  0  0
  112.9542    9.8738    1.0118 O   0  0  0  0  0  0  0  0  0  0  0  0
  114.1069    6.7373    2.3841 C   0  0  0  0  0  0  0  0  0  0  0  0
  114.1368    5.3813    2.1115 C   0  0  0  0  0  0  0  0  0  0  0  0
  112.3651    2.7572    0.5305 C   0  0  0  0  0  0  0  0  0  0  0  0
  111.0695    3.3913    0.7000 C   0  0  0  0  0  0  0  0  0  0  0  0
  110.1454    2.4256    0.5203 C   0  0  0  0  0  0  0  0  0  0  0  0
  112.2064    1.4314    0.2713 N   0  0  0  0  0  0  0  0  0  0  0  0
  110.8768    1.2015    0.2535 C   0  0  0  0  0  0  0  0  0  0  0  0
  110.2377   -0.0339    0.0414 C   0  0  0  0  0  0  0  0  0  0  0  0
  110.8614   -1.2749   -0.1747 C   0  0  0  0  0  0  0  0  0  0  0  0
  110.2057   -2.5082   -0.4341 C   0  0  0  0  0  0  0  0  0  0  0  0
  111.1639   -3.4645   -0.6242 C   0  0  0  0  0  0  0  0  0  0  0  0
  112.4364   -2.8458   -0.4750 C   0  0  0  0  0  0  0  0  0  0  0  0
  112.2016   -1.5235   -0.2078 N   0  0  0  0  0  0  0  0  0  0  0  0
  113.6955   -3.4410   -0.6116 C   0  0  0  0  0  0  0  0  0  0  0  0
  113.7198   -4.8905   -0.9137 C   0  0  0  0  0  0  0  0  0  0  0  0
  113.1414   -5.8121   -0.0351 C   0  0  0  0  0  0  0  0  0  0  0  0
  113.1613   -7.1622   -0.3271 C   0  0  0  0  0  0  0  0  0  0  0  0
  113.7554   -7.6230   -1.5068 C   0  0  0  0  0  0  0  0  0  0  0  0
  113.7560   -9.0678   -1.7996 C   0  0  0  0  0  0  0  0  0  0  0  0
  113.2619   -9.8967   -1.0788 O   0  0  0  0  0  0  0  0  0  0  0  0
  114.3346   -6.7037   -2.3850 C   0  0  0  0  0  0  0  0  0  0  0  0
  114.3187   -5.3524   -2.0896 C   0  0  0  0  0  0  0  0  0  0  0  0
  114.9160   -2.7672   -0.4896 C   0  0  0  0  0  0  0  0  0  0  0  0
  116.2181   -3.4123   -0.5649 C   0  0  0  0  0  0  0  0  0  0  0  0
  117.1358   -2.4421   -0.3818 C   0  0  0  0  0  0  0  0  0  0  0  0
  116.3959   -1.2072   -0.1876 C   0  0  0  0  0  0  0  0  0  0  0  0
  115.0622   -1.4429   -0.2510 N   0  0  0  0  0  0  0  0  0  0  0  0
  118.1005    0.0196    0.0270 H   0  0  0  0  0  0  0  0  0  0  0  0
  118.1462    2.6250    0.4404 H   0  0  0  0  0  0  0  0  0  0  0  0
  116.2805    4.5091    0.7829 H   0  0  0  0  0  0  0  0  0  0  0  0
  114.3414    0.8071    0.1981 H   0  0  0  0  0  0  0  0  0  0  0  0
  112.5299    5.3863   -0.8771 H   0  0  0  0  0  0  0  0  0  0  0  0
  112.4766    7.8186   -0.3842 H   0  0  0  0  0  0  0  0  0  0  0  0
  113.9345    9.3728    2.7123 H   0  0  0  0  0  0  0  0  0  0  0  0
  114.5484    7.1154    3.3005 H   0  0  0  0  0  0  0  0  0  0  0  0
  114.5897    4.6954    2.8187 H   0  0  0  0  0  0  0  0  0  0  0  0
  110.9098    4.4300    0.9395 H   0  0  0  0  0  0  0  0  0  0  0  0
  109.0714    2.5059    0.5719 H   0  0  0  0  0  0  0  0  0  0  0  0
  109.1361   -2.6357   -0.4797 H   0  0  0  0  0  0  0  0  0  0  0  0
  111.0054   -4.5042   -0.8594 H   0  0  0  0  0  0  0  0  0  0  0  0
  112.9311   -0.8305   -0.0762 H   0  0  0  0  0  0  0  0  0  0  0  0
  112.6934   -5.4608    0.8876 H   0  0  0  0  0  0  0  0  0  0  0  0
  112.7194   -7.8836    0.3518 H   0  0  0  0  0  0  0  0  0  0  0  0
  114.2541   -9.3392   -2.7547 H   0  0  0  0  0  0  0  0  0  0  0  0
  114.7949   -7.0519   -3.3039 H   0  0  0  0  0  0  0  0  0  0  0  0
  114.7552   -4.6402   -2.7807 H   0  0  0  0  0  0  0  0  0  0  0  0
  116.3820   -4.4665   -0.7195 H   0  0  0  0  0  0  0  0  0  0  0  0
  118.2113   -2.5237   -0.3667 H   0  0  0  0  0  0  0  0  0  0  0  0
   74.9160    0.0184   -0.0382 C   0  0  0  0  0  0  0  0  0  0  0  0
   76.1326    0.0295   -0.0224 C   0  0  0  0  0  0  0  0  0  0  0  0
   85.8131    0.0237    0.0248 C   0  0  0  0  0  0  0  0  0  0  0  0
   87.0306    0.0147    0.0272 C   0  0  0  0  0  0  0  0  0  0  0  0
   96.7153   -0.0458    0.0088 C   0  0  0  0  0  0  0  0  0  0  0  0
   97.9335   -0.0516    0.0072 C   0  0  0  0  0  0  0  0  0  0  0  0
  107.6096   -0.0472    0.0377 C   0  0  0  0  0  0  0  0  0  0  0  0
  108.8254   -0.0426    0.0417 C   0  0  0  0  0  0  0  0  0  0  0  0
   77.5419    0.0345   -0.0083 C   0  0  0  0  0  0  0  0  0  0  0  0
   78.1702    1.1479   -0.5966 C   0  0  0  0  0  0  0  0  0  0  0  0
   77.5278    2.2338   -1.2455 C   0  0  0  0  0  0  0  0  0  0  0  0
   78.4942    3.1087   -1.6609 C   0  0  0  0  0  0  0  0  0  0  0  0
   79.7562    2.5846   -1.2698 C   0  0  0  0  0  0  0  0  0  0  0  0
   79.5107    1.3928   -0.6431 N   0  0  0  0  0  0  0  0  0  0  0  0
   81.0168    3.1566   -1.4840 C   0  0  0  0  0  0  0  0  0  0  0  0
   81.0382    4.4841   -2.1416 C   0  0  0  0  0  0  0  0  0  0  0  0
   81.7076    4.6557   -3.3577 C   0  0  0  0  0  0  0  0  0  0  0  0
   81.7275    5.8909   -3.9757 C   0  0  0  0  0  0  0  0  0  0  0  0
   81.0834    6.9858   -3.3899 C   0  0  0  0  0  0  0  0  0  0  0  0
   81.1244    8.2950   -4.0672 C   0  0  0  0  0  0  0  0  0  0  0  0
   81.6873    8.4884   -5.1141 O   0  0  0  0  0  0  0  0  0  0  0  0
   80.4165    6.8168   -2.1742 C   0  0  0  0  0  0  0  0  0  0  0  0
   80.3919    5.5779   -1.5586 C   0  0  0  0  0  0  0  0  0  0  0  0
   82.2396    2.5795   -1.1349 C   0  0  0  0  0  0  0  0  0  0  0  0
   83.5202    3.2467   -1.2867 C   0  0  0  0  0  0  0  0  0  0  0  0
   84.4572    2.3742   -0.8617 C   0  0  0  0  0  0  0  0  0  0  0  0
   82.4184    1.3391   -0.6039 N   0  0  0  0  0  0  0  0  0  0  0  0
   83.7488    1.1790   -0.4490 C   0  0  0  0  0  0  0  0  0  0  0  0
   84.4055    0.0256    0.0242 C   0  0  0  0  0  0  0  0  0  0  0  0
   83.7760   -1.1402    0.5011 C   0  0  0  0  0  0  0  0  0  0  0  0
   84.4173   -2.3316    0.9272 C   0  0  0  0  0  0  0  0  0  0  0  0
   83.4505   -3.2064    1.3416 C   0  0  0  0  0  0  0  0  0  0  0  0
   82.1891   -2.5704    1.1851 C   0  0  0  0  0  0  0  0  0  0  0  0
   82.4353   -1.3311    0.6585 N   0  0  0  0  0  0  0  0  0  0  0  0
   80.9291   -3.0981    1.4952 C   0  0  0  0  0  0  0  0  0  0  0  0
   80.9147   -4.4367    2.1301 C   0  0  0  0  0  0  0  0  0  0  0  0
   80.2514   -5.5033    1.5165 C   0  0  0  0  0  0  0  0  0  0  0  0
   80.2432   -6.7556    2.1044 C   0  0  0  0  0  0  0  0  0  0  0  0
   80.8950   -6.9659    3.3220 C   0  0  0  0  0  0  0  0  0  0  0  0
   80.9034   -8.2907    3.9693 C   0  0  0  0  0  0  0  0  0  0  0  0
   81.4606   -8.5214    5.0118 O   0  0  0  0  0  0  0  0  0  0  0  0
   81.5550   -5.8980    3.9389 C   0  0  0  0  0  0  0  0  0  0  0  0
   81.5670   -4.6490    3.3489 C   0  0  0  0  0  0  0  0  0  0  0  0
   79.7052   -2.4689    1.2579 C   0  0  0  0  0  0  0  0  0  0  0  0
   78.4229   -3.0119    1.6693 C   0  0  0  0  0  0  0  0  0  0  0  0
   77.4856   -2.1386    1.2469 C   0  0  0  0  0  0  0  0  0  0  0  0
   78.1961   -1.0616    0.5861 C   0  0  0  0  0  0  0  0  0  0  0  0
   79.5275   -1.2771    0.6257 N   0  0  0  0  0  0  0  0  0  0  0  0
   76.4627    2.3228   -1.3846 H   0  0  0  0  0  0  0  0  0  0  0  0
   78.3472    4.0293   -2.2015 H   0  0  0  0  0  0  0  0  0  0  0  0
   80.2287    0.7766   -0.2769 H   0  0  0  0  0  0  0  0  0  0  0  0
   82.1972    3.8062   -3.8201 H   0  0  0  0  0  0  0  0  0  0  0  0
   82.2396    6.0302   -4.9217 H   0  0  0  0  0  0  0  0  0  0  0  0
   80.5861    9.1041   -3.5291 H   0  0  0  0  0  0  0  0  0  0  0  0
   79.9181    7.6618   -1.7104 H   0  0  0  0  0  0  0  0  0  0  0  0
   79.8863    5.4547   -0.6074 H   0  0  0  0  0  0  0  0  0  0  0  0
   83.6608    4.2518   -1.6496 H   0  0  0  0  0  0  0  0  0  0  0  0
   85.5252    2.5099   -0.8086 H   0  0  0  0  0  0  0  0  0  0  0  0
   85.4818   -2.4977    0.9058 H   0  0  0  0  0  0  0  0  0  0  0  0
   83.5969   -4.2084    1.7103 H   0  0  0  0  0  0  0  0  0  0  0  0
   81.7179   -0.6562    0.4159 H   0  0  0  0  0  0  0  0  0  0  0  0
   79.7570   -5.3468    0.5644 H   0  0  0  0  0  0  0  0  0  0  0  0
   79.7315   -7.5792    1.6174 H   0  0  0  0  0  0  0  0  0  0  0  0
   80.3521   -9.0758    3.4094 H   0  0  0  0  0  0  0  0  0  0  0  0
   82.0536   -6.0688    4.8870 H   0  0  0  0  0  0  0  0  0  0  0  0
   82.0673   -3.8204    3.8375 H   0  0  0  0  0  0  0  0  0  0  0  0
   78.2813   -3.9263    2.2222 H   0  0  0  0  0  0  0  0  0  0  0  0
   76.4164   -2.1886    1.3735 H   0  0  0  0  0  0  0  0  0  0  0  0
   88.4378    0.0095    0.0254 C   0  0  0  0  0  0  0  0  0  0  0  0
   89.0704    0.9286   -0.8338 C   0  0  0  0  0  0  0  0  0  0  0  0
   88.4353    1.8095   -1.7464 C   0  0  0  0  0  0  0  0  0  0  0  0
   89.4049    2.5639   -2.3489 C   0  0  0  0  0  0  0  0  0  0  0  0
   90.6612    2.1694   -1.8142 C   0  0  0  0  0  0  0  0  0  0  0  0
   90.4103    1.1640   -0.9197 N   0  0  0  0  0  0  0  0  0  0  0  0
   91.9205    2.7027   -2.1174 C   0  0  0  0  0  0  0  0  0  0  0  0
   91.9471    3.8546   -3.0477 C   0  0  0  0  0  0  0  0  0  0  0  0
   92.6766    3.7799   -4.2390 C   0  0  0  0  0  0  0  0  0  0  0  0
   92.7037    4.8517   -5.1097 C   0  0  0  0  0  0  0  0  0  0  0  0
   92.0060    6.0262   -4.8086 C   0  0  0  0  0  0  0  0  0  0  0  0
   92.0572    7.1585   -5.7522 C   0  0  0  0  0  0  0  0  0  0  0  0
   92.6809    7.1416   -6.7821 O   0  0  0  0  0  0  0  0  0  0  0  0
   91.2781    6.1032   -3.6189 C   0  0  0  0  0  0  0  0  0  0  0  0
   91.2474    5.0275   -2.7494 C   0  0  0  0  0  0  0  0  0  0  0  0
   93.1390    2.2373   -1.6174 C   0  0  0  0  0  0  0  0  0  0  0  0
   94.4132    2.8901   -1.8573 C   0  0  0  0  0  0  0  0  0  0  0  0
   95.3502    2.1290   -1.2547 C   0  0  0  0  0  0  0  0  0  0  0  0
   93.3201    1.1239   -0.8559 N   0  0  0  0  0  0  0  0  0  0  0  0
   94.6489    1.0155   -0.6489 C   0  0  0  0  0  0  0  0  0  0  0  0
   95.3082   -0.0398    0.0137 C   0  0  0  0  0  0  0  0  0  0  0  0
   94.6719   -1.1011    0.6876 C   0  0  0  0  0  0  0  0  0  0  0  0
   95.3013   -2.2133    1.3021 C   0  0  0  0  0  0  0  0  0  0  0  0
   94.3314   -2.9708    1.9003 C   0  0  0  0  0  0  0  0  0  0  0  0
   93.0798   -2.3381    1.6713 C   0  0  0  0  0  0  0  0  0  0  0  0
   93.3332   -1.2267    0.9137 N   0  0  0  0  0  0  0  0  0  0  0  0
   91.8228   -2.7509    2.1339 C   0  0  0  0  0  0  0  0  0  0  0  0
   91.8054   -3.9236    3.0380 C   0  0  0  0  0  0  0  0  0  0  0  0
   91.0670   -5.0628    2.7037 C   0  0  0  0  0  0  0  0  0  0  0  0
   91.0534   -6.1618    3.5439 C   0  0  0  0  0  0  0  0  0  0  0  0
   91.7758   -6.1429    4.7393 C   0  0  0  0  0  0  0  0  0  0  0  0
   91.7818   -7.3018    5.6515 C   0  0  0  0  0  0  0  0  0  0  0  0
   92.4014   -7.3359    6.6834 O   0  0  0  0  0  0  0  0  0  0  0  0
   92.5113   -5.0020    5.0769 C   0  0  0  0  0  0  0  0  0  0  0  0
   92.5278   -3.9065    4.2357 C   0  0  0  0  0  0  0  0  0  0  0  0
   90.6044   -2.1487    1.8136 C   0  0  0  0  0  0  0  0  0  0  0  0
   89.3305   -2.5381    2.3910 C   0  0  0  0  0  0  0  0  0  0  0  0
   88.3932   -1.7669    1.8017 C   0  0  0  0  0  0  0  0  0  0  0  0
   89.0956   -0.9054    0.8719 C   0  0  0  0  0  0  0  0  0  0  0  0
   90.4232   -1.1371    0.9209 N   0  0  0  0  0  0  0  0  0  0  0  0
   87.3732    1.8482   -1.9244 H   0  0  0  0  0  0  0  0  0  0  0  0
   89.2636    3.3179   -3.1058 H   0  0  0  0  0  0  0  0  0  0  0  0
   91.1246    0.6640   -0.4013 H   0  0  0  0  0  0  0  0  0  0  0  0
   93.2076    2.8663   -4.4814 H   0  0  0  0  0  0  0  0  0  0  0  0
   93.2630    4.7992   -6.0377 H   0  0  0  0  0  0  0  0  0  0  0  0
   91.4686    8.0450   -5.4337 H   0  0  0  0  0  0  0  0  0  0  0  0
   90.7376    7.0121   -3.3751 H   0  0  0  0  0  0  0  0  0  0  0  0
   90.6953    5.0980   -1.8188 H   0  0  0  0  0  0  0  0  0  0  0  0
   94.5491    3.8147   -2.3944 H   0  0  0  0  0  0  0  0  0  0  0  0
   96.4134    2.2949   -1.1980 H   0  0  0  0  0  0  0  0  0  0  0  0
   96.3599   -2.4115    1.2765 H   0  0  0  0  0  0  0  0  0  0  0  0
   94.4693   -3.8928    2.4407 H   0  0  0  0  0  0  0  0  0  0  0  0
   92.6223   -0.5892    0.5711 H   0  0  0  0  0  0  0  0  0  0  0  0
   90.5180   -5.0866    1.7692 H   0  0  0  0  0  0  0  0  0  0  0  0
   90.4825   -7.0438    3.2726 H   0  0  0  0  0  0  0  0  0  0  0  0
   91.1615   -8.1566    5.3074 H   0  0  0  0  0  0  0  0  0  0  0  0
   93.0649   -4.9938    6.0098 H   0  0  0  0  0  0  0  0  0  0  0  0
   93.0865   -3.0183    4.5089 H   0  0  0  0  0  0  0  0  0  0  0  0
   89.1947   -3.2848    3.1564 H   0  0  0  0  0  0  0  0  0  0  0  0
   87.3296   -1.7524    1.9763 H   0  0  0  0  0  0  0  0  0  0  0  0
   99.3408   -0.0511    0.0072 C   0  0  0  0  0  0  0  0  0  0  0  0
   99.9732    0.8313   -0.8908 C   0  0  0  0  0  0  0  0  0  0  0  0
   99.3400    1.6610   -1.8512 C   0  0  0  0  0  0  0  0  0  0  0  0
  100.3068    2.4044   -2.4711 C   0  0  0  0  0  0  0  0  0  0  0  0
  101.5607    2.0532   -1.9014 C   0  0  0  0  0  0  0  0  0  0  0  0
  101.3109    1.0828   -0.9685 N   0  0  0  0  0  0  0  0  0  0  0  0
  102.8158    2.5901   -2.2149 C   0  0  0  0  0  0  0  0  0  0  0  0
  102.8348    3.7022   -3.1928 C   0  0  0  0  0  0  0  0  0  0  0  0
  103.5631    3.5844   -4.3810 C   0  0  0  0  0  0  0  0  0  0  0  0
  103.5778    4.6188   -5.2964 C   0  0  0  0  0  0  0  0  0  0  0  0
  102.8693    5.7981   -5.0434 C   0  0  0  0  0  0  0  0  0  0  0  0
  102.9037    6.8885   -6.0360 C   0  0  0  0  0  0  0  0  0  0  0  0
  103.5147    6.8293   -7.0720 O   0  0  0  0  0  0  0  0  0  0  0  0
  102.1439    5.9188   -3.8558 C   0  0  0  0  0  0  0  0  0  0  0  0
  102.1246    4.8800   -2.9422 C   0  0  0  0  0  0  0  0  0  0  0  0
  104.0352    2.1568   -1.6882 C   0  0  0  0  0  0  0  0  0  0  0  0
  105.3116    2.7925   -1.9648 C   0  0  0  0  0  0  0  0  0  0  0  0
  106.2490    2.0587   -1.3304 C   0  0  0  0  0  0  0  0  0  0  0  0
  104.2138    1.0837   -0.8726 N   0  0  0  0  0  0  0  0  0  0  0  0
  105.5436    0.9825   -0.6624 C   0  0  0  0  0  0  0  0  0  0  0  0
  106.1986   -0.0492    0.0337 C   0  0  0  0  0  0  0  0  0  0  0  0
  105.5728   -1.0968    0.7325 C   0  0  0  0  0  0  0  0  0  0  0  0
  106.2159   -2.1610    1.4165 C   0  0  0  0  0  0  0  0  0  0  0  0
  105.2510   -2.9067    2.0370 C   0  0  0  0  0  0  0  0  0  0  0  0
  103.9905   -2.3110    1.7580 C   0  0  0  0  0  0  0  0  0  0  0  0
  104.2334   -1.2373    0.9459 N   0  0  0  0  0  0  0  0  0  0  0  0
  102.7343   -2.7125    2.2309 C   0  0  0  0  0  0  0  0  0  0  0  0
  102.7170   -3.8428    3.1878 C   0  0  0  0  0  0  0  0  0  0  0  0
  101.9932   -5.0031    2.8971 C   0  0  0  0  0  0  0  0  0  0  0  0
  101.9764   -6.0612    3.7882 C   0  0  0  0  0  0  0  0  0  0  0  0
  102.6799   -5.9787    4.9922 C   0  0  0  0  0  0  0  0  0  0  0  0
  102.6786   -7.0911    5.9605 C   0  0  0  0  0  0  0  0  0  0  0  0
  103.2780   -7.0679    7.0047 O   0  0  0  0  0  0  0  0  0  0  0  0
  103.4012   -4.8167    5.2856 C   0  0  0  0  0  0  0  0  0  0  0  0
  103.4218   -3.7625    4.3933 C   0  0  0  0  0  0  0  0  0  0  0  0
  101.5147   -2.1279    1.8826 C   0  0  0  0  0  0  0  0  0  0  0  0
  100.2426   -2.4941    2.4786 C   0  0  0  0  0  0  0  0  0  0  0  0
   99.3041   -1.7458    1.8626 C   0  0  0  0  0  0  0  0  0  0  0  0
  100.0026   -0.9237    0.8953 C   0  0  0  0  0  0  0  0  0  0  0  0
  101.3305   -1.1532    0.9502 N   0  0  0  0  0  0  0  0  0  0  0  0
   98.2812    1.6734   -2.0494 H   0  0  0  0  0  0  0  0  0  0  0  0
  100.1659    3.1226   -3.2621 H   0  0  0  0  0  0  0  0  0  0  0  0
  102.0240    0.6180   -0.4168 H   0  0  0  0  0  0  0  0  0  0  0  0
  104.1021    2.6665   -4.5863 H   0  0  0  0  0  0  0  0  0  0  0  0
  104.1351    4.5323   -6.2229 H   0  0  0  0  0  0  0  0  0  0  0  0
  102.3149    7.7854   -5.7490 H   0  0  0  0  0  0  0  0  0  0  0  0
  101.5952    6.8320   -3.6492 H   0  0  0  0  0  0  0  0  0  0  0  0
  101.5724    4.9834   -2.0147 H   0  0  0  0  0  0  0  0  0  0  0  0
  105.4482    3.6860   -2.5520 H   0  0  0  0  0  0  0  0  0  0  0  0
  107.3159    2.2113   -1.3001 H   0  0  0  0  0  0  0  0  0  0  0  0
  107.2810   -2.3279    1.4282 H   0  0  0  0  0  0  0  0  0  0  0  0
  105.3977   -3.7945    2.6300 H   0  0  0  0  0  0  0  0  0  0  0  0
  103.5164   -0.6259    0.5699 H   0  0  0  0  0  0  0  0  0  0  0  0
  101.4573   -5.0752    1.9574 H   0  0  0  0  0  0  0  0  0  0  0  0
  101.4166   -6.9601    3.5511 H   0  0  0  0  0  0  0  0  0  0  0  0
  102.0737   -7.9683    5.6471 H   0  0  0  0  0  0  0  0  0  0  0  0
  103.9399   -4.7590    6.2254 H   0  0  0  0  0  0  0  0  0  0  0  0
  103.9686   -2.8572    4.6321 H   0  0  0  0  0  0  0  0  0  0  0  0
  100.1090   -3.2102    3.2731 H   0  0  0  0  0  0  0  0  0  0  0  0
   98.2418   -1.7223    2.0421 H   0  0  0  0  0  0  0  0  0  0  0  0
  1  2  4  0  0  0  0
  2  3  4  0  0  0  0
  3  4  2  0  0  0  0
  4  5  4  0  0  0  0
  2  6  4  0  0  0  0
  5  6  4  0  0  0  0
  5  7  4  0  0  0  0
  7  8  1  0  0  0  0
  8  9  4  0  0  0  0
  9 10  4  0  0  0  0
 10 11  4  0  0  0  0
 11 12  1  0  0  0  0
 12 13  2  0  0  0  0
 11 14  4  0  0  0  0
  8 15  4  0  0  0  0
 14 15  4  0  0  0  0
  7 16  4  0  0  0  0
 16 17  1  0  0  0  0
 17 18  2  0  0  0  0
 16 19  4  0  0  0  0
 18 20  1  0  0  0  0
 19 20  4  0  0  0  0
 20 21  4  0  0  0  0
 21 22  4  0  0  0  0
 22 23  4  0  0  0  0
 23 24  2  0  0  0  0
 24 25  4  0  0  0  0
 22 26  4  0  0  0  0
 25 26  4  0  0  0  0
 25 27  4  0  0  0  0
 27 28  1  0  0  0  0
 28 29  4  0  0  0  0
 29 30  4  0  0  0  0
 30 31  4  0  0  0  0
 31 32  1  0  0  0  0
 32 33  2  0  0  0  0
 31 34  4  0  0  0  0
 28 35  4  0  0  0  0
 34 35  4  0  0  0  0
 27 36  4  0  0  0  0
 36 37  1  0  0  0  0
 37 38  2  0  0  0  0
  1 39  4  0  0  0  0
 38 39  1  0  0  0  0
 36 40  4  0  0  0  0
 39 40  4  0  0  0  0
  1 41  1  0  0  0  0
  3 42  1  0  0  0  0
  4 43  1  0  0  0  0
  6 44  1  0  0  0  0
  9 45  1  0  0  0  0
 10 46  1  0  0  0  0
 12 47  1  0  0  0  0
 14 48  1  0  0  0  0
 15 49  1  0  0  0  0
 17 50  1  0  0  0  0
 18 51  1  0  0  0  0
 23 52  1  0  0  0  0
 24 53  1  0  0  0  0
 26 54  1  0  0  0  0
 29 55  1  0  0  0  0
 30 56  1  0  0  0  0
 32 57  1  0  0  0  0
 34 58  1  0  0  0  0
 35 59  1  0  0  0  0
 37 60  1  0  0  0  0
 38 61  1  0  0  0  0
 62 63  4  0  0  0  0
 63 64  4  0  0  0  0
 64 65  2  0  0  0  0
 65 66  4  0  0  0  0
 63 67  4  0  0  0  0
 66 67  4  0  0  0  0
 66 68  4  0  0  0  0
 68 69  1  0  0  0  0
 69 70  4  0  0  0  0
 70 71  4  0  0  0  0
 71 72  4  0  0  0  0
 72 73  1  0  0  0  0
 73 74  2  0  0  0  0
 72 75  4  0  0  0  0
 69 76  4  0  0  0  0
 75 76  4  0  0  0  0
 68 77  4  0  0  0  0
 77 78  1  0  0  0  0
 78 79  2  0  0  0  0
 77 80  4  0  0  0  0
 79 81  1  0  0  0  0
 80 81  4  0  0  0  0
 81 82  4  0  0  0  0
 82 83  4  0  0  0  0
 83 84  4  0  0  0  0
 84 85  2  0  0  0  0
 85 86  4  0  0  0  0
 83 87  4  0  0  0  0
 86 87  4  0  0  0  0
 86 88  4  0  0  0  0
 88 89  1  0  0  0  0
 89 90  4  0  0  0  0
 90 91  4  0  0  0  0
 91 92  4  0  0  0  0
 92 93  1  0  0  0  0
 93 94  2  0  0  0  0
 92 95  4  0  0  0  0
 89 96  4  0  0  0  0
 95 96  4  0  0  0  0
 88 97  4  0  0  0  0
 97 98  1  0  0  0  0
 98 99  2  0  0  0  0
 62100  4  0  0  0  0
 99100  1  0  0  0  0
 97101  4  0  0  0  0
100101  4  0  0  0  0
 62102  1  0  0  0  0
 64103  1  0  0  0  0
 65104  1  0  0  0  0
 67105  1  0  0  0  0
 70106  1  0  0  0  0
 71107  1  0  0  0  0
 73108  1  0  0  0  0
 75109  1  0  0  0  0
 76110  1  0  0  0  0
 78111  1  0  0  0  0
 79112  1  0  0  0  0
 84113  1  0  0  0  0
 85114  1  0  0  0  0
 87115  1  0  0  0  0
 90116  1  0  0  0  0
 91117  1  0  0  0  0
 93118  1  0  0  0  0
 95119  1  0  0  0  0
 96120  1  0  0  0  0
 98121  1  0  0  0  0
 99122  1  0  0  0  0
 21123  4  0  0  0  0
123124  3  0  0  0  0
125126  3  0  0  0  0
127128  3  0  0  0  0
 82130  1  0  0  0  0
129130  3  0  0  0  0
124131  4  0  0  0  0
131132  4  0  0  0  0
132133  4  0  0  0  0
133134  2  0  0  0  0
134135  4  0  0  0  0
132136  4  0  0  0  0
135136  4  0  0  0  0
135137  4  0  0  0  0
137138  1  0  0  0  0
138139  4  0  0  0  0
139140  4  0  0  0  0
140141  4  0  0  0  0
141142  1  0  0  0  0
142143  2  0  0  0  0
141144  4  0  0  0  0
138145  4  0  0  0  0
144145  4  0  0  0  0
137146  4  0  0  0  0
146147  1  0  0  0  0
147148  2  0  0  0  0
146149  4  0  0  0  0
148150  1  0  0  0  0
149150  4  0  0  0  0
125151  4  0  0  0  0
150151  4  0  0  0  0
151152  4  0  0  0  0
152153  4  0  0  0  0
153154  2  0  0  0  0
154155  4  0  0  0  0
152156  4  0  0  0  0
155156  4  0  0  0  0
155157  4  0  0  0  0
157158  1  0  0  0  0
158159  4  0  0  0  0
159160  4  0  0  0  0
160161  4  0  0  0  0
161162  1  0  0  0  0
162163  2  0  0  0  0
161164  4  0  0  0  0
158165  4  0  0  0  0
164165  4  0  0  0  0
157166  4  0  0  0  0
166167  1  0  0  0  0
167168  2  0  0  0  0
131169  4  0  0  0  0
168169  1  0  0  0  0
166170  4  0  0  0  0
169170  4  0  0  0  0
133171  1  0  0  0  0
134172  1  0  0  0  0
136173  1  0  0  0  0
139174  1  0  0  0  0
140175  1  0  0  0  0
142176  1  0  0  0  0
144177  1  0  0  0  0
145178  1  0  0  0  0
147179  1  0  0  0  0
148180  1  0  0  0  0
153181  1  0  0  0  0
154182  1  0  0  0  0
156183  1  0  0  0  0
159184  1  0  0  0  0
160185  1  0  0  0  0
162186  1  0  0  0  0
164187  1  0  0  0  0
165188  1  0  0  0  0
167189  1  0  0  0  0
168190  1  0  0  0  0
126191  4  0  0  0  0
191192  4  0  0  0  0
192193  4  0  0  0  0
193194  2  0  0  0  0
194195  4  0  0  0  0
192196  4  0  0  0  0
195196  4  0  0  0  0
195197  4  0  0  0  0
197198  1  0  0  0  0
198199  4  0  0  0  0
199200  4  0  0  0  0
200201  4  0  0  0  0
201202  1  0  0  0  0
202203  2  0  0  0  0
201204  4  0  0  0  0
198205  4  0  0  0  0
204205  4  0  0  0  0
197206  4  0  0  0  0
206207  1  0  0  0  0
207208  2  0  0  0  0
206209  4  0  0  0  0
208210  1  0  0  0  0
209210  4  0  0  0  0
127211  4  0  0  0  0
210211  4  0  0  0  0
211212  4  0  0  0  0
212213  4  0  0  0  0
213214  2  0  0  0  0
214215  4  0  0  0  0
212216  4  0  0  0  0
215216  4  0  0  0  0
215217  4  0  0  0  0
217218  1  0  0  0  0
218219  4  0  0  0  0
219220  4  0  0  0  0
220221  4  0  0  0  0
221222  1  0  0  0  0
222223  2  0  0  0  0
221224  4  0  0  0  0
218225  4  0  0  0  0
224225  4  0  0  0  0
217226  4  0  0  0  0
226227  1  0  0  0  0
227228  2  0  0  0  0
191229  4  0  0  0  0
228229  1  0  0  0  0
226230  4  0  0  0  0
229230  4  0  0  0  0
193231  1  0  0  0  0
194232  1  0  0  0  0
196233  1  0  0  0  0
199234  1  0  0  0  0
200235  1  0  0  0  0
202236  1  0  0  0  0
204237  1  0  0  0  0
205238  1  0  0  0  0
207239  1  0  0  0  0
208240  1  0  0  0  0
213241  1  0  0  0  0
214242  1  0  0  0  0
216243  1  0  0  0  0
219244  1  0  0  0  0
220245  1  0  0  0  0
222246  1  0  0  0  0
224247  1  0  0  0  0
225248  1  0  0  0  0
227249  1  0  0  0  0
228250  1  0  0  0  0
128251  4  0  0  0  0
251252  4  0  0  0  0
252253  4  0  0  0  0
253254  2  0  0  0  0
254255  4  0  0  0  0
252256  4  0  0  0  0
255256  4  0  0  0  0
255257  4  0  0  0  0
257258  1  0  0  0  0
258259  4  0  0  0  0
259260  4  0  0  0  0
260261  4  0  0  0  0
261262  1  0  0  0  0
262263  2  0  0  0  0
261264  4  0  0  0  0
258265  4  0  0  0  0
264265  4  0  0  0  0
257266  4  0  0  0  0
266267  1  0  0  0  0
267268  2  0  0  0  0
266269  4  0  0  0  0
268270  1  0  0  0  0
269270  4  0  0  0  0
129271  1  0  0  0  0
270271  4  0  0  0  0
271272  4  0  0  0  0
272273  4  0  0  0  0
273274  2  0  0  0  0
274275  4  0  0  0  0
272276  4  0  0  0  0
275276  4  0  0  0  0
275277  4  0  0  0  0
277278  1  0  0  0  0
278279  4  0  0  0  0
279280  4  0  0  0  0
280281  4  0  0  0  0
281282  1  0  0  0  0
282283  2  0  0  0  0
281284  4  0  0  0  0
278285  4  0  0  0  0
284285  4  0  0  0  0
277286  4  0  0  0  0
286287  1  0  0  0  0
287288  2  0  0  0  0
251289  4  0  0  0  0
288289  1  0  0  0  0
286290  4  0  0  0  0
289290  4  0  0  0  0
253291  1  0  0  0  0
254292  1  0  0  0  0
256293  1  0  0  0  0
259294  1  0  0  0  0
260295  1  0  0  0  0
262296  1  0  0  0  0
264297  1  0  0  0  0
265298  1  0  0  0  0
267299  1  0  0  0  0
268300  1  0  0  0  0
273301  1  0  0  0  0
274302  1  0  0  0  0
276303  1  0  0  0  0
279304  1  0  0  0  0
280305  1  0  0  0  0
282306  1  0  0  0  0
284307  1  0  0  0  0
285308  1  0  0  0  0
287309  1  0  0  0  0
288310  1  0  0  0  0
M  END
