276

C 40.534822 0.051334 0.102083
C 41.264086 -1.315179 -0.078972
C 40.660925 -2.552038 -0.105766
C 41.683103 -3.507209 -0.343204
C 42.875730 -2.819463 -0.460618
N 42.614592 -1.489549 -0.244557
C 44.295065 -3.435144 -0.806634
C 44.326768 -4.823697 -1.318363
C 44.121978 -5.075246 -2.681718
C 44.113319 -6.384899 -3.162492
C 44.308913 -7.440537 -2.267677
S 44.203958 -9.113059 -2.832744
O 43.616762 -9.116512 -4.157567
O 43.072337 -9.764282 -1.878698
O 45.460100 -9.773195 -2.553340
C 44.524740 -7.204599 -0.906299
C 44.535633 -5.892183 -0.435524
C 45.426374 -2.692764 -0.675051
C 46.727911 -3.208842 -1.046364
C 47.631262 -2.258674 -0.835062
N 45.625140 -1.413287 -0.229547
C 46.955772 -1.092773 -0.300660
C 47.624376 0.043846 0.029750
C 46.847422 1.279595 0.650570
C 47.382620 2.247094 1.477996
C 46.357349 3.184802 1.757021
C 45.223294 2.758952 1.098544
N 45.516326 1.569493 0.474581
C 43.817077 3.492139 1.080065
C 43.798177 4.949007 1.331361
C 44.175755 5.837586 0.316252
C 44.211154 7.210161 0.560799
C 43.863557 7.687942 1.828539
S 44.027711 9.416289 2.167218
O 42.966895 10.119502 1.481867
O 45.430382 9.815833 1.468276
O 44.262212 9.579214 3.587617
C 43.475552 6.815249 2.848836
C 43.442619 5.444109 2.594229
C 42.689518 2.782456 0.819954
C 41.370683 3.387972 0.771224
C 40.482784 2.433184 0.509448
C 41.200580 1.189605 0.372353
N 42.521626 1.452206 0.556804
H 39.457618 0.072314 -0.012042
H 39.605760 -2.742494 0.016695
H 41.557545 -4.574730 -0.440321
H 43.312945 -0.750737 -0.209276
H 43.964951 -4.234686 -3.355507
H 43.944363 -6.562265 -4.220776
H 42.197146 -9.535570 -2.253434
H 44.680719 -8.025923 -0.212348
H 44.700750 -5.680985 0.619678
H 46.938759 -4.187828 -1.438190
H 48.683694 -2.362638 -1.026513
H 48.400821 2.281261 1.835626
H 46.438946 4.071293 2.367299
H 44.835502 0.972249 0.012243
H 44.447966 5.440545 -0.660308
H 44.512564 7.887187 -0.233802
H 46.156033 9.497032 2.043596
H 43.211944 7.181279 3.837204
H 43.150536 4.741562 3.373226
H 41.143786 4.428484 0.917689
H 39.420216 2.560197 0.408495
C 98.494870 -0.000969 0.087019
C 97.765606 1.252506 0.660550
C 98.368766 2.314139 1.295747
C 97.346589 3.249278 1.602739
C 96.153961 2.729343 1.137498
N 96.415099 1.488239 0.613078
C 94.734627 3.434751 1.171971
C 94.702924 4.882777 1.477208
C 94.907713 5.820960 0.456509
C 94.916372 7.185707 0.745991
C 94.720778 7.603675 2.065221
S 94.825733 9.320538 2.476334
O 95.412930 10.028136 1.356302
O 95.957354 9.364540 3.630612
O 93.569591 9.730930 3.064062
C 94.504952 6.679764 3.092550
C 94.494059 5.317996 2.793130
C 93.603318 2.736110 0.888524
C 92.301781 3.370630 0.848597
C 91.398429 2.453630 0.522133
N 93.404551 1.415677 0.585226
C 92.073919 1.182088 0.354525
C 91.405315 0.043846 0.029750
C 92.182269 -1.332809 -0.101831
C 91.647071 -2.592202 0.084226
C 92.672342 -3.534673 -0.178262
C 93.806398 -2.823816 -0.509354
N 93.513365 -1.484688 -0.405057
C 95.212614 -3.434855 -0.914985
C 95.231514 -4.802206 -1.477095
C 94.853936 -5.014723 -2.809332
C 94.818537 -6.307103 -3.332322
C 95.166135 -7.386004 -2.512923
S 95.001980 -9.029723 -3.145436
O 96.062797 -9.260670 -4.099835
O 93.599309 -8.996292 -3.949823
O 94.767479 -9.923200 -2.029293
C 95.554140 -7.189697 -1.184743
C 95.587072 -5.893182 -0.671035
C 96.340173 -2.695537 -0.757768
C 97.659009 -3.182373 -1.121108
C 98.546907 -2.234613 -0.834929
C 97.829111 -1.108621 -0.289562
N 96.508066 -1.429103 -0.273045
H 99.572074 0.041968 -0.020782
H 99.423931 2.410281 1.500751
H 97.472146 4.204919 2.088314
H 95.716746 0.843843 0.249980
H 95.064741 5.467556 -0.561155
H 95.085329 7.898803 -0.055830
H 96.832545 9.370187 3.191632
H 94.348972 7.006153 4.117055
H 94.328941 4.577888 3.574347
H 92.090932 4.408054 1.037518
H 90.345997 2.643500 0.415310
H 90.628871 -2.811359 0.368895
H 92.590745 -4.609967 -0.132999
H 94.194189 -0.733020 -0.478893
H 94.581725 -4.159073 -3.425103
H 94.517128 -6.457765 -4.365306
H 92.873658 -9.032342 -3.293067
H 95.817747 -8.025368 -0.542478
H 95.879156 -5.712609 0.362310
H 97.885906 -4.141391 -1.550529
H 99.609475 -2.288472 -0.987975
C 53.951484 0.044948 0.038240
C 52.742545 0.031493 0.029793
C 51.321016 0.040313 0.017810
C 50.109347 0.047751 0.028673
C 55.368089 0.038273 0.038773
C 56.588784 0.047751 0.028673
C 70.118690 0.044948 0.038240
C 68.909750 0.031493 0.029793
C 67.488221 0.040313 0.017810
C 66.276552 0.047751 0.028673
C 71.535294 0.038273 0.038773
C 72.755990 0.047751 0.028673
C 86.285895 0.044948 0.038240
C 85.076956 0.031493 0.029793
C 83.655427 0.040313 0.017810
C 82.443757 0.047751 0.028673
C 87.702499 0.038273 0.038773
C 88.923195 0.047751 0.028673
C 57.925521 -0.051246 -0.034247
C 58.722699 0.417390 -1.319452
C 58.226183 0.534635 -2.601515
C 59.265874 1.061013 -3.410937
C 60.365058 1.242894 -2.598194
N 60.047852 0.775700 -1.347869
C 61.750869 1.878950 -3.016811
C 61.737218 2.899541 -4.087367
C 62.060569 2.548974 -5.405286
C 62.012648 3.506085 -6.418183
C 61.646706 4.818552 -6.102145
S 61.512220 6.000021 -7.411985
O 60.900690 7.204882 -6.888626
O 60.393190 5.355703 -8.384426
O 62.764649 6.033084 -8.131668
C 61.338586 5.187508 -4.789874
C 61.381285 4.221089 -3.784807
C 62.888611 1.532083 -2.361885
C 64.173975 2.117451 -2.680869
C 65.085449 1.592135 -1.869074
N 63.100601 0.654035 -1.336291
C 64.425478 0.647083 -0.991090
C 65.090918 -0.051246 -0.034247
C 64.296477 -1.054155 0.900274
C 64.803179 -2.172884 1.528737
C 63.764619 -2.713229 2.331196
C 62.653928 -1.913755 2.158077
N 62.966664 -0.953430 1.229129
C 61.264249 -2.061052 2.900209
C 61.270845 -2.675860 4.246269
C 60.866579 -4.007127 4.418381
C 60.852325 -4.578532 5.690128
C 61.252743 -3.811083 6.788572
S 61.123834 -4.509514 8.408366
O 62.126953 -5.542039 8.540887
O 59.669976 -5.218411 8.406636
O 61.006283 -3.427805 9.364578
C 61.672225 -2.487302 6.631750
C 61.682579 -1.924077 5.355396
C 60.126157 -1.584746 2.329963
C 58.838530 -1.651407 2.990745
C 57.928360 -1.102885 2.192808
C 58.590007 -0.658733 0.983343
N 59.915270 -0.970880 1.127211
H 57.223509 0.288541 -2.916429
H 59.211700 1.296847 -4.462504
H 60.703582 0.666545 -0.579805
H 62.345947 1.521756 -5.624825
H 62.257998 3.222314 -7.438114
H 59.513022 5.558637 -8.006165
H 61.057521 6.205876 -4.535740
H 61.136651 4.479526 -2.755456
H 64.369103 2.854243 -3.439518
H 66.131424 1.841149 -1.877499
H 65.812469 -2.546133 1.442984
H 63.828989 -3.575627 2.977523
H 62.308006 -0.297139 0.820002
H 60.552491 -4.581352 3.548409
H 60.526986 -5.608057 5.811224
H 58.993946 -4.520513 8.539600
H 61.978402 -1.884933 7.482755
H 61.997626 -0.892141 5.207781
H 58.641418 -2.063852 3.963205
H 56.882792 -1.008936 2.423432
C 74.092726 -0.051246 -0.034247
C 74.889904 0.417390 -1.319452
C 74.393388 0.534635 -2.601515
C 75.433079 1.061013 -3.410937
C 76.532264 1.242894 -2.598194
N 76.215057 0.775700 -1.347869
C 77.918074 1.878950 -3.016811
C 77.904423 2.899541 -4.087367
C 78.227774 2.548974 -5.405286
C 78.179853 3.506085 -6.418183
C 77.813911 4.818552 -6.102145
S 77.679425 6.000021 -7.411985
O 77.067895 7.204882 -6.888626
O 76.560395 5.355703 -8.384426
O 78.931854 6.033084 -8.131668
C 77.505792 5.187508 -4.789874
C 77.548490 4.221089 -3.784807
C 79.055816 1.532083 -2.361885
C 80.341181 2.117451 -2.680869
C 81.252654 1.592135 -1.869074
N 79.267806 0.654035 -1.336291
C 80.592683 0.647083 -0.991090
C 81.258124 -0.051246 -0.034247
C 80.463682 -1.054155 0.900274
C 80.970385 -2.172884 1.528737
C 79.931824 -2.713229 2.331196
C 78.821133 -1.913755 2.158077
N 79.133869 -0.953430 1.229129
C 77.431455 -2.061052 2.900209
C 77.438050 -2.675860 4.246269
C 77.033785 -4.007127 4.418381
C 77.019530 -4.578532 5.690128
C 77.419948 -3.811083 6.788572
S 77.291039 -4.509514 8.408366
O 78.294158 -5.542039 8.540887
O 75.837181 -5.218411 8.406636
O 77.173488 -3.427805 9.364578
C 77.839430 -2.487302 6.631750
C 77.849784 -1.924077 5.355396
C 76.293362 -1.584746 2.329963
C 75.005735 -1.651407 2.990745
C 74.095565 -1.102885 2.192808
C 74.757213 -0.658733 0.983343
N 76.082475 -0.970880 1.127211
H 73.390714 0.288541 -2.916429
H 75.378906 1.296847 -4.462504
H 76.870787 0.666545 -0.579805
H 78.513152 1.521756 -5.624825
H 78.425203 3.222314 -7.438114
H 75.680227 5.558637 -8.006165
H 77.224726 6.205876 -4.535740
H 77.303856 4.479526 -2.755456
H 80.536309 2.854243 -3.439518
H 82.298629 1.841149 -1.877499
H 81.979674 -2.546133 1.442984
H 79.996195 -3.575627 2.977523
H 78.475211 -0.297139 0.820002
H 76.719696 -4.581352 3.548409
H 76.694192 -5.608057 5.811224
H 75.161151 -4.520513 8.539600
H 78.145607 -1.884933 7.482755
H 78.164832 -0.892141 5.207781
H 74.808623 -2.063852 3.963205
H 73.049998 -1.008936 2.423432
