 xtb: 6.5.1 (b24c23e)
          07312217033D

276303  0     0  0            999 V2000
   42.1092   -0.0198    0.1118 C   0  0  0  0  0  0  0  0  0  0  0  0
   42.7035   -1.2336   -0.2073 C   0  0  0  0  0  0  0  0  0  0  0  0
   42.0385   -2.4656   -0.4648 C   0  0  0  0  0  0  0  0  0  0  0  0
   42.9878   -3.4040   -0.7551 C   0  0  0  0  0  0  0  0  0  0  0  0
   44.2637   -2.7730   -0.6924 C   0  0  0  0  0  0  0  0  0  0  0  0
   44.0418   -1.4701   -0.3492 N   0  0  0  0  0  0  0  0  0  0  0  0
   45.5186   -3.3538   -0.9066 C   0  0  0  0  0  0  0  0  0  0  0  0
   45.5294   -4.7842   -1.2973 C   0  0  0  0  0  0  0  0  0  0  0  0
   44.9059   -5.1968   -2.4779 C   0  0  0  0  0  0  0  0  0  0  0  0
   44.9130   -6.5314   -2.8480 C   0  0  0  0  0  0  0  0  0  0  0  0
   45.5444   -7.4472   -2.0220 C   0  0  0  0  0  0  0  0  0  0  0  0
   45.5602   -9.1375   -2.4869 S   0  0  0  0  0  0  0  0  0  0  0  0
   45.4084   -9.2824   -3.9052 O   0  0  0  0  0  0  0  0  0  0  0  0
   44.1632   -9.5870   -1.7900 O   0  0  0  0  0  0  0  0  0  0  0  0
   46.6349   -9.8289   -1.8390 O   0  0  0  0  0  0  0  0  0  0  0  0
   46.1728   -7.0689   -0.8467 C   0  0  0  0  0  0  0  0  0  0  0  0
   46.1632   -5.7310   -0.4886 C   0  0  0  0  0  0  0  0  0  0  0  0
   46.7439   -2.6940   -0.7793 C   0  0  0  0  0  0  0  0  0  0  0  0
   48.0302   -3.3084   -1.0581 C   0  0  0  0  0  0  0  0  0  0  0  0
   48.9639   -2.3657   -0.8157 C   0  0  0  0  0  0  0  0  0  0  0  0
   46.9164   -1.3989   -0.4003 N   0  0  0  0  0  0  0  0  0  0  0  0
   48.2467   -1.1747   -0.4030 C   0  0  0  0  0  0  0  0  0  0  0  0
   48.8994    0.0259   -0.0611 C   0  0  0  0  0  0  0  0  0  0  0  0
   48.2803    1.2388    0.2929 C   0  0  0  0  0  0  0  0  0  0  0  0
   48.9410    2.4451    0.6477 C   0  0  0  0  0  0  0  0  0  0  0  0
   47.9864    3.3891    0.9055 C   0  0  0  0  0  0  0  0  0  0  0  0
   46.7116    2.7882    0.7093 C   0  0  0  0  0  0  0  0  0  0  0  0
   46.9411    1.4875    0.3486 N   0  0  0  0  0  0  0  0  0  0  0  0
   45.4564    3.3821    0.8797 C   0  0  0  0  0  0  0  0  0  0  0  0
   45.4438    4.8186    1.2449 C   0  0  0  0  0  0  0  0  0  0  0  0
   46.0072    5.7677    0.3877 C   0  0  0  0  0  0  0  0  0  0  0  0
   45.9929    7.1122    0.7195 C   0  0  0  0  0  0  0  0  0  0  0  0
   45.4156    7.4949    1.9195 C   0  0  0  0  0  0  0  0  0  0  0  0
   45.3872    9.1961    2.3415 S   0  0  0  0  0  0  0  0  0  0  0  0
   45.4757   10.0174    1.1696 O   0  0  0  0  0  0  0  0  0  0  0  0
   46.8153    9.2715    3.1124 O   0  0  0  0  0  0  0  0  0  0  0  0
   44.3460    9.4649    3.2882 O   0  0  0  0  0  0  0  0  0  0  0  0
   44.8489    6.5782    2.7900 C   0  0  0  0  0  0  0  0  0  0  0  0
   44.8645    5.2366    2.4458 C   0  0  0  0  0  0  0  0  0  0  0  0
   44.2299    2.7257    0.7315 C   0  0  0  0  0  0  0  0  0  0  0  0
   42.9326    3.3709    0.8672 C   0  0  0  0  0  0  0  0  0  0  0  0
   42.0069    2.4142    0.6566 C   0  0  0  0  0  0  0  0  0  0  0  0
   42.7370    1.1894    0.3790 C   0  0  0  0  0  0  0  0  0  0  0  0
   44.0728    1.4169    0.4242 N   0  0  0  0  0  0  0  0  0  0  0  0
   41.0246   -0.0249    0.1493 H   0  0  0  0  0  0  0  0  0  0  0  0
   40.9699   -2.6036   -0.4243 H   0  0  0  0  0  0  0  0  0  0  0  0
   42.8254   -4.4448   -0.9836 H   0  0  0  0  0  0  0  0  0  0  0  0
   44.7739   -0.7805   -0.2166 H   0  0  0  0  0  0  0  0  0  0  0  0
   44.4296   -4.4626   -3.1173 H   0  0  0  0  0  0  0  0  0  0  0  0
   44.4430   -6.8601   -3.7664 H   0  0  0  0  0  0  0  0  0  0  0  0
   43.9273  -10.4817   -2.0638 H   0  0  0  0  0  0  0  0  0  0  0  0
   46.6615   -7.8107   -0.2276 H   0  0  0  0  0  0  0  0  0  0  0  0
   46.6385   -5.4156    0.4328 H   0  0  0  0  0  0  0  0  0  0  0  0
   48.1769   -4.3183   -1.4051 H   0  0  0  0  0  0  0  0  0  0  0  0
   50.0354   -2.4401   -0.9097 H   0  0  0  0  0  0  0  0  0  0  0  0
   50.0111    2.5641    0.7006 H   0  0  0  0  0  0  0  0  0  0  0  0
   48.1477    4.4085    1.2156 H   0  0  0  0  0  0  0  0  0  0  0  0
   46.2100    0.8098    0.1592 H   0  0  0  0  0  0  0  0  0  0  0  0
   46.4410    5.4493   -0.5531 H   0  0  0  0  0  0  0  0  0  0  0  0
   46.4154    7.8568    0.0566 H   0  0  0  0  0  0  0  0  0  0  0  0
   47.0306   10.1867    3.3295 H   0  0  0  0  0  0  0  0  0  0  0  0
   44.4018    6.9129    3.7176 H   0  0  0  0  0  0  0  0  0  0  0  0
   44.4371    4.5021    3.1183 H   0  0  0  0  0  0  0  0  0  0  0  0
   42.7765    4.4160    1.0806 H   0  0  0  0  0  0  0  0  0  0  0  0
   40.9318    2.4998    0.6705 H   0  0  0  0  0  0  0  0  0  0  0  0
   96.9370    0.0117    0.1119 C   0  0  0  0  0  0  0  0  0  0  0  0
   96.3372    1.2068    0.4865 C   0  0  0  0  0  0  0  0  0  0  0  0
   96.9968    2.3932    0.9148 C   0  0  0  0  0  0  0  0  0  0  0  0
   96.0427    3.3372    1.1692 C   0  0  0  0  0  0  0  0  0  0  0  0
   94.7691    2.7602    0.8954 C   0  0  0  0  0  0  0  0  0  0  0  0
   94.9972    1.4739    0.4982 N   0  0  0  0  0  0  0  0  0  0  0  0
   93.5109    3.3592    1.0224 C   0  0  0  0  0  0  0  0  0  0  0  0
   93.4915    4.7799    1.4467 C   0  0  0  0  0  0  0  0  0  0  0  0
   94.1094    5.7588    0.6641 C   0  0  0  0  0  0  0  0  0  0  0  0
   94.0943    7.0868    1.0572 C   0  0  0  0  0  0  0  0  0  0  0  0
   93.4605    7.4223    2.2427 C   0  0  0  0  0  0  0  0  0  0  0  0
   93.4358    9.1019    2.7447 S   0  0  0  0  0  0  0  0  0  0  0  0
   93.5809    9.9780    1.6191 O   0  0  0  0  0  0  0  0  0  0  0  0
   94.8347    9.1224    3.5710 O   0  0  0  0  0  0  0  0  0  0  0  0
   92.3614    9.3378    3.6625 O   0  0  0  0  0  0  0  0  0  0  0  0
   92.8369    6.4753    3.0387 C   0  0  0  0  0  0  0  0  0  0  0  0
   92.8544    5.1509    2.6336 C   0  0  0  0  0  0  0  0  0  0  0  0
   92.2891    2.7241    0.7843 C   0  0  0  0  0  0  0  0  0  0  0  0
   90.9997    3.3875    0.8665 C   0  0  0  0  0  0  0  0  0  0  0  0
   90.0706    2.4524    0.5807 C   0  0  0  0  0  0  0  0  0  0  0  0
   92.1231    1.4208    0.4312 N   0  0  0  0  0  0  0  0  0  0  0  0
   90.7938    1.2239    0.3137 C   0  0  0  0  0  0  0  0  0  0  0  0
   90.1464    0.0147   -0.0079 C   0  0  0  0  0  0  0  0  0  0  0  0
   90.7711   -1.2032   -0.3337 C   0  0  0  0  0  0  0  0  0  0  0  0
   90.1165   -2.4234   -0.6503 C   0  0  0  0  0  0  0  0  0  0  0  0
   91.0756   -3.3557   -0.9330 C   0  0  0  0  0  0  0  0  0  0  0  0
   92.3469   -2.7298   -0.8036 C   0  0  0  0  0  0  0  0  0  0  0  0
   92.1112   -1.4338   -0.4305 N   0  0  0  0  0  0  0  0  0  0  0  0
   93.6051   -3.3137   -0.9868 C   0  0  0  0  0  0  0  0  0  0  0  0
   93.6252   -4.7271   -1.4329 C   0  0  0  0  0  0  0  0  0  0  0  0
   93.0486   -5.0873   -2.6538 C   0  0  0  0  0  0  0  0  0  0  0  0
   93.0732   -6.4040   -3.0827 C   0  0  0  0  0  0  0  0  0  0  0  0
   93.6739   -7.3555   -2.2744 C   0  0  0  0  0  0  0  0  0  0  0  0
   93.7187   -9.0218   -2.8169 S   0  0  0  0  0  0  0  0  0  0  0  0
   93.6109   -9.0992   -4.2444 O   0  0  0  0  0  0  0  0  0  0  0  0
   92.3069   -9.5152   -2.1813 O   0  0  0  0  0  0  0  0  0  0  0  0
   94.7796   -9.7364   -2.1713 O   0  0  0  0  0  0  0  0  0  0  0  0
   94.2529   -7.0300   -1.0585 C   0  0  0  0  0  0  0  0  0  0  0  0
   94.2269   -5.7094   -0.6418 C   0  0  0  0  0  0  0  0  0  0  0  0
   94.8286   -2.6660   -0.7847 C   0  0  0  0  0  0  0  0  0  0  0  0
   96.1285   -3.2744   -1.0253 C   0  0  0  0  0  0  0  0  0  0  0  0
   97.0499   -2.3422   -0.7113 C   0  0  0  0  0  0  0  0  0  0  0  0
   96.3144   -1.1614   -0.2930 C   0  0  0  0  0  0  0  0  0  0  0  0
   94.9797   -1.3901   -0.3589 N   0  0  0  0  0  0  0  0  0  0  0  0
   98.0220    0.0042    0.1371 H   0  0  0  0  0  0  0  0  0  0  0  0
   98.0653    2.4960    1.0165 H   0  0  0  0  0  0  0  0  0  0  0  0
   96.2007    4.3426    1.5242 H   0  0  0  0  0  0  0  0  0  0  0  0
   94.2679    0.8136    0.2505 H   0  0  0  0  0  0  0  0  0  0  0  0
   94.5875    5.4778   -0.2671 H   0  0  0  0  0  0  0  0  0  0  0  0
   94.5599    7.8548    0.4524 H   0  0  0  0  0  0  0  0  0  0  0  0
   95.0741   10.0295    3.7966 H   0  0  0  0  0  0  0  0  0  0  0  0
   92.3460    6.7736    3.9564 H   0  0  0  0  0  0  0  0  0  0  0  0
   92.3829    4.3926    3.2476 H   0  0  0  0  0  0  0  0  0  0  0  0
   90.8480    4.4295    1.0969 H   0  0  0  0  0  0  0  0  0  0  0  0
   88.9987    2.5602    0.5387 H   0  0  0  0  0  0  0  0  0  0  0  0
   89.0474   -2.5611   -0.6545 H   0  0  0  0  0  0  0  0  0  0  0  0
   90.9198   -4.3889   -1.1971 H   0  0  0  0  0  0  0  0  0  0  0  0
   92.8388   -0.7502   -0.2491 H   0  0  0  0  0  0  0  0  0  0  0  0
   92.5968   -4.3255   -3.2784 H   0  0  0  0  0  0  0  0  0  0  0  0
   92.6413   -6.6911   -4.0332 H   0  0  0  0  0  0  0  0  0  0  0  0
   92.1081  -10.4150   -2.4674 H   0  0  0  0  0  0  0  0  0  0  0  0
   94.7177   -7.7987   -0.4540 H   0  0  0  0  0  0  0  0  0  0  0  0
   94.6642   -5.4357    0.3113 H   0  0  0  0  0  0  0  0  0  0  0  0
   96.2892   -4.2737   -1.3966 H   0  0  0  0  0  0  0  0  0  0  0  0
   98.1252   -2.4128   -0.7577 H   0  0  0  0  0  0  0  0  0  0  0  0
   54.1032    0.0555   -0.0542 C   0  0  0  0  0  0  0  0  0  0  0  0
   52.8756    0.0445   -0.0651 C   0  0  0  0  0  0  0  0  0  0  0  0
   51.5301    0.0367   -0.0700 C   0  0  0  0  0  0  0  0  0  0  0  0
   50.3068    0.0285   -0.0721 C   0  0  0  0  0  0  0  0  0  0  0  0
   55.4484    0.0683   -0.0398 C   0  0  0  0  0  0  0  0  0  0  0  0
   56.6717    0.0795   -0.0204 C   0  0  0  0  0  0  0  0  0  0  0  0
   70.1379    0.1020    0.0849 C   0  0  0  0  0  0  0  0  0  0  0  0
   68.9091    0.1077    0.0820 C   0  0  0  0  0  0  0  0  0  0  0  0
   67.5657    0.1138    0.0801 C   0  0  0  0  0  0  0  0  0  0  0  0
   66.3414    0.1223    0.0743 C   0  0  0  0  0  0  0  0  0  0  0  0
   71.4813    0.0981    0.0840 C   0  0  0  0  0  0  0  0  0  0  0  0
   72.7056    0.0944    0.0855 C   0  0  0  0  0  0  0  0  0  0  0  0
   86.1705    0.0160    0.0132 C   0  0  0  0  0  0  0  0  0  0  0  0
   84.9428    0.0249    0.0289 C   0  0  0  0  0  0  0  0  0  0  0  0
   83.5978    0.0363    0.0444 C   0  0  0  0  0  0  0  0  0  0  0  0
   82.3744    0.0540    0.0568 C   0  0  0  0  0  0  0  0  0  0  0  0
   87.5157    0.0109    0.0001 C   0  0  0  0  0  0  0  0  0  0  0  0
   88.7391    0.0125   -0.0090 C   0  0  0  0  0  0  0  0  0  0  0  0
   58.0780    0.0940   -0.0020 C   0  0  0  0  0  0  0  0  0  0  0  0
   58.7098    0.7878   -1.0511 C   0  0  0  0  0  0  0  0  0  0  0  0
   58.0665    1.4469   -2.1308 C   0  0  0  0  0  0  0  0  0  0  0  0
   59.0344    2.0053   -2.9197 C   0  0  0  0  0  0  0  0  0  0  0  0
   60.2979    1.7100   -2.3379 C   0  0  0  0  0  0  0  0  0  0  0  0
   60.0513    0.9649   -1.2167 N   0  0  0  0  0  0  0  0  0  0  0  0
   61.5604    2.0798   -2.8174 C   0  0  0  0  0  0  0  0  0  0  0  0
   61.5796    2.9180   -4.0415 C   0  0  0  0  0  0  0  0  0  0  0  0
   62.1911    2.4487   -5.2067 C   0  0  0  0  0  0  0  0  0  0  0  0
   62.2101    3.2259   -6.3531 C   0  0  0  0  0  0  0  0  0  0  0  0
   61.6140    4.4760   -6.3190 C   0  0  0  0  0  0  0  0  0  0  0  0
   61.6438    5.4707   -7.7625 S   0  0  0  0  0  0  0  0  0  0  0  0
   61.5222    6.8600   -7.4306 O   0  0  0  0  0  0  0  0  0  0  0  0
   60.2348    4.9872   -8.4103 O   0  0  0  0  0  0  0  0  0  0  0  0
   62.7064    5.0654   -8.6339 O   0  0  0  0  0  0  0  0  0  0  0  0
   61.0054    4.9714   -5.1772 C   0  0  0  0  0  0  0  0  0  0  0  0
   60.9884    4.1839   -4.0379 C   0  0  0  0  0  0  0  0  0  0  0  0
   62.7838    1.7283   -2.2444 C   0  0  0  0  0  0  0  0  0  0  0  0
   64.0714    2.1804   -2.7416 C   0  0  0  0  0  0  0  0  0  0  0  0
   65.0049    1.6323   -1.9370 C   0  0  0  0  0  0  0  0  0  0  0  0
   62.9557    0.9411   -1.1472 N   0  0  0  0  0  0  0  0  0  0  0  0
   64.2860    0.8569   -0.9450 C   0  0  0  0  0  0  0  0  0  0  0  0
   64.9371    0.1259    0.0691 C   0  0  0  0  0  0  0  0  0  0  0  0
   64.3051   -0.6078    1.0916 C   0  0  0  0  0  0  0  0  0  0  0  0
   64.9492   -1.3601    2.1078 C   0  0  0  0  0  0  0  0  0  0  0  0
   63.9810   -1.9023    2.9076 C   0  0  0  0  0  0  0  0  0  0  0  0
   62.7164   -1.4892    2.4058 C   0  0  0  0  0  0  0  0  0  0  0  0
   62.9631   -0.7170    1.3027 N   0  0  0  0  0  0  0  0  0  0  0  0
   61.4535   -1.8188    2.9122 C   0  0  0  0  0  0  0  0  0  0  0  0
   61.4332   -2.6426    4.1459 C   0  0  0  0  0  0  0  0  0  0  0  0
   60.8454   -3.9101    4.1384 C   0  0  0  0  0  0  0  0  0  0  0  0
   60.8245   -4.6824    5.2880 C   0  0  0  0  0  0  0  0  0  0  0  0
   61.3926   -4.1708    6.4434 C   0  0  0  0  0  0  0  0  0  0  0  0
   61.3764   -5.1446    7.9012 S   0  0  0  0  0  0  0  0  0  0  0  0
   61.2266   -6.5334    7.5818 O   0  0  0  0  0  0  0  0  0  0  0  0
   59.9768   -4.6082    8.5260 O   0  0  0  0  0  0  0  0  0  0  0  0
   62.4350   -4.7567    8.7867 O   0  0  0  0  0  0  0  0  0  0  0  0
   61.9853   -2.9191    6.4815 C   0  0  0  0  0  0  0  0  0  0  0  0
   62.0046   -2.1573    5.3250 C   0  0  0  0  0  0  0  0  0  0  0  0
   60.2294   -1.4376    2.3591 C   0  0  0  0  0  0  0  0  0  0  0  0
   58.9400   -1.7583    2.9459 C   0  0  0  0  0  0  0  0  0  0  0  0
   58.0066   -1.2273    2.1298 C   0  0  0  0  0  0  0  0  0  0  0  0
   58.7269   -0.5746    1.0541 C   0  0  0  0  0  0  0  0  0  0  0  0
   60.0586   -0.7085    1.2231 N   0  0  0  0  0  0  0  0  0  0  0  0
   56.9995    1.4798   -2.2801 H   0  0  0  0  0  0  0  0  0  0  0  0
   58.8881    2.5638   -3.8297 H   0  0  0  0  0  0  0  0  0  0  0  0
   60.7695    0.5940   -0.6036 H   0  0  0  0  0  0  0  0  0  0  0  0
   62.6421    1.4634   -5.2152 H   0  0  0  0  0  0  0  0  0  0  0  0
   62.6819    2.8724   -7.2613 H   0  0  0  0  0  0  0  0  0  0  0  0
   60.0233    5.5221   -9.1852 H   0  0  0  0  0  0  0  0  0  0  0  0
   60.5605    5.9585   -5.1819 H   0  0  0  0  0  0  0  0  0  0  0  0
   60.5293    4.5584   -3.1304 H   0  0  0  0  0  0  0  0  0  0  0  0
   64.2190    2.8385   -3.5823 H   0  0  0  0  0  0  0  0  0  0  0  0
   66.0772    1.7343   -1.9829 H   0  0  0  0  0  0  0  0  0  0  0  0
   66.0171   -1.4708    2.2046 H   0  0  0  0  0  0  0  0  0  0  0  0
   64.1282   -2.5406    3.7634 H   0  0  0  0  0  0  0  0  0  0  0  0
   62.2446   -0.2939    0.7248 H   0  0  0  0  0  0  0  0  0  0  0  0
   60.4173   -4.2963    3.2208 H   0  0  0  0  0  0  0  0  0  0  0  0
   60.3806   -5.6700    5.2909 H   0  0  0  0  0  0  0  0  0  0  0  0
   59.8285   -4.9950    9.3975 H   0  0  0  0  0  0  0  0  0  0  0  0
   62.4249   -2.5525    7.4006 H   0  0  0  0  0  0  0  0  0  0  0  0
   62.4523   -1.1703    5.3369 H   0  0  0  0  0  0  0  0  0  0  0  0
   58.7906   -2.3031    3.8638 H   0  0  0  0  0  0  0  0  0  0  0  0
   56.9333   -1.2529    2.2282 H   0  0  0  0  0  0  0  0  0  0  0  0
   74.1099    0.0948    0.0847 C   0  0  0  0  0  0  0  0  0  0  0  0
   74.7351    0.7761   -0.9776 C   0  0  0  0  0  0  0  0  0  0  0  0
   74.0842    1.4321   -2.0545 C   0  0  0  0  0  0  0  0  0  0  0  0
   75.0469    1.9826   -2.8554 C   0  0  0  0  0  0  0  0  0  0  0  0
   76.3145    1.6851   -2.2842 C   0  0  0  0  0  0  0  0  0  0  0  0
   76.0753    0.9455   -1.1573 N   0  0  0  0  0  0  0  0  0  0  0  0
   77.5737    2.0506   -2.7747 C   0  0  0  0  0  0  0  0  0  0  0  0
   77.5870    2.8859   -4.0008 C   0  0  0  0  0  0  0  0  0  0  0  0
   78.1916    2.4117   -5.1677 C   0  0  0  0  0  0  0  0  0  0  0  0
   78.2086    3.1862   -6.3159 C   0  0  0  0  0  0  0  0  0  0  0  0
   77.6176    4.4387   -6.2819 C   0  0  0  0  0  0  0  0  0  0  0  0
   77.6477    5.4310   -7.7274 S   0  0  0  0  0  0  0  0  0  0  0  0
   77.5512    6.8229   -7.3977 O   0  0  0  0  0  0  0  0  0  0  0  0
   76.2236    4.9728   -8.3595 O   0  0  0  0  0  0  0  0  0  0  0  0
   78.6957    5.0059   -8.6067 O   0  0  0  0  0  0  0  0  0  0  0  0
   77.0150    4.9385   -5.1389 C   0  0  0  0  0  0  0  0  0  0  0  0
   76.9996    4.1536   -3.9977 C   0  0  0  0  0  0  0  0  0  0  0  0
   78.8010    1.6964   -2.2109 C   0  0  0  0  0  0  0  0  0  0  0  0
   80.0857    2.1473   -2.7168 C   0  0  0  0  0  0  0  0  0  0  0  0
   81.0245    1.5928   -1.9229 C   0  0  0  0  0  0  0  0  0  0  0  0
   78.9794    0.9049   -1.1186 N   0  0  0  0  0  0  0  0  0  0  0  0
   80.3120    0.8142   -0.9290 C   0  0  0  0  0  0  0  0  0  0  0  0
   80.9682    0.0688    0.0698 C   0  0  0  0  0  0  0  0  0  0  0  0
   80.3435   -0.6692    1.0926 C   0  0  0  0  0  0  0  0  0  0  0  0
   80.9940   -1.4355    2.0944 C   0  0  0  0  0  0  0  0  0  0  0  0
   80.0317   -1.9706    2.9059 C   0  0  0  0  0  0  0  0  0  0  0  0
   78.7646   -1.5388    2.4264 C   0  0  0  0  0  0  0  0  0  0  0  0
   79.0033   -0.7643    1.3236 N   0  0  0  0  0  0  0  0  0  0  0  0
   77.5055   -1.8529    2.9529 C   0  0  0  0  0  0  0  0  0  0  0  0
   77.4957   -2.6814    4.1836 C   0  0  0  0  0  0  0  0  0  0  0  0
   76.8924   -3.9415    4.1804 C   0  0  0  0  0  0  0  0  0  0  0  0
   76.8879   -4.7220    5.3247 C   0  0  0  0  0  0  0  0  0  0  0  0
   77.4874   -4.2256    6.4708 C   0  0  0  0  0  0  0  0  0  0  0  0
   77.4994   -5.2138    7.9191 S   0  0  0  0  0  0  0  0  0  0  0  0
   77.3432   -6.5994    7.5887 O   0  0  0  0  0  0  0  0  0  0  0  0
   76.1125   -4.6846    8.5771 O   0  0  0  0  0  0  0  0  0  0  0  0
   78.5760   -4.8345    8.7863 O   0  0  0  0  0  0  0  0  0  0  0  0
   78.0929   -2.9801    6.5054 C   0  0  0  0  0  0  0  0  0  0  0  0
   78.0959   -2.2101    5.3540 C   0  0  0  0  0  0  0  0  0  0  0  0
   76.2784   -1.4544    2.4203 C   0  0  0  0  0  0  0  0  0  0  0  0
   74.9943   -1.7571    3.0275 C   0  0  0  0  0  0  0  0  0  0  0  0
   74.0554   -1.2155    2.2247 C   0  0  0  0  0  0  0  0  0  0  0  0
   74.7675   -0.5748    1.1364 C   0  0  0  0  0  0  0  0  0  0  0  0
   76.0990   -0.7248    1.2850 N   0  0  0  0  0  0  0  0  0  0  0  0
   73.0160    1.4688   -2.1939 H   0  0  0  0  0  0  0  0  0  0  0  0
   74.8943    2.5374   -3.7667 H   0  0  0  0  0  0  0  0  0  0  0  0
   76.7978    0.5747   -0.5492 H   0  0  0  0  0  0  0  0  0  0  0  0
   78.6392    1.4248   -5.1756 H   0  0  0  0  0  0  0  0  0  0  0  0
   78.6755    2.8290   -7.2251 H   0  0  0  0  0  0  0  0  0  0  0  0
   75.9825    5.5520   -9.0927 H   0  0  0  0  0  0  0  0  0  0  0  0
   76.5739    5.9273   -5.1438 H   0  0  0  0  0  0  0  0  0  0  0  0
   76.5457    4.5320   -3.0891 H   0  0  0  0  0  0  0  0  0  0  0  0
   80.2281    2.8091   -3.5556 H   0  0  0  0  0  0  0  0  0  0  0  0
   82.0966    1.6921   -1.9778 H   0  0  0  0  0  0  0  0  0  0  0  0
   82.0618   -1.5596    2.1742 H   0  0  0  0  0  0  0  0  0  0  0  0
   80.1843   -2.6155    3.7557 H   0  0  0  0  0  0  0  0  0  0  0  0
   78.2811   -0.3285    0.7599 H   0  0  0  0  0  0  0  0  0  0  0  0
   76.4404   -4.3163    3.2696 H   0  0  0  0  0  0  0  0  0  0  0  0
   76.4336   -5.7049    5.3300 H   0  0  0  0  0  0  0  0  0  0  0  0
   75.9740   -5.0919    9.4408 H   0  0  0  0  0  0  0  0  0  0  0  0
   78.5561   -2.6249    7.4174 H   0  0  0  0  0  0  0  0  0  0  0  0
   78.5545   -1.2281    5.3634 H   0  0  0  0  0  0  0  0  0  0  0  0
   74.8524   -2.2979    3.9491 H   0  0  0  0  0  0  0  0  0  0  0  0
   72.9834   -1.2270    2.3395 H   0  0  0  0  0  0  0  0  0  0  0  0
  1  2  4  0  0  0  0
  2  3  4  0  0  0  0
  3  4  2  0  0  0  0
  4  5  4  0  0  0  0
  2  6  4  0  0  0  0
  5  6  4  0  0  0  0
  5  7  4  0  0  0  0
  7  8  1  0  0  0  0
  8  9  4  0  0  0  0
  9 10  4  0  0  0  0
 10 11  4  0  0  0  0
 11 12  1  0  0  0  0
 12 13  2  0  0  0  0
 12 14  1  0  0  0  0
 12 15  2  0  0  0  0
 11 16  4  0  0  0  0
  8 17  4  0  0  0  0
 16 17  4  0  0  0  0
  7 18  4  0  0  0  0
 18 19  1  0  0  0  0
 19 20  2  0  0  0  0
 18 21  4  0  0  0  0
 20 22  1  0  0  0  0
 21 22  4  0  0  0  0
 22 23  4  0  0  0  0
 23 24  4  0  0  0  0
 24 25  4  0  0  0  0
 25 26  2  0  0  0  0
 26 27  4  0  0  0  0
 24 28  4  0  0  0  0
 27 28  4  0  0  0  0
 27 29  4  0  0  0  0
 29 30  1  0  0  0  0
 30 31  4  0  0  0  0
 31 32  4  0  0  0  0
 32 33  4  0  0  0  0
 33 34  1  0  0  0  0
 34 35  2  0  0  0  0
 34 36  1  0  0  0  0
 34 37  2  0  0  0  0
 33 38  4  0  0  0  0
 30 39  4  0  0  0  0
 38 39  4  0  0  0  0
 29 40  4  0  0  0  0
 40 41  1  0  0  0  0
 41 42  2  0  0  0  0
  1 43  4  0  0  0  0
 42 43  1  0  0  0  0
 40 44  4  0  0  0  0
 43 44  4  0  0  0  0
  1 45  1  0  0  0  0
  3 46  1  0  0  0  0
  4 47  1  0  0  0  0
  6 48  1  0  0  0  0
  9 49  1  0  0  0  0
 10 50  1  0  0  0  0
 14 51  1  0  0  0  0
 16 52  1  0  0  0  0
 17 53  1  0  0  0  0
 19 54  1  0  0  0  0
 20 55  1  0  0  0  0
 25 56  1  0  0  0  0
 26 57  1  0  0  0  0
 28 58  1  0  0  0  0
 31 59  1  0  0  0  0
 32 60  1  0  0  0  0
 36 61  1  0  0  0  0
 38 62  1  0  0  0  0
 39 63  1  0  0  0  0
 41 64  1  0  0  0  0
 42 65  1  0  0  0  0
 66 67  4  0  0  0  0
 67 68  4  0  0  0  0
 68 69  2  0  0  0  0
 69 70  4  0  0  0  0
 67 71  4  0  0  0  0
 70 71  4  0  0  0  0
 70 72  4  0  0  0  0
 72 73  1  0  0  0  0
 73 74  4  0  0  0  0
 74 75  4  0  0  0  0
 75 76  4  0  0  0  0
 76 77  1  0  0  0  0
 77 78  2  0  0  0  0
 77 79  1  0  0  0  0
 77 80  2  0  0  0  0
 76 81  4  0  0  0  0
 73 82  4  0  0  0  0
 81 82  4  0  0  0  0
 72 83  4  0  0  0  0
 83 84  1  0  0  0  0
 84 85  2  0  0  0  0
 83 86  4  0  0  0  0
 85 87  1  0  0  0  0
 86 87  4  0  0  0  0
 87 88  4  0  0  0  0
 88 89  4  0  0  0  0
 89 90  4  0  0  0  0
 90 91  2  0  0  0  0
 91 92  4  0  0  0  0
 89 93  4  0  0  0  0
 92 93  4  0  0  0  0
 92 94  4  0  0  0  0
 94 95  1  0  0  0  0
 95 96  4  0  0  0  0
 96 97  4  0  0  0  0
 97 98  4  0  0  0  0
 98 99  1  0  0  0  0
 99100  2  0  0  0  0
 99101  1  0  0  0  0
 99102  2  0  0  0  0
 98103  4  0  0  0  0
 95104  4  0  0  0  0
103104  4  0  0  0  0
 94105  4  0  0  0  0
105106  1  0  0  0  0
106107  2  0  0  0  0
 66108  4  0  0  0  0
107108  1  0  0  0  0
105109  4  0  0  0  0
108109  4  0  0  0  0
 66110  1  0  0  0  0
 68111  1  0  0  0  0
 69112  1  0  0  0  0
 71113  1  0  0  0  0
 74114  1  0  0  0  0
 75115  1  0  0  0  0
 79116  1  0  0  0  0
 81117  1  0  0  0  0
 82118  1  0  0  0  0
 84119  1  0  0  0  0
 85120  1  0  0  0  0
 90121  1  0  0  0  0
 91122  1  0  0  0  0
 93123  1  0  0  0  0
 96124  1  0  0  0  0
 97125  1  0  0  0  0
101126  1  0  0  0  0
103127  1  0  0  0  0
104128  1  0  0  0  0
106129  1  0  0  0  0
107130  1  0  0  0  0
131132  3  0  0  0  0
132133  4  0  0  0  0
 23134  4  0  0  0  0
133134  3  0  0  0  0
131135  4  0  0  0  0
135136  3  0  0  0  0
137138  3  0  0  0  0
138139  4  0  0  0  0
139140  3  0  0  0  0
137141  4  0  0  0  0
141142  3  0  0  0  0
143144  3  0  0  0  0
144145  4  0  0  0  0
145146  3  0  0  0  0
143147  4  0  0  0  0
 88148  4  0  0  0  0
147148  3  0  0  0  0
136149  4  0  0  0  0
149150  4  0  0  0  0
150151  4  0  0  0  0
151152  2  0  0  0  0
152153  4  0  0  0  0
150154  4  0  0  0  0
153154  4  0  0  0  0
153155  4  0  0  0  0
155156  1  0  0  0  0
156157  4  0  0  0  0
157158  4  0  0  0  0
158159  4  0  0  0  0
159160  1  0  0  0  0
160161  2  0  0  0  0
160162  1  0  0  0  0
160163  2  0  0  0  0
159164  4  0  0  0  0
156165  4  0  0  0  0
164165  4  0  0  0  0
155166  4  0  0  0  0
166167  1  0  0  0  0
167168  2  0  0  0  0
166169  4  0  0  0  0
168170  1  0  0  0  0
169170  4  0  0  0  0
140171  4  0  0  0  0
170171  4  0  0  0  0
171172  4  0  0  0  0
172173  4  0  0  0  0
173174  2  0  0  0  0
174175  4  0  0  0  0
172176  4  0  0  0  0
175176  4  0  0  0  0
175177  4  0  0  0  0
177178  1  0  0  0  0
178179  4  0  0  0  0
179180  4  0  0  0  0
180181  4  0  0  0  0
181182  1  0  0  0  0
182183  2  0  0  0  0
182184  1  0  0  0  0
182185  2  0  0  0  0
181186  4  0  0  0  0
178187  4  0  0  0  0
186187  4  0  0  0  0
177188  4  0  0  0  0
188189  1  0  0  0  0
189190  2  0  0  0  0
149191  4  0  0  0  0
190191  1  0  0  0  0
188192  4  0  0  0  0
191192  4  0  0  0  0
151193  1  0  0  0  0
152194  1  0  0  0  0
154195  1  0  0  0  0
157196  1  0  0  0  0
158197  1  0  0  0  0
162198  1  0  0  0  0
164199  1  0  0  0  0
165200  1  0  0  0  0
167201  1  0  0  0  0
168202  1  0  0  0  0
173203  1  0  0  0  0
174204  1  0  0  0  0
176205  1  0  0  0  0
179206  1  0  0  0  0
180207  1  0  0  0  0
184208  1  0  0  0  0
186209  1  0  0  0  0
187210  1  0  0  0  0
189211  1  0  0  0  0
190212  1  0  0  0  0
142213  4  0  0  0  0
213214  4  0  0  0  0
214215  4  0  0  0  0
215216  2  0  0  0  0
216217  4  0  0  0  0
214218  4  0  0  0  0
217218  4  0  0  0  0
217219  4  0  0  0  0
219220  1  0  0  0  0
220221  4  0  0  0  0
221222  4  0  0  0  0
222223  4  0  0  0  0
223224  1  0  0  0  0
224225  2  0  0  0  0
224226  1  0  0  0  0
224227  2  0  0  0  0
223228  4  0  0  0  0
220229  4  0  0  0  0
228229  4  0  0  0  0
219230  4  0  0  0  0
230231  1  0  0  0  0
231232  2  0  0  0  0
230233  4  0  0  0  0
232234  1  0  0  0  0
233234  4  0  0  0  0
146235  4  0  0  0  0
234235  4  0  0  0  0
235236  4  0  0  0  0
236237  4  0  0  0  0
237238  2  0  0  0  0
238239  4  0  0  0  0
236240  4  0  0  0  0
239240  4  0  0  0  0
239241  4  0  0  0  0
241242  1  0  0  0  0
242243  4  0  0  0  0
243244  4  0  0  0  0
244245  4  0  0  0  0
245246  1  0  0  0  0
246247  2  0  0  0  0
246248  1  0  0  0  0
246249  2  0  0  0  0
245250  4  0  0  0  0
242251  4  0  0  0  0
250251  4  0  0  0  0
241252  4  0  0  0  0
252253  1  0  0  0  0
253254  2  0  0  0  0
213255  4  0  0  0  0
254255  1  0  0  0  0
252256  4  0  0  0  0
255256  4  0  0  0  0
215257  1  0  0  0  0
216258  1  0  0  0  0
218259  1  0  0  0  0
221260  1  0  0  0  0
222261  1  0  0  0  0
226262  1  0  0  0  0
228263  1  0  0  0  0
229264  1  0  0  0  0
231265  1  0  0  0  0
232266  1  0  0  0  0
237267  1  0  0  0  0
238268  1  0  0  0  0
240269  1  0  0  0  0
243270  1  0  0  0  0
244271  1  0  0  0  0
248272  1  0  0  0  0
250273  1  0  0  0  0
251274  1  0  0  0  0
253275  1  0  0  0  0
254276  1  0  0  0  0
M  END
