 xtb: 6.5.1 (b24c23e)
          07292223563D

258297  0     0  0            999 V2000
   47.6299    0.0961   -0.4167 Co  0  0  0  0  0  0  0  0  0  0  0  0
   44.2628    0.1004   -0.4774 C   0  0  0  0  0  0  0  0  0  0  0  0
   44.9235    1.3098   -0.5085 C   0  0  0  0  0  0  0  0  0  0  0  0
   44.2703    2.5812   -0.5875 C   0  0  0  0  0  0  0  0  0  0  0  0
   45.2163    3.5194   -0.3463 C   0  0  0  0  0  0  0  0  0  0  0  0
   46.4464    2.8191   -0.1168 C   0  0  0  0  0  0  0  0  0  0  0  0
   46.2692    1.4713   -0.2889 N   0  0  0  0  0  0  0  0  0  0  0  0
   47.6210    3.4153    0.3270 C   0  0  0  0  0  0  0  0  0  0  0  0
   47.6089    4.8565    0.6654 C   0  0  0  0  0  0  0  0  0  0  0  0
   46.7352    5.3473    1.6320 C   0  0  0  0  0  0  0  0  0  0  0  0
   46.7199    6.7050    1.9480 C   0  0  0  0  0  0  0  0  0  0  0  0
   45.7641    7.1666    2.9862 C   0  0  0  0  0  0  0  0  0  0  0  0
   45.8315    8.4836    3.2289 O   0  0  0  0  0  0  0  0  0  0  0  0
   44.9913    6.4478    3.5664 O   0  0  0  0  0  0  0  0  0  0  0  0
   47.5818    7.5851    1.2936 C   0  0  0  0  0  0  0  0  0  0  0  0
   48.4507    7.0997    0.3290 C   0  0  0  0  0  0  0  0  0  0  0  0
   48.4668    5.7479    0.0160 C   0  0  0  0  0  0  0  0  0  0  0  0
   48.8040    2.7006    0.4425 C   0  0  0  0  0  0  0  0  0  0  0  0
   50.0432    3.2504    0.9048 C   0  0  0  0  0  0  0  0  0  0  0  0
   51.0022    2.3298    0.6399 C   0  0  0  0  0  0  0  0  0  0  0  0
   48.9944    1.4169   -0.0168 N   0  0  0  0  0  0  0  0  0  0  0  0
   50.3435    1.2133    0.0400 C   0  0  0  0  0  0  0  0  0  0  0  0
   51.0142    0.1293   -0.5357 C   0  0  0  0  0  0  0  0  0  0  0  0
   50.3261   -0.9887   -1.0151 C   0  0  0  0  0  0  0  0  0  0  0  0
   50.9675   -2.1299   -1.5876 C   0  0  0  0  0  0  0  0  0  0  0  0
   50.0223   -3.0958   -1.6900 C   0  0  0  0  0  0  0  0  0  0  0  0
   48.8050   -2.5388   -1.1811 C   0  0  0  0  0  0  0  0  0  0  0  0
   48.9918   -1.2218   -0.8319 N   0  0  0  0  0  0  0  0  0  0  0  0
   47.6369   -3.2590   -0.9757 C   0  0  0  0  0  0  0  0  0  0  0  0
   47.6483   -4.7227   -1.2001 C   0  0  0  0  0  0  0  0  0  0  0  0
   48.5229   -5.5398   -0.4799 C   0  0  0  0  0  0  0  0  0  0  0  0
   48.5362   -6.9127   -0.6822 C   0  0  0  0  0  0  0  0  0  0  0  0
   47.6810   -7.4866   -1.6080 C   0  0  0  0  0  0  0  0  0  0  0  0
   46.8055   -6.6804   -2.3371 C   0  0  0  0  0  0  0  0  0  0  0  0
   45.9068   -7.3329   -3.3222 C   0  0  0  0  0  0  0  0  0  0  0  0
   45.0999   -6.4750   -3.9637 O   0  0  0  0  0  0  0  0  0  0  0  0
   45.8842   -8.5170   -3.5409 O   0  0  0  0  0  0  0  0  0  0  0  0
   46.7897   -5.3024   -2.1320 C   0  0  0  0  0  0  0  0  0  0  0  0
   46.4547   -2.6405   -0.5887 C   0  0  0  0  0  0  0  0  0  0  0  0
   45.2144   -3.3257   -0.3674 C   0  0  0  0  0  0  0  0  0  0  0  0
   44.2567   -2.3749   -0.2556 C   0  0  0  0  0  0  0  0  0  0  0  0
   44.9157   -1.1107   -0.3819 C   0  0  0  0  0  0  0  0  0  0  0  0
   46.2697   -1.2832   -0.5199 N   0  0  0  0  0  0  0  0  0  0  0  0
   43.1797    0.1024   -0.5084 H   0  0  0  0  0  0  0  0  0  0  0  0
   43.2195    2.7170   -0.7877 H   0  0  0  0  0  0  0  0  0  0  0  0
   45.1044    4.5913   -0.3222 H   0  0  0  0  0  0  0  0  0  0  0  0
   46.0675    4.6760    2.1610 H   0  0  0  0  0  0  0  0  0  0  0  0
   45.1796    8.7045    3.9139 H   0  0  0  0  0  0  0  0  0  0  0  0
   47.5672    8.6401    1.5389 H   0  0  0  0  0  0  0  0  0  0  0  0
   49.1200    7.7787   -0.1872 H   0  0  0  0  0  0  0  0  0  0  0  0
   49.1374    5.3786   -0.7517 H   0  0  0  0  0  0  0  0  0  0  0  0
   50.1552    4.2179    1.3666 H   0  0  0  0  0  0  0  0  0  0  0  0
   52.0626    2.3877    0.8258 H   0  0  0  0  0  0  0  0  0  0  0  0
   52.0109   -2.1757   -1.8552 H   0  0  0  0  0  0  0  0  0  0  0  0
   50.1278   -4.0965   -2.0763 H   0  0  0  0  0  0  0  0  0  0  0  0
   49.1845   -5.0936    0.2542 H   0  0  0  0  0  0  0  0  0  0  0  0
   49.2168   -7.5346   -0.1120 H   0  0  0  0  0  0  0  0  0  0  0  0
   47.6784   -8.5572   -1.7787 H   0  0  0  0  0  0  0  0  0  0  0  0
   44.5487   -6.9772   -4.5857 H   0  0  0  0  0  0  0  0  0  0  0  0
   46.1202   -4.6775   -2.7111 H   0  0  0  0  0  0  0  0  0  0  0  0
   45.1029   -4.3965   -0.3148 H   0  0  0  0  0  0  0  0  0  0  0  0
   43.1965   -2.4987   -0.1029 H   0  0  0  0  0  0  0  0  0  0  0  0
   87.5969    0.2025    0.1597 Co  0  0  0  0  0  0  0  0  0  0  0  0
   90.6664   -0.0177    1.4676 C   0  0  0  0  0  0  0  0  0  0  0  0
   90.1966   -1.0933    0.7399 C   0  0  0  0  0  0  0  0  0  0  0  0
   90.9744   -2.2537    0.4290 C   0  0  0  0  0  0  0  0  0  0  0  0
   90.2042   -3.0392   -0.3608 C   0  0  0  0  0  0  0  0  0  0  0  0
   88.9278   -2.3937   -0.4689 C   0  0  0  0  0  0  0  0  0  0  0  0
   88.9585   -1.1740    0.1589 N   0  0  0  0  0  0  0  0  0  0  0  0
   87.7811   -2.9914   -0.9764 C   0  0  0  0  0  0  0  0  0  0  0  0
   87.8542   -4.3442   -1.5745 C   0  0  0  0  0  0  0  0  0  0  0  0
   88.3220   -5.4336   -0.8455 C   0  0  0  0  0  0  0  0  0  0  0  0
   88.3821   -6.6996   -1.4272 C   0  0  0  0  0  0  0  0  0  0  0  0
   88.8927   -7.8209   -0.5985 C   0  0  0  0  0  0  0  0  0  0  0  0
   88.8968   -9.0000   -1.2367 O   0  0  0  0  0  0  0  0  0  0  0  0
   89.2744   -7.7068    0.5380 O   0  0  0  0  0  0  0  0  0  0  0  0
   87.9705   -6.8839   -2.7469 C   0  0  0  0  0  0  0  0  0  0  0  0
   87.4953   -5.8022   -3.4719 C   0  0  0  0  0  0  0  0  0  0  0  0
   87.4333   -4.5433   -2.8920 C   0  0  0  0  0  0  0  0  0  0  0  0
   86.5331   -2.3943   -0.8471 C   0  0  0  0  0  0  0  0  0  0  0  0
   85.2904   -3.0774   -1.0446 C   0  0  0  0  0  0  0  0  0  0  0  0
   84.3056   -2.1951   -0.7447 C   0  0  0  0  0  0  0  0  0  0  0  0
   86.3066   -1.1021   -0.4433 N   0  0  0  0  0  0  0  0  0  0  0  0
   84.9477   -0.9612   -0.4165 C   0  0  0  0  0  0  0  0  0  0  0  0
   84.2685    0.2570   -0.3124 C   0  0  0  0  0  0  0  0  0  0  0  0
   84.9582    1.4762   -0.2733 C   0  0  0  0  0  0  0  0  0  0  0  0
   84.3445    2.7417   -0.5224 C   0  0  0  0  0  0  0  0  0  0  0  0
   85.3292    3.6715   -0.4593 C   0  0  0  0  0  0  0  0  0  0  0  0
   86.5293    2.9777   -0.0979 C   0  0  0  0  0  0  0  0  0  0  0  0
   86.2953    1.6205   -0.0534 N   0  0  0  0  0  0  0  0  0  0  0  0
   87.6975    3.5920    0.3267 C   0  0  0  0  0  0  0  0  0  0  0  0
   87.8035    5.0693    0.3178 C   0  0  0  0  0  0  0  0  0  0  0  0
   86.9062    5.8630    1.0356 C   0  0  0  0  0  0  0  0  0  0  0  0
   87.0207    7.2463    1.0233 C   0  0  0  0  0  0  0  0  0  0  0  0
   88.0320    7.8538    0.2982 C   0  0  0  0  0  0  0  0  0  0  0  0
   88.9412    7.0708   -0.4148 C   0  0  0  0  0  0  0  0  0  0  0  0
   90.0177    7.7593   -1.1710 C   0  0  0  0  0  0  0  0  0  0  0  0
   90.8494    6.9203   -1.8050 O   0  0  0  0  0  0  0  0  0  0  0  0
   90.1530    8.9549   -1.2225 O   0  0  0  0  0  0  0  0  0  0  0  0
   88.8276    5.6825   -0.4016 C   0  0  0  0  0  0  0  0  0  0  0  0
   88.7512    2.8579    0.8639 C   0  0  0  0  0  0  0  0  0  0  0  0
   89.8440    3.4311    1.5936 C   0  0  0  0  0  0  0  0  0  0  0  0
   90.6221    2.4029    2.0083 C   0  0  0  0  0  0  0  0  0  0  0  0
   90.0315    1.2061    1.4895 C   0  0  0  0  0  0  0  0  0  0  0  0
   88.8633    1.4956    0.8284 N   0  0  0  0  0  0  0  0  0  0  0  0
   91.6320   -0.1058    1.9516 H   0  0  0  0  0  0  0  0  0  0  0  0
   91.9894   -2.4150    0.7555 H   0  0  0  0  0  0  0  0  0  0  0  0
   90.4616   -3.9813   -0.8167 H   0  0  0  0  0  0  0  0  0  0  0  0
   88.6253   -5.3162    0.1889 H   0  0  0  0  0  0  0  0  0  0  0  0
   89.2432   -9.6767   -0.6323 H   0  0  0  0  0  0  0  0  0  0  0  0
   88.0210   -7.8677   -3.1974 H   0  0  0  0  0  0  0  0  0  0  0  0
   87.1706   -5.9386   -4.4973 H   0  0  0  0  0  0  0  0  0  0  0  0
   87.0675   -3.6991   -3.4659 H   0  0  0  0  0  0  0  0  0  0  0  0
   85.1957   -4.1086   -1.3441 H   0  0  0  0  0  0  0  0  0  0  0  0
   83.2379   -2.3420   -0.7717 H   0  0  0  0  0  0  0  0  0  0  0  0
   83.2994    2.8821   -0.7470 H   0  0  0  0  0  0  0  0  0  0  0  0
   85.2530    4.7339   -0.6235 H   0  0  0  0  0  0  0  0  0  0  0  0
   86.1273    5.3904    1.6232 H   0  0  0  0  0  0  0  0  0  0  0  0
   86.3181    7.8494    1.5870 H   0  0  0  0  0  0  0  0  0  0  0  0
   88.1351    8.9328    0.2778 H   0  0  0  0  0  0  0  0  0  0  0  0
   91.5202    7.4449   -2.2716 H   0  0  0  0  0  0  0  0  0  0  0  0
   89.5291    5.0760   -0.9622 H   0  0  0  0  0  0  0  0  0  0  0  0
   89.9733    4.4852    1.7787 H   0  0  0  0  0  0  0  0  0  0  0  0
   91.5329    2.4354    2.5847 H   0  0  0  0  0  0  0  0  0  0  0  0
   53.6328    0.2021   -0.7005 C   0  0  0  0  0  0  0  0  0  0  0  0
   52.4133    0.1612   -0.6179 C   0  0  0  0  0  0  0  0  0  0  0  0
   54.9752    0.2607   -0.8046 C   0  0  0  0  0  0  0  0  0  0  0  0
   56.1918    0.3238   -0.9141 C   0  0  0  0  0  0  0  0  0  0  0  0
   66.9566    0.4392   -0.9962 C   0  0  0  0  0  0  0  0  0  0  0  0
   65.7341    0.4547   -1.0481 C   0  0  0  0  0  0  0  0  0  0  0  0
   68.3033    0.4344   -0.9732 C   0  0  0  0  0  0  0  0  0  0  0  0
   69.5268    0.4414   -0.9858 C   0  0  0  0  0  0  0  0  0  0  0  0
   80.3040    0.3233   -0.5300 C   0  0  0  0  0  0  0  0  0  0  0  0
   79.0854    0.3547   -0.6333 C   0  0  0  0  0  0  0  0  0  0  0  0
   81.6478    0.2959   -0.4386 C   0  0  0  0  0  0  0  0  0  0  0  0
   82.8696    0.2720   -0.3826 C   0  0  0  0  0  0  0  0  0  0  0  0
   60.9563    0.5357   -1.3007 Co  0  0  0  0  0  0  0  0  0  0  0  0
   57.5830    0.4052   -1.0578 C   0  0  0  0  0  0  0  0  0  0  0  0
   58.2347   -0.5107   -1.8923 C   0  0  0  0  0  0  0  0  0  0  0  0
   57.5533   -1.4587   -2.7148 C   0  0  0  0  0  0  0  0  0  0  0  0
   58.5083   -2.2138   -3.3106 C   0  0  0  0  0  0  0  0  0  0  0  0
   59.7683   -1.7520   -2.8106 C   0  0  0  0  0  0  0  0  0  0  0  0
   59.5870   -0.6545   -1.9992 N   0  0  0  0  0  0  0  0  0  0  0  0
   60.9700   -2.4275   -2.9676 C   0  0  0  0  0  0  0  0  0  0  0  0
   60.9992   -3.6962   -3.7302 C   0  0  0  0  0  0  0  0  0  0  0  0
   60.2031   -4.7747   -3.3549 C   0  0  0  0  0  0  0  0  0  0  0  0
   60.2410   -5.9661   -4.0780 C   0  0  0  0  0  0  0  0  0  0  0  0
   59.3673   -7.0796   -3.6280 C   0  0  0  0  0  0  0  0  0  0  0  0
   59.4861   -8.1878   -4.3728 O   0  0  0  0  0  0  0  0  0  0  0  0
   58.6147   -7.0157   -2.6901 O   0  0  0  0  0  0  0  0  0  0  0  0
   61.0789   -6.0855   -5.1864 C   0  0  0  0  0  0  0  0  0  0  0  0
   61.8752   -5.0141   -5.5600 C   0  0  0  0  0  0  0  0  0  0  0  0
   61.8400   -3.8297   -4.8382 C   0  0  0  0  0  0  0  0  0  0  0  0
   62.1468   -1.9797   -2.3799 C   0  0  0  0  0  0  0  0  0  0  0  0
   63.3655   -2.7288   -2.3373 C   0  0  0  0  0  0  0  0  0  0  0  0
   64.2990   -1.9244   -1.7718 C   0  0  0  0  0  0  0  0  0  0  0  0
   62.3239   -0.7428   -1.8107 N   0  0  0  0  0  0  0  0  0  0  0  0
   63.6510   -0.6827   -1.4904 C   0  0  0  0  0  0  0  0  0  0  0  0
   64.3374    0.4856   -1.1439 C   0  0  0  0  0  0  0  0  0  0  0  0
   63.6732    1.7083   -0.9853 C   0  0  0  0  0  0  0  0  0  0  0  0
   64.3432    2.9614   -0.8404 C   0  0  0  0  0  0  0  0  0  0  0  0
   63.3812    3.8964   -0.6465 C   0  0  0  0  0  0  0  0  0  0  0  0
   62.1296    3.2006   -0.6276 C   0  0  0  0  0  0  0  0  0  0  0  0
   62.3209    1.8663   -0.9116 N   0  0  0  0  0  0  0  0  0  0  0  0
   60.9313    3.7531   -0.2017 C   0  0  0  0  0  0  0  0  0  0  0  0
   60.8926    5.1692    0.2298 C   0  0  0  0  0  0  0  0  0  0  0  0
   60.0305    6.0687   -0.4021 C   0  0  0  0  0  0  0  0  0  0  0  0
   59.9852    7.3989   -0.0094 C   0  0  0  0  0  0  0  0  0  0  0  0
   60.7937    7.8461    1.0223 C   0  0  0  0  0  0  0  0  0  0  0  0
   61.6531    6.9551    1.6668 C   0  0  0  0  0  0  0  0  0  0  0  0
   62.4996    7.4725    2.7717 C   0  0  0  0  0  0  0  0  0  0  0  0
   63.2940    6.5422    3.3199 O   0  0  0  0  0  0  0  0  0  0  0  0
   62.4915    8.6141    3.1549 O   0  0  0  0  0  0  0  0  0  0  0  0
   61.7018    5.6203    1.2704 C   0  0  0  0  0  0  0  0  0  0  0  0
   59.7656    3.0009   -0.1123 C   0  0  0  0  0  0  0  0  0  0  0  0
   58.5585    3.4529    0.5091 C   0  0  0  0  0  0  0  0  0  0  0  0
   57.6336    2.4795    0.3194 C   0  0  0  0  0  0  0  0  0  0  0  0
   58.2739    1.4497   -0.4354 C   0  0  0  0  0  0  0  0  0  0  0  0
   59.5911    1.7487   -0.6462 N   0  0  0  0  0  0  0  0  0  0  0  0
   56.4822   -1.5202   -2.8202 H   0  0  0  0  0  0  0  0  0  0  0  0
   58.3792   -3.0211   -4.0127 H   0  0  0  0  0  0  0  0  0  0  0  0
   59.5594   -4.7077   -2.4847 H   0  0  0  0  0  0  0  0  0  0  0  0
   58.8866   -8.8642   -4.0178 H   0  0  0  0  0  0  0  0  0  0  0  0
   61.1049   -7.0114   -5.7482 H   0  0  0  0  0  0  0  0  0  0  0  0
   62.5287   -5.0998   -6.4207 H   0  0  0  0  0  0  0  0  0  0  0  0
   62.4579   -2.9917   -5.1410 H   0  0  0  0  0  0  0  0  0  0  0  0
   63.4785   -3.7428   -2.6851 H   0  0  0  0  0  0  0  0  0  0  0  0
   65.3387   -2.1312   -1.5762 H   0  0  0  0  0  0  0  0  0  0  0  0
   65.4117    3.0947   -0.8932 H   0  0  0  0  0  0  0  0  0  0  0  0
   63.5004    4.9592   -0.5131 H   0  0  0  0  0  0  0  0  0  0  0  0
   59.4039    5.7214   -1.2160 H   0  0  0  0  0  0  0  0  0  0  0  0
   59.3156    8.0868   -0.5130 H   0  0  0  0  0  0  0  0  0  0  0  0
   60.7706    8.8816    1.3425 H   0  0  0  0  0  0  0  0  0  0  0  0
   63.8094    6.9568    4.0309 H   0  0  0  0  0  0  0  0  0  0  0  0
   62.3563    4.9272    1.7855 H   0  0  0  0  0  0  0  0  0  0  0  0
   58.4472    4.3889    1.0318 H   0  0  0  0  0  0  0  0  0  0  0  0
   56.6031    2.4573    0.6353 H   0  0  0  0  0  0  0  0  0  0  0  0
   74.3163    0.4738   -1.0747 Co  0  0  0  0  0  0  0  0  0  0  0  0
   70.9265    0.4584   -1.0288 C   0  0  0  0  0  0  0  0  0  0  0  0
   71.5994   -0.5943   -1.6603 C   0  0  0  0  0  0  0  0  0  0  0  0
   70.9399   -1.6481   -2.3640 C   0  0  0  0  0  0  0  0  0  0  0  0
   71.9035   -2.5192   -2.7507 C   0  0  0  0  0  0  0  0  0  0  0  0
   73.1435   -2.0117   -2.2445 C   0  0  0  0  0  0  0  0  0  0  0  0
   72.9491   -0.7894   -1.6407 N   0  0  0  0  0  0  0  0  0  0  0  0
   74.3285   -2.7309   -2.2082 C   0  0  0  0  0  0  0  0  0  0  0  0
   74.3594   -4.1112   -2.7433 C   0  0  0  0  0  0  0  0  0  0  0  0
   73.5122   -5.0930   -2.2376 C   0  0  0  0  0  0  0  0  0  0  0  0
   73.5530   -6.3911   -2.7449 C   0  0  0  0  0  0  0  0  0  0  0  0
   72.6260   -7.3942   -2.1621 C   0  0  0  0  0  0  0  0  0  0  0  0
   72.7587   -8.6181   -2.6930 O   0  0  0  0  0  0  0  0  0  0  0  0
   71.8232   -7.1551   -1.2970 O   0  0  0  0  0  0  0  0  0  0  0  0
   74.4438   -6.7147   -3.7681 C   0  0  0  0  0  0  0  0  0  0  0  0
   75.2893   -5.7389   -4.2725 C   0  0  0  0  0  0  0  0  0  0  0  0
   75.2520   -4.4485   -3.7640 C   0  0  0  0  0  0  0  0  0  0  0  0
   75.4875   -2.2123   -1.6430 C   0  0  0  0  0  0  0  0  0  0  0  0
   76.6842   -2.9647   -1.4204 C   0  0  0  0  0  0  0  0  0  0  0  0
   77.6179   -2.0893   -0.9726 C   0  0  0  0  0  0  0  0  0  0  0  0
   75.6733   -0.8986   -1.2897 N   0  0  0  0  0  0  0  0  0  0  0  0
   76.9908   -0.8064   -0.9380 C   0  0  0  0  0  0  0  0  0  0  0  0
   77.6929    0.3926   -0.7797 C   0  0  0  0  0  0  0  0  0  0  0  0
   77.0485    1.6339   -0.8367 C   0  0  0  0  0  0  0  0  0  0  0  0
   77.7366    2.8853   -0.8442 C   0  0  0  0  0  0  0  0  0  0  0  0
   76.7869    3.8510   -0.7852 C   0  0  0  0  0  0  0  0  0  0  0  0
   75.5240    3.1809   -0.7061 C   0  0  0  0  0  0  0  0  0  0  0  0
   75.6970    1.8194   -0.8118 N   0  0  0  0  0  0  0  0  0  0  0  0
   74.3250    3.8040   -0.3916 C   0  0  0  0  0  0  0  0  0  0  0  0
   74.3136    5.2607   -0.1230 C   0  0  0  0  0  0  0  0  0  0  0  0
   73.5172    6.1116   -0.8927 C   0  0  0  0  0  0  0  0  0  0  0  0
   73.5003    7.4774   -0.6470 C   0  0  0  0  0  0  0  0  0  0  0  0
   74.2708    8.0090    0.3737 C   0  0  0  0  0  0  0  0  0  0  0  0
   75.0648    7.1677    1.1545 C   0  0  0  0  0  0  0  0  0  0  0  0
   75.8696    7.7749    2.2448 C   0  0  0  0  0  0  0  0  0  0  0  0
   76.5915    6.8837    2.9390 O   0  0  0  0  0  0  0  0  0  0  0  0
   75.8881    8.9516    2.4998 O   0  0  0  0  0  0  0  0  0  0  0  0
   75.0870    5.7973    0.9042 C   0  0  0  0  0  0  0  0  0  0  0  0
   73.1358    3.0967   -0.2727 C   0  0  0  0  0  0  0  0  0  0  0  0
   71.9080    3.6560    0.2048 C   0  0  0  0  0  0  0  0  0  0  0  0
   70.9611    2.6959    0.0645 C   0  0  0  0  0  0  0  0  0  0  0  0
   71.6123    1.5615   -0.5102 C   0  0  0  0  0  0  0  0  0  0  0  0
   72.9506    1.7916   -0.6597 N   0  0  0  0  0  0  0  0  0  0  0  0
   69.8771   -1.6977   -2.5376 H   0  0  0  0  0  0  0  0  0  0  0  0
   71.7925   -3.4304   -3.3153 H   0  0  0  0  0  0  0  0  0  0  0  0
   72.8250   -4.8649   -1.4301 H   0  0  0  0  0  0  0  0  0  0  0  0
   72.1237   -9.2122   -2.2608 H   0  0  0  0  0  0  0  0  0  0  0  0
   74.4718   -7.7232   -4.1626 H   0  0  0  0  0  0  0  0  0  0  0  0
   75.9834   -5.9831   -5.0686 H   0  0  0  0  0  0  0  0  0  0  0  0
   75.9094   -3.6873   -4.1688 H   0  0  0  0  0  0  0  0  0  0  0  0
   76.7843   -4.0260   -1.5796 H   0  0  0  0  0  0  0  0  0  0  0  0
   78.6456   -2.2766   -0.7061 H   0  0  0  0  0  0  0  0  0  0  0  0
   78.8079    2.9951   -0.8925 H   0  0  0  0  0  0  0  0  0  0  0  0
   76.9205    4.9204   -0.7827 H   0  0  0  0  0  0  0  0  0  0  0  0
   72.9200    5.6974   -1.6972 H   0  0  0  0  0  0  0  0  0  0  0  0
   72.8823    8.1268   -1.2565 H   0  0  0  0  0  0  0  0  0  0  0  0
   74.2676    9.0732    0.5808 H   0  0  0  0  0  0  0  0  0  0  0  0
   77.0822    7.3561    3.6310 H   0  0  0  0  0  0  0  0  0  0  0  0
   75.6926    5.1445    1.5217 H   0  0  0  0  0  0  0  0  0  0  0  0
   71.7973    4.6519    0.6019 H   0  0  0  0  0  0  0  0  0  0  0  0
   69.9113    2.7430    0.3051 H   0  0  0  0  0  0  0  0  0  0  0  0
  2  3  4  0  0  0  0
  3  4  1  0  0  0  0
  4  5  2  0  0  0  0
  5  6  4  0  0  0  0
  1  7  1  0  0  0  0
  3  7  4  0  0  0  0
  6  7  4  0  0  0  0
  6  8  4  0  0  0  0
  8  9  1  0  0  0  0
  9 10  4  0  0  0  0
 10 11  4  0  0  0  0
 11 12  1  0  0  0  0
 12 13  4  0  0  0  0
 12 14  2  0  0  0  0
 11 15  4  0  0  0  0
 15 16  4  0  0  0  0
  9 17  4  0  0  0  0
 16 17  4  0  0  0  0
  8 18  4  0  0  0  0
 18 19  4  0  0  0  0
 19 20  2  0  0  0  0
  1 21  1  0  0  0  0
 18 21  4  0  0  0  0
 20 22  4  0  0  0  0
 21 22  4  0  0  0  0
 22 23  4  0  0  0  0
 23 24  4  0  0  0  0
 24 25  4  0  0  0  0
 25 26  2  0  0  0  0
 26 27  4  0  0  0  0
  1 28  1  0  0  0  0
 24 28  4  0  0  0  0
 27 28  4  0  0  0  0
 27 29  4  0  0  0  0
 29 30  1  0  0  0  0
 30 31  4  0  0  0  0
 31 32  4  0  0  0  0
 32 33  4  0  0  0  0
 33 34  4  0  0  0  0
 34 35  1  0  0  0  0
 35 36  4  0  0  0  0
 35 37  2  0  0  0  0
 30 38  4  0  0  0  0
 34 38  4  0  0  0  0
 29 39  4  0  0  0  0
 39 40  4  0  0  0  0
 40 41  2  0  0  0  0
  2 42  4  0  0  0  0
 41 42  1  0  0  0  0
  1 43  1  0  0  0  0
 39 43  4  0  0  0  0
 42 43  4  0  0  0  0
  2 44  1  0  0  0  0
  4 45  1  0  0  0  0
  5 46  1  0  0  0  0
 10 47  1  0  0  0  0
 13 48  1  0  0  0  0
 15 49  1  0  0  0  0
 16 50  1  0  0  0  0
 17 51  1  0  0  0  0
 19 52  1  0  0  0  0
 20 53  1  0  0  0  0
 25 54  1  0  0  0  0
 26 55  1  0  0  0  0
 31 56  1  0  0  0  0
 32 57  1  0  0  0  0
 33 58  1  0  0  0  0
 36 59  1  0  0  0  0
 38 60  1  0  0  0  0
 40 61  1  0  0  0  0
 41 62  1  0  0  0  0
 64 65  4  0  0  0  0
 65 66  1  0  0  0  0
 66 67  2  0  0  0  0
 67 68  4  0  0  0  0
 63 69  1  0  0  0  0
 65 69  4  0  0  0  0
 68 69  4  0  0  0  0
 68 70  4  0  0  0  0
 70 71  1  0  0  0  0
 71 72  4  0  0  0  0
 72 73  4  0  0  0  0
 73 74  1  0  0  0  0
 74 75  4  0  0  0  0
 74 76  2  0  0  0  0
 73 77  4  0  0  0  0
 77 78  4  0  0  0  0
 71 79  4  0  0  0  0
 78 79  4  0  0  0  0
 70 80  4  0  0  0  0
 80 81  4  0  0  0  0
 81 82  2  0  0  0  0
 63 83  1  0  0  0  0
 80 83  4  0  0  0  0
 82 84  4  0  0  0  0
 83 84  4  0  0  0  0
 84 85  4  0  0  0  0
 85 86  4  0  0  0  0
 86 87  4  0  0  0  0
 87 88  2  0  0  0  0
 88 89  4  0  0  0  0
 63 90  1  0  0  0  0
 86 90  4  0  0  0  0
 89 90  4  0  0  0  0
 89 91  4  0  0  0  0
 91 92  1  0  0  0  0
 92 93  4  0  0  0  0
 93 94  4  0  0  0  0
 94 95  4  0  0  0  0
 95 96  4  0  0  0  0
 96 97  1  0  0  0  0
 97 98  4  0  0  0  0
 97 99  2  0  0  0  0
 92100  4  0  0  0  0
 96100  4  0  0  0  0
 91101  4  0  0  0  0
101102  4  0  0  0  0
102103  2  0  0  0  0
 64104  4  0  0  0  0
103104  1  0  0  0  0
 63105  1  0  0  0  0
101105  4  0  0  0  0
104105  4  0  0  0  0
 64106  1  0  0  0  0
 66107  1  0  0  0  0
 67108  1  0  0  0  0
 72109  1  0  0  0  0
 75110  1  0  0  0  0
 77111  1  0  0  0  0
 78112  1  0  0  0  0
 79113  1  0  0  0  0
 81114  1  0  0  0  0
 82115  1  0  0  0  0
 87116  1  0  0  0  0
 88117  1  0  0  0  0
 93118  1  0  0  0  0
 94119  1  0  0  0  0
 95120  1  0  0  0  0
 98121  1  0  0  0  0
100122  1  0  0  0  0
102123  1  0  0  0  0
103124  1  0  0  0  0
 23126  4  0  0  0  0
125126  3  0  0  0  0
125127  4  0  0  0  0
127128  3  0  0  0  0
129130  3  0  0  0  0
129131  4  0  0  0  0
131132  3  0  0  0  0
133134  3  0  0  0  0
133135  4  0  0  0  0
 85136  4  0  0  0  0
135136  3  0  0  0  0
128138  4  0  0  0  0
138139  4  0  0  0  0
139140  4  0  0  0  0
140141  2  0  0  0  0
141142  4  0  0  0  0
137143  1  0  0  0  0
139143  4  0  0  0  0
142143  4  0  0  0  0
142144  4  0  0  0  0
144145  1  0  0  0  0
145146  4  0  0  0  0
146147  4  0  0  0  0
147148  1  0  0  0  0
148149  4  0  0  0  0
148150  2  0  0  0  0
147151  4  0  0  0  0
151152  4  0  0  0  0
145153  4  0  0  0  0
152153  4  0  0  0  0
144154  4  0  0  0  0
154155  4  0  0  0  0
155156  2  0  0  0  0
137157  1  0  0  0  0
154157  4  0  0  0  0
156158  4  0  0  0  0
157158  4  0  0  0  0
130159  4  0  0  0  0
158159  4  0  0  0  0
159160  4  0  0  0  0
160161  4  0  0  0  0
161162  2  0  0  0  0
162163  4  0  0  0  0
137164  1  0  0  0  0
160164  4  0  0  0  0
163164  4  0  0  0  0
163165  4  0  0  0  0
165166  1  0  0  0  0
166167  4  0  0  0  0
167168  4  0  0  0  0
168169  4  0  0  0  0
169170  4  0  0  0  0
170171  1  0  0  0  0
171172  4  0  0  0  0
171173  2  0  0  0  0
166174  4  0  0  0  0
170174  4  0  0  0  0
165175  4  0  0  0  0
175176  4  0  0  0  0
176177  2  0  0  0  0
138178  4  0  0  0  0
177178  4  0  0  0  0
137179  1  0  0  0  0
175179  4  0  0  0  0
178179  4  0  0  0  0
140180  1  0  0  0  0
141181  1  0  0  0  0
146182  1  0  0  0  0
149183  1  0  0  0  0
151184  1  0  0  0  0
152185  1  0  0  0  0
153186  1  0  0  0  0
155187  1  0  0  0  0
156188  1  0  0  0  0
161189  1  0  0  0  0
162190  1  0  0  0  0
167191  1  0  0  0  0
168192  1  0  0  0  0
169193  1  0  0  0  0
172194  1  0  0  0  0
174195  1  0  0  0  0
176196  1  0  0  0  0
177197  1  0  0  0  0
132199  4  0  0  0  0
199200  4  0  0  0  0
200201  4  0  0  0  0
201202  2  0  0  0  0
202203  4  0  0  0  0
198204  1  0  0  0  0
200204  4  0  0  0  0
203204  4  0  0  0  0
203205  4  0  0  0  0
205206  1  0  0  0  0
206207  4  0  0  0  0
207208  4  0  0  0  0
208209  1  0  0  0  0
209210  4  0  0  0  0
209211  2  0  0  0  0
208212  4  0  0  0  0
212213  4  0  0  0  0
206214  4  0  0  0  0
213214  4  0  0  0  0
205215  4  0  0  0  0
215216  4  0  0  0  0
216217  2  0  0  0  0
198218  1  0  0  0  0
215218  4  0  0  0  0
217219  4  0  0  0  0
218219  4  0  0  0  0
134220  4  0  0  0  0
219220  4  0  0  0  0
220221  4  0  0  0  0
221222  4  0  0  0  0
222223  2  0  0  0  0
223224  4  0  0  0  0
198225  1  0  0  0  0
221225  4  0  0  0  0
224225  4  0  0  0  0
224226  4  0  0  0  0
226227  1  0  0  0  0
227228  4  0  0  0  0
228229  4  0  0  0  0
229230  4  0  0  0  0
230231  4  0  0  0  0
231232  1  0  0  0  0
232233  4  0  0  0  0
232234  2  0  0  0  0
227235  4  0  0  0  0
231235  4  0  0  0  0
226236  4  0  0  0  0
236237  4  0  0  0  0
237238  2  0  0  0  0
199239  4  0  0  0  0
238239  4  0  0  0  0
198240  1  0  0  0  0
236240  4  0  0  0  0
239240  4  0  0  0  0
201241  1  0  0  0  0
202242  1  0  0  0  0
207243  1  0  0  0  0
210244  1  0  0  0  0
212245  1  0  0  0  0
213246  1  0  0  0  0
214247  1  0  0  0  0
216248  1  0  0  0  0
217249  1  0  0  0  0
222250  1  0  0  0  0
223251  1  0  0  0  0
228252  1  0  0  0  0
229253  1  0  0  0  0
230254  1  0  0  0  0
233255  1  0  0  0  0
235256  1  0  0  0  0
237257  1  0  0  0  0
238258  1  0  0  0  0
M  END
