 xtb: 6.5.1 (b24c23e)
          07282201323D

252279  0     0  0            999 V2000
   35.9539    0.0729   -0.0091 C   0  0  0  0  0  0  0  0  0  0  0  0
   36.5616    1.2445    0.4228 C   0  0  0  0  0  0  0  0  0  0  0  0
   35.9087    2.4285    0.8668 C   0  0  0  0  0  0  0  0  0  0  0  0
   36.8706    3.3413    1.1966 C   0  0  0  0  0  0  0  0  0  0  0  0
   38.1429    2.7485    0.9550 C   0  0  0  0  0  0  0  0  0  0  0  0
   37.9049    1.4824    0.4994 N   0  0  0  0  0  0  0  0  0  0  0  0
   39.4048    3.3185    1.1549 C   0  0  0  0  0  0  0  0  0  0  0  0
   39.4344    4.7231    1.6326 C   0  0  0  0  0  0  0  0  0  0  0  0
   38.9087    5.7233    0.9094 C   0  0  0  0  0  0  0  0  0  0  0  0
   38.9076    7.1535    1.3831 C   0  0  0  0  0  0  0  0  0  0  0  0
   39.8386    7.3450    2.4984 N   0  0  0  0  0  0  0  0  0  0  0  0
   40.1988    6.2932    3.2994 C   0  0  0  0  0  0  0  0  0  0  0  0
   40.0594    5.0121    2.9151 C   0  0  0  0  0  0  0  0  0  0  0  0
   40.6215    2.6669    0.9374 C   0  0  0  0  0  0  0  0  0  0  0  0
   41.9173    3.2993    1.1071 C   0  0  0  0  0  0  0  0  0  0  0  0
   42.8420    2.3683    0.7940 C   0  0  0  0  0  0  0  0  0  0  0  0
   40.7807    1.3819    0.5174 N   0  0  0  0  0  0  0  0  0  0  0  0
   42.1102    1.1708    0.4279 C   0  0  0  0  0  0  0  0  0  0  0  0
   42.7501   -0.0243    0.0436 C   0  0  0  0  0  0  0  0  0  0  0  0
   42.1153   -1.2174   -0.3505 C   0  0  0  0  0  0  0  0  0  0  0  0
   42.7595   -2.4310   -0.7097 C   0  0  0  0  0  0  0  0  0  0  0  0
   41.7925   -3.3433   -1.0297 C   0  0  0  0  0  0  0  0  0  0  0  0
   40.5265   -2.7117   -0.8839 C   0  0  0  0  0  0  0  0  0  0  0  0
   40.7738   -1.4302   -0.4660 N   0  0  0  0  0  0  0  0  0  0  0  0
   39.2659   -3.2804   -1.0961 C   0  0  0  0  0  0  0  0  0  0  0  0
   39.2384   -4.6897   -1.5564 C   0  0  0  0  0  0  0  0  0  0  0  0
   38.6480   -5.6532   -0.8333 C   0  0  0  0  0  0  0  0  0  0  0  0
   38.5901   -7.0877   -1.2893 C   0  0  0  0  0  0  0  0  0  0  0  0
   39.5549   -7.3427   -2.3625 N   0  0  0  0  0  0  0  0  0  0  0  0
   39.9813   -6.3226   -3.1729 C   0  0  0  0  0  0  0  0  0  0  0  0
   39.8859   -5.0297   -2.8157 C   0  0  0  0  0  0  0  0  0  0  0  0
   38.0483   -2.6180   -0.9074 C   0  0  0  0  0  0  0  0  0  0  0  0
   36.7466   -3.1999   -1.1958 C   0  0  0  0  0  0  0  0  0  0  0  0
   35.8300   -2.2602   -0.8872 C   0  0  0  0  0  0  0  0  0  0  0  0
   36.5706   -1.1014   -0.4218 C   0  0  0  0  0  0  0  0  0  0  0  0
   37.9026   -1.3493   -0.4559 N   0  0  0  0  0  0  0  0  0  0  0  0
   34.8687    0.0850   -0.0226 H   0  0  0  0  0  0  0  0  0  0  0  0
   34.8388    2.5506    0.9275 H   0  0  0  0  0  0  0  0  0  0  0  0
   36.7186    4.3364    1.5821 H   0  0  0  0  0  0  0  0  0  0  0  0
   38.6301    0.8160    0.2561 H   0  0  0  0  0  0  0  0  0  0  0  0
   38.4438    5.5484   -0.0540 H   0  0  0  0  0  0  0  0  0  0  0  0
   37.8869    7.4539    1.6859 H   0  0  0  0  0  0  0  0  0  0  0  0
   39.2129    7.8225    0.5670 H   0  0  0  0  0  0  0  0  0  0  0  0
   39.7559    8.2440    2.9504 H   0  0  0  0  0  0  0  0  0  0  0  0
   40.6797    6.5756    4.2305 H   0  0  0  0  0  0  0  0  0  0  0  0
   40.3952    4.1964    3.5393 H   0  0  0  0  0  0  0  0  0  0  0  0
   42.0746    4.3203    1.4155 H   0  0  0  0  0  0  0  0  0  0  0  0
   43.9165    2.4587    0.7968 H   0  0  0  0  0  0  0  0  0  0  0  0
   43.8274   -2.5788   -0.7142 H   0  0  0  0  0  0  0  0  0  0  0  0
   41.9389   -4.3664   -1.3358 H   0  0  0  0  0  0  0  0  0  0  0  0
   40.0524   -0.7460   -0.2632 H   0  0  0  0  0  0  0  0  0  0  0  0
   38.1660   -5.4414    0.1140 H   0  0  0  0  0  0  0  0  0  0  0  0
   37.5681   -7.3384   -1.6305 H   0  0  0  0  0  0  0  0  0  0  0  0
   38.8267   -7.7603   -0.4538 H   0  0  0  0  0  0  0  0  0  0  0  0
   39.4456   -8.2450   -2.8024 H   0  0  0  0  0  0  0  0  0  0  0  0
   40.4768   -6.6427   -4.0840 H   0  0  0  0  0  0  0  0  0  0  0  0
   40.2706   -4.2413   -3.4470 H   0  0  0  0  0  0  0  0  0  0  0  0
   36.5815   -4.1881   -1.5938 H   0  0  0  0  0  0  0  0  0  0  0  0
   34.7552   -2.3133   -0.9654 H   0  0  0  0  0  0  0  0  0  0  0  0
   90.8806   -0.0552   -0.0521 C   0  0  0  0  0  0  0  0  0  0  0  0
   90.2734   -1.2757   -0.3168 C   0  0  0  0  0  0  0  0  0  0  0  0
   90.9264   -2.5165   -0.5605 C   0  0  0  0  0  0  0  0  0  0  0  0
   89.9649   -3.4623   -0.7798 C   0  0  0  0  0  0  0  0  0  0  0  0
   88.6929   -2.8281   -0.6879 C   0  0  0  0  0  0  0  0  0  0  0  0
   88.9304   -1.5141   -0.3975 N   0  0  0  0  0  0  0  0  0  0  0  0
   87.4314   -3.4133   -0.8410 C   0  0  0  0  0  0  0  0  0  0  0  0
   87.4024   -4.8572   -1.1822 C   0  0  0  0  0  0  0  0  0  0  0  0
   87.9443   -5.3232   -2.3174 C   0  0  0  0  0  0  0  0  0  0  0  0
   87.9463   -6.7871   -2.6741 C   0  0  0  0  0  0  0  0  0  0  0  0
   86.9998   -7.5378   -1.8448 N   0  0  0  0  0  0  0  0  0  0  0  0
   86.6217   -7.0697   -0.6138 C   0  0  0  0  0  0  0  0  0  0  0  0
   86.7598   -5.7801   -0.2581 C   0  0  0  0  0  0  0  0  0  0  0  0
   86.2144   -2.7421   -0.6974 C   0  0  0  0  0  0  0  0  0  0  0  0
   84.9199   -3.3637   -0.9116 C   0  0  0  0  0  0  0  0  0  0  0  0
   83.9945   -2.4068   -0.6929 C   0  0  0  0  0  0  0  0  0  0  0  0
   86.0539   -1.4308   -0.3692 N   0  0  0  0  0  0  0  0  0  0  0  0
   84.7245   -1.2011   -0.3513 C   0  0  0  0  0  0  0  0  0  0  0  0
   84.0834    0.0149   -0.0419 C   0  0  0  0  0  0  0  0  0  0  0  0
   84.7171    1.2317    0.2735 C   0  0  0  0  0  0  0  0  0  0  0  0
   84.0718    2.4504    0.6128 C   0  0  0  0  0  0  0  0  0  0  0  0
   85.0384    3.3906    0.8400 C   0  0  0  0  0  0  0  0  0  0  0  0
   86.3053    2.7765    0.6382 C   0  0  0  0  0  0  0  0  0  0  0  0
   86.0589    1.4706    0.3037 N   0  0  0  0  0  0  0  0  0  0  0  0
   87.5657    3.3685    0.7748 C   0  0  0  0  0  0  0  0  0  0  0  0
   87.5923    4.8061    1.1373 C   0  0  0  0  0  0  0  0  0  0  0  0
   88.1724    5.2344    2.2686 C   0  0  0  0  0  0  0  0  0  0  0  0
   88.2305    6.6910    2.6478 C   0  0  0  0  0  0  0  0  0  0  0  0
   87.2755    7.4813    1.8661 N   0  0  0  0  0  0  0  0  0  0  0  0
   86.8604    7.0512    0.6325 C   0  0  0  0  0  0  0  0  0  0  0  0
   86.9562    5.7666    0.2466 C   0  0  0  0  0  0  0  0  0  0  0  0
   88.7840    2.7053    0.5938 C   0  0  0  0  0  0  0  0  0  0  0  0
   90.0861    3.3491    0.6736 C   0  0  0  0  0  0  0  0  0  0  0  0
   91.0035    2.3876    0.4453 C   0  0  0  0  0  0  0  0  0  0  0  0
   90.2632    1.1602    0.2146 C   0  0  0  0  0  0  0  0  0  0  0  0
   88.9305    1.3907    0.3023 N   0  0  0  0  0  0  0  0  0  0  0  0
   91.9660   -0.0608   -0.0559 H   0  0  0  0  0  0  0  0  0  0  0  0
   91.9959   -2.6552   -0.5586 H   0  0  0  0  0  0  0  0  0  0  0  0
   90.1168   -4.5106   -0.9797 H   0  0  0  0  0  0  0  0  0  0  0  0
   88.2052   -0.8184   -0.2596 H   0  0  0  0  0  0  0  0  0  0  0  0
   88.4225   -4.6656   -3.0341 H   0  0  0  0  0  0  0  0  0  0  0  0
   88.9640   -7.2056   -2.5607 H   0  0  0  0  0  0  0  0  0  0  0  0
   87.6570   -6.9206   -3.7255 H   0  0  0  0  0  0  0  0  0  0  0  0
   87.0805   -8.5399   -1.9373 H   0  0  0  0  0  0  0  0  0  0  0  0
   86.1284   -7.8012    0.0183 H   0  0  0  0  0  0  0  0  0  0  0  0
   86.4101   -5.4185    0.6983 H   0  0  0  0  0  0  0  0  0  0  0  0
   84.7642   -4.3911   -1.1987 H   0  0  0  0  0  0  0  0  0  0  0  0
   82.9206   -2.4818   -0.7551 H   0  0  0  0  0  0  0  0  0  0  0  0
   83.0034    2.5796    0.6772 H   0  0  0  0  0  0  0  0  0  0  0  0
   84.8910    4.4191    1.1269 H   0  0  0  0  0  0  0  0  0  0  0  0
   86.7809    0.7826    0.1167 H   0  0  0  0  0  0  0  0  0  0  0  0
   88.6457    4.5490    2.9619 H   0  0  0  0  0  0  0  0  0  0  0  0
   89.2551    7.0821    2.5027 H   0  0  0  0  0  0  0  0  0  0  0  0
   87.9839    6.8156    3.7108 H   0  0  0  0  0  0  0  0  0  0  0  0
   87.3866    8.4789    1.9758 H   0  0  0  0  0  0  0  0  0  0  0  0
   86.3730    7.8090    0.0272 H   0  0  0  0  0  0  0  0  0  0  0  0
   86.5802    5.4370   -0.7116 H   0  0  0  0  0  0  0  0  0  0  0  0
   90.2510    4.3974    0.8641 H   0  0  0  0  0  0  0  0  0  0  0  0
   92.0788    2.4722    0.4195 H   0  0  0  0  0  0  0  0  0  0  0  0
   47.9563   -0.0765    0.0471 C   0  0  0  0  0  0  0  0  0  0  0  0
   46.7281   -0.0683    0.0499 C   0  0  0  0  0  0  0  0  0  0  0  0
   45.3818   -0.0586    0.0492 C   0  0  0  0  0  0  0  0  0  0  0  0
   44.1582   -0.0413    0.0489 C   0  0  0  0  0  0  0  0  0  0  0  0
   49.3024   -0.0824    0.0443 C   0  0  0  0  0  0  0  0  0  0  0  0
   50.5263   -0.0847    0.0382 C   0  0  0  0  0  0  0  0  0  0  0  0
   64.0318    0.0029    0.0036 C   0  0  0  0  0  0  0  0  0  0  0  0
   62.8024    0.0013    0.0107 C   0  0  0  0  0  0  0  0  0  0  0  0
   61.4581   -0.0007    0.0165 C   0  0  0  0  0  0  0  0  0  0  0  0
   60.2331   -0.0043    0.0237 C   0  0  0  0  0  0  0  0  0  0  0  0
   65.3761    0.0029   -0.0023 C   0  0  0  0  0  0  0  0  0  0  0  0
   66.6012    0.0039   -0.0097 C   0  0  0  0  0  0  0  0  0  0  0  0
   80.1053    0.0540   -0.0470 C   0  0  0  0  0  0  0  0  0  0  0  0
   78.8772    0.0636   -0.0480 C   0  0  0  0  0  0  0  0  0  0  0  0
   77.5310    0.0707   -0.0475 C   0  0  0  0  0  0  0  0  0  0  0  0
   76.3070    0.0735   -0.0442 C   0  0  0  0  0  0  0  0  0  0  0  0
   81.4516    0.0429   -0.0433 C   0  0  0  0  0  0  0  0  0  0  0  0
   82.6753    0.0285   -0.0431 C   0  0  0  0  0  0  0  0  0  0  0  0
   51.9333   -0.0884    0.0349 C   0  0  0  0  0  0  0  0  0  0  0  0
   52.5652   -0.2903    1.2767 C   0  0  0  0  0  0  0  0  0  0  0  0
   51.9251   -0.4683    2.5303 C   0  0  0  0  0  0  0  0  0  0  0  0
   52.8974   -0.6098    3.4823 C   0  0  0  0  0  0  0  0  0  0  0  0
   54.1610   -0.5305    2.8354 C   0  0  0  0  0  0  0  0  0  0  0  0
   53.9087   -0.3331    1.5038 N   0  0  0  0  0  0  0  0  0  0  0  0
   55.4229   -0.6095    3.4359 C   0  0  0  0  0  0  0  0  0  0  0  0
   55.4426   -0.8472    4.9017 C   0  0  0  0  0  0  0  0  0  0  0  0
   54.9601   -1.9781    5.4379 C   0  0  0  0  0  0  0  0  0  0  0  0
   55.0167   -2.2580    6.9168 C   0  0  0  0  0  0  0  0  0  0  0  0
   55.2599   -1.0299    7.6781 N   0  0  0  0  0  0  0  0  0  0  0  0
   55.8981    0.0362    7.1002 C   0  0  0  0  0  0  0  0  0  0  0  0
   55.9928    0.1854    5.7670 C   0  0  0  0  0  0  0  0  0  0  0  0
   56.6489   -0.4836    2.7811 C   0  0  0  0  0  0  0  0  0  0  0  0
   57.9320   -0.6291    3.4450 C   0  0  0  0  0  0  0  0  0  0  0  0
   58.8761   -0.4617    2.4956 C   0  0  0  0  0  0  0  0  0  0  0  0
   56.8349   -0.2434    1.4536 N   0  0  0  0  0  0  0  0  0  0  0  0
   58.1683   -0.2201    1.2541 C   0  0  0  0  0  0  0  0  0  0  0  0
   58.8284   -0.0057    0.0265 C   0  0  0  0  0  0  0  0  0  0  0  0
   58.1950    0.1987   -1.2156 C   0  0  0  0  0  0  0  0  0  0  0  0
   58.8346    0.3815   -2.4685 C   0  0  0  0  0  0  0  0  0  0  0  0
   57.8620    0.5214   -3.4207 C   0  0  0  0  0  0  0  0  0  0  0  0
   56.5986    0.4364   -2.7745 C   0  0  0  0  0  0  0  0  0  0  0  0
   56.8517    0.2373   -1.4428 N   0  0  0  0  0  0  0  0  0  0  0  0
   55.3369    0.5117   -3.3752 C   0  0  0  0  0  0  0  0  0  0  0  0
   55.3129    0.7518   -4.8403 C   0  0  0  0  0  0  0  0  0  0  0  0
   55.7894    1.8853   -5.3762 C   0  0  0  0  0  0  0  0  0  0  0  0
   55.7196    2.1709   -6.8534 C   0  0  0  0  0  0  0  0  0  0  0  0
   55.4719    0.9458   -7.6181 N   0  0  0  0  0  0  0  0  0  0  0  0
   54.8402   -0.1237   -7.0387 C   0  0  0  0  0  0  0  0  0  0  0  0
   54.7581   -0.2787   -5.7054 C   0  0  0  0  0  0  0  0  0  0  0  0
   54.1108    0.3828   -2.7202 C   0  0  0  0  0  0  0  0  0  0  0  0
   52.8272    0.5274   -3.3841 C   0  0  0  0  0  0  0  0  0  0  0  0
   51.8835    0.3606   -2.4345 C   0  0  0  0  0  0  0  0  0  0  0  0
   52.5916    0.1206   -1.1929 C   0  0  0  0  0  0  0  0  0  0  0  0
   53.9258    0.1433   -1.3934 N   0  0  0  0  0  0  0  0  0  0  0  0
   50.8570   -0.4780    2.6767 H   0  0  0  0  0  0  0  0  0  0  0  0
   52.7557   -0.7478    4.5417 H   0  0  0  0  0  0  0  0  0  0  0  0
   54.6222   -0.2253    0.7907 H   0  0  0  0  0  0  0  0  0  0  0  0
   54.5708   -2.7808    4.8224 H   0  0  0  0  0  0  0  0  0  0  0  0
   55.8045   -3.0033    7.1355 H   0  0  0  0  0  0  0  0  0  0  0  0
   54.0635   -2.6851    7.2569 H   0  0  0  0  0  0  0  0  0  0  0  0
   55.4492   -1.1870    8.6574 H   0  0  0  0  0  0  0  0  0  0  0  0
   56.2447    0.7908    7.7990 H   0  0  0  0  0  0  0  0  0  0  0  0
   56.4320    1.0702    5.3287 H   0  0  0  0  0  0  0  0  0  0  0  0
   58.0686   -0.8433    4.4928 H   0  0  0  0  0  0  0  0  0  0  0  0
   59.9489   -0.4996    2.5975 H   0  0  0  0  0  0  0  0  0  0  0  0
   59.9027    0.3953   -2.6147 H   0  0  0  0  0  0  0  0  0  0  0  0
   58.0034    0.6619   -4.4799 H   0  0  0  0  0  0  0  0  0  0  0  0
   56.1384    0.1263   -0.7300 H   0  0  0  0  0  0  0  0  0  0  0  0
   56.1805    2.6872   -4.7608 H   0  0  0  0  0  0  0  0  0  0  0  0
   54.9281    2.9154   -7.0615 H   0  0  0  0  0  0  0  0  0  0  0  0
   56.6685    2.6017   -7.2004 H   0  0  0  0  0  0  0  0  0  0  0  0
   55.2704    1.1078   -8.5942 H   0  0  0  0  0  0  0  0  0  0  0  0
   54.4882   -0.8758   -7.7375 H   0  0  0  0  0  0  0  0  0  0  0  0
   54.3239   -1.1659   -5.2670 H   0  0  0  0  0  0  0  0  0  0  0  0
   52.6899    0.7412   -4.4318 H   0  0  0  0  0  0  0  0  0  0  0  0
   50.8106    0.3983   -2.5361 H   0  0  0  0  0  0  0  0  0  0  0  0
   68.0059    0.0016   -0.0160 C   0  0  0  0  0  0  0  0  0  0  0  0
   68.6415   -0.2079    1.2240 C   0  0  0  0  0  0  0  0  0  0  0  0
   68.0042   -0.3937    2.4776 C   0  0  0  0  0  0  0  0  0  0  0  0
   68.9786   -0.5372    3.4275 C   0  0  0  0  0  0  0  0  0  0  0  0
   70.2407   -0.4515    2.7790 C   0  0  0  0  0  0  0  0  0  0  0  0
   69.9853   -0.2490    1.4484 N   0  0  0  0  0  0  0  0  0  0  0  0
   71.5037   -0.5277    3.3770 C   0  0  0  0  0  0  0  0  0  0  0  0
   71.5312   -0.7671    4.8422 C   0  0  0  0  0  0  0  0  0  0  0  0
   71.0571   -1.9004    5.3807 C   0  0  0  0  0  0  0  0  0  0  0  0
   71.1308   -2.1841    6.8581 C   0  0  0  0  0  0  0  0  0  0  0  0
   71.3809   -0.9582    7.6207 N   0  0  0  0  0  0  0  0  0  0  0  0
   72.0097    0.1112    7.0383 C   0  0  0  0  0  0  0  0  0  0  0  0
   72.0875    0.2650    5.7046 C   0  0  0  0  0  0  0  0  0  0  0  0
   72.7283   -0.3981    2.7195 C   0  0  0  0  0  0  0  0  0  0  0  0
   74.0132   -0.5434    3.3805 C   0  0  0  0  0  0  0  0  0  0  0  0
   74.9549   -0.3755    2.4291 C   0  0  0  0  0  0  0  0  0  0  0  0
   72.9104   -0.1570    1.3925 N   0  0  0  0  0  0  0  0  0  0  0  0
   74.2442   -0.1338    1.1893 C   0  0  0  0  0  0  0  0  0  0  0  0
   74.9001    0.0780   -0.0393 C   0  0  0  0  0  0  0  0  0  0  0  0
   74.2660    0.2835   -1.2793 C   0  0  0  0  0  0  0  0  0  0  0  0
   74.9037    0.4647   -2.5336 C   0  0  0  0  0  0  0  0  0  0  0  0
   73.9296    0.6089   -3.4835 C   0  0  0  0  0  0  0  0  0  0  0  0
   72.6672    0.5283   -2.8345 C   0  0  0  0  0  0  0  0  0  0  0  0
   72.9220    0.3272   -1.5039 N   0  0  0  0  0  0  0  0  0  0  0  0
   71.4041    0.6097   -3.4322 C   0  0  0  0  0  0  0  0  0  0  0  0
   71.3812    0.8534   -4.8968 C   0  0  0  0  0  0  0  0  0  0  0  0
   71.8652    1.9854   -5.4292 C   0  0  0  0  0  0  0  0  0  0  0  0
   71.8052    2.2732   -6.9064 C   0  0  0  0  0  0  0  0  0  0  0  0
   71.5509    1.0511   -7.6735 N   0  0  0  0  0  0  0  0  0  0  0  0
   70.9128   -0.0164   -7.0982 C   0  0  0  0  0  0  0  0  0  0  0  0
   70.8247   -0.1732   -5.7654 C   0  0  0  0  0  0  0  0  0  0  0  0
   70.1795    0.4827   -2.7749 C   0  0  0  0  0  0  0  0  0  0  0  0
   68.8949    0.6317   -3.4352 C   0  0  0  0  0  0  0  0  0  0  0  0
   67.9529    0.4634   -2.4838 C   0  0  0  0  0  0  0  0  0  0  0  0
   68.6634    0.2176   -1.2447 C   0  0  0  0  0  0  0  0  0  0  0  0
   69.9964    0.2392   -1.4476 N   0  0  0  0  0  0  0  0  0  0  0  0
   66.9364   -0.4070    2.6259 H   0  0  0  0  0  0  0  0  0  0  0  0
   68.8392   -0.6809    4.4866 H   0  0  0  0  0  0  0  0  0  0  0  0
   70.6974   -0.1364    0.7345 H   0  0  0  0  0  0  0  0  0  0  0  0
   70.6653   -2.7035    4.7673 H   0  0  0  0  0  0  0  0  0  0  0  0
   71.9225   -2.9286    7.0650 H   0  0  0  0  0  0  0  0  0  0  0  0
   70.1826   -2.6141    7.2081 H   0  0  0  0  0  0  0  0  0  0  0  0
   71.5858   -1.1192    8.5963 H   0  0  0  0  0  0  0  0  0  0  0  0
   72.3635    0.8643    7.7351 H   0  0  0  0  0  0  0  0  0  0  0  0
   72.5195    1.1520    5.2638 H   0  0  0  0  0  0  0  0  0  0  0  0
   74.1527   -0.7584    4.4277 H   0  0  0  0  0  0  0  0  0  0  0  0
   76.0280   -0.4131    2.5285 H   0  0  0  0  0  0  0  0  0  0  0  0
   75.9715    0.4746   -2.6819 H   0  0  0  0  0  0  0  0  0  0  0  0
   74.0695    0.7495   -4.5428 H   0  0  0  0  0  0  0  0  0  0  0  0
   72.2097    0.2178   -0.7898 H   0  0  0  0  0  0  0  0  0  0  0  0
   72.2585    2.7841   -4.8109 H   0  0  0  0  0  0  0  0  0  0  0  0
   71.0218    3.0250   -7.1183 H   0  0  0  0  0  0  0  0  0  0  0  0
   72.7601    2.6959   -7.2477 H   0  0  0  0  0  0  0  0  0  0  0  0
   71.3564    1.2148   -8.6507 H   0  0  0  0  0  0  0  0  0  0  0  0
   70.5599   -0.7658   -7.7995 H   0  0  0  0  0  0  0  0  0  0  0  0
   70.3853   -1.0593   -5.3301 H   0  0  0  0  0  0  0  0  0  0  0  0
   68.7559    0.8487   -4.4821 H   0  0  0  0  0  0  0  0  0  0  0  0
   66.8799    0.5031   -2.5831 H   0  0  0  0  0  0  0  0  0  0  0  0
  1  2  4  0  0  0  0
  2  3  4  0  0  0  0
  3  4  2  0  0  0  0
  4  5  4  0  0  0  0
  2  6  4  0  0  0  0
  5  6  4  0  0  0  0
  5  7  4  0  0  0  0
  7  8  1  0  0  0  0
  8  9  2  0  0  0  0
  9 10  1  0  0  0  0
 10 11  1  0  0  0  0
 11 12  1  0  0  0  0
  8 13  1  0  0  0  0
 12 13  2  0  0  0  0
  7 14  4  0  0  0  0
 14 15  1  0  0  0  0
 15 16  2  0  0  0  0
 14 17  4  0  0  0  0
 16 18  1  0  0  0  0
 17 18  4  0  0  0  0
 18 19  4  0  0  0  0
 19 20  4  0  0  0  0
 20 21  4  0  0  0  0
 21 22  2  0  0  0  0
 22 23  4  0  0  0  0
 20 24  4  0  0  0  0
 23 24  4  0  0  0  0
 23 25  4  0  0  0  0
 25 26  1  0  0  0  0
 26 27  2  0  0  0  0
 27 28  1  0  0  0  0
 28 29  1  0  0  0  0
 29 30  1  0  0  0  0
 26 31  1  0  0  0  0
 30 31  2  0  0  0  0
 25 32  4  0  0  0  0
 32 33  1  0  0  0  0
 33 34  2  0  0  0  0
  1 35  4  0  0  0  0
 34 35  1  0  0  0  0
 32 36  4  0  0  0  0
 35 36  4  0  0  0  0
  1 37  1  0  0  0  0
  3 38  1  0  0  0  0
  4 39  1  0  0  0  0
  6 40  1  0  0  0  0
  9 41  1  0  0  0  0
 10 42  1  0  0  0  0
 10 43  1  0  0  0  0
 11 44  1  0  0  0  0
 12 45  1  0  0  0  0
 13 46  1  0  0  0  0
 15 47  1  0  0  0  0
 16 48  1  0  0  0  0
 21 49  1  0  0  0  0
 22 50  1  0  0  0  0
 24 51  1  0  0  0  0
 27 52  1  0  0  0  0
 28 53  1  0  0  0  0
 28 54  1  0  0  0  0
 29 55  1  0  0  0  0
 30 56  1  0  0  0  0
 31 57  1  0  0  0  0
 33 58  1  0  0  0  0
 34 59  1  0  0  0  0
 60 61  4  0  0  0  0
 61 62  4  0  0  0  0
 62 63  2  0  0  0  0
 63 64  4  0  0  0  0
 61 65  4  0  0  0  0
 64 65  4  0  0  0  0
 64 66  4  0  0  0  0
 66 67  1  0  0  0  0
 67 68  2  0  0  0  0
 68 69  1  0  0  0  0
 69 70  1  0  0  0  0
 70 71  1  0  0  0  0
 67 72  1  0  0  0  0
 71 72  2  0  0  0  0
 66 73  4  0  0  0  0
 73 74  1  0  0  0  0
 74 75  2  0  0  0  0
 73 76  4  0  0  0  0
 75 77  1  0  0  0  0
 76 77  4  0  0  0  0
 77 78  4  0  0  0  0
 78 79  4  0  0  0  0
 79 80  4  0  0  0  0
 80 81  2  0  0  0  0
 81 82  4  0  0  0  0
 79 83  4  0  0  0  0
 82 83  4  0  0  0  0
 82 84  4  0  0  0  0
 84 85  1  0  0  0  0
 85 86  2  0  0  0  0
 86 87  1  0  0  0  0
 87 88  1  0  0  0  0
 88 89  1  0  0  0  0
 85 90  1  0  0  0  0
 89 90  2  0  0  0  0
 84 91  4  0  0  0  0
 91 92  1  0  0  0  0
 92 93  2  0  0  0  0
 60 94  4  0  0  0  0
 93 94  1  0  0  0  0
 91 95  4  0  0  0  0
 94 95  4  0  0  0  0
 60 96  1  0  0  0  0
 62 97  1  0  0  0  0
 63 98  1  0  0  0  0
 65 99  1  0  0  0  0
 68100  1  0  0  0  0
 69101  1  0  0  0  0
 69102  1  0  0  0  0
 70103  1  0  0  0  0
 71104  1  0  0  0  0
 72105  1  0  0  0  0
 74106  1  0  0  0  0
 75107  1  0  0  0  0
 80108  1  0  0  0  0
 81109  1  0  0  0  0
 83110  1  0  0  0  0
 86111  1  0  0  0  0
 87112  1  0  0  0  0
 87113  1  0  0  0  0
 88114  1  0  0  0  0
 89115  1  0  0  0  0
 90116  1  0  0  0  0
 92117  1  0  0  0  0
 93118  1  0  0  0  0
119120  3  0  0  0  0
120121  4  0  0  0  0
 19122  4  0  0  0  0
121122  3  0  0  0  0
119123  4  0  0  0  0
123124  3  0  0  0  0
125126  3  0  0  0  0
126127  4  0  0  0  0
127128  3  0  0  0  0
125129  4  0  0  0  0
129130  3  0  0  0  0
131132  3  0  0  0  0
132133  4  0  0  0  0
133134  3  0  0  0  0
131135  4  0  0  0  0
 78136  4  0  0  0  0
135136  3  0  0  0  0
124137  4  0  0  0  0
137138  4  0  0  0  0
138139  4  0  0  0  0
139140  2  0  0  0  0
140141  4  0  0  0  0
138142  4  0  0  0  0
141142  4  0  0  0  0
141143  4  0  0  0  0
143144  1  0  0  0  0
144145  2  0  0  0  0
145146  1  0  0  0  0
146147  1  0  0  0  0
147148  1  0  0  0  0
144149  1  0  0  0  0
148149  2  0  0  0  0
143150  4  0  0  0  0
150151  1  0  0  0  0
151152  2  0  0  0  0
150153  4  0  0  0  0
152154  1  0  0  0  0
153154  4  0  0  0  0
128155  4  0  0  0  0
154155  4  0  0  0  0
155156  4  0  0  0  0
156157  4  0  0  0  0
157158  2  0  0  0  0
158159  4  0  0  0  0
156160  4  0  0  0  0
159160  4  0  0  0  0
159161  4  0  0  0  0
161162  1  0  0  0  0
162163  2  0  0  0  0
163164  1  0  0  0  0
164165  1  0  0  0  0
165166  1  0  0  0  0
162167  1  0  0  0  0
166167  2  0  0  0  0
161168  4  0  0  0  0
168169  1  0  0  0  0
169170  2  0  0  0  0
137171  4  0  0  0  0
170171  1  0  0  0  0
168172  4  0  0  0  0
171172  4  0  0  0  0
139173  1  0  0  0  0
140174  1  0  0  0  0
142175  1  0  0  0  0
145176  1  0  0  0  0
146177  1  0  0  0  0
146178  1  0  0  0  0
147179  1  0  0  0  0
148180  1  0  0  0  0
149181  1  0  0  0  0
151182  1  0  0  0  0
152183  1  0  0  0  0
157184  1  0  0  0  0
158185  1  0  0  0  0
160186  1  0  0  0  0
163187  1  0  0  0  0
164188  1  0  0  0  0
164189  1  0  0  0  0
165190  1  0  0  0  0
166191  1  0  0  0  0
167192  1  0  0  0  0
169193  1  0  0  0  0
170194  1  0  0  0  0
130195  4  0  0  0  0
195196  4  0  0  0  0
196197  4  0  0  0  0
197198  2  0  0  0  0
198199  4  0  0  0  0
196200  4  0  0  0  0
199200  4  0  0  0  0
199201  4  0  0  0  0
201202  1  0  0  0  0
202203  2  0  0  0  0
203204  1  0  0  0  0
204205  1  0  0  0  0
205206  1  0  0  0  0
202207  1  0  0  0  0
206207  2  0  0  0  0
201208  4  0  0  0  0
208209  1  0  0  0  0
209210  2  0  0  0  0
208211  4  0  0  0  0
210212  1  0  0  0  0
211212  4  0  0  0  0
134213  4  0  0  0  0
212213  4  0  0  0  0
213214  4  0  0  0  0
214215  4  0  0  0  0
215216  2  0  0  0  0
216217  4  0  0  0  0
214218  4  0  0  0  0
217218  4  0  0  0  0
217219  4  0  0  0  0
219220  1  0  0  0  0
220221  2  0  0  0  0
221222  1  0  0  0  0
222223  1  0  0  0  0
223224  1  0  0  0  0
220225  1  0  0  0  0
224225  2  0  0  0  0
219226  4  0  0  0  0
226227  1  0  0  0  0
227228  2  0  0  0  0
195229  4  0  0  0  0
228229  1  0  0  0  0
226230  4  0  0  0  0
229230  4  0  0  0  0
197231  1  0  0  0  0
198232  1  0  0  0  0
200233  1  0  0  0  0
203234  1  0  0  0  0
204235  1  0  0  0  0
204236  1  0  0  0  0
205237  1  0  0  0  0
206238  1  0  0  0  0
207239  1  0  0  0  0
209240  1  0  0  0  0
210241  1  0  0  0  0
215242  1  0  0  0  0
216243  1  0  0  0  0
218244  1  0  0  0  0
221245  1  0  0  0  0
222246  1  0  0  0  0
222247  1  0  0  0  0
223248  1  0  0  0  0
224249  1  0  0  0  0
225250  1  0  0  0  0
227251  1  0  0  0  0
228252  1  0  0  0  0
M  END
