 xtb: 6.5.1 (b24c23e)
          07292217123D

148161  0     0  0            999 V2000
   13.3958    0.0427    0.2119 C   0  0  0  0  0  0  0  0  0  0  0  0
   14.0279   -0.0698    1.4434 C   0  0  0  0  0  0  0  0  0  0  0  0
   13.4101   -0.2170    2.7176 C   0  0  0  0  0  0  0  0  0  0  0  0
   14.3983   -0.2854    3.6589 C   0  0  0  0  0  0  0  0  0  0  0  0
   15.6513   -0.1900    2.9892 C   0  0  0  0  0  0  0  0  0  0  0  0
   15.3773   -0.0544    1.6575 N   0  0  0  0  0  0  0  0  0  0  0  0
   16.9241   -0.2311    3.5640 C   0  0  0  0  0  0  0  0  0  0  0  0
   18.1323   -0.1857    2.8675 C   0  0  0  0  0  0  0  0  0  0  0  0
   19.4278   -0.3320    3.5049 C   0  0  0  0  0  0  0  0  0  0  0  0
   20.3488   -0.2299    2.5237 C   0  0  0  0  0  0  0  0  0  0  0  0
   18.2881    0.0069    1.5284 N   0  0  0  0  0  0  0  0  0  0  0  0
   19.6163   -0.0097    1.2922 C   0  0  0  0  0  0  0  0  0  0  0  0
   20.2467    0.1690    0.0439 C   0  0  0  0  0  0  0  0  0  0  0  0
   19.5863    0.3595   -1.1845 C   0  0  0  0  0  0  0  0  0  0  0  0
   20.1930    0.5892   -2.4479 C   0  0  0  0  0  0  0  0  0  0  0  0
   19.1989    0.7196   -3.3776 C   0  0  0  0  0  0  0  0  0  0  0  0
   17.9525    0.5735   -2.7088 C   0  0  0  0  0  0  0  0  0  0  0  0
   16.6806    0.6393   -3.2839 C   0  0  0  0  0  0  0  0  0  0  0  0
   16.6283    0.7907   -4.7705 C   0  0  0  0  0  0  0  0  0  0  0  0
   16.3928    1.9854   -5.4557 C   0  0  0  0  0  0  0  0  0  0  0  0
   16.2097    3.2125   -4.9045 O   0  0  0  0  0  0  0  0  0  0  0  0
   16.3403    3.4931   -3.5239 C   0  0  0  0  0  0  0  0  0  0  0  0
   16.3314    1.9848   -6.8565 C   0  0  0  0  0  0  0  0  0  0  0  0
   16.5054    0.8157   -7.5670 C   0  0  0  0  0  0  0  0  0  0  0  0
   16.7518   -0.3831   -6.9076 C   0  0  0  0  0  0  0  0  0  0  0  0
   16.8125   -0.3896   -5.5195 C   0  0  0  0  0  0  0  0  0  0  0  0
   17.0428   -1.5104   -4.7823 O   0  0  0  0  0  0  0  0  0  0  0  0
   17.1979   -2.7638   -5.4162 C   0  0  0  0  0  0  0  0  0  0  0  0
   15.4725    0.4832   -2.6007 C   0  0  0  0  0  0  0  0  0  0  0  0
   14.1698    0.4900   -3.2477 C   0  0  0  0  0  0  0  0  0  0  0  0
   13.2570    0.3203   -2.2698 C   0  0  0  0  0  0  0  0  0  0  0  0
   14.0012    0.2134   -1.0269 C   0  0  0  0  0  0  0  0  0  0  0  0
   15.3318    0.3161   -1.2636 N   0  0  0  0  0  0  0  0  0  0  0  0
   18.2375    0.3667   -1.3850 N   0  0  0  0  0  0  0  0  0  0  0  0
   16.9739   -0.4397    5.0445 C   0  0  0  0  0  0  0  0  0  0  0  0
   17.0790    0.5756    5.9986 C   0  0  0  0  0  0  0  0  0  0  0  0
   17.1386    1.9106    5.7591 O   0  0  0  0  0  0  0  0  0  0  0  0
   17.2362    2.4875    4.4711 C   0  0  0  0  0  0  0  0  0  0  0  0
   17.1098    0.2493    7.3619 C   0  0  0  0  0  0  0  0  0  0  0  0
   17.0394   -1.0655    7.7718 C   0  0  0  0  0  0  0  0  0  0  0  0
   16.9341   -2.0924    6.8407 C   0  0  0  0  0  0  0  0  0  0  0  0
   16.8991   -1.7756    5.4882 C   0  0  0  0  0  0  0  0  0  0  0  0
   16.7914   -2.7058    4.5004 O   0  0  0  0  0  0  0  0  0  0  0  0
   16.7400   -4.0820    4.8179 C   0  0  0  0  0  0  0  0  0  0  0  0
   12.3119   -0.0050    0.2287 H   0  0  0  0  0  0  0  0  0  0  0  0
   12.3447   -0.2615    2.8785 H   0  0  0  0  0  0  0  0  0  0  0  0
   14.2821   -0.3972    4.7250 H   0  0  0  0  0  0  0  0  0  0  0  0
   16.0790    0.0215    0.9290 H   0  0  0  0  0  0  0  0  0  0  0  0
   19.5825   -0.5033    4.5582 H   0  0  0  0  0  0  0  0  0  0  0  0
   21.4215   -0.3028    2.6007 H   0  0  0  0  0  0  0  0  0  0  0  0
   21.2557    0.6532   -2.6149 H   0  0  0  0  0  0  0  0  0  0  0  0
   19.3096    0.9014   -4.4343 H   0  0  0  0  0  0  0  0  0  0  0  0
   17.3121    3.1686   -3.1353 H   0  0  0  0  0  0  0  0  0  0  0  0
   16.2634    4.5792   -3.4313 H   0  0  0  0  0  0  0  0  0  0  0  0
   15.5392    3.0267   -2.9396 H   0  0  0  0  0  0  0  0  0  0  0  0
   16.1448    2.9251   -7.3598 H   0  0  0  0  0  0  0  0  0  0  0  0
   16.4539    0.8291   -8.6498 H   0  0  0  0  0  0  0  0  0  0  0  0
   16.8904   -1.2922   -7.4770 H   0  0  0  0  0  0  0  0  0  0  0  0
   17.3486   -3.4917   -4.6166 H   0  0  0  0  0  0  0  0  0  0  0  0
   16.3031   -3.0376   -5.9884 H   0  0  0  0  0  0  0  0  0  0  0  0
   18.0704   -2.7737   -6.0807 H   0  0  0  0  0  0  0  0  0  0  0  0
   14.0083    0.6035   -4.3078 H   0  0  0  0  0  0  0  0  0  0  0  0
   12.1824    0.2675   -2.3497 H   0  0  0  0  0  0  0  0  0  0  0  0
   17.5408    0.2175   -0.6628 H   0  0  0  0  0  0  0  0  0  0  0  0
   18.1481    2.1677    3.9553 H   0  0  0  0  0  0  0  0  0  0  0  0
   17.2754    3.5678    4.6307 H   0  0  0  0  0  0  0  0  0  0  0  0
   16.3642    2.2496    3.8523 H   0  0  0  0  0  0  0  0  0  0  0  0
   17.1895    1.0572    8.0783 H   0  0  0  0  0  0  0  0  0  0  0  0
   17.0658   -1.3036    8.8292 H   0  0  0  0  0  0  0  0  0  0  0  0
   16.8788   -3.1193    7.1757 H   0  0  0  0  0  0  0  0  0  0  0  0
   15.8601   -4.3216    5.4273 H   0  0  0  0  0  0  0  0  0  0  0  0
   16.6707   -4.6111    3.8656 H   0  0  0  0  0  0  0  0  0  0  0  0
   17.6454   -4.4065    5.3451 H   0  0  0  0  0  0  0  0  0  0  0  0
   31.1320    0.0216   -0.2140 C   0  0  0  0  0  0  0  0  0  0  0  0
   30.5002   -0.1990   -1.4309 C   0  0  0  0  0  0  0  0  0  0  0  0
   31.1182   -0.4599   -2.6867 C   0  0  0  0  0  0  0  0  0  0  0  0
   30.1303   -0.6098   -3.6188 C   0  0  0  0  0  0  0  0  0  0  0  0
   28.8772   -0.4529   -2.9609 C   0  0  0  0  0  0  0  0  0  0  0  0
   29.1509   -0.2001   -1.6463 N   0  0  0  0  0  0  0  0  0  0  0  0
   27.6045   -0.5422   -3.5305 C   0  0  0  0  0  0  0  0  0  0  0  0
   26.3962   -0.4336   -2.8410 C   0  0  0  0  0  0  0  0  0  0  0  0
   25.1007   -0.6334   -3.4637 C   0  0  0  0  0  0  0  0  0  0  0  0
   24.1796   -0.4457   -2.4953 C   0  0  0  0  0  0  0  0  0  0  0  0
   26.2404   -0.1251   -1.5239 N   0  0  0  0  0  0  0  0  0  0  0  0
   24.9122   -0.1202   -1.2873 C   0  0  0  0  0  0  0  0  0  0  0  0
   24.2816    0.1658   -0.0592 C   0  0  0  0  0  0  0  0  0  0  0  0
   24.9418    0.4626    1.1480 C   0  0  0  0  0  0  0  0  0  0  0  0
   24.3348    0.8017    2.3864 C   0  0  0  0  0  0  0  0  0  0  0  0
   25.3288    1.0142    3.3010 C   0  0  0  0  0  0  0  0  0  0  0  0
   26.5754    0.8108    2.6477 C   0  0  0  0  0  0  0  0  0  0  0  0
   27.8472    0.9278    3.2146 C   0  0  0  0  0  0  0  0  0  0  0  0
   27.8999    1.2101    4.6819 C   0  0  0  0  0  0  0  0  0  0  0  0
   28.1365    2.4606    5.2585 C   0  0  0  0  0  0  0  0  0  0  0  0
   28.3199    3.6339    4.6008 O   0  0  0  0  0  0  0  0  0  0  0  0
   28.1903    3.7911    3.2010 C   0  0  0  0  0  0  0  0  0  0  0  0
   28.1989    2.5838    6.6539 C   0  0  0  0  0  0  0  0  0  0  0  0
   28.0247    1.4824    7.4652 C   0  0  0  0  0  0  0  0  0  0  0  0
   27.7771    0.2300    6.9146 C   0  0  0  0  0  0  0  0  0  0  0  0
   27.7154    0.1009    5.5326 C   0  0  0  0  0  0  0  0  0  0  0  0
   27.4840   -1.0806    4.8975 O   0  0  0  0  0  0  0  0  0  0  0  0
   27.3296   -2.2731    5.6397 C   0  0  0  0  0  0  0  0  0  0  0  0
   29.0553    0.7118    2.5479 C   0  0  0  0  0  0  0  0  0  0  0  0
   30.3580    0.7752    3.1919 C   0  0  0  0  0  0  0  0  0  0  0  0
   31.2708    0.5187    2.2331 C   0  0  0  0  0  0  0  0  0  0  0  0
   30.5266    0.3023    1.0045 C   0  0  0  0  0  0  0  0  0  0  0  0
   29.1961    0.4266    1.2309 N   0  0  0  0  0  0  0  0  0  0  0  0
   26.2906    0.4883    1.3471 N   0  0  0  0  0  0  0  0  0  0  0  0
   27.5545   -0.8821   -4.9864 C   0  0  0  0  0  0  0  0  0  0  0  0
   27.4489    0.0435   -6.0276 C   0  0  0  0  0  0  0  0  0  0  0  0
   27.3907    1.3947   -5.9087 O   0  0  0  0  0  0  0  0  0  0  0  0
   27.2875    2.0842   -4.6777 C   0  0  0  0  0  0  0  0  0  0  0  0
   27.4170   -0.4037   -7.3562 C   0  0  0  0  0  0  0  0  0  0  0  0
   27.4868   -1.7500   -7.6466 C   0  0  0  0  0  0  0  0  0  0  0  0
   27.5929   -2.6892   -6.6272 C   0  0  0  0  0  0  0  0  0  0  0  0
   27.6290   -2.2524   -5.3086 C   0  0  0  0  0  0  0  0  0  0  0  0
   27.7378   -3.0903   -4.2415 O   0  0  0  0  0  0  0  0  0  0  0  0
   27.7881   -4.4894   -4.4342 C   0  0  0  0  0  0  0  0  0  0  0  0
   32.2159   -0.0289   -0.2261 H   0  0  0  0  0  0  0  0  0  0  0  0
   32.1836   -0.5206   -2.8424 H   0  0  0  0  0  0  0  0  0  0  0  0
   30.2467   -0.8161   -4.6706 H   0  0  0  0  0  0  0  0  0  0  0  0
   28.4490   -0.0588   -0.9279 H   0  0  0  0  0  0  0  0  0  0  0  0
   24.9459   -0.8952   -4.4981 H   0  0  0  0  0  0  0  0  0  0  0  0
   23.1068   -0.5238   -2.5660 H   0  0  0  0  0  0  0  0  0  0  0  0
   23.2721    0.8792    2.5472 H   0  0  0  0  0  0  0  0  0  0  0  0
   25.2179    1.2879    4.3377 H   0  0  0  0  0  0  0  0  0  0  0  0
   27.2192    3.4339    2.8422 H   0  0  0  0  0  0  0  0  0  0  0  0
   28.2680    4.8646    3.0125 H   0  0  0  0  0  0  0  0  0  0  0  0
   28.9913    3.2746    2.6616 H   0  0  0  0  0  0  0  0  0  0  0  0
   28.3866    3.5648    7.0719 H   0  0  0  0  0  0  0  0  0  0  0  0
   28.0772    1.5915    8.5425 H   0  0  0  0  0  0  0  0  0  0  0  0
   27.6384   -0.6250    7.5622 H   0  0  0  0  0  0  0  0  0  0  0  0
   27.1782   -3.0687    4.9076 H   0  0  0  0  0  0  0  0  0  0  0  0
   28.2249   -2.4953    6.2330 H   0  0  0  0  0  0  0  0  0  0  0  0
   26.4577   -2.2244    6.3033 H   0  0  0  0  0  0  0  0  0  0  0  0
   30.5195    0.9821    4.2378 H   0  0  0  0  0  0  0  0  0  0  0  0
   32.3453    0.4725    2.3176 H   0  0  0  0  0  0  0  0  0  0  0  0
   26.9875    0.2767    0.6409 H   0  0  0  0  0  0  0  0  0  0  0  0
   26.3728    1.8120   -4.1400 H   0  0  0  0  0  0  0  0  0  0  0  0
   27.2501    3.1459   -4.9331 H   0  0  0  0  0  0  0  0  0  0  0  0
   28.1563    1.9019   -4.0359 H   0  0  0  0  0  0  0  0  0  0  0  0
   27.3368    0.3367   -8.1421 H   0  0  0  0  0  0  0  0  0  0  0  0
   27.4593   -2.0819   -8.6783 H   0  0  0  0  0  0  0  0  0  0  0  0
   27.6477   -3.7420   -6.8689 H   0  0  0  0  0  0  0  0  0  0  0  0
   28.6668   -4.7835   -5.0210 H   0  0  0  0  0  0  0  0  0  0  0  0
   27.8586   -4.9309   -3.4382 H   0  0  0  0  0  0  0  0  0  0  0  0
   26.8816   -4.8594   -4.9286 H   0  0  0  0  0  0  0  0  0  0  0  0
   21.6557    0.1657    0.0094 C   0  0  0  0  0  0  0  0  0  0  0  0
   22.8726    0.1647   -0.0247 C   0  0  0  0  0  0  0  0  0  0  0  0
  1  2  4  0  0  0  0
  2  3  4  0  0  0  0
  3  4  2  0  0  0  0
  4  5  4  0  0  0  0
  2  6  4  0  0  0  0
  5  6  4  0  0  0  0
  5  7  4  0  0  0  0
  7  8  4  0  0  0  0
  8  9  1  0  0  0  0
  9 10  2  0  0  0  0
  8 11  4  0  0  0  0
 10 12  1  0  0  0  0
 11 12  4  0  0  0  0
 12 13  4  0  0  0  0
 13 14  4  0  0  0  0
 14 15  4  0  0  0  0
 15 16  2  0  0  0  0
 16 17  4  0  0  0  0
 17 18  4  0  0  0  0
 18 19  1  0  0  0  0
 19 20  4  0  0  0  0
 20 21  1  0  0  0  0
 21 22  1  0  0  0  0
 20 23  4  0  0  0  0
 23 24  4  0  0  0  0
 24 25  4  0  0  0  0
 19 26  4  0  0  0  0
 25 26  4  0  0  0  0
 26 27  1  0  0  0  0
 27 28  1  0  0  0  0
 18 29  4  0  0  0  0
 29 30  1  0  0  0  0
 30 31  2  0  0  0  0
  1 32  4  0  0  0  0
 31 32  1  0  0  0  0
 29 33  4  0  0  0  0
 32 33  4  0  0  0  0
 14 34  4  0  0  0  0
 17 34  4  0  0  0  0
  7 35  1  0  0  0  0
 35 36  4  0  0  0  0
 36 37  1  0  0  0  0
 37 38  1  0  0  0  0
 36 39  4  0  0  0  0
 39 40  4  0  0  0  0
 40 41  4  0  0  0  0
 35 42  4  0  0  0  0
 41 42  4  0  0  0  0
 42 43  1  0  0  0  0
 43 44  1  0  0  0  0
  1 45  1  0  0  0  0
  3 46  1  0  0  0  0
  4 47  1  0  0  0  0
  6 48  1  0  0  0  0
  9 49  1  0  0  0  0
 10 50  1  0  0  0  0
 15 51  1  0  0  0  0
 16 52  1  0  0  0  0
 22 53  1  0  0  0  0
 22 54  1  0  0  0  0
 22 55  1  0  0  0  0
 23 56  1  0  0  0  0
 24 57  1  0  0  0  0
 25 58  1  0  0  0  0
 28 59  1  0  0  0  0
 28 60  1  0  0  0  0
 28 61  1  0  0  0  0
 30 62  1  0  0  0  0
 31 63  1  0  0  0  0
 34 64  1  0  0  0  0
 38 65  1  0  0  0  0
 38 66  1  0  0  0  0
 38 67  1  0  0  0  0
 39 68  1  0  0  0  0
 40 69  1  0  0  0  0
 41 70  1  0  0  0  0
 44 71  1  0  0  0  0
 44 72  1  0  0  0  0
 44 73  1  0  0  0  0
 74 75  4  0  0  0  0
 75 76  4  0  0  0  0
 76 77  2  0  0  0  0
 77 78  4  0  0  0  0
 75 79  4  0  0  0  0
 78 79  4  0  0  0  0
 78 80  4  0  0  0  0
 80 81  4  0  0  0  0
 81 82  1  0  0  0  0
 82 83  2  0  0  0  0
 81 84  4  0  0  0  0
 83 85  1  0  0  0  0
 84 85  4  0  0  0  0
 85 86  4  0  0  0  0
 86 87  4  0  0  0  0
 87 88  4  0  0  0  0
 88 89  2  0  0  0  0
 89 90  4  0  0  0  0
 90 91  4  0  0  0  0
 91 92  1  0  0  0  0
 92 93  4  0  0  0  0
 93 94  1  0  0  0  0
 94 95  1  0  0  0  0
 93 96  4  0  0  0  0
 96 97  4  0  0  0  0
 97 98  4  0  0  0  0
 92 99  4  0  0  0  0
 98 99  4  0  0  0  0
 99100  1  0  0  0  0
100101  1  0  0  0  0
 91102  4  0  0  0  0
102103  1  0  0  0  0
103104  2  0  0  0  0
 74105  4  0  0  0  0
104105  1  0  0  0  0
102106  4  0  0  0  0
105106  4  0  0  0  0
 87107  4  0  0  0  0
 90107  4  0  0  0  0
 80108  1  0  0  0  0
108109  4  0  0  0  0
109110  1  0  0  0  0
110111  1  0  0  0  0
109112  4  0  0  0  0
112113  4  0  0  0  0
113114  4  0  0  0  0
108115  4  0  0  0  0
114115  4  0  0  0  0
115116  1  0  0  0  0
116117  1  0  0  0  0
 74118  1  0  0  0  0
 76119  1  0  0  0  0
 77120  1  0  0  0  0
 79121  1  0  0  0  0
 82122  1  0  0  0  0
 83123  1  0  0  0  0
 88124  1  0  0  0  0
 89125  1  0  0  0  0
 95126  1  0  0  0  0
 95127  1  0  0  0  0
 95128  1  0  0  0  0
 96129  1  0  0  0  0
 97130  1  0  0  0  0
 98131  1  0  0  0  0
101132  1  0  0  0  0
101133  1  0  0  0  0
101134  1  0  0  0  0
103135  1  0  0  0  0
104136  1  0  0  0  0
107137  1  0  0  0  0
111138  1  0  0  0  0
111139  1  0  0  0  0
111140  1  0  0  0  0
112141  1  0  0  0  0
113142  1  0  0  0  0
114143  1  0  0  0  0
117144  1  0  0  0  0
117145  1  0  0  0  0
117146  1  0  0  0  0
 13147  4  0  0  0  0
 86148  4  0  0  0  0
147148  3  0  0  0  0
M  END
