152

C 22.164877 -0.001332 -0.000074
C 22.899311 -1.378490 -0.071960
C 22.312165 -2.622154 -0.136877
C 23.364084 -3.578052 -0.186778
C 24.552536 -2.880867 -0.150389
N 24.260843 -1.545187 -0.080662
C 25.983891 -3.499189 -0.182675
C 27.106453 -2.754382 -0.143792
C 28.391439 -3.406848 -0.177861
C 29.328722 -2.465619 -0.128724
N 27.328284 -1.412165 -0.073715
C 28.677662 -1.167752 -0.060963
C 29.374424 -0.000000 -0.000003
C 28.599758 1.392288 0.072685
C 29.163337 2.652827 0.138498
C 28.105313 3.596985 0.187787
C 26.927402 2.887055 0.150715
N 27.232750 1.549919 0.080906
C 25.494605 3.511617 0.183312
C 24.377084 2.762009 0.144178
C 23.073315 3.386730 0.176783
C 22.156832 2.422677 0.126458
C 22.850887 1.157041 0.060395
N 24.186969 1.418267 0.074034
H 21.082161 0.006886 0.000352
H 21.251489 -2.819821 -0.147193
H 23.264819 -4.651115 -0.242794
H 24.940868 -0.789149 -0.041199
H 26.061934 -4.578622 -0.239033
H 28.556399 -4.467762 -0.233252
H 30.386761 -2.653018 -0.138512
H 30.218711 2.877602 0.150238
H 28.193740 4.671081 0.243864
H 26.554047 0.792077 0.041340
H 25.413373 4.590497 0.239630
H 22.887340 4.443886 0.231965
H 21.089950 2.552077 0.133209
C 66.223529 0.001312 -0.000244
C 65.489096 1.357848 -0.248319
C 66.076241 2.582890 -0.472346
C 65.024323 3.524473 -0.644542
C 63.835871 2.837727 -0.518957
N 64.127563 1.522049 -0.278348
C 62.404515 3.446789 -0.630349
C 61.281954 2.713136 -0.496178
C 59.996968 3.355830 -0.613722
C 59.059684 2.428696 -0.444167
N 61.060123 1.391019 -0.254383
C 59.710745 1.150265 -0.210361
C 59.013983 -0.000000 -0.000003
C 59.788648 -1.371438 0.250809
C 59.225070 -2.613100 0.477892
C 60.283094 -3.543119 0.647972
C 61.461005 -2.843822 0.520075
N 61.155656 -1.526710 0.279197
C 62.893802 -3.459032 0.632576
C 64.011323 -2.720650 0.497540
C 65.315092 -3.336017 0.610070
C 66.231575 -2.386399 0.436407
C 65.537520 -1.139715 0.208423
N 64.201438 -1.397029 0.255482
H 67.306246 -0.006783 0.001233
H 67.136918 2.777596 -0.507952
H 65.123588 4.581467 -0.837841
H 63.447538 0.777331 -0.142160
H 62.326473 4.510057 -0.824806
H 59.832007 4.400857 -0.804842
H 58.001645 2.613288 -0.477929
H 58.169695 -2.834508 0.518388
H 60.194667 -4.601130 0.841466
H 61.834359 -0.780217 0.142676
H 62.975034 -4.521756 0.826922
H 65.501066 -4.377342 0.800501
H 67.298456 -2.513863 0.459713
C 32.168751 -0.000000 -0.000003
C 33.390669 -0.000000 -0.000003
C 43.583245 -0.000000 -0.000003
C 44.805162 -0.000000 -0.000003
C 54.997738 -0.000000 -0.000003
C 56.219655 -0.000000 -0.000003
C 34.832261 0.000000 0.000003
C 35.612301 1.387535 -0.017322
C 35.060196 2.653636 -0.033146
C 36.128813 3.586260 -0.044778
C 37.299720 2.862632 -0.035718
N 36.981027 1.529605 -0.019076
C 38.732092 3.477300 -0.043366
C 39.857717 2.739247 -0.034157
C 41.138015 3.402645 -0.042411
C 42.082466 2.467672 -0.030749
N 40.087707 1.398756 -0.017450
C 41.439439 1.165202 -0.014525
C 42.141653 0.000000 0.000003
C 41.361613 -1.387535 0.017284
C 41.913718 -2.653638 0.033020
C 40.845101 -3.586261 0.044657
C 39.674193 -2.862632 0.035685
N 39.992886 -1.529605 0.019082
C 38.241821 -3.477299 0.043377
C 37.116196 -2.739247 0.034175
C 35.835899 -3.402644 0.042473
C 34.891448 -2.467672 0.030810
C 35.534474 -1.165202 0.014541
N 36.886206 -1.398756 0.017442
H 34.006993 2.888859 -0.036100
H 36.052183 4.662761 -0.058225
H 37.645841 0.758996 -0.009450
H 38.808981 4.558639 -0.056839
H 41.295161 4.466189 -0.055663
H 43.139359 2.661875 -0.033158
H 42.966920 -2.888861 0.035915
H 40.921730 -4.662762 0.058050
H 39.328072 -0.758995 0.009498
H 38.164933 -4.558638 0.056879
H 35.678753 -4.466188 0.055754
H 33.834554 -2.661875 0.033247
C 46.246754 0.000000 0.000003
C 47.026794 1.387535 -0.017322
C 46.474689 2.653636 -0.033146
C 47.543306 3.586260 -0.044778
C 48.714214 2.862632 -0.035718
N 48.395521 1.529605 -0.019076
C 50.146586 3.477300 -0.043366
C 51.272211 2.739247 -0.034157
C 52.552508 3.402645 -0.042411
C 53.496959 2.467672 -0.030749
N 51.502200 1.398756 -0.017450
C 52.853932 1.165202 -0.014525
C 53.556146 0.000000 0.000003
C 52.776106 -1.387535 0.017284
C 53.328211 -2.653638 0.033020
C 52.259594 -3.586261 0.044657
C 51.088686 -2.862632 0.035685
N 51.407379 -1.529605 0.019082
C 49.656314 -3.477299 0.043377
C 48.530690 -2.739247 0.034175
C 47.250392 -3.402644 0.042473
C 46.305941 -2.467672 0.030810
C 46.948967 -1.165202 0.014541
N 48.300700 -1.398756 0.017442
H 45.421486 2.888859 -0.036100
H 47.466676 4.662761 -0.058225
H 49.060334 0.758996 -0.009450
H 50.223474 4.558639 -0.056839
H 52.709655 4.466189 -0.055663
H 54.553852 2.661875 -0.033158
H 54.381413 -2.888861 0.035915
H 52.336223 -4.662762 0.058050
H 50.742566 -0.758995 0.009498
H 49.579426 -4.558638 0.056879
H 47.093246 -4.466188 0.055754
H 45.249047 -2.661875 0.033247
