 xtb: 6.5.1 (b24c23e)
          07262213193D

152171  0     0  0            999 V2000
   24.1500    0.0236    0.0085 C   0  0  0  0  0  0  0  0  0  0  0  0
   24.7521   -1.2244   -0.0879 C   0  0  0  0  0  0  0  0  0  0  0  0
   24.1178   -2.4963   -0.1829 C   0  0  0  0  0  0  0  0  0  0  0  0
   25.0951   -3.4477   -0.2680 C   0  0  0  0  0  0  0  0  0  0  0  0
   26.3568   -2.7873   -0.2274 C   0  0  0  0  0  0  0  0  0  0  0  0
   26.0987   -1.4518   -0.1159 N   0  0  0  0  0  0  0  0  0  0  0  0
   27.6153   -3.3725   -0.2973 C   0  0  0  0  0  0  0  0  0  0  0  0
   28.8490   -2.7385   -0.2604 C   0  0  0  0  0  0  0  0  0  0  0  0
   30.1077   -3.4549   -0.3587 C   0  0  0  0  0  0  0  0  0  0  0  0
   31.0812   -2.5244   -0.2823 C   0  0  0  0  0  0  0  0  0  0  0  0
   29.0785   -1.4034   -0.1286 N   0  0  0  0  0  0  0  0  0  0  0  0
   30.4167   -1.2433   -0.1327 C   0  0  0  0  0  0  0  0  0  0  0  0
   31.1027   -0.0165   -0.0073 C   0  0  0  0  0  0  0  0  0  0  0  0
   30.4705    1.2364    0.1173 C   0  0  0  0  0  0  0  0  0  0  0  0
   31.0930    2.5052    0.2571 C   0  0  0  0  0  0  0  0  0  0  0  0
   30.1110    3.4538    0.3327 C   0  0  0  0  0  0  0  0  0  0  0  0
   28.8560    2.7902    0.2460 C   0  0  0  0  0  0  0  0  0  0  0  0
   29.1251    1.4540    0.1194 N   0  0  0  0  0  0  0  0  0  0  0  0
   27.5998    3.3830    0.2825 C   0  0  0  0  0  0  0  0  0  0  0  0
   26.3642    2.7522    0.2177 C   0  0  0  0  0  0  0  0  0  0  0  0
   25.0963    3.4639    0.2681 C   0  0  0  0  0  0  0  0  0  0  0  0
   24.1299    2.5269    0.1935 C   0  0  0  0  0  0  0  0  0  0  0  0
   24.8085    1.2444    0.0971 C   0  0  0  0  0  0  0  0  0  0  0  0
   26.1512    1.4197    0.1121 N   0  0  0  0  0  0  0  0  0  0  0  0
   23.0654    0.0375    0.0137 H   0  0  0  0  0  0  0  0  0  0  0  0
   23.0501   -2.6480   -0.1855 H   0  0  0  0  0  0  0  0  0  0  0  0
   24.9676   -4.5153   -0.3524 H   0  0  0  0  0  0  0  0  0  0  0  0
   26.8033   -0.7238   -0.0643 H   0  0  0  0  0  0  0  0  0  0  0  0
   27.6259   -4.4535   -0.3948 H   0  0  0  0  0  0  0  0  0  0  0  0
   30.2007   -4.5235   -0.4730 H   0  0  0  0  0  0  0  0  0  0  0  0
   32.1486   -2.6644   -0.3256 H   0  0  0  0  0  0  0  0  0  0  0  0
   32.1577    2.6636    0.2981 H   0  0  0  0  0  0  0  0  0  0  0  0
   30.2340    4.5196    0.4412 H   0  0  0  0  0  0  0  0  0  0  0  0
   28.4248    0.7240    0.0388 H   0  0  0  0  0  0  0  0  0  0  0  0
   27.5947    4.4642    0.3769 H   0  0  0  0  0  0  0  0  0  0  0  0
   24.9962    4.5351    0.3500 H   0  0  0  0  0  0  0  0  0  0  0  0
   23.0588    2.6565    0.2006 H   0  0  0  0  0  0  0  0  0  0  0  0
   64.2213   -0.0102    0.0054 C   0  0  0  0  0  0  0  0  0  0  0  0
   63.6178    1.2100   -0.2707 C   0  0  0  0  0  0  0  0  0  0  0  0
   64.2523    2.4548   -0.5487 C   0  0  0  0  0  0  0  0  0  0  0  0
   63.2754    3.3834   -0.7743 C   0  0  0  0  0  0  0  0  0  0  0  0
   62.0136    2.7356   -0.6407 C   0  0  0  0  0  0  0  0  0  0  0  0
   62.2714    1.4308   -0.3340 N   0  0  0  0  0  0  0  0  0  0  0  0
   60.7549    3.3025   -0.8005 C   0  0  0  0  0  0  0  0  0  0  0  0
   59.5233    2.6763   -0.6719 C   0  0  0  0  0  0  0  0  0  0  0  0
   58.2605    3.3616   -0.8805 C   0  0  0  0  0  0  0  0  0  0  0  0
   57.2919    2.4482   -0.6638 C   0  0  0  0  0  0  0  0  0  0  0  0
   59.3016    1.3756   -0.3390 N   0  0  0  0  0  0  0  0  0  0  0  0
   57.9646    1.2091   -0.3191 C   0  0  0  0  0  0  0  0  0  0  0  0
   57.2853    0.0122   -0.0109 C   0  0  0  0  0  0  0  0  0  0  0  0
   57.9162   -1.2082    0.2976 C   0  0  0  0  0  0  0  0  0  0  0  0
   57.2912   -2.4395    0.6314 C   0  0  0  0  0  0  0  0  0  0  0  0
   58.2724   -3.3676    0.8463 C   0  0  0  0  0  0  0  0  0  0  0  0
   59.5282   -2.7276    0.6549 C   0  0  0  0  0  0  0  0  0  0  0  0
   59.2610   -1.4256    0.3280 N   0  0  0  0  0  0  0  0  0  0  0  0
   60.7854   -3.3073    0.7745 C   0  0  0  0  0  0  0  0  0  0  0  0
   62.0182   -2.6886    0.6121 C   0  0  0  0  0  0  0  0  0  0  0  0
   63.2894   -3.3802    0.7619 C   0  0  0  0  0  0  0  0  0  0  0  0
   64.2514   -2.4599    0.5493 C   0  0  0  0  0  0  0  0  0  0  0  0
   63.5669   -1.2077    0.2695 C   0  0  0  0  0  0  0  0  0  0  0  0
   62.2251   -1.3847    0.3125 N   0  0  0  0  0  0  0  0  0  0  0  0
   65.3060   -0.0207    0.0126 H   0  0  0  0  0  0  0  0  0  0  0  0
   65.3200    2.6048   -0.5707 H   0  0  0  0  0  0  0  0  0  0  0  0
   63.4032    4.4272   -1.0133 H   0  0  0  0  0  0  0  0  0  0  0  0
   61.5657    0.7188   -0.1782 H   0  0  0  0  0  0  0  0  0  0  0  0
   60.7425    4.3567   -1.0586 H   0  0  0  0  0  0  0  0  0  0  0  0
   58.1618    4.3994   -1.1577 H   0  0  0  0  0  0  0  0  0  0  0  0
   56.2233    2.5723   -0.7309 H   0  0  0  0  0  0  0  0  0  0  0  0
   56.2259   -2.5861    0.7018 H   0  0  0  0  0  0  0  0  0  0  0  0
   58.1484   -4.4040    1.1168 H   0  0  0  0  0  0  0  0  0  0  0  0
   59.9630   -0.7184    0.1367 H   0  0  0  0  0  0  0  0  0  0  0  0
   60.7941   -4.3623    1.0289 H   0  0  0  0  0  0  0  0  0  0  0  0
   63.3946   -4.4276    0.9983 H   0  0  0  0  0  0  0  0  0  0  0  0
   65.3230   -2.5827    0.5722 H   0  0  0  0  0  0  0  0  0  0  0  0
   32.5106   -0.0268   -0.0056 C   0  0  0  0  0  0  0  0  0  0  0  0
   33.7291   -0.0275   -0.0017 C   0  0  0  0  0  0  0  0  0  0  0  0
   43.5929   -0.0026    0.0024 C   0  0  0  0  0  0  0  0  0  0  0  0
   44.8119    0.0037    0.0041 C   0  0  0  0  0  0  0  0  0  0  0  0
   54.6598    0.0203   -0.0017 C   0  0  0  0  0  0  0  0  0  0  0  0
   55.8776    0.0205   -0.0086 C   0  0  0  0  0  0  0  0  0  0  0  0
   35.1362   -0.0232    0.0008 C   0  0  0  0  0  0  0  0  0  0  0  0
   35.7807    1.2285   -0.0663 C   0  0  0  0  0  0  0  0  0  0  0  0
   35.1790    2.5109   -0.1497 C   0  0  0  0  0  0  0  0  0  0  0  0
   36.1780    3.4454   -0.1847 C   0  0  0  0  0  0  0  0  0  0  0  0
   37.4205    2.7577   -0.1280 C   0  0  0  0  0  0  0  0  0  0  0  0
   37.1297    1.4230   -0.0592 N   0  0  0  0  0  0  0  0  0  0  0  0
   38.6857    3.3351   -0.1431 C   0  0  0  0  0  0  0  0  0  0  0  0
   39.9211    2.7081   -0.1075 C   0  0  0  0  0  0  0  0  0  0  0  0
   41.1755    3.4377   -0.1379 C   0  0  0  0  0  0  0  0  0  0  0  0
   42.1548    2.5106   -0.1007 C   0  0  0  0  0  0  0  0  0  0  0  0
   40.1593    1.3691   -0.0502 N   0  0  0  0  0  0  0  0  0  0  0  0
   41.4980    1.2190   -0.0454 C   0  0  0  0  0  0  0  0  0  0  0  0
   42.1867   -0.0126    0.0020 C   0  0  0  0  0  0  0  0  0  0  0  0
   41.5424   -1.2654    0.0502 C   0  0  0  0  0  0  0  0  0  0  0  0
   42.1435   -2.5496    0.1047 C   0  0  0  0  0  0  0  0  0  0  0  0
   41.1441   -3.4831    0.1442 C   0  0  0  0  0  0  0  0  0  0  0  0
   39.9016   -2.7934    0.1164 C   0  0  0  0  0  0  0  0  0  0  0  0
   40.1932   -1.4582    0.0581 N   0  0  0  0  0  0  0  0  0  0  0  0
   38.6363   -3.3694    0.1522 C   0  0  0  0  0  0  0  0  0  0  0  0
   37.4006   -2.7418    0.1350 C   0  0  0  0  0  0  0  0  0  0  0  0
   36.1462   -3.4702    0.1958 C   0  0  0  0  0  0  0  0  0  0  0  0
   35.1665   -2.5438    0.1579 C   0  0  0  0  0  0  0  0  0  0  0  0
   35.8230   -1.2537    0.0702 C   0  0  0  0  0  0  0  0  0  0  0  0
   37.1623   -1.4041    0.0627 N   0  0  0  0  0  0  0  0  0  0  0  0
   34.1172    2.6891   -0.1828 H   0  0  0  0  0  0  0  0  0  0  0  0
   36.0731    4.5168   -0.2465 H   0  0  0  0  0  0  0  0  0  0  0  0
   37.8131    0.6740   -0.0109 H   0  0  0  0  0  0  0  0  0  0  0  0
   38.6965    4.4197   -0.1942 H   0  0  0  0  0  0  0  0  0  0  0  0
   41.2624    4.5120   -0.1832 H   0  0  0  0  0  0  0  0  0  0  0  0
   43.2217    2.6601   -0.1114 H   0  0  0  0  0  0  0  0  0  0  0  0
   43.2052   -2.7300    0.1146 H   0  0  0  0  0  0  0  0  0  0  0  0
   41.2485   -4.5554    0.1898 H   0  0  0  0  0  0  0  0  0  0  0  0
   39.5101   -0.7081    0.0279 H   0  0  0  0  0  0  0  0  0  0  0  0
   38.6257   -4.4539    0.2047 H   0  0  0  0  0  0  0  0  0  0  0  0
   36.0602   -4.5436    0.2608 H   0  0  0  0  0  0  0  0  0  0  0  0
   34.0999   -2.6925    0.1904 H   0  0  0  0  0  0  0  0  0  0  0  0
   46.2183    0.0128    0.0064 C   0  0  0  0  0  0  0  0  0  0  0  0
   46.8622    1.2660    0.0458 C   0  0  0  0  0  0  0  0  0  0  0  0
   46.2594    2.5500    0.0904 C   0  0  0  0  0  0  0  0  0  0  0  0
   47.2575    3.4850    0.1273 C   0  0  0  0  0  0  0  0  0  0  0  0
   48.5010    2.7966    0.1075 C   0  0  0  0  0  0  0  0  0  0  0  0
   48.2112    1.4605    0.0559 N   0  0  0  0  0  0  0  0  0  0  0  0
   49.7658    3.3735    0.1456 C   0  0  0  0  0  0  0  0  0  0  0  0
   51.0003    2.7433    0.1330 C   0  0  0  0  0  0  0  0  0  0  0  0
   52.2578    3.4664    0.1965 C   0  0  0  0  0  0  0  0  0  0  0  0
   53.2340    2.5361    0.1596 C   0  0  0  0  0  0  0  0  0  0  0  0
   51.2326    1.4047    0.0609 N   0  0  0  0  0  0  0  0  0  0  0  0
   52.5711    1.2490    0.0692 C   0  0  0  0  0  0  0  0  0  0  0  0
   53.2532    0.0166    0.0031 C   0  0  0  0  0  0  0  0  0  0  0  0
   52.6114   -1.2359   -0.0570 C   0  0  0  0  0  0  0  0  0  0  0  0
   53.2172   -2.5167   -0.1419 C   0  0  0  0  0  0  0  0  0  0  0  0
   52.2201   -3.4537   -0.1707 C   0  0  0  0  0  0  0  0  0  0  0  0
   50.9760   -2.7691   -0.1095 C   0  0  0  0  0  0  0  0  0  0  0  0
   51.2633   -1.4336   -0.0441 N   0  0  0  0  0  0  0  0  0  0  0  0
   49.7105   -3.3459   -0.1171 C   0  0  0  0  0  0  0  0  0  0  0  0
   48.4770   -2.7150   -0.0810 C   0  0  0  0  0  0  0  0  0  0  0  0
   47.2204   -3.4410   -0.1029 C   0  0  0  0  0  0  0  0  0  0  0  0
   46.2442   -2.5106   -0.0721 C   0  0  0  0  0  0  0  0  0  0  0  0
   46.9048   -1.2204   -0.0291 C   0  0  0  0  0  0  0  0  0  0  0  0
   48.2431   -1.3746   -0.0341 N   0  0  0  0  0  0  0  0  0  0  0  0
   45.1974    2.7291    0.0960 H   0  0  0  0  0  0  0  0  0  0  0  0
   47.1517    4.5573    0.1661 H   0  0  0  0  0  0  0  0  0  0  0  0
   48.8960    0.7119    0.0320 H   0  0  0  0  0  0  0  0  0  0  0  0
   49.7769    4.4580    0.1951 H   0  0  0  0  0  0  0  0  0  0  0  0
   52.3479    4.5393    0.2632 H   0  0  0  0  0  0  0  0  0  0  0  0
   54.3017    2.6793    0.1958 H   0  0  0  0  0  0  0  0  0  0  0  0
   54.2798   -2.6911   -0.1816 H   0  0  0  0  0  0  0  0  0  0  0  0
   52.3272   -4.5249   -0.2321 H   0  0  0  0  0  0  0  0  0  0  0  0
   50.5774   -0.6871    0.0045 H   0  0  0  0  0  0  0  0  0  0  0  0
   49.6973   -4.4307   -0.1630 H   0  0  0  0  0  0  0  0  0  0  0  0
   47.1302   -4.5153   -0.1386 H   0  0  0  0  0  0  0  0  0  0  0  0
   45.1769   -2.6570   -0.0792 H   0  0  0  0  0  0  0  0  0  0  0  0
  1  2  4  0  0  0  0
  2  3  4  0  0  0  0
  3  4  2  0  0  0  0
  4  5  4  0  0  0  0
  2  6  4  0  0  0  0
  5  6  4  0  0  0  0
  5  7  4  0  0  0  0
  7  8  4  0  0  0  0
  8  9  1  0  0  0  0
  9 10  2  0  0  0  0
  8 11  4  0  0  0  0
 10 12  1  0  0  0  0
 11 12  4  0  0  0  0
 12 13  4  0  0  0  0
 13 14  4  0  0  0  0
 14 15  4  0  0  0  0
 15 16  2  0  0  0  0
 16 17  4  0  0  0  0
 14 18  4  0  0  0  0
 17 18  4  0  0  0  0
 17 19  4  0  0  0  0
 19 20  4  0  0  0  0
 20 21  1  0  0  0  0
 21 22  2  0  0  0  0
  1 23  4  0  0  0  0
 22 23  1  0  0  0  0
 20 24  4  0  0  0  0
 23 24  4  0  0  0  0
  1 25  1  0  0  0  0
  3 26  1  0  0  0  0
  4 27  1  0  0  0  0
  6 28  1  0  0  0  0
  7 29  1  0  0  0  0
  9 30  1  0  0  0  0
 10 31  1  0  0  0  0
 15 32  1  0  0  0  0
 16 33  1  0  0  0  0
 18 34  1  0  0  0  0
 19 35  1  0  0  0  0
 21 36  1  0  0  0  0
 22 37  1  0  0  0  0
 38 39  4  0  0  0  0
 39 40  4  0  0  0  0
 40 41  2  0  0  0  0
 41 42  4  0  0  0  0
 39 43  4  0  0  0  0
 42 43  4  0  0  0  0
 42 44  4  0  0  0  0
 44 45  4  0  0  0  0
 45 46  1  0  0  0  0
 46 47  2  0  0  0  0
 45 48  4  0  0  0  0
 47 49  1  0  0  0  0
 48 49  4  0  0  0  0
 49 50  4  0  0  0  0
 50 51  4  0  0  0  0
 51 52  4  0  0  0  0
 52 53  2  0  0  0  0
 53 54  4  0  0  0  0
 51 55  4  0  0  0  0
 54 55  4  0  0  0  0
 54 56  4  0  0  0  0
 56 57  4  0  0  0  0
 57 58  1  0  0  0  0
 58 59  2  0  0  0  0
 38 60  4  0  0  0  0
 59 60  1  0  0  0  0
 57 61  4  0  0  0  0
 60 61  4  0  0  0  0
 38 62  1  0  0  0  0
 40 63  1  0  0  0  0
 41 64  1  0  0  0  0
 43 65  1  0  0  0  0
 44 66  1  0  0  0  0
 46 67  1  0  0  0  0
 47 68  1  0  0  0  0
 52 69  1  0  0  0  0
 53 70  1  0  0  0  0
 55 71  1  0  0  0  0
 56 72  1  0  0  0  0
 58 73  1  0  0  0  0
 59 74  1  0  0  0  0
 13 75  4  0  0  0  0
 75 76  3  0  0  0  0
 77 78  3  0  0  0  0
 50 80  4  0  0  0  0
 79 80  3  0  0  0  0
 76 81  4  0  0  0  0
 81 82  4  0  0  0  0
 82 83  4  0  0  0  0
 83 84  2  0  0  0  0
 84 85  4  0  0  0  0
 82 86  4  0  0  0  0
 85 86  4  0  0  0  0
 85 87  4  0  0  0  0
 87 88  4  0  0  0  0
 88 89  1  0  0  0  0
 89 90  2  0  0  0  0
 88 91  4  0  0  0  0
 90 92  1  0  0  0  0
 91 92  4  0  0  0  0
 77 93  4  0  0  0  0
 92 93  4  0  0  0  0
 93 94  4  0  0  0  0
 94 95  4  0  0  0  0
 95 96  2  0  0  0  0
 96 97  4  0  0  0  0
 94 98  4  0  0  0  0
 97 98  4  0  0  0  0
 97 99  4  0  0  0  0
 99100  4  0  0  0  0
100101  1  0  0  0  0
101102  2  0  0  0  0
 81103  4  0  0  0  0
102103  1  0  0  0  0
100104  4  0  0  0  0
103104  4  0  0  0  0
 83105  1  0  0  0  0
 84106  1  0  0  0  0
 86107  1  0  0  0  0
 87108  1  0  0  0  0
 89109  1  0  0  0  0
 90110  1  0  0  0  0
 95111  1  0  0  0  0
 96112  1  0  0  0  0
 98113  1  0  0  0  0
 99114  1  0  0  0  0
101115  1  0  0  0  0
102116  1  0  0  0  0
 78117  4  0  0  0  0
117118  4  0  0  0  0
118119  4  0  0  0  0
119120  2  0  0  0  0
120121  4  0  0  0  0
118122  4  0  0  0  0
121122  4  0  0  0  0
121123  4  0  0  0  0
123124  4  0  0  0  0
124125  1  0  0  0  0
125126  2  0  0  0  0
124127  4  0  0  0  0
126128  1  0  0  0  0
127128  4  0  0  0  0
 79129  4  0  0  0  0
128129  4  0  0  0  0
129130  4  0  0  0  0
130131  4  0  0  0  0
131132  2  0  0  0  0
132133  4  0  0  0  0
130134  4  0  0  0  0
133134  4  0  0  0  0
133135  4  0  0  0  0
135136  4  0  0  0  0
136137  1  0  0  0  0
137138  2  0  0  0  0
117139  4  0  0  0  0
138139  1  0  0  0  0
136140  4  0  0  0  0
139140  4  0  0  0  0
119141  1  0  0  0  0
120142  1  0  0  0  0
122143  1  0  0  0  0
123144  1  0  0  0  0
125145  1  0  0  0  0
126146  1  0  0  0  0
131147  1  0  0  0  0
132148  1  0  0  0  0
134149  1  0  0  0  0
135150  1  0  0  0  0
137151  1  0  0  0  0
138152  1  0  0  0  0
M  END
