 xtb: 6.5.1 (b24c23e)
          07292217263D

298332  0     0  0            999 V2000
   53.8446   -0.0686    0.0420 C   0  0  0  0  0  0  0  0  0  0  0  0
   54.4563   -1.1549    0.6543 C   0  0  0  0  0  0  0  0  0  0  0  0
   53.8070   -2.2756    1.2445 C   0  0  0  0  0  0  0  0  0  0  0  0
   54.7705   -3.1077    1.7409 C   0  0  0  0  0  0  0  0  0  0  0  0
   56.0399   -2.5175    1.4784 C   0  0  0  0  0  0  0  0  0  0  0  0
   55.7994   -1.3483    0.8138 N   0  0  0  0  0  0  0  0  0  0  0  0
   57.3034   -3.0213    1.8064 C   0  0  0  0  0  0  0  0  0  0  0  0
   58.5168   -2.4107    1.4799 C   0  0  0  0  0  0  0  0  0  0  0  0
   59.8157   -2.9231    1.8783 C   0  0  0  0  0  0  0  0  0  0  0  0
   60.7332   -2.0711    1.3764 C   0  0  0  0  0  0  0  0  0  0  0  0
   58.6667   -1.2590    0.7701 N   0  0  0  0  0  0  0  0  0  0  0  0
   59.9937   -1.0336    0.6833 C   0  0  0  0  0  0  0  0  0  0  0  0
   60.6259    0.0426    0.0306 C   0  0  0  0  0  0  0  0  0  0  0  0
   59.9898    1.1161   -0.6188 C   0  0  0  0  0  0  0  0  0  0  0  0
   60.6334    2.1827   -1.3013 C   0  0  0  0  0  0  0  0  0  0  0  0
   59.6658    3.0123   -1.7961 C   0  0  0  0  0  0  0  0  0  0  0  0
   58.3997    2.4820   -1.4222 C   0  0  0  0  0  0  0  0  0  0  0  0
   57.1368    3.0013   -1.7256 C   0  0  0  0  0  0  0  0  0  0  0  0
   57.1010    4.2735   -2.4872 C   0  0  0  0  0  0  0  0  0  0  0  0
   56.4897    4.3285   -3.7409 C   0  0  0  0  0  0  0  0  0  0  0  0
   56.4598    5.5166   -4.4553 C   0  0  0  0  0  0  0  0  0  0  0  0
   57.0353    6.6641   -3.9267 C   0  0  0  0  0  0  0  0  0  0  0  0
   57.6433    6.6185   -2.6795 C   0  0  0  0  0  0  0  0  0  0  0  0
   57.6790    5.4311   -1.9638 C   0  0  0  0  0  0  0  0  0  0  0  0
   55.9224    2.4069   -1.3664 C   0  0  0  0  0  0  0  0  0  0  0  0
   54.6159    2.9863   -1.6376 C   0  0  0  0  0  0  0  0  0  0  0  0
   53.7052    2.1238   -1.1430 C   0  0  0  0  0  0  0  0  0  0  0  0
   54.4541    1.0238   -0.5611 C   0  0  0  0  0  0  0  0  0  0  0  0
   55.7856    1.2328   -0.7058 N   0  0  0  0  0  0  0  0  0  0  0  0
   58.6477    1.3330   -0.7186 N   0  0  0  0  0  0  0  0  0  0  0  0
   57.3373   -4.2993    2.5595 C   0  0  0  0  0  0  0  0  0  0  0  0
   56.7451   -4.3935    3.8198 C   0  0  0  0  0  0  0  0  0  0  0  0
   56.7797   -5.5878    4.5238 C   0  0  0  0  0  0  0  0  0  0  0  0
   57.4004   -6.7028    3.9770 C   0  0  0  0  0  0  0  0  0  0  0  0
   57.9891   -6.6181    2.7226 C   0  0  0  0  0  0  0  0  0  0  0  0
   57.9604   -5.4244    2.0175 C   0  0  0  0  0  0  0  0  0  0  0  0
   52.7592   -0.0832    0.0398 H   0  0  0  0  0  0  0  0  0  0  0  0
   52.7384   -2.4175    1.2732 H   0  0  0  0  0  0  0  0  0  0  0  0
   54.6218   -4.0527    2.2378 H   0  0  0  0  0  0  0  0  0  0  0  0
   56.5240   -0.7193    0.4842 H   0  0  0  0  0  0  0  0  0  0  0  0
   59.9808   -3.8067    2.4733 H   0  0  0  0  0  0  0  0  0  0  0  0
   61.8073   -2.1121    1.4619 H   0  0  0  0  0  0  0  0  0  0  0  0
   61.7016    2.2887   -1.4014 H   0  0  0  0  0  0  0  0  0  0  0  0
   59.8127    3.9073   -2.3783 H   0  0  0  0  0  0  0  0  0  0  0  0
   56.0523    3.4301   -4.1617 H   0  0  0  0  0  0  0  0  0  0  0  0
   55.9862    5.5461   -5.4304 H   0  0  0  0  0  0  0  0  0  0  0  0
   57.0098    7.5926   -4.4858 H   0  0  0  0  0  0  0  0  0  0  0  0
   58.0912    7.5127   -2.2605 H   0  0  0  0  0  0  0  0  0  0  0  0
   58.1412    5.4019   -0.9833 H   0  0  0  0  0  0  0  0  0  0  0  0
   54.4443    3.9313   -2.1274 H   0  0  0  0  0  0  0  0  0  0  0  0
   52.6291    2.2007   -1.1484 H   0  0  0  0  0  0  0  0  0  0  0  0
   57.9257    0.7283   -0.3410 H   0  0  0  0  0  0  0  0  0  0  0  0
   56.2729   -3.5198    4.2554 H   0  0  0  0  0  0  0  0  0  0  0  0
   56.3214   -5.6475    5.5048 H   0  0  0  0  0  0  0  0  0  0  0  0
   57.4256   -7.6361    4.5279 H   0  0  0  0  0  0  0  0  0  0  0  0
   58.4727   -7.4869    2.2899 H   0  0  0  0  0  0  0  0  0  0  0  0
   58.4094   -5.3638    1.0324 H   0  0  0  0  0  0  0  0  0  0  0  0
  114.3998    0.0640   -0.0486 C   0  0  0  0  0  0  0  0  0  0  0  0
  113.7827    1.0906   -0.7519 C   0  0  0  0  0  0  0  0  0  0  0  0
  114.4256    2.1137   -1.5040 C   0  0  0  0  0  0  0  0  0  0  0  0
  113.4579    2.9291   -2.0196 C   0  0  0  0  0  0  0  0  0  0  0  0
  112.1925    2.4372   -1.5896 C   0  0  0  0  0  0  0  0  0  0  0  0
  112.4390    1.3216   -0.8403 N   0  0  0  0  0  0  0  0  0  0  0  0
  110.9267    2.9646   -1.8687 C   0  0  0  0  0  0  0  0  0  0  0  0
  109.7178    2.4059   -1.4461 C   0  0  0  0  0  0  0  0  0  0  0  0
  108.4185    3.0083   -1.6856 C   0  0  0  0  0  0  0  0  0  0  0  0
  107.5050    2.1722   -1.1504 C   0  0  0  0  0  0  0  0  0  0  0  0
  109.5727    1.2418   -0.7559 N   0  0  0  0  0  0  0  0  0  0  0  0
  108.2475    1.0661   -0.5773 C   0  0  0  0  0  0  0  0  0  0  0  0
  107.6192   -0.0325    0.0418 C   0  0  0  0  0  0  0  0  0  0  0  0
  108.2611   -1.1188    0.6637 C   0  0  0  0  0  0  0  0  0  0  0  0
  107.6246   -2.2334    1.2719 C   0  0  0  0  0  0  0  0  0  0  0  0
  108.5964   -3.0414    1.7938 C   0  0  0  0  0  0  0  0  0  0  0  0
  109.8576   -2.4401    1.5264 C   0  0  0  0  0  0  0  0  0  0  0  0
  111.1222   -2.9221    1.8809 C   0  0  0  0  0  0  0  0  0  0  0  0
  111.1619   -4.1694    2.6819 C   0  0  0  0  0  0  0  0  0  0  0  0
  111.8106   -5.3050    2.1942 C   0  0  0  0  0  0  0  0  0  0  0  0
  111.8446   -6.4703    2.9450 C   0  0  0  0  0  0  0  0  0  0  0  0
  111.2360   -6.5160    4.1920 C   0  0  0  0  0  0  0  0  0  0  0  0
  110.5900   -5.3905    4.6852 C   0  0  0  0  0  0  0  0  0  0  0  0
  110.5501   -4.2247    3.9354 C   0  0  0  0  0  0  0  0  0  0  0  0
  112.3333   -2.3137    1.5342 C   0  0  0  0  0  0  0  0  0  0  0  0
  113.6412   -2.7952    1.9512 C   0  0  0  0  0  0  0  0  0  0  0  0
  114.5479   -1.9604    1.4046 C   0  0  0  0  0  0  0  0  0  0  0  0
  113.7950   -0.9620    0.6658 C   0  0  0  0  0  0  0  0  0  0  0  0
  112.4650   -1.1992    0.7763 N   0  0  0  0  0  0  0  0  0  0  0  0
  109.6033   -1.2877    0.8309 N   0  0  0  0  0  0  0  0  0  0  0  0
  110.8838    4.2077   -2.6771 C   0  0  0  0  0  0  0  0  0  0  0  0
  111.5037    5.3726   -2.2226 C   0  0  0  0  0  0  0  0  0  0  0  0
  111.4626    6.5317   -2.9830 C   0  0  0  0  0  0  0  0  0  0  0  0
  110.8074    6.5411   -4.2069 C   0  0  0  0  0  0  0  0  0  0  0  0
  110.1897    5.3860   -4.6669 C   0  0  0  0  0  0  0  0  0  0  0  0
  110.2249    4.2264   -3.9075 C   0  0  0  0  0  0  0  0  0  0  0  0
  115.4850    0.0731   -0.0639 H   0  0  0  0  0  0  0  0  0  0  0  0
  115.4930    2.1995   -1.6316 H   0  0  0  0  0  0  0  0  0  0  0  0
  113.6018    3.7919   -2.6497 H   0  0  0  0  0  0  0  0  0  0  0  0
  111.7179    0.7493   -0.4139 H   0  0  0  0  0  0  0  0  0  0  0  0
  108.2511    3.9500   -2.1827 H   0  0  0  0  0  0  0  0  0  0  0  0
  106.4319    2.2750   -1.1255 H   0  0  0  0  0  0  0  0  0  0  0  0
  106.5581   -2.3895    1.2985 H   0  0  0  0  0  0  0  0  0  0  0  0
  108.4559   -3.9770    2.3103 H   0  0  0  0  0  0  0  0  0  0  0  0
  112.2742   -5.2762    1.2144 H   0  0  0  0  0  0  0  0  0  0  0  0
  112.3476   -7.3478    2.5539 H   0  0  0  0  0  0  0  0  0  0  0  0
  111.2650   -7.4273    4.7786 H   0  0  0  0  0  0  0  0  0  0  0  0
  110.1158   -5.4196    5.6600 H   0  0  0  0  0  0  0  0  0  0  0  0
  110.0580   -3.3423    4.3295 H   0  0  0  0  0  0  0  0  0  0  0  0
  113.8161   -3.6488    2.5861 H   0  0  0  0  0  0  0  0  0  0  0  0
  115.6235   -1.9859    1.4835 H   0  0  0  0  0  0  0  0  0  0  0  0
  110.3211   -0.6570    0.4894 H   0  0  0  0  0  0  0  0  0  0  0  0
  112.0029    5.3723   -1.2599 H   0  0  0  0  0  0  0  0  0  0  0  0
  111.9433    7.4323   -2.6172 H   0  0  0  0  0  0  0  0  0  0  0  0
  110.7779    7.4474   -4.8011 H   0  0  0  0  0  0  0  0  0  0  0  0
  109.6785    5.3874   -5.6233 H   0  0  0  0  0  0  0  0  0  0  0  0
  109.7534    3.3216   -4.2745 H   0  0  0  0  0  0  0  0  0  0  0  0
   63.2557    0.0668    0.0006 C   0  0  0  0  0  0  0  0  0  0  0  0
   62.0345    0.0566    0.0176 C   0  0  0  0  0  0  0  0  0  0  0  0
   64.6069    0.0717   -0.0152 C   0  0  0  0  0  0  0  0  0  0  0  0
   65.8283    0.0708   -0.0316 C   0  0  0  0  0  0  0  0  0  0  0  0
   76.7187    0.0220   -0.0203 C   0  0  0  0  0  0  0  0  0  0  0  0
   75.4960    0.0362   -0.0249 C   0  0  0  0  0  0  0  0  0  0  0  0
   78.0670    0.0137   -0.0168 C   0  0  0  0  0  0  0  0  0  0  0  0
   79.2897    0.0034   -0.0138 C   0  0  0  0  0  0  0  0  0  0  0  0
   90.1820   -0.0048   -0.0143 C   0  0  0  0  0  0  0  0  0  0  0  0
   88.9592    0.0060   -0.0063 C   0  0  0  0  0  0  0  0  0  0  0  0
   91.5302   -0.0067   -0.0254 C   0  0  0  0  0  0  0  0  0  0  0  0
   92.7528   -0.0238   -0.0311 C   0  0  0  0  0  0  0  0  0  0  0  0
  103.6393   -0.0874    0.0173 C   0  0  0  0  0  0  0  0  0  0  0  0
  102.4178   -0.0875   -0.0014 C   0  0  0  0  0  0  0  0  0  0  0  0
  104.9900   -0.0780    0.0319 C   0  0  0  0  0  0  0  0  0  0  0  0
  106.2114   -0.0580    0.0418 C   0  0  0  0  0  0  0  0  0  0  0  0
   67.2361    0.0708   -0.0418 C   0  0  0  0  0  0  0  0  0  0  0  0
   67.8628    1.2396    0.4283 C   0  0  0  0  0  0  0  0  0  0  0  0
   67.2146    2.3979    0.9307 C   0  0  0  0  0  0  0  0  0  0  0  0
   68.1801    3.2992    1.2871 C   0  0  0  0  0  0  0  0  0  0  0  0
   69.4469    2.7197    1.0042 C   0  0  0  0  0  0  0  0  0  0  0  0
   69.2043    1.4734    0.4919 N   0  0  0  0  0  0  0  0  0  0  0  0
   70.7072    3.2882    1.2242 C   0  0  0  0  0  0  0  0  0  0  0  0
   71.9310    2.6686    0.9691 C   0  0  0  0  0  0  0  0  0  0  0  0
   73.2182    3.3128    1.1591 C   0  0  0  0  0  0  0  0  0  0  0  0
   74.1547    2.4069    0.8089 C   0  0  0  0  0  0  0  0  0  0  0  0
   72.1069    1.4036    0.4958 N   0  0  0  0  0  0  0  0  0  0  0  0
   73.4379    1.2158    0.3979 C   0  0  0  0  0  0  0  0  0  0  0  0
   74.0918    0.0439   -0.0341 C   0  0  0  0  0  0  0  0  0  0  0  0
   73.4631   -1.1351   -0.4800 C   0  0  0  0  0  0  0  0  0  0  0  0
   74.1107   -2.3275   -0.8949 C   0  0  0  0  0  0  0  0  0  0  0  0
   73.1450   -3.2262   -1.2579 C   0  0  0  0  0  0  0  0  0  0  0  0
   71.8789   -2.6044   -1.0819 C   0  0  0  0  0  0  0  0  0  0  0  0
   70.6191   -3.1644   -1.3238 C   0  0  0  0  0  0  0  0  0  0  0  0
   70.6040   -4.5434   -1.8737 C   0  0  0  0  0  0  0  0  0  0  0  0
   71.1725   -4.8143   -3.1190 C   0  0  0  0  0  0  0  0  0  0  0  0
   71.1540   -6.1024   -3.6327 C   0  0  0  0  0  0  0  0  0  0  0  0
   70.5744   -7.1348   -2.9079 C   0  0  0  0  0  0  0  0  0  0  0  0
   70.0103   -6.8738   -1.6666 C   0  0  0  0  0  0  0  0  0  0  0  0
   70.0219   -5.5861   -1.1519 C   0  0  0  0  0  0  0  0  0  0  0  0
   69.3948   -2.5354   -1.0912 C   0  0  0  0  0  0  0  0  0  0  0  0
   68.1075   -3.1321   -1.4002 C   0  0  0  0  0  0  0  0  0  0  0  0
   67.1712   -2.2320   -1.0354 C   0  0  0  0  0  0  0  0  0  0  0  0
   67.8879   -1.0836   -0.5163 C   0  0  0  0  0  0  0  0  0  0  0  0
   69.2200   -1.2907   -0.5691 N   0  0  0  0  0  0  0  0  0  0  0  0
   72.1224   -1.3447   -0.6024 N   0  0  0  0  0  0  0  0  0  0  0  0
   70.7232    4.6645    1.7813 C   0  0  0  0  0  0  0  0  0  0  0  0
   70.1718    5.7272    1.0647 C   0  0  0  0  0  0  0  0  0  0  0  0
   70.1901    7.0107    1.5898 C   0  0  0  0  0  0  0  0  0  0  0  0
   70.7521    7.2471    2.8370 C   0  0  0  0  0  0  0  0  0  0  0  0
   71.2999    6.1942    3.5573 C   0  0  0  0  0  0  0  0  0  0  0  0
   71.2888    4.9105    3.0331 C   0  0  0  0  0  0  0  0  0  0  0  0
   66.1460    2.5153    1.0118 H   0  0  0  0  0  0  0  0  0  0  0  0
   68.0303    4.2762    1.7170 H   0  0  0  0  0  0  0  0  0  0  0  0
   69.9251    0.8158    0.2139 H   0  0  0  0  0  0  0  0  0  0  0  0
   73.3630    4.3249    1.5007 H   0  0  0  0  0  0  0  0  0  0  0  0
   75.2279    2.5120    0.8118 H   0  0  0  0  0  0  0  0  0  0  0  0
   75.1789   -2.4725   -0.9060 H   0  0  0  0  0  0  0  0  0  0  0  0
   73.2942   -4.2346   -1.6077 H   0  0  0  0  0  0  0  0  0  0  0  0
   71.6140   -4.0067   -3.6924 H   0  0  0  0  0  0  0  0  0  0  0  0
   71.5932   -6.3003   -4.6042 H   0  0  0  0  0  0  0  0  0  0  0  0
   70.5622   -8.1415   -3.3101 H   0  0  0  0  0  0  0  0  0  0  0  0
   69.5592   -7.6774   -1.0951 H   0  0  0  0  0  0  0  0  0  0  0  0
   69.5914   -5.3859   -0.1771 H   0  0  0  0  0  0  0  0  0  0  0  0
   67.9624   -4.1020   -1.8475 H   0  0  0  0  0  0  0  0  0  0  0  0
   66.0982   -2.3084   -1.1094 H   0  0  0  0  0  0  0  0  0  0  0  0
   71.4017   -0.6709   -0.3664 H   0  0  0  0  0  0  0  0  0  0  0  0
   69.7436    5.5468    0.0849 H   0  0  0  0  0  0  0  0  0  0  0  0
   69.7644    7.8304    1.0217 H   0  0  0  0  0  0  0  0  0  0  0  0
   70.7635    8.2506    3.2470 H   0  0  0  0  0  0  0  0  0  0  0  0
   71.7374    6.3730    4.5332 H   0  0  0  0  0  0  0  0  0  0  0  0
   71.7068    4.0869    3.6011 H   0  0  0  0  0  0  0  0  0  0  0  0
   80.6938    0.0027   -0.0091 C   0  0  0  0  0  0  0  0  0  0  0  0
   81.3181    1.1579    0.5011 C   0  0  0  0  0  0  0  0  0  0  0  0
   80.6665    2.2988    1.0361 C   0  0  0  0  0  0  0  0  0  0  0  0
   81.6293    3.1980    1.4064 C   0  0  0  0  0  0  0  0  0  0  0  0
   82.8971    2.6342    1.0990 C   0  0  0  0  0  0  0  0  0  0  0  0
   82.6582    1.3968    0.5630 N   0  0  0  0  0  0  0  0  0  0  0  0
   84.1551    3.2114    1.3110 C   0  0  0  0  0  0  0  0  0  0  0  0
   85.3819    2.6070    1.0343 C   0  0  0  0  0  0  0  0  0  0  0  0
   86.6651    3.2622    1.2136 C   0  0  0  0  0  0  0  0  0  0  0  0
   87.6061    2.3672    0.8474 C   0  0  0  0  0  0  0  0  0  0  0  0
   85.5644    1.3470    0.5499 N   0  0  0  0  0  0  0  0  0  0  0  0
   86.8960    1.1721    0.4370 C   0  0  0  0  0  0  0  0  0  0  0  0
   87.5551    0.0071   -0.0056 C   0  0  0  0  0  0  0  0  0  0  0  0
   86.9305   -1.1733   -0.4541 C   0  0  0  0  0  0  0  0  0  0  0  0
   87.5821   -2.3614   -0.8740 C   0  0  0  0  0  0  0  0  0  0  0  0
   86.6194   -3.2612   -1.2430 C   0  0  0  0  0  0  0  0  0  0  0  0
   85.3517   -2.6436   -1.0666 C   0  0  0  0  0  0  0  0  0  0  0  0
   84.0938   -3.2030   -1.3222 C   0  0  0  0  0  0  0  0  0  0  0  0
   84.0847   -4.5770   -1.8843 C   0  0  0  0  0  0  0  0  0  0  0  0
   84.6627   -4.8369   -3.1275 C   0  0  0  0  0  0  0  0  0  0  0  0
   84.6495   -6.1207   -3.6519 C   0  0  0  0  0  0  0  0  0  0  0  0
   84.0659   -7.1597   -2.9398 C   0  0  0  0  0  0  0  0  0  0  0  0
   83.4922   -6.9096   -1.7006 C   0  0  0  0  0  0  0  0  0  0  0  0
   83.4982   -5.6262   -1.1754 C   0  0  0  0  0  0  0  0  0  0  0  0
   82.8672   -2.5782   -1.0950 C   0  0  0  0  0  0  0  0  0  0  0  0
   81.5841   -3.1700   -1.4284 C   0  0  0  0  0  0  0  0  0  0  0  0
   80.6431   -2.2758   -1.0604 C   0  0  0  0  0  0  0  0  0  0  0  0
   81.3532   -1.1374   -0.5121 C   0  0  0  0  0  0  0  0  0  0  0  0
   82.6848   -1.3413   -0.5541 N   0  0  0  0  0  0  0  0  0  0  0  0
   85.5905   -1.3864   -0.5788 N   0  0  0  0  0  0  0  0  0  0  0  0
   84.1643    4.5840    1.8768 C   0  0  0  0  0  0  0  0  0  0  0  0
   83.5873    5.6428    1.1745 C   0  0  0  0  0  0  0  0  0  0  0  0
   83.6005    6.9246    1.7038 C   0  0  0  0  0  0  0  0  0  0  0  0
   84.1831    7.1631    2.9411 C   0  0  0  0  0  0  0  0  0  0  0  0
   84.7558    6.1140    3.6474 C   0  0  0  0  0  0  0  0  0  0  0  0
   84.7498    4.8319    3.1189 C   0  0  0  0  0  0  0  0  0  0  0  0
   79.5979    2.4075    1.1276 H   0  0  0  0  0  0  0  0  0  0  0  0
   81.4766    4.1634    1.8606 H   0  0  0  0  0  0  0  0  0  0  0  0
   83.3809    0.7515    0.2620 H   0  0  0  0  0  0  0  0  0  0  0  0
   86.8043    4.2736    1.5594 H   0  0  0  0  0  0  0  0  0  0  0  0
   88.6782    2.4824    0.8389 H   0  0  0  0  0  0  0  0  0  0  0  0
   88.6507   -2.5033   -0.8844 H   0  0  0  0  0  0  0  0  0  0  0  0
   86.7722   -4.2673   -1.5978 H   0  0  0  0  0  0  0  0  0  0  0  0
   85.1074   -4.0241   -3.6909 H   0  0  0  0  0  0  0  0  0  0  0  0
   85.0960   -6.3101   -4.6217 H   0  0  0  0  0  0  0  0  0  0  0  0
   84.0580   -8.1631   -3.3502 H   0  0  0  0  0  0  0  0  0  0  0  0
   83.0379   -7.7184   -1.1390 H   0  0  0  0  0  0  0  0  0  0  0  0
   83.0599   -5.4340   -0.2025 H   0  0  0  0  0  0  0  0  0  0  0  0
   81.4448   -4.1326   -1.8931 H   0  0  0  0  0  0  0  0  0  0  0  0
   79.5710   -2.3517   -1.1477 H   0  0  0  0  0  0  0  0  0  0  0  0
   84.8678   -0.7156   -0.3402 H   0  0  0  0  0  0  0  0  0  0  0  0
   83.1434    5.4608    0.2020 H   0  0  0  0  0  0  0  0  0  0  0  0
   83.1548    7.7412    1.1465 H   0  0  0  0  0  0  0  0  0  0  0  0
   84.1910    8.1653    3.3543 H   0  0  0  0  0  0  0  0  0  0  0  0
   85.2093    6.2945    4.6157 H   0  0  0  0  0  0  0  0  0  0  0  0
   85.1873    4.0113    3.6765 H   0  0  0  0  0  0  0  0  0  0  0  0
   94.1570   -0.0299   -0.0363 C   0  0  0  0  0  0  0  0  0  0  0  0
   94.7885    1.1260    0.4627 C   0  0  0  0  0  0  0  0  0  0  0  0
   94.1445    2.2723    0.9958 C   0  0  0  0  0  0  0  0  0  0  0  0
   95.1123    3.1737    1.3465 C   0  0  0  0  0  0  0  0  0  0  0  0
   96.3760    2.6061    1.0282 C   0  0  0  0  0  0  0  0  0  0  0  0
   96.1294    1.3636    0.5074 N   0  0  0  0  0  0  0  0  0  0  0  0
   97.6369    3.1849    1.2131 C   0  0  0  0  0  0  0  0  0  0  0  0
   98.8583    2.5711    0.9298 C   0  0  0  0  0  0  0  0  0  0  0  0
  100.1456    3.2274    1.0730 C   0  0  0  0  0  0  0  0  0  0  0  0
  101.0795    2.3168    0.7286 C   0  0  0  0  0  0  0  0  0  0  0  0
   99.0302    1.2969    0.4833 N   0  0  0  0  0  0  0  0  0  0  0  0
  100.3612    1.1106    0.3676 C   0  0  0  0  0  0  0  0  0  0  0  0
  101.0108   -0.0783   -0.0178 C   0  0  0  0  0  0  0  0  0  0  0  0
  100.3802   -1.2686   -0.4253 C   0  0  0  0  0  0  0  0  0  0  0  0
  101.0234   -2.4753   -0.8042 C   0  0  0  0  0  0  0  0  0  0  0  0
  100.0559   -3.3708   -1.1705 C   0  0  0  0  0  0  0  0  0  0  0  0
   98.7931   -2.7329   -1.0323 C   0  0  0  0  0  0  0  0  0  0  0  0
   97.5327   -3.2795   -1.3033 C   0  0  0  0  0  0  0  0  0  0  0  0
   97.5145   -4.6595   -1.8501 C   0  0  0  0  0  0  0  0  0  0  0  0
   98.1167   -4.9423   -3.0768 C   0  0  0  0  0  0  0  0  0  0  0  0
   98.0945   -6.2312   -3.5882 C   0  0  0  0  0  0  0  0  0  0  0  0
   97.4776   -7.2530   -2.8793 C   0  0  0  0  0  0  0  0  0  0  0  0
   96.8798   -6.9803   -1.6564 C   0  0  0  0  0  0  0  0  0  0  0  0
   96.8948   -5.6917   -1.1444 C   0  0  0  0  0  0  0  0  0  0  0  0
   96.3113   -2.6357   -1.1013 C   0  0  0  0  0  0  0  0  0  0  0  0
   95.0245   -3.2142   -1.4443 C   0  0  0  0  0  0  0  0  0  0  0  0
   94.0904   -2.3088   -1.0863 C   0  0  0  0  0  0  0  0  0  0  0  0
   94.8085   -1.1759   -0.5366 C   0  0  0  0  0  0  0  0  0  0  0  0
   96.1380   -1.3936   -0.5695 N   0  0  0  0  0  0  0  0  0  0  0  0
   99.0393   -1.4689   -0.5675 N   0  0  0  0  0  0  0  0  0  0  0  0
   97.6584    4.5645    1.7602 C   0  0  0  0  0  0  0  0  0  0  0  0
   97.0618    5.6147    1.0612 C   0  0  0  0  0  0  0  0  0  0  0  0
   97.0858    6.9022    1.5759 C   0  0  0  0  0  0  0  0  0  0  0  0
   97.6990    7.1555    2.7953 C   0  0  0  0  0  0  0  0  0  0  0  0
   98.2919    6.1154    3.4982 C   0  0  0  0  0  0  0  0  0  0  0  0
   98.2751    4.8277    2.9842 C   0  0  0  0  0  0  0  0  0  0  0  0
   93.0771    2.3829    1.0992 H   0  0  0  0  0  0  0  0  0  0  0  0
   94.9660    4.1430    1.7944 H   0  0  0  0  0  0  0  0  0  0  0  0
   96.8482    0.7146    0.2051 H   0  0  0  0  0  0  0  0  0  0  0  0
  100.2917    4.2498    1.3818 H   0  0  0  0  0  0  0  0  0  0  0  0
  102.1518    2.4277    0.7055 H   0  0  0  0  0  0  0  0  0  0  0  0
  102.0902   -2.6306   -0.7926 H   0  0  0  0  0  0  0  0  0  0  0  0
  100.2014   -4.3866   -1.5000 H   0  0  0  0  0  0  0  0  0  0  0  0
   98.5876   -4.1429   -3.6384 H   0  0  0  0  0  0  0  0  0  0  0  0
   98.5600   -6.4381   -4.5455 H   0  0  0  0  0  0  0  0  0  0  0  0
   97.4626   -8.2604   -3.2795 H   0  0  0  0  0  0  0  0  0  0  0  0
   96.3994   -7.7756   -1.0973 H   0  0  0  0  0  0  0  0  0  0  0  0
   96.4376   -5.4824   -0.1838 H   0  0  0  0  0  0  0  0  0  0  0  0
   94.8783   -4.1766   -1.9074 H   0  0  0  0  0  0  0  0  0  0  0  0
   93.0183   -2.3732   -1.1822 H   0  0  0  0  0  0  0  0  0  0  0  0
   98.3214   -0.7832   -0.3587 H   0  0  0  0  0  0  0  0  0  0  0  0
   96.5942    5.4214    0.1020 H   0  0  0  0  0  0  0  0  0  0  0  0
   96.6245    7.7118    1.0212 H   0  0  0  0  0  0  0  0  0  0  0  0
   97.7150    8.1622    3.1973 H   0  0  0  0  0  0  0  0  0  0  0  0
   98.7696    6.3074    4.4525 H   0  0  0  0  0  0  0  0  0  0  0  0
   98.7283    4.0141    3.5396 H   0  0  0  0  0  0  0  0  0  0  0  0
  1  2  4  0  0  0  0
  2  3  4  0  0  0  0
  3  4  2  0  0  0  0
  4  5  4  0  0  0  0
  2  6  4  0  0  0  0
  5  6  4  0  0  0  0
  5  7  4  0  0  0  0
  7  8  4  0  0  0  0
  8  9  1  0  0  0  0
  9 10  2  0  0  0  0
  8 11  4  0  0  0  0
 10 12  1  0  0  0  0
 11 12  4  0  0  0  0
 12 13  4  0  0  0  0
 13 14  4  0  0  0  0
 14 15  4  0  0  0  0
 15 16  2  0  0  0  0
 16 17  4  0  0  0  0
 17 18  4  0  0  0  0
 18 19  1  0  0  0  0
 19 20  4  0  0  0  0
 20 21  4  0  0  0  0
 21 22  4  0  0  0  0
 22 23  4  0  0  0  0
 19 24  4  0  0  0  0
 23 24  4  0  0  0  0
 18 25  4  0  0  0  0
 25 26  1  0  0  0  0
 26 27  2  0  0  0  0
  1 28  4  0  0  0  0
 27 28  1  0  0  0  0
 25 29  4  0  0  0  0
 28 29  4  0  0  0  0
 14 30  4  0  0  0  0
 17 30  4  0  0  0  0
  7 31  1  0  0  0  0
 31 32  4  0  0  0  0
 32 33  4  0  0  0  0
 33 34  4  0  0  0  0
 34 35  4  0  0  0  0
 31 36  4  0  0  0  0
 35 36  4  0  0  0  0
  1 37  1  0  0  0  0
  3 38  1  0  0  0  0
  4 39  1  0  0  0  0
  6 40  1  0  0  0  0
  9 41  1  0  0  0  0
 10 42  1  0  0  0  0
 15 43  1  0  0  0  0
 16 44  1  0  0  0  0
 20 45  1  0  0  0  0
 21 46  1  0  0  0  0
 22 47  1  0  0  0  0
 23 48  1  0  0  0  0
 24 49  1  0  0  0  0
 26 50  1  0  0  0  0
 27 51  1  0  0  0  0
 30 52  1  0  0  0  0
 32 53  1  0  0  0  0
 33 54  1  0  0  0  0
 34 55  1  0  0  0  0
 35 56  1  0  0  0  0
 36 57  1  0  0  0  0
 58 59  4  0  0  0  0
 59 60  4  0  0  0  0
 60 61  2  0  0  0  0
 61 62  4  0  0  0  0
 59 63  4  0  0  0  0
 62 63  4  0  0  0  0
 62 64  4  0  0  0  0
 64 65  4  0  0  0  0
 65 66  1  0  0  0  0
 66 67  2  0  0  0  0
 65 68  4  0  0  0  0
 67 69  1  0  0  0  0
 68 69  4  0  0  0  0
 69 70  4  0  0  0  0
 70 71  4  0  0  0  0
 71 72  4  0  0  0  0
 72 73  2  0  0  0  0
 73 74  4  0  0  0  0
 74 75  4  0  0  0  0
 75 76  1  0  0  0  0
 76 77  4  0  0  0  0
 77 78  4  0  0  0  0
 78 79  4  0  0  0  0
 79 80  4  0  0  0  0
 76 81  4  0  0  0  0
 80 81  4  0  0  0  0
 75 82  4  0  0  0  0
 82 83  1  0  0  0  0
 83 84  2  0  0  0  0
 58 85  4  0  0  0  0
 84 85  1  0  0  0  0
 82 86  4  0  0  0  0
 85 86  4  0  0  0  0
 71 87  4  0  0  0  0
 74 87  4  0  0  0  0
 64 88  1  0  0  0  0
 88 89  4  0  0  0  0
 89 90  4  0  0  0  0
 90 91  4  0  0  0  0
 91 92  4  0  0  0  0
 88 93  4  0  0  0  0
 92 93  4  0  0  0  0
 58 94  1  0  0  0  0
 60 95  1  0  0  0  0
 61 96  1  0  0  0  0
 63 97  1  0  0  0  0
 66 98  1  0  0  0  0
 67 99  1  0  0  0  0
 72100  1  0  0  0  0
 73101  1  0  0  0  0
 77102  1  0  0  0  0
 78103  1  0  0  0  0
 79104  1  0  0  0  0
 80105  1  0  0  0  0
 81106  1  0  0  0  0
 83107  1  0  0  0  0
 84108  1  0  0  0  0
 87109  1  0  0  0  0
 89110  1  0  0  0  0
 90111  1  0  0  0  0
 91112  1  0  0  0  0
 92113  1  0  0  0  0
 93114  1  0  0  0  0
 13116  4  0  0  0  0
115116  3  0  0  0  0
115117  4  0  0  0  0
117118  3  0  0  0  0
119120  3  0  0  0  0
119121  4  0  0  0  0
121122  3  0  0  0  0
123124  3  0  0  0  0
123125  4  0  0  0  0
125126  3  0  0  0  0
127128  3  0  0  0  0
127129  4  0  0  0  0
 70130  4  0  0  0  0
129130  3  0  0  0  0
118131  4  0  0  0  0
131132  4  0  0  0  0
132133  4  0  0  0  0
133134  2  0  0  0  0
134135  4  0  0  0  0
132136  4  0  0  0  0
135136  4  0  0  0  0
135137  4  0  0  0  0
137138  4  0  0  0  0
138139  1  0  0  0  0
139140  2  0  0  0  0
138141  4  0  0  0  0
140142  1  0  0  0  0
141142  4  0  0  0  0
120143  4  0  0  0  0
142143  4  0  0  0  0
143144  4  0  0  0  0
144145  4  0  0  0  0
145146  2  0  0  0  0
146147  4  0  0  0  0
147148  4  0  0  0  0
148149  1  0  0  0  0
149150  4  0  0  0  0
150151  4  0  0  0  0
151152  4  0  0  0  0
152153  4  0  0  0  0
149154  4  0  0  0  0
153154  4  0  0  0  0
148155  4  0  0  0  0
155156  1  0  0  0  0
156157  2  0  0  0  0
131158  4  0  0  0  0
157158  1  0  0  0  0
155159  4  0  0  0  0
158159  4  0  0  0  0
144160  4  0  0  0  0
147160  4  0  0  0  0
137161  1  0  0  0  0
161162  4  0  0  0  0
162163  4  0  0  0  0
163164  4  0  0  0  0
164165  4  0  0  0  0
161166  4  0  0  0  0
165166  4  0  0  0  0
133167  1  0  0  0  0
134168  1  0  0  0  0
136169  1  0  0  0  0
139170  1  0  0  0  0
140171  1  0  0  0  0
145172  1  0  0  0  0
146173  1  0  0  0  0
150174  1  0  0  0  0
151175  1  0  0  0  0
152176  1  0  0  0  0
153177  1  0  0  0  0
154178  1  0  0  0  0
156179  1  0  0  0  0
157180  1  0  0  0  0
160181  1  0  0  0  0
162182  1  0  0  0  0
163183  1  0  0  0  0
164184  1  0  0  0  0
165185  1  0  0  0  0
166186  1  0  0  0  0
122187  4  0  0  0  0
187188  4  0  0  0  0
188189  4  0  0  0  0
189190  2  0  0  0  0
190191  4  0  0  0  0
188192  4  0  0  0  0
191192  4  0  0  0  0
191193  4  0  0  0  0
193194  4  0  0  0  0
194195  1  0  0  0  0
195196  2  0  0  0  0
194197  4  0  0  0  0
196198  1  0  0  0  0
197198  4  0  0  0  0
124199  4  0  0  0  0
198199  4  0  0  0  0
199200  4  0  0  0  0
200201  4  0  0  0  0
201202  2  0  0  0  0
202203  4  0  0  0  0
203204  4  0  0  0  0
204205  1  0  0  0  0
205206  4  0  0  0  0
206207  4  0  0  0  0
207208  4  0  0  0  0
208209  4  0  0  0  0
205210  4  0  0  0  0
209210  4  0  0  0  0
204211  4  0  0  0  0
211212  1  0  0  0  0
212213  2  0  0  0  0
187214  4  0  0  0  0
213214  1  0  0  0  0
211215  4  0  0  0  0
214215  4  0  0  0  0
200216  4  0  0  0  0
203216  4  0  0  0  0
193217  1  0  0  0  0
217218  4  0  0  0  0
218219  4  0  0  0  0
219220  4  0  0  0  0
220221  4  0  0  0  0
217222  4  0  0  0  0
221222  4  0  0  0  0
189223  1  0  0  0  0
190224  1  0  0  0  0
192225  1  0  0  0  0
195226  1  0  0  0  0
196227  1  0  0  0  0
201228  1  0  0  0  0
202229  1  0  0  0  0
206230  1  0  0  0  0
207231  1  0  0  0  0
208232  1  0  0  0  0
209233  1  0  0  0  0
210234  1  0  0  0  0
212235  1  0  0  0  0
213236  1  0  0  0  0
216237  1  0  0  0  0
218238  1  0  0  0  0
219239  1  0  0  0  0
220240  1  0  0  0  0
221241  1  0  0  0  0
222242  1  0  0  0  0
126243  4  0  0  0  0
243244  4  0  0  0  0
244245  4  0  0  0  0
245246  2  0  0  0  0
246247  4  0  0  0  0
244248  4  0  0  0  0
247248  4  0  0  0  0
247249  4  0  0  0  0
249250  4  0  0  0  0
250251  1  0  0  0  0
251252  2  0  0  0  0
250253  4  0  0  0  0
252254  1  0  0  0  0
253254  4  0  0  0  0
128255  4  0  0  0  0
254255  4  0  0  0  0
255256  4  0  0  0  0
256257  4  0  0  0  0
257258  2  0  0  0  0
258259  4  0  0  0  0
259260  4  0  0  0  0
260261  1  0  0  0  0
261262  4  0  0  0  0
262263  4  0  0  0  0
263264  4  0  0  0  0
264265  4  0  0  0  0
261266  4  0  0  0  0
265266  4  0  0  0  0
260267  4  0  0  0  0
267268  1  0  0  0  0
268269  2  0  0  0  0
243270  4  0  0  0  0
269270  1  0  0  0  0
267271  4  0  0  0  0
270271  4  0  0  0  0
256272  4  0  0  0  0
259272  4  0  0  0  0
249273  1  0  0  0  0
273274  4  0  0  0  0
274275  4  0  0  0  0
275276  4  0  0  0  0
276277  4  0  0  0  0
273278  4  0  0  0  0
277278  4  0  0  0  0
245279  1  0  0  0  0
246280  1  0  0  0  0
248281  1  0  0  0  0
251282  1  0  0  0  0
252283  1  0  0  0  0
257284  1  0  0  0  0
258285  1  0  0  0  0
262286  1  0  0  0  0
263287  1  0  0  0  0
264288  1  0  0  0  0
265289  1  0  0  0  0
266290  1  0  0  0  0
268291  1  0  0  0  0
269292  1  0  0  0  0
272293  1  0  0  0  0
274294  1  0  0  0  0
275295  1  0  0  0  0
276296  1  0  0  0  0
277297  1  0  0  0  0
278298  1  0  0  0  0
M  END
