148

Fe 27.762022 0.023978 0.025564
C 24.388365 -0.085654 -0.084489
C 25.061271 -0.900438 -0.902940
C 24.432570 -1.830861 -1.837468
C 25.393393 -2.472166 -2.481651
C 26.676515 -1.978457 -1.985796
N 26.482329 -0.982896 -0.985818
C 27.864753 -2.409329 -2.418557
C 29.164438 -1.917911 -1.924910
C 30.444120 -2.416104 -2.425034
C 31.399870 -1.774865 -1.780923
N 29.318056 -1.008973 -1.012090
C 30.729344 -0.859125 -0.861401
C 31.338074 -0.012713 -0.011300
C 30.590260 0.893218 0.898438
C 31.161665 1.740202 1.749037
C 30.099574 2.437561 2.449435
C 28.953216 1.971439 1.981344
N 29.165690 0.974821 0.980420
C 27.637922 2.441846 2.453925
C 26.471048 1.984425 1.994594
C 25.163232 2.433728 2.446078
C 24.282204 1.739093 1.748463
C 25.029113 0.850303 0.855593
N 26.310462 0.987083 0.992812
H 23.305254 -0.108178 -0.107041
H 23.371152 -1.980573 -1.987795
H 25.239728 -3.228140 -3.240953
H 27.884451 -3.173814 -3.186398
H 30.595000 -3.172235 -3.184329
H 32.461543 -1.921650 -1.928122
H 32.221296 1.892454 1.901932
H 30.219382 3.196670 3.211850
H 27.621291 3.206735 3.222215
H 24.939493 3.180808 3.196546
H 23.206547 1.822049 1.831960
Fe 61.160590 -0.064660 -0.008714
C 64.534248 0.090492 -0.016371
C 63.861342 1.243943 -0.073686
C 64.490042 2.561044 -0.139072
C 63.529220 3.468904 -0.184176
C 62.246098 2.770034 -0.149505
N 62.440283 1.360708 -0.079522
C 61.057859 3.379966 -0.179775
C 59.758175 2.684276 -0.145196
C 58.478493 3.389336 -0.180009
C 57.522743 2.481573 -0.134913
N 59.604557 1.397677 -0.081414
C 58.193269 1.185431 -0.070749
C 57.584538 -0.012713 -0.011300
C 58.332353 -1.295015 0.052225
C 57.760948 -2.493918 0.111658
C 58.823039 -3.481070 0.160639
C 59.969396 -2.821290 0.127946
N 59.756923 -1.410545 0.057974
C 61.284691 -3.487261 0.161078
C 62.451565 -2.839811 0.129011
C 63.759381 -3.475975 0.160733
C 64.640408 -2.492712 0.111980
C 63.893499 -1.234439 0.049401
N 62.612150 -1.427953 0.058892
H 65.617359 0.122329 -0.017901
H 65.551460 2.772945 -0.149560
H 63.682885 4.539051 -0.237300
H 61.038161 4.462154 -0.233489
H 58.327613 4.459594 -0.233021
H 56.461070 2.689204 -0.145057
H 56.701316 -2.709426 0.122337
H 58.703230 -4.555630 0.213954
H 61.301321 -4.570050 0.214850
H 63.983120 -4.533598 0.213304
H 65.716066 -2.610261 0.117940
C 33.511988 -0.012713 -0.011300
C 34.733905 -0.012713 -0.011300
C 43.850347 -0.012713 -0.011300
C 45.072265 -0.012713 -0.011300
C 54.188707 -0.012713 -0.011300
C 55.410625 -0.012713 -0.011300
Fe 39.257881 -0.040056 -0.035622
C 35.824429 0.014166 0.012592
C 36.490963 0.887600 0.789822
C 35.866650 1.879590 1.672511
C 36.825021 2.558157 2.276389
C 38.106231 2.037929 1.813522
N 37.914140 0.982350 0.874207
C 39.288615 2.502980 2.227397
C 40.598290 1.999793 1.779664
C 41.864934 2.544720 2.264673
C 42.837114 1.879288 1.672506
N 40.774267 1.040351 0.925810
C 42.189483 0.901631 0.802408
C 42.818532 0.014166 0.012592
C 42.088608 -0.951370 -0.846714
C 42.675352 -1.842169 -1.639587
C 41.625280 -2.589494 -2.304594
C 40.471100 -2.106103 -1.874260
N 40.665412 -1.049973 -0.934328
C 39.166023 -2.616088 -2.327934
C 37.986839 -2.148417 -1.911683
C 36.699728 -2.650364 -2.358213
C 35.793159 -1.934729 -1.721418
C 36.500848 -0.972322 -0.865160
N 37.788354 -1.094405 -0.973865
H 34.809280 2.050314 1.824377
H 36.669758 3.358490 2.988562
H 39.295025 3.312645 2.947892
H 41.996079 3.347140 2.978793
H 43.894918 2.048679 1.823294
H 43.737656 -1.993270 -1.774164
H 41.757871 -3.392074 -3.018868
H 39.167552 -3.426203 -3.048795
H 36.505227 -3.445833 -3.065982
H 34.723797 -2.055703 -1.828991
Fe 49.596241 -0.040056 -0.035622
C 46.162789 0.014166 0.012592
C 46.829323 0.887600 0.789822
C 46.205010 1.879590 1.672511
C 47.163381 2.558157 2.276389
C 48.444591 2.037929 1.813522
N 48.252500 0.982350 0.874207
C 49.626975 2.502980 2.227397
C 50.936650 1.999793 1.779664
C 52.203294 2.544720 2.264673
C 53.175474 1.879288 1.672506
N 51.112627 1.040351 0.925810
C 52.527843 0.901631 0.802408
C 53.156892 0.014166 0.012592
C 52.426968 -0.951370 -0.846714
C 53.013712 -1.842169 -1.639587
C 51.963640 -2.589494 -2.304594
C 50.809460 -2.106103 -1.874260
N 51.003772 -1.049973 -0.934328
C 49.504383 -2.616088 -2.327934
C 48.325199 -2.148417 -1.911683
C 47.038088 -2.650364 -2.358213
C 46.131519 -1.934729 -1.721418
C 46.839208 -0.972322 -0.865160
N 48.126714 -1.094405 -0.973865
H 45.147640 2.050314 1.824377
H 47.008118 3.358490 2.988562
H 49.633385 3.312645 2.947892
H 52.334439 3.347140 2.978793
H 54.233278 2.048679 1.823294
H 54.076016 -1.993270 -1.774164
H 52.096231 -3.392074 -3.018868
H 49.505912 -3.426203 -3.048795
H 46.843587 -3.445833 -3.065982
H 45.062157 -2.055703 -1.828991
