 xtb: 6.5.1 (b24c23e)
          07292218223D

211240  0     0  0            999 V2000
   31.0496    0.1323   -0.4893 Fe  0  0  0  0  0  0  0  0  0  0  0  0
   27.8432    0.3963   -1.4569 C   0  0  0  0  0  0  0  0  0  0  0  0
   28.4301    1.5073   -0.8833 C   0  0  0  0  0  0  0  0  0  0  0  0
   27.7301    2.7284   -0.6194 C   0  0  0  0  0  0  0  0  0  0  0  0
   28.5781    3.5186    0.0816 C   0  0  0  0  0  0  0  0  0  0  0  0
   29.8164    2.8029    0.1926 C   0  0  0  0  0  0  0  0  0  0  0  0
   29.7007    1.5635   -0.3752 N   0  0  0  0  0  0  0  0  0  0  0  0
   30.9870    3.3320    0.7286 C   0  0  0  0  0  0  0  0  0  0  0  0
   32.2064    2.6721    0.6494 C   0  0  0  0  0  0  0  0  0  0  0  0
   33.4674    3.2870    0.9400 C   0  0  0  0  0  0  0  0  0  0  0  0
   34.4273    2.3959    0.5905 C   0  0  0  0  0  0  0  0  0  0  0  0
   32.4001    1.4033    0.1612 N   0  0  0  0  0  0  0  0  0  0  0  0
   33.7500    1.2246    0.1289 C   0  0  0  0  0  0  0  0  0  0  0  0
   34.4087    0.0272   -0.1875 C   0  0  0  0  0  0  0  0  0  0  0  0
   33.7242   -1.1774   -0.4075 C   0  0  0  0  0  0  0  0  0  0  0  0
   34.3746   -2.4476   -0.4899 C   0  0  0  0  0  0  0  0  0  0  0  0
   33.3950   -3.3801   -0.5821 C   0  0  0  0  0  0  0  0  0  0  0  0
   32.1496   -2.6717   -0.5990 C   0  0  0  0  0  0  0  0  0  0  0  0
   30.9235   -3.2694   -0.8600 C   0  0  0  0  0  0  0  0  0  0  0  0
   30.8709   -4.7484   -0.9428 C   0  0  0  0  0  0  0  0  0  0  0  0
   30.5638   -5.3889   -2.1404 C   0  0  0  0  0  0  0  0  0  0  0  0
   30.5235   -6.7794   -2.2076 C   0  0  0  0  0  0  0  0  0  0  0  0
   30.1860   -7.4552   -3.5092 C   0  0  0  0  0  0  0  0  0  0  0  0
   30.7907   -7.5247   -1.0656 C   0  0  0  0  0  0  0  0  0  0  0  0
   31.1054   -6.8980    0.1388 C   0  0  0  0  0  0  0  0  0  0  0  0
   31.3906   -7.7247    1.3634 C   0  0  0  0  0  0  0  0  0  0  0  0
   31.1476   -5.5108    0.1931 C   0  0  0  0  0  0  0  0  0  0  0  0
   29.7746   -2.5296   -1.1273 C   0  0  0  0  0  0  0  0  0  0  0  0
   28.5355   -3.0890   -1.5846 C   0  0  0  0  0  0  0  0  0  0  0  0
   27.7075   -2.0488   -1.8441 C   0  0  0  0  0  0  0  0  0  0  0  0
   28.4195   -0.8585   -1.4880 C   0  0  0  0  0  0  0  0  0  0  0  0
   29.6808   -1.1670   -1.0514 N   0  0  0  0  0  0  0  0  0  0  0  0
   32.3718   -1.3220   -0.4746 N   0  0  0  0  0  0  0  0  0  0  0  0
   30.9642    4.6894    1.3237 C   0  0  0  0  0  0  0  0  0  0  0  0
   30.6427    5.8038    0.5499 C   0  0  0  0  0  0  0  0  0  0  0  0
   30.6278    7.0740    1.1154 C   0  0  0  0  0  0  0  0  0  0  0  0
   30.3053    8.2784    0.2728 C   0  0  0  0  0  0  0  0  0  0  0  0
   30.9364    7.2242    2.4645 C   0  0  0  0  0  0  0  0  0  0  0  0
   31.2651    6.1224    3.2479 C   0  0  0  0  0  0  0  0  0  0  0  0
   31.5805    6.2922    4.7094 C   0  0  0  0  0  0  0  0  0  0  0  0
   31.2811    4.8569    2.6708 C   0  0  0  0  0  0  0  0  0  0  0  0
   26.8252    0.4930   -1.8181 H   0  0  0  0  0  0  0  0  0  0  0  0
   26.7111    2.9257   -0.9123 H   0  0  0  0  0  0  0  0  0  0  0  0
   28.3942    4.5017    0.4834 H   0  0  0  0  0  0  0  0  0  0  0  0
   33.5913    4.2841    1.3305 H   0  0  0  0  0  0  0  0  0  0  0  0
   35.4985    2.5014    0.6528 H   0  0  0  0  0  0  0  0  0  0  0  0
   35.4424   -2.5936   -0.4616 H   0  0  0  0  0  0  0  0  0  0  0  0
   33.4970   -4.4500   -0.6648 H   0  0  0  0  0  0  0  0  0  0  0  0
   30.3775   -4.7995   -3.0315 H   0  0  0  0  0  0  0  0  0  0  0  0
   30.3221   -8.5340   -3.4370 H   0  0  0  0  0  0  0  0  0  0  0  0
   29.1467   -7.2545   -3.7774 H   0  0  0  0  0  0  0  0  0  0  0  0
   30.8193   -7.0745   -4.3120 H   0  0  0  0  0  0  0  0  0  0  0  0
   30.7596   -8.6085   -1.1109 H   0  0  0  0  0  0  0  0  0  0  0  0
   31.7245   -7.0973    2.1896 H   0  0  0  0  0  0  0  0  0  0  0  0
   30.4903   -8.2581    1.6748 H   0  0  0  0  0  0  0  0  0  0  0  0
   32.1633   -8.4653    1.1511 H   0  0  0  0  0  0  0  0  0  0  0  0
   31.3838   -5.0086    1.1248 H   0  0  0  0  0  0  0  0  0  0  0  0
   28.3361   -4.1423   -1.6964 H   0  0  0  0  0  0  0  0  0  0  0  0
   26.6939   -2.0692   -2.2119 H   0  0  0  0  0  0  0  0  0  0  0  0
   30.4236    5.6769   -0.5046 H   0  0  0  0  0  0  0  0  0  0  0  0
   29.7515    9.0183    0.8515 H   0  0  0  0  0  0  0  0  0  0  0  0
   29.7145    7.9971   -0.5989 H   0  0  0  0  0  0  0  0  0  0  0  0
   31.2291    8.7448   -0.0770 H   0  0  0  0  0  0  0  0  0  0  0  0
   30.9238    8.2139    2.9094 H   0  0  0  0  0  0  0  0  0  0  0  0
   30.6696    6.1766    5.3013 H   0  0  0  0  0  0  0  0  0  0  0  0
   31.9899    7.2832    4.9063 H   0  0  0  0  0  0  0  0  0  0  0  0
   32.2974    5.5409    5.0413 H   0  0  0  0  0  0  0  0  0  0  0  0
   31.5278    3.9884    3.2716 H   0  0  0  0  0  0  0  0  0  0  0  0
   57.8266    0.1964   -0.1955 Fe  0  0  0  0  0  0  0  0  0  0  0  0
   61.1450    0.7309   -0.5820 C   0  0  0  0  0  0  0  0  0  0  0  0
   60.4903    0.0059   -1.5564 C   0  0  0  0  0  0  0  0  0  0  0  0
   61.1477   -0.5724   -2.6896 C   0  0  0  0  0  0  0  0  0  0  0  0
   60.2382   -1.3660   -3.3030 C   0  0  0  0  0  0  0  0  0  0  0  0
   59.0140   -1.2442   -2.5652 C   0  0  0  0  0  0  0  0  0  0  0  0
   59.1785   -0.3889   -1.5093 N   0  0  0  0  0  0  0  0  0  0  0  0
   57.8479   -1.9423   -2.8620 C   0  0  0  0  0  0  0  0  0  0  0  0
   56.6551   -1.7373   -2.1827 C   0  0  0  0  0  0  0  0  0  0  0  0
   55.4112   -2.3456   -2.5527 C   0  0  0  0  0  0  0  0  0  0  0  0
   54.4488   -1.7589   -1.8008 C   0  0  0  0  0  0  0  0  0  0  0  0
   56.4521   -0.8147   -1.1840 N   0  0  0  0  0  0  0  0  0  0  0  0
   55.1072   -0.8076   -0.9614 C   0  0  0  0  0  0  0  0  0  0  0  0
   54.4313    0.0454   -0.0814 C   0  0  0  0  0  0  0  0  0  0  0  0
   55.0955    0.8758    0.8268 C   0  0  0  0  0  0  0  0  0  0  0  0
   54.4218    1.6557    1.8178 C   0  0  0  0  0  0  0  0  0  0  0  0
   55.3791    2.1479    2.6411 C   0  0  0  0  0  0  0  0  0  0  0  0
   56.6377    1.6854    2.1367 C   0  0  0  0  0  0  0  0  0  0  0  0
   57.8638    1.9802    2.7204 C   0  0  0  0  0  0  0  0  0  0  0  0
   57.8662    2.6751    4.0294 C   0  0  0  0  0  0  0  0  0  0  0  0
   58.4409    3.9356    4.1716 C   0  0  0  0  0  0  0  0  0  0  0  0
   58.4375    4.5787    5.4069 C   0  0  0  0  0  0  0  0  0  0  0  0
   59.0577    5.9435    5.5403 C   0  0  0  0  0  0  0  0  0  0  0  0
   57.8554    3.9501    6.5010 C   0  0  0  0  0  0  0  0  0  0  0  0
   57.2726    2.6904    6.3739 C   0  0  0  0  0  0  0  0  0  0  0  0
   56.6493    2.0271    7.5723 C   0  0  0  0  0  0  0  0  0  0  0  0
   57.2785    2.0602    5.1366 C   0  0  0  0  0  0  0  0  0  0  0  0
   59.0756    1.6837    2.1067 C   0  0  0  0  0  0  0  0  0  0  0  0
   60.3594    2.0519    2.6306 C   0  0  0  0  0  0  0  0  0  0  0  0
   61.2720    1.7608    1.6732 C   0  0  0  0  0  0  0  0  0  0  0  0
   60.5522    1.1725    0.5844 C   0  0  0  0  0  0  0  0  0  0  0  0
   59.2156    1.1057    0.8724 N   0  0  0  0  0  0  0  0  0  0  0  0
   56.4478    0.9361    1.0024 N   0  0  0  0  0  0  0  0  0  0  0  0
   57.8623   -2.9157   -3.9818 C   0  0  0  0  0  0  0  0  0  0  0  0
   58.0658   -2.4832   -5.2914 C   0  0  0  0  0  0  0  0  0  0  0  0
   58.0763   -3.3948   -6.3414 C   0  0  0  0  0  0  0  0  0  0  0  0
   58.2726   -2.9228   -7.7568 C   0  0  0  0  0  0  0  0  0  0  0  0
   57.8816   -4.7468   -6.0732 C   0  0  0  0  0  0  0  0  0  0  0  0
   57.6744   -5.1928   -4.7717 C   0  0  0  0  0  0  0  0  0  0  0  0
   57.4842   -6.6585   -4.4884 C   0  0  0  0  0  0  0  0  0  0  0  0
   57.6643   -4.2717   -3.7291 C   0  0  0  0  0  0  0  0  0  0  0  0
   62.2060    0.9125   -0.7121 H   0  0  0  0  0  0  0  0  0  0  0  0
   62.1810   -0.4043   -2.9491 H   0  0  0  0  0  0  0  0  0  0  0  0
   60.3746   -1.9866   -4.1737 H   0  0  0  0  0  0  0  0  0  0  0  0
   55.2967   -3.1042   -3.3098 H   0  0  0  0  0  0  0  0  0  0  0  0
   53.3863   -1.9424   -1.8036 H   0  0  0  0  0  0  0  0  0  0  0  0
   53.3528    1.7846    1.8744 H   0  0  0  0  0  0  0  0  0  0  0  0
   55.2562    2.7810    3.5049 H   0  0  0  0  0  0  0  0  0  0  0  0
   58.8760    4.4267    3.3080 H   0  0  0  0  0  0  0  0  0  0  0  0
   59.0240    6.2894    6.5733 H   0  0  0  0  0  0  0  0  0  0  0  0
   60.0986    5.9207    5.2132 H   0  0  0  0  0  0  0  0  0  0  0  0
   58.5250    6.6626    4.9152 H   0  0  0  0  0  0  0  0  0  0  0  0
   57.8511    4.4450    7.4668 H   0  0  0  0  0  0  0  0  0  0  0  0
   56.1740    1.0863    7.2956 H   0  0  0  0  0  0  0  0  0  0  0  0
   57.4101    1.8228    8.3282 H   0  0  0  0  0  0  0  0  0  0  0  0
   55.8981    2.6802    8.0199 H   0  0  0  0  0  0  0  0  0  0  0  0
   56.8381    1.0754    5.0249 H   0  0  0  0  0  0  0  0  0  0  0  0
   60.5287    2.4832    3.6039 H   0  0  0  0  0  0  0  0  0  0  0  0
   62.3405    1.9064    1.6928 H   0  0  0  0  0  0  0  0  0  0  0  0
   58.1995   -1.4254   -5.4895 H   0  0  0  0  0  0  0  0  0  0  0  0
   58.8255   -3.6613   -8.3381 H   0  0  0  0  0  0  0  0  0  0  0  0
   58.8143   -1.9771   -7.7803 H   0  0  0  0  0  0  0  0  0  0  0  0
   57.3025   -2.7720   -8.2359 H   0  0  0  0  0  0  0  0  0  0  0  0
   57.8897   -5.4613   -6.8900 H   0  0  0  0  0  0  0  0  0  0  0  0
   58.4464   -7.1188   -4.2523 H   0  0  0  0  0  0  0  0  0  0  0  0
   57.0657   -7.1710   -5.3548 H   0  0  0  0  0  0  0  0  0  0  0  0
   56.8205   -6.8055   -3.6359 H   0  0  0  0  0  0  0  0  0  0  0  0
   57.5145   -4.6076   -2.7088 H   0  0  0  0  0  0  0  0  0  0  0  0
   37.0320    0.0045   -0.1755 C   0  0  0  0  0  0  0  0  0  0  0  0
   35.8073    0.0108   -0.1779 C   0  0  0  0  0  0  0  0  0  0  0  0
   38.3769   -0.0014   -0.1667 C   0  0  0  0  0  0  0  0  0  0  0  0
   39.6014   -0.0075   -0.1467 C   0  0  0  0  0  0  0  0  0  0  0  0
   50.4556    0.0015   -0.0700 C   0  0  0  0  0  0  0  0  0  0  0  0
   49.2329   -0.0075   -0.0691 C   0  0  0  0  0  0  0  0  0  0  0  0
   51.8047    0.0125   -0.0709 C   0  0  0  0  0  0  0  0  0  0  0  0
   53.0271    0.0249   -0.0728 C   0  0  0  0  0  0  0  0  0  0  0  0
   44.4147   -0.0093   -0.0872 Fe  0  0  0  0  0  0  0  0  0  0  0  0
   41.0000   -0.0091   -0.1254 C   0  0  0  0  0  0  0  0  0  0  0  0
   41.6693    1.2128    0.0290 C   0  0  0  0  0  0  0  0  0  0  0  0
   40.9947    2.4601    0.2040 C   0  0  0  0  0  0  0  0  0  0  0  0
   41.9496    3.4220    0.1888 C   0  0  0  0  0  0  0  0  0  0  0  0
   43.2025    2.7559   -0.0051 C   0  0  0  0  0  0  0  0  0  0  0  0
   43.0165    1.3955   -0.0569 N   0  0  0  0  0  0  0  0  0  0  0  0
   44.4127    3.4137   -0.1806 C   0  0  0  0  0  0  0  0  0  0  0  0
   45.6258    2.7472   -0.3092 C   0  0  0  0  0  0  0  0  0  0  0  0
   46.8788    3.4037   -0.5321 C   0  0  0  0  0  0  0  0  0  0  0  0
   47.8350    2.4441   -0.4892 C   0  0  0  0  0  0  0  0  0  0  0  0
   45.8119    1.3932   -0.1802 N   0  0  0  0  0  0  0  0  0  0  0  0
   47.1610    1.2063   -0.2542 C   0  0  0  0  0  0  0  0  0  0  0  0
   47.8291   -0.0093   -0.0703 C   0  0  0  0  0  0  0  0  0  0  0  0
   47.1599   -1.2246    0.1127 C   0  0  0  0  0  0  0  0  0  0  0  0
   47.8322   -2.4613    0.3580 C   0  0  0  0  0  0  0  0  0  0  0  0
   46.8752   -3.4203    0.4015 C   0  0  0  0  0  0  0  0  0  0  0  0
   45.6239   -2.7647    0.1667 C   0  0  0  0  0  0  0  0  0  0  0  0
   44.4118   -3.4312    0.0286 C   0  0  0  0  0  0  0  0  0  0  0  0
   44.4065   -4.9118    0.0975 C   0  0  0  0  0  0  0  0  0  0  0  0
   43.6917   -5.5614    1.1023 C   0  0  0  0  0  0  0  0  0  0  0  0
   43.6851   -6.9504    1.1793 C   0  0  0  0  0  0  0  0  0  0  0  0
   42.9342   -7.6433    2.2840 C   0  0  0  0  0  0  0  0  0  0  0  0
   44.3951   -7.6881    0.2375 C   0  0  0  0  0  0  0  0  0  0  0  0
   45.1089   -7.0536   -0.7760 C   0  0  0  0  0  0  0  0  0  0  0  0
   45.8796   -7.8673   -1.7801 C   0  0  0  0  0  0  0  0  0  0  0  0
   45.1148   -5.6650   -0.8386 C   0  0  0  0  0  0  0  0  0  0  0  0
   43.2047   -2.7744   -0.1708 C   0  0  0  0  0  0  0  0  0  0  0  0
   41.9563   -3.4422   -0.3864 C   0  0  0  0  0  0  0  0  0  0  0  0
   41.0026   -2.4802   -0.4353 C   0  0  0  0  0  0  0  0  0  0  0  0
   41.6732   -1.2314   -0.2557 C   0  0  0  0  0  0  0  0  0  0  0  0
   43.0179   -1.4137   -0.1342 N   0  0  0  0  0  0  0  0  0  0  0  0
   45.8113   -1.4114    0.0321 N   0  0  0  0  0  0  0  0  0  0  0  0
   44.4090    4.8945   -0.2418 C   0  0  0  0  0  0  0  0  0  0  0  0
   45.1075    5.6425    0.7042 C   0  0  0  0  0  0  0  0  0  0  0  0
   45.1031    7.0327    0.6478 C   0  0  0  0  0  0  0  0  0  0  0  0
   45.8707    7.8318    1.6659 C   0  0  0  0  0  0  0  0  0  0  0  0
   44.4003    7.6716   -0.3686 C   0  0  0  0  0  0  0  0  0  0  0  0
   43.6990    6.9379   -1.3219 C   0  0  0  0  0  0  0  0  0  0  0  0
   42.9595    7.6413   -2.4276 C   0  0  0  0  0  0  0  0  0  0  0  0
   43.7047    5.5496   -1.2519 C   0  0  0  0  0  0  0  0  0  0  0  0
   39.9286    2.5707    0.3205 H   0  0  0  0  0  0  0  0  0  0  0  0
   41.8269    4.4868    0.3014 H   0  0  0  0  0  0  0  0  0  0  0  0
   47.0014    4.4609   -0.7021 H   0  0  0  0  0  0  0  0  0  0  0  0
   48.9015    2.5496   -0.6064 H   0  0  0  0  0  0  0  0  0  0  0  0
   48.8980   -2.5665    0.4815 H   0  0  0  0  0  0  0  0  0  0  0  0
   46.9966   -4.4766    0.5780 H   0  0  0  0  0  0  0  0  0  0  0  0
   43.1508   -4.9745    1.8365 H   0  0  0  0  0  0  0  0  0  0  0  0
   42.6158   -8.6385    1.9734 H   0  0  0  0  0  0  0  0  0  0  0  0
   43.5786   -7.7500    3.1597 H   0  0  0  0  0  0  0  0  0  0  0  0
   42.0569   -7.0666    2.5777 H   0  0  0  0  0  0  0  0  0  0  0  0
   44.3905   -8.7720    0.2905 H   0  0  0  0  0  0  0  0  0  0  0  0
   46.1218   -7.2728   -2.6609 H   0  0  0  0  0  0  0  0  0  0  0  0
   45.3052   -8.7408   -2.0907 H   0  0  0  0  0  0  0  0  0  0  0  0
   46.8137   -8.2182   -1.3358 H   0  0  0  0  0  0  0  0  0  0  0  0
   45.6556   -5.1587   -1.6306 H   0  0  0  0  0  0  0  0  0  0  0  0
   41.8359   -4.5081   -0.4908 H   0  0  0  0  0  0  0  0  0  0  0  0
   39.9394   -2.5915   -0.5757 H   0  0  0  0  0  0  0  0  0  0  0  0
   45.6402    5.1333    1.4998 H   0  0  0  0  0  0  0  0  0  0  0  0
   45.4573    8.8354    1.7661 H   0  0  0  0  0  0  0  0  0  0  0  0
   46.9142    7.9221    1.3556 H   0  0  0  0  0  0  0  0  0  0  0  0
   45.8491    7.3414    2.6395 H   0  0  0  0  0  0  0  0  0  0  0  0
   44.3953    8.7556   -0.4179 H   0  0  0  0  0  0  0  0  0  0  0  0
   42.5226    8.5737   -2.0689 H   0  0  0  0  0  0  0  0  0  0  0  0
   42.1662    7.0103   -2.8283 H   0  0  0  0  0  0  0  0  0  0  0  0
   43.6483    7.8811   -3.2408 H   0  0  0  0  0  0  0  0  0  0  0  0
   43.1722    4.9658   -1.9946 H   0  0  0  0  0  0  0  0  0  0  0  0
  2  3  4  0  0  0  0
  3  4  4  0  0  0  0
  4  5  2  0  0  0  0
  5  6  4  0  0  0  0
  1  7  1  0  0  0  0
  3  7  4  0  0  0  0
  6  7  4  0  0  0  0
  6  8  4  0  0  0  0
  8  9  4  0  0  0  0
  9 10  4  0  0  0  0
 10 11  2  0  0  0  0
  1 12  1  0  0  0  0
  9 12  4  0  0  0  0
 11 13  4  0  0  0  0
 12 13  4  0  0  0  0
 13 14  4  0  0  0  0
 14 15  4  0  0  0  0
 15 16  4  0  0  0  0
 16 17  2  0  0  0  0
 17 18  4  0  0  0  0
 18 19  4  0  0  0  0
 19 20  1  0  0  0  0
 20 21  4  0  0  0  0
 21 22  4  0  0  0  0
 22 23  1  0  0  0  0
 22 24  4  0  0  0  0
 24 25  4  0  0  0  0
 25 26  1  0  0  0  0
 20 27  4  0  0  0  0
 25 27  4  0  0  0  0
 19 28  4  0  0  0  0
 28 29  4  0  0  0  0
 29 30  2  0  0  0  0
  2 31  4  0  0  0  0
 30 31  4  0  0  0  0
  1 32  1  0  0  0  0
 28 32  4  0  0  0  0
 31 32  4  0  0  0  0
  1 33  1  0  0  0  0
 15 33  4  0  0  0  0
 18 33  4  0  0  0  0
  8 34  1  0  0  0  0
 34 35  4  0  0  0  0
 35 36  4  0  0  0  0
 36 37  1  0  0  0  0
 36 38  4  0  0  0  0
 38 39  4  0  0  0  0
 39 40  1  0  0  0  0
 34 41  4  0  0  0  0
 39 41  4  0  0  0  0
  2 42  1  0  0  0  0
  4 43  1  0  0  0  0
  5 44  1  0  0  0  0
 10 45  1  0  0  0  0
 11 46  1  0  0  0  0
 16 47  1  0  0  0  0
 17 48  1  0  0  0  0
 21 49  1  0  0  0  0
 23 50  1  0  0  0  0
 23 51  1  0  0  0  0
 23 52  1  0  0  0  0
 24 53  1  0  0  0  0
 26 54  1  0  0  0  0
 26 55  1  0  0  0  0
 26 56  1  0  0  0  0
 27 57  1  0  0  0  0
 29 58  1  0  0  0  0
 30 59  1  0  0  0  0
 35 60  1  0  0  0  0
 37 61  1  0  0  0  0
 37 62  1  0  0  0  0
 37 63  1  0  0  0  0
 38 64  1  0  0  0  0
 40 65  1  0  0  0  0
 40 66  1  0  0  0  0
 40 67  1  0  0  0  0
 41 68  1  0  0  0  0
 70 71  4  0  0  0  0
 71 72  4  0  0  0  0
 72 73  2  0  0  0  0
 73 74  4  0  0  0  0
 69 75  1  0  0  0  0
 71 75  4  0  0  0  0
 74 75  4  0  0  0  0
 74 76  4  0  0  0  0
 76 77  4  0  0  0  0
 77 78  4  0  0  0  0
 78 79  2  0  0  0  0
 69 80  1  0  0  0  0
 77 80  4  0  0  0  0
 79 81  4  0  0  0  0
 80 81  4  0  0  0  0
 81 82  4  0  0  0  0
 82 83  4  0  0  0  0
 83 84  4  0  0  0  0
 84 85  2  0  0  0  0
 85 86  4  0  0  0  0
 86 87  4  0  0  0  0
 87 88  1  0  0  0  0
 88 89  4  0  0  0  0
 89 90  4  0  0  0  0
 90 91  1  0  0  0  0
 90 92  4  0  0  0  0
 92 93  4  0  0  0  0
 93 94  1  0  0  0  0
 88 95  4  0  0  0  0
 93 95  4  0  0  0  0
 87 96  4  0  0  0  0
 96 97  4  0  0  0  0
 97 98  2  0  0  0  0
 70 99  4  0  0  0  0
 98 99  4  0  0  0  0
 69100  1  0  0  0  0
 96100  4  0  0  0  0
 99100  4  0  0  0  0
 69101  1  0  0  0  0
 83101  4  0  0  0  0
 86101  4  0  0  0  0
 76102  1  0  0  0  0
102103  4  0  0  0  0
103104  4  0  0  0  0
104105  1  0  0  0  0
104106  4  0  0  0  0
106107  4  0  0  0  0
107108  1  0  0  0  0
102109  4  0  0  0  0
107109  4  0  0  0  0
 70110  1  0  0  0  0
 72111  1  0  0  0  0
 73112  1  0  0  0  0
 78113  1  0  0  0  0
 79114  1  0  0  0  0
 84115  1  0  0  0  0
 85116  1  0  0  0  0
 89117  1  0  0  0  0
 91118  1  0  0  0  0
 91119  1  0  0  0  0
 91120  1  0  0  0  0
 92121  1  0  0  0  0
 94122  1  0  0  0  0
 94123  1  0  0  0  0
 94124  1  0  0  0  0
 95125  1  0  0  0  0
 97126  1  0  0  0  0
 98127  1  0  0  0  0
103128  1  0  0  0  0
105129  1  0  0  0  0
105130  1  0  0  0  0
105131  1  0  0  0  0
106132  1  0  0  0  0
108133  1  0  0  0  0
108134  1  0  0  0  0
108135  1  0  0  0  0
109136  1  0  0  0  0
 14138  4  0  0  0  0
137138  3  0  0  0  0
137139  4  0  0  0  0
139140  3  0  0  0  0
141142  3  0  0  0  0
141143  4  0  0  0  0
 82144  4  0  0  0  0
143144  3  0  0  0  0
140146  4  0  0  0  0
146147  4  0  0  0  0
147148  4  0  0  0  0
148149  2  0  0  0  0
149150  4  0  0  0  0
145151  1  0  0  0  0
147151  4  0  0  0  0
150151  4  0  0  0  0
150152  4  0  0  0  0
152153  4  0  0  0  0
153154  4  0  0  0  0
154155  2  0  0  0  0
145156  1  0  0  0  0
153156  4  0  0  0  0
155157  4  0  0  0  0
156157  4  0  0  0  0
142158  4  0  0  0  0
157158  4  0  0  0  0
158159  4  0  0  0  0
159160  4  0  0  0  0
160161  2  0  0  0  0
161162  4  0  0  0  0
162163  4  0  0  0  0
163164  1  0  0  0  0
164165  4  0  0  0  0
165166  4  0  0  0  0
166167  1  0  0  0  0
166168  4  0  0  0  0
168169  4  0  0  0  0
169170  1  0  0  0  0
164171  4  0  0  0  0
169171  4  0  0  0  0
163172  4  0  0  0  0
172173  4  0  0  0  0
173174  2  0  0  0  0
146175  4  0  0  0  0
174175  4  0  0  0  0
145176  1  0  0  0  0
172176  4  0  0  0  0
175176  4  0  0  0  0
145177  1  0  0  0  0
159177  4  0  0  0  0
162177  4  0  0  0  0
152178  1  0  0  0  0
178179  4  0  0  0  0
179180  4  0  0  0  0
180181  1  0  0  0  0
180182  4  0  0  0  0
182183  4  0  0  0  0
183184  1  0  0  0  0
178185  4  0  0  0  0
183185  4  0  0  0  0
148186  1  0  0  0  0
149187  1  0  0  0  0
154188  1  0  0  0  0
155189  1  0  0  0  0
160190  1  0  0  0  0
161191  1  0  0  0  0
165192  1  0  0  0  0
167193  1  0  0  0  0
167194  1  0  0  0  0
167195  1  0  0  0  0
168196  1  0  0  0  0
170197  1  0  0  0  0
170198  1  0  0  0  0
170199  1  0  0  0  0
171200  1  0  0  0  0
173201  1  0  0  0  0
174202  1  0  0  0  0
179203  1  0  0  0  0
181204  1  0  0  0  0
181205  1  0  0  0  0
181206  1  0  0  0  0
182207  1  0  0  0  0
184208  1  0  0  0  0
184209  1  0  0  0  0
184210  1  0  0  0  0
185211  1  0  0  0  0
M  END
