 xtb: 6.5.1 (b24c23e)
          07302203293D

226246  0     0  0            999 V2000
   27.6193    0.0315    0.0522 C   0  0  0  0  0  0  0  0  0  0  0  0
   28.2457    0.0346    1.2917 C   0  0  0  0  0  0  0  0  0  0  0  0
   27.6203    0.0045    2.5704 C   0  0  0  0  0  0  0  0  0  0  0  0
   28.6017    0.0402    3.5203 C   0  0  0  0  0  0  0  0  0  0  0  0
   29.8589    0.0904    2.8526 C   0  0  0  0  0  0  0  0  0  0  0  0
   29.5933    0.0850    1.5120 N   0  0  0  0  0  0  0  0  0  0  0  0
   31.1281    0.1387    3.4352 C   0  0  0  0  0  0  0  0  0  0  0  0
   32.3392    0.1392    2.7415 C   0  0  0  0  0  0  0  0  0  0  0  0
   33.6362    0.1569    3.3933 C   0  0  0  0  0  0  0  0  0  0  0  0
   34.5587    0.1497    2.4088 C   0  0  0  0  0  0  0  0  0  0  0  0
   32.4939    0.1374    1.3897 N   0  0  0  0  0  0  0  0  0  0  0  0
   33.8234    0.1361    1.1584 C   0  0  0  0  0  0  0  0  0  0  0  0
   34.4542    0.1225   -0.1006 C   0  0  0  0  0  0  0  0  0  0  0  0
   33.8031    0.1321   -1.3467 C   0  0  0  0  0  0  0  0  0  0  0  0
   34.4224    0.1499   -2.6255 C   0  0  0  0  0  0  0  0  0  0  0  0
   33.4360    0.1877   -3.5714 C   0  0  0  0  0  0  0  0  0  0  0  0
   32.1826    0.1895   -2.8983 C   0  0  0  0  0  0  0  0  0  0  0  0
   30.9133    0.2229   -3.4810 C   0  0  0  0  0  0  0  0  0  0  0  0
   30.8710    0.2453   -4.9747 C   0  0  0  0  0  0  0  0  0  0  0  0
   31.0421    1.3917   -5.7553 C   0  0  0  0  0  0  0  0  0  0  0  0
   31.2427    2.6522   -5.2868 O   0  0  0  0  0  0  0  0  0  0  0  0
   30.8781    3.0664   -3.9830 C   0  0  0  0  0  0  0  0  0  0  0  0
   31.0397    1.2925   -7.1526 C   0  0  0  0  0  0  0  0  0  0  0  0
   30.8576    0.0706   -7.7672 C   0  0  0  0  0  0  0  0  0  0  0  0
   30.6673   -1.0805   -7.0118 C   0  0  0  0  0  0  0  0  0  0  0  0
   30.6774   -0.9896   -5.6246 C   0  0  0  0  0  0  0  0  0  0  0  0
   30.5206   -2.0597   -4.7993 O   0  0  0  0  0  0  0  0  0  0  0  0
   30.2911   -3.3475   -5.3342 C   0  0  0  0  0  0  0  0  0  0  0  0
   29.7025    0.1667   -2.7868 C   0  0  0  0  0  0  0  0  0  0  0  0
   28.3994    0.1558   -3.4323 C   0  0  0  0  0  0  0  0  0  0  0  0
   27.4841    0.0965   -2.4438 C   0  0  0  0  0  0  0  0  0  0  0  0
   28.2277    0.0810   -1.1958 C   0  0  0  0  0  0  0  0  0  0  0  0
   29.5599    0.1293   -1.4405 N   0  0  0  0  0  0  0  0  0  0  0  0
   32.4560    0.1547   -1.5562 N   0  0  0  0  0  0  0  0  0  0  0  0
   31.1682    0.1132    4.9288 C   0  0  0  0  0  0  0  0  0  0  0  0
   30.9208    1.2206    5.7444 C   0  0  0  0  0  0  0  0  0  0  0  0
   30.6467    2.4800    5.3098 O   0  0  0  0  0  0  0  0  0  0  0  0
   31.0469    2.9648    4.0408 C   0  0  0  0  0  0  0  0  0  0  0  0
   30.9169    1.0767    7.1375 C   0  0  0  0  0  0  0  0  0  0  0  0
   31.1688   -0.1515    7.7141 C   0  0  0  0  0  0  0  0  0  0  0  0
   31.4370   -1.2630    6.9239 C   0  0  0  0  0  0  0  0  0  0  0  0
   31.4324   -1.1282    5.5402 C   0  0  0  0  0  0  0  0  0  0  0  0
   31.6587   -2.1601    4.6833 O   0  0  0  0  0  0  0  0  0  0  0  0
   31.9718   -3.4461    5.1788 C   0  0  0  0  0  0  0  0  0  0  0  0
   26.5350   -0.0074    0.0700 H   0  0  0  0  0  0  0  0  0  0  0  0
   26.5543   -0.0379    2.7282 H   0  0  0  0  0  0  0  0  0  0  0  0
   28.4776    0.0299    4.5912 H   0  0  0  0  0  0  0  0  0  0  0  0
   30.3006    0.0954    0.7850 H   0  0  0  0  0  0  0  0  0  0  0  0
   33.7910    0.1665    4.4604 H   0  0  0  0  0  0  0  0  0  0  0  0
   35.6339    0.1548    2.4924 H   0  0  0  0  0  0  0  0  0  0  0  0
   35.4881    0.1375   -2.7885 H   0  0  0  0  0  0  0  0  0  0  0  0
   33.5561    0.2088   -4.6425 H   0  0  0  0  0  0  0  0  0  0  0  0
   31.5972    2.7193   -3.2330 H   0  0  0  0  0  0  0  0  0  0  0  0
   30.8835    4.1591   -4.0004 H   0  0  0  0  0  0  0  0  0  0  0  0
   29.8758    2.7156   -3.7160 H   0  0  0  0  0  0  0  0  0  0  0  0
   31.1817    2.1967   -7.7308 H   0  0  0  0  0  0  0  0  0  0  0  0
   30.8563    0.0054   -8.8494 H   0  0  0  0  0  0  0  0  0  0  0  0
   30.5213   -2.0307   -7.5074 H   0  0  0  0  0  0  0  0  0  0  0  0
   30.1808   -4.0163   -4.4786 H   0  0  0  0  0  0  0  0  0  0  0  0
   29.3731   -3.3753   -5.9337 H   0  0  0  0  0  0  0  0  0  0  0  0
   31.1353   -3.6844   -5.9480 H   0  0  0  0  0  0  0  0  0  0  0  0
   28.2392    0.1830   -4.4984 H   0  0  0  0  0  0  0  0  0  0  0  0
   26.4082    0.0675   -2.5192 H   0  0  0  0  0  0  0  0  0  0  0  0
   31.7517    0.1303   -0.8264 H   0  0  0  0  0  0  0  0  0  0  0  0
   32.0713    2.6621    3.8012 H   0  0  0  0  0  0  0  0  0  0  0  0
   30.9988    4.0548    4.1031 H   0  0  0  0  0  0  0  0  0  0  0  0
   30.3721    2.6240    3.2483 H   0  0  0  0  0  0  0  0  0  0  0  0
   30.7143    1.9510    7.7431 H   0  0  0  0  0  0  0  0  0  0  0  0
   31.1646   -0.2524    8.7936 H   0  0  0  0  0  0  0  0  0  0  0  0
   31.6370   -2.2183    7.3903 H   0  0  0  0  0  0  0  0  0  0  0  0
   31.1495   -3.8582    5.7764 H   0  0  0  0  0  0  0  0  0  0  0  0
   32.1301   -4.0784    4.3032 H   0  0  0  0  0  0  0  0  0  0  0  0
   32.8870   -3.4314    5.7828 H   0  0  0  0  0  0  0  0  0  0  0  0
   61.4029   -0.0237   -0.1057 C   0  0  0  0  0  0  0  0  0  0  0  0
   60.7997   -0.1632   -1.3488 C   0  0  0  0  0  0  0  0  0  0  0  0
   61.4489   -0.3255   -2.6055 C   0  0  0  0  0  0  0  0  0  0  0  0
   60.4847   -0.4110   -3.5698 C   0  0  0  0  0  0  0  0  0  0  0  0
   59.2150   -0.3074   -2.9329 C   0  0  0  0  0  0  0  0  0  0  0  0
   59.4558   -0.1576   -1.5960 N   0  0  0  0  0  0  0  0  0  0  0  0
   57.9560   -0.3516   -3.5375 C   0  0  0  0  0  0  0  0  0  0  0  0
   56.7329   -0.2965   -2.8678 C   0  0  0  0  0  0  0  0  0  0  0  0
   55.4478   -0.3906   -3.5365 C   0  0  0  0  0  0  0  0  0  0  0  0
   54.5079   -0.2911   -2.5737 C   0  0  0  0  0  0  0  0  0  0  0  0
   56.5537   -0.1302   -1.5291 N   0  0  0  0  0  0  0  0  0  0  0  0
   55.2206   -0.1259   -1.3210 C   0  0  0  0  0  0  0  0  0  0  0  0
   54.5667    0.0358   -0.0841 C   0  0  0  0  0  0  0  0  0  0  0  0
   55.1946    0.2264    1.1596 C   0  0  0  0  0  0  0  0  0  0  0  0
   54.5515    0.4107    2.4131 C   0  0  0  0  0  0  0  0  0  0  0  0
   55.5202    0.5588    3.3665 C   0  0  0  0  0  0  0  0  0  0  0  0
   56.7861    0.4668    2.7236 C   0  0  0  0  0  0  0  0  0  0  0  0
   58.0447    0.5530    3.3240 C   0  0  0  0  0  0  0  0  0  0  0  0
   58.0593    0.7329    4.8073 C   0  0  0  0  0  0  0  0  0  0  0  0
   57.8623    1.9522    5.4609 C   0  0  0  0  0  0  0  0  0  0  0  0
   57.6636    3.1546    4.8580 O   0  0  0  0  0  0  0  0  0  0  0  0
   58.0701    3.4346    3.5308 C   0  0  0  0  0  0  0  0  0  0  0  0
   57.8345    1.9988    6.8606 C   0  0  0  0  0  0  0  0  0  0  0  0
   58.0131    0.8492    7.6026 C   0  0  0  0  0  0  0  0  0  0  0  0
   58.2306   -0.3718    6.9751 C   0  0  0  0  0  0  0  0  0  0  0  0
   58.2500   -0.4256    5.5862 C   0  0  0  0  0  0  0  0  0  0  0  0
   58.4337   -1.5740    4.8804 O   0  0  0  0  0  0  0  0  0  0  0  0
   58.6666   -2.7963    5.5505 C   0  0  0  0  0  0  0  0  0  0  0  0
   59.2676    0.4130    2.6635 C   0  0  0  0  0  0  0  0  0  0  0  0
   60.5585    0.4719    3.3304 C   0  0  0  0  0  0  0  0  0  0  0  0
   61.4919    0.3083    2.3710 C   0  0  0  0  0  0  0  0  0  0  0  0
   60.7714    0.1568    1.1186 C   0  0  0  0  0  0  0  0  0  0  0  0
   59.4348    0.2290    1.3322 N   0  0  0  0  0  0  0  0  0  0  0  0
   56.5376    0.2698    1.3907 N   0  0  0  0  0  0  0  0  0  0  0  0
   57.9424   -0.5485   -5.0189 C   0  0  0  0  0  0  0  0  0  0  0  0
   58.1674    0.4656   -5.9537 C   0  0  0  0  0  0  0  0  0  0  0  0
   58.3986    1.7745   -5.6664 O   0  0  0  0  0  0  0  0  0  0  0  0
   57.9915    2.3880   -4.4568 C   0  0  0  0  0  0  0  0  0  0  0  0
   58.1926    0.1631   -7.3210 C   0  0  0  0  0  0  0  0  0  0  0  0
   57.9843   -1.1301   -7.7553 C   0  0  0  0  0  0  0  0  0  0  0  0
   57.7405   -2.1520   -6.8453 C   0  0  0  0  0  0  0  0  0  0  0  0
   57.7237   -1.8594   -5.4863 C   0  0  0  0  0  0  0  0  0  0  0  0
   57.5171   -2.7927   -4.5184 O   0  0  0  0  0  0  0  0  0  0  0  0
   57.2443   -4.1351   -4.8656 C   0  0  0  0  0  0  0  0  0  0  0  0
   62.4877   -0.0547   -0.0999 H   0  0  0  0  0  0  0  0  0  0  0  0
   62.5181   -0.3686   -2.7397 H   0  0  0  0  0  0  0  0  0  0  0  0
   60.6283   -0.5387   -4.6306 H   0  0  0  0  0  0  0  0  0  0  0  0
   58.7353   -0.0772   -0.8866 H   0  0  0  0  0  0  0  0  0  0  0  0
   55.3121   -0.5216   -4.5981 H   0  0  0  0  0  0  0  0  0  0  0  0
   53.4346   -0.3191   -2.6739 H   0  0  0  0  0  0  0  0  0  0  0  0
   53.4829    0.4259    2.5552 H   0  0  0  0  0  0  0  0  0  0  0  0
   55.3799    0.7140    4.4239 H   0  0  0  0  0  0  0  0  0  0  0  0
   57.3720    3.0153    2.7981 H   0  0  0  0  0  0  0  0  0  0  0  0
   58.0706    4.5235    3.4376 H   0  0  0  0  0  0  0  0  0  0  0  0
   59.0779    3.0557    3.3315 H   0  0  0  0  0  0  0  0  0  0  0  0
   57.6722    2.9565    7.3386 H   0  0  0  0  0  0  0  0  0  0  0  0
   57.9907    0.8965    8.6855 H   0  0  0  0  0  0  0  0  0  0  0  0
   58.3739   -1.2638    7.5698 H   0  0  0  0  0  0  0  0  0  0  0  0
   58.8033   -3.5484    4.7712 H   0  0  0  0  0  0  0  0  0  0  0  0
   59.5716   -2.7493    6.1682 H   0  0  0  0  0  0  0  0  0  0  0  0
   57.8133   -3.0798    6.1786 H   0  0  0  0  0  0  0  0  0  0  0  0
   60.6993    0.6143    4.3901 H   0  0  0  0  0  0  0  0  0  0  0  0
   62.5662    0.2891    2.4688 H   0  0  0  0  0  0  0  0  0  0  0  0
   57.2553    0.1471    0.6841 H   0  0  0  0  0  0  0  0  0  0  0  0
   56.9736    2.0939   -4.1807 H   0  0  0  0  0  0  0  0  0  0  0  0
   58.0175    3.4652   -4.6397 H   0  0  0  0  0  0  0  0  0  0  0  0
   58.6751    2.1505   -3.6343 H   0  0  0  0  0  0  0  0  0  0  0  0
   58.3762    0.9683   -8.0211 H   0  0  0  0  0  0  0  0  0  0  0  0
   58.0043   -1.3534   -8.8161 H   0  0  0  0  0  0  0  0  0  0  0  0
   57.5747   -3.1601   -7.2007 H   0  0  0  0  0  0  0  0  0  0  0  0
   58.0841   -4.5899   -5.4049 H   0  0  0  0  0  0  0  0  0  0  0  0
   57.0927   -4.6672   -3.9245 H   0  0  0  0  0  0  0  0  0  0  0  0
   56.3361   -4.2151   -5.4750 H   0  0  0  0  0  0  0  0  0  0  0  0
   37.0846    0.0890   -0.1471 C   0  0  0  0  0  0  0  0  0  0  0  0
   35.8637    0.1069   -0.1277 C   0  0  0  0  0  0  0  0  0  0  0  0
   38.4371    0.0754   -0.1626 C   0  0  0  0  0  0  0  0  0  0  0  0
   39.6582    0.0610   -0.1741 C   0  0  0  0  0  0  0  0  0  0  0  0
   50.5842   -0.0154   -0.0920 C   0  0  0  0  0  0  0  0  0  0  0  0
   49.3630   -0.0200   -0.1057 C   0  0  0  0  0  0  0  0  0  0  0  0
   51.9364   -0.0030   -0.0825 C   0  0  0  0  0  0  0  0  0  0  0  0
   53.1575    0.0161   -0.0805 C   0  0  0  0  0  0  0  0  0  0  0  0
   41.0672    0.0536   -0.1831 C   0  0  0  0  0  0  0  0  0  0  0  0
   41.7028    1.2470    0.2037 C   0  0  0  0  0  0  0  0  0  0  0  0
   41.0668    2.4540    0.5982 C   0  0  0  0  0  0  0  0  0  0  0  0
   42.0421    3.3703    0.8784 C   0  0  0  0  0  0  0  0  0  0  0  0
   43.3034    2.7503    0.6613 C   0  0  0  0  0  0  0  0  0  0  0  0
   43.0469    1.4672    0.2592 N   0  0  0  0  0  0  0  0  0  0  0  0
   44.5654    3.3244    0.8413 C   0  0  0  0  0  0  0  0  0  0  0  0
   45.7887    2.6786    0.6639 C   0  0  0  0  0  0  0  0  0  0  0  0
   47.0753    3.3273    0.8462 C   0  0  0  0  0  0  0  0  0  0  0  0
   48.0147    2.3954    0.5874 C   0  0  0  0  0  0  0  0  0  0  0  0
   45.9678    1.3827    0.2886 N   0  0  0  0  0  0  0  0  0  0  0  0
   47.3008    1.1821    0.2370 C   0  0  0  0  0  0  0  0  0  0  0  0
   47.9544   -0.0123   -0.1216 C   0  0  0  0  0  0  0  0  0  0  0  0
   47.3216   -1.2053   -0.5148 C   0  0  0  0  0  0  0  0  0  0  0  0
   47.9559   -2.4177   -0.8941 C   0  0  0  0  0  0  0  0  0  0  0  0
   46.9797   -3.3212   -1.2131 C   0  0  0  0  0  0  0  0  0  0  0  0
   45.7198   -2.6859   -1.0366 C   0  0  0  0  0  0  0  0  0  0  0  0
   44.4576   -3.2449   -1.2569 C   0  0  0  0  0  0  0  0  0  0  0  0
   44.4407   -4.6758   -1.6905 C   0  0  0  0  0  0  0  0  0  0  0  0
   44.2561   -5.6413   -0.6813 C   0  0  0  0  0  0  0  0  0  0  0  0
   44.0839   -5.1423    0.5726 O   0  0  0  0  0  0  0  0  0  0  0  0
   43.8503   -6.0114    1.6621 C   0  0  0  0  0  0  0  0  0  0  0  0
   44.2682   -7.0005   -0.9727 C   0  0  0  0  0  0  0  0  0  0  0  0
   44.4726   -7.4096   -2.2853 C   0  0  0  0  0  0  0  0  0  0  0  0
   44.6470   -6.4817   -3.2915 C   0  0  0  0  0  0  0  0  0  0  0  0
   44.6267   -5.1104   -3.0055 C   0  0  0  0  0  0  0  0  0  0  0  0
   44.8230   -4.3132   -4.0887 O   0  0  0  0  0  0  0  0  0  0  0  0
   44.4478   -2.9483   -4.1307 C   0  0  0  0  0  0  0  0  0  0  0  0
   43.2339   -2.6106   -1.0446 C   0  0  0  0  0  0  0  0  0  0  0  0
   41.9501   -3.2530   -1.2616 C   0  0  0  0  0  0  0  0  0  0  0  0
   41.0079   -2.3335   -0.9653 C   0  0  0  0  0  0  0  0  0  0  0  0
   41.7187   -1.1318   -0.5735 C   0  0  0  0  0  0  0  0  0  0  0  0
   43.0524   -1.3260   -0.6354 N   0  0  0  0  0  0  0  0  0  0  0  0
   45.9774   -1.4090   -0.6135 N   0  0  0  0  0  0  0  0  0  0  0  0
   44.5846    4.7566    1.2552 C   0  0  0  0  0  0  0  0  0  0  0  0
   44.1737    5.7544    0.3611 C   0  0  0  0  0  0  0  0  0  0  0  0
   43.7727    5.3243   -0.8649 O   0  0  0  0  0  0  0  0  0  0  0  0
   43.3663    6.2520   -1.8511 C   0  0  0  0  0  0  0  0  0  0  0  0
   44.2002    7.0957    0.7408 C   0  0  0  0  0  0  0  0  0  0  0  0
   44.6312    7.4330    2.0150 C   0  0  0  0  0  0  0  0  0  0  0  0
   45.0366    6.4627    2.9187 C   0  0  0  0  0  0  0  0  0  0  0  0
   45.0150    5.1213    2.5380 C   0  0  0  0  0  0  0  0  0  0  0  0
   45.3814    4.0988    3.3540 O   0  0  0  0  0  0  0  0  0  0  0  0
   45.8730    4.3600    4.6533 C   0  0  0  0  0  0  0  0  0  0  0  0
   39.9991    2.5920    0.6575 H   0  0  0  0  0  0  0  0  0  0  0  0
   41.9058    4.3872    1.2085 H   0  0  0  0  0  0  0  0  0  0  0  0
   43.7585    0.7788    0.0385 H   0  0  0  0  0  0  0  0  0  0  0  0
   47.2155    4.3572    1.1321 H   0  0  0  0  0  0  0  0  0  0  0  0
   49.0883    2.4935    0.6157 H   0  0  0  0  0  0  0  0  0  0  0  0
   49.0232   -2.5686   -0.9166 H   0  0  0  0  0  0  0  0  0  0  0  0
   47.1122   -4.3396   -1.5405 H   0  0  0  0  0  0  0  0  0  0  0  0
   43.7214   -5.3726    2.5379 H   0  0  0  0  0  0  0  0  0  0  0  0
   44.7001   -6.6843    1.8296 H   0  0  0  0  0  0  0  0  0  0  0  0
   42.9409   -6.6061    1.5133 H   0  0  0  0  0  0  0  0  0  0  0  0
   44.1286   -7.7391   -0.1949 H   0  0  0  0  0  0  0  0  0  0  0  0
   44.4889   -8.4683   -2.5183 H   0  0  0  0  0  0  0  0  0  0  0  0
   44.8004   -6.7887   -4.3184 H   0  0  0  0  0  0  0  0  0  0  0  0
   44.4724   -2.6611   -5.1848 H   0  0  0  0  0  0  0  0  0  0  0  0
   43.4358   -2.7985   -3.7402 H   0  0  0  0  0  0  0  0  0  0  0  0
   45.1503   -2.3187   -3.5739 H   0  0  0  0  0  0  0  0  0  0  0  0
   41.8168   -4.2714   -1.5900 H   0  0  0  0  0  0  0  0  0  0  0  0
   39.9346   -2.4321   -0.9996 H   0  0  0  0  0  0  0  0  0  0  0  0
   45.2675   -0.7191   -0.3916 H   0  0  0  0  0  0  0  0  0  0  0  0
   44.1755    6.9469   -2.1060 H   0  0  0  0  0  0  0  0  0  0  0  0
   42.4867    6.8220   -1.5284 H   0  0  0  0  0  0  0  0  0  0  0  0
   43.1078    5.6634   -2.7333 H   0  0  0  0  0  0  0  0  0  0  0  0
   43.8897    7.8738    0.0565 H   0  0  0  0  0  0  0  0  0  0  0  0
   44.6503    8.4762    2.3107 H   0  0  0  0  0  0  0  0  0  0  0  0
   45.3639    6.7546    3.9075 H   0  0  0  0  0  0  0  0  0  0  0  0
   46.7755    4.9822    4.6230 H   0  0  0  0  0  0  0  0  0  0  0  0
   46.1214    3.3885    5.0846 H   0  0  0  0  0  0  0  0  0  0  0  0
   45.1162    4.8487    5.2788 H   0  0  0  0  0  0  0  0  0  0  0  0
  1  2  4  0  0  0  0
  2  3  4  0  0  0  0
  3  4  2  0  0  0  0
  4  5  4  0  0  0  0
  2  6  4  0  0  0  0
  5  6  4  0  0  0  0
  5  7  4  0  0  0  0
  7  8  4  0  0  0  0
  8  9  1  0  0  0  0
  9 10  2  0  0  0  0
  8 11  4  0  0  0  0
 10 12  1  0  0  0  0
 11 12  4  0  0  0  0
 12 13  4  0  0  0  0
 13 14  4  0  0  0  0
 14 15  4  0  0  0  0
 15 16  2  0  0  0  0
 16 17  4  0  0  0  0
 17 18  4  0  0  0  0
 18 19  1  0  0  0  0
 19 20  4  0  0  0  0
 20 21  1  0  0  0  0
 21 22  1  0  0  0  0
 20 23  4  0  0  0  0
 23 24  4  0  0  0  0
 24 25  4  0  0  0  0
 19 26  4  0  0  0  0
 25 26  4  0  0  0  0
 26 27  1  0  0  0  0
 27 28  1  0  0  0  0
 18 29  4  0  0  0  0
 29 30  1  0  0  0  0
 30 31  2  0  0  0  0
  1 32  4  0  0  0  0
 31 32  1  0  0  0  0
 29 33  4  0  0  0  0
 32 33  4  0  0  0  0
 14 34  4  0  0  0  0
 17 34  4  0  0  0  0
  7 35  1  0  0  0  0
 35 36  4  0  0  0  0
 36 37  1  0  0  0  0
 37 38  1  0  0  0  0
 36 39  4  0  0  0  0
 39 40  4  0  0  0  0
 40 41  4  0  0  0  0
 35 42  4  0  0  0  0
 41 42  4  0  0  0  0
 42 43  1  0  0  0  0
 43 44  1  0  0  0  0
  1 45  1  0  0  0  0
  3 46  1  0  0  0  0
  4 47  1  0  0  0  0
  6 48  1  0  0  0  0
  9 49  1  0  0  0  0
 10 50  1  0  0  0  0
 15 51  1  0  0  0  0
 16 52  1  0  0  0  0
 22 53  1  0  0  0  0
 22 54  1  0  0  0  0
 22 55  1  0  0  0  0
 23 56  1  0  0  0  0
 24 57  1  0  0  0  0
 25 58  1  0  0  0  0
 28 59  1  0  0  0  0
 28 60  1  0  0  0  0
 28 61  1  0  0  0  0
 30 62  1  0  0  0  0
 31 63  1  0  0  0  0
 34 64  1  0  0  0  0
 38 65  1  0  0  0  0
 38 66  1  0  0  0  0
 38 67  1  0  0  0  0
 39 68  1  0  0  0  0
 40 69  1  0  0  0  0
 41 70  1  0  0  0  0
 44 71  1  0  0  0  0
 44 72  1  0  0  0  0
 44 73  1  0  0  0  0
 74 75  4  0  0  0  0
 75 76  4  0  0  0  0
 76 77  2  0  0  0  0
 77 78  4  0  0  0  0
 75 79  4  0  0  0  0
 78 79  4  0  0  0  0
 78 80  4  0  0  0  0
 80 81  4  0  0  0  0
 81 82  1  0  0  0  0
 82 83  2  0  0  0  0
 81 84  4  0  0  0  0
 83 85  1  0  0  0  0
 84 85  4  0  0  0  0
 85 86  4  0  0  0  0
 86 87  4  0  0  0  0
 87 88  4  0  0  0  0
 88 89  2  0  0  0  0
 89 90  4  0  0  0  0
 90 91  4  0  0  0  0
 91 92  1  0  0  0  0
 92 93  4  0  0  0  0
 93 94  1  0  0  0  0
 94 95  1  0  0  0  0
 93 96  4  0  0  0  0
 96 97  4  0  0  0  0
 97 98  4  0  0  0  0
 92 99  4  0  0  0  0
 98 99  4  0  0  0  0
 99100  1  0  0  0  0
100101  1  0  0  0  0
 91102  4  0  0  0  0
102103  1  0  0  0  0
103104  2  0  0  0  0
 74105  4  0  0  0  0
104105  1  0  0  0  0
102106  4  0  0  0  0
105106  4  0  0  0  0
 87107  4  0  0  0  0
 90107  4  0  0  0  0
 80108  1  0  0  0  0
108109  4  0  0  0  0
109110  1  0  0  0  0
110111  1  0  0  0  0
109112  4  0  0  0  0
112113  4  0  0  0  0
113114  4  0  0  0  0
108115  4  0  0  0  0
114115  4  0  0  0  0
115116  1  0  0  0  0
116117  1  0  0  0  0
 74118  1  0  0  0  0
 76119  1  0  0  0  0
 77120  1  0  0  0  0
 79121  1  0  0  0  0
 82122  1  0  0  0  0
 83123  1  0  0  0  0
 88124  1  0  0  0  0
 89125  1  0  0  0  0
 95126  1  0  0  0  0
 95127  1  0  0  0  0
 95128  1  0  0  0  0
 96129  1  0  0  0  0
 97130  1  0  0  0  0
 98131  1  0  0  0  0
101132  1  0  0  0  0
101133  1  0  0  0  0
101134  1  0  0  0  0
103135  1  0  0  0  0
104136  1  0  0  0  0
107137  1  0  0  0  0
111138  1  0  0  0  0
111139  1  0  0  0  0
111140  1  0  0  0  0
112141  1  0  0  0  0
113142  1  0  0  0  0
114143  1  0  0  0  0
117144  1  0  0  0  0
117145  1  0  0  0  0
117146  1  0  0  0  0
 13148  4  0  0  0  0
147148  3  0  0  0  0
147149  4  0  0  0  0
149150  3  0  0  0  0
151152  3  0  0  0  0
151153  4  0  0  0  0
 86154  4  0  0  0  0
153154  3  0  0  0  0
150155  4  0  0  0  0
155156  4  0  0  0  0
156157  4  0  0  0  0
157158  2  0  0  0  0
158159  4  0  0  0  0
156160  4  0  0  0  0
159160  4  0  0  0  0
159161  4  0  0  0  0
161162  4  0  0  0  0
162163  1  0  0  0  0
163164  2  0  0  0  0
162165  4  0  0  0  0
164166  1  0  0  0  0
165166  4  0  0  0  0
152167  4  0  0  0  0
166167  4  0  0  0  0
167168  4  0  0  0  0
168169  4  0  0  0  0
169170  2  0  0  0  0
170171  4  0  0  0  0
171172  4  0  0  0  0
172173  1  0  0  0  0
173174  4  0  0  0  0
174175  1  0  0  0  0
175176  1  0  0  0  0
174177  4  0  0  0  0
177178  4  0  0  0  0
178179  4  0  0  0  0
173180  4  0  0  0  0
179180  4  0  0  0  0
180181  1  0  0  0  0
181182  1  0  0  0  0
172183  4  0  0  0  0
183184  1  0  0  0  0
184185  2  0  0  0  0
155186  4  0  0  0  0
185186  1  0  0  0  0
183187  4  0  0  0  0
186187  4  0  0  0  0
168188  4  0  0  0  0
171188  4  0  0  0  0
161189  1  0  0  0  0
189190  4  0  0  0  0
190191  1  0  0  0  0
191192  1  0  0  0  0
190193  4  0  0  0  0
193194  4  0  0  0  0
194195  4  0  0  0  0
189196  4  0  0  0  0
195196  4  0  0  0  0
196197  1  0  0  0  0
197198  1  0  0  0  0
157199  1  0  0  0  0
158200  1  0  0  0  0
160201  1  0  0  0  0
163202  1  0  0  0  0
164203  1  0  0  0  0
169204  1  0  0  0  0
170205  1  0  0  0  0
176206  1  0  0  0  0
176207  1  0  0  0  0
176208  1  0  0  0  0
177209  1  0  0  0  0
178210  1  0  0  0  0
179211  1  0  0  0  0
182212  1  0  0  0  0
182213  1  0  0  0  0
182214  1  0  0  0  0
184215  1  0  0  0  0
185216  1  0  0  0  0
188217  1  0  0  0  0
192218  1  0  0  0  0
192219  1  0  0  0  0
192220  1  0  0  0  0
193221  1  0  0  0  0
194222  1  0  0  0  0
195223  1  0  0  0  0
198224  1  0  0  0  0
198225  1  0  0  0  0
198226  1  0  0  0  0
M  END
