 xtb: 6.5.1 (b24c23e)
          07302205273D

225254  0     0  0            999 V2000
   35.5706    0.0654   -0.0296 Ni  0  0  0  0  0  0  0  0  0  0  0  0
   32.1740    0.1317   -0.1154 C   0  0  0  0  0  0  0  0  0  0  0  0
   32.8352    1.2660    0.3086 C   0  0  0  0  0  0  0  0  0  0  0  0
   32.1700    2.4699    0.7066 C   0  0  0  0  0  0  0  0  0  0  0  0
   33.1297    3.3173    1.1466 C   0  0  0  0  0  0  0  0  0  0  0  0
   34.3806    2.6295    1.0162 C   0  0  0  0  0  0  0  0  0  0  0  0
   34.1924    1.3809    0.4778 N   0  0  0  0  0  0  0  0  0  0  0  0
   35.5921    3.1509    1.4432 C   0  0  0  0  0  0  0  0  0  0  0  0
   35.6065    4.5015    2.0733 C   0  0  0  0  0  0  0  0  0  0  0  0
   35.8279    5.6335    1.2826 C   0  0  0  0  0  0  0  0  0  0  0  0
   36.0546    5.4840   -0.1982 C   0  0  0  0  0  0  0  0  0  0  0  0
   35.8396    6.8893    1.8768 C   0  0  0  0  0  0  0  0  0  0  0  0
   35.6347    7.0349    3.2457 C   0  0  0  0  0  0  0  0  0  0  0  0
   35.6686    8.4021    3.8736 C   0  0  0  0  0  0  0  0  0  0  0  0
   35.4175    5.9021    4.0222 C   0  0  0  0  0  0  0  0  0  0  0  0
   35.4007    4.6354    3.4488 C   0  0  0  0  0  0  0  0  0  0  0  0
   35.1623    3.4136    4.2955 C   0  0  0  0  0  0  0  0  0  0  0  0
   36.7944    2.4766    1.2962 C   0  0  0  0  0  0  0  0  0  0  0  0
   38.0520    3.0006    1.7356 C   0  0  0  0  0  0  0  0  0  0  0  0
   39.0028    2.1263    1.3270 C   0  0  0  0  0  0  0  0  0  0  0  0
   36.9708    1.2741    0.6508 N   0  0  0  0  0  0  0  0  0  0  0  0
   38.3242    1.0706    0.6430 C   0  0  0  0  0  0  0  0  0  0  0  0
   38.9861    0.0315   -0.0132 C   0  0  0  0  0  0  0  0  0  0  0  0
   38.3095   -1.0046   -0.6593 C   0  0  0  0  0  0  0  0  0  0  0  0
   38.9737   -2.0907   -1.3090 C   0  0  0  0  0  0  0  0  0  0  0  0
   38.0109   -2.9640   -1.6908 C   0  0  0  0  0  0  0  0  0  0  0  0
   36.7597   -2.4040   -1.2789 C   0  0  0  0  0  0  0  0  0  0  0  0
   36.9528   -1.1860   -0.6685 N   0  0  0  0  0  0  0  0  0  0  0  0
   35.5437   -3.0516   -1.4342 C   0  0  0  0  0  0  0  0  0  0  0  0
   35.5384   -4.4227   -2.0186 C   0  0  0  0  0  0  0  0  0  0  0  0
   35.3789   -4.5982   -3.3967 C   0  0  0  0  0  0  0  0  0  0  0  0
   35.2048   -3.4002   -4.2917 C   0  0  0  0  0  0  0  0  0  0  0  0
   35.3829   -5.8827   -3.9256 C   0  0  0  0  0  0  0  0  0  0  0  0
   35.5426   -6.9949   -3.1034 C   0  0  0  0  0  0  0  0  0  0  0  0
   35.5453   -8.3765   -3.7000 C   0  0  0  0  0  0  0  0  0  0  0  0
   35.6978   -6.8083   -1.7349 C   0  0  0  0  0  0  0  0  0  0  0  0
   35.6978   -5.5316   -1.1835 C   0  0  0  0  0  0  0  0  0  0  0  0
   35.8716   -5.3376    0.2992 C   0  0  0  0  0  0  0  0  0  0  0  0
   34.3348   -2.4776   -1.0723 C   0  0  0  0  0  0  0  0  0  0  0  0
   33.0659   -3.1200   -1.2516 C   0  0  0  0  0  0  0  0  0  0  0  0
   32.1188   -2.2205   -0.8956 C   0  0  0  0  0  0  0  0  0  0  0  0
   32.8101   -1.0337   -0.4908 C   0  0  0  0  0  0  0  0  0  0  0  0
   34.1685   -1.2072   -0.5795 N   0  0  0  0  0  0  0  0  0  0  0  0
   31.0910    0.1545   -0.1470 H   0  0  0  0  0  0  0  0  0  0  0  0
   31.1037    2.6236    0.6550 H   0  0  0  0  0  0  0  0  0  0  0  0
   33.0202    4.3180    1.5326 H   0  0  0  0  0  0  0  0  0  0  0  0
   35.2311    4.9333   -0.6561 H   0  0  0  0  0  0  0  0  0  0  0  0
   36.9738    4.9250   -0.3843 H   0  0  0  0  0  0  0  0  0  0  0  0
   36.1361    6.4580   -0.6797 H   0  0  0  0  0  0  0  0  0  0  0  0
   36.0098    7.7684    1.2638 H   0  0  0  0  0  0  0  0  0  0  0  0
   35.1893    8.3944    4.8525 H   0  0  0  0  0  0  0  0  0  0  0  0
   36.7034    8.7278    4.0014 H   0  0  0  0  0  0  0  0  0  0  0  0
   35.1624    9.1305    3.2389 H   0  0  0  0  0  0  0  0  0  0  0  0
   35.2577    6.0054    5.0905 H   0  0  0  0  0  0  0  0  0  0  0  0
   35.9818    2.7027    4.1760 H   0  0  0  0  0  0  0  0  0  0  0  0
   35.0799    3.6799    5.3489 H   0  0  0  0  0  0  0  0  0  0  0  0
   34.2409    2.9149    3.9885 H   0  0  0  0  0  0  0  0  0  0  0  0
   38.1747    3.9236    2.2788 H   0  0  0  0  0  0  0  0  0  0  0  0
   40.0710    2.1815    1.4616 H   0  0  0  0  0  0  0  0  0  0  0  0
   40.0415   -2.1675   -1.4363 H   0  0  0  0  0  0  0  0  0  0  0  0
   38.1214   -3.9067   -2.2020 H   0  0  0  0  0  0  0  0  0  0  0  0
   34.2921   -2.8618   -4.0291 H   0  0  0  0  0  0  0  0  0  0  0  0
   35.1434   -3.7011   -5.3371 H   0  0  0  0  0  0  0  0  0  0  0  0
   36.0437   -2.7120   -4.1731 H   0  0  0  0  0  0  0  0  0  0  0  0
   35.2610   -6.0206   -4.9951 H   0  0  0  0  0  0  0  0  0  0  0  0
   36.3394   -8.4668   -4.4435 H   0  0  0  0  0  0  0  0  0  0  0  0
   35.7001   -9.1340   -2.9318 H   0  0  0  0  0  0  0  0  0  0  0  0
   34.5947   -8.5756   -4.1985 H   0  0  0  0  0  0  0  0  0  0  0  0
   35.8220   -7.6686   -1.0853 H   0  0  0  0  0  0  0  0  0  0  0  0
   35.0439   -4.7541    0.7063 H   0  0  0  0  0  0  0  0  0  0  0  0
   36.7955   -4.7926    0.5028 H   0  0  0  0  0  0  0  0  0  0  0  0
   35.9119   -6.2964    0.8153 H   0  0  0  0  0  0  0  0  0  0  0  0
   32.9370   -4.1275   -1.6135 H   0  0  0  0  0  0  0  0  0  0  0  0
   31.0459   -2.3298   -0.9015 H   0  0  0  0  0  0  0  0  0  0  0  0
   57.3280   -0.0317   -0.0806 Ni  0  0  0  0  0  0  0  0  0  0  0  0
   60.7249   -0.0135   -0.1488 C   0  0  0  0  0  0  0  0  0  0  0  0
   60.0737   -1.1648   -0.5417 C   0  0  0  0  0  0  0  0  0  0  0  0
   60.7489   -2.3566   -0.9589 C   0  0  0  0  0  0  0  0  0  0  0  0
   59.7905   -3.2334   -1.3403 C   0  0  0  0  0  0  0  0  0  0  0  0
   58.5308   -2.5724   -1.1635 C   0  0  0  0  0  0  0  0  0  0  0  0
   58.7135   -1.3142   -0.6457 N   0  0  0  0  0  0  0  0  0  0  0  0
   57.3165   -3.1153   -1.5543 C   0  0  0  0  0  0  0  0  0  0  0  0
   57.3049   -4.4704   -2.1747 C   0  0  0  0  0  0  0  0  0  0  0  0
   57.4830   -4.6113   -3.5537 C   0  0  0  0  0  0  0  0  0  0  0  0
   57.6903   -3.3926   -4.4130 C   0  0  0  0  0  0  0  0  0  0  0  0
   57.4655   -5.8814   -4.1184 C   0  0  0  0  0  0  0  0  0  0  0  0
   57.2753   -7.0115   -3.3301 C   0  0  0  0  0  0  0  0  0  0  0  0
   57.2362   -8.3806   -3.9535 C   0  0  0  0  0  0  0  0  0  0  0  0
   57.0999   -6.8592   -1.9584 C   0  0  0  0  0  0  0  0  0  0  0  0
   57.1126   -5.5991   -1.3724 C   0  0  0  0  0  0  0  0  0  0  0  0
   56.9203   -5.4421    0.1125 C   0  0  0  0  0  0  0  0  0  0  0  0
   56.1103   -2.4497   -1.3972 C   0  0  0  0  0  0  0  0  0  0  0  0
   54.8537   -2.9758   -1.8365 C   0  0  0  0  0  0  0  0  0  0  0  0
   53.9013   -2.1016   -1.4309 C   0  0  0  0  0  0  0  0  0  0  0  0
   55.9316   -1.2484   -0.7506 N   0  0  0  0  0  0  0  0  0  0  0  0
   54.5774   -1.0483   -0.7405 C   0  0  0  0  0  0  0  0  0  0  0  0
   53.9135   -0.0290   -0.0560 C   0  0  0  0  0  0  0  0  0  0  0  0
   54.5885    0.9842    0.6266 C   0  0  0  0  0  0  0  0  0  0  0  0
   53.9243    2.0286    1.3415 C   0  0  0  0  0  0  0  0  0  0  0  0
   54.8850    2.8891    1.7563 C   0  0  0  0  0  0  0  0  0  0  0  0
   56.1345    2.3669    1.2924 C   0  0  0  0  0  0  0  0  0  0  0  0
   55.9435    1.1784    0.6257 N   0  0  0  0  0  0  0  0  0  0  0  0
   57.3434    3.0302    1.4380 C   0  0  0  0  0  0  0  0  0  0  0  0
   57.3466    4.3709    2.0889 C   0  0  0  0  0  0  0  0  0  0  0  0
   57.1015    5.5153    1.3235 C   0  0  0  0  0  0  0  0  0  0  0  0
   56.8378    5.3901   -0.1535 C   0  0  0  0  0  0  0  0  0  0  0  0
   57.1030    6.7610    1.9386 C   0  0  0  0  0  0  0  0  0  0  0  0
   57.3433    6.8843    3.3040 C   0  0  0  0  0  0  0  0  0  0  0  0
   57.3523    8.2442    3.9486 C   0  0  0  0  0  0  0  0  0  0  0  0
   57.5883    5.7400    4.0545 C   0  0  0  0  0  0  0  0  0  0  0  0
   57.5928    4.4830    3.4598 C   0  0  0  0  0  0  0  0  0  0  0  0
   57.8587    3.2484    4.2793 C   0  0  0  0  0  0  0  0  0  0  0  0
   58.5476    2.5032    0.9971 C   0  0  0  0  0  0  0  0  0  0  0  0
   59.8063    3.1758    1.1320 C   0  0  0  0  0  0  0  0  0  0  0  0
   60.7566    2.3198    0.6882 C   0  0  0  0  0  0  0  0  0  0  0  0
   60.0776    1.1267    0.2808 C   0  0  0  0  0  0  0  0  0  0  0  0
   58.7216    1.2574    0.4479 N   0  0  0  0  0  0  0  0  0  0  0  0
   61.8084   -0.0063   -0.1737 H   0  0  0  0  0  0  0  0  0  0  0  0
   61.8198   -2.4840   -0.9563 H   0  0  0  0  0  0  0  0  0  0  0  0
   59.9062   -4.2364   -1.7185 H   0  0  0  0  0  0  0  0  0  0  0  0
   58.5940   -2.8624   -4.1064 H   0  0  0  0  0  0  0  0  0  0  0  0
   56.8486   -2.7058   -4.3064 H   0  0  0  0  0  0  0  0  0  0  0  0
   57.7866   -3.6681   -5.4627 H   0  0  0  0  0  0  0  0  0  0  0  0
   57.6033   -5.9907   -5.1892 H   0  0  0  0  0  0  0  0  0  0  0  0
   57.6464   -9.1281   -3.2739 H   0  0  0  0  0  0  0  0  0  0  0  0
   56.2033   -8.6572   -4.1775 H   0  0  0  0  0  0  0  0  0  0  0  0
   57.8029   -8.4011   -4.8846 H   0  0  0  0  0  0  0  0  0  0  0  0
   56.9518   -7.7355   -1.3358 H   0  0  0  0  0  0  0  0  0  0  0  0
   56.0161   -4.8657    0.3175 H   0  0  0  0  0  0  0  0  0  0  0  0
   56.8322   -6.4133    0.5985 H   0  0  0  0  0  0  0  0  0  0  0  0
   57.7639   -4.9056    0.5505 H   0  0  0  0  0  0  0  0  0  0  0  0
   54.7327   -3.8988   -2.3802 H   0  0  0  0  0  0  0  0  0  0  0  0
   52.8334   -2.1571   -1.5682 H   0  0  0  0  0  0  0  0  0  0  0  0
   52.8578    2.0865    1.4895 H   0  0  0  0  0  0  0  0  0  0  0  0
   54.7741    3.8013    2.3200 H   0  0  0  0  0  0  0  0  0  0  0  0
   57.6542    4.8546   -0.6414 H   0  0  0  0  0  0  0  0  0  0  0  0
   56.7367    6.3718   -0.6153 H   0  0  0  0  0  0  0  0  0  0  0  0
   55.9188    4.8268   -0.3270 H   0  0  0  0  0  0  0  0  0  0  0  0
   56.9126    7.6496    1.3455 H   0  0  0  0  0  0  0  0  0  0  0  0
   56.5177    8.8465    3.5872 H   0  0  0  0  0  0  0  0  0  0  0  0
   57.2838    8.1629    5.0333 H   0  0  0  0  0  0  0  0  0  0  0  0
   58.2780    8.7687    3.7012 H   0  0  0  0  0  0  0  0  0  0  0  0
   57.7773    5.8259    5.1195 H   0  0  0  0  0  0  0  0  0  0  0  0
   58.7670    2.7525    3.9315 H   0  0  0  0  0  0  0  0  0  0  0  0
   57.0336    2.5408    4.1795 H   0  0  0  0  0  0  0  0  0  0  0  0
   57.9804    3.4990    5.3327 H   0  0  0  0  0  0  0  0  0  0  0  0
   59.9272    4.1730    1.5240 H   0  0  0  0  0  0  0  0  0  0  0  0
   61.8246    2.4612    0.6392 H   0  0  0  0  0  0  0  0  0  0  0  0
   40.3970    0.0223   -0.0141 C   0  0  0  0  0  0  0  0  0  0  0  0
   41.6123    0.0111   -0.0157 C   0  0  0  0  0  0  0  0  0  0  0  0
   51.2867   -0.0334   -0.0342 C   0  0  0  0  0  0  0  0  0  0  0  0
   52.5018   -0.0276   -0.0475 C   0  0  0  0  0  0  0  0  0  0  0  0
   46.4490   -0.0389   -0.0178 Ni  0  0  0  0  0  0  0  0  0  0  0  0
   43.0231   -0.0040   -0.0161 C   0  0  0  0  0  0  0  0  0  0  0  0
   43.6965    0.3557    1.1522 C   0  0  0  0  0  0  0  0  0  0  0  0
   43.0245    0.7221    2.3590 C   0  0  0  0  0  0  0  0  0  0  0  0
   43.9839    0.9156    3.2955 C   0  0  0  0  0  0  0  0  0  0  0  0
   45.2397    0.6729    2.6538 C   0  0  0  0  0  0  0  0  0  0  0  0
   45.0533    0.3419    1.3312 N   0  0  0  0  0  0  0  0  0  0  0  0
   46.4572    0.7456    3.3118 C   0  0  0  0  0  0  0  0  0  0  0  0
   46.4569    1.0412    4.7727 C   0  0  0  0  0  0  0  0  0  0  0  0
   46.5434    2.3606    5.2246 C   0  0  0  0  0  0  0  0  0  0  0  0
   46.6346    3.4899    4.2334 C   0  0  0  0  0  0  0  0  0  0  0  0
   46.5423    2.6156    6.5915 C   0  0  0  0  0  0  0  0  0  0  0  0
   46.4550    1.5771    7.5122 C   0  0  0  0  0  0  0  0  0  0  0  0
   46.4751    1.8588    8.9903 C   0  0  0  0  0  0  0  0  0  0  0  0
   46.3673    0.2673    7.0504 C   0  0  0  0  0  0  0  0  0  0  0  0
   46.3663   -0.0111    5.6891 C   0  0  0  0  0  0  0  0  0  0  0  0
   46.2656   -1.4301    5.1966 C   0  0  0  0  0  0  0  0  0  0  0  0
   47.6734    0.5502    2.6770 C   0  0  0  0  0  0  0  0  0  0  0  0
   48.9347    0.6569    3.3446 C   0  0  0  0  0  0  0  0  0  0  0  0
   49.8904    0.4571    2.4056 C   0  0  0  0  0  0  0  0  0  0  0  0
   47.8531    0.2719    1.3413 N   0  0  0  0  0  0  0  0  0  0  0  0
   49.2101    0.2203    1.1712 C   0  0  0  0  0  0  0  0  0  0  0  0
   49.8751   -0.0383   -0.0280 C   0  0  0  0  0  0  0  0  0  0  0  0
   49.2030   -0.3073   -1.2211 C   0  0  0  0  0  0  0  0  0  0  0  0
   49.8760   -0.5605   -2.4562 C   0  0  0  0  0  0  0  0  0  0  0  0
   48.9150   -0.7796   -3.3853 C   0  0  0  0  0  0  0  0  0  0  0  0
   47.6576   -0.6630   -2.7120 C   0  0  0  0  0  0  0  0  0  0  0  0
   47.8451   -0.3644   -1.3817 N   0  0  0  0  0  0  0  0  0  0  0  0
   46.4376   -0.8584   -3.3391 C   0  0  0  0  0  0  0  0  0  0  0  0
   46.4290   -1.1775   -4.7951 C   0  0  0  0  0  0  0  0  0  0  0  0
   46.3376   -0.1403   -5.7285 C   0  0  0  0  0  0  0  0  0  0  0  0
   46.2497    1.2876   -5.2598 C   0  0  0  0  0  0  0  0  0  0  0  0
   46.3266   -0.4419   -7.0848 C   0  0  0  0  0  0  0  0  0  0  0  0
   46.4035   -1.7598   -7.5249 C   0  0  0  0  0  0  0  0  0  0  0  0
   46.4078   -2.0668   -8.9981 C   0  0  0  0  0  0  0  0  0  0  0  0
   46.4945   -2.7829   -6.5874 C   0  0  0  0  0  0  0  0  0  0  0  0
   46.5076   -2.5046   -5.2252 C   0  0  0  0  0  0  0  0  0  0  0  0
   46.6030   -3.6170   -4.2153 C   0  0  0  0  0  0  0  0  0  0  0  0
   45.2227   -0.7565   -2.6802 C   0  0  0  0  0  0  0  0  0  0  0  0
   43.9615   -0.9802   -3.3183 C   0  0  0  0  0  0  0  0  0  0  0  0
   43.0070   -0.7498   -2.3852 C   0  0  0  0  0  0  0  0  0  0  0  0
   43.6876   -0.3841   -1.1830 C   0  0  0  0  0  0  0  0  0  0  0  0
   45.0443   -0.4034   -1.3623 N   0  0  0  0  0  0  0  0  0  0  0  0
   41.9548    0.8065    2.4629 H   0  0  0  0  0  0  0  0  0  0  0  0
   43.8685    1.1963    4.3298 H   0  0  0  0  0  0  0  0  0  0  0  0
   47.5337    3.3864    3.6230 H   0  0  0  0  0  0  0  0  0  0  0  0
   46.6669    4.4529    4.7421 H   0  0  0  0  0  0  0  0  0  0  0  0
   45.7732    3.4764    3.5630 H   0  0  0  0  0  0  0  0  0  0  0  0
   46.6086    3.6403    6.9423 H   0  0  0  0  0  0  0  0  0  0  0  0
   47.4866    1.7246    9.3806 H   0  0  0  0  0  0  0  0  0  0  0  0
   45.8144    1.1744    9.5235 H   0  0  0  0  0  0  0  0  0  0  0  0
   46.1634    2.8828    9.1967 H   0  0  0  0  0  0  0  0  0  0  0  0
   46.2969   -0.5488    7.7620 H   0  0  0  0  0  0  0  0  0  0  0  0
   45.3683   -1.5563    4.5878 H   0  0  0  0  0  0  0  0  0  0  0  0
   47.1277   -1.6785    4.5748 H   0  0  0  0  0  0  0  0  0  0  0  0
   46.2224   -2.1297    6.0308 H   0  0  0  0  0  0  0  0  0  0  0  0
   49.0559    0.8629    4.3958 H   0  0  0  0  0  0  0  0  0  0  0  0
   50.9621    0.4615    2.5227 H   0  0  0  0  0  0  0  0  0  0  0  0
   50.9469   -0.5648   -2.5802 H   0  0  0  0  0  0  0  0  0  0  0  0
   49.0301   -1.0029   -4.4336 H   0  0  0  0  0  0  0  0  0  0  0  0
   45.3556    1.4315   -4.6502 H   0  0  0  0  0  0  0  0  0  0  0  0
   46.2091    1.9732   -6.1057 H   0  0  0  0  0  0  0  0  0  0  0  0
   47.1160    1.5396   -4.6454 H   0  0  0  0  0  0  0  0  0  0  0  0
   46.2549    0.3623   -7.8097 H   0  0  0  0  0  0  0  0  0  0  0  0
   46.0913   -3.0932   -9.1838 H   0  0  0  0  0  0  0  0  0  0  0  0
   47.4155   -1.9418   -9.4012 H   0  0  0  0  0  0  0  0  0  0  0  0
   45.7432   -1.3897   -9.5359 H   0  0  0  0  0  0  0  0  0  0  0  0
   46.5539   -3.8136   -6.9212 H   0  0  0  0  0  0  0  0  0  0  0  0
   46.6302   -4.5886   -4.7077 H   0  0  0  0  0  0  0  0  0  0  0  0
   45.7462   -3.5901   -3.5395 H   0  0  0  0  0  0  0  0  0  0  0  0
   47.5065   -3.5048   -3.6128 H   0  0  0  0  0  0  0  0  0  0  0  0
   43.8393   -1.2736   -4.3483 H   0  0  0  0  0  0  0  0  0  0  0  0
   41.9355   -0.8104   -2.4880 H   0  0  0  0  0  0  0  0  0  0  0  0
  2  3  4  0  0  0  0
  3  4  4  0  0  0  0
  4  5  2  0  0  0  0
  5  6  4  0  0  0  0
  1  7  1  0  0  0  0
  3  7  4  0  0  0  0
  6  7  4  0  0  0  0
  6  8  4  0  0  0  0
  8  9  1  0  0  0  0
  9 10  4  0  0  0  0
 10 11  1  0  0  0  0
 10 12  4  0  0  0  0
 12 13  4  0  0  0  0
 13 14  1  0  0  0  0
 13 15  4  0  0  0  0
  9 16  4  0  0  0  0
 15 16  4  0  0  0  0
 16 17  1  0  0  0  0
  8 18  4  0  0  0  0
 18 19  4  0  0  0  0
 19 20  2  0  0  0  0
  1 21  1  0  0  0  0
 18 21  4  0  0  0  0
 20 22  4  0  0  0  0
 21 22  4  0  0  0  0
 22 23  4  0  0  0  0
 23 24  4  0  0  0  0
 24 25  4  0  0  0  0
 25 26  2  0  0  0  0
 26 27  4  0  0  0  0
  1 28  1  0  0  0  0
 24 28  4  0  0  0  0
 27 28  4  0  0  0  0
 27 29  4  0  0  0  0
 29 30  1  0  0  0  0
 30 31  4  0  0  0  0
 31 32  1  0  0  0  0
 31 33  4  0  0  0  0
 33 34  4  0  0  0  0
 34 35  1  0  0  0  0
 34 36  4  0  0  0  0
 30 37  4  0  0  0  0
 36 37  4  0  0  0  0
 37 38  1  0  0  0  0
 29 39  4  0  0  0  0
 39 40  4  0  0  0  0
 40 41  2  0  0  0  0
  2 42  4  0  0  0  0
 41 42  4  0  0  0  0
  1 43  1  0  0  0  0
 39 43  4  0  0  0  0
 42 43  4  0  0  0  0
  2 44  1  0  0  0  0
  4 45  1  0  0  0  0
  5 46  1  0  0  0  0
 11 47  1  0  0  0  0
 11 48  1  0  0  0  0
 11 49  1  0  0  0  0
 12 50  1  0  0  0  0
 14 51  1  0  0  0  0
 14 52  1  0  0  0  0
 14 53  1  0  0  0  0
 15 54  1  0  0  0  0
 17 55  1  0  0  0  0
 17 56  1  0  0  0  0
 17 57  1  0  0  0  0
 19 58  1  0  0  0  0
 20 59  1  0  0  0  0
 25 60  1  0  0  0  0
 26 61  1  0  0  0  0
 32 62  1  0  0  0  0
 32 63  1  0  0  0  0
 32 64  1  0  0  0  0
 33 65  1  0  0  0  0
 35 66  1  0  0  0  0
 35 67  1  0  0  0  0
 35 68  1  0  0  0  0
 36 69  1  0  0  0  0
 38 70  1  0  0  0  0
 38 71  1  0  0  0  0
 38 72  1  0  0  0  0
 40 73  1  0  0  0  0
 41 74  1  0  0  0  0
 76 77  4  0  0  0  0
 77 78  4  0  0  0  0
 78 79  2  0  0  0  0
 79 80  4  0  0  0  0
 75 81  1  0  0  0  0
 77 81  4  0  0  0  0
 80 81  4  0  0  0  0
 80 82  4  0  0  0  0
 82 83  1  0  0  0  0
 83 84  4  0  0  0  0
 84 85  1  0  0  0  0
 84 86  4  0  0  0  0
 86 87  4  0  0  0  0
 87 88  1  0  0  0  0
 87 89  4  0  0  0  0
 83 90  4  0  0  0  0
 89 90  4  0  0  0  0
 90 91  1  0  0  0  0
 82 92  4  0  0  0  0
 92 93  4  0  0  0  0
 93 94  2  0  0  0  0
 75 95  1  0  0  0  0
 92 95  4  0  0  0  0
 94 96  4  0  0  0  0
 95 96  4  0  0  0  0
 96 97  4  0  0  0  0
 97 98  4  0  0  0  0
 98 99  4  0  0  0  0
 99100  2  0  0  0  0
100101  4  0  0  0  0
 75102  1  0  0  0  0
 98102  4  0  0  0  0
101102  4  0  0  0  0
101103  4  0  0  0  0
103104  1  0  0  0  0
104105  4  0  0  0  0
105106  1  0  0  0  0
105107  4  0  0  0  0
107108  4  0  0  0  0
108109  1  0  0  0  0
108110  4  0  0  0  0
104111  4  0  0  0  0
110111  4  0  0  0  0
111112  1  0  0  0  0
103113  4  0  0  0  0
113114  4  0  0  0  0
114115  2  0  0  0  0
 76116  4  0  0  0  0
115116  4  0  0  0  0
 75117  1  0  0  0  0
113117  4  0  0  0  0
116117  4  0  0  0  0
 76118  1  0  0  0  0
 78119  1  0  0  0  0
 79120  1  0  0  0  0
 85121  1  0  0  0  0
 85122  1  0  0  0  0
 85123  1  0  0  0  0
 86124  1  0  0  0  0
 88125  1  0  0  0  0
 88126  1  0  0  0  0
 88127  1  0  0  0  0
 89128  1  0  0  0  0
 91129  1  0  0  0  0
 91130  1  0  0  0  0
 91131  1  0  0  0  0
 93132  1  0  0  0  0
 94133  1  0  0  0  0
 99134  1  0  0  0  0
100135  1  0  0  0  0
106136  1  0  0  0  0
106137  1  0  0  0  0
106138  1  0  0  0  0
107139  1  0  0  0  0
109140  1  0  0  0  0
109141  1  0  0  0  0
109142  1  0  0  0  0
110143  1  0  0  0  0
112144  1  0  0  0  0
112145  1  0  0  0  0
112146  1  0  0  0  0
114147  1  0  0  0  0
115148  1  0  0  0  0
 23149  4  0  0  0  0
149150  3  0  0  0  0
 97152  1  0  0  0  0
151152  3  0  0  0  0
150154  4  0  0  0  0
154155  4  0  0  0  0
155156  4  0  0  0  0
156157  2  0  0  0  0
157158  4  0  0  0  0
153159  1  0  0  0  0
155159  4  0  0  0  0
158159  4  0  0  0  0
158160  4  0  0  0  0
160161  1  0  0  0  0
161162  4  0  0  0  0
162163  1  0  0  0  0
162164  4  0  0  0  0
164165  4  0  0  0  0
165166  1  0  0  0  0
165167  4  0  0  0  0
161168  4  0  0  0  0
167168  4  0  0  0  0
168169  1  0  0  0  0
160170  4  0  0  0  0
170171  4  0  0  0  0
171172  2  0  0  0  0
153173  1  0  0  0  0
170173  4  0  0  0  0
172174  4  0  0  0  0
173174  4  0  0  0  0
151175  1  0  0  0  0
174175  4  0  0  0  0
175176  4  0  0  0  0
176177  4  0  0  0  0
177178  2  0  0  0  0
178179  4  0  0  0  0
153180  1  0  0  0  0
176180  4  0  0  0  0
179180  4  0  0  0  0
179181  4  0  0  0  0
181182  1  0  0  0  0
182183  4  0  0  0  0
183184  1  0  0  0  0
183185  4  0  0  0  0
185186  4  0  0  0  0
186187  1  0  0  0  0
186188  4  0  0  0  0
182189  4  0  0  0  0
188189  4  0  0  0  0
189190  1  0  0  0  0
181191  4  0  0  0  0
191192  4  0  0  0  0
192193  2  0  0  0  0
154194  4  0  0  0  0
193194  4  0  0  0  0
153195  1  0  0  0  0
191195  4  0  0  0  0
194195  4  0  0  0  0
156196  1  0  0  0  0
157197  1  0  0  0  0
163198  1  0  0  0  0
163199  1  0  0  0  0
163200  1  0  0  0  0
164201  1  0  0  0  0
166202  1  0  0  0  0
166203  1  0  0  0  0
166204  1  0  0  0  0
167205  1  0  0  0  0
169206  1  0  0  0  0
169207  1  0  0  0  0
169208  1  0  0  0  0
171209  1  0  0  0  0
172210  1  0  0  0  0
177211  1  0  0  0  0
178212  1  0  0  0  0
184213  1  0  0  0  0
184214  1  0  0  0  0
184215  1  0  0  0  0
185216  1  0  0  0  0
187217  1  0  0  0  0
187218  1  0  0  0  0
187219  1  0  0  0  0
188220  1  0  0  0  0
190221  1  0  0  0  0
190222  1  0  0  0  0
190223  1  0  0  0  0
192224  1  0  0  0  0
193225  1  0  0  0  0
M  END
