 xtb: 6.5.1 (b24c23e)
          07302200003D

181210  0     0  0            999 V2000
   33.8005    0.0348    0.0392 Fe  0  0  0  0  0  0  0  0  0  0  0  0
   30.4142    0.0447    0.1628 C   0  0  0  0  0  0  0  0  0  0  0  0
   31.0645    1.2605    0.2151 C   0  0  0  0  0  0  0  0  0  0  0  0
   30.3888    2.5208    0.2878 C   0  0  0  0  0  0  0  0  0  0  0  0
   31.3475    3.4676    0.4188 C   0  0  0  0  0  0  0  0  0  0  0  0
   32.6073    2.7815    0.4416 C   0  0  0  0  0  0  0  0  0  0  0  0
   32.4222    1.4363    0.2732 N   0  0  0  0  0  0  0  0  0  0  0  0
   33.8303    3.4061    0.6644 C   0  0  0  0  0  0  0  0  0  0  0  0
   33.8433    4.8622    0.9356 C   0  0  0  0  0  0  0  0  0  0  0  0
   33.1880    5.3800    2.0551 C   0  0  0  0  0  0  0  0  0  0  0  0
   33.2026    6.7389    2.3133 C   0  0  0  0  0  0  0  0  0  0  0  0
   33.8704    7.6097    1.4471 C   0  0  0  0  0  0  0  0  0  0  0  0
   33.8836    9.0093    1.7076 C   0  0  0  0  0  0  0  0  0  0  0  0
   33.8931   10.1404    1.9189 N   0  0  0  0  0  0  0  0  0  0  0  0
   34.5252    7.0963    0.3236 C   0  0  0  0  0  0  0  0  0  0  0  0
   34.5132    5.7354    0.0757 C   0  0  0  0  0  0  0  0  0  0  0  0
   35.0385    2.7232    0.6551 C   0  0  0  0  0  0  0  0  0  0  0  0
   36.3030    3.3278    0.9531 C   0  0  0  0  0  0  0  0  0  0  0  0
   37.2459    2.3729    0.7668 C   0  0  0  0  0  0  0  0  0  0  0  0
   35.2085    1.3990    0.3292 N   0  0  0  0  0  0  0  0  0  0  0  0
   36.5547    1.1892    0.3613 C   0  0  0  0  0  0  0  0  0  0  0  0
   37.2094    0.0131   -0.0271 C   0  0  0  0  0  0  0  0  0  0  0  0
   36.5253   -1.1477   -0.4106 C   0  0  0  0  0  0  0  0  0  0  0  0
   37.1850   -2.3302   -0.8683 C   0  0  0  0  0  0  0  0  0  0  0  0
   36.2213   -3.2637   -1.0564 C   0  0  0  0  0  0  0  0  0  0  0  0
   34.9769   -2.6507   -0.6973 C   0  0  0  0  0  0  0  0  0  0  0  0
   35.1775   -1.3372   -0.3444 N   0  0  0  0  0  0  0  0  0  0  0  0
   33.7626   -3.3216   -0.6603 C   0  0  0  0  0  0  0  0  0  0  0  0
   33.7430   -4.7707   -0.9657 C   0  0  0  0  0  0  0  0  0  0  0  0
   33.0070   -5.2557   -2.0493 C   0  0  0  0  0  0  0  0  0  0  0  0
   32.9883   -6.6083   -2.3387 C   0  0  0  0  0  0  0  0  0  0  0  0
   33.7034   -7.5058   -1.5402 C   0  0  0  0  0  0  0  0  0  0  0  0
   33.6823   -8.8990   -1.8323 C   0  0  0  0  0  0  0  0  0  0  0  0
   33.6624  -10.0253   -2.0675 N   0  0  0  0  0  0  0  0  0  0  0  0
   34.4385   -7.0256   -0.4523 C   0  0  0  0  0  0  0  0  0  0  0  0
   34.4586   -5.6709   -0.1729 C   0  0  0  0  0  0  0  0  0  0  0  0
   32.5622   -2.6945   -0.3406 C   0  0  0  0  0  0  0  0  0  0  0  0
   31.3043   -3.3757   -0.2318 C   0  0  0  0  0  0  0  0  0  0  0  0
   30.3658   -2.4289    0.0041 C   0  0  0  0  0  0  0  0  0  0  0  0
   31.0522   -1.1730    0.0470 C   0  0  0  0  0  0  0  0  0  0  0  0
   32.3994   -1.3529   -0.1289 N   0  0  0  0  0  0  0  0  0  0  0  0
   29.3310    0.0471    0.2083 H   0  0  0  0  0  0  0  0  0  0  0  0
   29.3186    2.6446    0.2416 H   0  0  0  0  0  0  0  0  0  0  0  0
   31.2258    4.5361    0.4918 H   0  0  0  0  0  0  0  0  0  0  0  0
   32.6786    4.7063    2.7347 H   0  0  0  0  0  0  0  0  0  0  0  0
   32.6980    7.1332    3.1876 H   0  0  0  0  0  0  0  0  0  0  0  0
   35.0411    7.7689   -0.3515 H   0  0  0  0  0  0  0  0  0  0  0  0
   35.0132    5.3413   -0.8018 H   0  0  0  0  0  0  0  0  0  0  0  0
   36.4406    4.3486    1.2704 H   0  0  0  0  0  0  0  0  0  0  0  0
   38.3146    2.4492    0.8865 H   0  0  0  0  0  0  0  0  0  0  0  0
   38.2482   -2.4187   -1.0232 H   0  0  0  0  0  0  0  0  0  0  0  0
   36.3330   -4.2759   -1.4094 H   0  0  0  0  0  0  0  0  0  0  0  0
   32.4599   -4.5612   -2.6768 H   0  0  0  0  0  0  0  0  0  0  0  0
   32.4205   -6.9768   -3.1850 H   0  0  0  0  0  0  0  0  0  0  0  0
   34.9910   -7.7190    0.1709 H   0  0  0  0  0  0  0  0  0  0  0  0
   35.0200   -5.3030    0.6784 H   0  0  0  0  0  0  0  0  0  0  0  0
   31.1702   -4.4416   -0.3204 H   0  0  0  0  0  0  0  0  0  0  0  0
   29.3025   -2.5498    0.1373 H   0  0  0  0  0  0  0  0  0  0  0  0
   60.6510    0.0070    0.0738 Fe  0  0  0  0  0  0  0  0  0  0  0  0
   64.0409    0.0029    0.1967 C   0  0  0  0  0  0  0  0  0  0  0  0
   63.3903   -1.2045    0.3429 C   0  0  0  0  0  0  0  0  0  0  0  0
   64.0696   -2.4525    0.5192 C   0  0  0  0  0  0  0  0  0  0  0  0
   63.1124   -3.3948    0.6850 C   0  0  0  0  0  0  0  0  0  0  0  0
   61.8490   -2.7175    0.6243 C   0  0  0  0  0  0  0  0  0  0  0  0
   62.0321   -1.3831    0.3809 N   0  0  0  0  0  0  0  0  0  0  0  0
   60.6234   -3.3443    0.8190 C   0  0  0  0  0  0  0  0  0  0  0  0
   60.6119   -4.7884    1.1513 C   0  0  0  0  0  0  0  0  0  0  0  0
   61.2046   -5.2465    2.3301 C   0  0  0  0  0  0  0  0  0  0  0  0
   61.1900   -6.5926    2.6484 C   0  0  0  0  0  0  0  0  0  0  0  0
   60.5848   -7.5103    1.7846 C   0  0  0  0  0  0  0  0  0  0  0  0
   60.5695   -8.8966    2.1082 C   0  0  0  0  0  0  0  0  0  0  0  0
   60.5560  -10.0167    2.3711 N   0  0  0  0  0  0  0  0  0  0  0  0
   59.9939   -7.0568    0.6015 C   0  0  0  0  0  0  0  0  0  0  0  0
   60.0060   -5.7083    0.2928 C   0  0  0  0  0  0  0  0  0  0  0  0
   59.4106   -2.6757    0.7303 C   0  0  0  0  0  0  0  0  0  0  0  0
   58.1415   -3.2891    0.9881 C   0  0  0  0  0  0  0  0  0  0  0  0
   57.1981   -2.3434    0.7646 C   0  0  0  0  0  0  0  0  0  0  0  0
   59.2419   -1.3576    0.3800 N   0  0  0  0  0  0  0  0  0  0  0  0
   57.8930   -1.1555    0.3774 C   0  0  0  0  0  0  0  0  0  0  0  0
   57.2392    0.0271    0.0160 C   0  0  0  0  0  0  0  0  0  0  0  0
   57.9184    1.1938   -0.3505 C   0  0  0  0  0  0  0  0  0  0  0  0
   57.2508    2.3776   -0.7935 C   0  0  0  0  0  0  0  0  0  0  0  0
   58.2142    3.2972   -1.0397 C   0  0  0  0  0  0  0  0  0  0  0  0
   59.4673    2.6767   -0.7261 C   0  0  0  0  0  0  0  0  0  0  0  0
   59.2703    1.3735   -0.3360 N   0  0  0  0  0  0  0  0  0  0  0  0
   60.6894    3.3318   -0.7811 C   0  0  0  0  0  0  0  0  0  0  0  0
   60.7122    4.7621   -1.1671 C   0  0  0  0  0  0  0  0  0  0  0  0
   61.3886    5.1695   -2.3192 C   0  0  0  0  0  0  0  0  0  0  0  0
   61.4103    6.5022   -2.6891 C   0  0  0  0  0  0  0  0  0  0  0  0
   60.7580    7.4578   -1.9043 C   0  0  0  0  0  0  0  0  0  0  0  0
   60.7812    8.8308   -2.2797 C   0  0  0  0  0  0  0  0  0  0  0  0
   60.8032    9.9408   -2.5826 N   0  0  0  0  0  0  0  0  0  0  0  0
   60.0835    7.0554   -0.7476 C   0  0  0  0  0  0  0  0  0  0  0  0
   60.0606    5.7200   -0.3871 C   0  0  0  0  0  0  0  0  0  0  0  0
   61.8960    2.7083   -0.4822 C   0  0  0  0  0  0  0  0  0  0  0  0
   63.1609    3.3848   -0.4574 C   0  0  0  0  0  0  0  0  0  0  0  0
   64.0985    2.4511   -0.1723 C   0  0  0  0  0  0  0  0  0  0  0  0
   63.4053    1.2076   -0.0195 C   0  0  0  0  0  0  0  0  0  0  0  0
   62.0561    1.3822   -0.1851 N   0  0  0  0  0  0  0  0  0  0  0  0
   65.1240    0.0033    0.2450 H   0  0  0  0  0  0  0  0  0  0  0  0
   65.1413   -2.5718    0.5100 H   0  0  0  0  0  0  0  0  0  0  0  0
   63.2369   -4.4555    0.8312 H   0  0  0  0  0  0  0  0  0  0  0  0
   61.6648   -4.5359    3.0073 H   0  0  0  0  0  0  0  0  0  0  0  0
   61.6458   -6.9404    3.5681 H   0  0  0  0  0  0  0  0  0  0  0  0
   59.5272   -7.7661   -0.0720 H   0  0  0  0  0  0  0  0  0  0  0  0
   59.5554   -5.3608   -0.6299 H   0  0  0  0  0  0  0  0  0  0  0  0
   58.0014   -4.3087    1.3080 H   0  0  0  0  0  0  0  0  0  0  0  0
   56.1268   -2.4268    0.8514 H   0  0  0  0  0  0  0  0  0  0  0  0
   56.1829    2.4742   -0.9054 H   0  0  0  0  0  0  0  0  0  0  0  0
   58.0967    4.3043   -1.4048 H   0  0  0  0  0  0  0  0  0  0  0  0
   61.8868    4.4295   -2.9353 H   0  0  0  0  0  0  0  0  0  0  0  0
   61.9316    6.8101   -3.5879 H   0  0  0  0  0  0  0  0  0  0  0  0
   59.5801    7.7942   -0.1351 H   0  0  0  0  0  0  0  0  0  0  0  0
   59.5469    5.4131    0.5169 H   0  0  0  0  0  0  0  0  0  0  0  0
   63.2992    4.4401   -0.6280 H   0  0  0  0  0  0  0  0  0  0  0  0
   65.1652    2.5730   -0.0718 H   0  0  0  0  0  0  0  0  0  0  0  0
   39.8337   -0.0051   -0.0461 C   0  0  0  0  0  0  0  0  0  0  0  0
   38.6093    0.0009   -0.0391 C   0  0  0  0  0  0  0  0  0  0  0  0
   41.1791   -0.0079   -0.0511 C   0  0  0  0  0  0  0  0  0  0  0  0
   42.4037   -0.0064   -0.0525 C   0  0  0  0  0  0  0  0  0  0  0  0
   53.2644    0.0455   -0.0027 C   0  0  0  0  0  0  0  0  0  0  0  0
   52.0411    0.0426   -0.0106 C   0  0  0  0  0  0  0  0  0  0  0  0
   54.6126    0.0447    0.0039 C   0  0  0  0  0  0  0  0  0  0  0  0
   55.8355    0.0388    0.0093 C   0  0  0  0  0  0  0  0  0  0  0  0
   47.2211    0.0198   -0.0382 Fe  0  0  0  0  0  0  0  0  0  0  0  0
   43.8030    0.0008   -0.0523 C   0  0  0  0  0  0  0  0  0  0  0  0
   44.4813   -1.1862   -0.3592 C   0  0  0  0  0  0  0  0  0  0  0  0
   43.8132   -2.4163   -0.6461 C   0  0  0  0  0  0  0  0  0  0  0  0
   44.7738   -3.3059   -0.9961 C   0  0  0  0  0  0  0  0  0  0  0  0
   46.0237   -2.6099   -0.9278 C   0  0  0  0  0  0  0  0  0  0  0  0
   45.8301   -1.3193   -0.4995 N   0  0  0  0  0  0  0  0  0  0  0  0
   47.2427   -3.1687   -1.2899 C   0  0  0  0  0  0  0  0  0  0  0  0
   47.2501   -4.5441   -1.8406 C   0  0  0  0  0  0  0  0  0  0  0  0
   46.5843   -4.8287   -3.0349 C   0  0  0  0  0  0  0  0  0  0  0  0
   46.5933   -6.1095   -3.5575 C   0  0  0  0  0  0  0  0  0  0  0  0
   47.2651   -7.1354   -2.8863 C   0  0  0  0  0  0  0  0  0  0  0  0
   47.2737   -8.4554   -3.4200 C   0  0  0  0  0  0  0  0  0  0  0  0
   47.2811   -9.5218   -3.8520 N   0  0  0  0  0  0  0  0  0  0  0  0
   47.9284   -6.8561   -1.6878 C   0  0  0  0  0  0  0  0  0  0  0  0
   47.9224   -5.5713   -1.1749 C   0  0  0  0  0  0  0  0  0  0  0  0
   48.4548   -2.5015   -1.1606 C   0  0  0  0  0  0  0  0  0  0  0  0
   49.7152   -3.0498   -1.5628 C   0  0  0  0  0  0  0  0  0  0  0  0
   50.6641   -2.1549   -1.1956 C   0  0  0  0  0  0  0  0  0  0  0  0
   48.6301   -1.2632   -0.5938 N   0  0  0  0  0  0  0  0  0  0  0  0
   49.9784   -1.0605   -0.5842 C   0  0  0  0  0  0  0  0  0  0  0  0
   50.6386    0.0372   -0.0194 C   0  0  0  0  0  0  0  0  0  0  0  0
   49.9610    1.1287    0.5364 C   0  0  0  0  0  0  0  0  0  0  0  0
   50.6282    2.2290    1.1577 C   0  0  0  0  0  0  0  0  0  0  0  0
   49.6662    3.1163    1.5095 C   0  0  0  0  0  0  0  0  0  0  0  0
   48.4167    2.5573    1.0884 C   0  0  0  0  0  0  0  0  0  0  0  0
   48.6110    1.3201    0.5257 N   0  0  0  0  0  0  0  0  0  0  0  0
   47.1968    3.2140    1.1994 C   0  0  0  0  0  0  0  0  0  0  0  0
   47.1843    4.5898    1.7482 C   0  0  0  0  0  0  0  0  0  0  0  0
   46.4923    4.8713    2.9284 C   0  0  0  0  0  0  0  0  0  0  0  0
   46.4830    6.1522    3.4504 C   0  0  0  0  0  0  0  0  0  0  0  0
   47.1631    7.1817    2.7931 C   0  0  0  0  0  0  0  0  0  0  0  0
   47.1530    8.5016    3.3268 C   0  0  0  0  0  0  0  0  0  0  0  0
   47.1460    9.5682    3.7584 N   0  0  0  0  0  0  0  0  0  0  0  0
   47.8529    6.9057    1.6088 C   0  0  0  0  0  0  0  0  0  0  0  0
   47.8645    5.6208    1.0963 C   0  0  0  0  0  0  0  0  0  0  0  0
   45.9878    2.6416    0.8253 C   0  0  0  0  0  0  0  0  0  0  0  0
   44.7296    3.3235    0.8805 C   0  0  0  0  0  0  0  0  0  0  0  0
   43.7815    2.4204    0.5310 C   0  0  0  0  0  0  0  0  0  0  0  0
   44.4658    1.1968    0.2549 C   0  0  0  0  0  0  0  0  0  0  0  0
   45.8119    1.3467    0.4019 N   0  0  0  0  0  0  0  0  0  0  0  0
   42.7472   -2.5648   -0.5846 H   0  0  0  0  0  0  0  0  0  0  0  0
   44.6567   -4.3415   -1.2703 H   0  0  0  0  0  0  0  0  0  0  0  0
   46.0710   -4.0329   -3.5628 H   0  0  0  0  0  0  0  0  0  0  0  0
   46.0808   -6.3219   -4.4885 H   0  0  0  0  0  0  0  0  0  0  0  0
   48.4465   -7.6500   -1.1628 H   0  0  0  0  0  0  0  0  0  0  0  0
   48.4291   -5.3599   -0.2401 H   0  0  0  0  0  0  0  0  0  0  0  0
   49.8475   -3.9943   -2.0646 H   0  0  0  0  0  0  0  0  0  0  0  0
   51.7328   -2.2155   -1.3234 H   0  0  0  0  0  0  0  0  0  0  0  0
   51.6941    2.2984    1.3022 H   0  0  0  0  0  0  0  0  0  0  0  0
   49.7833    4.0618    2.0133 H   0  0  0  0  0  0  0  0  0  0  0  0
   45.9733    4.0727    3.4462 H   0  0  0  0  0  0  0  0  0  0  0  0
   45.9499    6.3620    4.3703 H   0  0  0  0  0  0  0  0  0  0  0  0
   48.3778    7.7022    1.0946 H   0  0  0  0  0  0  0  0  0  0  0  0
   48.3914    5.4123    0.1721 H   0  0  0  0  0  0  0  0  0  0  0  0
   44.5982    4.3595    1.1468 H   0  0  0  0  0  0  0  0  0  0  0  0
   42.7143    2.5564    0.4620 H   0  0  0  0  0  0  0  0  0  0  0  0
  2  3  4  0  0  0  0
  3  4  4  0  0  0  0
  4  5  2  0  0  0  0
  5  6  4  0  0  0  0
  1  7  1  0  0  0  0
  3  7  4  0  0  0  0
  6  7  4  0  0  0  0
  6  8  4  0  0  0  0
  8  9  1  0  0  0  0
  9 10  4  0  0  0  0
 10 11  4  0  0  0  0
 11 12  4  0  0  0  0
 12 13  1  0  0  0  0
 13 14  3  0  0  0  0
 12 15  4  0  0  0  0
  9 16  4  0  0  0  0
 15 16  4  0  0  0  0
  8 17  4  0  0  0  0
 17 18  4  0  0  0  0
 18 19  2  0  0  0  0
  1 20  1  0  0  0  0
 17 20  4  0  0  0  0
 19 21  4  0  0  0  0
 20 21  4  0  0  0  0
 21 22  4  0  0  0  0
 22 23  4  0  0  0  0
 23 24  4  0  0  0  0
 24 25  2  0  0  0  0
 25 26  4  0  0  0  0
  1 27  1  0  0  0  0
 23 27  4  0  0  0  0
 26 27  4  0  0  0  0
 26 28  4  0  0  0  0
 28 29  1  0  0  0  0
 29 30  4  0  0  0  0
 30 31  4  0  0  0  0
 31 32  4  0  0  0  0
 32 33  1  0  0  0  0
 33 34  3  0  0  0  0
 32 35  4  0  0  0  0
 29 36  4  0  0  0  0
 35 36  4  0  0  0  0
 28 37  4  0  0  0  0
 37 38  4  0  0  0  0
 38 39  2  0  0  0  0
  2 40  4  0  0  0  0
 39 40  4  0  0  0  0
  1 41  1  0  0  0  0
 37 41  4  0  0  0  0
 40 41  4  0  0  0  0
  2 42  1  0  0  0  0
  4 43  1  0  0  0  0
  5 44  1  0  0  0  0
 10 45  1  0  0  0  0
 11 46  1  0  0  0  0
 15 47  1  0  0  0  0
 16 48  1  0  0  0  0
 18 49  1  0  0  0  0
 19 50  1  0  0  0  0
 24 51  1  0  0  0  0
 25 52  1  0  0  0  0
 30 53  1  0  0  0  0
 31 54  1  0  0  0  0
 35 55  1  0  0  0  0
 36 56  1  0  0  0  0
 38 57  1  0  0  0  0
 39 58  1  0  0  0  0
 60 61  4  0  0  0  0
 61 62  4  0  0  0  0
 62 63  2  0  0  0  0
 63 64  4  0  0  0  0
 59 65  1  0  0  0  0
 61 65  4  0  0  0  0
 64 65  4  0  0  0  0
 64 66  4  0  0  0  0
 66 67  1  0  0  0  0
 67 68  4  0  0  0  0
 68 69  4  0  0  0  0
 69 70  4  0  0  0  0
 70 71  1  0  0  0  0
 71 72  3  0  0  0  0
 70 73  4  0  0  0  0
 67 74  4  0  0  0  0
 73 74  4  0  0  0  0
 66 75  4  0  0  0  0
 75 76  4  0  0  0  0
 76 77  2  0  0  0  0
 59 78  1  0  0  0  0
 75 78  4  0  0  0  0
 77 79  4  0  0  0  0
 78 79  4  0  0  0  0
 79 80  4  0  0  0  0
 80 81  4  0  0  0  0
 81 82  4  0  0  0  0
 82 83  2  0  0  0  0
 83 84  4  0  0  0  0
 59 85  1  0  0  0  0
 81 85  4  0  0  0  0
 84 85  4  0  0  0  0
 84 86  4  0  0  0  0
 86 87  1  0  0  0  0
 87 88  4  0  0  0  0
 88 89  4  0  0  0  0
 89 90  4  0  0  0  0
 90 91  1  0  0  0  0
 91 92  3  0  0  0  0
 90 93  4  0  0  0  0
 87 94  4  0  0  0  0
 93 94  4  0  0  0  0
 86 95  4  0  0  0  0
 95 96  4  0  0  0  0
 96 97  2  0  0  0  0
 60 98  4  0  0  0  0
 97 98  4  0  0  0  0
 59 99  1  0  0  0  0
 95 99  4  0  0  0  0
 98 99  4  0  0  0  0
 60100  1  0  0  0  0
 62101  1  0  0  0  0
 63102  1  0  0  0  0
 68103  1  0  0  0  0
 69104  1  0  0  0  0
 73105  1  0  0  0  0
 74106  1  0  0  0  0
 76107  1  0  0  0  0
 77108  1  0  0  0  0
 82109  1  0  0  0  0
 83110  1  0  0  0  0
 88111  1  0  0  0  0
 89112  1  0  0  0  0
 93113  1  0  0  0  0
 94114  1  0  0  0  0
 96115  1  0  0  0  0
 97116  1  0  0  0  0
 22118  4  0  0  0  0
117118  3  0  0  0  0
117119  4  0  0  0  0
119120  3  0  0  0  0
121122  3  0  0  0  0
121123  4  0  0  0  0
 80124  4  0  0  0  0
123124  3  0  0  0  0
120126  4  0  0  0  0
126127  4  0  0  0  0
127128  4  0  0  0  0
128129  2  0  0  0  0
129130  4  0  0  0  0
125131  1  0  0  0  0
127131  4  0  0  0  0
130131  4  0  0  0  0
130132  4  0  0  0  0
132133  1  0  0  0  0
133134  4  0  0  0  0
134135  4  0  0  0  0
135136  4  0  0  0  0
136137  1  0  0  0  0
137138  3  0  0  0  0
136139  4  0  0  0  0
133140  4  0  0  0  0
139140  4  0  0  0  0
132141  4  0  0  0  0
141142  4  0  0  0  0
142143  2  0  0  0  0
125144  1  0  0  0  0
141144  4  0  0  0  0
143145  4  0  0  0  0
144145  4  0  0  0  0
122146  4  0  0  0  0
145146  4  0  0  0  0
146147  4  0  0  0  0
147148  4  0  0  0  0
148149  2  0  0  0  0
149150  4  0  0  0  0
125151  1  0  0  0  0
147151  4  0  0  0  0
150151  4  0  0  0  0
150152  4  0  0  0  0
152153  1  0  0  0  0
153154  4  0  0  0  0
154155  4  0  0  0  0
155156  4  0  0  0  0
156157  1  0  0  0  0
157158  3  0  0  0  0
156159  4  0  0  0  0
153160  4  0  0  0  0
159160  4  0  0  0  0
152161  4  0  0  0  0
161162  4  0  0  0  0
162163  2  0  0  0  0
126164  4  0  0  0  0
163164  4  0  0  0  0
125165  1  0  0  0  0
161165  4  0  0  0  0
164165  4  0  0  0  0
128166  1  0  0  0  0
129167  1  0  0  0  0
134168  1  0  0  0  0
135169  1  0  0  0  0
139170  1  0  0  0  0
140171  1  0  0  0  0
142172  1  0  0  0  0
143173  1  0  0  0  0
148174  1  0  0  0  0
149175  1  0  0  0  0
154176  1  0  0  0  0
155177  1  0  0  0  0
159178  1  0  0  0  0
160179  1  0  0  0  0
162180  1  0  0  0  0
163181  1  0  0  0  0
M  END
