476

C 80.827581 -0.017561 -0.014774
C 81.555537 1.358046 0.081202
C 80.947782 2.592572 0.062752
C 81.970141 3.561604 0.234991
C 83.167352 2.883927 0.360937
N 82.908078 1.544608 0.211575
C 84.588909 3.520540 0.652912
C 84.625683 4.935056 1.085454
C 84.913057 5.946831 0.170800
C 84.924601 7.254316 0.624517
N 84.670548 7.618816 1.903403
C 84.396344 6.610306 2.764418
C 84.360929 5.272533 2.411143
C 85.720119 2.772061 0.553899
C 87.024459 3.309192 0.884606
C 87.927324 2.349795 0.718764
N 85.916975 1.468525 0.182703
C 87.248649 1.153226 0.261864
C 87.916572 -0.001594 -0.000848
C 87.137107 -1.280112 -0.524973
C 87.671659 -2.313141 -1.269640
C 86.646193 -3.270628 -1.470185
C 85.511988 -2.790398 -0.850871
N 85.805759 -1.553839 -0.326640
C 84.106083 -3.519220 -0.773518
C 84.081572 -4.989864 -0.917818
C 84.478191 -5.804944 0.139971
C 84.452903 -7.176454 -0.045945
N 84.068583 -7.783177 -1.193903
C 83.690647 -6.961202 -2.200830
C 83.681633 -5.579771 -2.116000
C 82.979674 -2.791745 -0.558205
C 81.660461 -3.391478 -0.459240
C 80.774033 -2.420187 -0.261685
C 81.492800 -1.170749 -0.213881
N 82.812874 -1.446035 -0.388083
H 79.750872 -0.031630 0.105187
H 79.889531 2.774446 -0.045070
H 81.841283 4.632246 0.287064
H 83.608333 0.807013 0.202804
H 85.125286 5.703802 -0.864780
H 85.147066 8.070390 -0.055081
H 84.197435 6.914239 3.786895
H 84.136430 4.499843 3.138501
H 87.238060 4.307820 1.221653
H 88.980942 2.465247 0.896450
H 88.690202 -2.380112 -1.620821
H 86.728734 -4.206794 -2.001570
H 85.126049 -0.922588 0.089561
H 84.795459 -5.367071 1.080232
H 84.753123 -7.845033 0.754248
H 83.382757 -7.458211 -3.114864
H 83.369006 -4.962479 -2.951457
H 81.431683 -4.439606 -0.528740
H 79.711972 -2.539031 -0.145737
C 198.905706 0.018979 -0.005914
C 198.177750 -1.247824 -0.550633
C 198.785505 -2.336804 -1.132454
C 197.763146 -3.277111 -1.423165
C 196.565935 -2.732375 -1.000825
N 196.825208 -1.473379 -0.520184
C 195.144378 -3.432018 -1.032846
C 195.107604 -4.887557 -1.296196
C 194.820229 -5.368057 -2.572676
C 194.808686 -6.738149 -2.768179
N 195.062738 -7.647909 -1.798259
C 195.336942 -7.145744 -0.570956
C 195.372358 -5.794730 -0.272292
C 194.013168 -2.721309 -0.778056
C 192.708828 -3.350257 -0.730084
C 191.805962 -2.421445 -0.438099
N 193.816312 -1.392522 -0.511004
C 192.484638 -1.148494 -0.296225
C 191.816715 -0.001594 -0.000848
C 192.596179 1.374996 0.118800
C 192.061628 2.634368 -0.070037
C 193.087094 3.577376 0.190223
C 194.221299 2.866827 0.520814
N 193.927527 1.527488 0.420477
C 195.627203 3.479284 0.923381
C 195.651714 4.852703 1.468670
C 195.255096 5.092793 2.782301
C 195.280384 6.397147 3.245191
N 195.664704 7.462265 2.502598
C 196.042640 7.192749 1.231022
C 196.051653 5.925875 0.673727
C 196.753613 2.733981 0.781596
C 198.072826 3.221787 1.144252
C 198.959254 2.267877 0.875011
C 198.240487 1.135297 0.345257
N 196.920413 1.459797 0.316483
H 199.982414 -0.023458 0.107168
H 199.843755 -2.449098 -1.311601
H 197.892004 -4.252707 -1.867235
H 196.124954 -0.813678 -0.190158
H 194.608001 -4.677715 -3.381945
H 194.586220 -7.152338 -3.746074
H 195.535852 -7.884226 0.198771
H 195.596856 -5.440982 0.728189
H 192.495227 -4.392356 -0.887844
H 190.752345 -2.605458 -0.333024
H 191.043085 2.854745 -0.351547
H 193.004553 4.652958 0.146619
H 194.607237 0.775716 0.501341
H 194.937827 4.272902 3.417598
H 194.980163 6.624986 4.262735
H 196.350529 8.053198 0.646125
H 196.364281 5.759777 -0.351675
H 198.301604 4.185351 1.562519
H 200.021314 2.320419 1.032514
C 94.024370 -0.000724 0.007706
C 92.815430 -0.014179 -0.000741
C 91.393901 -0.005359 -0.012724
C 90.182232 0.002079 -0.001862
C 95.440974 -0.007399 0.008239
C 96.661670 0.002079 -0.001862
C 109.506380 -0.000724 0.007706
C 108.297441 -0.014179 -0.000741
C 106.875912 -0.005359 -0.012724
C 105.664243 0.002079 -0.001862
C 110.922985 -0.007399 0.008239
C 112.143681 0.002079 -0.001862
C 124.988391 -0.000724 0.007706
C 123.779452 -0.014179 -0.000741
C 122.357923 -0.005359 -0.012724
C 121.146254 0.002079 -0.001862
C 126.404996 -0.007399 0.008239
C 127.625692 0.002079 -0.001862
C 140.470402 -0.000724 0.007706
C 139.261463 -0.014179 -0.000741
C 137.839934 -0.005359 -0.012724
C 136.628265 0.002079 -0.001862
C 141.887007 -0.007399 0.008239
C 143.107703 0.002079 -0.001862
C 155.952413 -0.000724 0.007706
C 154.743474 -0.014179 -0.000741
C 153.321945 -0.005359 -0.012724
C 152.110276 0.002079 -0.001862
C 157.369018 -0.007399 0.008239
C 158.589714 0.002079 -0.001862
C 171.434424 -0.000724 0.007706
C 170.225485 -0.014179 -0.000741
C 168.803956 -0.005359 -0.012724
C 167.592287 0.002079 -0.001862
C 172.851029 -0.007399 0.008239
C 174.071725 0.002079 -0.001862
C 186.916435 -0.000724 0.007706
C 185.707496 -0.014179 -0.000741
C 184.285967 -0.005359 -0.012724
C 183.074298 0.002079 -0.001862
C 188.333040 -0.007399 0.008239
C 189.553736 0.002079 -0.001862
C 97.581663 0.000272 0.000529
C 98.377444 -1.245227 0.571641
C 97.877049 -2.240586 1.384160
C 98.915251 -3.186429 1.584905
C 100.018735 -2.735726 0.891327
N 99.703509 -1.518161 0.344015
C 101.407306 -3.481228 0.745341
C 101.399950 -4.957903 0.823442
C 101.817602 -5.608791 1.983588
C 101.776307 -6.992190 2.009518
N 101.351795 -7.760473 0.978918
C 100.952413 -7.095559 -0.131003
C 100.955738 -5.716743 -0.256901
C 102.542891 -2.771933 0.516113
C 103.829907 -3.408018 0.322215
C 104.738491 -2.460183 0.118230
N 102.751108 -1.425829 0.404434
C 104.076258 -1.172821 0.171095
C 104.739970 0.000272 0.000529
C 103.942851 1.366750 0.069541
C 104.435851 2.590121 0.473134
C 103.398014 3.542147 0.303561
C 102.301942 2.867838 -0.191252
N 102.620347 1.534799 -0.257898
C 100.916758 3.504819 -0.611348
C 100.928519 4.898373 -1.104637
C 100.532586 5.947616 -0.277430
C 100.575535 7.234098 -0.785890
N 100.981505 7.544147 -2.038995
C 101.360389 6.501008 -2.814353
C 101.354323 5.180143 -2.400697
C 99.780080 2.763252 -0.555906
C 98.493914 3.281806 -0.974011
C 97.584649 2.327509 -0.807819
C 98.245775 1.152560 -0.277092
N 99.570376 1.474243 -0.152982
H 96.873644 -2.292846 1.773978
H 98.857951 -4.099967 2.154358
H 100.362401 -0.893265 -0.113418
H 102.167370 -5.036232 2.836259
H 102.093854 -7.535159 2.892939
H 100.615140 -7.721845 -0.950808
H 100.624713 -5.231633 -1.168333
H 104.027095 -4.465268 0.329575
H 105.783497 -2.638451 -0.058135
H 105.435538 2.782157 0.830776
H 103.450769 4.601735 0.503075
H 101.966332 0.785711 -0.465086
H 100.197781 5.749132 0.734834
H 100.273448 8.077839 -0.174425
H 101.682456 6.761363 -3.816816
H 101.668526 4.379094 -3.060853
H 98.297673 4.265632 -1.361708
H 96.539563 2.428267 -1.037078
C 113.063674 0.000272 0.000529
C 113.859455 -1.245227 0.571641
C 113.359060 -2.240586 1.384160
C 114.397262 -3.186429 1.584905
C 115.500746 -2.735726 0.891327
N 115.185520 -1.518161 0.344015
C 116.889317 -3.481228 0.745341
C 116.881961 -4.957903 0.823442
C 117.299613 -5.608791 1.983588
C 117.258318 -6.992190 2.009518
N 116.833806 -7.760473 0.978918
C 116.434424 -7.095559 -0.131003
C 116.437749 -5.716743 -0.256901
C 118.024902 -2.771933 0.516113
C 119.311918 -3.408018 0.322215
C 120.220502 -2.460183 0.118230
N 118.233119 -1.425829 0.404434
C 119.558269 -1.172821 0.171095
C 120.221981 0.000272 0.000529
C 119.424862 1.366750 0.069541
C 119.917862 2.590121 0.473134
C 118.880025 3.542147 0.303561
C 117.783953 2.867838 -0.191252
N 118.102358 1.534799 -0.257898
C 116.398769 3.504819 -0.611348
C 116.410530 4.898373 -1.104637
C 116.014597 5.947616 -0.277430
C 116.057546 7.234098 -0.785890
N 116.463516 7.544147 -2.038995
C 116.842400 6.501008 -2.814353
C 116.836334 5.180143 -2.400697
C 115.262091 2.763252 -0.555906
C 113.975925 3.281806 -0.974011
C 113.066660 2.327509 -0.807819
C 113.727786 1.152560 -0.277092
N 115.052387 1.474243 -0.152982
H 112.355655 -2.292846 1.773978
H 114.339962 -4.099967 2.154358
H 115.844412 -0.893265 -0.113418
H 117.649381 -5.036232 2.836259
H 117.575865 -7.535159 2.892939
H 116.097151 -7.721845 -0.950808
H 116.106724 -5.231633 -1.168333
H 119.509106 -4.465268 0.329575
H 121.265508 -2.638451 -0.058135
H 120.917549 2.782157 0.830776
H 118.932780 4.601735 0.503075
H 117.448343 0.785711 -0.465086
H 115.679792 5.749132 0.734834
H 115.755459 8.077839 -0.174425
H 117.164467 6.761363 -3.816816
H 117.150537 4.379094 -3.060853
H 113.779684 4.265632 -1.361708
H 112.021574 2.428267 -1.037078
C 128.545685 0.000272 0.000529
C 129.341466 -1.245227 0.571641
C 128.841071 -2.240586 1.384160
C 129.879273 -3.186429 1.584905
C 130.982757 -2.735726 0.891327
N 130.667531 -1.518161 0.344015
C 132.371328 -3.481228 0.745341
C 132.363972 -4.957903 0.823442
C 132.781623 -5.608791 1.983588
C 132.740329 -6.992190 2.009518
N 132.315816 -7.760473 0.978918
C 131.916435 -7.095559 -0.131003
C 131.919760 -5.716743 -0.256901
C 133.506913 -2.771933 0.516113
C 134.793929 -3.408018 0.322215
C 135.702513 -2.460183 0.118230
N 133.715130 -1.425829 0.404434
C 135.040280 -1.172821 0.171095
C 135.703992 0.000272 0.000529
C 134.906873 1.366750 0.069541
C 135.399873 2.590121 0.473134
C 134.362036 3.542147 0.303561
C 133.265964 2.867838 -0.191252
N 133.584369 1.534799 -0.257898
C 131.880780 3.504819 -0.611348
C 131.892541 4.898373 -1.104637
C 131.496608 5.947616 -0.277430
C 131.539557 7.234098 -0.785890
N 131.945527 7.544147 -2.038995
C 132.324411 6.501008 -2.814353
C 132.318345 5.180143 -2.400697
C 130.744102 2.763252 -0.555906
C 129.457936 3.281806 -0.974011
C 128.548671 2.327509 -0.807819
C 129.209797 1.152560 -0.277092
N 130.534398 1.474243 -0.152982
H 127.837666 -2.292846 1.773978
H 129.821973 -4.099967 2.154358
H 131.326423 -0.893265 -0.113418
H 133.131392 -5.036232 2.836259
H 133.057876 -7.535159 2.892939
H 131.579162 -7.721845 -0.950808
H 131.588735 -5.231633 -1.168333
H 134.991117 -4.465268 0.329575
H 136.747519 -2.638451 -0.058135
H 136.399560 2.782157 0.830776
H 134.414791 4.601735 0.503075
H 132.930354 0.785711 -0.465086
H 131.161803 5.749132 0.734834
H 131.237470 8.077839 -0.174425
H 132.646478 6.761363 -3.816816
H 132.632548 4.379094 -3.060853
H 129.261695 4.265632 -1.361708
H 127.503585 2.428267 -1.037078
C 144.027696 0.000272 0.000529
C 144.823477 -1.245227 0.571641
C 144.323082 -2.240586 1.384160
C 145.361284 -3.186429 1.584905
C 146.464768 -2.735726 0.891327
N 146.149542 -1.518161 0.344015
C 147.853339 -3.481228 0.745341
C 147.845983 -4.957903 0.823442
C 148.263634 -5.608791 1.983588
C 148.222340 -6.992190 2.009518
N 147.797827 -7.760473 0.978918
C 147.398446 -7.095559 -0.131003
C 147.401771 -5.716743 -0.256901
C 148.988924 -2.771933 0.516113
C 150.275940 -3.408018 0.322215
C 151.184524 -2.460183 0.118230
N 149.197140 -1.425829 0.404434
C 150.522291 -1.172821 0.171095
C 151.186003 0.000272 0.000529
C 150.388884 1.366750 0.069541
C 150.881884 2.590121 0.473134
C 149.844047 3.542147 0.303561
C 148.747975 2.867838 -0.191252
N 149.066380 1.534799 -0.257898
C 147.362791 3.504819 -0.611348
C 147.374552 4.898373 -1.104637
C 146.978619 5.947616 -0.277430
C 147.021568 7.234098 -0.785890
N 147.427538 7.544147 -2.038995
C 147.806422 6.501008 -2.814353
C 147.800356 5.180143 -2.400697
C 146.226113 2.763252 -0.555906
C 144.939947 3.281806 -0.974011
C 144.030682 2.327509 -0.807819
C 144.691808 1.152560 -0.277092
N 146.016409 1.474243 -0.152982
H 143.319677 -2.292846 1.773978
H 145.303984 -4.099967 2.154358
H 146.808434 -0.893265 -0.113418
H 148.613403 -5.036232 2.836259
H 148.539887 -7.535159 2.892939
H 147.061173 -7.721845 -0.950808
H 147.070746 -5.231633 -1.168333
H 150.473128 -4.465268 0.329575
H 152.229530 -2.638451 -0.058135
H 151.881571 2.782157 0.830776
H 149.896802 4.601735 0.503075
H 148.412365 0.785711 -0.465086
H 146.643814 5.749132 0.734834
H 146.719481 8.077839 -0.174425
H 148.128489 6.761363 -3.816816
H 148.114559 4.379094 -3.060853
H 144.743706 4.265632 -1.361708
H 142.985596 2.428267 -1.037078
C 159.509707 0.000272 0.000529
C 160.305488 -1.245227 0.571641
C 159.805093 -2.240586 1.384160
C 160.843295 -3.186429 1.584905
C 161.946778 -2.735726 0.891327
N 161.631553 -1.518161 0.344015
C 163.335350 -3.481228 0.745341
C 163.327994 -4.957903 0.823442
C 163.745645 -5.608791 1.983588
C 163.704351 -6.992190 2.009518
N 163.279838 -7.760473 0.978918
C 162.880457 -7.095559 -0.131003
C 162.883782 -5.716743 -0.256901
C 164.470935 -2.771933 0.516113
C 165.757951 -3.408018 0.322215
C 166.666535 -2.460183 0.118230
N 164.679151 -1.425829 0.404434
C 166.004302 -1.172821 0.171095
C 166.668014 0.000272 0.000529
C 165.870895 1.366750 0.069541
C 166.363895 2.590121 0.473134
C 165.326058 3.542147 0.303561
C 164.229986 2.867838 -0.191252
N 164.548391 1.534799 -0.257898
C 162.844802 3.504819 -0.611348
C 162.856563 4.898373 -1.104637
C 162.460630 5.947616 -0.277430
C 162.503579 7.234098 -0.785890
N 162.909549 7.544147 -2.038995
C 163.288433 6.501008 -2.814353
C 163.282367 5.180143 -2.400697
C 161.708124 2.763252 -0.555906
C 160.421958 3.281806 -0.974011
C 159.512693 2.327509 -0.807819
C 160.173819 1.152560 -0.277092
N 161.498420 1.474243 -0.152982
H 158.801688 -2.292846 1.773978
H 160.785995 -4.099967 2.154358
H 162.290445 -0.893265 -0.113418
H 164.095414 -5.036232 2.836259
H 164.021898 -7.535159 2.892939
H 162.543184 -7.721845 -0.950808
H 162.552757 -5.231633 -1.168333
H 165.955139 -4.465268 0.329575
H 167.711541 -2.638451 -0.058135
H 167.363582 2.782157 0.830776
H 165.378813 4.601735 0.503075
H 163.894376 0.785711 -0.465086
H 162.125825 5.749132 0.734834
H 162.201492 8.077839 -0.174425
H 163.610500 6.761363 -3.816816
H 163.596570 4.379094 -3.060853
H 160.225717 4.265632 -1.361708
H 158.467607 2.428267 -1.037078
C 174.991718 0.000272 0.000529
C 175.787499 -1.245227 0.571641
C 175.287104 -2.240586 1.384160
C 176.325305 -3.186429 1.584905
C 177.428789 -2.735726 0.891327
N 177.113564 -1.518161 0.344015
C 178.817361 -3.481228 0.745341
C 178.810005 -4.957903 0.823442
C 179.227656 -5.608791 1.983588
C 179.186362 -6.992190 2.009518
N 178.761849 -7.760473 0.978918
C 178.362468 -7.095559 -0.131003
C 178.365793 -5.716743 -0.256901
C 179.952946 -2.771933 0.516113
C 181.239962 -3.408018 0.322215
C 182.148546 -2.460183 0.118230
N 180.161162 -1.425829 0.404434
C 181.486313 -1.172821 0.171095
C 182.150025 0.000272 0.000529
C 181.352906 1.366750 0.069541
C 181.845906 2.590121 0.473134
C 180.808069 3.542147 0.303561
C 179.711997 2.867838 -0.191252
N 180.030402 1.534799 -0.257898
C 178.326813 3.504819 -0.611348
C 178.338574 4.898373 -1.104637
C 177.942641 5.947616 -0.277430
C 177.985590 7.234098 -0.785890
N 178.391560 7.544147 -2.038995
C 178.770444 6.501008 -2.814353
C 178.764378 5.180143 -2.400697
C 177.190135 2.763252 -0.555906
C 175.903969 3.281806 -0.974011
C 174.994704 2.327509 -0.807819
C 175.655830 1.152560 -0.277092
N 176.980431 1.474243 -0.152982
H 174.283699 -2.292846 1.773978
H 176.268006 -4.099967 2.154358
H 177.772456 -0.893265 -0.113418
H 179.577425 -5.036232 2.836259
H 179.503909 -7.535159 2.892939
H 178.025195 -7.721845 -0.950808
H 178.034768 -5.231633 -1.168333
H 181.437149 -4.465268 0.329575
H 183.193552 -2.638451 -0.058135
H 182.845593 2.782157 0.830776
H 180.860824 4.601735 0.503075
H 179.376387 0.785711 -0.465086
H 177.607836 5.749132 0.734834
H 177.683503 8.077839 -0.174425
H 179.092511 6.761363 -3.816816
H 179.078581 4.379094 -3.060853
H 175.707728 4.265632 -1.361708
H 173.949618 2.428267 -1.037078
