 xtb: 6.5.1 (b24c23e)
          07302209203D

254293  0     0  0            999 V2000
   38.9771   -0.0174   -0.0389 Cu  0  0  0  0  0  0  0  0  0  0  0  0
   35.5720   -0.0717   -0.1106 C   0  0  0  0  0  0  0  0  0  0  0  0
   36.2142   -1.2986   -0.0368 C   0  0  0  0  0  0  0  0  0  0  0  0
   35.5458   -2.5649    0.0533 C   0  0  0  0  0  0  0  0  0  0  0  0
   36.5099   -3.5154    0.1344 C   0  0  0  0  0  0  0  0  0  0  0  0
   37.7771   -2.8385    0.0826 C   0  0  0  0  0  0  0  0  0  0  0  0
   37.5661   -1.4930   -0.0139 N   0  0  0  0  0  0  0  0  0  0  0  0
   39.0250   -3.4634    0.1481 C   0  0  0  0  0  0  0  0  0  0  0  0
   39.0475   -4.9449    0.2418 C   0  0  0  0  0  0  0  0  0  0  0  0
   38.5240   -5.7303   -0.7853 C   0  0  0  0  0  0  0  0  0  0  0  0
   38.5477   -7.1141   -0.7013 C   0  0  0  0  0  0  0  0  0  0  0  0
   39.0931   -7.7290    0.4232 C   0  0  0  0  0  0  0  0  0  0  0  0
   39.1339   -9.0808    0.5481 O   0  0  0  0  0  0  0  0  0  0  0  0
   39.6157   -6.9558    1.4583 C   0  0  0  0  0  0  0  0  0  0  0  0
   39.5942   -5.5758    1.3619 C   0  0  0  0  0  0  0  0  0  0  0  0
   40.2536   -2.8006    0.1328 C   0  0  0  0  0  0  0  0  0  0  0  0
   41.5350   -3.4476    0.1415 C   0  0  0  0  0  0  0  0  0  0  0  0
   42.4756   -2.4700    0.0999 C   0  0  0  0  0  0  0  0  0  0  0  0
   40.4346   -1.4435    0.0747 N   0  0  0  0  0  0  0  0  0  0  0  0
   41.7769   -1.2208    0.0592 C   0  0  0  0  0  0  0  0  0  0  0  0
   42.4058    0.0356    0.0005 C   0  0  0  0  0  0  0  0  0  0  0  0
   41.7397    1.2725   -0.0599 C   0  0  0  0  0  0  0  0  0  0  0  0
   42.4008    2.5399   -0.1437 C   0  0  0  0  0  0  0  0  0  0  0  0
   41.4315    3.4885   -0.1951 C   0  0  0  0  0  0  0  0  0  0  0  0
   40.1700    2.8060   -0.1370 C   0  0  0  0  0  0  0  0  0  0  0  0
   40.3913    1.4558   -0.0630 N   0  0  0  0  0  0  0  0  0  0  0  0
   38.9221    3.4306   -0.1819 C   0  0  0  0  0  0  0  0  0  0  0  0
   38.9003    4.9143   -0.2272 C   0  0  0  0  0  0  0  0  0  0  0  0
   39.4275    5.6623    0.8283 C   0  0  0  0  0  0  0  0  0  0  0  0
   39.4067    7.0454    0.7968 C   0  0  0  0  0  0  0  0  0  0  0  0
   38.8608    7.7033   -0.3037 C   0  0  0  0  0  0  0  0  0  0  0  0
   38.8599    9.0615   -0.3040 O   0  0  0  0  0  0  0  0  0  0  0  0
   38.3349    6.9709   -1.3653 C   0  0  0  0  0  0  0  0  0  0  0  0
   38.3534    5.5852   -1.3211 C   0  0  0  0  0  0  0  0  0  0  0  0
   37.6934    2.7654   -0.1851 C   0  0  0  0  0  0  0  0  0  0  0  0
   36.4064    3.4061   -0.1948 C   0  0  0  0  0  0  0  0  0  0  0  0
   35.4713    2.4239   -0.1838 C   0  0  0  0  0  0  0  0  0  0  0  0
   36.1772    1.1753   -0.1551 C   0  0  0  0  0  0  0  0  0  0  0  0
   37.5227    1.4112   -0.1537 N   0  0  0  0  0  0  0  0  0  0  0  0
   34.4870   -0.0883   -0.1183 H   0  0  0  0  0  0  0  0  0  0  0  0
   34.4750   -2.6950    0.0619 H   0  0  0  0  0  0  0  0  0  0  0  0
   36.3808   -4.5812    0.2336 H   0  0  0  0  0  0  0  0  0  0  0  0
   38.1106   -5.2531   -1.6669 H   0  0  0  0  0  0  0  0  0  0  0  0
   38.1459   -7.7199   -1.5065 H   0  0  0  0  0  0  0  0  0  0  0  0
   38.7469   -9.5177   -0.2224 H   0  0  0  0  0  0  0  0  0  0  0  0
   40.0328   -7.4474    2.3286 H   0  0  0  0  0  0  0  0  0  0  0  0
   39.9907   -4.9740    2.1721 H   0  0  0  0  0  0  0  0  0  0  0  0
   41.6914   -4.5139    0.1615 H   0  0  0  0  0  0  0  0  0  0  0  0
   43.5486   -2.5760    0.0916 H   0  0  0  0  0  0  0  0  0  0  0  0
   43.4703    2.6759   -0.1661 H   0  0  0  0  0  0  0  0  0  0  0  0
   41.5557    4.5559   -0.2806 H   0  0  0  0  0  0  0  0  0  0  0  0
   39.8421    5.1502    1.6894 H   0  0  0  0  0  0  0  0  0  0  0  0
   39.8084    7.6276    1.6169 H   0  0  0  0  0  0  0  0  0  0  0  0
   38.4607    9.4134   -1.1109 H   0  0  0  0  0  0  0  0  0  0  0  0
   37.9149    7.4873   -2.2219 H   0  0  0  0  0  0  0  0  0  0  0  0
   37.9549    5.0163   -2.1539 H   0  0  0  0  0  0  0  0  0  0  0  0
   36.2454    4.4722   -0.1963 H   0  0  0  0  0  0  0  0  0  0  0  0
   34.3970    2.5224   -0.1854 H   0  0  0  0  0  0  0  0  0  0  0  0
   94.7958    0.0010   -0.0208 Cu  0  0  0  0  0  0  0  0  0  0  0  0
   98.1997    0.0480   -0.1395 C   0  0  0  0  0  0  0  0  0  0  0  0
   97.5550    1.2721   -0.2332 C   0  0  0  0  0  0  0  0  0  0  0  0
   98.2210    2.5389   -0.3331 C   0  0  0  0  0  0  0  0  0  0  0  0
   97.2554    3.4903   -0.3758 C   0  0  0  0  0  0  0  0  0  0  0  0
   95.9895    2.8119   -0.3137 C   0  0  0  0  0  0  0  0  0  0  0  0
   96.2029    1.4665   -0.2207 N   0  0  0  0  0  0  0  0  0  0  0  0
   94.7411    3.4391   -0.3195 C   0  0  0  0  0  0  0  0  0  0  0  0
   94.7166    4.9184   -0.4429 C   0  0  0  0  0  0  0  0  0  0  0  0
   95.2254    5.5436   -1.5814 C   0  0  0  0  0  0  0  0  0  0  0  0
   95.1998    6.9245   -1.7026 C   0  0  0  0  0  0  0  0  0  0  0  0
   94.6671    7.6987   -0.6746 C   0  0  0  0  0  0  0  0  0  0  0  0
   94.6247    9.0540   -0.7505 O   0  0  0  0  0  0  0  0  0  0  0  0
   94.1595    7.0868    0.4701 C   0  0  0  0  0  0  0  0  0  0  0  0
   94.1829    5.7077    0.5787 C   0  0  0  0  0  0  0  0  0  0  0  0
   93.5143    2.7801   -0.2205 C   0  0  0  0  0  0  0  0  0  0  0  0
   92.2313    3.4209   -0.2823 C   0  0  0  0  0  0  0  0  0  0  0  0
   91.2931    2.4463   -0.1735 C   0  0  0  0  0  0  0  0  0  0  0  0
   93.3365    1.4280   -0.0857 N   0  0  0  0  0  0  0  0  0  0  0  0
   91.9946    1.2041   -0.0516 C   0  0  0  0  0  0  0  0  0  0  0  0
   91.3680   -0.0495    0.0643 C   0  0  0  0  0  0  0  0  0  0  0  0
   92.0364   -1.2827    0.1620 C   0  0  0  0  0  0  0  0  0  0  0  0
   91.3778   -2.5504    0.2576 C   0  0  0  0  0  0  0  0  0  0  0  0
   92.3489   -3.4958    0.3288 C   0  0  0  0  0  0  0  0  0  0  0  0
   93.6092   -2.8102    0.2827 C   0  0  0  0  0  0  0  0  0  0  0  0
   93.3853   -1.4628    0.1725 N   0  0  0  0  0  0  0  0  0  0  0  0
   94.8580   -3.4335    0.3144 C   0  0  0  0  0  0  0  0  0  0  0  0
   94.8837   -4.9093    0.4738 C   0  0  0  0  0  0  0  0  0  0  0  0
   94.3664   -5.5062    1.6261 C   0  0  0  0  0  0  0  0  0  0  0  0
   94.3923   -6.8803    1.7854 C   0  0  0  0  0  0  0  0  0  0  0  0
   94.9335   -7.6821    0.7822 C   0  0  0  0  0  0  0  0  0  0  0  0
   94.9401   -9.0272    0.9694 O   0  0  0  0  0  0  0  0  0  0  0  0
   95.4491   -7.1015   -0.3741 C   0  0  0  0  0  0  0  0  0  0  0  0
   95.4255   -5.7230   -0.5212 C   0  0  0  0  0  0  0  0  0  0  0  0
   96.0849   -2.7735    0.2089 C   0  0  0  0  0  0  0  0  0  0  0  0
   97.3733   -3.4077    0.2765 C   0  0  0  0  0  0  0  0  0  0  0  0
   98.3060   -2.4326    0.1401 C   0  0  0  0  0  0  0  0  0  0  0  0
   97.5972   -1.1932    0.0003 C   0  0  0  0  0  0  0  0  0  0  0  0
   96.2524   -1.4279    0.0491 N   0  0  0  0  0  0  0  0  0  0  0  0
   99.2846    0.0644   -0.1625 H   0  0  0  0  0  0  0  0  0  0  0  0
   99.2914    2.6698   -0.3572 H   0  0  0  0  0  0  0  0  0  0  0  0
   97.3829    4.5595   -0.4308 H   0  0  0  0  0  0  0  0  0  0  0  0
   95.6287    4.9415   -2.3880 H   0  0  0  0  0  0  0  0  0  0  0  0
   95.5903    7.4047   -2.5935 H   0  0  0  0  0  0  0  0  0  0  0  0
   95.0005    9.3723   -1.5823 H   0  0  0  0  0  0  0  0  0  0  0  0
   93.7522    7.7015    1.2634 H   0  0  0  0  0  0  0  0  0  0  0  0
   93.7984    5.2323    1.4742 H   0  0  0  0  0  0  0  0  0  0  0  0
   92.0720    4.4795   -0.4084 H   0  0  0  0  0  0  0  0  0  0  0  0
   90.2198    2.5493   -0.1806 H   0  0  0  0  0  0  0  0  0  0  0  0
   90.3085   -2.6895    0.2630 H   0  0  0  0  0  0  0  0  0  0  0  0
   92.2266   -4.5650    0.3916 H   0  0  0  0  0  0  0  0  0  0  0  0
   93.9557   -4.8815    2.4114 H   0  0  0  0  0  0  0  0  0  0  0  0
   93.9985   -7.3451    2.6808 H   0  0  0  0  0  0  0  0  0  0  0  0
   95.3354   -9.4858    0.2159 H   0  0  0  0  0  0  0  0  0  0  0  0
   95.8652   -7.7298   -1.1543 H   0  0  0  0  0  0  0  0  0  0  0  0
   95.8160   -5.2732   -1.4273 H   0  0  0  0  0  0  0  0  0  0  0  0
   97.5370   -4.4632    0.4230 H   0  0  0  0  0  0  0  0  0  0  0  0
   99.3804   -2.5291    0.1413 H   0  0  0  0  0  0  0  0  0  0  0  0
   43.8113    0.0544   -0.0071 C   0  0  0  0  0  0  0  0  0  0  0  0
   45.0356    0.0586   -0.0173 C   0  0  0  0  0  0  0  0  0  0  0  0
   46.3785    0.0656   -0.0287 C   0  0  0  0  0  0  0  0  0  0  0  0
   47.6091    0.0642   -0.0348 C   0  0  0  0  0  0  0  0  0  0  0  0
   48.9471    0.0618   -0.0470 C   0  0  0  0  0  0  0  0  0  0  0  0
   50.1778    0.0582   -0.0564 C   0  0  0  0  0  0  0  0  0  0  0  0
   51.5204    0.0529   -0.0651 C   0  0  0  0  0  0  0  0  0  0  0  0
   52.7451    0.0480   -0.0720 C   0  0  0  0  0  0  0  0  0  0  0  0
   62.4210   -0.0291   -0.0262 C   0  0  0  0  0  0  0  0  0  0  0  0
   63.6459   -0.0313   -0.0221 C   0  0  0  0  0  0  0  0  0  0  0  0
   64.9877   -0.0330   -0.0192 C   0  0  0  0  0  0  0  0  0  0  0  0
   66.2186   -0.0310   -0.0182 C   0  0  0  0  0  0  0  0  0  0  0  0
   67.5556   -0.0280   -0.0227 C   0  0  0  0  0  0  0  0  0  0  0  0
   68.7864   -0.0240   -0.0277 C   0  0  0  0  0  0  0  0  0  0  0  0
   70.1282   -0.0201   -0.0318 C   0  0  0  0  0  0  0  0  0  0  0  0
   71.3531   -0.0190   -0.0374 C   0  0  0  0  0  0  0  0  0  0  0  0
   81.0290   -0.0727    0.0057 C   0  0  0  0  0  0  0  0  0  0  0  0
   82.2536   -0.0806    0.0205 C   0  0  0  0  0  0  0  0  0  0  0  0
   83.5961   -0.0882    0.0368 C   0  0  0  0  0  0  0  0  0  0  0  0
   84.8268   -0.0934    0.0488 C   0  0  0  0  0  0  0  0  0  0  0  0
   86.1647   -0.0927    0.0618 C   0  0  0  0  0  0  0  0  0  0  0  0
   87.3953   -0.0908    0.0687 C   0  0  0  0  0  0  0  0  0  0  0  0
   88.7381   -0.0817    0.0756 C   0  0  0  0  0  0  0  0  0  0  0  0
   89.9626   -0.0709    0.0702 C   0  0  0  0  0  0  0  0  0  0  0  0
   57.5836    0.0140   -0.0577 Cu  0  0  0  0  0  0  0  0  0  0  0  0
   54.1498    0.0408   -0.0728 C   0  0  0  0  0  0  0  0  0  0  0  0
   54.8033    1.0883    0.6016 C   0  0  0  0  0  0  0  0  0  0  0  0
   54.1305    2.1245    1.3248 C   0  0  0  0  0  0  0  0  0  0  0  0
   55.0905    2.9426    1.8271 C   0  0  0  0  0  0  0  0  0  0  0  0
   56.3564    2.4146    1.4054 C   0  0  0  0  0  0  0  0  0  0  0  0
   56.1485    1.2806    0.6655 N   0  0  0  0  0  0  0  0  0  0  0  0
   57.5992    2.9683    1.7214 C   0  0  0  0  0  0  0  0  0  0  0  0
   57.6080    4.2394    2.4872 C   0  0  0  0  0  0  0  0  0  0  0  0
   58.2079    4.3052    3.7472 C   0  0  0  0  0  0  0  0  0  0  0  0
   58.2193    5.4873    4.4660 C   0  0  0  0  0  0  0  0  0  0  0  0
   57.6334    6.6305    3.9256 C   0  0  0  0  0  0  0  0  0  0  0  0
   57.6668    7.7751    4.6555 O   0  0  0  0  0  0  0  0  0  0  0  0
   57.0347    6.5810    2.6689 C   0  0  0  0  0  0  0  0  0  0  0  0
   57.0208    5.3898    1.9599 C   0  0  0  0  0  0  0  0  0  0  0  0
   58.8361    2.4200    1.3748 C   0  0  0  0  0  0  0  0  0  0  0  0
   60.1081    3.0296    1.6391 C   0  0  0  0  0  0  0  0  0  0  0  0
   61.0594    2.1938    1.1497 C   0  0  0  0  0  0  0  0  0  0  0  0
   59.0317    1.2334    0.7192 N   0  0  0  0  0  0  0  0  0  0  0  0
   60.3749    1.0751    0.5760 C   0  0  0  0  0  0  0  0  0  0  0  0
   61.0172   -0.0185   -0.0332 C   0  0  0  0  0  0  0  0  0  0  0  0
   60.3630   -1.0997   -0.6514 C   0  0  0  0  0  0  0  0  0  0  0  0
   61.0341   -2.2309   -1.2163 C   0  0  0  0  0  0  0  0  0  0  0  0
   60.0743   -3.0458   -1.7240 C   0  0  0  0  0  0  0  0  0  0  0  0
   58.8106   -2.4112   -1.4792 C   0  0  0  0  0  0  0  0  0  0  0  0
   59.0193   -1.2310   -0.8161 N   0  0  0  0  0  0  0  0  0  0  0  0
   57.5689   -2.9328   -1.8493 C   0  0  0  0  0  0  0  0  0  0  0  0
   57.5656   -4.1969   -2.6264 C   0  0  0  0  0  0  0  0  0  0  0  0
   56.9441   -5.3399   -2.1224 C   0  0  0  0  0  0  0  0  0  0  0  0
   56.9458   -6.5237   -2.8439 C   0  0  0  0  0  0  0  0  0  0  0  0
   57.5671   -6.5733   -4.0896 C   0  0  0  0  0  0  0  0  0  0  0  0
   57.5893   -7.7106   -4.8312 O   0  0  0  0  0  0  0  0  0  0  0  0
   58.1882   -5.4377   -4.6064 C   0  0  0  0  0  0  0  0  0  0  0  0
   58.1883   -4.2631   -3.8754 C   0  0  0  0  0  0  0  0  0  0  0  0
   56.3321   -2.3584   -1.5464 C   0  0  0  0  0  0  0  0  0  0  0  0
   55.0621   -2.8618   -1.9853 C   0  0  0  0  0  0  0  0  0  0  0  0
   54.1104   -2.0333   -1.4843 C   0  0  0  0  0  0  0  0  0  0  0  0
   54.7928   -1.0133   -0.7472 C   0  0  0  0  0  0  0  0  0  0  0  0
   56.1352   -1.2264   -0.8004 N   0  0  0  0  0  0  0  0  0  0  0  0
   53.0609    2.2031    1.4368 H   0  0  0  0  0  0  0  0  0  0  0  0
   54.9568    3.8175    2.4424 H   0  0  0  0  0  0  0  0  0  0  0  0
   58.6538    3.4131    4.1726 H   0  0  0  0  0  0  0  0  0  0  0  0
   58.6776    5.5393    5.4459 H   0  0  0  0  0  0  0  0  0  0  0  0
   57.2319    8.5023    4.1907 H   0  0  0  0  0  0  0  0  0  0  0  0
   56.5839    7.4744    2.2503 H   0  0  0  0  0  0  0  0  0  0  0  0
   56.5655    5.3558    0.9763 H   0  0  0  0  0  0  0  0  0  0  0  0
   60.2518    3.9824    2.1222 H   0  0  0  0  0  0  0  0  0  0  0  0
   62.1302    2.3201    1.1632 H   0  0  0  0  0  0  0  0  0  0  0  0
   62.1021   -2.3789   -1.2118 H   0  0  0  0  0  0  0  0  0  0  0  0
   60.2065   -4.0003   -2.2071 H   0  0  0  0  0  0  0  0  0  0  0  0
   56.4715   -5.3065   -1.1471 H   0  0  0  0  0  0  0  0  0  0  0  0
   56.4679   -7.4113   -2.4434 H   0  0  0  0  0  0  0  0  0  0  0  0
   57.1286   -8.4326   -4.3831 H   0  0  0  0  0  0  0  0  0  0  0  0
   58.6641   -5.4896   -5.5779 H   0  0  0  0  0  0  0  0  0  0  0  0
   58.6614   -3.3766   -4.2828 H   0  0  0  0  0  0  0  0  0  0  0  0
   54.9201   -3.7288   -2.6100 H   0  0  0  0  0  0  0  0  0  0  0  0
   53.0408   -2.0936   -1.6072 H   0  0  0  0  0  0  0  0  0  0  0  0
   76.1907   -0.0331   -0.0375 Cu  0  0  0  0  0  0  0  0  0  0  0  0
   72.7570   -0.0206   -0.0413 C   0  0  0  0  0  0  0  0  0  0  0  0
   73.4085    1.0267    0.6354 C   0  0  0  0  0  0  0  0  0  0  0  0
   72.7339    2.0580    1.3636 C   0  0  0  0  0  0  0  0  0  0  0  0
   73.6920    2.8832    1.8577 C   0  0  0  0  0  0  0  0  0  0  0  0
   74.9582    2.3638    1.4264 C   0  0  0  0  0  0  0  0  0  0  0  0
   74.7527    1.2274    0.6898 N   0  0  0  0  0  0  0  0  0  0  0  0
   76.1994    2.9279    1.7300 C   0  0  0  0  0  0  0  0  0  0  0  0
   76.2017    4.2053    2.4851 C   0  0  0  0  0  0  0  0  0  0  0  0
   76.8071    4.2886    3.7414 C   0  0  0  0  0  0  0  0  0  0  0  0
   76.8079    5.4767    4.4503 C   0  0  0  0  0  0  0  0  0  0  0  0
   76.2054    6.6084    3.9037 C   0  0  0  0  0  0  0  0  0  0  0  0
   76.2287    7.7592    4.6240 O   0  0  0  0  0  0  0  0  0  0  0  0
   75.6004    6.5413    2.6509 C   0  0  0  0  0  0  0  0  0  0  0  0
   75.5973    5.3442    1.9518 C   0  0  0  0  0  0  0  0  0  0  0  0
   77.4374    2.3841    1.3801 C   0  0  0  0  0  0  0  0  0  0  0  0
   78.7077    3.0003    1.6363 C   0  0  0  0  0  0  0  0  0  0  0  0
   79.6611    2.1633    1.1530 C   0  0  0  0  0  0  0  0  0  0  0  0
   77.6359    1.1931    0.7331 N   0  0  0  0  0  0  0  0  0  0  0  0
   78.9796    1.0374    0.5896 C   0  0  0  0  0  0  0  0  0  0  0  0
   79.6244   -0.0606   -0.0088 C   0  0  0  0  0  0  0  0  0  0  0  0
   78.9721   -1.1446   -0.6239 C   0  0  0  0  0  0  0  0  0  0  0  0
   79.6446   -2.2764   -1.1860 C   0  0  0  0  0  0  0  0  0  0  0  0
   78.6864   -3.0904   -1.6984 C   0  0  0  0  0  0  0  0  0  0  0  0
   77.4222   -2.4555   -1.4584 C   0  0  0  0  0  0  0  0  0  0  0  0
   77.6287   -1.2755   -0.7940 N   0  0  0  0  0  0  0  0  0  0  0  0
   76.1819   -2.9760   -1.8348 C   0  0  0  0  0  0  0  0  0  0  0  0
   76.1783   -4.2357   -2.6190 C   0  0  0  0  0  0  0  0  0  0  0  0
   75.5499   -5.3793   -2.1250 C   0  0  0  0  0  0  0  0  0  0  0  0
   75.5429   -6.5563   -2.8574 C   0  0  0  0  0  0  0  0  0  0  0  0
   76.1624   -6.5982   -4.1043 C   0  0  0  0  0  0  0  0  0  0  0  0
   76.1746   -7.7281   -4.8574 O   0  0  0  0  0  0  0  0  0  0  0  0
   76.7916   -5.4623   -4.6106 C   0  0  0  0  0  0  0  0  0  0  0  0
   76.8004   -4.2946   -3.8686 C   0  0  0  0  0  0  0  0  0  0  0  0
   74.9442   -2.4036   -1.5327 C   0  0  0  0  0  0  0  0  0  0  0  0
   73.6753   -2.9066   -1.9755 C   0  0  0  0  0  0  0  0  0  0  0  0
   72.7219   -2.0832   -1.4693 C   0  0  0  0  0  0  0  0  0  0  0  0
   73.4023   -1.0670   -0.7254 C   0  0  0  0  0  0  0  0  0  0  0  0
   74.7451   -1.2761   -0.7806 N   0  0  0  0  0  0  0  0  0  0  0  0
   71.6647    2.1289    1.4836 H   0  0  0  0  0  0  0  0  0  0  0  0
   73.5569    3.7572    2.4740 H   0  0  0  0  0  0  0  0  0  0  0  0
   77.2651    3.4052    4.1721 H   0  0  0  0  0  0  0  0  0  0  0  0
   77.2698    5.5422    5.4276 H   0  0  0  0  0  0  0  0  0  0  0  0
   75.7829    8.4777    4.1555 H   0  0  0  0  0  0  0  0  0  0  0  0
   75.1359    7.4255    2.2276 H   0  0  0  0  0  0  0  0  0  0  0  0
   75.1366    5.2963    0.9714 H   0  0  0  0  0  0  0  0  0  0  0  0
   78.8488    3.9577    2.1112 H   0  0  0  0  0  0  0  0  0  0  0  0
   80.7314    2.2934    1.1639 H   0  0  0  0  0  0  0  0  0  0  0  0
   80.7125   -2.4251   -1.1774 H   0  0  0  0  0  0  0  0  0  0  0  0
   78.8196   -4.0446   -2.1818 H   0  0  0  0  0  0  0  0  0  0  0  0
   75.0776   -5.3516   -1.1493 H   0  0  0  0  0  0  0  0  0  0  0  0
   75.0587   -7.4442   -2.4651 H   0  0  0  0  0  0  0  0  0  0  0  0
   75.7092   -8.4512   -4.4158 H   0  0  0  0  0  0  0  0  0  0  0  0
   77.2657   -5.5081   -5.5832 H   0  0  0  0  0  0  0  0  0  0  0  0
   77.2787   -3.4074   -4.2682 H   0  0  0  0  0  0  0  0  0  0  0  0
   73.5347   -3.7695   -2.6060 H   0  0  0  0  0  0  0  0  0  0  0  0
   71.6524   -2.1449   -1.5924 H   0  0  0  0  0  0  0  0  0  0  0  0
  2  3  4  0  0  0  0
  3  4  1  0  0  0  0
  4  5  2  0  0  0  0
  5  6  4  0  0  0  0
  1  7  1  0  0  0  0
  3  7  4  0  0  0  0
  6  7  4  0  0  0  0
  6  8  4  0  0  0  0
  8  9  1  0  0  0  0
  9 10  4  0  0  0  0
 10 11  4  0  0  0  0
 11 12  4  0  0  0  0
 12 13  1  0  0  0  0
 12 14  4  0  0  0  0
  9 15  4  0  0  0  0
 14 15  4  0  0  0  0
  8 16  4  0  0  0  0
 16 17  4  0  0  0  0
 17 18  2  0  0  0  0
  1 19  1  0  0  0  0
 16 19  4  0  0  0  0
 18 20  4  0  0  0  0
 19 20  4  0  0  0  0
 20 21  4  0  0  0  0
 21 22  4  0  0  0  0
 22 23  4  0  0  0  0
 23 24  2  0  0  0  0
 24 25  4  0  0  0  0
  1 26  1  0  0  0  0
 22 26  4  0  0  0  0
 25 26  4  0  0  0  0
 25 27  4  0  0  0  0
 27 28  1  0  0  0  0
 28 29  4  0  0  0  0
 29 30  4  0  0  0  0
 30 31  4  0  0  0  0
 31 32  1  0  0  0  0
 31 33  4  0  0  0  0
 28 34  4  0  0  0  0
 33 34  4  0  0  0  0
 27 35  4  0  0  0  0
 35 36  4  0  0  0  0
 36 37  2  0  0  0  0
  2 38  4  0  0  0  0
 37 38  1  0  0  0  0
  1 39  1  0  0  0  0
 35 39  4  0  0  0  0
 38 39  4  0  0  0  0
  2 40  1  0  0  0  0
  4 41  1  0  0  0  0
  5 42  1  0  0  0  0
 10 43  1  0  0  0  0
 11 44  1  0  0  0  0
 13 45  1  0  0  0  0
 14 46  1  0  0  0  0
 15 47  1  0  0  0  0
 17 48  1  0  0  0  0
 18 49  1  0  0  0  0
 23 50  1  0  0  0  0
 24 51  1  0  0  0  0
 29 52  1  0  0  0  0
 30 53  1  0  0  0  0
 32 54  1  0  0  0  0
 33 55  1  0  0  0  0
 34 56  1  0  0  0  0
 36 57  1  0  0  0  0
 37 58  1  0  0  0  0
 60 61  4  0  0  0  0
 61 62  1  0  0  0  0
 62 63  2  0  0  0  0
 63 64  4  0  0  0  0
 59 65  1  0  0  0  0
 61 65  4  0  0  0  0
 64 65  4  0  0  0  0
 64 66  4  0  0  0  0
 66 67  1  0  0  0  0
 67 68  4  0  0  0  0
 68 69  4  0  0  0  0
 69 70  4  0  0  0  0
 70 71  1  0  0  0  0
 70 72  4  0  0  0  0
 67 73  4  0  0  0  0
 72 73  4  0  0  0  0
 66 74  4  0  0  0  0
 74 75  4  0  0  0  0
 75 76  2  0  0  0  0
 59 77  1  0  0  0  0
 74 77  4  0  0  0  0
 76 78  4  0  0  0  0
 77 78  4  0  0  0  0
 78 79  4  0  0  0  0
 79 80  4  0  0  0  0
 80 81  4  0  0  0  0
 81 82  2  0  0  0  0
 82 83  4  0  0  0  0
 59 84  1  0  0  0  0
 80 84  4  0  0  0  0
 83 84  4  0  0  0  0
 83 85  4  0  0  0  0
 85 86  1  0  0  0  0
 86 87  4  0  0  0  0
 87 88  4  0  0  0  0
 88 89  4  0  0  0  0
 89 90  1  0  0  0  0
 89 91  4  0  0  0  0
 86 92  4  0  0  0  0
 91 92  4  0  0  0  0
 85 93  4  0  0  0  0
 93 94  4  0  0  0  0
 94 95  2  0  0  0  0
 60 96  4  0  0  0  0
 95 96  1  0  0  0  0
 59 97  1  0  0  0  0
 93 97  4  0  0  0  0
 96 97  4  0  0  0  0
 60 98  1  0  0  0  0
 62 99  1  0  0  0  0
 63100  1  0  0  0  0
 68101  1  0  0  0  0
 69102  1  0  0  0  0
 71103  1  0  0  0  0
 72104  1  0  0  0  0
 73105  1  0  0  0  0
 75106  1  0  0  0  0
 76107  1  0  0  0  0
 81108  1  0  0  0  0
 82109  1  0  0  0  0
 87110  1  0  0  0  0
 88111  1  0  0  0  0
 90112  1  0  0  0  0
 91113  1  0  0  0  0
 92114  1  0  0  0  0
 94115  1  0  0  0  0
 95116  1  0  0  0  0
 21117  4  0  0  0  0
117118  3  0  0  0  0
118119  4  0  0  0  0
119120  3  0  0  0  0
120121  4  0  0  0  0
121122  3  0  0  0  0
122123  4  0  0  0  0
123124  3  0  0  0  0
125126  3  0  0  0  0
126127  4  0  0  0  0
127128  3  0  0  0  0
128129  4  0  0  0  0
129130  3  0  0  0  0
130131  4  0  0  0  0
131132  3  0  0  0  0
133134  3  0  0  0  0
134135  4  0  0  0  0
135136  3  0  0  0  0
136137  4  0  0  0  0
137138  3  0  0  0  0
138139  4  0  0  0  0
 79140  4  0  0  0  0
139140  3  0  0  0  0
124142  4  0  0  0  0
142143  4  0  0  0  0
143144  4  0  0  0  0
144145  2  0  0  0  0
145146  4  0  0  0  0
141147  1  0  0  0  0
143147  4  0  0  0  0
146147  4  0  0  0  0
146148  4  0  0  0  0
148149  1  0  0  0  0
149150  4  0  0  0  0
150151  4  0  0  0  0
151152  4  0  0  0  0
152153  1  0  0  0  0
152154  4  0  0  0  0
149155  4  0  0  0  0
154155  4  0  0  0  0
148156  4  0  0  0  0
156157  4  0  0  0  0
157158  2  0  0  0  0
141159  1  0  0  0  0
156159  4  0  0  0  0
158160  4  0  0  0  0
159160  4  0  0  0  0
125161  4  0  0  0  0
160161  4  0  0  0  0
161162  4  0  0  0  0
162163  4  0  0  0  0
163164  2  0  0  0  0
164165  4  0  0  0  0
141166  1  0  0  0  0
162166  4  0  0  0  0
165166  4  0  0  0  0
165167  4  0  0  0  0
167168  1  0  0  0  0
168169  4  0  0  0  0
169170  4  0  0  0  0
170171  4  0  0  0  0
171172  1  0  0  0  0
171173  4  0  0  0  0
168174  4  0  0  0  0
173174  4  0  0  0  0
167175  4  0  0  0  0
175176  4  0  0  0  0
176177  2  0  0  0  0
142178  4  0  0  0  0
177178  4  0  0  0  0
141179  1  0  0  0  0
175179  4  0  0  0  0
178179  4  0  0  0  0
144180  1  0  0  0  0
145181  1  0  0  0  0
150182  1  0  0  0  0
151183  1  0  0  0  0
153184  1  0  0  0  0
154185  1  0  0  0  0
155186  1  0  0  0  0
157187  1  0  0  0  0
158188  1  0  0  0  0
163189  1  0  0  0  0
164190  1  0  0  0  0
169191  1  0  0  0  0
170192  1  0  0  0  0
172193  1  0  0  0  0
173194  1  0  0  0  0
174195  1  0  0  0  0
176196  1  0  0  0  0
177197  1  0  0  0  0
132199  4  0  0  0  0
199200  4  0  0  0  0
200201  4  0  0  0  0
201202  2  0  0  0  0
202203  4  0  0  0  0
198204  1  0  0  0  0
200204  4  0  0  0  0
203204  4  0  0  0  0
203205  4  0  0  0  0
205206  1  0  0  0  0
206207  4  0  0  0  0
207208  4  0  0  0  0
208209  4  0  0  0  0
209210  1  0  0  0  0
209211  4  0  0  0  0
206212  4  0  0  0  0
211212  4  0  0  0  0
205213  4  0  0  0  0
213214  4  0  0  0  0
214215  2  0  0  0  0
198216  1  0  0  0  0
213216  4  0  0  0  0
215217  4  0  0  0  0
216217  4  0  0  0  0
133218  4  0  0  0  0
217218  4  0  0  0  0
218219  4  0  0  0  0
219220  4  0  0  0  0
220221  2  0  0  0  0
221222  4  0  0  0  0
198223  1  0  0  0  0
219223  4  0  0  0  0
222223  4  0  0  0  0
222224  4  0  0  0  0
224225  1  0  0  0  0
225226  4  0  0  0  0
226227  4  0  0  0  0
227228  4  0  0  0  0
228229  1  0  0  0  0
228230  4  0  0  0  0
225231  4  0  0  0  0
230231  4  0  0  0  0
224232  4  0  0  0  0
232233  4  0  0  0  0
233234  2  0  0  0  0
199235  4  0  0  0  0
234235  4  0  0  0  0
198236  1  0  0  0  0
232236  4  0  0  0  0
235236  4  0  0  0  0
201237  1  0  0  0  0
202238  1  0  0  0  0
207239  1  0  0  0  0
208240  1  0  0  0  0
210241  1  0  0  0  0
211242  1  0  0  0  0
212243  1  0  0  0  0
214244  1  0  0  0  0
215245  1  0  0  0  0
220246  1  0  0  0  0
221247  1  0  0  0  0
226248  1  0  0  0  0
227249  1  0  0  0  0
229250  1  0  0  0  0
230251  1  0  0  0  0
231252  1  0  0  0  0
233253  1  0  0  0  0
234254  1  0  0  0  0
M  END
