 xtb: 6.5.1 (b24c23e)
          07302214233D

236275  0     0  0            999 V2000
   54.4701    0.0452    0.0100 Cu  0  0  0  0  0  0  0  0  0  0  0  0
   51.0620    0.0483    0.0208 C   0  0  0  0  0  0  0  0  0  0  0  0
   51.6893    1.2415    0.3458 C   0  0  0  0  0  0  0  0  0  0  0  0
   51.0087    2.4739    0.6239 C   0  0  0  0  0  0  0  0  0  0  0  0
   51.9614    3.3948    0.9115 C   0  0  0  0  0  0  0  0  0  0  0  0
   53.2327    2.7282    0.8264 C   0  0  0  0  0  0  0  0  0  0  0  0
   53.0372    1.4257    0.4688 N   0  0  0  0  0  0  0  0  0  0  0  0
   54.4729    3.3218    1.0736 C   0  0  0  0  0  0  0  0  0  0  0  0
   54.4791    4.7372    1.5150 C   0  0  0  0  0  0  0  0  0  0  0  0
   53.8416    5.1176    2.6982 C   0  0  0  0  0  0  0  0  0  0  0  0
   53.8438    6.4394    3.1065 C   0  0  0  0  0  0  0  0  0  0  0  0
   54.4821    7.4117    2.3309 C   0  0  0  0  0  0  0  0  0  0  0  0
   54.4804    8.7740    2.7440 C   0  0  0  0  0  0  0  0  0  0  0  0
   54.4773    9.8755    3.0768 N   0  0  0  0  0  0  0  0  0  0  0  0
   55.1216    7.0364    1.1456 C   0  0  0  0  0  0  0  0  0  0  0  0
   55.1210    5.7119    0.7471 C   0  0  0  0  0  0  0  0  0  0  0  0
   55.7088    2.6862    0.9337 C   0  0  0  0  0  0  0  0  0  0  0  0
   56.9720    3.2650    1.2919 C   0  0  0  0  0  0  0  0  0  0  0  0
   57.9261    2.3441    1.0031 C   0  0  0  0  0  0  0  0  0  0  0  0
   55.9130    1.4212    0.4498 N   0  0  0  0  0  0  0  0  0  0  0  0
   57.2566    1.1990    0.4652 C   0  0  0  0  0  0  0  0  0  0  0  0
   57.9074    0.0437   -0.0051 C   0  0  0  0  0  0  0  0  0  0  0  0
   57.2512   -1.1112   -0.4688 C   0  0  0  0  0  0  0  0  0  0  0  0
   57.9147   -2.2566   -1.0133 C   0  0  0  0  0  0  0  0  0  0  0  0
   56.9573   -3.1769   -1.2930 C   0  0  0  0  0  0  0  0  0  0  0  0
   55.6980   -2.5977   -0.9222 C   0  0  0  0  0  0  0  0  0  0  0  0
   55.9076   -1.3328   -0.4403 N   0  0  0  0  0  0  0  0  0  0  0  0
   54.4603   -3.2328   -1.0502 C   0  0  0  0  0  0  0  0  0  0  0  0
   54.4622   -4.6486   -1.4893 C   0  0  0  0  0  0  0  0  0  0  0  0
   53.8053   -5.0330   -2.6607 C   0  0  0  0  0  0  0  0  0  0  0  0
   53.8047   -6.3553   -3.0671 C   0  0  0  0  0  0  0  0  0  0  0  0
   54.4603   -7.3244   -2.3019 C   0  0  0  0  0  0  0  0  0  0  0  0
   54.4577   -8.6870   -2.7138 C   0  0  0  0  0  0  0  0  0  0  0  0
   54.4516   -9.7886   -3.0467 N   0  0  0  0  0  0  0  0  0  0  0  0
   55.1191   -6.9453   -1.1285 C   0  0  0  0  0  0  0  0  0  0  0  0
   55.1205   -5.6204   -0.7315 C   0  0  0  0  0  0  0  0  0  0  0  0
   53.2228   -2.6370   -0.7941 C   0  0  0  0  0  0  0  0  0  0  0  0
   51.9498   -3.3018   -0.8679 C   0  0  0  0  0  0  0  0  0  0  0  0
   51.0006   -2.3781   -0.5771 C   0  0  0  0  0  0  0  0  0  0  0  0
   51.6852   -1.1463   -0.3070 C   0  0  0  0  0  0  0  0  0  0  0  0
   53.0319   -1.3332   -0.4385 N   0  0  0  0  0  0  0  0  0  0  0  0
   49.9770    0.0493    0.0240 H   0  0  0  0  0  0  0  0  0  0  0  0
   49.9389    2.6062    0.5884 H   0  0  0  0  0  0  0  0  0  0  0  0
   51.8232    4.4372    1.1495 H   0  0  0  0  0  0  0  0  0  0  0  0
   53.3554    4.3650    3.3085 H   0  0  0  0  0  0  0  0  0  0  0  0
   53.3518    6.7259    4.0286 H   0  0  0  0  0  0  0  0  0  0  0  0
   55.6150    7.7878    0.5404 H   0  0  0  0  0  0  0  0  0  0  0  0
   55.6077    5.4263   -0.1786 H   0  0  0  0  0  0  0  0  0  0  0  0
   57.1064    4.2414    1.7284 H   0  0  0  0  0  0  0  0  0  0  0  0
   58.9901    2.4225    1.1522 H   0  0  0  0  0  0  0  0  0  0  0  0
   58.9771   -2.3354   -1.1731 H   0  0  0  0  0  0  0  0  0  0  0  0
   57.0873   -4.1529   -1.7318 H   0  0  0  0  0  0  0  0  0  0  0  0
   53.3066   -4.2829   -3.2640 H   0  0  0  0  0  0  0  0  0  0  0  0
   53.2974   -6.6448   -3.9800 H   0  0  0  0  0  0  0  0  0  0  0  0
   55.6263   -7.6940   -0.5313 H   0  0  0  0  0  0  0  0  0  0  0  0
   55.6219   -5.3322    0.1856 H   0  0  0  0  0  0  0  0  0  0  0  0
   51.8078   -4.3448   -1.1007 H   0  0  0  0  0  0  0  0  0  0  0  0
   49.9308   -2.5084   -0.5339 H   0  0  0  0  0  0  0  0  0  0  0  0
   87.2038    0.0015    0.0383 Cu  0  0  0  0  0  0  0  0  0  0  0  0
   90.6101   -0.0048    0.0848 C   0  0  0  0  0  0  0  0  0  0  0  0
   89.9809   -1.2262    0.2720 C   0  0  0  0  0  0  0  0  0  0  0  0
   90.6623   -2.4786    0.4342 C   0  0  0  0  0  0  0  0  0  0  0  0
   89.7085   -3.4301    0.5868 C   0  0  0  0  0  0  0  0  0  0  0  0
   88.4349   -2.7646    0.5315 C   0  0  0  0  0  0  0  0  0  0  0  0
   88.6313   -1.4286    0.3327 N   0  0  0  0  0  0  0  0  0  0  0  0
   87.1929   -3.3947    0.6427 C   0  0  0  0  0  0  0  0  0  0  0  0
   87.1869   -4.8537    0.9076 C   0  0  0  0  0  0  0  0  0  0  0  0
   87.7643   -5.3642    2.0727 C   0  0  0  0  0  0  0  0  0  0  0  0
   87.7570   -6.7241    2.3259 C   0  0  0  0  0  0  0  0  0  0  0  0
   87.1731   -7.6044    1.4100 C   0  0  0  0  0  0  0  0  0  0  0  0
   87.1655   -9.0046    1.6667 C   0  0  0  0  0  0  0  0  0  0  0  0
   87.1594  -10.1363    1.8750 N   0  0  0  0  0  0  0  0  0  0  0  0
   86.5966   -7.0992    0.2409 C   0  0  0  0  0  0  0  0  0  0  0  0
   86.6030   -5.7375   -0.0030 C   0  0  0  0  0  0  0  0  0  0  0  0
   85.9560   -2.7563    0.5267 C   0  0  0  0  0  0  0  0  0  0  0  0
   84.6829   -3.3923    0.7153 C   0  0  0  0  0  0  0  0  0  0  0  0
   83.7324   -2.4408    0.5348 C   0  0  0  0  0  0  0  0  0  0  0  0
   85.7608   -1.4300    0.2466 N   0  0  0  0  0  0  0  0  0  0  0  0
   84.4160   -1.2172    0.2409 C   0  0  0  0  0  0  0  0  0  0  0  0
   83.7749    0.0091   -0.0030 C   0  0  0  0  0  0  0  0  0  0  0  0
   84.4269    1.2321   -0.2332 C   0  0  0  0  0  0  0  0  0  0  0  0
   83.7560    2.4591   -0.5421 C   0  0  0  0  0  0  0  0  0  0  0  0
   84.7150    3.4064   -0.6995 C   0  0  0  0  0  0  0  0  0  0  0  0
   85.9802    2.7642   -0.4815 C   0  0  0  0  0  0  0  0  0  0  0  0
   85.7725    1.4386   -0.2074 N   0  0  0  0  0  0  0  0  0  0  0  0
   87.2221    3.3974   -0.5657 C   0  0  0  0  0  0  0  0  0  0  0  0
   87.2289    4.8574   -0.8265 C   0  0  0  0  0  0  0  0  0  0  0  0
   87.8282    5.3684   -1.9801 C   0  0  0  0  0  0  0  0  0  0  0  0
   87.8343    6.7295   -2.2274 C   0  0  0  0  0  0  0  0  0  0  0  0
   87.2431    7.6100   -1.3165 C   0  0  0  0  0  0  0  0  0  0  0  0
   87.2511    9.0115   -1.5660 C   0  0  0  0  0  0  0  0  0  0  0  0
   87.2577   10.1444   -1.7679 N   0  0  0  0  0  0  0  0  0  0  0  0
   86.6443    7.1039   -0.1589 C   0  0  0  0  0  0  0  0  0  0  0  0
   86.6365    5.7412    0.0786 C   0  0  0  0  0  0  0  0  0  0  0  0
   88.4583    2.7626   -0.4228 C   0  0  0  0  0  0  0  0  0  0  0  0
   89.7353    3.4234   -0.4451 C   0  0  0  0  0  0  0  0  0  0  0  0
   90.6811    2.4687   -0.2654 C   0  0  0  0  0  0  0  0  0  0  0  0
   89.9910    1.2189   -0.1202 C   0  0  0  0  0  0  0  0  0  0  0  0
   88.6443    1.4261   -0.2178 N   0  0  0  0  0  0  0  0  0  0  0  0
   91.6950   -0.0068    0.1000 H   0  0  0  0  0  0  0  0  0  0  0  0
   91.7338   -2.6011    0.4196 H   0  0  0  0  0  0  0  0  0  0  0  0
   89.8476   -4.4918    0.7124 H   0  0  0  0  0  0  0  0  0  0  0  0
   88.2066   -4.6838    2.7915 H   0  0  0  0  0  0  0  0  0  0  0  0
   88.2016   -7.1119    3.2349 H   0  0  0  0  0  0  0  0  0  0  0  0
   86.1464   -7.7789   -0.4731 H   0  0  0  0  0  0  0  0  0  0  0  0
   86.1656   -5.3507   -0.9165 H   0  0  0  0  0  0  0  0  0  0  0  0
   84.5384   -4.4293    0.9718 H   0  0  0  0  0  0  0  0  0  0  0  0
   82.6619   -2.5476    0.6059 H   0  0  0  0  0  0  0  0  0  0  0  0
   82.6880    2.5707   -0.6385 H   0  0  0  0  0  0  0  0  0  0  0  0
   84.5818    4.4444   -0.9580 H   0  0  0  0  0  0  0  0  0  0  0  0
   88.2774    4.6878   -2.6945 H   0  0  0  0  0  0  0  0  0  0  0  0
   88.2956    7.1180   -3.1278 H   0  0  0  0  0  0  0  0  0  0  0  0
   86.1883    7.7839    0.5511 H   0  0  0  0  0  0  0  0  0  0  0  0
   86.1813    5.3532    0.9829 H   0  0  0  0  0  0  0  0  0  0  0  0
   89.8814    4.4843   -0.5692 H   0  0  0  0  0  0  0  0  0  0  0  0
   91.7523    2.5873   -0.2220 H   0  0  0  0  0  0  0  0  0  0  0  0
   59.3173    0.0431   -0.0127 C   0  0  0  0  0  0  0  0  0  0  0  0
   60.5352    0.0417   -0.0197 C   0  0  0  0  0  0  0  0  0  0  0  0
   70.2358    0.0352   -0.0571 C   0  0  0  0  0  0  0  0  0  0  0  0
   71.4535    0.0341   -0.0558 C   0  0  0  0  0  0  0  0  0  0  0  0
   81.1485    0.0168   -0.0229 C   0  0  0  0  0  0  0  0  0  0  0  0
   82.3648    0.0131   -0.0151 C   0  0  0  0  0  0  0  0  0  0  0  0
   65.3874    0.0409   -0.0456 Cu  0  0  0  0  0  0  0  0  0  0  0  0
   61.9445    0.0415   -0.0278 C   0  0  0  0  0  0  0  0  0  0  0  0
   62.5991   -1.1692   -0.3223 C   0  0  0  0  0  0  0  0  0  0  0  0
   61.9400   -2.4241   -0.5190 C   0  0  0  0  0  0  0  0  0  0  0  0
   62.8955   -3.3278   -0.8558 C   0  0  0  0  0  0  0  0  0  0  0  0
   64.1476   -2.6280   -0.8669 C   0  0  0  0  0  0  0  0  0  0  0  0
   63.9382   -1.3211   -0.5167 N   0  0  0  0  0  0  0  0  0  0  0  0
   65.3806   -3.1959   -1.1983 C   0  0  0  0  0  0  0  0  0  0  0  0
   65.3749   -4.5902   -1.6994 C   0  0  0  0  0  0  0  0  0  0  0  0
   64.6507   -4.9275   -2.8456 C   0  0  0  0  0  0  0  0  0  0  0  0
   64.6457   -6.2269   -3.3196 C   0  0  0  0  0  0  0  0  0  0  0  0
   65.3630   -7.2209   -2.6474 C   0  0  0  0  0  0  0  0  0  0  0  0
   65.3570   -8.5602   -3.1299 C   0  0  0  0  0  0  0  0  0  0  0  0
   65.3511   -9.6420   -3.5220 N   0  0  0  0  0  0  0  0  0  0  0  0
   66.0860   -6.8899   -1.4975 C   0  0  0  0  0  0  0  0  0  0  0  0
   66.0926   -5.5869   -1.0336 C   0  0  0  0  0  0  0  0  0  0  0  0
   66.6174   -2.5548   -1.0931 C   0  0  0  0  0  0  0  0  0  0  0  0
   67.8700   -3.0996   -1.5318 C   0  0  0  0  0  0  0  0  0  0  0  0
   68.8294   -2.1929   -1.2142 C   0  0  0  0  0  0  0  0  0  0  0  0
   66.8304   -1.3207   -0.5395 N   0  0  0  0  0  0  0  0  0  0  0  0
   68.1708   -1.0893   -0.5841 C   0  0  0  0  0  0  0  0  0  0  0  0
   68.8276    0.0375   -0.0557 C   0  0  0  0  0  0  0  0  0  0  0  0
   68.1759    1.1663    0.4746 C   0  0  0  0  0  0  0  0  0  0  0  0
   68.8402    2.2688    1.1006 C   0  0  0  0  0  0  0  0  0  0  0  0
   67.8846    3.1781    1.4221 C   0  0  0  0  0  0  0  0  0  0  0  0
   66.6284    2.6358    0.9904 C   0  0  0  0  0  0  0  0  0  0  0  0
   66.8358    1.4009    0.4365 N   0  0  0  0  0  0  0  0  0  0  0  0
   65.3934    3.2790    1.1041 C   0  0  0  0  0  0  0  0  0  0  0  0
   65.3938    4.6733    1.6049 C   0  0  0  0  0  0  0  0  0  0  0  0
   64.6742    5.0130    2.7534 C   0  0  0  0  0  0  0  0  0  0  0  0
   64.6760    6.3120    3.2284 C   0  0  0  0  0  0  0  0  0  0  0  0
   65.3964    7.3033    2.5555 C   0  0  0  0  0  0  0  0  0  0  0  0
   65.3994    8.6417    3.0405 C   0  0  0  0  0  0  0  0  0  0  0  0
   65.4029    9.7239    3.4315 N   0  0  0  0  0  0  0  0  0  0  0  0
   66.1145    6.9702    1.4031 C   0  0  0  0  0  0  0  0  0  0  0  0
   66.1138    5.6676    0.9378 C   0  0  0  0  0  0  0  0  0  0  0  0
   64.1570    2.7117    0.7844 C   0  0  0  0  0  0  0  0  0  0  0  0
   62.9050    3.4118    0.7847 C   0  0  0  0  0  0  0  0  0  0  0  0
   61.9458    2.5076    0.4602 C   0  0  0  0  0  0  0  0  0  0  0  0
   62.6026    1.2522    0.2587 C   0  0  0  0  0  0  0  0  0  0  0  0
   63.9436    1.4043    0.4385 N   0  0  0  0  0  0  0  0  0  0  0  0
   60.8828   -2.5914   -0.3961 H   0  0  0  0  0  0  0  0  0  0  0  0
   62.7689   -4.3791   -1.0577 H   0  0  0  0  0  0  0  0  0  0  0  0
   64.1028   -4.1571   -3.3763 H   0  0  0  0  0  0  0  0  0  0  0  0
   64.0873   -6.4791   -4.2135 H   0  0  0  0  0  0  0  0  0  0  0  0
   66.6393   -7.6588   -0.9713 H   0  0  0  0  0  0  0  0  0  0  0  0
   66.6444   -5.3366   -0.1346 H   0  0  0  0  0  0  0  0  0  0  0  0
   67.9945   -4.0439   -2.0365 H   0  0  0  0  0  0  0  0  0  0  0  0
   69.8890   -2.2534   -1.4021 H   0  0  0  0  0  0  0  0  0  0  0  0
   69.9008    2.3270    1.2834 H   0  0  0  0  0  0  0  0  0  0  0  0
   68.0142    4.1223    1.9258 H   0  0  0  0  0  0  0  0  0  0  0  0
   64.1247    4.2445    3.2852 H   0  0  0  0  0  0  0  0  0  0  0  0
   64.1211    6.5658    4.1240 H   0  0  0  0  0  0  0  0  0  0  0  0
   66.6703    7.7370    0.8763 H   0  0  0  0  0  0  0  0  0  0  0  0
   66.6618    5.4160    0.0368 H   0  0  0  0  0  0  0  0  0  0  0  0
   62.7806    4.4636    0.9854 H   0  0  0  0  0  0  0  0  0  0  0  0
   60.8873    2.6747    0.3485 H   0  0  0  0  0  0  0  0  0  0  0  0
   76.3025    0.0263   -0.0427 Cu  0  0  0  0  0  0  0  0  0  0  0  0
   72.8620    0.0319   -0.0533 C   0  0  0  0  0  0  0  0  0  0  0  0
   73.5125   -1.1965   -0.2718 C   0  0  0  0  0  0  0  0  0  0  0  0
   72.8421   -2.4533   -0.4167 C   0  0  0  0  0  0  0  0  0  0  0  0
   73.7978   -3.3889   -0.6487 C   0  0  0  0  0  0  0  0  0  0  0  0
   75.0606   -2.7073   -0.6472 C   0  0  0  0  0  0  0  0  0  0  0  0
   74.8552   -1.3760   -0.4014 N   0  0  0  0  0  0  0  0  0  0  0  0
   76.2993   -3.3186   -0.8554 C   0  0  0  0  0  0  0  0  0  0  0  0
   76.2960   -4.7562   -1.2173 C   0  0  0  0  0  0  0  0  0  0  0  0
   75.6491   -5.1911   -2.3768 C   0  0  0  0  0  0  0  0  0  0  0  0
   75.6485   -6.5300   -2.7238 C   0  0  0  0  0  0  0  0  0  0  0  0
   76.2930   -7.4654   -1.9088 C   0  0  0  0  0  0  0  0  0  0  0  0
   76.2928   -8.8445   -2.2619 C   0  0  0  0  0  0  0  0  0  0  0  0
   76.2913   -9.9589   -2.5489 N   0  0  0  0  0  0  0  0  0  0  0  0
   76.9381   -7.0363   -0.7450 C   0  0  0  0  0  0  0  0  0  0  0  0
   76.9403   -5.6948   -0.4078 C   0  0  0  0  0  0  0  0  0  0  0  0
   77.5405   -2.6856   -0.7528 C   0  0  0  0  0  0  0  0  0  0  0  0
   78.8046   -3.2970   -1.0501 C   0  0  0  0  0  0  0  0  0  0  0  0
   79.7619   -2.3638   -0.8152 C   0  0  0  0  0  0  0  0  0  0  0  0
   77.7460   -1.3906   -0.3599 N   0  0  0  0  0  0  0  0  0  0  0  0
   79.0898   -1.1758   -0.3821 C   0  0  0  0  0  0  0  0  0  0  0  0
   79.7388    0.0202   -0.0304 C   0  0  0  0  0  0  0  0  0  0  0  0
   79.0917    1.2188    0.3164 C   0  0  0  0  0  0  0  0  0  0  0  0
   79.7649    2.4041    0.7552 C   0  0  0  0  0  0  0  0  0  0  0  0
   78.8092    3.3406    0.9836 C   0  0  0  0  0  0  0  0  0  0  0  0
   77.5452    2.7338    0.6767 C   0  0  0  0  0  0  0  0  0  0  0  0
   77.7489    1.4384    0.2843 N   0  0  0  0  0  0  0  0  0  0  0  0
   76.3054    3.3709    0.7709 C   0  0  0  0  0  0  0  0  0  0  0  0
   76.3035    4.8080    1.1350 C   0  0  0  0  0  0  0  0  0  0  0  0
   75.6480    5.2425    2.2899 C   0  0  0  0  0  0  0  0  0  0  0  0
   75.6469    6.5808    2.6389 C   0  0  0  0  0  0  0  0  0  0  0  0
   76.2996    7.5163    1.8304 C   0  0  0  0  0  0  0  0  0  0  0  0
   76.2976    8.8951    2.1845 C   0  0  0  0  0  0  0  0  0  0  0  0
   76.2963   10.0096    2.4707 N   0  0  0  0  0  0  0  0  0  0  0  0
   76.9538    7.0875    0.6716 C   0  0  0  0  0  0  0  0  0  0  0  0
   76.9565    5.7465    0.3324 C   0  0  0  0  0  0  0  0  0  0  0  0
   75.0662    2.7639    0.5534 C   0  0  0  0  0  0  0  0  0  0  0  0
   73.8058    3.4498    0.5459 C   0  0  0  0  0  0  0  0  0  0  0  0
   72.8485    2.5174    0.3080 C   0  0  0  0  0  0  0  0  0  0  0  0
   73.5154    1.2583    0.1683 C   0  0  0  0  0  0  0  0  0  0  0  0
   74.8578    1.4333    0.3065 N   0  0  0  0  0  0  0  0  0  0  0  0
   71.7773   -2.5977   -0.3347 H   0  0  0  0  0  0  0  0  0  0  0  0
   73.6642   -4.4496   -0.7870 H   0  0  0  0  0  0  0  0  0  0  0  0
   75.1587   -4.4669   -3.0174 H   0  0  0  0  0  0  0  0  0  0  0  0
   75.1507   -6.8586   -3.6286 H   0  0  0  0  0  0  0  0  0  0  0  0
   77.4351   -7.7592   -0.1087 H   0  0  0  0  0  0  0  0  0  0  0  0
   77.4315   -5.3675    0.5017 H   0  0  0  0  0  0  0  0  0  0  0  0
   78.9388   -4.3042   -1.4100 H   0  0  0  0  0  0  0  0  0  0  0  0
   80.8288   -2.4593   -0.9376 H   0  0  0  0  0  0  0  0  0  0  0  0
   80.8312    2.4957    0.8852 H   0  0  0  0  0  0  0  0  0  0  0  0
   78.9443    4.3471    1.3452 H   0  0  0  0  0  0  0  0  0  0  0  0
   75.1509    4.5182    2.9253 H   0  0  0  0  0  0  0  0  0  0  0  0
   75.1420    6.9090    3.5399 H   0  0  0  0  0  0  0  0  0  0  0  0
   77.4573    7.8105    0.0405 H   0  0  0  0  0  0  0  0  0  0  0  0
   77.4546    5.4197   -0.5734 H   0  0  0  0  0  0  0  0  0  0  0  0
   73.6748    4.5111    0.6825 H   0  0  0  0  0  0  0  0  0  0  0  0
   71.7847    2.6655    0.2185 H   0  0  0  0  0  0  0  0  0  0  0  0
  2  3  4  0  0  0  0
  3  4  1  0  0  0  0
  4  5  2  0  0  0  0
  5  6  4  0  0  0  0
  1  7  1  0  0  0  0
  3  7  4  0  0  0  0
  6  7  4  0  0  0  0
  6  8  4  0  0  0  0
  8  9  1  0  0  0  0
  9 10  4  0  0  0  0
 10 11  4  0  0  0  0
 11 12  4  0  0  0  0
 12 13  1  0  0  0  0
 13 14  3  0  0  0  0
 12 15  4  0  0  0  0
  9 16  4  0  0  0  0
 15 16  4  0  0  0  0
  8 17  4  0  0  0  0
 17 18  4  0  0  0  0
 18 19  2  0  0  0  0
  1 20  1  0  0  0  0
 17 20  4  0  0  0  0
 19 21  4  0  0  0  0
 20 21  4  0  0  0  0
 21 22  4  0  0  0  0
 22 23  4  0  0  0  0
 23 24  4  0  0  0  0
 24 25  2  0  0  0  0
 25 26  4  0  0  0  0
  1 27  1  0  0  0  0
 23 27  4  0  0  0  0
 26 27  4  0  0  0  0
 26 28  4  0  0  0  0
 28 29  1  0  0  0  0
 29 30  4  0  0  0  0
 30 31  4  0  0  0  0
 31 32  4  0  0  0  0
 32 33  1  0  0  0  0
 33 34  3  0  0  0  0
 32 35  4  0  0  0  0
 29 36  4  0  0  0  0
 35 36  4  0  0  0  0
 28 37  4  0  0  0  0
 37 38  4  0  0  0  0
 38 39  2  0  0  0  0
  2 40  4  0  0  0  0
 39 40  1  0  0  0  0
  1 41  1  0  0  0  0
 37 41  4  0  0  0  0
 40 41  4  0  0  0  0
  2 42  1  0  0  0  0
  4 43  1  0  0  0  0
  5 44  1  0  0  0  0
 10 45  1  0  0  0  0
 11 46  1  0  0  0  0
 15 47  1  0  0  0  0
 16 48  1  0  0  0  0
 18 49  1  0  0  0  0
 19 50  1  0  0  0  0
 24 51  1  0  0  0  0
 25 52  1  0  0  0  0
 30 53  1  0  0  0  0
 31 54  1  0  0  0  0
 35 55  1  0  0  0  0
 36 56  1  0  0  0  0
 38 57  1  0  0  0  0
 39 58  1  0  0  0  0
 60 61  4  0  0  0  0
 61 62  1  0  0  0  0
 62 63  2  0  0  0  0
 63 64  4  0  0  0  0
 59 65  1  0  0  0  0
 61 65  4  0  0  0  0
 64 65  4  0  0  0  0
 64 66  4  0  0  0  0
 66 67  1  0  0  0  0
 67 68  4  0  0  0  0
 68 69  4  0  0  0  0
 69 70  4  0  0  0  0
 70 71  1  0  0  0  0
 71 72  3  0  0  0  0
 70 73  4  0  0  0  0
 67 74  4  0  0  0  0
 73 74  4  0  0  0  0
 66 75  4  0  0  0  0
 75 76  4  0  0  0  0
 76 77  2  0  0  0  0
 59 78  1  0  0  0  0
 75 78  4  0  0  0  0
 77 79  4  0  0  0  0
 78 79  4  0  0  0  0
 79 80  4  0  0  0  0
 80 81  4  0  0  0  0
 81 82  4  0  0  0  0
 82 83  2  0  0  0  0
 83 84  4  0  0  0  0
 59 85  1  0  0  0  0
 81 85  4  0  0  0  0
 84 85  4  0  0  0  0
 84 86  4  0  0  0  0
 86 87  1  0  0  0  0
 87 88  4  0  0  0  0
 88 89  4  0  0  0  0
 89 90  4  0  0  0  0
 90 91  1  0  0  0  0
 91 92  3  0  0  0  0
 90 93  4  0  0  0  0
 87 94  4  0  0  0  0
 93 94  4  0  0  0  0
 86 95  4  0  0  0  0
 95 96  4  0  0  0  0
 96 97  2  0  0  0  0
 60 98  4  0  0  0  0
 97 98  1  0  0  0  0
 59 99  1  0  0  0  0
 95 99  4  0  0  0  0
 98 99  4  0  0  0  0
 60100  1  0  0  0  0
 62101  1  0  0  0  0
 63102  1  0  0  0  0
 68103  1  0  0  0  0
 69104  1  0  0  0  0
 73105  1  0  0  0  0
 74106  1  0  0  0  0
 76107  1  0  0  0  0
 77108  1  0  0  0  0
 82109  1  0  0  0  0
 83110  1  0  0  0  0
 88111  1  0  0  0  0
 89112  1  0  0  0  0
 93113  1  0  0  0  0
 94114  1  0  0  0  0
 96115  1  0  0  0  0
 97116  1  0  0  0  0
 22117  4  0  0  0  0
117118  3  0  0  0  0
119120  3  0  0  0  0
 80122  4  0  0  0  0
121122  3  0  0  0  0
118124  4  0  0  0  0
124125  4  0  0  0  0
125126  4  0  0  0  0
126127  2  0  0  0  0
127128  4  0  0  0  0
123129  1  0  0  0  0
125129  4  0  0  0  0
128129  4  0  0  0  0
128130  4  0  0  0  0
130131  1  0  0  0  0
131132  4  0  0  0  0
132133  4  0  0  0  0
133134  4  0  0  0  0
134135  1  0  0  0  0
135136  3  0  0  0  0
134137  4  0  0  0  0
131138  4  0  0  0  0
137138  4  0  0  0  0
130139  4  0  0  0  0
139140  4  0  0  0  0
140141  2  0  0  0  0
123142  1  0  0  0  0
139142  4  0  0  0  0
141143  4  0  0  0  0
142143  4  0  0  0  0
119144  4  0  0  0  0
143144  4  0  0  0  0
144145  4  0  0  0  0
145146  4  0  0  0  0
146147  2  0  0  0  0
147148  4  0  0  0  0
123149  1  0  0  0  0
145149  4  0  0  0  0
148149  4  0  0  0  0
148150  4  0  0  0  0
150151  1  0  0  0  0
151152  4  0  0  0  0
152153  4  0  0  0  0
153154  4  0  0  0  0
154155  1  0  0  0  0
155156  3  0  0  0  0
154157  4  0  0  0  0
151158  4  0  0  0  0
157158  4  0  0  0  0
150159  4  0  0  0  0
159160  4  0  0  0  0
160161  2  0  0  0  0
124162  4  0  0  0  0
161162  4  0  0  0  0
123163  1  0  0  0  0
159163  4  0  0  0  0
162163  4  0  0  0  0
126164  1  0  0  0  0
127165  1  0  0  0  0
132166  1  0  0  0  0
133167  1  0  0  0  0
137168  1  0  0  0  0
138169  1  0  0  0  0
140170  1  0  0  0  0
141171  1  0  0  0  0
146172  1  0  0  0  0
147173  1  0  0  0  0
152174  1  0  0  0  0
153175  1  0  0  0  0
157176  1  0  0  0  0
158177  1  0  0  0  0
160178  1  0  0  0  0
161179  1  0  0  0  0
120181  4  0  0  0  0
181182  4  0  0  0  0
182183  4  0  0  0  0
183184  2  0  0  0  0
184185  4  0  0  0  0
180186  1  0  0  0  0
182186  4  0  0  0  0
185186  4  0  0  0  0
185187  4  0  0  0  0
187188  1  0  0  0  0
188189  4  0  0  0  0
189190  4  0  0  0  0
190191  4  0  0  0  0
191192  1  0  0  0  0
192193  3  0  0  0  0
191194  4  0  0  0  0
188195  4  0  0  0  0
194195  4  0  0  0  0
187196  4  0  0  0  0
196197  4  0  0  0  0
197198  2  0  0  0  0
180199  1  0  0  0  0
196199  4  0  0  0  0
198200  4  0  0  0  0
199200  4  0  0  0  0
121201  4  0  0  0  0
200201  4  0  0  0  0
201202  4  0  0  0  0
202203  4  0  0  0  0
203204  2  0  0  0  0
204205  4  0  0  0  0
180206  1  0  0  0  0
202206  4  0  0  0  0
205206  4  0  0  0  0
205207  4  0  0  0  0
207208  1  0  0  0  0
208209  4  0  0  0  0
209210  4  0  0  0  0
210211  4  0  0  0  0
211212  1  0  0  0  0
212213  3  0  0  0  0
211214  4  0  0  0  0
208215  4  0  0  0  0
214215  4  0  0  0  0
207216  4  0  0  0  0
216217  4  0  0  0  0
217218  2  0  0  0  0
181219  4  0  0  0  0
218219  4  0  0  0  0
180220  1  0  0  0  0
216220  4  0  0  0  0
219220  4  0  0  0  0
183221  1  0  0  0  0
184222  1  0  0  0  0
189223  1  0  0  0  0
190224  1  0  0  0  0
194225  1  0  0  0  0
195226  1  0  0  0  0
197227  1  0  0  0  0
198228  1  0  0  0  0
203229  1  0  0  0  0
204230  1  0  0  0  0
209231  1  0  0  0  0
210232  1  0  0  0  0
214233  1  0  0  0  0
215234  1  0  0  0  0
217235  1  0  0  0  0
218236  1  0  0  0  0
M  END
