 xtb: 6.5.1 (b24c23e)
          07262213583D

342386  0     0  0            999 V2000
   70.2143    0.0133   -0.0107 C   0  0  0  0  0  0  0  0  0  0  0  0
   70.8210   -1.2179   -0.2239 C   0  0  0  0  0  0  0  0  0  0  0  0
   70.1900   -2.4758   -0.4447 C   0  0  0  0  0  0  0  0  0  0  0  0
   71.1697   -3.4143   -0.6092 C   0  0  0  0  0  0  0  0  0  0  0  0
   72.4298   -2.7596   -0.4938 C   0  0  0  0  0  0  0  0  0  0  0  0
   72.1681   -1.4403   -0.2616 N   0  0  0  0  0  0  0  0  0  0  0  0
   73.6904   -3.3349   -0.5994 C   0  0  0  0  0  0  0  0  0  0  0  0
   74.9206   -2.7020   -0.4901 C   0  0  0  0  0  0  0  0  0  0  0  0
   76.1861   -3.4001   -0.6305 C   0  0  0  0  0  0  0  0  0  0  0  0
   77.1522   -2.4730   -0.4669 C   0  0  0  0  0  0  0  0  0  0  0  0
   75.1382   -1.3813   -0.2462 N   0  0  0  0  0  0  0  0  0  0  0  0
   76.4751   -1.2124   -0.2231 C   0  0  0  0  0  0  0  0  0  0  0  0
   77.1499    0.0063   -0.0059 C   0  0  0  0  0  0  0  0  0  0  0  0
   76.5164    1.2443    0.2123 C   0  0  0  0  0  0  0  0  0  0  0  0
   77.1392    2.4981    0.4556 C   0  0  0  0  0  0  0  0  0  0  0  0
   76.1554    3.4339    0.6195 C   0  0  0  0  0  0  0  0  0  0  0  0
   74.9005    2.7773    0.4846 C   0  0  0  0  0  0  0  0  0  0  0  0
   75.1709    1.4579    0.2402 N   0  0  0  0  0  0  0  0  0  0  0  0
   73.6413    3.3564    0.5833 C   0  0  0  0  0  0  0  0  0  0  0  0
   72.4101    2.7240    0.4656 C   0  0  0  0  0  0  0  0  0  0  0  0
   71.1369    3.4177    0.5864 C   0  0  0  0  0  0  0  0  0  0  0  0
   70.1775    2.4851    0.4209 C   0  0  0  0  0  0  0  0  0  0  0  0
   70.8655    1.2231    0.1998 C   0  0  0  0  0  0  0  0  0  0  0  0
   72.2069    1.4062    0.2325 N   0  0  0  0  0  0  0  0  0  0  0  0
   69.1295    0.0224   -0.0097 H   0  0  0  0  0  0  0  0  0  0  0  0
   69.1226   -2.6276   -0.4720 H   0  0  0  0  0  0  0  0  0  0  0  0
   71.0446   -4.4693   -0.7947 H   0  0  0  0  0  0  0  0  0  0  0  0
   72.8718   -0.7206   -0.1344 H   0  0  0  0  0  0  0  0  0  0  0  0
   73.7059   -4.4030   -0.7921 H   0  0  0  0  0  0  0  0  0  0  0  0
   76.2878   -4.4553   -0.8299 H   0  0  0  0  0  0  0  0  0  0  0  0
   78.2218   -2.6011   -0.5083 H   0  0  0  0  0  0  0  0  0  0  0  0
   78.2048    2.6532    0.5033 H   0  0  0  0  0  0  0  0  0  0  0  0
   76.2767    4.4866    0.8194 H   0  0  0  0  0  0  0  0  0  0  0  0
   74.4705    0.7365    0.1030 H   0  0  0  0  0  0  0  0  0  0  0  0
   73.6288    4.4242    0.7771 H   0  0  0  0  0  0  0  0  0  0  0  0
   71.0286    4.4749    0.7727 H   0  0  0  0  0  0  0  0  0  0  0  0
   69.1055    2.6052    0.4411 H   0  0  0  0  0  0  0  0  0  0  0  0
  165.4893   -0.0257   -0.0130 C   0  0  0  0  0  0  0  0  0  0  0  0
  164.8849    1.1925   -0.2955 C   0  0  0  0  0  0  0  0  0  0  0  0
  165.5184    2.4337   -0.5916 C   0  0  0  0  0  0  0  0  0  0  0  0
  164.5407    3.3632   -0.8091 C   0  0  0  0  0  0  0  0  0  0  0  0
  163.2792    2.7196   -0.6526 C   0  0  0  0  0  0  0  0  0  0  0  0
  163.5382    1.4159   -0.3427 N   0  0  0  0  0  0  0  0  0  0  0  0
  162.0197    3.2902   -0.7919 C   0  0  0  0  0  0  0  0  0  0  0  0
  160.7885    2.6674   -0.6435 C   0  0  0  0  0  0  0  0  0  0  0  0
  159.5241    3.3570   -0.8287 C   0  0  0  0  0  0  0  0  0  0  0  0
  158.5566    2.4436   -0.6068 C   0  0  0  0  0  0  0  0  0  0  0  0
  160.5688    1.3651   -0.3163 N   0  0  0  0  0  0  0  0  0  0  0  0
  159.2318    1.2001   -0.2827 C   0  0  0  0  0  0  0  0  0  0  0  0
  158.5545   -0.0009    0.0124 C   0  0  0  0  0  0  0  0  0  0  0  0
  159.1855   -1.2238    0.3091 C   0  0  0  0  0  0  0  0  0  0  0  0
  158.5607   -2.4580    0.6332 C   0  0  0  0  0  0  0  0  0  0  0  0
  159.5428   -3.3843    0.8520 C   0  0  0  0  0  0  0  0  0  0  0  0
  160.7987   -2.7409    0.6710 C   0  0  0  0  0  0  0  0  0  0  0  0
  160.5307   -1.4386    0.3462 N   0  0  0  0  0  0  0  0  0  0  0  0
  162.0568   -3.3170    0.7979 C   0  0  0  0  0  0  0  0  0  0  0  0
  163.2890   -2.6972    0.6343 C   0  0  0  0  0  0  0  0  0  0  0  0
  164.5611   -3.3864    0.7877 C   0  0  0  0  0  0  0  0  0  0  0  0
  165.5220   -2.4683    0.5614 C   0  0  0  0  0  0  0  0  0  0  0  0
  164.8361   -1.2193    0.2707 C   0  0  0  0  0  0  0  0  0  0  0  0
  163.4945   -1.3960    0.3220 N   0  0  0  0  0  0  0  0  0  0  0  0
  166.5741   -0.0377   -0.0161 H   0  0  0  0  0  0  0  0  0  0  0  0
  166.5861    2.5809   -0.6302 H   0  0  0  0  0  0  0  0  0  0  0  0
  164.6676    4.4051   -1.0570 H   0  0  0  0  0  0  0  0  0  0  0  0
  162.8332    0.7068   -0.1717 H   0  0  0  0  0  0  0  0  0  0  0  0
  162.0062    4.3444   -1.0499 H   0  0  0  0  0  0  0  0  0  0  0  0
  159.4238    4.3974   -1.0953 H   0  0  0  0  0  0  0  0  0  0  0  0
  157.4872    2.5704   -0.6570 H   0  0  0  0  0  0  0  0  0  0  0  0
  157.4949   -2.6071    0.6948 H   0  0  0  0  0  0  0  0  0  0  0  0
  159.4196   -4.4220    1.1179 H   0  0  0  0  0  0  0  0  0  0  0  0
  161.2326   -0.7296    0.1609 H   0  0  0  0  0  0  0  0  0  0  0  0
  162.0671   -4.3711    1.0563 H   0  0  0  0  0  0  0  0  0  0  0  0
  164.6678   -4.4312    1.0351 H   0  0  0  0  0  0  0  0  0  0  0  0
  166.5938   -2.5904    0.5817 H   0  0  0  0  0  0  0  0  0  0  0  0
   78.5582    0.0022   -0.0044 C   0  0  0  0  0  0  0  0  0  0  0  0
   79.7757    0.0037   -0.0024 C   0  0  0  0  0  0  0  0  0  0  0  0
   89.6087    0.0166    0.0151 C   0  0  0  0  0  0  0  0  0  0  0  0
   90.8267    0.0169    0.0123 C   0  0  0  0  0  0  0  0  0  0  0  0
  100.6616   -0.0046    0.0054 C   0  0  0  0  0  0  0  0  0  0  0  0
  101.8797   -0.0074    0.0025 C   0  0  0  0  0  0  0  0  0  0  0  0
  111.7105    0.0096   -0.0085 C   0  0  0  0  0  0  0  0  0  0  0  0
  112.9283    0.0112   -0.0099 C   0  0  0  0  0  0  0  0  0  0  0  0
  122.7630    0.0081   -0.0036 C   0  0  0  0  0  0  0  0  0  0  0  0
  123.9814    0.0061   -0.0026 C   0  0  0  0  0  0  0  0  0  0  0  0
  133.8250   -0.0103    0.0097 C   0  0  0  0  0  0  0  0  0  0  0  0
  135.0435   -0.0123    0.0082 C   0  0  0  0  0  0  0  0  0  0  0  0
  144.8813   -0.0241   -0.0047 C   0  0  0  0  0  0  0  0  0  0  0  0
  146.0991   -0.0163   -0.0038 C   0  0  0  0  0  0  0  0  0  0  0  0
  155.9288    0.0068    0.0095 C   0  0  0  0  0  0  0  0  0  0  0  0
  157.1463    0.0062    0.0113 C   0  0  0  0  0  0  0  0  0  0  0  0
   81.1831    0.0079    0.0011 C   0  0  0  0  0  0  0  0  0  0  0  0
   81.8237    1.2349   -0.2585 C   0  0  0  0  0  0  0  0  0  0  0  0
   81.2151    2.4841   -0.5496 C   0  0  0  0  0  0  0  0  0  0  0  0
   82.2108    3.4030   -0.7421 C   0  0  0  0  0  0  0  0  0  0  0  0
   83.4568    2.7386   -0.5771 C   0  0  0  0  0  0  0  0  0  0  0  0
   83.1717    1.4329   -0.2862 N   0  0  0  0  0  0  0  0  0  0  0  0
   84.7220    3.3043   -0.6960 C   0  0  0  0  0  0  0  0  0  0  0  0
   85.9553    2.6865   -0.5579 C   0  0  0  0  0  0  0  0  0  0  0  0
   87.2153    3.3891   -0.7225 C   0  0  0  0  0  0  0  0  0  0  0  0
   88.1890    2.4759   -0.5263 C   0  0  0  0  0  0  0  0  0  0  0  0
   86.1840    1.3769   -0.2665 N   0  0  0  0  0  0  0  0  0  0  0  0
   87.5217    1.2199   -0.2393 C   0  0  0  0  0  0  0  0  0  0  0  0
   88.2021    0.0111    0.0168 C   0  0  0  0  0  0  0  0  0  0  0  0
   87.5616   -1.2159    0.2770 C   0  0  0  0  0  0  0  0  0  0  0  0
   88.1698   -2.4656    0.5674 C   0  0  0  0  0  0  0  0  0  0  0  0
   87.1739   -3.3827    0.7653 C   0  0  0  0  0  0  0  0  0  0  0  0
   85.9278   -2.7170    0.6039 C   0  0  0  0  0  0  0  0  0  0  0  0
   86.2135   -1.4119    0.3099 N   0  0  0  0  0  0  0  0  0  0  0  0
   84.6629   -3.2812    0.7282 C   0  0  0  0  0  0  0  0  0  0  0  0
   83.4293   -2.6633    0.5895 C   0  0  0  0  0  0  0  0  0  0  0  0
   82.1695   -3.3658    0.7568 C   0  0  0  0  0  0  0  0  0  0  0  0
   81.1955   -2.4542    0.5555 C   0  0  0  0  0  0  0  0  0  0  0  0
   81.8624   -1.1993    0.2631 C   0  0  0  0  0  0  0  0  0  0  0  0
   83.2008   -1.3555    0.2928 N   0  0  0  0  0  0  0  0  0  0  0  0
   80.1515    2.6489   -0.6087 H   0  0  0  0  0  0  0  0  0  0  0  0
   82.1018    4.4490   -0.9807 H   0  0  0  0  0  0  0  0  0  0  0  0
   83.8596    0.7058   -0.1187 H   0  0  0  0  0  0  0  0  0  0  0  0
   84.7348    4.3638   -0.9326 H   0  0  0  0  0  0  0  0  0  0  0  0
   87.3090    4.4374   -0.9591 H   0  0  0  0  0  0  0  0  0  0  0  0
   89.2577    2.6105   -0.5722 H   0  0  0  0  0  0  0  0  0  0  0  0
   89.2333   -2.6317    0.6223 H   0  0  0  0  0  0  0  0  0  0  0  0
   87.2823   -4.4285    1.0050 H   0  0  0  0  0  0  0  0  0  0  0  0
   85.5258   -0.6844    0.1435 H   0  0  0  0  0  0  0  0  0  0  0  0
   84.6498   -4.3400    0.9682 H   0  0  0  0  0  0  0  0  0  0  0  0
   82.0763   -4.4131    0.9982 H   0  0  0  0  0  0  0  0  0  0  0  0
   80.1269   -2.5892    0.6013 H   0  0  0  0  0  0  0  0  0  0  0  0
   92.2332    0.0194    0.0095 C   0  0  0  0  0  0  0  0  0  0  0  0
   92.8782    1.2569    0.1998 C   0  0  0  0  0  0  0  0  0  0  0  0
   92.2750    2.5234    0.4180 C   0  0  0  0  0  0  0  0  0  0  0  0
   93.2748    3.4466    0.5621 C   0  0  0  0  0  0  0  0  0  0  0  0
   94.5180    2.7678    0.4392 C   0  0  0  0  0  0  0  0  0  0  0  0
   94.2271    1.4492    0.2208 N   0  0  0  0  0  0  0  0  0  0  0  0
   95.7855    3.3331    0.5319 C   0  0  0  0  0  0  0  0  0  0  0  0
   97.0166    2.7035    0.4329 C   0  0  0  0  0  0  0  0  0  0  0  0
   98.2787    3.4090    0.5654 C   0  0  0  0  0  0  0  0  0  0  0  0
   99.2495    2.4830    0.4216 C   0  0  0  0  0  0  0  0  0  0  0  0
   97.2412    1.3793    0.2127 N   0  0  0  0  0  0  0  0  0  0  0  0
   98.5784    1.2162    0.1981 C   0  0  0  0  0  0  0  0  0  0  0  0
   99.2551   -0.0066    0.0060 C   0  0  0  0  0  0  0  0  0  0  0  0
   98.6100   -1.2434   -0.1886 C   0  0  0  0  0  0  0  0  0  0  0  0
   99.2131   -2.5096   -0.4092 C   0  0  0  0  0  0  0  0  0  0  0  0
   98.2132   -3.4322   -0.5565 C   0  0  0  0  0  0  0  0  0  0  0  0
   96.9700   -2.7535   -0.4327 C   0  0  0  0  0  0  0  0  0  0  0  0
   97.2611   -1.4353   -0.2112 N   0  0  0  0  0  0  0  0  0  0  0  0
   95.7027   -3.3187   -0.5255 C   0  0  0  0  0  0  0  0  0  0  0  0
   94.4714   -2.6898   -0.4228 C   0  0  0  0  0  0  0  0  0  0  0  0
   93.2092   -3.3959   -0.5508 C   0  0  0  0  0  0  0  0  0  0  0  0
   92.2384   -2.4707   -0.4026 C   0  0  0  0  0  0  0  0  0  0  0  0
   92.9097   -1.2035   -0.1821 C   0  0  0  0  0  0  0  0  0  0  0  0
   94.2470   -1.3660   -0.2012 N   0  0  0  0  0  0  0  0  0  0  0  0
   91.2122    2.6967    0.4633 H   0  0  0  0  0  0  0  0  0  0  0  0
   93.1705    4.5048    0.7411 H   0  0  0  0  0  0  0  0  0  0  0  0
   94.9116    0.7103    0.0964 H   0  0  0  0  0  0  0  0  0  0  0  0
   95.8024    4.4040    0.7102 H   0  0  0  0  0  0  0  0  0  0  0  0
   98.3757    4.4680    0.7467 H   0  0  0  0  0  0  0  0  0  0  0  0
  100.3185    2.6158    0.4655 H   0  0  0  0  0  0  0  0  0  0  0  0
  100.2758   -2.6832   -0.4541 H   0  0  0  0  0  0  0  0  0  0  0  0
   98.3175   -4.4901   -0.7377 H   0  0  0  0  0  0  0  0  0  0  0  0
   96.5766   -0.6966   -0.0863 H   0  0  0  0  0  0  0  0  0  0  0  0
   95.6858   -4.3893   -0.7056 H   0  0  0  0  0  0  0  0  0  0  0  0
   93.1121   -4.4549   -0.7321 H   0  0  0  0  0  0  0  0  0  0  0  0
   91.1693   -2.6043   -0.4416 H   0  0  0  0  0  0  0  0  0  0  0  0
  103.2862   -0.0019   -0.0010 C   0  0  0  0  0  0  0  0  0  0  0  0
  103.9260    1.2286   -0.2469 C   0  0  0  0  0  0  0  0  0  0  0  0
  103.3165    2.4813   -0.5201 C   0  0  0  0  0  0  0  0  0  0  0  0
  104.3115    3.4029   -0.7029 C   0  0  0  0  0  0  0  0  0  0  0  0
  105.5581    2.7367   -0.5491 C   0  0  0  0  0  0  0  0  0  0  0  0
  105.2739    1.4269   -0.2756 N   0  0  0  0  0  0  0  0  0  0  0  0
  106.8226    3.3054   -0.6593 C   0  0  0  0  0  0  0  0  0  0  0  0
  108.0565    2.6870   -0.5288 C   0  0  0  0  0  0  0  0  0  0  0  0
  109.3162    3.3939   -0.6759 C   0  0  0  0  0  0  0  0  0  0  0  0
  110.2904    2.4785   -0.4929 C   0  0  0  0  0  0  0  0  0  0  0  0
  108.2855    1.3725   -0.2613 N   0  0  0  0  0  0  0  0  0  0  0  0
  109.6232    1.2163   -0.2335 C   0  0  0  0  0  0  0  0  0  0  0  0
  110.3039    0.0022   -0.0071 C   0  0  0  0  0  0  0  0  0  0  0  0
  109.6653   -1.2321    0.2209 C   0  0  0  0  0  0  0  0  0  0  0  0
  110.2757   -2.4887    0.4743 C   0  0  0  0  0  0  0  0  0  0  0  0
  109.2808   -3.4111    0.6538 C   0  0  0  0  0  0  0  0  0  0  0  0
  108.0338   -2.7417    0.5177 C   0  0  0  0  0  0  0  0  0  0  0  0
  108.3175   -1.4295    0.2554 N   0  0  0  0  0  0  0  0  0  0  0  0
  106.7691   -3.3077    0.6385 C   0  0  0  0  0  0  0  0  0  0  0  0
  105.5352   -2.6857    0.5242 C   0  0  0  0  0  0  0  0  0  0  0  0
  104.2760   -3.3895    0.6890 C   0  0  0  0  0  0  0  0  0  0  0  0
  103.3016   -2.4730    0.5129 C   0  0  0  0  0  0  0  0  0  0  0  0
  103.9675   -1.2137    0.2382 C   0  0  0  0  0  0  0  0  0  0  0  0
  105.3054   -1.3717    0.2546 N   0  0  0  0  0  0  0  0  0  0  0  0
  102.2530    2.6468   -0.5747 H   0  0  0  0  0  0  0  0  0  0  0  0
  104.2017    4.4519   -0.9274 H   0  0  0  0  0  0  0  0  0  0  0  0
  105.9624    0.6978   -0.1198 H   0  0  0  0  0  0  0  0  0  0  0  0
  106.8344    4.3684   -0.8797 H   0  0  0  0  0  0  0  0  0  0  0  0
  109.4094    4.4466   -0.8925 H   0  0  0  0  0  0  0  0  0  0  0  0
  111.3593    2.6152   -0.5314 H   0  0  0  0  0  0  0  0  0  0  0  0
  111.3396   -2.6559    0.5179 H   0  0  0  0  0  0  0  0  0  0  0  0
  109.3909   -4.4628    0.8649 H   0  0  0  0  0  0  0  0  0  0  0  0
  107.6288   -0.6979    0.1126 H   0  0  0  0  0  0  0  0  0  0  0  0
  106.7568   -4.3716    0.8546 H   0  0  0  0  0  0  0  0  0  0  0  0
  104.1834   -4.4410    0.9118 H   0  0  0  0  0  0  0  0  0  0  0  0
  102.2331   -2.6076    0.5652 H   0  0  0  0  0  0  0  0  0  0  0  0
  114.3348    0.0165   -0.0103 C   0  0  0  0  0  0  0  0  0  0  0  0
  114.9765    1.2381    0.2713 C   0  0  0  0  0  0  0  0  0  0  0  0
  114.3698    2.4846    0.5779 C   0  0  0  0  0  0  0  0  0  0  0  0
  115.3675    3.3942    0.8015 C   0  0  0  0  0  0  0  0  0  0  0  0
  116.6125    2.7266    0.6404 C   0  0  0  0  0  0  0  0  0  0  0  0
  116.3249    1.4287    0.3182 N   0  0  0  0  0  0  0  0  0  0  0  0
  117.8788    3.2809    0.7952 C   0  0  0  0  0  0  0  0  0  0  0  0
  119.1111    2.6606    0.6585 C   0  0  0  0  0  0  0  0  0  0  0  0
  120.3710    3.3507    0.8683 C   0  0  0  0  0  0  0  0  0  0  0  0
  121.3440    2.4420    0.6489 C   0  0  0  0  0  0  0  0  0  0  0  0
  119.3392    1.3619    0.3208 N   0  0  0  0  0  0  0  0  0  0  0  0
  120.6767    1.2015    0.3020 C   0  0  0  0  0  0  0  0  0  0  0  0
  121.3567    0.0042   -0.0056 C   0  0  0  0  0  0  0  0  0  0  0  0
  120.7133   -1.2095   -0.3183 C   0  0  0  0  0  0  0  0  0  0  0  0
  121.3182   -2.4472   -0.6607 C   0  0  0  0  0  0  0  0  0  0  0  0
  120.3202   -3.3564   -0.8846 C   0  0  0  0  0  0  0  0  0  0  0  0
  119.0761   -2.6969   -0.6886 C   0  0  0  0  0  0  0  0  0  0  0  0
  119.3648   -1.4033   -0.3501 N   0  0  0  0  0  0  0  0  0  0  0  0
  117.8102   -3.2582   -0.8190 C   0  0  0  0  0  0  0  0  0  0  0  0
  116.5775   -2.6456   -0.6543 C   0  0  0  0  0  0  0  0  0  0  0  0
  115.3165   -3.3437   -0.8303 C   0  0  0  0  0  0  0  0  0  0  0  0
  114.3439   -2.4360   -0.6050 C   0  0  0  0  0  0  0  0  0  0  0  0
  115.0132   -1.1877   -0.2905 C   0  0  0  0  0  0  0  0  0  0  0  0
  116.3507   -1.3444   -0.3270 N   0  0  0  0  0  0  0  0  0  0  0  0
  113.3064    2.6539    0.6250 H   0  0  0  0  0  0  0  0  0  0  0  0
  115.2607    4.4360    1.0587 H   0  0  0  0  0  0  0  0  0  0  0  0
  117.0111    0.7015    0.1445 H   0  0  0  0  0  0  0  0  0  0  0  0
  117.8936    4.3331    1.0624 H   0  0  0  0  0  0  0  0  0  0  0  0
  120.4653    4.3882    1.1483 H   0  0  0  0  0  0  0  0  0  0  0  0
  122.4123    2.5704    0.7157 H   0  0  0  0  0  0  0  0  0  0  0  0
  122.3809   -2.6118   -0.7309 H   0  0  0  0  0  0  0  0  0  0  0  0
  120.4264   -4.3925   -1.1639 H   0  0  0  0  0  0  0  0  0  0  0  0
  118.6792   -0.6819   -0.1518 H   0  0  0  0  0  0  0  0  0  0  0  0
  117.7962   -4.3096   -1.0896 H   0  0  0  0  0  0  0  0  0  0  0  0
  115.2215   -4.3855   -1.0936 H   0  0  0  0  0  0  0  0  0  0  0  0
  113.2748   -2.5692   -0.6484 H   0  0  0  0  0  0  0  0  0  0  0  0
  125.3876    0.0085   -0.0010 C   0  0  0  0  0  0  0  0  0  0  0  0
  126.0337    1.2591   -0.0599 C   0  0  0  0  0  0  0  0  0  0  0  0
  125.4326    2.5425   -0.1404 C   0  0  0  0  0  0  0  0  0  0  0  0
  126.4333    3.4756   -0.1652 C   0  0  0  0  0  0  0  0  0  0  0  0
  127.6752    2.7864   -0.1045 C   0  0  0  0  0  0  0  0  0  0  0  0
  127.3827    1.4515   -0.0467 N   0  0  0  0  0  0  0  0  0  0  0  0
  128.9425    3.3596   -0.0935 C   0  0  0  0  0  0  0  0  0  0  0  0
  130.1739    2.7248   -0.0466 C   0  0  0  0  0  0  0  0  0  0  0  0
  131.4338    3.4456   -0.0192 C   0  0  0  0  0  0  0  0  0  0  0  0
  132.4063    2.5109    0.0123 C   0  0  0  0  0  0  0  0  0  0  0  0
  130.4017    1.3830   -0.0292 N   0  0  0  0  0  0  0  0  0  0  0  0
  131.7390    1.2229   -0.0014 C   0  0  0  0  0  0  0  0  0  0  0  0
  132.4188   -0.0137    0.0096 C   0  0  0  0  0  0  0  0  0  0  0  0
  131.7725   -1.2657    0.0205 C   0  0  0  0  0  0  0  0  0  0  0  0
  132.3730   -2.5518    0.0148 C   0  0  0  0  0  0  0  0  0  0  0  0
  131.3721   -3.4845    0.0429 C   0  0  0  0  0  0  0  0  0  0  0  0
  130.1304   -2.7927    0.0618 C   0  0  0  0  0  0  0  0  0  0  0  0
  130.4233   -1.4567    0.0427 N   0  0  0  0  0  0  0  0  0  0  0  0
  128.8631   -3.3646    0.1035 C   0  0  0  0  0  0  0  0  0  0  0  0
  127.6314   -2.7285    0.1092 C   0  0  0  0  0  0  0  0  0  0  0  0
  126.3712   -3.4465    0.1744 C   0  0  0  0  0  0  0  0  0  0  0  0
  125.3987   -2.5118    0.1468 C   0  0  0  0  0  0  0  0  0  0  0  0
  126.0664   -1.2269    0.0603 C   0  0  0  0  0  0  0  0  0  0  0  0
  127.4038   -1.3881    0.0468 N   0  0  0  0  0  0  0  0  0  0  0  0
  124.3705    2.7210   -0.1786 H   0  0  0  0  0  0  0  0  0  0  0  0
  126.3303    4.5475   -0.2221 H   0  0  0  0  0  0  0  0  0  0  0  0
  128.0656    0.7022   -0.0002 H   0  0  0  0  0  0  0  0  0  0  0  0
  128.9588    4.4448   -0.1248 H   0  0  0  0  0  0  0  0  0  0  0  0
  131.5284    4.5202   -0.0208 H   0  0  0  0  0  0  0  0  0  0  0  0
  133.4743    2.6521    0.0481 H   0  0  0  0  0  0  0  0  0  0  0  0
  133.4349   -2.7327   -0.0118 H   0  0  0  0  0  0  0  0  0  0  0  0
  131.4750   -4.5579    0.0481 H   0  0  0  0  0  0  0  0  0  0  0  0
  129.7403   -0.7060    0.0453 H   0  0  0  0  0  0  0  0  0  0  0  0
  128.8470   -4.4497    0.1361 H   0  0  0  0  0  0  0  0  0  0  0  0
  126.2766   -4.5194    0.2360 H   0  0  0  0  0  0  0  0  0  0  0  0
  124.3303   -2.6506    0.1865 H   0  0  0  0  0  0  0  0  0  0  0  0
  136.4498   -0.0091    0.0050 C   0  0  0  0  0  0  0  0  0  0  0  0
  137.0946    1.1976   -0.3322 C   0  0  0  0  0  0  0  0  0  0  0  0
  136.4915    2.4300   -0.6959 C   0  0  0  0  0  0  0  0  0  0  0  0
  137.4905    3.3331   -0.9386 C   0  0  0  0  0  0  0  0  0  0  0  0
  138.7338    2.6750   -0.7333 C   0  0  0  0  0  0  0  0  0  0  0  0
  138.4434    1.3883   -0.3702 N   0  0  0  0  0  0  0  0  0  0  0  0
  140.0003    3.2317   -0.8770 C   0  0  0  0  0  0  0  0  0  0  0  0
  141.2327    2.6213   -0.7034 C   0  0  0  0  0  0  0  0  0  0  0  0
  142.4937    3.3151   -0.8954 C   0  0  0  0  0  0  0  0  0  0  0  0
  143.4662    2.4115   -0.6539 C   0  0  0  0  0  0  0  0  0  0  0  0
  141.4595    1.3265   -0.3511 N   0  0  0  0  0  0  0  0  0  0  0  0
  142.7969    1.1701   -0.3131 C   0  0  0  0  0  0  0  0  0  0  0  0
  143.4749   -0.0280   -0.0061 C   0  0  0  0  0  0  0  0  0  0  0  0
  142.8317   -1.2421    0.3032 C   0  0  0  0  0  0  0  0  0  0  0  0
  143.4370   -2.4814    0.6398 C   0  0  0  0  0  0  0  0  0  0  0  0
  142.4385   -3.3851    0.8828 C   0  0  0  0  0  0  0  0  0  0  0  0
  141.1942   -2.7206    0.7042 C   0  0  0  0  0  0  0  0  0  0  0  0
  141.4831   -1.4309    0.3522 N   0  0  0  0  0  0  0  0  0  0  0  0
  139.9275   -3.2705    0.8700 C   0  0  0  0  0  0  0  0  0  0  0  0
  138.6956   -2.6526    0.7194 C   0  0  0  0  0  0  0  0  0  0  0  0
  137.4358   -3.3386    0.9429 C   0  0  0  0  0  0  0  0  0  0  0  0
  136.4630   -2.4342    0.7061 C   0  0  0  0  0  0  0  0  0  0  0  0
  137.1300   -1.2006    0.3352 C   0  0  0  0  0  0  0  0  0  0  0  0
  138.4675   -1.3609    0.3563 N   0  0  0  0  0  0  0  0  0  0  0  0
  135.4291    2.5956   -0.7664 H   0  0  0  0  0  0  0  0  0  0  0  0
  137.3853    4.3641   -1.2363 H   0  0  0  0  0  0  0  0  0  0  0  0
  139.1281    0.6690   -0.1609 H   0  0  0  0  0  0  0  0  0  0  0  0
  140.0149    4.2779   -1.1673 H   0  0  0  0  0  0  0  0  0  0  0  0
  142.5888    4.3515   -1.1792 H   0  0  0  0  0  0  0  0  0  0  0  0
  144.5353    2.5433   -0.7019 H   0  0  0  0  0  0  0  0  0  0  0  0
  144.5002   -2.6502    0.6930 H   0  0  0  0  0  0  0  0  0  0  0  0
  142.5443   -4.4206    1.1645 H   0  0  0  0  0  0  0  0  0  0  0  0
  140.7980   -0.7068    0.1622 H   0  0  0  0  0  0  0  0  0  0  0  0
  139.9117   -4.3165    1.1604 H   0  0  0  0  0  0  0  0  0  0  0  0
  137.3416   -4.3706    1.2427 H   0  0  0  0  0  0  0  0  0  0  0  0
  135.3949   -2.5615    0.7753 H   0  0  0  0  0  0  0  0  0  0  0  0
  147.5057   -0.0084   -0.0015 C   0  0  0  0  0  0  0  0  0  0  0  0
  148.1437    1.2353    0.1694 C   0  0  0  0  0  0  0  0  0  0  0  0
  147.5321    2.5015    0.3666 C   0  0  0  0  0  0  0  0  0  0  0  0
  148.5257    3.4326    0.5010 C   0  0  0  0  0  0  0  0  0  0  0  0
  149.7735    2.7595    0.3928 C   0  0  0  0  0  0  0  0  0  0  0  0
  149.4912    1.4360    0.1924 N   0  0  0  0  0  0  0  0  0  0  0  0
  151.0373    3.3327    0.4821 C   0  0  0  0  0  0  0  0  0  0  0  0
  152.2718    2.7073    0.3948 C   0  0  0  0  0  0  0  0  0  0  0  0
  153.5306    3.4205    0.5186 C   0  0  0  0  0  0  0  0  0  0  0  0
  154.5057    2.4973    0.3886 C   0  0  0  0  0  0  0  0  0  0  0  0
  152.5020    1.3817    0.1936 N   0  0  0  0  0  0  0  0  0  0  0  0
  153.8405    1.2244    0.1823 C   0  0  0  0  0  0  0  0  0  0  0  0
  154.5215    0.0025    0.0069 C   0  0  0  0  0  0  0  0  0  0  0  0
  153.8830   -1.2397   -0.1737 C   0  0  0  0  0  0  0  0  0  0  0  0
  154.4944   -2.5042   -0.3813 C   0  0  0  0  0  0  0  0  0  0  0  0
  153.5009   -3.4355   -0.5162 C   0  0  0  0  0  0  0  0  0  0  0  0
  152.2533   -2.7640   -0.3978 C   0  0  0  0  0  0  0  0  0  0  0  0
  152.5354   -1.4414   -0.1923 N   0  0  0  0  0  0  0  0  0  0  0  0
  150.9894   -3.3389   -0.4803 C   0  0  0  0  0  0  0  0  0  0  0  0
  149.7551   -2.7149   -0.3851 C   0  0  0  0  0  0  0  0  0  0  0  0
  148.4960   -3.4290   -0.4997 C   0  0  0  0  0  0  0  0  0  0  0  0
  147.5212   -2.5057   -0.3669 C   0  0  0  0  0  0  0  0  0  0  0  0
  148.1870   -1.2318   -0.1693 C   0  0  0  0  0  0  0  0  0  0  0  0
  149.5250   -1.3887   -0.1857 N   0  0  0  0  0  0  0  0  0  0  0  0
  146.4680    2.6688    0.4055 H   0  0  0  0  0  0  0  0  0  0  0  0
  148.4142    4.4927    0.6641 H   0  0  0  0  0  0  0  0  0  0  0  0
  150.1810    0.6999    0.0813 H   0  0  0  0  0  0  0  0  0  0  0  0
  151.0486    4.4060    0.6454 H   0  0  0  0  0  0  0  0  0  0  0  0
  153.6224    4.4823    0.6847 H   0  0  0  0  0  0  0  0  0  0  0  0
  155.5740    2.6359    0.4307 H   0  0  0  0  0  0  0  0  0  0  0  0
  155.5584   -2.6705   -0.4273 H   0  0  0  0  0  0  0  0  0  0  0  0
  153.6123   -4.4945   -0.6862 H   0  0  0  0  0  0  0  0  0  0  0  0
  151.8459   -0.7061   -0.0748 H   0  0  0  0  0  0  0  0  0  0  0  0
  150.9786   -4.4120   -0.6447 H   0  0  0  0  0  0  0  0  0  0  0  0
  148.4036   -4.4914   -0.6625 H   0  0  0  0  0  0  0  0  0  0  0  0
  146.4525   -2.6446   -0.4020 H   0  0  0  0  0  0  0  0  0  0  0  0
  1  2  4  0  0  0  0
  2  3  4  0  0  0  0
  3  4  2  0  0  0  0
  4  5  4  0  0  0  0
  2  6  4  0  0  0  0
  5  6  4  0  0  0  0
  5  7  4  0  0  0  0
  7  8  4  0  0  0  0
  8  9  1  0  0  0  0
  9 10  2  0  0  0  0
  8 11  4  0  0  0  0
 10 12  1  0  0  0  0
 11 12  4  0  0  0  0
 12 13  4  0  0  0  0
 13 14  4  0  0  0  0
 14 15  4  0  0  0  0
 15 16  2  0  0  0  0
 16 17  4  0  0  0  0
 14 18  4  0  0  0  0
 17 18  4  0  0  0  0
 17 19  4  0  0  0  0
 19 20  4  0  0  0  0
 20 21  1  0  0  0  0
 21 22  2  0  0  0  0
  1 23  4  0  0  0  0
 22 23  1  0  0  0  0
 20 24  4  0  0  0  0
 23 24  4  0  0  0  0
  1 25  1  0  0  0  0
  3 26  1  0  0  0  0
  4 27  1  0  0  0  0
  6 28  1  0  0  0  0
  7 29  1  0  0  0  0
  9 30  1  0  0  0  0
 10 31  1  0  0  0  0
 15 32  1  0  0  0  0
 16 33  1  0  0  0  0
 18 34  1  0  0  0  0
 19 35  1  0  0  0  0
 21 36  1  0  0  0  0
 22 37  1  0  0  0  0
 38 39  4  0  0  0  0
 39 40  4  0  0  0  0
 40 41  2  0  0  0  0
 41 42  4  0  0  0  0
 39 43  4  0  0  0  0
 42 43  4  0  0  0  0
 42 44  4  0  0  0  0
 44 45  4  0  0  0  0
 45 46  1  0  0  0  0
 46 47  2  0  0  0  0
 45 48  4  0  0  0  0
 47 49  1  0  0  0  0
 48 49  4  0  0  0  0
 49 50  4  0  0  0  0
 50 51  4  0  0  0  0
 51 52  4  0  0  0  0
 52 53  2  0  0  0  0
 53 54  4  0  0  0  0
 51 55  4  0  0  0  0
 54 55  4  0  0  0  0
 54 56  4  0  0  0  0
 56 57  4  0  0  0  0
 57 58  1  0  0  0  0
 58 59  2  0  0  0  0
 38 60  4  0  0  0  0
 59 60  1  0  0  0  0
 57 61  4  0  0  0  0
 60 61  4  0  0  0  0
 38 62  1  0  0  0  0
 40 63  1  0  0  0  0
 41 64  1  0  0  0  0
 43 65  1  0  0  0  0
 44 66  1  0  0  0  0
 46 67  1  0  0  0  0
 47 68  1  0  0  0  0
 52 69  1  0  0  0  0
 53 70  1  0  0  0  0
 55 71  1  0  0  0  0
 56 72  1  0  0  0  0
 58 73  1  0  0  0  0
 59 74  1  0  0  0  0
 13 75  4  0  0  0  0
 75 76  3  0  0  0  0
 77 78  3  0  0  0  0
 79 80  3  0  0  0  0
 81 82  3  0  0  0  0
 83 84  3  0  0  0  0
 85 86  3  0  0  0  0
 87 88  3  0  0  0  0
 50 90  4  0  0  0  0
 89 90  3  0  0  0  0
 76 91  4  0  0  0  0
 91 92  4  0  0  0  0
 92 93  4  0  0  0  0
 93 94  2  0  0  0  0
 94 95  4  0  0  0  0
 92 96  4  0  0  0  0
 95 96  4  0  0  0  0
 95 97  4  0  0  0  0
 97 98  4  0  0  0  0
 98 99  1  0  0  0  0
 99100  2  0  0  0  0
 98101  4  0  0  0  0
100102  1  0  0  0  0
101102  4  0  0  0  0
 77103  4  0  0  0  0
102103  4  0  0  0  0
103104  4  0  0  0  0
104105  4  0  0  0  0
105106  2  0  0  0  0
106107  4  0  0  0  0
104108  4  0  0  0  0
107108  4  0  0  0  0
107109  4  0  0  0  0
109110  4  0  0  0  0
110111  1  0  0  0  0
111112  2  0  0  0  0
 91113  4  0  0  0  0
112113  1  0  0  0  0
110114  4  0  0  0  0
113114  4  0  0  0  0
 93115  1  0  0  0  0
 94116  1  0  0  0  0
 96117  1  0  0  0  0
 97118  1  0  0  0  0
 99119  1  0  0  0  0
100120  1  0  0  0  0
105121  1  0  0  0  0
106122  1  0  0  0  0
108123  1  0  0  0  0
109124  1  0  0  0  0
111125  1  0  0  0  0
112126  1  0  0  0  0
 78127  4  0  0  0  0
127128  4  0  0  0  0
128129  4  0  0  0  0
129130  2  0  0  0  0
130131  4  0  0  0  0
128132  4  0  0  0  0
131132  4  0  0  0  0
131133  4  0  0  0  0
133134  4  0  0  0  0
134135  1  0  0  0  0
135136  2  0  0  0  0
134137  4  0  0  0  0
136138  1  0  0  0  0
137138  4  0  0  0  0
 79139  4  0  0  0  0
138139  4  0  0  0  0
139140  4  0  0  0  0
140141  4  0  0  0  0
141142  2  0  0  0  0
142143  4  0  0  0  0
140144  4  0  0  0  0
143144  4  0  0  0  0
143145  4  0  0  0  0
145146  4  0  0  0  0
146147  1  0  0  0  0
147148  2  0  0  0  0
127149  4  0  0  0  0
148149  1  0  0  0  0
146150  4  0  0  0  0
149150  4  0  0  0  0
129151  1  0  0  0  0
130152  1  0  0  0  0
132153  1  0  0  0  0
133154  1  0  0  0  0
135155  1  0  0  0  0
136156  1  0  0  0  0
141157  1  0  0  0  0
142158  1  0  0  0  0
144159  1  0  0  0  0
145160  1  0  0  0  0
147161  1  0  0  0  0
148162  1  0  0  0  0
 80163  4  0  0  0  0
163164  4  0  0  0  0
164165  4  0  0  0  0
165166  2  0  0  0  0
166167  4  0  0  0  0
164168  4  0  0  0  0
167168  4  0  0  0  0
167169  4  0  0  0  0
169170  4  0  0  0  0
170171  1  0  0  0  0
171172  2  0  0  0  0
170173  4  0  0  0  0
172174  1  0  0  0  0
173174  4  0  0  0  0
 81175  4  0  0  0  0
174175  4  0  0  0  0
175176  4  0  0  0  0
176177  4  0  0  0  0
177178  2  0  0  0  0
178179  4  0  0  0  0
176180  4  0  0  0  0
179180  4  0  0  0  0
179181  4  0  0  0  0
181182  4  0  0  0  0
182183  1  0  0  0  0
183184  2  0  0  0  0
163185  4  0  0  0  0
184185  1  0  0  0  0
182186  4  0  0  0  0
185186  4  0  0  0  0
165187  1  0  0  0  0
166188  1  0  0  0  0
168189  1  0  0  0  0
169190  1  0  0  0  0
171191  1  0  0  0  0
172192  1  0  0  0  0
177193  1  0  0  0  0
178194  1  0  0  0  0
180195  1  0  0  0  0
181196  1  0  0  0  0
183197  1  0  0  0  0
184198  1  0  0  0  0
 82199  4  0  0  0  0
199200  4  0  0  0  0
200201  4  0  0  0  0
201202  2  0  0  0  0
202203  4  0  0  0  0
200204  4  0  0  0  0
203204  4  0  0  0  0
203205  4  0  0  0  0
205206  4  0  0  0  0
206207  1  0  0  0  0
207208  2  0  0  0  0
206209  4  0  0  0  0
208210  1  0  0  0  0
209210  4  0  0  0  0
 83211  4  0  0  0  0
210211  4  0  0  0  0
211212  4  0  0  0  0
212213  4  0  0  0  0
213214  2  0  0  0  0
214215  4  0  0  0  0
212216  4  0  0  0  0
215216  4  0  0  0  0
215217  4  0  0  0  0
217218  4  0  0  0  0
218219  1  0  0  0  0
219220  2  0  0  0  0
199221  4  0  0  0  0
220221  1  0  0  0  0
218222  4  0  0  0  0
221222  4  0  0  0  0
201223  1  0  0  0  0
202224  1  0  0  0  0
204225  1  0  0  0  0
205226  1  0  0  0  0
207227  1  0  0  0  0
208228  1  0  0  0  0
213229  1  0  0  0  0
214230  1  0  0  0  0
216231  1  0  0  0  0
217232  1  0  0  0  0
219233  1  0  0  0  0
220234  1  0  0  0  0
 84235  4  0  0  0  0
235236  4  0  0  0  0
236237  4  0  0  0  0
237238  2  0  0  0  0
238239  4  0  0  0  0
236240  4  0  0  0  0
239240  4  0  0  0  0
239241  4  0  0  0  0
241242  4  0  0  0  0
242243  1  0  0  0  0
243244  2  0  0  0  0
242245  4  0  0  0  0
244246  1  0  0  0  0
245246  4  0  0  0  0
 85247  4  0  0  0  0
246247  4  0  0  0  0
247248  4  0  0  0  0
248249  4  0  0  0  0
249250  2  0  0  0  0
250251  4  0  0  0  0
248252  4  0  0  0  0
251252  4  0  0  0  0
251253  4  0  0  0  0
253254  4  0  0  0  0
254255  1  0  0  0  0
255256  2  0  0  0  0
235257  4  0  0  0  0
256257  1  0  0  0  0
254258  4  0  0  0  0
257258  4  0  0  0  0
237259  1  0  0  0  0
238260  1  0  0  0  0
240261  1  0  0  0  0
241262  1  0  0  0  0
243263  1  0  0  0  0
244264  1  0  0  0  0
249265  1  0  0  0  0
250266  1  0  0  0  0
252267  1  0  0  0  0
253268  1  0  0  0  0
255269  1  0  0  0  0
256270  1  0  0  0  0
 86271  4  0  0  0  0
271272  4  0  0  0  0
272273  4  0  0  0  0
273274  2  0  0  0  0
274275  4  0  0  0  0
272276  4  0  0  0  0
275276  4  0  0  0  0
275277  4  0  0  0  0
277278  4  0  0  0  0
278279  1  0  0  0  0
279280  2  0  0  0  0
278281  4  0  0  0  0
280282  1  0  0  0  0
281282  4  0  0  0  0
 87283  4  0  0  0  0
282283  4  0  0  0  0
283284  4  0  0  0  0
284285  4  0  0  0  0
285286  2  0  0  0  0
286287  4  0  0  0  0
284288  4  0  0  0  0
287288  4  0  0  0  0
287289  4  0  0  0  0
289290  4  0  0  0  0
290291  1  0  0  0  0
291292  2  0  0  0  0
271293  4  0  0  0  0
292293  1  0  0  0  0
290294  4  0  0  0  0
293294  4  0  0  0  0
273295  1  0  0  0  0
274296  1  0  0  0  0
276297  1  0  0  0  0
277298  1  0  0  0  0
279299  1  0  0  0  0
280300  1  0  0  0  0
285301  1  0  0  0  0
286302  1  0  0  0  0
288303  1  0  0  0  0
289304  1  0  0  0  0
291305  1  0  0  0  0
292306  1  0  0  0  0
 88307  4  0  0  0  0
307308  4  0  0  0  0
308309  4  0  0  0  0
309310  2  0  0  0  0
310311  4  0  0  0  0
308312  4  0  0  0  0
311312  4  0  0  0  0
311313  4  0  0  0  0
313314  4  0  0  0  0
314315  1  0  0  0  0
315316  2  0  0  0  0
314317  4  0  0  0  0
316318  1  0  0  0  0
317318  4  0  0  0  0
 89319  4  0  0  0  0
318319  4  0  0  0  0
319320  4  0  0  0  0
320321  4  0  0  0  0
321322  2  0  0  0  0
322323  4  0  0  0  0
320324  4  0  0  0  0
323324  4  0  0  0  0
323325  4  0  0  0  0
325326  4  0  0  0  0
326327  1  0  0  0  0
327328  2  0  0  0  0
307329  4  0  0  0  0
328329  1  0  0  0  0
326330  4  0  0  0  0
329330  4  0  0  0  0
309331  1  0  0  0  0
310332  1  0  0  0  0
312333  1  0  0  0  0
313334  1  0  0  0  0
315335  1  0  0  0  0
316336  1  0  0  0  0
321337  1  0  0  0  0
322338  1  0  0  0  0
324339  1  0  0  0  0
325340  1  0  0  0  0
327341  1  0  0  0  0
328342  1  0  0  0  0
M  END
