262

C 48.403764 0.025983 0.090002
C 49.134161 -1.351609 0.060788
C 48.528875 -2.584214 0.151081
C 49.551841 -3.559994 0.027576
C 50.747665 -2.888445 -0.138701
N 50.486722 -1.542919 -0.063498
C 52.169729 -3.538347 -0.398505
C 53.298740 -2.781284 -0.350120
C 54.602687 -3.332983 -0.656493
C 55.502847 -2.362140 -0.556572
N 53.493487 -1.457274 -0.057800
C 54.823416 -1.142920 -0.164792
C 55.489687 0.026777 0.027034
C 54.712362 1.331135 0.488456
C 55.254496 2.405519 1.165829
C 54.228910 3.369833 1.329275
C 53.086202 2.852558 0.757879
C 51.674892 3.569459 0.668702
C 51.638279 5.044141 0.774716
C 51.948039 5.838171 -0.335319
C 51.921586 7.231437 -0.234201
C 51.586222 7.839529 0.982504
C 51.568352 9.320675 1.046947
O 51.241035 9.791631 2.265458
O 51.813731 10.088987 0.134216
C 51.278193 7.047737 2.096476
C 51.305851 5.655294 1.990140
C 50.550510 2.828478 0.490802
C 49.227451 3.418246 0.387620
C 48.343517 2.436663 0.233979
C 49.067133 1.189280 0.227073
N 50.388138 1.476678 0.371394
N 53.377340 1.590868 0.294974
C 52.207855 -4.977651 -0.746039
C 51.941051 -5.391243 -2.056418
C 51.959553 -6.748887 -2.386026
C 52.248742 -7.703002 -1.401396
C 52.280107 -9.154384 -1.702360
O 52.013465 -9.432268 -2.992313
O 52.514761 -10.052316 -0.913173
C 52.517526 -7.292305 -0.089355
C 52.494027 -5.933952 0.235500
H 47.325720 0.031255 -0.016412
H 47.471488 -2.761184 0.273715
H 49.425248 -4.632359 0.033684
H 51.186301 -0.805537 -0.099481
H 54.816411 -4.349677 -0.933431
H 56.555432 -2.484697 -0.735640
H 56.277797 2.494526 1.497149
H 54.316374 4.333526 1.807171
H 52.205705 5.356454 -1.276419
H 52.162001 7.831751 -1.107816
H 51.271819 10.761489 2.144726
H 51.013382 7.495854 3.049130
H 51.065343 5.029259 2.847344
H 48.995694 4.466919 0.426267
H 47.279631 2.546270 0.127994
H 52.693371 0.937332 -0.077311
H 51.720849 -4.640874 -2.812862
H 51.747562 -7.042809 -3.409751
H 52.072651 -10.407997 -3.026489
H 52.746803 -8.019758 0.685236
H 52.700712 -5.603736 1.250985
C 98.946338 -0.000746 0.083674
C 98.215941 1.243718 0.675218
C 98.821227 2.305001 1.308578
C 97.798261 3.232580 1.635684
C 96.602437 2.706865 1.185961
N 96.863380 1.470445 0.649901
C 95.180374 3.404268 1.245124
C 94.051362 2.705871 0.948936
C 92.747415 3.336375 0.922444
C 91.847255 2.423783 0.576471
N 93.856615 1.391336 0.616594
C 92.526686 1.158321 0.380015
C 91.860415 0.026777 0.027034
C 92.637740 -1.346011 -0.145345
C 92.095606 -2.610059 -0.021583
C 93.121192 -3.545296 -0.307847
C 94.263900 -2.826737 -0.586665
C 95.675211 -3.427559 -0.987806
C 95.711823 -4.793239 -1.554234
C 95.402063 -5.005290 -2.902453
C 95.428516 -6.296003 -3.436754
C 95.763880 -7.385070 -2.621843
C 95.781750 -8.737891 -3.228327
O 96.109067 -9.705188 -2.350315
O 95.536371 -9.015416 -4.388655
C 96.071909 -7.176784 -1.271108
C 96.044251 -5.884468 -0.741841
C 96.799593 -2.685468 -0.814596
C 98.122651 -3.166370 -1.171255
C 99.006585 -2.220093 -0.868484
C 98.282970 -1.102020 -0.315380
N 96.961964 -1.423618 -0.315237
N 93.972762 -1.491424 -0.434743
C 95.142248 4.846615 1.579806
C 95.409051 5.803827 0.593959
C 95.390549 7.165144 0.908050
C 95.101360 7.576515 2.215952
C 95.069995 9.008776 2.597676
O 95.336637 9.835527 1.569240
O 94.835341 9.457556 3.705690
C 94.832577 6.621145 3.204584
C 94.856075 5.261324 2.885925
H 100.024382 0.042253 -0.013808
H 99.878614 2.408202 1.497541
H 97.924854 4.188378 2.121948
H 96.163801 0.827467 0.287124
H 92.533692 4.369317 1.130747
H 90.794670 2.613619 0.471360
H 91.072305 -2.838168 0.234660
H 93.033728 -4.620966 -0.312760
H 95.144397 -4.152754 -3.527676
H 95.188101 -6.440902 -4.486794
H 96.078283 -10.517966 -2.893078
H 96.336720 -8.004467 -0.620492
H 96.284760 -5.709221 0.305063
H 98.354408 -4.121058 -1.606893
H 100.070471 -2.270546 -1.012363
H 94.656731 -0.740342 -0.474491
H 95.629254 5.472267 -0.418627
H 95.602540 7.886865 0.124774
H 95.277451 10.723009 1.976170
H 94.603300 6.924085 4.223116
H 94.649390 4.510857 3.645564
C 59.066400 0.039213 0.029475
C 57.814130 0.020033 0.025127
C 60.380068 0.038448 0.031408
C 61.883202 0.020033 0.025127
C 72.937788 0.039213 0.029475
C 71.685518 0.020033 0.025127
C 74.251457 0.038448 0.031408
C 75.754590 0.020033 0.025127
C 86.809177 0.039213 0.029475
C 85.556906 0.020033 0.025127
C 88.122845 0.038448 0.031408
C 89.625978 0.020033 0.025127
C 63.149994 -0.029147 -0.029901
C 63.944374 0.763859 -1.148006
C 63.440071 1.227056 -2.346186
C 64.477639 1.947055 -2.992037
C 65.584649 1.894961 -2.171103
N 65.272091 1.109691 -1.089847
C 66.973189 2.613907 -2.418036
C 68.108684 2.112723 -1.864971
C 69.395297 2.761653 -2.012661
C 70.303694 2.043709 -1.360957
N 68.317232 1.001467 -1.096499
C 69.641928 0.900638 -0.765194
C 70.306122 -0.029147 -0.029901
C 69.511445 -1.249229 0.594417
C 70.014247 -2.502827 0.877803
C 68.976267 -3.245125 1.497290
C 67.870819 -2.423476 1.566695
C 66.483205 -2.769502 2.245111
C 66.495716 -3.730389 3.371259
C 66.057348 -5.047980 3.187654
C 66.083992 -5.954666 4.250036
C 66.553885 -5.548649 5.505671
C 66.565961 -6.542240 6.606073
O 67.030130 -6.040031 7.766216
O 66.208132 -7.704727 6.535250
C 66.996726 -4.232798 5.692234
C 66.967778 -3.329495 4.626661
C 65.347190 -2.152690 1.826549
C 64.061286 -2.389176 2.449931
C 63.152731 -1.642250 1.831889
C 63.813930 -0.891354 0.783780
N 65.137954 -1.236502 0.833681
N 68.184153 -1.240130 0.946440
C 66.964797 3.856370 -3.223065
C 66.494786 5.051519 -2.666371
C 66.471887 6.222825 -3.427735
C 66.917925 6.204754 -4.755523
C 66.877104 7.469597 -5.528086
O 67.325065 7.331642 -6.790773
O 66.490877 8.552521 -5.125270
C 67.385755 5.009924 -5.317590
C 67.406219 3.841267 -4.552472
H 62.432880 1.083668 -2.707012
H 64.417539 2.462101 -3.938884
H 65.931492 0.797204 -0.383021
H 69.591392 3.673832 -2.546972
H 71.348209 2.288026 -1.295194
H 71.020553 -2.840641 0.681827
H 69.034884 -4.257034 1.868849
H 65.692201 -5.352857 2.208713
H 65.736433 -6.971613 4.089459
H 66.974549 -6.801098 8.377776
H 67.366245 -3.894921 6.655603
H 67.310524 -2.305318 4.761871
H 63.865471 -3.046947 3.277575
H 62.108485 -1.610996 2.084132
H 67.525412 -0.494811 0.740028
H 66.149188 5.056639 -1.634369
H 66.105070 7.141297 -2.977393
H 67.236522 8.233925 -7.157612
H 67.737168 4.971162 -6.344055
H 67.769361 2.907648 -4.978305
C 77.021382 -0.029147 -0.029901
C 77.815763 0.763859 -1.148006
C 77.311459 1.227056 -2.346186
C 78.349027 1.947055 -2.992037
C 79.456037 1.894961 -2.171103
N 79.143479 1.109691 -1.089847
C 80.844578 2.613907 -2.418036
C 81.980073 2.112723 -1.864971
C 83.266685 2.761653 -2.012661
C 84.175082 2.043709 -1.360957
N 82.188620 1.001467 -1.096499
C 83.513316 0.900638 -0.765194
C 84.177511 -0.029147 -0.029901
C 83.382833 -1.249229 0.594417
C 83.885635 -2.502827 0.877803
C 82.847655 -3.245125 1.497290
C 81.742207 -2.423476 1.566695
C 80.354593 -2.769502 2.245111
C 80.367104 -3.730389 3.371259
C 79.928736 -5.047980 3.187654
C 79.955381 -5.954666 4.250036
C 80.425273 -5.548649 5.505671
C 80.437349 -6.542240 6.606073
O 80.901518 -6.040031 7.766216
O 80.079520 -7.704727 6.535250
C 80.868114 -4.232798 5.692234
C 80.839167 -3.329495 4.626661
C 79.218578 -2.152690 1.826549
C 77.932675 -2.389176 2.449931
C 77.024119 -1.642250 1.831889
C 77.685318 -0.891354 0.783780
N 79.009343 -1.236502 0.833681
N 82.055541 -1.240130 0.946440
C 80.836185 3.856370 -3.223065
C 80.366174 5.051519 -2.666371
C 80.343276 6.222825 -3.427735
C 80.789314 6.204754 -4.755523
C 80.748492 7.469597 -5.528086
O 81.196453 7.331642 -6.790773
O 80.362265 8.552521 -5.125270
C 81.257143 5.009924 -5.317590
C 81.277607 3.841267 -4.552472
H 76.304269 1.083668 -2.707012
H 78.288927 2.462101 -3.938884
H 79.802880 0.797204 -0.383021
H 83.462780 3.673832 -2.546972
H 85.219598 2.288026 -1.295194
H 84.891942 -2.840641 0.681827
H 82.906273 -4.257034 1.868849
H 79.563590 -5.352857 2.208713
H 79.607821 -6.971613 4.089459
H 80.845937 -6.801098 8.377776
H 81.237633 -3.894921 6.655603
H 81.181912 -2.305318 4.761871
H 77.736860 -3.046947 3.277575
H 75.979874 -1.610996 2.084132
H 81.396801 -0.494811 0.740028
H 80.020577 5.056639 -1.634369
H 79.976458 7.141297 -2.977393
H 81.107910 8.233925 -7.157612
H 81.608556 4.971162 -6.344055
H 81.640750 2.907648 -4.978305
