 xtb: 6.5.1 (b24c23e)
          07302206563D

262289  0     0  0            999 V2000
   50.1246   -0.0660    0.0029 C   0  0  0  0  0  0  0  0  0  0  0  0
   50.7353   -1.3028   -0.1588 C   0  0  0  0  0  0  0  0  0  0  0  0
   50.0846   -2.5616   -0.2933 C   0  0  0  0  0  0  0  0  0  0  0  0
   51.0472   -3.5205   -0.4359 C   0  0  0  0  0  0  0  0  0  0  0  0
   52.3176   -2.8769   -0.4026 C   0  0  0  0  0  0  0  0  0  0  0  0
   52.0786   -1.5440   -0.2255 N   0  0  0  0  0  0  0  0  0  0  0  0
   53.5820   -3.4693   -0.4982 C   0  0  0  0  0  0  0  0  0  0  0  0
   54.7969   -2.7841   -0.4126 C   0  0  0  0  0  0  0  0  0  0  0  0
   56.0963   -3.4138   -0.5682 C   0  0  0  0  0  0  0  0  0  0  0  0
   57.0141   -2.4353   -0.4279 C   0  0  0  0  0  0  0  0  0  0  0  0
   54.9469   -1.4480   -0.2032 N   0  0  0  0  0  0  0  0  0  0  0  0
   56.2744   -1.2086   -0.1996 C   0  0  0  0  0  0  0  0  0  0  0  0
   56.9071    0.0364   -0.0173 C   0  0  0  0  0  0  0  0  0  0  0  0
   56.2717    1.2787    0.1617 C   0  0  0  0  0  0  0  0  0  0  0  0
   56.9161    2.5272    0.3706 C   0  0  0  0  0  0  0  0  0  0  0  0
   55.9491    3.4841    0.5057 C   0  0  0  0  0  0  0  0  0  0  0  0
   54.6827    2.8492    0.3740 C   0  0  0  0  0  0  0  0  0  0  0  0
   53.4192    3.4430    0.4647 C   0  0  0  0  0  0  0  0  0  0  0  0
   53.3836    4.9095    0.6738 C   0  0  0  0  0  0  0  0  0  0  0  0
   53.9473    5.7741   -0.2686 C   0  0  0  0  0  0  0  0  0  0  0  0
   53.9095    7.1421   -0.0718 C   0  0  0  0  0  0  0  0  0  0  0  0
   53.3131    7.6721    1.0741 C   0  0  0  0  0  0  0  0  0  0  0  0
   53.3006    9.1449    1.2419 C   0  0  0  0  0  0  0  0  0  0  0  0
   52.7035    9.5515    2.3725 O   0  0  0  0  0  0  0  0  0  0  0  0
   53.7741    9.9234    0.4537 O   0  0  0  0  0  0  0  0  0  0  0  0
   52.7517    6.8133    2.0196 C   0  0  0  0  0  0  0  0  0  0  0  0
   52.7855    5.4448    1.8177 C   0  0  0  0  0  0  0  0  0  0  0  0
   52.2036    2.7563    0.3728 C   0  0  0  0  0  0  0  0  0  0  0  0
   50.8971    3.3952    0.4135 C   0  0  0  0  0  0  0  0  0  0  0  0
   49.9862    2.4100    0.2844 C   0  0  0  0  0  0  0  0  0  0  0  0
   50.7348    1.1719    0.1547 C   0  0  0  0  0  0  0  0  0  0  0  0
   52.0667    1.4200    0.2050 N   0  0  0  0  0  0  0  0  0  0  0  0
   54.9296    1.5171    0.1739 N   0  0  0  0  0  0  0  0  0  0  0  0
   53.6153   -4.9361   -0.7094 C   0  0  0  0  0  0  0  0  0  0  0  0
   53.0328   -5.4989   -1.8481 C   0  0  0  0  0  0  0  0  0  0  0  0
   53.0631   -6.8675   -2.0512 C   0  0  0  0  0  0  0  0  0  0  0  0
   53.6736   -7.6986   -1.1115 C   0  0  0  0  0  0  0  0  0  0  0  0
   53.7292   -9.1704   -1.2806 C   0  0  0  0  0  0  0  0  0  0  0  0
   53.1488   -9.6031   -2.4103 O   0  0  0  0  0  0  0  0  0  0  0  0
   54.2400   -9.9268   -0.4943 O   0  0  0  0  0  0  0  0  0  0  0  0
   54.2543   -7.1411    0.0293 C   0  0  0  0  0  0  0  0  0  0  0  0
   54.2274   -5.7730    0.2275 C   0  0  0  0  0  0  0  0  0  0  0  0
   49.0393   -0.0776    0.0085 H   0  0  0  0  0  0  0  0  0  0  0  0
   49.0156   -2.7020   -0.2753 H   0  0  0  0  0  0  0  0  0  0  0  0
   50.8969   -4.5823   -0.5451 H   0  0  0  0  0  0  0  0  0  0  0  0
   52.8040   -0.8388   -0.1496 H   0  0  0  0  0  0  0  0  0  0  0  0
   56.2620   -4.4592   -0.7716 H   0  0  0  0  0  0  0  0  0  0  0  0
   58.0885   -2.5083   -0.4798 H   0  0  0  0  0  0  0  0  0  0  0  0
   57.9844    2.6643    0.4175 H   0  0  0  0  0  0  0  0  0  0  0  0
   56.0967    4.5354    0.6911 H   0  0  0  0  0  0  0  0  0  0  0  0
   54.3983    5.3661   -1.1661 H   0  0  0  0  0  0  0  0  0  0  0  0
   54.3390    7.8187   -0.8025 H   0  0  0  0  0  0  0  0  0  0  0  0
   52.7372   10.5213    2.4065 H   0  0  0  0  0  0  0  0  0  0  0  0
   52.2914    7.2199    2.9124 H   0  0  0  0  0  0  0  0  0  0  0  0
   52.3609    4.7773    2.5590 H   0  0  0  0  0  0  0  0  0  0  0  0
   50.7258    4.4549    0.5130 H   0  0  0  0  0  0  0  0  0  0  0  0
   48.9101    2.4829    0.2664 H   0  0  0  0  0  0  0  0  0  0  0  0
   54.2070    0.8134    0.0631 H   0  0  0  0  0  0  0  0  0  0  0  0
   52.5708   -4.8527   -2.5861 H   0  0  0  0  0  0  0  0  0  0  0  0
   52.6148   -7.2951   -2.9402 H   0  0  0  0  0  0  0  0  0  0  0  0
   53.2283  -10.5701   -2.4464 H   0  0  0  0  0  0  0  0  0  0  0  0
   54.7233   -7.7965    0.7550 H   0  0  0  0  0  0  0  0  0  0  0  0
   54.6674   -5.3436    1.1203 H   0  0  0  0  0  0  0  0  0  0  0  0
   97.2111    0.0739    0.0498 C   0  0  0  0  0  0  0  0  0  0  0  0
   96.5957    1.2584    0.4332 C   0  0  0  0  0  0  0  0  0  0  0  0
   97.2409    2.4528    0.8613 C   0  0  0  0  0  0  0  0  0  0  0  0
   96.2746    3.3800    1.1319 C   0  0  0  0  0  0  0  0  0  0  0  0
   95.0076    2.7854    0.8664 C   0  0  0  0  0  0  0  0  0  0  0  0
   95.2520    1.5047    0.4595 N   0  0  0  0  0  0  0  0  0  0  0  0
   93.7413    3.3648    1.0033 C   0  0  0  0  0  0  0  0  0  0  0  0
   92.5301    2.7102    0.7619 C   0  0  0  0  0  0  0  0  0  0  0  0
   91.2309    3.3545    0.8402 C   0  0  0  0  0  0  0  0  0  0  0  0
   90.3163    2.4060    0.5517 C   0  0  0  0  0  0  0  0  0  0  0  0
   92.3841    1.4045    0.4089 N   0  0  0  0  0  0  0  0  0  0  0  0
   91.0579    1.1875    0.2891 C   0  0  0  0  0  0  0  0  0  0  0  0
   90.4284   -0.0345   -0.0180 C   0  0  0  0  0  0  0  0  0  0  0  0
   91.0686   -1.2481   -0.3276 C   0  0  0  0  0  0  0  0  0  0  0  0
   90.4302   -2.4820   -0.6234 C   0  0  0  0  0  0  0  0  0  0  0  0
   91.4010   -3.4027   -0.9050 C   0  0  0  0  0  0  0  0  0  0  0  0
   92.6635   -2.7557   -0.7963 C   0  0  0  0  0  0  0  0  0  0  0  0
   93.9288   -3.3204   -0.9913 C   0  0  0  0  0  0  0  0  0  0  0  0
   93.9687   -4.7357   -1.4277 C   0  0  0  0  0  0  0  0  0  0  0  0
   93.3751   -5.1197   -2.6336 C   0  0  0  0  0  0  0  0  0  0  0  0
   93.4211   -6.4384   -3.0461 C   0  0  0  0  0  0  0  0  0  0  0  0
   94.0557   -7.4005   -2.2580 C   0  0  0  0  0  0  0  0  0  0  0  0
   94.0788   -8.8011   -2.7430 C   0  0  0  0  0  0  0  0  0  0  0  0
   94.7156   -9.6451   -1.9171 O   0  0  0  0  0  0  0  0  0  0  0  0
   93.5808   -9.1715   -3.7757 O   0  0  0  0  0  0  0  0  0  0  0  0
   94.6451   -7.0238   -1.0507 C   0  0  0  0  0  0  0  0  0  0  0  0
   94.6029   -5.7022   -0.6426 C   0  0  0  0  0  0  0  0  0  0  0  0
   95.1419   -2.6473   -0.8095 C   0  0  0  0  0  0  0  0  0  0  0  0
   96.4499   -3.2314   -1.0645 C   0  0  0  0  0  0  0  0  0  0  0  0
   97.3574   -2.2798   -0.7681 C   0  0  0  0  0  0  0  0  0  0  0  0
   96.6050   -1.1113   -0.3453 C   0  0  0  0  0  0  0  0  0  0  0  0
   95.2744   -1.3661   -0.3926 N   0  0  0  0  0  0  0  0  0  0  0  0
   92.4111   -1.4596   -0.4339 N   0  0  0  0  0  0  0  0  0  0  0  0
   93.6974    4.7798    1.4417 C   0  0  0  0  0  0  0  0  0  0  0  0
   94.3065    5.7795    0.6789 C   0  0  0  0  0  0  0  0  0  0  0  0
   94.2640    7.1011    1.0876 C   0  0  0  0  0  0  0  0  0  0  0  0
   93.6140    7.4441    2.2736 C   0  0  0  0  0  0  0  0  0  0  0  0
   93.5425    8.8439    2.7565 C   0  0  0  0  0  0  0  0  0  0  0  0
   94.1542    9.7228    1.9481 O   0  0  0  0  0  0  0  0  0  0  0  0
   92.9943    9.1853    3.7735 O   0  0  0  0  0  0  0  0  0  0  0  0
   93.0063    6.4482    3.0406 C   0  0  0  0  0  0  0  0  0  0  0  0
   93.0456    5.1295    2.6277 C   0  0  0  0  0  0  0  0  0  0  0  0
   98.2963    0.0854    0.0619 H   0  0  0  0  0  0  0  0  0  0  0  0
   98.3087    2.5717    0.9524 H   0  0  0  0  0  0  0  0  0  0  0  0
   96.4204    4.3854    1.4920 H   0  0  0  0  0  0  0  0  0  0  0  0
   94.5297    0.8351    0.2161 H   0  0  0  0  0  0  0  0  0  0  0  0
   91.0639    4.3944    1.0693 H   0  0  0  0  0  0  0  0  0  0  0  0
   89.2430    2.4983    0.5067 H   0  0  0  0  0  0  0  0  0  0  0  0
   89.3632   -2.6360   -0.6158 H   0  0  0  0  0  0  0  0  0  0  0  0
   91.2590   -4.4411   -1.1561 H   0  0  0  0  0  0  0  0  0  0  0  0
   92.8950   -4.3721   -3.2548 H   0  0  0  0  0  0  0  0  0  0  0  0
   92.9694   -6.7410   -3.9845 H   0  0  0  0  0  0  0  0  0  0  0  0
   94.6867  -10.5350   -2.3046 H   0  0  0  0  0  0  0  0  0  0  0  0
   95.1344   -7.7679   -0.4335 H   0  0  0  0  0  0  0  0  0  0  0  0
   95.0497   -5.4126    0.3018 H   0  0  0  0  0  0  0  0  0  0  0  0
   96.6247   -4.2296   -1.4325 H   0  0  0  0  0  0  0  0  0  0  0  0
   98.4332   -2.3300   -0.8285 H   0  0  0  0  0  0  0  0  0  0  0  0
   93.1303   -0.7631   -0.2686 H   0  0  0  0  0  0  0  0  0  0  0  0
   94.7986    5.5165   -0.2508 H   0  0  0  0  0  0  0  0  0  0  0  0
   94.7330    7.8712    0.4867 H   0  0  0  0  0  0  0  0  0  0  0  0
   94.0608   10.6098    2.3318 H   0  0  0  0  0  0  0  0  0  0  0  0
   92.5064    6.7252    3.9623 H   0  0  0  0  0  0  0  0  0  0  0  0
   92.5840    4.3561    3.2311 H   0  0  0  0  0  0  0  0  0  0  0  0
   59.5368    0.0693   -0.0060 C   0  0  0  0  0  0  0  0  0  0  0  0
   58.3155    0.0543   -0.0135 C   0  0  0  0  0  0  0  0  0  0  0  0
   60.8877    0.0812    0.0043 C   0  0  0  0  0  0  0  0  0  0  0  0
   62.1091    0.0860    0.0179 C   0  0  0  0  0  0  0  0  0  0  0  0
   72.9928    0.0645    0.0771 C   0  0  0  0  0  0  0  0  0  0  0  0
   71.7703    0.0713    0.0697 C   0  0  0  0  0  0  0  0  0  0  0  0
   74.3412    0.0613    0.0831 C   0  0  0  0  0  0  0  0  0  0  0  0
   75.5637    0.0542    0.0918 C   0  0  0  0  0  0  0  0  0  0  0  0
   86.4476   -0.0545    0.0078 C   0  0  0  0  0  0  0  0  0  0  0  0
   85.2263   -0.0366    0.0234 C   0  0  0  0  0  0  0  0  0  0  0  0
   87.7986   -0.0589   -0.0086 C   0  0  0  0  0  0  0  0  0  0  0  0
   89.0200   -0.0543   -0.0173 C   0  0  0  0  0  0  0  0  0  0  0  0
   63.5167    0.0895    0.0301 C   0  0  0  0  0  0  0  0  0  0  0  0
   64.1454    1.0469   -0.7873 C   0  0  0  0  0  0  0  0  0  0  0  0
   63.4976    1.9804   -1.6378 C   0  0  0  0  0  0  0  0  0  0  0  0
   64.4628    2.7258   -2.2574 C   0  0  0  0  0  0  0  0  0  0  0  0
   65.7291    2.2742   -1.7951 C   0  0  0  0  0  0  0  0  0  0  0  0
   65.4867    1.2544   -0.9148 N   0  0  0  0  0  0  0  0  0  0  0  0
   66.9905    2.7488   -2.1756 C   0  0  0  0  0  0  0  0  0  0  0  0
   68.2139    2.2454   -1.7300 C   0  0  0  0  0  0  0  0  0  0  0  0
   69.5026    2.8040   -2.0988 C   0  0  0  0  0  0  0  0  0  0  0  0
   70.4358    2.0570   -1.4735 C   0  0  0  0  0  0  0  0  0  0  0  0
   68.3852    1.1938   -0.8824 N   0  0  0  0  0  0  0  0  0  0  0  0
   69.7156    1.0511   -0.7177 C   0  0  0  0  0  0  0  0  0  0  0  0
   70.3657    0.0761    0.0653 C   0  0  0  0  0  0  0  0  0  0  0  0
   69.7357   -0.9033    0.8573 C   0  0  0  0  0  0  0  0  0  0  0  0
   70.3832   -1.8994    1.6332 C   0  0  0  0  0  0  0  0  0  0  0  0
   69.4176   -2.6369    2.2618 C   0  0  0  0  0  0  0  0  0  0  0  0
   68.1515   -2.1058    1.8931 C   0  0  0  0  0  0  0  0  0  0  0  0
   66.8905   -2.5610    2.2970 C   0  0  0  0  0  0  0  0  0  0  0  0
   66.8745   -3.6837    3.2656 C   0  0  0  0  0  0  0  0  0  0  0  0
   66.2812   -4.9033    2.9288 C   0  0  0  0  0  0  0  0  0  0  0  0
   66.2697   -5.9474    3.8352 C   0  0  0  0  0  0  0  0  0  0  0  0
   66.8468   -5.7910    5.0968 C   0  0  0  0  0  0  0  0  0  0  0  0
   66.8067   -6.9381    6.0353 C   0  0  0  0  0  0  0  0  0  0  0  0
   67.3873   -6.6843    7.2179 O   0  0  0  0  0  0  0  0  0  0  0  0
   66.3064   -8.0049    5.7846 O   0  0  0  0  0  0  0  0  0  0  0  0
   67.4390   -4.5749    5.4387 C   0  0  0  0  0  0  0  0  0  0  0  0
   67.4541   -3.5329    4.5281 C   0  0  0  0  0  0  0  0  0  0  0  0
   65.6665   -2.0436    1.8684 C   0  0  0  0  0  0  0  0  0  0  0  0
   64.3770   -2.5090    2.3476 C   0  0  0  0  0  0  0  0  0  0  0  0
   63.4441   -1.7732    1.7092 C   0  0  0  0  0  0  0  0  0  0  0  0
   64.1649   -0.8521    0.8523 C   0  0  0  0  0  0  0  0  0  0  0  0
   65.4964   -1.0319    0.9744 N   0  0  0  0  0  0  0  0  0  0  0  0
   68.3947   -1.0663    1.0358 N   0  0  0  0  0  0  0  0  0  0  0  0
   67.0096    3.8818   -3.1322 C   0  0  0  0  0  0  0  0  0  0  0  0
   66.4281    5.1062   -2.7923 C   0  0  0  0  0  0  0  0  0  0  0  0
   66.4509    6.1616   -3.6853 C   0  0  0  0  0  0  0  0  0  0  0  0
   67.0505    6.0114   -4.9372 C   0  0  0  0  0  0  0  0  0  0  0  0
   67.0478    7.1714   -5.8606 C   0  0  0  0  0  0  0  0  0  0  0  0
   67.6514    6.9256   -7.0331 O   0  0  0  0  0  0  0  0  0  0  0  0
   66.5561    8.2415   -5.6064 O   0  0  0  0  0  0  0  0  0  0  0  0
   67.6297    4.7900   -5.2827 C   0  0  0  0  0  0  0  0  0  0  0  0
   67.6102    3.7366   -4.3854 C   0  0  0  0  0  0  0  0  0  0  0  0
   62.4294    2.0598   -1.7588 H   0  0  0  0  0  0  0  0  0  0  0  0
   64.3128    3.5122   -2.9789 H   0  0  0  0  0  0  0  0  0  0  0  0
   66.2083    0.7250   -0.4369 H   0  0  0  0  0  0  0  0  0  0  0  0
   69.6512    3.6601   -2.7367 H   0  0  0  0  0  0  0  0  0  0  0  0
   71.5087    2.1611   -1.4980 H   0  0  0  0  0  0  0  0  0  0  0  0
   71.4515   -2.0312    1.6930 H   0  0  0  0  0  0  0  0  0  0  0  0
   69.5673   -3.4809    2.9150 H   0  0  0  0  0  0  0  0  0  0  0  0
   65.8437   -5.0310    1.9453 H   0  0  0  0  0  0  0  0  0  0  0  0
   65.8154   -6.8982    3.5786 H   0  0  0  0  0  0  0  0  0  0  0  0
   67.3185   -7.4793    7.7712 H   0  0  0  0  0  0  0  0  0  0  0  0
   67.8850   -4.4475    6.4179 H   0  0  0  0  0  0  0  0  0  0  0  0
   67.9023   -2.5836    4.7994 H   0  0  0  0  0  0  0  0  0  0  0  0
   64.2275   -3.2834    3.0822 H   0  0  0  0  0  0  0  0  0  0  0  0
   62.3708   -1.8219    1.7994 H   0  0  0  0  0  0  0  0  0  0  0  0
   67.6735   -0.5048    0.5955 H   0  0  0  0  0  0  0  0  0  0  0  0
   65.9746    5.2301   -1.8154 H   0  0  0  0  0  0  0  0  0  0  0  0
   66.0074    7.1165   -3.4253 H   0  0  0  0  0  0  0  0  0  0  0  0
   67.6077    7.7292   -7.5764 H   0  0  0  0  0  0  0  0  0  0  0  0
   68.0932    4.6677   -6.2545 H   0  0  0  0  0  0  0  0  0  0  0  0
   68.0495    2.7839   -4.6587 H   0  0  0  0  0  0  0  0  0  0  0  0
   76.9682    0.0524    0.0947 C   0  0  0  0  0  0  0  0  0  0  0  0
   77.5959    0.9894   -0.7487 C   0  0  0  0  0  0  0  0  0  0  0  0
   76.9470    1.9092   -1.6126 C   0  0  0  0  0  0  0  0  0  0  0  0
   77.9112    2.6537   -2.2353 C   0  0  0  0  0  0  0  0  0  0  0  0
   79.1777    2.2145   -1.7617 C   0  0  0  0  0  0  0  0  0  0  0  0
   78.9363    1.2002   -0.8743 N   0  0  0  0  0  0  0  0  0  0  0  0
   80.4379    2.6993   -2.1325 C   0  0  0  0  0  0  0  0  0  0  0  0
   81.6625    2.2009   -1.6827 C   0  0  0  0  0  0  0  0  0  0  0  0
   82.9496    2.7716   -2.0388 C   0  0  0  0  0  0  0  0  0  0  0  0
   83.8851    2.0135   -1.4306 C   0  0  0  0  0  0  0  0  0  0  0  0
   81.8361    1.1352   -0.8547 N   0  0  0  0  0  0  0  0  0  0  0  0
   83.1680    0.9888   -0.6972 C   0  0  0  0  0  0  0  0  0  0  0  0
   83.8190   -0.0164    0.0433 C   0  0  0  0  0  0  0  0  0  0  0  0
   83.1911   -1.0103    0.8167 C   0  0  0  0  0  0  0  0  0  0  0  0
   83.8377   -2.0328    1.5586 C   0  0  0  0  0  0  0  0  0  0  0  0
   82.8739   -2.7579    2.2042 C   0  0  0  0  0  0  0  0  0  0  0  0
   81.6101   -2.1933    1.8798 C   0  0  0  0  0  0  0  0  0  0  0  0
   80.3516   -2.6196    2.3221 C   0  0  0  0  0  0  0  0  0  0  0  0
   80.3384   -3.7429    3.2900 C   0  0  0  0  0  0  0  0  0  0  0  0
   79.7043   -4.9465    2.9705 C   0  0  0  0  0  0  0  0  0  0  0  0
   79.6945   -5.9917    3.8755 C   0  0  0  0  0  0  0  0  0  0  0  0
   80.3137   -5.8519    5.1190 C   0  0  0  0  0  0  0  0  0  0  0  0
   80.2740   -6.9996    6.0567 C   0  0  0  0  0  0  0  0  0  0  0  0
   80.8959   -6.7628    7.2216 O   0  0  0  0  0  0  0  0  0  0  0  0
   79.7413   -8.0538    5.8192 O   0  0  0  0  0  0  0  0  0  0  0  0
   80.9464   -4.6515    5.4439 C   0  0  0  0  0  0  0  0  0  0  0  0
   80.9602   -3.6088    4.5341 C   0  0  0  0  0  0  0  0  0  0  0  0
   79.1276   -2.0755    1.9295 C   0  0  0  0  0  0  0  0  0  0  0  0
   77.8429   -2.5096    2.4490 C   0  0  0  0  0  0  0  0  0  0  0  0
   76.9070   -1.7671    1.8223 C   0  0  0  0  0  0  0  0  0  0  0  0
   77.6220   -0.8732    0.9327 C   0  0  0  0  0  0  0  0  0  0  0  0
   78.9521   -1.0713    1.0270 N   0  0  0  0  0  0  0  0  0  0  0  0
   81.8516   -1.1492    1.0284 N   0  0  0  0  0  0  0  0  0  0  0  0
   80.4537    3.8328   -3.0880 C   0  0  0  0  0  0  0  0  0  0  0  0
   79.8496    5.0488   -2.7574 C   0  0  0  0  0  0  0  0  0  0  0  0
   79.8636    6.1017   -3.6537 C   0  0  0  0  0  0  0  0  0  0  0  0
   80.4772    5.9573   -4.8994 C   0  0  0  0  0  0  0  0  0  0  0  0
   80.4616    7.1130   -5.8280 C   0  0  0  0  0  0  0  0  0  0  0  0
   81.0819    6.8737   -6.9932 O   0  0  0  0  0  0  0  0  0  0  0  0
   79.9461    8.1743   -5.5842 O   0  0  0  0  0  0  0  0  0  0  0  0
   81.0808    4.7450   -5.2349 C   0  0  0  0  0  0  0  0  0  0  0  0
   81.0699    3.6943   -4.3345 C   0  0  0  0  0  0  0  0  0  0  0  0
   75.8790    1.9822   -1.7392 H   0  0  0  0  0  0  0  0  0  0  0  0
   77.7599    3.4317   -2.9654 H   0  0  0  0  0  0  0  0  0  0  0  0
   79.6581    0.6793   -0.3876 H   0  0  0  0  0  0  0  0  0  0  0  0
   83.0952    3.6421   -2.6575 H   0  0  0  0  0  0  0  0  0  0  0  0
   84.9577    2.1204   -1.4536 H   0  0  0  0  0  0  0  0  0  0  0  0
   84.9041   -2.1881    1.5870 H   0  0  0  0  0  0  0  0  0  0  0  0
   83.0226   -3.6140    2.8417 H   0  0  0  0  0  0  0  0  0  0  0  0
   79.2334   -5.0610    2.0009 H   0  0  0  0  0  0  0  0  0  0  0  0
   79.2089   -6.9303    3.6320 H   0  0  0  0  0  0  0  0  0  0  0  0
   80.8244   -7.5573    7.7753 H   0  0  0  0  0  0  0  0  0  0  0  0
   81.4246   -4.5369    6.4094 H   0  0  0  0  0  0  0  0  0  0  0  0
   81.4405   -2.6717    4.7922 H   0  0  0  0  0  0  0  0  0  0  0  0
   77.6988   -3.2697    3.1995 H   0  0  0  0  0  0  0  0  0  0  0  0
   75.8355   -1.7951    1.9398 H   0  0  0  0  0  0  0  0  0  0  0  0
   81.1314   -0.5649    0.6171 H   0  0  0  0  0  0  0  0  0  0  0  0
   79.3844    5.1683   -1.7855 H   0  0  0  0  0  0  0  0  0  0  0  0
   79.4015    7.0497   -3.4012 H   0  0  0  0  0  0  0  0  0  0  0  0
   81.0275    7.6738   -7.5408 H   0  0  0  0  0  0  0  0  0  0  0  0
   81.5554    4.6272   -6.2019 H   0  0  0  0  0  0  0  0  0  0  0  0
   81.5271    2.7480   -4.6005 H   0  0  0  0  0  0  0  0  0  0  0  0
  1  2  4  0  0  0  0
  2  3  4  0  0  0  0
  3  4  2  0  0  0  0
  4  5  4  0  0  0  0
  2  6  4  0  0  0  0
  5  6  4  0  0  0  0
  5  7  4  0  0  0  0
  7  8  4  0  0  0  0
  8  9  1  0  0  0  0
  9 10  2  0  0  0  0
  8 11  4  0  0  0  0
 10 12  1  0  0  0  0
 11 12  4  0  0  0  0
 12 13  4  0  0  0  0
 13 14  4  0  0  0  0
 14 15  4  0  0  0  0
 15 16  2  0  0  0  0
 16 17  4  0  0  0  0
 17 18  4  0  0  0  0
 18 19  1  0  0  0  0
 19 20  4  0  0  0  0
 20 21  4  0  0  0  0
 21 22  4  0  0  0  0
 22 23  1  0  0  0  0
 23 24  4  0  0  0  0
 23 25  2  0  0  0  0
 22 26  4  0  0  0  0
 19 27  4  0  0  0  0
 26 27  4  0  0  0  0
 18 28  4  0  0  0  0
 28 29  1  0  0  0  0
 29 30  2  0  0  0  0
  1 31  4  0  0  0  0
 30 31  1  0  0  0  0
 28 32  4  0  0  0  0
 31 32  4  0  0  0  0
 14 33  4  0  0  0  0
 17 33  4  0  0  0  0
  7 34  1  0  0  0  0
 34 35  4  0  0  0  0
 35 36  4  0  0  0  0
 36 37  4  0  0  0  0
 37 38  1  0  0  0  0
 38 39  4  0  0  0  0
 38 40  2  0  0  0  0
 37 41  4  0  0  0  0
 34 42  4  0  0  0  0
 41 42  4  0  0  0  0
  1 43  1  0  0  0  0
  3 44  1  0  0  0  0
  4 45  1  0  0  0  0
  6 46  1  0  0  0  0
  9 47  1  0  0  0  0
 10 48  1  0  0  0  0
 15 49  1  0  0  0  0
 16 50  1  0  0  0  0
 20 51  1  0  0  0  0
 21 52  1  0  0  0  0
 24 53  1  0  0  0  0
 26 54  1  0  0  0  0
 27 55  1  0  0  0  0
 29 56  1  0  0  0  0
 30 57  1  0  0  0  0
 33 58  1  0  0  0  0
 35 59  1  0  0  0  0
 36 60  1  0  0  0  0
 39 61  1  0  0  0  0
 41 62  1  0  0  0  0
 42 63  1  0  0  0  0
 64 65  4  0  0  0  0
 65 66  4  0  0  0  0
 66 67  2  0  0  0  0
 67 68  4  0  0  0  0
 65 69  4  0  0  0  0
 68 69  4  0  0  0  0
 68 70  4  0  0  0  0
 70 71  4  0  0  0  0
 71 72  1  0  0  0  0
 72 73  2  0  0  0  0
 71 74  4  0  0  0  0
 73 75  1  0  0  0  0
 74 75  4  0  0  0  0
 75 76  4  0  0  0  0
 76 77  4  0  0  0  0
 77 78  4  0  0  0  0
 78 79  2  0  0  0  0
 79 80  4  0  0  0  0
 80 81  4  0  0  0  0
 81 82  1  0  0  0  0
 82 83  4  0  0  0  0
 83 84  4  0  0  0  0
 84 85  4  0  0  0  0
 85 86  1  0  0  0  0
 86 87  4  0  0  0  0
 86 88  2  0  0  0  0
 85 89  4  0  0  0  0
 82 90  4  0  0  0  0
 89 90  4  0  0  0  0
 81 91  4  0  0  0  0
 91 92  1  0  0  0  0
 92 93  2  0  0  0  0
 64 94  4  0  0  0  0
 93 94  1  0  0  0  0
 91 95  4  0  0  0  0
 94 95  4  0  0  0  0
 77 96  4  0  0  0  0
 80 96  4  0  0  0  0
 70 97  1  0  0  0  0
 97 98  4  0  0  0  0
 98 99  4  0  0  0  0
 99100  4  0  0  0  0
100101  1  0  0  0  0
101102  4  0  0  0  0
101103  2  0  0  0  0
100104  4  0  0  0  0
 97105  4  0  0  0  0
104105  4  0  0  0  0
 64106  1  0  0  0  0
 66107  1  0  0  0  0
 67108  1  0  0  0  0
 69109  1  0  0  0  0
 72110  1  0  0  0  0
 73111  1  0  0  0  0
 78112  1  0  0  0  0
 79113  1  0  0  0  0
 83114  1  0  0  0  0
 84115  1  0  0  0  0
 87116  1  0  0  0  0
 89117  1  0  0  0  0
 90118  1  0  0  0  0
 92119  1  0  0  0  0
 93120  1  0  0  0  0
 96121  1  0  0  0  0
 98122  1  0  0  0  0
 99123  1  0  0  0  0
102124  1  0  0  0  0
104125  1  0  0  0  0
105126  1  0  0  0  0
 13128  4  0  0  0  0
127128  3  0  0  0  0
127129  4  0  0  0  0
129130  3  0  0  0  0
131132  3  0  0  0  0
131133  4  0  0  0  0
133134  3  0  0  0  0
135136  3  0  0  0  0
135137  4  0  0  0  0
 76138  4  0  0  0  0
137138  3  0  0  0  0
130139  4  0  0  0  0
139140  4  0  0  0  0
140141  4  0  0  0  0
141142  2  0  0  0  0
142143  4  0  0  0  0
140144  4  0  0  0  0
143144  4  0  0  0  0
143145  4  0  0  0  0
145146  4  0  0  0  0
146147  1  0  0  0  0
147148  2  0  0  0  0
146149  4  0  0  0  0
148150  1  0  0  0  0
149150  4  0  0  0  0
132151  4  0  0  0  0
150151  4  0  0  0  0
151152  4  0  0  0  0
152153  4  0  0  0  0
153154  2  0  0  0  0
154155  4  0  0  0  0
155156  4  0  0  0  0
156157  1  0  0  0  0
157158  4  0  0  0  0
158159  4  0  0  0  0
159160  4  0  0  0  0
160161  1  0  0  0  0
161162  4  0  0  0  0
161163  2  0  0  0  0
160164  4  0  0  0  0
157165  4  0  0  0  0
164165  4  0  0  0  0
156166  4  0  0  0  0
166167  1  0  0  0  0
167168  2  0  0  0  0
139169  4  0  0  0  0
168169  1  0  0  0  0
166170  4  0  0  0  0
169170  4  0  0  0  0
152171  4  0  0  0  0
155171  4  0  0  0  0
145172  1  0  0  0  0
172173  4  0  0  0  0
173174  4  0  0  0  0
174175  4  0  0  0  0
175176  1  0  0  0  0
176177  4  0  0  0  0
176178  2  0  0  0  0
175179  4  0  0  0  0
172180  4  0  0  0  0
179180  4  0  0  0  0
141181  1  0  0  0  0
142182  1  0  0  0  0
144183  1  0  0  0  0
147184  1  0  0  0  0
148185  1  0  0  0  0
153186  1  0  0  0  0
154187  1  0  0  0  0
158188  1  0  0  0  0
159189  1  0  0  0  0
162190  1  0  0  0  0
164191  1  0  0  0  0
165192  1  0  0  0  0
167193  1  0  0  0  0
168194  1  0  0  0  0
171195  1  0  0  0  0
173196  1  0  0  0  0
174197  1  0  0  0  0
177198  1  0  0  0  0
179199  1  0  0  0  0
180200  1  0  0  0  0
134201  4  0  0  0  0
201202  4  0  0  0  0
202203  4  0  0  0  0
203204  2  0  0  0  0
204205  4  0  0  0  0
202206  4  0  0  0  0
205206  4  0  0  0  0
205207  4  0  0  0  0
207208  4  0  0  0  0
208209  1  0  0  0  0
209210  2  0  0  0  0
208211  4  0  0  0  0
210212  1  0  0  0  0
211212  4  0  0  0  0
136213  4  0  0  0  0
212213  4  0  0  0  0
213214  4  0  0  0  0
214215  4  0  0  0  0
215216  2  0  0  0  0
216217  4  0  0  0  0
217218  4  0  0  0  0
218219  1  0  0  0  0
219220  4  0  0  0  0
220221  4  0  0  0  0
221222  4  0  0  0  0
222223  1  0  0  0  0
223224  4  0  0  0  0
223225  2  0  0  0  0
222226  4  0  0  0  0
219227  4  0  0  0  0
226227  4  0  0  0  0
218228  4  0  0  0  0
228229  1  0  0  0  0
229230  2  0  0  0  0
201231  4  0  0  0  0
230231  1  0  0  0  0
228232  4  0  0  0  0
231232  4  0  0  0  0
214233  4  0  0  0  0
217233  4  0  0  0  0
207234  1  0  0  0  0
234235  4  0  0  0  0
235236  4  0  0  0  0
236237  4  0  0  0  0
237238  1  0  0  0  0
238239  4  0  0  0  0
238240  2  0  0  0  0
237241  4  0  0  0  0
234242  4  0  0  0  0
241242  4  0  0  0  0
203243  1  0  0  0  0
204244  1  0  0  0  0
206245  1  0  0  0  0
209246  1  0  0  0  0
210247  1  0  0  0  0
215248  1  0  0  0  0
216249  1  0  0  0  0
220250  1  0  0  0  0
221251  1  0  0  0  0
224252  1  0  0  0  0
226253  1  0  0  0  0
227254  1  0  0  0  0
229255  1  0  0  0  0
230256  1  0  0  0  0
233257  1  0  0  0  0
235258  1  0  0  0  0
236259  1  0  0  0  0
239260  1  0  0  0  0
241261  1  0  0  0  0
242262  1  0  0  0  0
M  END
