 xtb: 6.5.1 (b24c23e)
          07292216133D

160191  0     0  0            999 V2000
   20.4049   -0.0232   -0.0220 Fe  0  0  0  0  0  0  0  0  0  0  0  0
   16.9927   -0.0352   -0.0370 C   0  0  0  0  0  0  0  0  0  0  0  0
   17.6473   -0.8948   -0.8953 C   0  0  0  0  0  0  0  0  0  0  0  0
   16.9761   -1.7908   -1.7912 C   0  0  0  0  0  0  0  0  0  0  0  0
   17.9400   -2.4658   -2.4603 C   0  0  0  0  0  0  0  0  0  0  0  0
   19.1972   -1.9802   -1.9715 C   0  0  0  0  0  0  0  0  0  0  0  0
   19.0057   -1.0200   -1.0160 N   0  0  0  0  0  0  0  0  0  0  0  0
   20.4212   -2.4369   -2.4196 C   0  0  0  0  0  0  0  0  0  0  0  0
   21.6368   -1.9793   -1.9600 C   0  0  0  0  0  0  0  0  0  0  0  0
   22.8982   -2.4633   -2.4353 C   0  0  0  0  0  0  0  0  0  0  0  0
   23.8542   -1.7825   -1.7594 C   0  0  0  0  0  0  0  0  0  0  0  0
   21.8223   -1.0119   -1.0015 N   0  0  0  0  0  0  0  0  0  0  0  0
   23.1725   -0.8865   -0.8749 C   0  0  0  0  0  0  0  0  0  0  0  0
   23.8367   -0.0086   -0.0092 C   0  0  0  0  0  0  0  0  0  0  0  0
   23.1588    0.8630    0.8519 C   0  0  0  0  0  0  0  0  0  0  0  0
   23.8263    1.7639    1.7421 C   0  0  0  0  0  0  0  0  0  0  0  0
   22.8595    2.4355    2.4120 C   0  0  0  0  0  0  0  0  0  0  0  0
   21.6058    1.9413    1.9270 C   0  0  0  0  0  0  0  0  0  0  0  0
   21.8066    0.9765    0.9690 N   0  0  0  0  0  0  0  0  0  0  0  0
   20.3830    2.3884    2.3776 C   0  0  0  0  0  0  0  0  0  0  0  0
   19.1663    1.9230    1.9189 C   0  0  0  0  0  0  0  0  0  0  0  0
   17.9014    2.3992    2.3971 C   0  0  0  0  0  0  0  0  0  0  0  0
   16.9482    1.7187    1.7183 C   0  0  0  0  0  0  0  0  0  0  0  0
   17.6337    0.8283    0.8275 C   0  0  0  0  0  0  0  0  0  0  0  0
   18.9900    0.9626    0.9606 N   0  0  0  0  0  0  0  0  0  0  0  0
   15.9085   -0.0389   -0.0420 H   0  0  0  0  0  0  0  0  0  0  0  0
   15.9045   -1.8757   -1.8796 H   0  0  0  0  0  0  0  0  0  0  0  0
   17.8327   -3.2259   -3.2181 H   0  0  0  0  0  0  0  0  0  0  0  0
   20.4258   -3.2063   -3.1836 H   0  0  0  0  0  0  0  0  0  0  0  0
   23.0158   -3.2254   -3.1893 H   0  0  0  0  0  0  0  0  0  0  0  0
   24.9263   -1.8655   -1.8390 H   0  0  0  0  0  0  0  0  0  0  0  0
   24.8971    1.8561    1.8294 H   0  0  0  0  0  0  0  0  0  0  0  0
   22.9651    3.1979    3.1675 H   0  0  0  0  0  0  0  0  0  0  0  0
   20.3755    3.1569    3.1426 H   0  0  0  0  0  0  0  0  0  0  0  0
   17.7820    3.1575    3.1548 H   0  0  0  0  0  0  0  0  0  0  0  0
   15.8753    1.7961    1.7970 H   0  0  0  0  0  0  0  0  0  0  0  0
   68.5057    0.0043   -0.0079 Fe  0  0  0  0  0  0  0  0  0  0  0  0
   71.9169    0.0315   -0.0553 C   0  0  0  0  0  0  0  0  0  0  0  0
   71.2587    1.2440   -0.0790 C   0  0  0  0  0  0  0  0  0  0  0  0
   71.9257    2.5125   -0.1233 C   0  0  0  0  0  0  0  0  0  0  0  0
   70.9600    3.4608   -0.0985 C   0  0  0  0  0  0  0  0  0  0  0  0
   69.7055    2.7692   -0.0411 C   0  0  0  0  0  0  0  0  0  0  0  0
   69.9005    1.4149   -0.0378 N   0  0  0  0  0  0  0  0  0  0  0  0
   68.4815    3.4058    0.0205 C   0  0  0  0  0  0  0  0  0  0  0  0
   67.2686    2.7535    0.0657 C   0  0  0  0  0  0  0  0  0  0  0  0
   66.0064    3.4277    0.1245 C   0  0  0  0  0  0  0  0  0  0  0  0
   65.0525    2.4661    0.1187 C   0  0  0  0  0  0  0  0  0  0  0  0
   67.0862    1.3917    0.0353 N   0  0  0  0  0  0  0  0  0  0  0  0
   65.7361    1.2097    0.0582 C   0  0  0  0  0  0  0  0  0  0  0  0
   65.0750   -0.0228    0.0001 C   0  0  0  0  0  0  0  0  0  0  0  0
   65.7554   -1.2451   -0.0484 C   0  0  0  0  0  0  0  0  0  0  0  0
   65.0915   -2.5128   -0.0890 C   0  0  0  0  0  0  0  0  0  0  0  0
   66.0602   -3.4594   -0.0758 C   0  0  0  0  0  0  0  0  0  0  0  0
   67.3118   -2.7647   -0.0319 C   0  0  0  0  0  0  0  0  0  0  0  0
   67.1082   -1.4057   -0.0227 N   0  0  0  0  0  0  0  0  0  0  0  0
   68.5355   -3.3971    0.0077 C   0  0  0  0  0  0  0  0  0  0  0  0
   69.7502   -2.7406    0.0301 C   0  0  0  0  0  0  0  0  0  0  0  0
   71.0167   -3.4116    0.0571 C   0  0  0  0  0  0  0  0  0  0  0  0
   71.9675   -2.4483    0.0338 C   0  0  0  0  0  0  0  0  0  0  0  0
   71.2792   -1.1911   -0.0044 C   0  0  0  0  0  0  0  0  0  0  0  0
   69.9234   -1.3836    0.0019 N   0  0  0  0  0  0  0  0  0  0  0  0
   73.0009    0.0401   -0.0734 H   0  0  0  0  0  0  0  0  0  0  0  0
   72.9963    2.6375   -0.1645 H   0  0  0  0  0  0  0  0  0  0  0  0
   71.0644    4.5342   -0.1157 H   0  0  0  0  0  0  0  0  0  0  0  0
   68.4742    4.4900    0.0311 H   0  0  0  0  0  0  0  0  0  0  0  0
   65.8867    4.4988    0.1612 H   0  0  0  0  0  0  0  0  0  0  0  0
   63.9805    2.5781    0.1500 H   0  0  0  0  0  0  0  0  0  0  0  0
   64.0214   -2.6420   -0.1182 H   0  0  0  0  0  0  0  0  0  0  0  0
   65.9571   -4.5328   -0.0933 H   0  0  0  0  0  0  0  0  0  0  0  0
   68.5453   -4.4813    0.0147 H   0  0  0  0  0  0  0  0  0  0  0  0
   71.1388   -4.4829    0.0862 H   0  0  0  0  0  0  0  0  0  0  0  0
   73.0407   -2.5561    0.0404 H   0  0  0  0  0  0  0  0  0  0  0  0
   29.0338    0.0057    0.0004 C   0  0  0  0  0  0  0  0  0  0  0  0
   27.8034    0.0043    0.0001 C   0  0  0  0  0  0  0  0  0  0  0  0
   26.4627    0.0016   -0.0019 C   0  0  0  0  0  0  0  0  0  0  0  0
   25.2370   -0.0030   -0.0043 C   0  0  0  0  0  0  0  0  0  0  0  0
   30.3743    0.0060    0.0010 C   0  0  0  0  0  0  0  0  0  0  0  0
   31.6003    0.0048    0.0011 C   0  0  0  0  0  0  0  0  0  0  0  0
   45.0710   -0.0239   -0.0301 C   0  0  0  0  0  0  0  0  0  0  0  0
   43.8401   -0.0193   -0.0280 C   0  0  0  0  0  0  0  0  0  0  0  0
   42.5006   -0.0150   -0.0250 C   0  0  0  0  0  0  0  0  0  0  0  0
   41.2743   -0.0113   -0.0206 C   0  0  0  0  0  0  0  0  0  0  0  0
   46.4105   -0.0298   -0.0324 C   0  0  0  0  0  0  0  0  0  0  0  0
   47.6368   -0.0351   -0.0342 C   0  0  0  0  0  0  0  0  0  0  0  0
   61.1067   -0.0469   -0.0186 C   0  0  0  0  0  0  0  0  0  0  0  0
   59.8769   -0.0514   -0.0244 C   0  0  0  0  0  0  0  0  0  0  0  0
   58.5354   -0.0531   -0.0289 C   0  0  0  0  0  0  0  0  0  0  0  0
   57.3100   -0.0548   -0.0313 C   0  0  0  0  0  0  0  0  0  0  0  0
   62.4485   -0.0408   -0.0118 C   0  0  0  0  0  0  0  0  0  0  0  0
   63.6735   -0.0332   -0.0054 C   0  0  0  0  0  0  0  0  0  0  0  0
   36.4380   -0.0080   -0.0035 Fe  0  0  0  0  0  0  0  0  0  0  0  0
   32.9995    0.0011    0.0004 C   0  0  0  0  0  0  0  0  0  0  0  0
   33.6752    0.9093    0.8262 C   0  0  0  0  0  0  0  0  0  0  0  0
   33.0051    1.8452    1.6764 C   0  0  0  0  0  0  0  0  0  0  0  0
   33.9709    2.5498    2.3143 C   0  0  0  0  0  0  0  0  0  0  0  0
   35.2240    2.0389    1.8482 C   0  0  0  0  0  0  0  0  0  0  0  0
   35.0269    1.0320    0.9361 N   0  0  0  0  0  0  0  0  0  0  0  0
   36.4475    2.5152    2.2717 C   0  0  0  0  0  0  0  0  0  0  0  0
   37.6671    2.0420    1.8360 C   0  0  0  0  0  0  0  0  0  0  0  0
   38.9243    2.5558    2.2883 C   0  0  0  0  0  0  0  0  0  0  0  0
   39.8846    1.8484    1.6455 C   0  0  0  0  0  0  0  0  0  0  0  0
   37.8569    1.0312    0.9257 N   0  0  0  0  0  0  0  0  0  0  0  0
   39.2071    0.9077    0.8062 C   0  0  0  0  0  0  0  0  0  0  0  0
   39.8761   -0.0100   -0.0154 C   0  0  0  0  0  0  0  0  0  0  0  0
   39.2003   -0.9284   -0.8305 C   0  0  0  0  0  0  0  0  0  0  0  0
   39.8710   -1.8729   -1.6710 C   0  0  0  0  0  0  0  0  0  0  0  0
   38.9056   -2.5834   -2.3025 C   0  0  0  0  0  0  0  0  0  0  0  0
   37.6521   -2.0669   -1.8431 C   0  0  0  0  0  0  0  0  0  0  0  0
   37.8493   -1.0519   -0.9391 N   0  0  0  0  0  0  0  0  0  0  0  0
   36.4290   -2.5394   -2.2697 C   0  0  0  0  0  0  0  0  0  0  0  0
   35.2090   -2.0559   -1.8442 C   0  0  0  0  0  0  0  0  0  0  0  0
   33.9522   -2.5615   -2.3060 C   0  0  0  0  0  0  0  0  0  0  0  0
   32.9916   -1.8477   -1.6706 C   0  0  0  0  0  0  0  0  0  0  0  0
   33.6686   -0.9124   -0.8251 C   0  0  0  0  0  0  0  0  0  0  0  0
   35.0193   -1.0436   -0.9364 N   0  0  0  0  0  0  0  0  0  0  0  0
   31.9342    1.9372    1.7613 H   0  0  0  0  0  0  0  0  0  0  0  0
   33.8641    3.3446    3.0353 H   0  0  0  0  0  0  0  0  0  0  0  0
   36.4501    3.3202    2.9984 H   0  0  0  0  0  0  0  0  0  0  0  0
   39.0372    3.3539    3.0046 H   0  0  0  0  0  0  0  0  0  0  0  0
   40.9562    1.9408    1.7208 H   0  0  0  0  0  0  0  0  0  0  0  0
   40.9420   -1.9659   -1.7544 H   0  0  0  0  0  0  0  0  0  0  0  0
   39.0127   -3.3851   -3.0158 H   0  0  0  0  0  0  0  0  0  0  0  0
   36.4257   -3.3479   -2.9925 H   0  0  0  0  0  0  0  0  0  0  0  0
   33.8396   -3.3589   -3.0232 H   0  0  0  0  0  0  0  0  0  0  0  0
   31.9201   -1.9334   -1.7538 H   0  0  0  0  0  0  0  0  0  0  0  0
   52.4722   -0.0466   -0.0314 Fe  0  0  0  0  0  0  0  0  0  0  0  0
   49.0350   -0.0391   -0.0331 C   0  0  0  0  0  0  0  0  0  0  0  0
   49.7092    0.8906    0.7704 C   0  0  0  0  0  0  0  0  0  0  0  0
   49.0374    1.8458    1.5980 C   0  0  0  0  0  0  0  0  0  0  0  0
   50.0017    2.5863    2.1961 C   0  0  0  0  0  0  0  0  0  0  0  0
   51.2557    2.0780    1.7288 C   0  0  0  0  0  0  0  0  0  0  0  0
   51.0599    1.0316    0.8609 N   0  0  0  0  0  0  0  0  0  0  0  0
   52.4770    2.6023    2.0952 C   0  0  0  0  0  0  0  0  0  0  0  0
   53.6969    2.1298    1.6566 C   0  0  0  0  0  0  0  0  0  0  0  0
   54.9523    2.6969    2.0453 C   0  0  0  0  0  0  0  0  0  0  0  0
   55.9140    1.9552    1.4444 C   0  0  0  0  0  0  0  0  0  0  0  0
   53.8882    1.0580    0.8207 N   0  0  0  0  0  0  0  0  0  0  0  0
   55.2394    0.9399    0.6946 C   0  0  0  0  0  0  0  0  0  0  0  0
   55.9096   -0.0526   -0.0318 C   0  0  0  0  0  0  0  0  0  0  0  0
   55.2358   -1.0429   -0.7578 C   0  0  0  0  0  0  0  0  0  0  0  0
   55.9068   -2.0608   -1.5073 C   0  0  0  0  0  0  0  0  0  0  0  0
   54.9424   -2.8004   -2.1065 C   0  0  0  0  0  0  0  0  0  0  0  0
   53.6890   -2.2292   -1.7174 C   0  0  0  0  0  0  0  0  0  0  0  0
   53.8843   -1.1568   -0.8831 N   0  0  0  0  0  0  0  0  0  0  0  0
   52.4673   -2.6982   -2.1549 C   0  0  0  0  0  0  0  0  0  0  0  0
   51.2479   -2.1685   -1.7897 C   0  0  0  0  0  0  0  0  0  0  0  0
   49.9921   -2.6718   -2.2576 C   0  0  0  0  0  0  0  0  0  0  0  0
   49.0306   -1.9257   -1.6621 C   0  0  0  0  0  0  0  0  0  0  0  0
   49.7058   -0.9725   -0.8351 C   0  0  0  0  0  0  0  0  0  0  0  0
   51.0560   -1.1198   -0.9237 N   0  0  0  0  0  0  0  0  0  0  0  0
   47.9666    1.9261    1.6948 H   0  0  0  0  0  0  0  0  0  0  0  0
   49.8934    3.4052    2.8894 H   0  0  0  0  0  0  0  0  0  0  0  0
   52.4792    3.4473    2.7750 H   0  0  0  0  0  0  0  0  0  0  0  0
   55.0633    3.5497    2.6958 H   0  0  0  0  0  0  0  0  0  0  0  0
   56.9849    2.0680    1.4961 H   0  0  0  0  0  0  0  0  0  0  0  0
   56.9774   -2.1768   -1.5598 H   0  0  0  0  0  0  0  0  0  0  0  0
   55.0503   -3.6544   -2.7561 H   0  0  0  0  0  0  0  0  0  0  0  0
   52.4665   -3.5441   -2.8335 H   0  0  0  0  0  0  0  0  0  0  0  0
   49.8808   -3.4915   -2.9495 H   0  0  0  0  0  0  0  0  0  0  0  0
   47.9595   -2.0012   -1.7599 H   0  0  0  0  0  0  0  0  0  0  0  0
  2  3  4  0  0  0  0
  3  4  1  0  0  0  0
  4  5  2  0  0  0  0
  5  6  4  0  0  0  0
  1  7  1  0  0  0  0
  3  7  4  0  0  0  0
  6  7  4  0  0  0  0
  6  8  4  0  0  0  0
  8  9  4  0  0  0  0
  9 10  4  0  0  0  0
 10 11  2  0  0  0  0
  1 12  1  0  0  0  0
  9 12  4  0  0  0  0
 11 13  4  0  0  0  0
 12 13  4  0  0  0  0
 13 14  4  0  0  0  0
 14 15  4  0  0  0  0
 15 16  4  0  0  0  0
 16 17  2  0  0  0  0
 17 18  4  0  0  0  0
  1 19  1  0  0  0  0
 15 19  4  0  0  0  0
 18 19  4  0  0  0  0
 18 20  4  0  0  0  0
 20 21  4  0  0  0  0
 21 22  4  0  0  0  0
 22 23  2  0  0  0  0
  2 24  4  0  0  0  0
 23 24  1  0  0  0  0
  1 25  1  0  0  0  0
 21 25  4  0  0  0  0
 24 25  4  0  0  0  0
  2 26  1  0  0  0  0
  4 27  1  0  0  0  0
  5 28  1  0  0  0  0
  8 29  1  0  0  0  0
 10 30  1  0  0  0  0
 11 31  1  0  0  0  0
 16 32  1  0  0  0  0
 17 33  1  0  0  0  0
 20 34  1  0  0  0  0
 22 35  1  0  0  0  0
 23 36  1  0  0  0  0
 38 39  4  0  0  0  0
 39 40  1  0  0  0  0
 40 41  2  0  0  0  0
 41 42  4  0  0  0  0
 37 43  1  0  0  0  0
 39 43  4  0  0  0  0
 42 43  4  0  0  0  0
 42 44  4  0  0  0  0
 44 45  4  0  0  0  0
 45 46  4  0  0  0  0
 46 47  2  0  0  0  0
 37 48  1  0  0  0  0
 45 48  4  0  0  0  0
 47 49  4  0  0  0  0
 48 49  4  0  0  0  0
 49 50  4  0  0  0  0
 50 51  4  0  0  0  0
 51 52  4  0  0  0  0
 52 53  2  0  0  0  0
 53 54  4  0  0  0  0
 37 55  1  0  0  0  0
 51 55  4  0  0  0  0
 54 55  4  0  0  0  0
 54 56  4  0  0  0  0
 56 57  4  0  0  0  0
 57 58  4  0  0  0  0
 58 59  2  0  0  0  0
 38 60  4  0  0  0  0
 59 60  1  0  0  0  0
 37 61  1  0  0  0  0
 57 61  4  0  0  0  0
 60 61  4  0  0  0  0
 38 62  1  0  0  0  0
 40 63  1  0  0  0  0
 41 64  1  0  0  0  0
 44 65  1  0  0  0  0
 46 66  1  0  0  0  0
 47 67  1  0  0  0  0
 52 68  1  0  0  0  0
 53 69  1  0  0  0  0
 56 70  1  0  0  0  0
 58 71  1  0  0  0  0
 59 72  1  0  0  0  0
 73 74  3  0  0  0  0
 74 75  4  0  0  0  0
 14 76  4  0  0  0  0
 75 76  3  0  0  0  0
 73 77  4  0  0  0  0
 77 78  3  0  0  0  0
 79 80  3  0  0  0  0
 80 81  4  0  0  0  0
 81 82  3  0  0  0  0
 79 83  4  0  0  0  0
 83 84  3  0  0  0  0
 85 86  3  0  0  0  0
 86 87  4  0  0  0  0
 87 88  3  0  0  0  0
 85 89  4  0  0  0  0
 50 90  4  0  0  0  0
 89 90  3  0  0  0  0
 78 92  4  0  0  0  0
 92 93  4  0  0  0  0
 93 94  4  0  0  0  0
 94 95  2  0  0  0  0
 95 96  4  0  0  0  0
 91 97  1  0  0  0  0
 93 97  4  0  0  0  0
 96 97  4  0  0  0  0
 96 98  4  0  0  0  0
 98 99  4  0  0  0  0
 99100  4  0  0  0  0
100101  2  0  0  0  0
 91102  1  0  0  0  0
 99102  4  0  0  0  0
101103  4  0  0  0  0
102103  4  0  0  0  0
 82104  4  0  0  0  0
103104  4  0  0  0  0
104105  4  0  0  0  0
105106  4  0  0  0  0
106107  2  0  0  0  0
107108  4  0  0  0  0
 91109  1  0  0  0  0
105109  4  0  0  0  0
108109  4  0  0  0  0
108110  4  0  0  0  0
110111  4  0  0  0  0
111112  4  0  0  0  0
112113  2  0  0  0  0
 92114  4  0  0  0  0
113114  4  0  0  0  0
 91115  1  0  0  0  0
111115  4  0  0  0  0
114115  4  0  0  0  0
 94116  1  0  0  0  0
 95117  1  0  0  0  0
 98118  1  0  0  0  0
100119  1  0  0  0  0
101120  1  0  0  0  0
106121  1  0  0  0  0
107122  1  0  0  0  0
110123  1  0  0  0  0
112124  1  0  0  0  0
113125  1  0  0  0  0
 84127  4  0  0  0  0
127128  4  0  0  0  0
128129  4  0  0  0  0
129130  2  0  0  0  0
130131  4  0  0  0  0
126132  1  0  0  0  0
128132  4  0  0  0  0
131132  4  0  0  0  0
131133  4  0  0  0  0
133134  4  0  0  0  0
134135  4  0  0  0  0
135136  2  0  0  0  0
126137  1  0  0  0  0
134137  4  0  0  0  0
136138  4  0  0  0  0
137138  4  0  0  0  0
 88139  4  0  0  0  0
138139  4  0  0  0  0
139140  4  0  0  0  0
140141  4  0  0  0  0
141142  2  0  0  0  0
142143  4  0  0  0  0
126144  1  0  0  0  0
140144  4  0  0  0  0
143144  4  0  0  0  0
143145  4  0  0  0  0
145146  4  0  0  0  0
146147  4  0  0  0  0
147148  2  0  0  0  0
127149  4  0  0  0  0
148149  4  0  0  0  0
126150  1  0  0  0  0
146150  4  0  0  0  0
149150  4  0  0  0  0
129151  1  0  0  0  0
130152  1  0  0  0  0
133153  1  0  0  0  0
135154  1  0  0  0  0
136155  1  0  0  0  0
141156  1  0  0  0  0
142157  1  0  0  0  0
145158  1  0  0  0  0
147159  1  0  0  0  0
148160  1  0  0  0  0
M  END
