 xtb: 6.5.1 (b24c23e)
          07302211293D

118137  0     0  0            999 V2000
   16.8204   -0.0623    0.0172 Zn  0  0  0  0  0  0  0  0  0  0  0  0
   13.4030   -0.1042   -0.0418 C   0  0  0  0  0  0  0  0  0  0  0  0
   14.0374   -1.3372    0.0492 C   0  0  0  0  0  0  0  0  0  0  0  0
   13.3679   -2.6027    0.1595 C   0  0  0  0  0  0  0  0  0  0  0  0
   14.3305   -3.5545    0.2483 C   0  0  0  0  0  0  0  0  0  0  0  0
   15.6008   -2.8816    0.1834 C   0  0  0  0  0  0  0  0  0  0  0  0
   15.3875   -1.5391    0.0691 N   0  0  0  0  0  0  0  0  0  0  0  0
   16.8538   -3.5011    0.2573 C   0  0  0  0  0  0  0  0  0  0  0  0
   16.8676   -4.9824    0.3639 C   0  0  0  0  0  0  0  0  0  0  0  0
   16.3382   -5.7701   -0.6585 C   0  0  0  0  0  0  0  0  0  0  0  0
   16.3413   -7.1533   -0.5623 C   0  0  0  0  0  0  0  0  0  0  0  0
   16.8717   -7.7655    0.5706 C   0  0  0  0  0  0  0  0  0  0  0  0
   16.8888   -9.1173    0.7086 O   0  0  0  0  0  0  0  0  0  0  0  0
   17.4030   -6.9907    1.5998 C   0  0  0  0  0  0  0  0  0  0  0  0
   17.4018   -5.6111    1.4911 C   0  0  0  0  0  0  0  0  0  0  0  0
   18.0910   -2.8474    0.2397 C   0  0  0  0  0  0  0  0  0  0  0  0
   19.3675   -3.5034    0.2684 C   0  0  0  0  0  0  0  0  0  0  0  0
   20.3146   -2.5330    0.2172 C   0  0  0  0  0  0  0  0  0  0  0  0
   18.2895   -1.4939    0.1604 N   0  0  0  0  0  0  0  0  0  0  0  0
   19.6338   -1.2751    0.1485 C   0  0  0  0  0  0  0  0  0  0  0  0
   20.2718   -0.0191    0.0630 C   0  0  0  0  0  0  0  0  0  0  0  0
   19.6052    1.2211   -0.0337 C   0  0  0  0  0  0  0  0  0  0  0  0
   20.2572    2.4903   -0.1536 C   0  0  0  0  0  0  0  0  0  0  0  0
   19.2884    3.4370   -0.2320 C   0  0  0  0  0  0  0  0  0  0  0  0
   18.0270    2.7559   -0.1531 C   0  0  0  0  0  0  0  0  0  0  0  0
   18.2563    1.4096   -0.0419 N   0  0  0  0  0  0  0  0  0  0  0  0
   16.7753    3.3794   -0.2117 C   0  0  0  0  0  0  0  0  0  0  0  0
   16.7604    4.8616   -0.2996 C   0  0  0  0  0  0  0  0  0  0  0  0
   17.3045    5.6389    0.7259 C   0  0  0  0  0  0  0  0  0  0  0  0
   17.2901    7.0206    0.6533 C   0  0  0  0  0  0  0  0  0  0  0  0
   16.7323    7.6480   -0.4589 C   0  0  0  0  0  0  0  0  0  0  0  0
   16.7375    9.0063   -0.5004 O   0  0  0  0  0  0  0  0  0  0  0  0
   16.1885    6.8870   -1.4907 C   0  0  0  0  0  0  0  0  0  0  0  0
   16.2018    5.5030   -1.4054 C   0  0  0  0  0  0  0  0  0  0  0  0
   15.5364    2.7281   -0.1925 C   0  0  0  0  0  0  0  0  0  0  0  0
   14.2509    3.3746   -0.2091 C   0  0  0  0  0  0  0  0  0  0  0  0
   13.3105    2.3978   -0.1676 C   0  0  0  0  0  0  0  0  0  0  0  0
   14.0090    1.1442   -0.1144 C   0  0  0  0  0  0  0  0  0  0  0  0
   15.3542    1.3778   -0.1278 N   0  0  0  0  0  0  0  0  0  0  0  0
   12.3175   -0.1167   -0.0430 H   0  0  0  0  0  0  0  0  0  0  0  0
   12.2971   -2.7338    0.1748 H   0  0  0  0  0  0  0  0  0  0  0  0
   14.1967   -4.6184    0.3617 H   0  0  0  0  0  0  0  0  0  0  0  0
   15.9344   -5.2949   -1.5458 H   0  0  0  0  0  0  0  0  0  0  0  0
   15.9336   -7.7606   -1.3635 H   0  0  0  0  0  0  0  0  0  0  0  0
   16.4947   -9.5528   -0.0590 H   0  0  0  0  0  0  0  0  0  0  0  0
   17.8092   -7.4804    2.4763 H   0  0  0  0  0  0  0  0  0  0  0  0
   17.8032   -5.0081    2.2979 H   0  0  0  0  0  0  0  0  0  0  0  0
   19.5199   -4.5699    0.3080 H   0  0  0  0  0  0  0  0  0  0  0  0
   21.3838   -2.6569    0.2190 H   0  0  0  0  0  0  0  0  0  0  0  0
   21.3233    2.6362   -0.1822 H   0  0  0  0  0  0  0  0  0  0  0  0
   19.4167    4.5010   -0.3485 H   0  0  0  0  0  0  0  0  0  0  0  0
   17.7277    5.1509    1.5969 H   0  0  0  0  0  0  0  0  0  0  0  0
   17.7058    7.6251    1.4500 H   0  0  0  0  0  0  0  0  0  0  0  0
   16.3261    9.3343   -1.3112 H   0  0  0  0  0  0  0  0  0  0  0  0
   15.7589    7.3797   -2.3565 H   0  0  0  0  0  0  0  0  0  0  0  0
   15.7895    4.9119   -2.2157 H   0  0  0  0  0  0  0  0  0  0  0  0
   14.0925    4.4409   -0.2352 H   0  0  0  0  0  0  0  0  0  0  0  0
   12.2369    2.5049   -0.1640 H   0  0  0  0  0  0  0  0  0  0  0  0
   27.7674    0.0641    0.0083 Zn  0  0  0  0  0  0  0  0  0  0  0  0
   31.1847    0.0969   -0.0567 C   0  0  0  0  0  0  0  0  0  0  0  0
   30.5505    1.3302   -0.1435 C   0  0  0  0  0  0  0  0  0  0  0  0
   31.2201    2.5985   -0.2161 C   0  0  0  0  0  0  0  0  0  0  0  0
   30.2575    3.5531   -0.2645 C   0  0  0  0  0  0  0  0  0  0  0  0
   28.9871    2.8780   -0.2319 C   0  0  0  0  0  0  0  0  0  0  0  0
   29.2003    1.5330   -0.1524 N   0  0  0  0  0  0  0  0  0  0  0  0
   27.7341    3.5018   -0.2474 C   0  0  0  0  0  0  0  0  0  0  0  0
   27.7203    4.9830   -0.3543 C   0  0  0  0  0  0  0  0  0  0  0  0
   28.2495    5.6161   -1.4793 C   0  0  0  0  0  0  0  0  0  0  0  0
   28.2459    6.9987   -1.5826 C   0  0  0  0  0  0  0  0  0  0  0  0
   27.7152    7.7670   -0.5493 C   0  0  0  0  0  0  0  0  0  0  0  0
   27.6975    9.1246   -0.6068 O   0  0  0  0  0  0  0  0  0  0  0  0
   27.1843    7.1478    0.5806 C   0  0  0  0  0  0  0  0  0  0  0  0
   27.1860    5.7669    0.6710 C   0  0  0  0  0  0  0  0  0  0  0  0
   26.4969    2.8524   -0.1710 C   0  0  0  0  0  0  0  0  0  0  0  0
   25.2205    3.5058   -0.2367 C   0  0  0  0  0  0  0  0  0  0  0  0
   24.2733    2.5382   -0.1481 C   0  0  0  0  0  0  0  0  0  0  0  0
   26.2984    1.5015   -0.0553 N   0  0  0  0  0  0  0  0  0  0  0  0
   24.9540    1.2834   -0.0359 C   0  0  0  0  0  0  0  0  0  0  0  0
   24.3159    0.0281    0.0596 C   0  0  0  0  0  0  0  0  0  0  0  0
   24.9825   -1.2131    0.1419 C   0  0  0  0  0  0  0  0  0  0  0  0
   24.3304   -2.4864    0.2055 C   0  0  0  0  0  0  0  0  0  0  0  0
   25.2992   -3.4346    0.2637 C   0  0  0  0  0  0  0  0  0  0  0  0
   26.5606   -2.7492    0.2442 C   0  0  0  0  0  0  0  0  0  0  0  0
   26.3314   -1.4010    0.1612 N   0  0  0  0  0  0  0  0  0  0  0  0
   27.8123   -3.3748    0.2756 C   0  0  0  0  0  0  0  0  0  0  0  0
   27.8272   -4.8543    0.4012 C   0  0  0  0  0  0  0  0  0  0  0  0
   27.2835   -5.4765    1.5278 C   0  0  0  0  0  0  0  0  0  0  0  0
   27.2983   -6.8543    1.6541 C   0  0  0  0  0  0  0  0  0  0  0  0
   27.8561   -7.6347    0.6433 C   0  0  0  0  0  0  0  0  0  0  0  0
   27.8514   -8.9849    0.7971 O   0  0  0  0  0  0  0  0  0  0  0  0
   28.3993   -7.0294   -0.4872 C   0  0  0  0  0  0  0  0  0  0  0  0
   28.3857   -5.6475   -0.6013 C   0  0  0  0  0  0  0  0  0  0  0  0
   29.0512   -2.7275    0.2011 C   0  0  0  0  0  0  0  0  0  0  0  0
   30.3367   -3.3698    0.2773 C   0  0  0  0  0  0  0  0  0  0  0  0
   31.2772   -2.3972    0.1781 C   0  0  0  0  0  0  0  0  0  0  0  0
   30.5787   -1.1490    0.0508 C   0  0  0  0  0  0  0  0  0  0  0  0
   29.2335   -1.3819    0.0713 N   0  0  0  0  0  0  0  0  0  0  0  0
   32.2703    0.1091   -0.0599 H   0  0  0  0  0  0  0  0  0  0  0  0
   32.2909    2.7303   -0.2200 H   0  0  0  0  0  0  0  0  0  0  0  0
   30.3914    4.6224   -0.3049 H   0  0  0  0  0  0  0  0  0  0  0  0
   28.6534    5.0185   -2.2892 H   0  0  0  0  0  0  0  0  0  0  0  0
   28.6533    7.4849   -2.4627 H   0  0  0  0  0  0  0  0  0  0  0  0
   28.0912    9.4455   -1.4291 H   0  0  0  0  0  0  0  0  0  0  0  0
   26.7780    7.7581    1.3777 H   0  0  0  0  0  0  0  0  0  0  0  0
   26.7848    5.2858    1.5560 H   0  0  0  0  0  0  0  0  0  0  0  0
   25.0681    4.5670   -0.3505 H   0  0  0  0  0  0  0  0  0  0  0  0
   23.2041    2.6612   -0.1641 H   0  0  0  0  0  0  0  0  0  0  0  0
   23.2643   -2.6349    0.1981 H   0  0  0  0  0  0  0  0  0  0  0  0
   25.1709   -4.5043    0.3011 H   0  0  0  0  0  0  0  0  0  0  0  0
   26.8604   -4.8688    2.3199 H   0  0  0  0  0  0  0  0  0  0  0  0
   26.8830   -7.3384    2.5294 H   0  0  0  0  0  0  0  0  0  0  0  0
   28.2628   -9.4257    0.0418 H   0  0  0  0  0  0  0  0  0  0  0  0
   28.8288   -7.6411   -1.2735 H   0  0  0  0  0  0  0  0  0  0  0  0
   28.7976   -5.1786   -1.4881 H   0  0  0  0  0  0  0  0  0  0  0  0
   30.4951   -4.4289    0.4046 H   0  0  0  0  0  0  0  0  0  0  0  0
   32.3507   -2.5028    0.1969 H   0  0  0  0  0  0  0  0  0  0  0  0
   21.6844   -0.0029    0.0625 C   0  0  0  0  0  0  0  0  0  0  0  0
   22.9034    0.0120    0.0614 C   0  0  0  0  0  0  0  0  0  0  0  0
  2  3  4  0  0  0  0
  3  4  4  0  0  0  0
  4  5  2  0  0  0  0
  5  6  4  0  0  0  0
  1  7  1  0  0  0  0
  3  7  4  0  0  0  0
  6  7  4  0  0  0  0
  6  8  4  0  0  0  0
  8  9  1  0  0  0  0
  9 10  4  0  0  0  0
 10 11  4  0  0  0  0
 11 12  4  0  0  0  0
 12 13  1  0  0  0  0
 12 14  4  0  0  0  0
  9 15  4  0  0  0  0
 14 15  4  0  0  0  0
  8 16  4  0  0  0  0
 16 17  4  0  0  0  0
 17 18  2  0  0  0  0
  1 19  1  0  0  0  0
 16 19  4  0  0  0  0
 18 20  4  0  0  0  0
 19 20  4  0  0  0  0
 20 21  4  0  0  0  0
 21 22  4  0  0  0  0
 22 23  4  0  0  0  0
 23 24  2  0  0  0  0
 24 25  4  0  0  0  0
  1 26  1  0  0  0  0
 22 26  4  0  0  0  0
 25 26  4  0  0  0  0
 25 27  4  0  0  0  0
 27 28  1  0  0  0  0
 28 29  4  0  0  0  0
 29 30  4  0  0  0  0
 30 31  4  0  0  0  0
 31 32  1  0  0  0  0
 31 33  4  0  0  0  0
 28 34  4  0  0  0  0
 33 34  4  0  0  0  0
 27 35  4  0  0  0  0
 35 36  4  0  0  0  0
 36 37  2  0  0  0  0
  2 38  4  0  0  0  0
 37 38  4  0  0  0  0
  1 39  1  0  0  0  0
 35 39  4  0  0  0  0
 38 39  4  0  0  0  0
  2 40  1  0  0  0  0
  4 41  1  0  0  0  0
  5 42  1  0  0  0  0
 10 43  1  0  0  0  0
 11 44  1  0  0  0  0
 13 45  1  0  0  0  0
 14 46  1  0  0  0  0
 15 47  1  0  0  0  0
 17 48  1  0  0  0  0
 18 49  1  0  0  0  0
 23 50  1  0  0  0  0
 24 51  1  0  0  0  0
 29 52  1  0  0  0  0
 30 53  1  0  0  0  0
 32 54  1  0  0  0  0
 33 55  1  0  0  0  0
 34 56  1  0  0  0  0
 36 57  1  0  0  0  0
 37 58  1  0  0  0  0
 60 61  4  0  0  0  0
 61 62  4  0  0  0  0
 62 63  2  0  0  0  0
 63 64  4  0  0  0  0
 59 65  1  0  0  0  0
 61 65  4  0  0  0  0
 64 65  4  0  0  0  0
 64 66  4  0  0  0  0
 66 67  1  0  0  0  0
 67 68  4  0  0  0  0
 68 69  4  0  0  0  0
 69 70  4  0  0  0  0
 70 71  1  0  0  0  0
 70 72  4  0  0  0  0
 67 73  4  0  0  0  0
 72 73  4  0  0  0  0
 66 74  4  0  0  0  0
 74 75  4  0  0  0  0
 75 76  2  0  0  0  0
 59 77  1  0  0  0  0
 74 77  4  0  0  0  0
 76 78  4  0  0  0  0
 77 78  4  0  0  0  0
 78 79  4  0  0  0  0
 79 80  4  0  0  0  0
 80 81  4  0  0  0  0
 81 82  2  0  0  0  0
 82 83  4  0  0  0  0
 59 84  1  0  0  0  0
 80 84  4  0  0  0  0
 83 84  4  0  0  0  0
 83 85  4  0  0  0  0
 85 86  1  0  0  0  0
 86 87  4  0  0  0  0
 87 88  4  0  0  0  0
 88 89  4  0  0  0  0
 89 90  1  0  0  0  0
 89 91  4  0  0  0  0
 86 92  4  0  0  0  0
 91 92  4  0  0  0  0
 85 93  4  0  0  0  0
 93 94  4  0  0  0  0
 94 95  2  0  0  0  0
 60 96  4  0  0  0  0
 95 96  4  0  0  0  0
 59 97  1  0  0  0  0
 93 97  4  0  0  0  0
 96 97  4  0  0  0  0
 60 98  1  0  0  0  0
 62 99  1  0  0  0  0
 63100  1  0  0  0  0
 68101  1  0  0  0  0
 69102  1  0  0  0  0
 71103  1  0  0  0  0
 72104  1  0  0  0  0
 73105  1  0  0  0  0
 75106  1  0  0  0  0
 76107  1  0  0  0  0
 81108  1  0  0  0  0
 82109  1  0  0  0  0
 87110  1  0  0  0  0
 88111  1  0  0  0  0
 90112  1  0  0  0  0
 91113  1  0  0  0  0
 92114  1  0  0  0  0
 94115  1  0  0  0  0
 95116  1  0  0  0  0
 21117  4  0  0  0  0
 79118  4  0  0  0  0
117118  3  0  0  0  0
M  END
