192

C 29.215870 -0.617927 0.568056
C 29.906414 -1.257802 -0.676268
C 29.257321 -1.786109 -1.766156
C 30.253939 -2.261236 -2.655735
C 31.479106 -2.018426 -2.075404
N 31.256409 -1.368165 -0.885683
C 32.902352 -2.431107 -2.644995
C 32.957310 -3.311167 -3.844836
C 33.523834 -2.800327 -5.029146
C 33.584810 -3.588449 -6.170435
O 34.140195 -3.131397 -7.332120
C 33.064179 -4.873507 -6.153033
O 33.111422 -5.646578 -7.283824
C 32.477370 -5.380451 -4.995780
O 31.941031 -6.637642 -5.011201
C 32.424249 -4.611782 -3.836745
C 34.032420 -1.938887 -2.060930
C 35.352912 -2.397235 -2.441130
C 36.251073 -1.746817 -1.711722
N 34.215191 -1.012061 -1.068498
C 35.552651 -0.828094 -0.836251
C 36.215348 0.008986 0.006328
C 35.422627 1.053501 0.899677
C 35.913367 2.249404 1.386386
C 34.897057 2.845827 2.174954
C 33.805309 2.005466 2.132837
N 34.119309 0.940164 1.319748
C 32.420164 2.216435 2.870636
C 32.342655 3.247011 3.930098
C 32.816054 2.994443 5.228190
C 32.728625 3.991494 6.187466
O 33.178882 3.766344 7.457785
C 32.184006 5.228635 5.864120
O 32.105043 6.199876 6.828741
C 31.727518 5.488213 4.576313
O 31.212408 6.729218 4.320228
C 31.802128 4.504543 3.603468
C 31.328830 1.508236 2.473830
C 30.041928 1.608713 3.141339
C 29.179393 0.816807 2.511536
C 29.877700 0.197418 1.411066
N 31.171098 0.615101 1.452783
H 28.165173 -0.826437 0.734381
H 28.187697 -1.823231 -1.908146
H 30.092850 -2.739958 -3.610100
H 31.982681 -0.998001 -0.281094
H 33.905760 -1.780201 -5.017153
H 34.454152 -2.234154 -7.139470
H 33.597312 -5.084436 -7.911578
H 32.182520 -6.972339 -5.891888
H 31.962246 -5.003356 -2.933894
H 35.580967 -3.162625 -3.159962
H 37.310970 -1.901703 -1.775418
H 36.898249 2.652870 1.199060
H 34.958740 3.781478 2.710969
H 33.461018 0.215521 1.038268
H 33.245485 2.025371 5.466734
H 33.008965 4.607188 7.922282
H 31.689905 6.953148 6.352675
H 30.978929 6.745333 3.372660
H 31.446678 4.668398 2.588049
H 29.817645 2.202685 4.008749
H 28.145066 0.669874 2.767865
C 60.633010 -0.691129 0.473657
C 59.942465 0.354716 1.403167
C 60.591558 1.278763 2.186175
C 59.594940 2.022048 2.867808
C 58.369773 1.520438 2.488166
N 58.592470 0.530062 1.562191
C 56.946527 1.969356 3.029657
C 56.891570 2.912324 4.180715
C 56.325045 4.186522 3.980801
C 56.264069 5.095669 5.028238
O 55.708684 6.334564 4.874786
C 56.784700 4.758893 6.268504
O 56.737457 5.661620 7.298752
C 57.371510 3.511869 6.471382
O 57.907848 3.213819 7.692829
C 57.424630 2.580692 5.438366
C 55.816459 1.526222 2.407528
C 54.495967 1.780342 2.946098
C 53.597807 1.235825 2.134567
N 55.633688 0.795775 1.262811
C 54.296228 0.616640 1.026817
C 53.633531 0.008986 0.006328
C 54.426252 -0.596197 -1.227704
C 53.935512 -0.769856 -2.507124
C 54.951822 -1.385112 -3.281086
C 56.043570 -1.553534 -2.456700
N 55.729570 -1.031258 -1.222515
C 57.428715 -2.215582 -2.844706
C 57.506225 -2.985118 -4.106593
C 57.032826 -4.305217 -4.185144
C 57.120254 -4.986069 -5.389621
O 56.669997 -6.272444 -5.487813
C 57.664873 -4.364910 -6.507312
O 57.743836 -5.057363 -7.688121
C 58.121361 -3.053026 -6.438110
O 58.636471 -2.496048 -7.576288
C 58.046751 -2.355701 -5.243214
C 58.520050 -2.007579 -2.060018
C 59.806951 -2.629057 -2.323511
C 60.669486 -2.216233 -1.399745
C 59.971179 -1.304613 -0.525889
N 58.677781 -1.241031 -0.940807
H 61.683706 -0.904128 0.634195
H 61.661182 1.407041 2.257477
H 59.756030 2.827184 3.569052
H 57.866198 0.036663 1.053165
H 55.943120 4.428873 2.989807
H 55.394727 6.371354 3.957831
H 56.251567 6.409557 6.910592
H 57.666359 3.983454 8.236240
H 57.886633 1.608783 5.592841
H 54.267912 2.285994 3.866346
H 52.537909 1.258956 2.300435
H 52.950630 -0.487982 -2.851251
H 54.890140 -1.671315 -4.320723
H 56.387861 -0.939045 -0.450612
H 56.603394 -4.777507 -3.305971
H 56.839915 -6.512983 -6.417823
H 58.158975 -4.408755 -8.299156
H 58.869950 -1.574303 -7.355993
H 58.402201 -1.331461 -5.149116
H 60.031235 -3.321284 -3.114729
H 61.703813 -2.501072 -1.321253
C 38.602831 0.008986 0.006328
C 39.824748 0.008986 0.006328
C 50.024131 0.008986 0.006328
C 51.246049 0.008986 0.006328
C 41.365961 -0.018841 -0.013269
C 42.150394 -1.365513 0.280216
C 41.615857 -2.534964 0.784802
C 42.653274 -3.500467 0.807393
C 43.793657 -2.888011 0.328810
N 43.494412 -1.570910 0.078784
C 45.195068 -3.580027 0.088469
C 45.202377 -5.043679 -0.139096
C 45.529044 -5.924782 0.909166
C 45.537290 -7.302672 0.684271
O 45.866536 -8.163887 1.699976
C 45.215558 -7.799782 -0.579168
O 45.216122 -9.146400 -0.833516
C 44.890081 -6.921350 -1.619762
O 44.588190 -7.457129 -2.851316
C 44.879339 -5.546224 -1.410278
C 46.330800 -2.837134 0.019165
C 47.622126 -3.432141 -0.258637
C 48.529067 -2.463810 -0.298389
N 46.538675 -1.491623 0.150664
C 47.864992 -1.202121 -0.035939
C 48.534342 -0.018841 -0.013269
C 47.751742 1.328255 0.278384
C 48.285468 2.492051 0.799473
C 47.250678 3.460757 0.815721
C 46.111470 2.854822 0.319545
N 46.412347 1.541922 0.050777
C 44.705129 3.544490 0.092640
C 44.662970 5.023939 0.038519
C 44.939411 5.716886 -1.151476
C 44.877943 7.104908 -1.158363
O 45.135709 7.794669 -2.312304
C 44.549696 7.801098 0.003677
O 44.486329 9.170609 -0.026374
C 44.284430 7.117797 1.185900
O 43.965950 7.848785 2.301217
C 44.339741 5.730969 1.212820
C 43.572877 2.796789 -0.002579
C 42.275113 3.394965 -0.251920
C 41.367906 2.425916 -0.289123
C 42.038023 1.162050 -0.055120
N 43.370427 1.447678 0.094282
H 40.587553 -2.688287 1.079412
H 42.570490 -4.532634 1.118858
H 44.165772 -0.857243 -0.192727
H 45.778184 -5.502911 1.882219
H 46.122035 -7.623794 2.470917
H 44.970766 -9.198923 -1.779871
H 44.408275 -6.699800 -3.441416
H 44.632980 -4.842812 -2.204014
H 47.824768 -4.476120 -0.419304
H 49.575042 -2.612902 -0.495620
H 49.310364 2.639675 1.111822
H 47.335143 4.488397 1.137807
H 45.741005 0.831968 -0.233345
H 45.189950 5.164279 -2.054643
H 44.991970 8.728786 -2.061849
H 44.229914 9.397782 0.892814
H 43.820690 7.201222 3.016150
H 44.131566 5.162963 2.116462
H 42.071358 4.440789 -0.400894
H 40.317600 2.575616 -0.461094
