 xtb: 6.5.1 (b24c23e)
          07292210133D

192212  0     0  0            999 V2000
   30.6890   -0.2618    0.1088 C   0  0  0  0  0  0  0  0  0  0  0  0
   31.2863   -1.0861   -0.8360 C   0  0  0  0  0  0  0  0  0  0  0  0
   30.6222   -1.9131   -1.7851 C   0  0  0  0  0  0  0  0  0  0  0  0
   31.5750   -2.5513   -2.5278 C   0  0  0  0  0  0  0  0  0  0  0  0
   32.8530   -2.1490   -2.0444 C   0  0  0  0  0  0  0  0  0  0  0  0
   32.6272   -1.2567   -1.0344 N   0  0  0  0  0  0  0  0  0  0  0  0
   34.1120   -2.5610   -2.4946 C   0  0  0  0  0  0  0  0  0  0  0  0
   34.1408   -3.5471   -3.6031 C   0  0  0  0  0  0  0  0  0  0  0  0
   34.7732   -3.2144   -4.8046 C   0  0  0  0  0  0  0  0  0  0  0  0
   34.7988   -4.1301   -5.8487 C   0  0  0  0  0  0  0  0  0  0  0  0
   35.3939   -3.8716   -7.0558 O   0  0  0  0  0  0  0  0  0  0  0  0
   34.2016   -5.3794   -5.7009 C   0  0  0  0  0  0  0  0  0  0  0  0
   34.2151   -6.3018   -6.7140 O   0  0  0  0  0  0  0  0  0  0  0  0
   33.5727   -5.7141   -4.5006 C   0  0  0  0  0  0  0  0  0  0  0  0
   32.9981   -6.9341   -4.3651 O   0  0  0  0  0  0  0  0  0  0  0  0
   33.5402   -4.7976   -3.4559 C   0  0  0  0  0  0  0  0  0  0  0  0
   35.3314   -2.1112   -1.9796 C   0  0  0  0  0  0  0  0  0  0  0  0
   36.6237   -2.6276   -2.3925 C   0  0  0  0  0  0  0  0  0  0  0  0
   37.5503   -1.9521   -1.6812 C   0  0  0  0  0  0  0  0  0  0  0  0
   35.4947   -1.1562   -1.0238 N   0  0  0  0  0  0  0  0  0  0  0  0
   36.8241   -1.0279   -0.8326 C   0  0  0  0  0  0  0  0  0  0  0  0
   37.4689   -0.1090    0.0183 C   0  0  0  0  0  0  0  0  0  0  0  0
   36.8430    0.8217    0.8677 C   0  0  0  0  0  0  0  0  0  0  0  0
   37.4936    1.7846    1.6837 C   0  0  0  0  0  0  0  0  0  0  0  0
   36.5338    2.4785    2.3668 C   0  0  0  0  0  0  0  0  0  0  0  0
   35.2656    1.9471    2.0025 C   0  0  0  0  0  0  0  0  0  0  0  0
   35.5039    0.9586    1.0844 N   0  0  0  0  0  0  0  0  0  0  0  0
   34.0084    2.3429    2.4727 C   0  0  0  0  0  0  0  0  0  0  0  0
   33.9812    3.4252    3.4866 C   0  0  0  0  0  0  0  0  0  0  0  0
   34.6426    3.2699    4.7055 C   0  0  0  0  0  0  0  0  0  0  0  0
   34.6168    4.2909    5.6483 C   0  0  0  0  0  0  0  0  0  0  0  0
   35.2523    4.1481    6.8372 O   0  0  0  0  0  0  0  0  0  0  0  0
   33.9330    5.4760    5.3722 C   0  0  0  0  0  0  0  0  0  0  0  0
   33.9294    6.4671    6.3184 O   0  0  0  0  0  0  0  0  0  0  0  0
   33.2733    5.6313    4.1557 C   0  0  0  0  0  0  0  0  0  0  0  0
   32.6272    6.8229    3.9546 O   0  0  0  0  0  0  0  0  0  0  0  0
   33.2921    4.6106    3.2138 C   0  0  0  0  0  0  0  0  0  0  0  0
   32.7915    1.7930    2.0550 C   0  0  0  0  0  0  0  0  0  0  0  0
   31.4973    2.1472    2.6170 C   0  0  0  0  0  0  0  0  0  0  0  0
   30.5795    1.4116    1.9575 C   0  0  0  0  0  0  0  0  0  0  0  0
   31.3119    0.6047    0.9977 C   0  0  0  0  0  0  0  0  0  0  0  0
   32.6415    0.8504    1.0944 N   0  0  0  0  0  0  0  0  0  0  0  0
   29.6047   -0.2963    0.1412 H   0  0  0  0  0  0  0  0  0  0  0  0
   29.5513   -1.9924   -1.8833 H   0  0  0  0  0  0  0  0  0  0  0  0
   31.4123   -3.2374   -3.3431 H   0  0  0  0  0  0  0  0  0  0  0  0
   33.3597   -0.7888   -0.5111 H   0  0  0  0  0  0  0  0  0  0  0  0
   35.2277   -2.2388   -4.9315 H   0  0  0  0  0  0  0  0  0  0  0  0
   35.7820   -2.9868   -7.0645 H   0  0  0  0  0  0  0  0  0  0  0  0
   34.6882   -5.9122   -7.4665 H   0  0  0  0  0  0  0  0  0  0  0  0
   33.1284   -7.4265   -5.1923 H   0  0  0  0  0  0  0  0  0  0  0  0
   33.0664   -5.0765   -2.5236 H   0  0  0  0  0  0  0  0  0  0  0  0
   36.7800   -3.4127   -3.1145 H   0  0  0  0  0  0  0  0  0  0  0  0
   38.6233   -2.0525   -1.7120 H   0  0  0  0  0  0  0  0  0  0  0  0
   38.5610    1.9256    1.7340 H   0  0  0  0  0  0  0  0  0  0  0  0
   36.6887    3.2900    3.0587 H   0  0  0  0  0  0  0  0  0  0  0  0
   34.7777    0.4102    0.6356 H   0  0  0  0  0  0  0  0  0  0  0  0
   35.1606    2.3488    4.9391 H   0  0  0  0  0  0  0  0  0  0  0  0
   35.1137    4.9576    7.3560 H   0  0  0  0  0  0  0  0  0  0  0  0
   33.4100    7.2096    5.9710 H   0  0  0  0  0  0  0  0  0  0  0  0
   32.1924    6.8365    3.0919 H   0  0  0  0  0  0  0  0  0  0  0  0
   32.7904    4.7450    2.2628 H   0  0  0  0  0  0  0  0  0  0  0  0
   31.3387    2.8507    3.4186 H   0  0  0  0  0  0  0  0  0  0  0  0
   29.5090    1.3904    2.0899 H   0  0  0  0  0  0  0  0  0  0  0  0
   59.1696   -0.0328    0.2284 C   0  0  0  0  0  0  0  0  0  0  0  0
   58.5652    0.8447    1.1192 C   0  0  0  0  0  0  0  0  0  0  0  0
   59.2226    1.7291    2.0201 C   0  0  0  0  0  0  0  0  0  0  0  0
   58.2646    2.4163    2.7106 C   0  0  0  0  0  0  0  0  0  0  0  0
   56.9900    1.9632    2.2646 C   0  0  0  0  0  0  0  0  0  0  0  0
   57.2228    1.0263    1.2975 N   0  0  0  0  0  0  0  0  0  0  0  0
   55.7285    2.3798    2.7038 C   0  0  0  0  0  0  0  0  0  0  0  0
   55.6964    3.3922    3.7884 C   0  0  0  0  0  0  0  0  0  0  0  0
   55.0764    4.6254    3.5685 C   0  0  0  0  0  0  0  0  0  0  0  0
   55.0472    5.5741    4.5829 C   0  0  0  0  0  0  0  0  0  0  0  0
   54.4645    6.8059    4.4386 O   0  0  0  0  0  0  0  0  0  0  0  0
   55.6271    5.2983    5.8186 C   0  0  0  0  0  0  0  0  0  0  0  0
   55.6081    6.2150    6.8370 O   0  0  0  0  0  0  0  0  0  0  0  0
   56.2437    4.0660    6.0404 C   0  0  0  0  0  0  0  0  0  0  0  0
   56.8014    3.8055    7.2480 O   0  0  0  0  0  0  0  0  0  0  0  0
   56.2812    3.1175    5.0250 C   0  0  0  0  0  0  0  0  0  0  0  0
   54.5118    1.9065    2.2048 C   0  0  0  0  0  0  0  0  0  0  0  0
   53.2161    2.2784    2.7436 C   0  0  0  0  0  0  0  0  0  0  0  0
   52.2944    1.6140    2.0158 C   0  0  0  0  0  0  0  0  0  0  0  0
   54.3552    1.0225    1.1819 N   0  0  0  0  0  0  0  0  0  0  0  0
   53.0271    0.8352    1.0367 C   0  0  0  0  0  0  0  0  0  0  0  0
   52.3894    0.0111    0.0892 C   0  0  0  0  0  0  0  0  0  0  0  0
   53.0202   -0.8083   -0.8644 C   0  0  0  0  0  0  0  0  0  0  0  0
   52.3738   -1.5746   -1.8704 C   0  0  0  0  0  0  0  0  0  0  0  0
   53.3374   -2.2084   -2.6042 C   0  0  0  0  0  0  0  0  0  0  0  0
   54.6044   -1.8581   -2.0604 C   0  0  0  0  0  0  0  0  0  0  0  0
   54.3608   -1.0034   -1.0177 N   0  0  0  0  0  0  0  0  0  0  0  0
   55.8653   -2.2754   -2.5002 C   0  0  0  0  0  0  0  0  0  0  0  0
   55.8979   -3.2148   -3.6478 C   0  0  0  0  0  0  0  0  0  0  0  0
   55.2691   -4.4574   -3.5629 C   0  0  0  0  0  0  0  0  0  0  0  0
   55.2969   -5.3289   -4.6455 C   0  0  0  0  0  0  0  0  0  0  0  0
   54.6939   -6.5403   -4.5707 O   0  0  0  0  0  0  0  0  0  0  0  0
   55.9489   -4.9560   -5.8221 C   0  0  0  0  0  0  0  0  0  0  0  0
   55.9543   -5.8326   -6.8752 O   0  0  0  0  0  0  0  0  0  0  0  0
   56.5758   -3.7155   -5.9071 C   0  0  0  0  0  0  0  0  0  0  0  0
   57.1914   -3.4180   -7.0948 O   0  0  0  0  0  0  0  0  0  0  0  0
   56.5561   -2.8454   -4.8245 C   0  0  0  0  0  0  0  0  0  0  0  0
   57.0808   -1.8672   -1.9401 C   0  0  0  0  0  0  0  0  0  0  0  0
   58.3811   -2.3774   -2.3462 C   0  0  0  0  0  0  0  0  0  0  0  0
   59.2946   -1.7537   -1.5751 C   0  0  0  0  0  0  0  0  0  0  0  0
   58.5538   -0.8660   -0.6965 C   0  0  0  0  0  0  0  0  0  0  0  0
   57.2236   -0.9694   -0.9365 N   0  0  0  0  0  0  0  0  0  0  0  0
   60.2543   -0.0572    0.2594 H   0  0  0  0  0  0  0  0  0  0  0  0
   60.2929    1.8233    2.1122 H   0  0  0  0  0  0  0  0  0  0  0  0
   58.4212    3.1756    3.4595 H   0  0  0  0  0  0  0  0  0  0  0  0
   56.4940    0.5381    0.7879 H   0  0  0  0  0  0  0  0  0  0  0  0
   54.6344    4.8516    2.6053 H   0  0  0  0  0  0  0  0  0  0  0  0
   54.0844    6.9048    3.5558 H   0  0  0  0  0  0  0  0  0  0  0  0
   55.1412    7.0043    6.5196 H   0  0  0  0  0  0  0  0  0  0  0  0
   56.6686    4.5803    7.8188 H   0  0  0  0  0  0  0  0  0  0  0  0
   56.7459    2.1586    5.2149 H   0  0  0  0  0  0  0  0  0  0  0  0
   53.0549    2.9406    3.5789 H   0  0  0  0  0  0  0  0  0  0  0  0
   51.2215    1.6229    2.1229 H   0  0  0  0  0  0  0  0  0  0  0  0
   51.3068   -1.6186   -2.0171 H   0  0  0  0  0  0  0  0  0  0  0  0
   53.1864   -2.8543   -3.4536 H   0  0  0  0  0  0  0  0  0  0  0  0
   55.0852   -0.5722   -0.4530 H   0  0  0  0  0  0  0  0  0  0  0  0
   54.7749   -4.7648   -2.6504 H   0  0  0  0  0  0  0  0  0  0  0  0
   54.8236   -6.9990   -5.4171 H   0  0  0  0  0  0  0  0  0  0  0  0
   56.4463   -5.4213   -7.6036 H   0  0  0  0  0  0  0  0  0  0  0  0
   57.6029   -2.5446   -7.0592 H   0  0  0  0  0  0  0  0  0  0  0  0
   57.0321   -1.8751   -4.9036 H   0  0  0  0  0  0  0  0  0  0  0  0
   58.5463   -3.1244   -3.1061 H   0  0  0  0  0  0  0  0  0  0  0  0
   60.3675   -1.8668   -1.5735 H   0  0  0  0  0  0  0  0  0  0  0  0
   38.8791   -0.1005    0.0173 C   0  0  0  0  0  0  0  0  0  0  0  0
   40.0957   -0.0860    0.0213 C   0  0  0  0  0  0  0  0  0  0  0  0
   49.7626   -0.0108    0.0605 C   0  0  0  0  0  0  0  0  0  0  0  0
   50.9790    0.0031    0.0782 C   0  0  0  0  0  0  0  0  0  0  0  0
   41.5053   -0.0759    0.0204 C   0  0  0  0  0  0  0  0  0  0  0  0
   42.1389   -1.3081   -0.2255 C   0  0  0  0  0  0  0  0  0  0  0  0
   41.4996   -2.5611   -0.4116 C   0  0  0  0  0  0  0  0  0  0  0  0
   42.4694   -3.5020   -0.6264 C   0  0  0  0  0  0  0  0  0  0  0  0
   43.7310   -2.8487   -0.5850 C   0  0  0  0  0  0  0  0  0  0  0  0
   43.4808   -1.5266   -0.3300 N   0  0  0  0  0  0  0  0  0  0  0  0
   44.9942   -3.4302   -0.7513 C   0  0  0  0  0  0  0  0  0  0  0  0
   45.0207   -4.8818   -1.0575 C   0  0  0  0  0  0  0  0  0  0  0  0
   45.6642   -5.7689   -0.1935 C   0  0  0  0  0  0  0  0  0  0  0  0
   45.6942   -7.1350   -0.4598 C   0  0  0  0  0  0  0  0  0  0  0  0
   46.3089   -8.0085    0.3791 O   0  0  0  0  0  0  0  0  0  0  0  0
   45.0787   -7.6302   -1.6142 C   0  0  0  0  0  0  0  0  0  0  0  0
   45.0943   -8.9568   -1.9044 O   0  0  0  0  0  0  0  0  0  0  0  0
   44.4402   -6.7353   -2.4767 C   0  0  0  0  0  0  0  0  0  0  0  0
   43.8622   -7.2843   -3.5927 O   0  0  0  0  0  0  0  0  0  0  0  0
   44.4006   -5.3742   -2.2076 C   0  0  0  0  0  0  0  0  0  0  0  0
   46.2130   -2.7571   -0.6433 C   0  0  0  0  0  0  0  0  0  0  0  0
   47.5037   -3.3757   -0.8867 C   0  0  0  0  0  0  0  0  0  0  0  0
   48.4324   -2.4229   -0.6630 C   0  0  0  0  0  0  0  0  0  0  0  0
   46.3785   -1.4489   -0.3052 N   0  0  0  0  0  0  0  0  0  0  0  0
   47.7086   -1.2222   -0.2955 C   0  0  0  0  0  0  0  0  0  0  0  0
   48.3528   -0.0190    0.0505 C   0  0  0  0  0  0  0  0  0  0  0  0
   47.7194    1.1911    0.3877 C   0  0  0  0  0  0  0  0  0  0  0  0
   48.3599    2.4066    0.7432 C   0  0  0  0  0  0  0  0  0  0  0  0
   47.3907    3.3498    0.9487 C   0  0  0  0  0  0  0  0  0  0  0  0
   46.1284    2.7397    0.7138 C   0  0  0  0  0  0  0  0  0  0  0  0
   46.3774    1.4323    0.3918 N   0  0  0  0  0  0  0  0  0  0  0  0
   44.8663    3.3403    0.7977 C   0  0  0  0  0  0  0  0  0  0  0  0
   44.8419    4.7912    1.1107 C   0  0  0  0  0  0  0  0  0  0  0  0
   45.4659    5.7031    0.2586 C   0  0  0  0  0  0  0  0  0  0  0  0
   45.4368    7.0620    0.5492 C   0  0  0  0  0  0  0  0  0  0  0  0
   46.0332    7.9570   -0.2762 O   0  0  0  0  0  0  0  0  0  0  0  0
   44.7890    7.5133    1.7001 C   0  0  0  0  0  0  0  0  0  0  0  0
   44.7795    8.8582    1.9628 O   0  0  0  0  0  0  0  0  0  0  0  0
   44.1697    6.6028    2.5527 C   0  0  0  0  0  0  0  0  0  0  0  0
   43.5582    7.1201    3.6642 O   0  0  0  0  0  0  0  0  0  0  0  0
   44.1910    5.2446    2.2614 C   0  0  0  0  0  0  0  0  0  0  0  0
   43.6469    2.6870    0.6069 C   0  0  0  0  0  0  0  0  0  0  0  0
   42.3581    3.3548    0.6301 C   0  0  0  0  0  0  0  0  0  0  0  0
   41.4287    2.3993    0.4206 C   0  0  0  0  0  0  0  0  0  0  0  0
   42.1504    1.1529    0.2591 C   0  0  0  0  0  0  0  0  0  0  0  0
   43.4797    1.3582    0.3628 N   0  0  0  0  0  0  0  0  0  0  0  0
   40.4341   -2.7185   -0.3717 H   0  0  0  0  0  0  0  0  0  0  0  0
   42.3248   -4.5579   -0.7863 H   0  0  0  0  0  0  0  0  0  0  0  0
   44.1985   -0.8181   -0.2191 H   0  0  0  0  0  0  0  0  0  0  0  0
   46.1324   -5.3975    0.7111 H   0  0  0  0  0  0  0  0  0  0  0  0
   46.7052   -7.5498    1.1315 H   0  0  0  0  0  0  0  0  0  0  0  0
   44.6219   -9.0900   -2.7419 H   0  0  0  0  0  0  0  0  0  0  0  0
   43.4524   -6.6015   -4.1393 H   0  0  0  0  0  0  0  0  0  0  0  0
   43.9122   -4.6999   -2.9013 H   0  0  0  0  0  0  0  0  0  0  0  0
   47.6576   -4.3957   -1.1991 H   0  0  0  0  0  0  0  0  0  0  0  0
   49.5053   -2.5014   -0.7358 H   0  0  0  0  0  0  0  0  0  0  0  0
   49.4265    2.5364    0.8281 H   0  0  0  0  0  0  0  0  0  0  0  0
   47.5357    4.3765    1.2426 H   0  0  0  0  0  0  0  0  0  0  0  0
   45.6598    0.7459    0.1840 H   0  0  0  0  0  0  0  0  0  0  0  0
   45.9564    5.3667   -0.6457 H   0  0  0  0  0  0  0  0  0  0  0  0
   45.8992    8.8462    0.0913 H   0  0  0  0  0  0  0  0  0  0  0  0
   44.2895    8.9973    2.7889 H   0  0  0  0  0  0  0  0  0  0  0  0
   43.1502    6.4195    4.1898 H   0  0  0  0  0  0  0  0  0  0  0  0
   43.7191    4.5405    2.9365 H   0  0  0  0  0  0  0  0  0  0  0  0
   42.2057    4.4128    0.7697 H   0  0  0  0  0  0  0  0  0  0  0  0
   40.3577    2.5073    0.3586 H   0  0  0  0  0  0  0  0  0  0  0  0
  1  2  4  0  0  0  0
  2  3  4  0  0  0  0
  3  4  2  0  0  0  0
  4  5  4  0  0  0  0
  2  6  4  0  0  0  0
  5  6  4  0  0  0  0
  5  7  4  0  0  0  0
  7  8  1  0  0  0  0
  8  9  4  0  0  0  0
  9 10  4  0  0  0  0
 10 11  1  0  0  0  0
 10 12  4  0  0  0  0
 12 13  1  0  0  0  0
 12 14  4  0  0  0  0
 14 15  1  0  0  0  0
  8 16  4  0  0  0  0
 14 16  4  0  0  0  0
  7 17  4  0  0  0  0
 17 18  1  0  0  0  0
 18 19  2  0  0  0  0
 17 20  4  0  0  0  0
 19 21  1  0  0  0  0
 20 21  4  0  0  0  0
 21 22  4  0  0  0  0
 22 23  4  0  0  0  0
 23 24  4  0  0  0  0
 24 25  2  0  0  0  0
 25 26  4  0  0  0  0
 23 27  4  0  0  0  0
 26 27  4  0  0  0  0
 26 28  4  0  0  0  0
 28 29  1  0  0  0  0
 29 30  4  0  0  0  0
 30 31  4  0  0  0  0
 31 32  1  0  0  0  0
 31 33  4  0  0  0  0
 33 34  1  0  0  0  0
 33 35  4  0  0  0  0
 35 36  1  0  0  0  0
 29 37  4  0  0  0  0
 35 37  4  0  0  0  0
 28 38  4  0  0  0  0
 38 39  1  0  0  0  0
 39 40  2  0  0  0  0
  1 41  4  0  0  0  0
 40 41  1  0  0  0  0
 38 42  4  0  0  0  0
 41 42  4  0  0  0  0
  1 43  1  0  0  0  0
  3 44  1  0  0  0  0
  4 45  1  0  0  0  0
  6 46  1  0  0  0  0
  9 47  1  0  0  0  0
 11 48  1  0  0  0  0
 13 49  1  0  0  0  0
 15 50  1  0  0  0  0
 16 51  1  0  0  0  0
 18 52  1  0  0  0  0
 19 53  1  0  0  0  0
 24 54  1  0  0  0  0
 25 55  1  0  0  0  0
 27 56  1  0  0  0  0
 30 57  1  0  0  0  0
 32 58  1  0  0  0  0
 34 59  1  0  0  0  0
 36 60  1  0  0  0  0
 37 61  1  0  0  0  0
 39 62  1  0  0  0  0
 40 63  1  0  0  0  0
 64 65  4  0  0  0  0
 65 66  4  0  0  0  0
 66 67  2  0  0  0  0
 67 68  4  0  0  0  0
 65 69  4  0  0  0  0
 68 69  4  0  0  0  0
 68 70  4  0  0  0  0
 70 71  1  0  0  0  0
 71 72  4  0  0  0  0
 72 73  4  0  0  0  0
 73 74  1  0  0  0  0
 73 75  4  0  0  0  0
 75 76  1  0  0  0  0
 75 77  4  0  0  0  0
 77 78  1  0  0  0  0
 71 79  4  0  0  0  0
 77 79  4  0  0  0  0
 70 80  4  0  0  0  0
 80 81  1  0  0  0  0
 81 82  2  0  0  0  0
 80 83  4  0  0  0  0
 82 84  1  0  0  0  0
 83 84  4  0  0  0  0
 84 85  4  0  0  0  0
 85 86  4  0  0  0  0
 86 87  4  0  0  0  0
 87 88  2  0  0  0  0
 88 89  4  0  0  0  0
 86 90  4  0  0  0  0
 89 90  4  0  0  0  0
 89 91  4  0  0  0  0
 91 92  1  0  0  0  0
 92 93  4  0  0  0  0
 93 94  4  0  0  0  0
 94 95  1  0  0  0  0
 94 96  4  0  0  0  0
 96 97  1  0  0  0  0
 96 98  4  0  0  0  0
 98 99  1  0  0  0  0
 92100  4  0  0  0  0
 98100  4  0  0  0  0
 91101  4  0  0  0  0
101102  1  0  0  0  0
102103  2  0  0  0  0
 64104  4  0  0  0  0
103104  1  0  0  0  0
101105  4  0  0  0  0
104105  4  0  0  0  0
 64106  1  0  0  0  0
 66107  1  0  0  0  0
 67108  1  0  0  0  0
 69109  1  0  0  0  0
 72110  1  0  0  0  0
 74111  1  0  0  0  0
 76112  1  0  0  0  0
 78113  1  0  0  0  0
 79114  1  0  0  0  0
 81115  1  0  0  0  0
 82116  1  0  0  0  0
 87117  1  0  0  0  0
 88118  1  0  0  0  0
 90119  1  0  0  0  0
 93120  1  0  0  0  0
 95121  1  0  0  0  0
 97122  1  0  0  0  0
 99123  1  0  0  0  0
100124  1  0  0  0  0
102125  1  0  0  0  0
103126  1  0  0  0  0
 22127  4  0  0  0  0
127128  3  0  0  0  0
 85130  4  0  0  0  0
129130  3  0  0  0  0
128131  4  0  0  0  0
131132  4  0  0  0  0
132133  4  0  0  0  0
133134  2  0  0  0  0
134135  4  0  0  0  0
132136  4  0  0  0  0
135136  4  0  0  0  0
135137  4  0  0  0  0
137138  1  0  0  0  0
138139  4  0  0  0  0
139140  4  0  0  0  0
140141  1  0  0  0  0
140142  4  0  0  0  0
142143  1  0  0  0  0
142144  4  0  0  0  0
144145  1  0  0  0  0
138146  4  0  0  0  0
144146  4  0  0  0  0
137147  4  0  0  0  0
147148  1  0  0  0  0
148149  2  0  0  0  0
147150  4  0  0  0  0
149151  1  0  0  0  0
150151  4  0  0  0  0
129152  4  0  0  0  0
151152  4  0  0  0  0
152153  4  0  0  0  0
153154  4  0  0  0  0
154155  2  0  0  0  0
155156  4  0  0  0  0
153157  4  0  0  0  0
156157  4  0  0  0  0
156158  4  0  0  0  0
158159  1  0  0  0  0
159160  4  0  0  0  0
160161  4  0  0  0  0
161162  1  0  0  0  0
161163  4  0  0  0  0
163164  1  0  0  0  0
163165  4  0  0  0  0
165166  1  0  0  0  0
159167  4  0  0  0  0
165167  4  0  0  0  0
158168  4  0  0  0  0
168169  1  0  0  0  0
169170  2  0  0  0  0
131171  4  0  0  0  0
170171  1  0  0  0  0
168172  4  0  0  0  0
171172  4  0  0  0  0
133173  1  0  0  0  0
134174  1  0  0  0  0
136175  1  0  0  0  0
139176  1  0  0  0  0
141177  1  0  0  0  0
143178  1  0  0  0  0
145179  1  0  0  0  0
146180  1  0  0  0  0
148181  1  0  0  0  0
149182  1  0  0  0  0
154183  1  0  0  0  0
155184  1  0  0  0  0
157185  1  0  0  0  0
160186  1  0  0  0  0
162187  1  0  0  0  0
164188  1  0  0  0  0
166189  1  0  0  0  0
167190  1  0  0  0  0
169191  1  0  0  0  0
170192  1  0  0  0  0
M  END
