210

C 23.516577 0.033625 0.089894
C 24.245841 -1.332887 -0.091161
C 23.642681 -2.569746 -0.117955
C 24.664858 -3.524918 -0.355393
C 25.857486 -2.837171 -0.472808
N 25.596348 -1.507257 -0.256747
C 27.276821 -3.452852 -0.818824
C 27.308524 -4.841406 -1.330552
C 27.103734 -5.092955 -2.693907
C 27.095075 -6.402608 -3.174682
C 27.290669 -7.458245 -2.279867
S 27.185714 -9.130768 -2.844933
O 26.598517 -9.134221 -4.169757
O 26.054093 -9.781991 -1.890888
O 28.441856 -9.790904 -2.565529
C 27.506495 -7.222308 -0.918489
C 27.517388 -5.909892 -0.447714
C 28.408130 -2.710473 -0.687240
C 29.709666 -3.226551 -1.058553
C 30.613018 -2.276383 -0.847252
N 28.606896 -1.430996 -0.241737
C 29.937528 -1.110482 -0.312849
C 30.606132 0.026137 0.017561
C 29.829178 1.261886 0.638380
C 30.364376 2.229385 1.465807
C 29.339105 3.167093 1.744832
C 28.205050 2.741243 1.086355
N 28.498082 1.551784 0.462392
C 26.798833 3.474431 1.067876
C 26.779933 4.931299 1.319172
C 27.157511 5.819877 0.304062
C 27.192910 7.192452 0.548609
C 26.845312 7.670234 1.816350
S 27.009467 9.398581 2.155029
O 25.948650 10.101793 1.469678
O 28.412138 9.798125 1.456086
O 27.243968 9.561505 3.575428
C 26.457307 6.797540 2.836646
C 26.424375 5.426401 2.582040
C 25.671274 2.764747 0.807765
C 24.352439 3.370263 0.759034
C 23.464540 2.415475 0.497259
C 24.182336 1.171897 0.360163
N 25.503381 1.434498 0.544614
H 22.439373 0.054606 -0.024231
H 22.587516 -2.760202 0.004506
H 24.539301 -4.592439 -0.452510
H 26.294701 -0.768446 -0.221466
H 26.946706 -4.252394 -3.367696
H 26.926119 -6.579974 -4.232966
H 25.178902 -9.553278 -2.265623
H 27.662475 -8.043632 -0.224538
H 27.682506 -5.698693 0.607489
H 29.920515 -4.205536 -1.450380
H 31.665450 -2.380347 -1.038702
H 31.382576 2.263553 1.823436
H 29.420702 4.053584 2.355109
H 27.817258 0.954540 0.000054
H 27.429722 5.422837 -0.672497
H 27.494319 7.869479 -0.245991
H 29.137789 9.479324 2.031407
H 26.193700 7.163571 3.825014
H 26.132291 4.723854 3.361037
H 24.125541 4.410776 0.905500
H 22.401972 2.542489 0.396305
C 69.182929 -0.018677 0.074830
C 68.453665 1.234798 0.648360
C 69.056825 2.296430 1.283557
C 68.034648 3.231569 1.590550
C 66.842020 2.711634 1.125309
N 67.103158 1.470531 0.600889
C 65.422686 3.417043 1.159782
C 65.390983 4.865068 1.465019
C 65.595772 5.803251 0.444320
C 65.604431 7.167998 0.733802
C 65.408837 7.585966 2.053031
S 65.513792 9.302829 2.464145
O 66.100989 10.010428 1.344112
O 66.645414 9.346832 3.618423
O 64.257650 9.713222 3.051873
C 65.193011 6.662055 3.080360
C 65.182118 5.300287 2.780941
C 64.291377 2.718401 0.876335
C 62.989840 3.352921 0.836407
C 62.086488 2.435922 0.509944
N 64.092610 1.397968 0.573036
C 62.761978 1.164379 0.342336
C 62.093374 0.026137 0.017561
C 62.870328 -1.350518 -0.114021
C 62.335130 -2.609911 0.072037
C 63.360401 -3.552382 -0.190451
C 64.494457 -2.841525 -0.521544
N 64.201424 -1.502397 -0.417246
C 65.900673 -3.452564 -0.927174
C 65.919573 -4.819914 -1.489284
C 65.541995 -5.032431 -2.821522
C 65.506596 -6.324811 -3.344511
C 65.854194 -7.403712 -2.525112
S 65.690039 -9.047432 -3.157625
O 66.750856 -9.278378 -4.112024
O 64.287368 -9.014000 -3.962012
O 65.455538 -9.940909 -2.041482
C 66.242199 -7.207406 -1.196932
C 66.275131 -5.910890 -0.683224
C 67.028232 -2.713246 -0.769958
C 68.347068 -3.200081 -1.133297
C 69.234966 -2.252322 -0.847118
C 68.517170 -1.126330 -0.301751
N 67.196125 -1.446812 -0.285234
H 70.260133 0.024260 -0.032971
H 70.111990 2.392573 1.488561
H 68.160205 4.187210 2.076125
H 66.404805 0.826134 0.237791
H 65.752800 5.449847 -0.573344
H 65.773388 7.881095 -0.068019
H 67.520604 9.352479 3.179442
H 65.037031 6.988445 4.104865
H 65.017000 4.560180 3.562157
H 62.778991 4.390346 1.025329
H 61.034056 2.625791 0.403120
H 61.316930 -2.829068 0.356706
H 63.278804 -4.627676 -0.145189
H 64.882248 -0.750728 -0.491082
H 65.269784 -4.176782 -3.437293
H 65.205187 -6.475474 -4.377495
H 63.561717 -9.050051 -3.305256
H 66.505806 -8.043076 -0.554667
H 66.567215 -5.730318 0.350121
H 68.573965 -4.159100 -1.562718
H 70.297534 -2.306180 -1.000165
C 32.871531 0.040828 0.027837
C 34.329757 0.018991 0.009963
C 35.463686 -0.001763 0.008473
C 36.825067 -0.014352 0.006281
C 38.099286 -0.004046 0.001516
C 39.287749 0.014752 -0.004640
C 40.640109 0.039536 0.011228
C 41.740377 0.040828 0.027837
C 50.835093 0.040828 0.027837
C 52.293319 0.018991 0.009963
C 53.427247 -0.001763 0.008473
C 54.788629 -0.014352 0.006281
C 56.062848 -0.004046 0.001516
C 57.251310 0.014752 -0.004640
C 58.603671 0.039536 0.011228
C 59.703938 0.040828 0.027837
C 42.839452 -0.063298 -0.042630
C 43.636630 0.405337 -1.327835
C 43.140114 0.522582 -2.609898
C 44.179805 1.048961 -3.419320
C 45.278990 1.230842 -2.606577
N 44.961783 0.763648 -1.356252
C 46.664800 1.866898 -3.025194
C 46.651149 2.887488 -4.095749
C 46.974500 2.536922 -5.413668
C 46.926579 3.494033 -6.426566
C 46.560637 4.806500 -6.110527
S 46.426151 5.987968 -7.420368
O 45.814621 7.192830 -6.897008
O 45.307121 5.343651 -8.392809
O 47.678580 6.021032 -8.140050
C 46.252518 5.175456 -4.798257
C 46.295216 4.209036 -3.793189
C 47.802542 1.520031 -2.370267
C 49.087906 2.105399 -2.689251
C 49.999380 1.580083 -1.877456
N 48.014532 0.641983 -1.344673
C 49.339409 0.635031 -0.999472
C 50.004850 -0.063298 -0.042630
C 49.210408 -1.066207 0.891891
C 49.717111 -2.184936 1.520354
C 48.678550 -2.725281 2.322814
C 47.567859 -1.925807 2.149695
N 47.880595 -0.965483 1.220746
C 46.178181 -2.073105 2.891826
C 46.184776 -2.687912 4.237886
C 45.780511 -4.019180 4.409998
C 45.766256 -4.590584 5.681745
C 46.166674 -3.823136 6.780190
S 46.037765 -4.521566 8.399984
O 47.040884 -5.554092 8.532504
O 44.583907 -5.230464 8.398254
O 45.920214 -3.439858 9.356195
C 46.586156 -2.499355 6.623367
C 46.596510 -1.936129 5.347014
C 45.040088 -1.596798 2.321581
C 43.752461 -1.663459 2.982363
C 42.842291 -1.114937 2.184425
C 43.503939 -0.670785 0.974961
N 44.829201 -0.982932 1.118828
H 42.137440 0.276488 -2.924811
H 44.125632 1.284795 -4.470886
H 45.617513 0.654493 -0.588187
H 47.259878 1.509704 -5.633208
H 47.171929 3.210262 -7.446497
H 44.426953 5.546585 -8.014548
H 45.971452 6.193824 -4.544123
H 46.050582 4.467473 -2.763838
H 49.283035 2.842191 -3.447900
H 51.045355 1.829096 -1.885882
H 50.726400 -2.558186 1.434601
H 48.742921 -3.587679 2.969141
H 47.221937 -0.309191 0.811620
H 45.466422 -4.593405 3.540026
H 45.440918 -5.620109 5.802841
H 43.907877 -4.532565 8.531218
H 46.892333 -1.896986 7.474372
H 46.911558 -0.904193 5.199398
H 43.555349 -2.075905 3.954822
H 41.796724 -1.020988 2.415050
