382

C 78.163196 -0.044200 -0.176247
C 78.895511 -1.409295 0.001581
C 78.295429 -2.647413 0.025351
C 79.318817 -3.600262 0.267798
C 80.508480 -2.909174 0.392531
N 80.245473 -1.580308 0.173327
C 81.925614 -3.520596 0.750087
C 81.958415 -4.907402 1.265923
C 82.259804 -5.971852 0.405272
C 82.284764 -7.281997 0.886109
C 82.003415 -7.521441 2.238324
N 82.027107 -8.896240 2.749700
O 82.296557 -9.809797 1.954073
O 81.774385 -9.076355 3.951252
C 81.699029 -6.465290 3.108173
C 81.677546 -5.159435 2.615399
C 83.056476 -2.774593 0.632460
C 84.355915 -3.286863 1.017522
C 85.258803 -2.334285 0.816170
N 83.256329 -1.493102 0.193484
C 84.585033 -1.167986 0.280970
C 85.253424 -0.026174 -0.032194
C 84.477794 1.216882 -0.639419
C 85.017879 2.205479 -1.438196
C 83.991942 3.145985 -1.706087
C 82.852742 2.700044 -1.070582
N 83.143744 1.497232 -0.472062
C 81.444626 3.426600 -1.049652
C 81.418899 4.889647 -1.258244
C 81.057371 5.420608 -2.504223
C 81.042126 6.801778 -2.705382
C 81.395134 7.652114 -1.648514
N 81.380922 9.104690 -1.853112
O 81.066376 9.532440 -2.974933
O 81.684986 9.832131 -0.894756
C 81.761817 7.133198 -0.399233
C 81.772693 5.749975 -0.210717
C 80.316131 2.707503 -0.819131
C 78.993747 3.306596 -0.773920
C 78.106531 2.343136 -0.544047
C 78.827886 1.100407 -0.421305
N 80.149932 1.371462 -0.586314
H 77.084518 -0.029272 -0.075566
H 77.241260 -2.841047 -0.100743
H 79.194509 -4.667922 0.365449
H 80.941488 -0.839265 0.144422
H 82.478872 -5.759719 -0.640092
H 82.524464 -8.088570 0.198938
H 81.479562 -6.632882 4.158898
H 81.446043 -4.322325 3.272259
H 84.566838 -4.264379 1.412077
H 86.309378 -2.434686 1.019362
H 86.039959 2.253823 -1.782208
H 84.077681 4.048132 -2.292390
H 82.461048 0.887841 -0.029180
H 80.784118 4.739449 -3.308780
H 80.754341 7.187035 -3.679503
H 82.038642 7.777560 0.430509
H 82.053261 5.324332 0.751514
H 78.762823 4.348406 -0.901853
H 77.042027 2.463015 -0.454170
C 152.171093 -0.084648 -0.165074
C 151.438778 1.178165 -0.713171
C 152.038860 2.252926 -1.328305
C 151.015472 3.195117 -1.609338
C 149.825809 2.666047 -1.147552
N 150.088816 1.413088 -0.653560
C 148.408675 3.374308 -1.154541
C 148.375873 4.829255 -1.423703
C 148.074484 5.300996 -2.708707
C 148.049524 6.672186 -2.968554
C 148.330873 7.571778 -1.930983
N 148.307182 9.014131 -2.197809
O 148.037732 9.389751 -3.349554
O 148.559904 9.785470 -1.259083
C 148.635259 7.111882 -0.642345
C 148.656742 5.738245 -0.394944
C 147.277813 2.673705 -0.872562
C 145.978373 3.310993 -0.805051
C 145.075485 2.390131 -0.488889
N 147.077959 1.348593 -0.591498
C 145.749256 1.114484 -0.349533
C 145.080864 -0.026174 -0.032194
C 145.856494 -1.404664 0.084750
C 145.316409 -2.663101 -0.093313
C 146.342346 -3.607759 0.159547
C 147.481547 -2.898842 0.476038
N 147.190544 -1.559357 0.372281
C 148.889663 -3.511632 0.866945
C 148.915389 -4.874299 1.438920
C 149.276918 -5.969541 0.642159
C 149.292163 -7.258126 1.178485
C 148.939154 -7.445393 2.521977
N 148.953367 -8.797024 3.092006
O 149.267913 -9.739958 2.348818
O 148.649303 -8.929389 4.287872
C 148.572472 -6.358794 3.327756
C 148.561595 -5.074937 2.779525
C 150.018157 -2.776171 0.695663
C 151.340541 -3.267110 1.041982
C 152.227758 -2.322268 0.744711
C 151.506403 -1.192746 0.212149
N 150.184356 -1.510067 0.209671
H 153.249771 -0.045779 -0.071007
H 153.093029 2.354380 -1.535913
H 151.139779 4.161513 -2.073569
H 149.392801 0.762283 -0.297985
H 147.855416 4.582351 -3.496956
H 147.809825 7.011664 -3.972306
H 148.854726 7.795052 0.173367
H 148.888245 5.357001 0.598470
H 145.767450 4.352431 -0.968205
H 144.024910 2.580594 -0.366044
H 144.294329 -2.881173 -0.363731
H 146.256607 -4.682939 0.119456
H 147.873240 -0.809041 0.439562
H 149.550170 -5.797950 -0.397959
H 149.579948 -8.088777 0.540243
H 148.295647 -6.485878 4.370599
H 148.281027 -4.215729 3.386833
H 151.571466 -4.226866 1.466955
H 153.292261 -2.379014 0.883378
C 88.408068 -0.013738 -0.029752
C 87.155797 -0.032919 -0.034101
C 89.721736 -0.014504 -0.027820
C 91.224869 -0.032919 -0.034101
C 101.418975 -0.013738 -0.029752
C 100.166704 -0.032919 -0.034101
C 102.732643 -0.014504 -0.027820
C 104.235776 -0.032919 -0.034101
C 114.429882 -0.013738 -0.029752
C 113.177611 -0.032919 -0.034101
C 115.743550 -0.014504 -0.027820
C 117.246683 -0.032919 -0.034101
C 127.440789 -0.013738 -0.029752
C 126.188518 -0.032919 -0.034101
C 128.754457 -0.014504 -0.027820
C 130.257590 -0.032919 -0.034101
C 140.451696 -0.013738 -0.029752
C 139.199425 -0.032919 -0.034101
C 141.765364 -0.014504 -0.027820
C 143.268497 -0.032919 -0.034101
C 92.071124 0.016048 0.019207
C 92.866827 1.251737 -0.571229
C 92.367059 2.514336 -0.816641
C 93.406029 3.271111 -1.416848
C 94.508460 2.448062 -1.513720
N 94.193132 1.248697 -0.926435
C 95.894756 2.807526 -2.185821
C 95.882221 3.796246 -3.286144
C 96.319782 5.109335 -3.062817
C 96.297443 6.046613 -4.096989
C 95.829291 5.661675 -5.360832
N 95.802796 6.641973 -6.451899
O 95.397942 6.267277 -7.563512
O 96.185796 7.796889 -6.207283
C 95.385366 4.353224 -5.595637
C 95.413175 3.425016 -4.553147
C 97.031586 2.180912 -1.785595
C 98.316884 2.432122 -2.404817
C 99.226256 1.671308 -1.805170
N 97.241795 1.241382 -0.815733
C 98.566013 0.896227 -0.774487
C 99.230430 0.016048 0.019207
C 98.434676 -0.801613 1.117756
C 98.934177 -1.285304 2.309688
C 97.895228 -2.020356 2.936366
C 96.793071 -1.957322 2.109666
N 97.108541 -1.150080 1.045889
C 95.406860 -2.686274 2.332556
C 95.419440 -3.956751 3.090245
C 95.887432 -5.128478 2.481033
C 95.915228 -6.330556 3.190506
C 95.472396 -6.352531 4.520044
N 95.498929 -7.612312 5.271274
O 95.117568 -7.594921 6.452215
O 95.902182 -8.631010 4.688509
C 95.005303 -5.186546 5.142089
C 94.982901 -3.990895 4.422082
C 94.270018 -2.172646 1.794992
C 92.984718 -2.828669 1.922074
C 92.075328 -2.093464 1.291312
C 92.735568 -0.932601 0.729636
N 94.059800 -1.039717 1.060271
H 91.362198 2.849082 -0.607773
H 93.348809 4.293875 -1.757190
H 94.849802 0.495921 -0.741682
H 96.681483 5.384199 -2.073098
H 96.645960 7.056154 -3.897984
H 95.018402 4.038145 -6.568491
H 95.072652 2.403113 -4.713121
H 98.513198 3.108551 -3.216943
H 100.270487 1.645808 -2.058515
H 99.938843 -1.144366 2.678764
H 97.952272 -2.551152 3.874534
H 96.451980 -0.824009 0.342597
H 96.227110 -5.088339 1.447186
H 96.281352 -7.224467 2.693255
H 94.657659 -5.186009 6.171349
H 94.621970 -3.072686 4.883119
H 92.788404 -3.756010 2.429156
H 91.031082 -2.337088 1.217496
C 105.082031 0.016048 0.019207
C 105.877734 1.251737 -0.571229
C 105.377966 2.514336 -0.816641
C 106.416935 3.271111 -1.416848
C 107.519367 2.448062 -1.513720
N 107.204039 1.248697 -0.926435
C 108.905663 2.807526 -2.185821
C 108.893128 3.796246 -3.286144
C 109.330689 5.109335 -3.062817
C 109.308350 6.046613 -4.096989
C 108.840198 5.661675 -5.360832
N 108.813703 6.641973 -6.451899
O 108.408849 6.267277 -7.563512
O 109.196703 7.796889 -6.207283
C 108.396273 4.353224 -5.595637
C 108.424082 3.425016 -4.553147
C 110.042493 2.180912 -1.785595
C 111.327791 2.432122 -2.404817
C 112.237163 1.671308 -1.805170
N 110.252702 1.241382 -0.815733
C 111.576920 0.896227 -0.774487
C 112.241337 0.016048 0.019207
C 111.445583 -0.801613 1.117756
C 111.945084 -1.285304 2.309688
C 110.906135 -2.020356 2.936366
C 109.803978 -1.957322 2.109666
N 110.119448 -1.150080 1.045889
C 108.417767 -2.686274 2.332556
C 108.430347 -3.956751 3.090245
C 108.898339 -5.128478 2.481033
C 108.926135 -6.330556 3.190506
C 108.483303 -6.352531 4.520044
N 108.509836 -7.612312 5.271274
O 108.128475 -7.594921 6.452215
O 108.913089 -8.631010 4.688509
C 108.016210 -5.186546 5.142089
C 107.993808 -3.990895 4.422082
C 107.280925 -2.172646 1.794992
C 105.995625 -2.828669 1.922074
C 105.086235 -2.093464 1.291312
C 105.746475 -0.932601 0.729636
N 107.070706 -1.039717 1.060271
H 104.373105 2.849082 -0.607773
H 106.359716 4.293875 -1.757190
H 107.860709 0.495921 -0.741682
H 109.692390 5.384199 -2.073098
H 109.656867 7.056154 -3.897984
H 108.029309 4.038145 -6.568491
H 108.083559 2.403113 -4.713121
H 111.524105 3.108551 -3.216943
H 113.281394 1.645808 -2.058515
H 112.949750 -1.144366 2.678764
H 110.963179 -2.551152 3.874534
H 109.462887 -0.824009 0.342597
H 109.238017 -5.088339 1.447186
H 109.292258 -7.224467 2.693255
H 107.668566 -5.186009 6.171349
H 107.632877 -3.072686 4.883119
H 105.799311 -3.756010 2.429156
H 104.041989 -2.337088 1.217496
C 118.092938 0.016048 0.019207
C 118.888641 1.251737 -0.571229
C 118.388873 2.514336 -0.816641
C 119.427842 3.271111 -1.416848
C 120.530274 2.448062 -1.513720
N 120.214946 1.248697 -0.926435
C 121.916570 2.807526 -2.185821
C 121.904034 3.796246 -3.286144
C 122.341596 5.109335 -3.062817
C 122.319257 6.046613 -4.096989
C 121.851105 5.661675 -5.360832
N 121.824610 6.641973 -6.451899
O 121.419756 6.267277 -7.563512
O 122.207610 7.796889 -6.207283
C 121.407180 4.353224 -5.595637
C 121.434989 3.425016 -4.553147
C 123.053400 2.180912 -1.785595
C 124.338698 2.432122 -2.404817
C 125.248070 1.671308 -1.805170
N 123.263609 1.241382 -0.815733
C 124.587827 0.896227 -0.774487
C 125.252244 0.016048 0.019207
C 124.456489 -0.801613 1.117756
C 124.955991 -1.285304 2.309688
C 123.917042 -2.020356 2.936366
C 122.814885 -1.957322 2.109666
N 123.130355 -1.150080 1.045889
C 121.428674 -2.686274 2.332556
C 121.441254 -3.956751 3.090245
C 121.909246 -5.128478 2.481033
C 121.937042 -6.330556 3.190506
C 121.494210 -6.352531 4.520044
N 121.520743 -7.612312 5.271274
O 121.139382 -7.594921 6.452215
O 121.923996 -8.631010 4.688509
C 121.027117 -5.186546 5.142089
C 121.004715 -3.990895 4.422082
C 120.291832 -2.172646 1.794992
C 119.006532 -2.828669 1.922074
C 118.097142 -2.093464 1.291312
C 118.757382 -0.932601 0.729636
N 120.081613 -1.039717 1.060271
H 117.384012 2.849082 -0.607773
H 119.370623 4.293875 -1.757190
H 120.871616 0.495921 -0.741682
H 122.703297 5.384199 -2.073098
H 122.667774 7.056154 -3.897984
H 121.040216 4.038145 -6.568491
H 121.094466 2.403113 -4.713121
H 124.535012 3.108551 -3.216943
H 126.292301 1.645808 -2.058515
H 125.960657 -1.144366 2.678764
H 123.974086 -2.551152 3.874534
H 122.473794 -0.824009 0.342597
H 122.248924 -5.088339 1.447186
H 122.303165 -7.224467 2.693255
H 120.679473 -5.186009 6.171349
H 120.643784 -3.072686 4.883119
H 118.810218 -3.756010 2.429156
H 117.052896 -2.337088 1.217496
C 131.103845 0.016048 0.019207
C 131.899548 1.251737 -0.571229
C 131.399780 2.514336 -0.816641
C 132.438749 3.271111 -1.416848
C 133.541181 2.448062 -1.513720
N 133.225853 1.248697 -0.926435
C 134.927477 2.807526 -2.185821
C 134.914941 3.796246 -3.286144
C 135.352503 5.109335 -3.062817
C 135.330164 6.046613 -4.096989
C 134.862012 5.661675 -5.360832
N 134.835517 6.641973 -6.451899
O 134.430663 6.267277 -7.563512
O 135.218517 7.796889 -6.207283
C 134.418087 4.353224 -5.595637
C 134.445896 3.425016 -4.553147
C 136.064307 2.180912 -1.785595
C 137.349605 2.432122 -2.404817
C 138.258977 1.671308 -1.805170
N 136.274516 1.241382 -0.815733
C 137.598734 0.896227 -0.774487
C 138.263151 0.016048 0.019207
C 137.467396 -0.801613 1.117756
C 137.966898 -1.285304 2.309688
C 136.927949 -2.020356 2.936366
C 135.825792 -1.957322 2.109666
N 136.141262 -1.150080 1.045889
C 134.439581 -2.686274 2.332556
C 134.452161 -3.956751 3.090245
C 134.920153 -5.128478 2.481033
C 134.947949 -6.330556 3.190506
C 134.505117 -6.352531 4.520044
N 134.531650 -7.612312 5.271274
O 134.150289 -7.594921 6.452215
O 134.934903 -8.631010 4.688509
C 134.038024 -5.186546 5.142089
C 134.015622 -3.990895 4.422082
C 133.302739 -2.172646 1.794992
C 132.017439 -2.828669 1.922074
C 131.108049 -2.093464 1.291312
C 131.768289 -0.932601 0.729636
N 133.092520 -1.039717 1.060271
H 130.394919 2.849082 -0.607773
H 132.381530 4.293875 -1.757190
H 133.882523 0.495921 -0.741682
H 135.714204 5.384199 -2.073098
H 135.678681 7.056154 -3.897984
H 134.051123 4.038145 -6.568491
H 134.105373 2.403113 -4.713121
H 137.545918 3.108551 -3.216943
H 139.303208 1.645808 -2.058515
H 138.971564 -1.144366 2.678764
H 136.984993 -2.551152 3.874534
H 135.484701 -0.824009 0.342597
H 135.259831 -5.088339 1.447186
H 135.314072 -7.224467 2.693255
H 133.690380 -5.186009 6.171349
H 133.654691 -3.072686 4.883119
H 131.821125 -3.756010 2.429156
H 130.063803 -2.337088 1.217496
