 xtb: 6.5.1 (b24c23e)
          07302210013D

294333  0     0  0            999 V2000
   38.6918    0.0386   -0.0946 Zn  0  0  0  0  0  0  0  0  0  0  0  0
   35.2877    0.1522   -0.2878 C   0  0  0  0  0  0  0  0  0  0  0  0
   35.9278    1.3359    0.0598 C   0  0  0  0  0  0  0  0  0  0  0  0
   35.2653    2.5708    0.3738 C   0  0  0  0  0  0  0  0  0  0  0  0
   36.2312    3.4732    0.6789 C   0  0  0  0  0  0  0  0  0  0  0  0
   37.4974    2.8028    0.5445 C   0  0  0  0  0  0  0  0  0  0  0  0
   37.2774    1.5080    0.1752 N   0  0  0  0  0  0  0  0  0  0  0  0
   38.7516    3.3794    0.7798 C   0  0  0  0  0  0  0  0  0  0  0  0
   39.9824    2.7227    0.6818 C   0  0  0  0  0  0  0  0  0  0  0  0
   41.2674    3.3376    0.8696 C   0  0  0  0  0  0  0  0  0  0  0  0
   42.2046    2.3767    0.6667 C   0  0  0  0  0  0  0  0  0  0  0  0
   40.1646    1.4036    0.3602 N   0  0  0  0  0  0  0  0  0  0  0  0
   41.5034    1.1674    0.3487 C   0  0  0  0  0  0  0  0  0  0  0  0
   42.1232   -0.0666    0.0628 C   0  0  0  0  0  0  0  0  0  0  0  0
   41.4575   -1.2660   -0.2632 C   0  0  0  0  0  0  0  0  0  0  0  0
   42.1120   -2.5063   -0.5606 C   0  0  0  0  0  0  0  0  0  0  0  0
   41.1393   -3.4126   -0.8356 C   0  0  0  0  0  0  0  0  0  0  0  0
   39.8791   -2.7348   -0.7045 C   0  0  0  0  0  0  0  0  0  0  0  0
   38.6254   -3.3115   -0.9303 C   0  0  0  0  0  0  0  0  0  0  0  0
   38.5943   -4.7554   -1.2788 C   0  0  0  0  0  0  0  0  0  0  0  0
   38.1164   -5.1703   -2.5200 C   0  0  0  0  0  0  0  0  0  0  0  0
   38.0835   -6.5222   -2.8494 C   0  0  0  0  0  0  0  0  0  0  0  0
   37.5527   -6.9591   -4.1883 C   0  0  0  0  0  0  0  0  0  0  0  0
   38.5259   -7.4601   -1.9230 C   0  0  0  0  0  0  0  0  0  0  0  0
   39.0038   -7.0614   -0.6770 C   0  0  0  0  0  0  0  0  0  0  0  0
   39.4903   -8.0897    0.3083 C   0  0  0  0  0  0  0  0  0  0  0  0
   39.0393   -5.7081   -0.3624 C   0  0  0  0  0  0  0  0  0  0  0  0
   37.3952   -2.6470   -0.8560 C   0  0  0  0  0  0  0  0  0  0  0  0
   36.1055   -3.2526   -1.0572 C   0  0  0  0  0  0  0  0  0  0  0  0
   35.1747   -2.2812   -0.8826 C   0  0  0  0  0  0  0  0  0  0  0  0
   35.8827   -1.0732   -0.5629 C   0  0  0  0  0  0  0  0  0  0  0  0
   37.2242   -1.3279   -0.5528 N   0  0  0  0  0  0  0  0  0  0  0  0
   40.1112   -1.4295   -0.3594 N   0  0  0  0  0  0  0  0  0  0  0  0
   38.7758    4.8132    1.1670 C   0  0  0  0  0  0  0  0  0  0  0  0
   38.3062    5.7884    0.2881 C   0  0  0  0  0  0  0  0  0  0  0  0
   38.3244    7.1315    0.6475 C   0  0  0  0  0  0  0  0  0  0  0  0
   37.8403    8.1836   -0.3137 C   0  0  0  0  0  0  0  0  0  0  0  0
   38.8142    7.4965    1.8983 C   0  0  0  0  0  0  0  0  0  0  0  0
   39.2857    6.5352    2.7870 C   0  0  0  0  0  0  0  0  0  0  0  0
   39.7897    6.9383    4.1466 C   0  0  0  0  0  0  0  0  0  0  0  0
   39.2656    5.1951    2.4151 C   0  0  0  0  0  0  0  0  0  0  0  0
   34.2036    0.1853   -0.3372 H   0  0  0  0  0  0  0  0  0  0  0  0
   34.1962    2.7152    0.3664 H   0  0  0  0  0  0  0  0  0  0  0  0
   36.1024    4.5007    0.9795 H   0  0  0  0  0  0  0  0  0  0  0  0
   41.4297    4.3754    1.1123 H   0  0  0  0  0  0  0  0  0  0  0  0
   43.2774    2.4720    0.7213 H   0  0  0  0  0  0  0  0  0  0  0  0
   43.1801   -2.6555   -0.5617 H   0  0  0  0  0  0  0  0  0  0  0  0
   41.2618   -4.4465   -1.1156 H   0  0  0  0  0  0  0  0  0  0  0  0
   37.7837   -4.4292   -3.2387 H   0  0  0  0  0  0  0  0  0  0  0  0
   37.9200   -7.9518   -4.4486 H   0  0  0  0  0  0  0  0  0  0  0  0
   36.4612   -6.9946   -4.1616 H   0  0  0  0  0  0  0  0  0  0  0  0
   37.8482   -6.2573   -4.9688 H   0  0  0  0  0  0  0  0  0  0  0  0
   38.4992   -8.5159   -2.1726 H   0  0  0  0  0  0  0  0  0  0  0  0
   39.5647   -7.6662    1.3099 H   0  0  0  0  0  0  0  0  0  0  0  0
   38.8145   -8.9454    0.3367 H   0  0  0  0  0  0  0  0  0  0  0  0
   40.4784   -8.4501    0.0136 H   0  0  0  0  0  0  0  0  0  0  0  0
   39.3988   -5.3850    0.6086 H   0  0  0  0  0  0  0  0  0  0  0  0
   35.9381   -4.2918   -1.2914 H   0  0  0  0  0  0  0  0  0  0  0  0
   34.1015   -2.3653   -0.9538 H   0  0  0  0  0  0  0  0  0  0  0  0
   37.9393    5.4929   -0.6889 H   0  0  0  0  0  0  0  0  0  0  0  0
   37.3542    9.0011    0.2197 H   0  0  0  0  0  0  0  0  0  0  0  0
   37.1360    7.7615   -1.0307 H   0  0  0  0  0  0  0  0  0  0  0  0
   38.6856    8.5968   -0.8687 H   0  0  0  0  0  0  0  0  0  0  0  0
   38.8285    8.5435    2.1835 H   0  0  0  0  0  0  0  0  0  0  0  0
   38.9598    6.9665    4.8565 H   0  0  0  0  0  0  0  0  0  0  0  0
   40.2419    7.9298    4.1148 H   0  0  0  0  0  0  0  0  0  0  0  0
   40.5272    6.2249    4.5150 H   0  0  0  0  0  0  0  0  0  0  0  0
   39.6182    4.4354    3.1042 H   0  0  0  0  0  0  0  0  0  0  0  0
   94.5467    0.0409   -0.0700 Zn  0  0  0  0  0  0  0  0  0  0  0  0
   97.9490    0.2049   -0.2582 C   0  0  0  0  0  0  0  0  0  0  0  0
   97.3034   -0.4632   -1.2918 C   0  0  0  0  0  0  0  0  0  0  0  0
   97.9596   -1.1079   -2.3947 C   0  0  0  0  0  0  0  0  0  0  0  0
   96.9897   -1.6589   -3.1668 C   0  0  0  0  0  0  0  0  0  0  0  0
   95.7273   -1.3486   -2.5498 C   0  0  0  0  0  0  0  0  0  0  0  0
   95.9534   -0.6289   -1.4131 N   0  0  0  0  0  0  0  0  0  0  0  0
   94.4713   -1.7448   -3.0249 C   0  0  0  0  0  0  0  0  0  0  0  0
   93.2442   -1.4724   -2.4119 C   0  0  0  0  0  0  0  0  0  0  0  0
   91.9567   -1.8355   -2.9367 C   0  0  0  0  0  0  0  0  0  0  0  0
   91.0241   -1.3710   -2.0667 C   0  0  0  0  0  0  0  0  0  0  0  0
   93.0681   -0.7886   -1.2381 N   0  0  0  0  0  0  0  0  0  0  0  0
   91.7305   -0.7162   -1.0047 C   0  0  0  0  0  0  0  0  0  0  0  0
   91.1165   -0.0870    0.0974 C   0  0  0  0  0  0  0  0  0  0  0  0
   91.7871    0.5718    1.1477 C   0  0  0  0  0  0  0  0  0  0  0  0
   91.1384    1.2109    2.2551 C   0  0  0  0  0  0  0  0  0  0  0  0
   92.1152    1.7308    3.0413 C   0  0  0  0  0  0  0  0  0  0  0  0
   93.3723    1.4110    2.4228 C   0  0  0  0  0  0  0  0  0  0  0  0
   94.6287    1.7893    2.9066 C   0  0  0  0  0  0  0  0  0  0  0  0
   94.6655    2.5283    4.1949 C   0  0  0  0  0  0  0  0  0  0  0  0
   95.1423    3.8365    4.2442 C   0  0  0  0  0  0  0  0  0  0  0  0
   95.1785    4.5310    5.4498 C   0  0  0  0  0  0  0  0  0  0  0  0
   95.7073    5.9395    5.4929 C   0  0  0  0  0  0  0  0  0  0  0  0
   94.7409    3.9036    6.6111 C   0  0  0  0  0  0  0  0  0  0  0  0
   94.2645    2.5952    6.5786 C   0  0  0  0  0  0  0  0  0  0  0  0
   93.7826    1.9364    7.8431 C   0  0  0  0  0  0  0  0  0  0  0  0
   94.2254    1.9145    5.3676 C   0  0  0  0  0  0  0  0  0  0  0  0
   95.8555    1.5313    2.2833 C   0  0  0  0  0  0  0  0  0  0  0  0
   97.1480    1.8965    2.7998 C   0  0  0  0  0  0  0  0  0  0  0  0
   98.0737    1.4581    1.9103 C   0  0  0  0  0  0  0  0  0  0  0  0
   97.3600    0.8108    0.8453 C   0  0  0  0  0  0  0  0  0  0  0  0
   96.0201    0.8700    1.1015 N   0  0  0  0  0  0  0  0  0  0  0  0
   93.1342    0.7100    1.2705 N   0  0  0  0  0  0  0  0  0  0  0  0
   94.4396   -2.5202   -4.2916 C   0  0  0  0  0  0  0  0  0  0  0  0
   94.8874   -1.9454   -5.4803 C   0  0  0  0  0  0  0  0  0  0  0  0
   94.8597   -2.6670   -6.6685 C   0  0  0  0  0  0  0  0  0  0  0  0
   95.3184   -2.0341   -7.9546 C   0  0  0  0  0  0  0  0  0  0  0  0
   94.3830   -3.9748   -6.6615 C   0  0  0  0  0  0  0  0  0  0  0  0
   93.9341   -4.5631   -5.4831 C   0  0  0  0  0  0  0  0  0  0  0  0
   93.4445   -5.9863   -5.4819 C   0  0  0  0  0  0  0  0  0  0  0  0
   93.9629   -3.8301   -4.3014 C   0  0  0  0  0  0  0  0  0  0  0  0
   99.0325    0.2469   -0.3119 H   0  0  0  0  0  0  0  0  0  0  0  0
   99.0276   -1.1357   -2.5448 H   0  0  0  0  0  0  0  0  0  0  0  0
   97.1134   -2.2349   -4.0700 H   0  0  0  0  0  0  0  0  0  0  0  0
   91.7899   -2.3663   -3.8602 H   0  0  0  0  0  0  0  0  0  0  0  0
   89.9511   -1.4560   -2.1337 H   0  0  0  0  0  0  0  0  0  0  0  0
   90.0710    1.2554    2.4028 H   0  0  0  0  0  0  0  0  0  0  0  0
   91.9977    2.2931    3.9537 H   0  0  0  0  0  0  0  0  0  0  0  0
   95.4710    4.3195    3.3304 H   0  0  0  0  0  0  0  0  0  0  0  0
   95.3383    6.4680    6.3719 H   0  0  0  0  0  0  0  0  0  0  0  0
   96.7988    5.9253    5.5358 H   0  0  0  0  0  0  0  0  0  0  0  0
   95.4120    6.4906    4.5995 H   0  0  0  0  0  0  0  0  0  0  0  0
   94.7701    4.4388    7.5547 H   0  0  0  0  0  0  0  0  0  0  0  0
   93.7128    0.8559    7.7181 H   0  0  0  0  0  0  0  0  0  0  0  0
   94.4586    2.1524    8.6714 H   0  0  0  0  0  0  0  0  0  0  0  0
   92.7932    2.3160    8.1075 H   0  0  0  0  0  0  0  0  0  0  0  0
   93.8666    0.8917    5.3302 H   0  0  0  0  0  0  0  0  0  0  0  0
   97.3204    2.4134    3.7304 H   0  0  0  0  0  0  0  0  0  0  0  0
   99.1472    1.5522    1.9641 H   0  0  0  0  0  0  0  0  0  0  0  0
   95.2445   -0.9212   -5.4753 H   0  0  0  0  0  0  0  0  0  0  0  0
   95.8022   -2.7700   -8.5975 H   0  0  0  0  0  0  0  0  0  0  0  0
   96.0175   -1.2205   -7.7606 H   0  0  0  0  0  0  0  0  0  0  0  0
   94.4607   -1.6254   -8.4938 H   0  0  0  0  0  0  0  0  0  0  0  0
   94.3612   -4.5421   -7.5864 H   0  0  0  0  0  0  0  0  0  0  0  0
   94.2833   -6.6670   -5.3191 H   0  0  0  0  0  0  0  0  0  0  0  0
   92.9835   -6.2391   -6.4370 H   0  0  0  0  0  0  0  0  0  0  0  0
   92.7179   -6.1466   -4.6852 H   0  0  0  0  0  0  0  0  0  0  0  0
   93.6272   -4.2819   -3.3743 H   0  0  0  0  0  0  0  0  0  0  0  0
   43.5273   -0.0982    0.0918 C   0  0  0  0  0  0  0  0  0  0  0  0
   44.7522   -0.1151    0.1056 C   0  0  0  0  0  0  0  0  0  0  0  0
   46.0946   -0.1267    0.1120 C   0  0  0  0  0  0  0  0  0  0  0  0
   47.3257   -0.1306    0.1100 C   0  0  0  0  0  0  0  0  0  0  0  0
   48.6633   -0.1304    0.1008 C   0  0  0  0  0  0  0  0  0  0  0  0
   49.8944   -0.1255    0.0875 C   0  0  0  0  0  0  0  0  0  0  0  0
   51.2365   -0.1188    0.0699 C   0  0  0  0  0  0  0  0  0  0  0  0
   52.4615   -0.1093    0.0503 C   0  0  0  0  0  0  0  0  0  0  0  0
   62.1522   -0.0464   -0.0619 C   0  0  0  0  0  0  0  0  0  0  0  0
   63.3775   -0.0412   -0.0671 C   0  0  0  0  0  0  0  0  0  0  0  0
   64.7194   -0.0363   -0.0718 C   0  0  0  0  0  0  0  0  0  0  0  0
   65.9507   -0.0339   -0.0708 C   0  0  0  0  0  0  0  0  0  0  0  0
   67.2880   -0.0323   -0.0695 C   0  0  0  0  0  0  0  0  0  0  0  0
   68.5193   -0.0319   -0.0649 C   0  0  0  0  0  0  0  0  0  0  0  0
   69.8612   -0.0336   -0.0570 C   0  0  0  0  0  0  0  0  0  0  0  0
   71.0865   -0.0374   -0.0483 C   0  0  0  0  0  0  0  0  0  0  0  0
   80.7771   -0.0806    0.1251 C   0  0  0  0  0  0  0  0  0  0  0  0
   82.0017   -0.0880    0.1502 C   0  0  0  0  0  0  0  0  0  0  0  0
   83.3445   -0.0974    0.1681 C   0  0  0  0  0  0  0  0  0  0  0  0
   84.5751   -0.1068    0.1834 C   0  0  0  0  0  0  0  0  0  0  0  0
   85.9135   -0.1131    0.1892 C   0  0  0  0  0  0  0  0  0  0  0  0
   87.1442   -0.1156    0.1879 C   0  0  0  0  0  0  0  0  0  0  0  0
   88.4873   -0.1133    0.1701 C   0  0  0  0  0  0  0  0  0  0  0  0
   89.7117   -0.1065    0.1436 C   0  0  0  0  0  0  0  0  0  0  0  0
   57.3068   -0.0790   -0.0188 Zn  0  0  0  0  0  0  0  0  0  0  0  0
   53.8654   -0.1006    0.0276 C   0  0  0  0  0  0  0  0  0  0  0  0
   54.5005    1.1503   -0.1166 C   0  0  0  0  0  0  0  0  0  0  0  0
   53.8150    2.4046   -0.2149 C   0  0  0  0  0  0  0  0  0  0  0  0
   54.7643    3.3658   -0.3528 C   0  0  0  0  0  0  0  0  0  0  0  0
   56.0392    2.7051   -0.3478 C   0  0  0  0  0  0  0  0  0  0  0  0
   55.8420    1.3587   -0.1931 N   0  0  0  0  0  0  0  0  0  0  0  0
   57.2797    3.3419   -0.4616 C   0  0  0  0  0  0  0  0  0  0  0  0
   58.5303    2.7176   -0.4082 C   0  0  0  0  0  0  0  0  0  0  0  0
   59.7952    3.3780   -0.5704 C   0  0  0  0  0  0  0  0  0  0  0  0
   60.7597    2.4293   -0.4539 C   0  0  0  0  0  0  0  0  0  0  0  0
   58.7490    1.3797   -0.2121 N   0  0  0  0  0  0  0  0  0  0  0  0
   60.0937    1.1807   -0.2295 C   0  0  0  0  0  0  0  0  0  0  0  0
   60.7485   -0.0558   -0.0523 C   0  0  0  0  0  0  0  0  0  0  0  0
   60.1136   -1.3013    0.1341 C   0  0  0  0  0  0  0  0  0  0  0  0
   60.8004   -2.5417    0.3409 C   0  0  0  0  0  0  0  0  0  0  0  0
   59.8511   -3.5041    0.4697 C   0  0  0  0  0  0  0  0  0  0  0  0
   58.5747   -2.8601    0.3341 C   0  0  0  0  0  0  0  0  0  0  0  0
   57.3340   -3.5019    0.4090 C   0  0  0  0  0  0  0  0  0  0  0  0
   57.3469   -4.9763    0.5893 C   0  0  0  0  0  0  0  0  0  0  0  0
   56.7984   -5.5504    1.7345 C   0  0  0  0  0  0  0  0  0  0  0  0
   56.8081   -6.9310    1.9074 C   0  0  0  0  0  0  0  0  0  0  0  0
   56.2345   -7.5398    3.1585 C   0  0  0  0  0  0  0  0  0  0  0  0
   57.3694   -7.7373    0.9227 C   0  0  0  0  0  0  0  0  0  0  0  0
   57.9185   -7.1790   -0.2287 C   0  0  0  0  0  0  0  0  0  0  0  0
   58.5332   -8.0643   -1.2790 C   0  0  0  0  0  0  0  0  0  0  0  0
   57.9074   -5.7982   -0.3883 C   0  0  0  0  0  0  0  0  0  0  0  0
   56.0830   -2.8808    0.3289 C   0  0  0  0  0  0  0  0  0  0  0  0
   54.8170   -3.5577    0.3616 C   0  0  0  0  0  0  0  0  0  0  0  0
   53.8525   -2.6074    0.2572 C   0  0  0  0  0  0  0  0  0  0  0  0
   54.5196   -1.3439    0.1498 C   0  0  0  0  0  0  0  0  0  0  0  0
   55.8650   -1.5359    0.1892 N   0  0  0  0  0  0  0  0  0  0  0  0
   58.7716   -1.5185    0.1406 N   0  0  0  0  0  0  0  0  0  0  0  0
   57.2683    4.8145   -0.6575 C   0  0  0  0  0  0  0  0  0  0  0  0
   57.8355    5.6558    0.2981 C   0  0  0  0  0  0  0  0  0  0  0  0
   57.8247    7.0355    0.1210 C   0  0  0  0  0  0  0  0  0  0  0  0
   58.4517    7.9360    1.1510 C   0  0  0  0  0  0  0  0  0  0  0  0
   57.2468    7.5711   -1.0258 C   0  0  0  0  0  0  0  0  0  0  0  0
   56.6772    6.7441   -1.9898 C   0  0  0  0  0  0  0  0  0  0  0  0
   56.0732    7.3344   -3.2355 C   0  0  0  0  0  0  0  0  0  0  0  0
   56.6894    5.3668   -1.7995 C   0  0  0  0  0  0  0  0  0  0  0  0
   52.7443    2.5275   -0.1763 H   0  0  0  0  0  0  0  0  0  0  0  0
   54.6163    4.4302   -0.4392 H   0  0  0  0  0  0  0  0  0  0  0  0
   59.9267    4.4311   -0.7603 H   0  0  0  0  0  0  0  0  0  0  0  0
   61.8287    2.5555   -0.5201 H   0  0  0  0  0  0  0  0  0  0  0  0
   61.8720   -2.6537    0.3872 H   0  0  0  0  0  0  0  0  0  0  0  0
   60.0002   -4.5561    0.6520 H   0  0  0  0  0  0  0  0  0  0  0  0
   56.3738   -4.9110    2.5009 H   0  0  0  0  0  0  0  0  0  0  0  0
   55.9189   -8.5681    2.9819 H   0  0  0  0  0  0  0  0  0  0  0  0
   56.9894   -7.5457    3.9482 H   0  0  0  0  0  0  0  0  0  0  0  0
   55.3794   -6.9634    3.5127 H   0  0  0  0  0  0  0  0  0  0  0  0
   57.3768   -8.8149    1.0509 H   0  0  0  0  0  0  0  0  0  0  0  0
   58.6084   -7.5431   -2.2334 H   0  0  0  0  0  0  0  0  0  0  0  0
   57.9403   -8.9692   -1.4166 H   0  0  0  0  0  0  0  0  0  0  0  0
   59.5382   -8.3626   -0.9719 H   0  0  0  0  0  0  0  0  0  0  0  0
   58.3194   -5.3517   -1.2867 H   0  0  0  0  0  0  0  0  0  0  0  0
   54.6844   -4.6245    0.4426 H   0  0  0  0  0  0  0  0  0  0  0  0
   52.7828   -2.7435    0.2458 H   0  0  0  0  0  0  0  0  0  0  0  0
   58.2709    5.2274    1.1944 H   0  0  0  0  0  0  0  0  0  0  0  0
   57.9828    8.9201    1.1448 H   0  0  0  0  0  0  0  0  0  0  0  0
   59.5146    8.0642    0.9333 H   0  0  0  0  0  0  0  0  0  0  0  0
   58.3601    7.5068    2.1490 H   0  0  0  0  0  0  0  0  0  0  0  0
   57.2365    8.6467   -1.1691 H   0  0  0  0  0  0  0  0  0  0  0  0
   55.6184    8.3026   -3.0244 H   0  0  0  0  0  0  0  0  0  0  0  0
   55.3152    6.6712   -3.6524 H   0  0  0  0  0  0  0  0  0  0  0  0
   56.8492    7.4819   -3.9901 H   0  0  0  0  0  0  0  0  0  0  0  0
   56.2588    4.7113   -2.5487 H   0  0  0  0  0  0  0  0  0  0  0  0
   75.9315   -0.0599    0.0211 Zn  0  0  0  0  0  0  0  0  0  0  0  0
   72.4902   -0.0440   -0.0333 C   0  0  0  0  0  0  0  0  0  0  0  0
   73.1431    1.1994   -0.1623 C   0  0  0  0  0  0  0  0  0  0  0  0
   72.4744    2.4608   -0.2833 C   0  0  0  0  0  0  0  0  0  0  0  0
   73.4376    3.4114   -0.3943 C   0  0  0  0  0  0  0  0  0  0  0  0
   74.7048    2.7370   -0.3491 C   0  0  0  0  0  0  0  0  0  0  0  0
   74.4883    1.3931   -0.1982 N   0  0  0  0  0  0  0  0  0  0  0  0
   75.9548    3.3606   -0.4241 C   0  0  0  0  0  0  0  0  0  0  0  0
   77.1965    2.7235   -0.3270 C   0  0  0  0  0  0  0  0  0  0  0  0
   78.4730    3.3709   -0.4460 C   0  0  0  0  0  0  0  0  0  0  0  0
   79.4232    2.4124   -0.2970 C   0  0  0  0  0  0  0  0  0  0  0  0
   77.3944    1.3838   -0.1237 N   0  0  0  0  0  0  0  0  0  0  0  0
   78.7372    1.1703   -0.0969 C   0  0  0  0  0  0  0  0  0  0  0  0
   79.3724   -0.0737    0.0942 C   0  0  0  0  0  0  0  0  0  0  0  0
   78.7194   -1.3130    0.2533 C   0  0  0  0  0  0  0  0  0  0  0  0
   79.3863   -2.5623    0.4720 C   0  0  0  0  0  0  0  0  0  0  0  0
   78.4232   -3.5146    0.5684 C   0  0  0  0  0  0  0  0  0  0  0  0
   77.1583   -2.8555    0.4014 C   0  0  0  0  0  0  0  0  0  0  0  0
   75.9089   -3.4836    0.4411 C   0  0  0  0  0  0  0  0  0  0  0  0
   75.9002   -4.9584    0.6200 C   0  0  0  0  0  0  0  0  0  0  0  0
   75.3195   -5.5259    1.7525 C   0  0  0  0  0  0  0  0  0  0  0  0
   75.3091   -6.9065    1.9253 C   0  0  0  0  0  0  0  0  0  0  0  0
   74.7008   -7.5079    3.1636 C   0  0  0  0  0  0  0  0  0  0  0  0
   75.8823   -7.7194    0.9531 C   0  0  0  0  0  0  0  0  0  0  0  0
   76.4632   -7.1677   -0.1858 C   0  0  0  0  0  0  0  0  0  0  0  0
   77.0907   -8.0599   -1.2227 C   0  0  0  0  0  0  0  0  0  0  0  0
   76.4723   -5.7867   -0.3452 C   0  0  0  0  0  0  0  0  0  0  0  0
   74.6676   -2.8486    0.3295 C   0  0  0  0  0  0  0  0  0  0  0  0
   73.3936   -3.5112    0.3287 C   0  0  0  0  0  0  0  0  0  0  0  0
   72.4430   -2.5503    0.1991 C   0  0  0  0  0  0  0  0  0  0  0  0
   73.1269   -1.2943    0.1093 C   0  0  0  0  0  0  0  0  0  0  0  0
   74.4684   -1.5012    0.1848 N   0  0  0  0  0  0  0  0  0  0  0  0
   77.3751   -1.5156    0.2204 N   0  0  0  0  0  0  0  0  0  0  0  0
   75.9633    4.8320   -0.6285 C   0  0  0  0  0  0  0  0  0  0  0  0
   76.5077    5.6756    0.3382 C   0  0  0  0  0  0  0  0  0  0  0  0
   76.5128    7.0542    0.1512 C   0  0  0  0  0  0  0  0  0  0  0  0
   77.1151    7.9571    1.1938 C   0  0  0  0  0  0  0  0  0  0  0  0
   75.9738    7.5861   -1.0159 C   0  0  0  0  0  0  0  0  0  0  0  0
   75.4272    6.7568   -1.9912 C   0  0  0  0  0  0  0  0  0  0  0  0
   74.8645    7.3427   -3.2580 C   0  0  0  0  0  0  0  0  0  0  0  0
   75.4236    5.3808   -1.7913 C   0  0  0  0  0  0  0  0  0  0  0  0
   71.4044    2.5952   -0.2772 H   0  0  0  0  0  0  0  0  0  0  0  0
   73.3037    4.4772   -0.4866 H   0  0  0  0  0  0  0  0  0  0  0  0
   78.6218    4.4225   -0.6309 H   0  0  0  0  0  0  0  0  0  0  0  0
   80.4950    2.5275   -0.3270 H   0  0  0  0  0  0  0  0  0  0  0  0
   80.4549   -2.6865    0.5476 H   0  0  0  0  0  0  0  0  0  0  0  0
   78.5554   -4.5694    0.7480 H   0  0  0  0  0  0  0  0  0  0  0  0
   74.8854   -4.8814    2.5092 H   0  0  0  0  0  0  0  0  0  0  0  0
   74.3841   -8.5351    2.9826 H   0  0  0  0  0  0  0  0  0  0  0  0
   75.4355   -7.5150    3.9720 H   0  0  0  0  0  0  0  0  0  0  0  0
   73.8403   -6.9256    3.4942 H   0  0  0  0  0  0  0  0  0  0  0  0
   75.8742   -8.7969    1.0812 H   0  0  0  0  0  0  0  0  0  0  0  0
   77.1755   -7.5456   -2.1800 H   0  0  0  0  0  0  0  0  0  0  0  0
   76.5009   -8.9668   -1.3600 H   0  0  0  0  0  0  0  0  0  0  0  0
   78.0928   -8.3538   -0.9024 H   0  0  0  0  0  0  0  0  0  0  0  0
   76.9096   -5.3452   -1.2341 H   0  0  0  0  0  0  0  0  0  0  0  0
   73.2470   -4.5765    0.4061 H   0  0  0  0  0  0  0  0  0  0  0  0
   71.3725   -2.6744    0.1592 H   0  0  0  0  0  0  0  0  0  0  0  0
   76.9119    5.2505    1.2504 H   0  0  0  0  0  0  0  0  0  0  0  0
   76.6586    8.9466    1.1624 H   0  0  0  0  0  0  0  0  0  0  0  0
   78.1863    8.0705    1.0117 H   0  0  0  0  0  0  0  0  0  0  0  0
   76.9841    7.5387    2.1920 H   0  0  0  0  0  0  0  0  0  0  0  0
   75.9758    8.6608   -1.1665 H   0  0  0  0  0  0  0  0  0  0  0  0
   74.4115    8.3159   -3.0672 H   0  0  0  0  0  0  0  0  0  0  0  0
   74.1137    6.6822   -3.6921 H   0  0  0  0  0  0  0  0  0  0  0  0
   75.6632    7.4785   -3.9909 H   0  0  0  0  0  0  0  0  0  0  0  0
   75.0107    4.7233   -2.5486 H   0  0  0  0  0  0  0  0  0  0  0  0
  2  3  4  0  0  0  0
  3  4  1  0  0  0  0
  4  5  2  0  0  0  0
  5  6  4  0  0  0  0
  1  7  1  0  0  0  0
  3  7  4  0  0  0  0
  6  7  4  0  0  0  0
  6  8  4  0  0  0  0
  8  9  4  0  0  0  0
  9 10  4  0  0  0  0
 10 11  2  0  0  0  0
  1 12  1  0  0  0  0
  9 12  4  0  0  0  0
 11 13  4  0  0  0  0
 12 13  4  0  0  0  0
 13 14  4  0  0  0  0
 14 15  4  0  0  0  0
 15 16  4  0  0  0  0
 16 17  2  0  0  0  0
 17 18  4  0  0  0  0
 18 19  4  0  0  0  0
 19 20  1  0  0  0  0
 20 21  4  0  0  0  0
 21 22  4  0  0  0  0
 22 23  1  0  0  0  0
 22 24  4  0  0  0  0
 24 25  4  0  0  0  0
 25 26  1  0  0  0  0
 20 27  4  0  0  0  0
 25 27  4  0  0  0  0
 19 28  4  0  0  0  0
 28 29  4  0  0  0  0
 29 30  2  0  0  0  0
  2 31  4  0  0  0  0
 30 31  1  0  0  0  0
  1 32  1  0  0  0  0
 28 32  4  0  0  0  0
 31 32  4  0  0  0  0
  1 33  1  0  0  0  0
 15 33  4  0  0  0  0
 18 33  4  0  0  0  0
  8 34  1  0  0  0  0
 34 35  4  0  0  0  0
 35 36  4  0  0  0  0
 36 37  1  0  0  0  0
 36 38  4  0  0  0  0
 38 39  4  0  0  0  0
 39 40  1  0  0  0  0
 34 41  4  0  0  0  0
 39 41  4  0  0  0  0
  2 42  1  0  0  0  0
  4 43  1  0  0  0  0
  5 44  1  0  0  0  0
 10 45  1  0  0  0  0
 11 46  1  0  0  0  0
 16 47  1  0  0  0  0
 17 48  1  0  0  0  0
 21 49  1  0  0  0  0
 23 50  1  0  0  0  0
 23 51  1  0  0  0  0
 23 52  1  0  0  0  0
 24 53  1  0  0  0  0
 26 54  1  0  0  0  0
 26 55  1  0  0  0  0
 26 56  1  0  0  0  0
 27 57  1  0  0  0  0
 29 58  1  0  0  0  0
 30 59  1  0  0  0  0
 35 60  1  0  0  0  0
 37 61  1  0  0  0  0
 37 62  1  0  0  0  0
 37 63  1  0  0  0  0
 38 64  1  0  0  0  0
 40 65  1  0  0  0  0
 40 66  1  0  0  0  0
 40 67  1  0  0  0  0
 41 68  1  0  0  0  0
 70 71  4  0  0  0  0
 71 72  1  0  0  0  0
 72 73  2  0  0  0  0
 73 74  4  0  0  0  0
 69 75  1  0  0  0  0
 71 75  4  0  0  0  0
 74 75  4  0  0  0  0
 74 76  4  0  0  0  0
 76 77  4  0  0  0  0
 77 78  4  0  0  0  0
 78 79  2  0  0  0  0
 69 80  1  0  0  0  0
 77 80  4  0  0  0  0
 79 81  4  0  0  0  0
 80 81  4  0  0  0  0
 81 82  4  0  0  0  0
 82 83  4  0  0  0  0
 83 84  4  0  0  0  0
 84 85  2  0  0  0  0
 85 86  4  0  0  0  0
 86 87  4  0  0  0  0
 87 88  1  0  0  0  0
 88 89  4  0  0  0  0
 89 90  4  0  0  0  0
 90 91  1  0  0  0  0
 90 92  4  0  0  0  0
 92 93  4  0  0  0  0
 93 94  1  0  0  0  0
 88 95  4  0  0  0  0
 93 95  4  0  0  0  0
 87 96  4  0  0  0  0
 96 97  4  0  0  0  0
 97 98  2  0  0  0  0
 70 99  4  0  0  0  0
 98 99  1  0  0  0  0
 69100  1  0  0  0  0
 96100  4  0  0  0  0
 99100  4  0  0  0  0
 69101  1  0  0  0  0
 83101  4  0  0  0  0
 86101  4  0  0  0  0
 76102  1  0  0  0  0
102103  4  0  0  0  0
103104  4  0  0  0  0
104105  1  0  0  0  0
104106  4  0  0  0  0
106107  4  0  0  0  0
107108  1  0  0  0  0
102109  4  0  0  0  0
107109  4  0  0  0  0
 70110  1  0  0  0  0
 72111  1  0  0  0  0
 73112  1  0  0  0  0
 78113  1  0  0  0  0
 79114  1  0  0  0  0
 84115  1  0  0  0  0
 85116  1  0  0  0  0
 89117  1  0  0  0  0
 91118  1  0  0  0  0
 91119  1  0  0  0  0
 91120  1  0  0  0  0
 92121  1  0  0  0  0
 94122  1  0  0  0  0
 94123  1  0  0  0  0
 94124  1  0  0  0  0
 95125  1  0  0  0  0
 97126  1  0  0  0  0
 98127  1  0  0  0  0
103128  1  0  0  0  0
105129  1  0  0  0  0
105130  1  0  0  0  0
105131  1  0  0  0  0
106132  1  0  0  0  0
108133  1  0  0  0  0
108134  1  0  0  0  0
108135  1  0  0  0  0
109136  1  0  0  0  0
 14137  4  0  0  0  0
137138  3  0  0  0  0
138139  4  0  0  0  0
139140  3  0  0  0  0
140141  4  0  0  0  0
141142  3  0  0  0  0
142143  4  0  0  0  0
143144  3  0  0  0  0
145146  3  0  0  0  0
146147  4  0  0  0  0
147148  3  0  0  0  0
148149  4  0  0  0  0
149150  3  0  0  0  0
150151  4  0  0  0  0
151152  3  0  0  0  0
153154  3  0  0  0  0
154155  4  0  0  0  0
155156  3  0  0  0  0
156157  4  0  0  0  0
157158  3  0  0  0  0
158159  4  0  0  0  0
 82160  4  0  0  0  0
159160  3  0  0  0  0
144162  4  0  0  0  0
162163  4  0  0  0  0
163164  4  0  0  0  0
164165  2  0  0  0  0
165166  4  0  0  0  0
161167  1  0  0  0  0
163167  4  0  0  0  0
166167  4  0  0  0  0
166168  4  0  0  0  0
168169  4  0  0  0  0
169170  4  0  0  0  0
170171  2  0  0  0  0
161172  1  0  0  0  0
169172  4  0  0  0  0
171173  4  0  0  0  0
172173  4  0  0  0  0
145174  4  0  0  0  0
173174  4  0  0  0  0
174175  4  0  0  0  0
175176  4  0  0  0  0
176177  2  0  0  0  0
177178  4  0  0  0  0
178179  4  0  0  0  0
179180  1  0  0  0  0
180181  4  0  0  0  0
181182  4  0  0  0  0
182183  1  0  0  0  0
182184  4  0  0  0  0
184185  4  0  0  0  0
185186  1  0  0  0  0
180187  4  0  0  0  0
185187  4  0  0  0  0
179188  4  0  0  0  0
188189  4  0  0  0  0
189190  2  0  0  0  0
162191  4  0  0  0  0
190191  4  0  0  0  0
161192  1  0  0  0  0
188192  4  0  0  0  0
191192  4  0  0  0  0
161193  1  0  0  0  0
175193  4  0  0  0  0
178193  4  0  0  0  0
168194  1  0  0  0  0
194195  4  0  0  0  0
195196  4  0  0  0  0
196197  1  0  0  0  0
196198  4  0  0  0  0
198199  4  0  0  0  0
199200  1  0  0  0  0
194201  4  0  0  0  0
199201  4  0  0  0  0
164202  1  0  0  0  0
165203  1  0  0  0  0
170204  1  0  0  0  0
171205  1  0  0  0  0
176206  1  0  0  0  0
177207  1  0  0  0  0
181208  1  0  0  0  0
183209  1  0  0  0  0
183210  1  0  0  0  0
183211  1  0  0  0  0
184212  1  0  0  0  0
186213  1  0  0  0  0
186214  1  0  0  0  0
186215  1  0  0  0  0
187216  1  0  0  0  0
189217  1  0  0  0  0
190218  1  0  0  0  0
195219  1  0  0  0  0
197220  1  0  0  0  0
197221  1  0  0  0  0
197222  1  0  0  0  0
198223  1  0  0  0  0
200224  1  0  0  0  0
200225  1  0  0  0  0
200226  1  0  0  0  0
201227  1  0  0  0  0
152229  4  0  0  0  0
229230  4  0  0  0  0
230231  4  0  0  0  0
231232  2  0  0  0  0
232233  4  0  0  0  0
228234  1  0  0  0  0
230234  4  0  0  0  0
233234  4  0  0  0  0
233235  4  0  0  0  0
235236  4  0  0  0  0
236237  4  0  0  0  0
237238  2  0  0  0  0
228239  1  0  0  0  0
236239  4  0  0  0  0
238240  4  0  0  0  0
239240  4  0  0  0  0
153241  4  0  0  0  0
240241  4  0  0  0  0
241242  4  0  0  0  0
242243  4  0  0  0  0
243244  2  0  0  0  0
244245  4  0  0  0  0
245246  4  0  0  0  0
246247  1  0  0  0  0
247248  4  0  0  0  0
248249  4  0  0  0  0
249250  1  0  0  0  0
249251  4  0  0  0  0
251252  4  0  0  0  0
252253  1  0  0  0  0
247254  4  0  0  0  0
252254  4  0  0  0  0
246255  4  0  0  0  0
255256  4  0  0  0  0
256257  2  0  0  0  0
229258  4  0  0  0  0
257258  4  0  0  0  0
228259  1  0  0  0  0
255259  4  0  0  0  0
258259  4  0  0  0  0
228260  1  0  0  0  0
242260  4  0  0  0  0
245260  4  0  0  0  0
235261  1  0  0  0  0
261262  4  0  0  0  0
262263  4  0  0  0  0
263264  1  0  0  0  0
263265  4  0  0  0  0
265266  4  0  0  0  0
266267  1  0  0  0  0
261268  4  0  0  0  0
266268  4  0  0  0  0
231269  1  0  0  0  0
232270  1  0  0  0  0
237271  1  0  0  0  0
238272  1  0  0  0  0
243273  1  0  0  0  0
244274  1  0  0  0  0
248275  1  0  0  0  0
250276  1  0  0  0  0
250277  1  0  0  0  0
250278  1  0  0  0  0
251279  1  0  0  0  0
253280  1  0  0  0  0
253281  1  0  0  0  0
253282  1  0  0  0  0
254283  1  0  0  0  0
256284  1  0  0  0  0
257285  1  0  0  0  0
262286  1  0  0  0  0
264287  1  0  0  0  0
264288  1  0  0  0  0
264289  1  0  0  0  0
265290  1  0  0  0  0
267291  1  0  0  0  0
267292  1  0  0  0  0
267293  1  0  0  0  0
268294  1  0  0  0  0
M  END
