618

C 131.625377 0.016891 0.059183
C 132.350244 1.210219 -0.635195
C 131.735439 2.235574 -1.316920
C 132.756454 3.127523 -1.735303
C 133.960854 2.618928 -1.289198
N 133.704651 1.426166 -0.660189
C 135.387463 3.293341 -1.443558
C 135.433234 4.691145 -1.934057
C 135.698897 4.950600 -3.285341
C 135.734679 6.263154 -3.758821
C 135.500878 7.314434 -2.874793
O 135.528530 8.611766 -3.302269
C 135.233295 7.074270 -1.531209
C 135.199370 5.760173 -1.059974
C 136.517270 2.612514 -1.110205
C 137.826282 3.229729 -1.174395
C 138.728437 2.342975 -0.771124
N 136.710572 1.331703 -0.663175
C 138.044919 1.107469 -0.442096
C 138.712902 0.006427 -0.005402
C 137.932813 -1.339453 0.310726
C 138.469852 -2.612110 0.305911
C 137.445060 -3.510673 0.693042
C 136.307398 -2.763683 0.912247
N 136.600806 -1.450162 0.629298
C 134.898618 -3.320011 1.384447
C 134.864928 -4.633430 2.066501
C 135.243639 -4.744555 3.409934
C 135.223941 -5.987602 4.046298
C 134.827055 -7.115697 3.336253
O 134.817824 -8.315634 3.989391
C 134.449880 -7.024783 1.998179
C 134.471653 -5.781177 1.364679
C 133.774951 -2.590905 1.157359
C 132.454726 -3.031833 1.572426
C 131.569910 -2.113584 1.195782
C 132.290349 -1.050773 0.538611
N 133.610267 -1.377841 0.548609
H 130.548735 0.071606 0.167249
H 130.673743 2.338780 -1.479887
H 132.624366 4.050207 -2.280029
H 134.408675 0.804376 -0.269724
H 135.881452 4.113485 -3.956168
H 135.945583 6.434664 -4.807812
H 135.746007 8.597773 -4.247693
H 135.053374 7.898262 -0.849510
H 134.993934 5.553288 -0.012117
H 138.041201 4.238593 -1.478519
H 139.784595 2.531618 -0.710541
H 139.489709 -2.868945 0.063288
H 137.528771 -4.581251 0.803899
H 135.920176 -0.695013 0.607152
H 135.550942 -3.852112 3.950399
H 135.516564 -6.066795 5.087537
H 134.508567 -8.983870 3.357729
H 134.137899 -7.894412 1.431921
H 134.179486 -5.685251 0.320783
H 132.226659 -3.940925 2.099010
H 130.507979 -2.145964 1.358684
C 265.395241 0.055080 0.038342
C 264.670373 -1.174539 0.666218
C 265.285178 -2.302635 1.159676
C 264.264164 -3.137084 1.683425
C 263.059763 -2.486737 1.497071
N 263.315966 -1.312397 0.834303
C 261.633155 -2.981447 1.980726
C 261.587383 -4.150240 2.890873
C 261.321720 -5.427031 2.377951
C 261.285939 -6.535387 3.225613
C 261.519739 -6.360732 4.588033
O 261.492088 -7.422163 5.447784
C 261.787323 -5.100854 5.113013
C 261.821247 -3.993552 4.262839
C 260.503347 -2.332737 1.588522
C 259.194335 -2.720667 2.072861
C 258.292180 -1.901738 1.545305
N 260.310045 -1.263800 0.753246
C 258.975699 -0.956552 0.684284
C 258.307715 0.006427 -0.005402
C 259.087805 1.000483 -0.966227
C 258.550766 1.685012 -2.039119
C 259.575557 2.496756 -2.585339
C 260.713220 2.276942 -1.838529
N 260.419811 1.328297 -0.886966
C 262.122000 2.975061 -2.050906
C 262.155690 4.259291 -2.786444
C 261.776978 5.449226 -2.153027
C 261.796677 6.656957 -2.854105
C 262.193563 6.670181 -4.186991
O 262.202794 7.868695 -4.842738
C 262.570738 5.495689 -4.834506
C 262.548964 4.290065 -4.131409
C 263.245667 2.389595 -1.560605
C 264.565892 2.977228 -1.706844
C 265.450708 2.163651 -1.138396
C 264.730268 1.035940 -0.600152
N 263.410351 1.221309 -0.869802
H 266.471882 0.116359 0.142826
H 266.346875 -2.495528 1.158297
H 264.396252 -4.094415 2.164663
H 262.611943 -0.647599 0.522649
H 261.139165 -5.538262 1.310993
H 261.075034 -7.510371 2.802288
H 261.274610 -8.209681 4.924489
H 261.967244 -4.973380 6.174816
H 262.026684 -3.000382 4.655800
H 258.979416 -3.522283 2.756755
H 257.236023 -1.952855 1.736730
H 257.530908 1.619932 -2.386387
H 259.491846 3.169229 -3.425701
H 261.100442 0.901095 -0.263878
H 261.469676 5.420888 -1.110072
H 261.504053 7.575473 -2.357336
H 262.512050 7.699028 -5.746479
H 262.882719 5.489992 -5.872230
H 262.841131 3.360260 -4.615543
H 264.793959 3.911947 -2.186468
H 266.512639 2.318169 -1.077488
C 142.393598 0.019159 -0.002877
C 141.141328 -0.000022 -0.007225
C 143.707266 0.018393 -0.000944
C 145.210400 -0.000022 -0.007225
C 156.237968 0.019159 -0.002877
C 154.985698 -0.000022 -0.007225
C 157.551636 0.018393 -0.000944
C 159.054770 -0.000022 -0.007225
C 170.082338 0.019159 -0.002877
C 168.830068 -0.000022 -0.007225
C 171.396006 0.018393 -0.000944
C 172.899140 -0.000022 -0.007225
C 183.926708 0.019159 -0.002877
C 182.674438 -0.000022 -0.007225
C 185.240376 0.018393 -0.000944
C 186.743510 -0.000022 -0.007225
C 197.771078 0.019159 -0.002877
C 196.518807 -0.000022 -0.007225
C 199.084746 0.018393 -0.000944
C 200.587880 -0.000022 -0.007225
C 211.615448 0.019159 -0.002877
C 210.363177 -0.000022 -0.007225
C 212.929116 0.018393 -0.000944
C 214.432250 -0.000022 -0.007225
C 225.459818 0.019159 -0.002877
C 224.207547 -0.000022 -0.007225
C 226.773486 0.018393 -0.000944
C 228.276620 -0.000022 -0.007225
C 239.304188 0.019159 -0.002877
C 238.051917 -0.000022 -0.007225
C 240.617856 0.018393 -0.000944
C 242.120990 -0.000022 -0.007225
C 253.148558 0.019159 -0.002877
C 251.896287 -0.000022 -0.007225
C 254.462226 0.018393 -0.000944
C 255.965360 -0.000022 -0.007225
C 146.487635 -0.001633 0.001934
C 147.291777 -1.033205 -0.903382
C 146.781006 -1.764411 -1.960661
C 147.816846 -2.581705 -2.457454
C 148.936789 -2.327766 -1.685678
N 148.625758 -1.330843 -0.794455
C 150.340106 -3.062154 -1.820219
C 150.342644 -4.406236 -2.438388
C 150.815261 -4.579053 -3.747520
C 150.820192 -5.843076 -4.337466
C 150.340572 -6.931477 -3.612569
O 150.324156 -8.184299 -4.158525
C 149.849529 -6.778456 -2.321762
C 149.850499 -5.513054 -1.734851
C 151.469900 -2.461630 -1.369636
C 152.763472 -3.109393 -1.436964
C 153.675908 -2.272506 -0.945572
N 151.671883 -1.241731 -0.797147
C 153.002463 -1.057840 -0.536887
C 153.658382 -0.001633 0.001934
C 152.858371 1.303665 0.432730
C 153.403342 2.555444 0.635423
C 152.382126 3.387821 1.134405
C 151.220772 2.639434 1.170986
N 151.518253 1.377274 0.718023
C 149.804976 3.138041 1.706401
C 149.775251 4.355116 2.551254
C 149.923579 5.615332 1.959995
C 149.883806 6.773938 2.740991
C 149.658219 6.668466 4.111975
O 149.563723 7.816129 4.844394
C 149.515331 5.421482 4.720936
C 149.586546 4.265023 3.938015
C 148.667733 2.449677 1.394222
C 147.368262 2.867229 1.878314
C 146.462059 1.995937 1.432411
C 147.139911 1.014421 0.617674
N 148.469148 1.345784 0.629847
H 145.766703 -1.722110 -2.323129
H 147.758160 -3.294661 -3.272574
H 149.290199 -0.869416 -0.177070
H 151.184853 -3.712745 -4.296766
H 151.213103 -5.947301 -5.336188
H 150.625330 -8.099527 -5.077123
H 149.462330 -7.631456 -1.782309
H 149.466990 -5.369621 -0.726740
H 152.971933 -4.099074 -1.810892
H 154.725146 -2.487866 -0.866146
H 154.437088 2.829505 0.491342
H 152.488044 4.416441 1.456324
H 150.845676 0.627564 0.605942
H 150.071727 5.679757 0.884011
H 150.009162 7.748550 2.286782
H 148.951469 7.619464 5.581005
H 149.349667 5.328849 5.786169
H 149.471534 3.282913 4.386506
H 147.152130 3.725749 2.489394
H 145.406071 2.053439 1.630857
C 160.332005 -0.001633 0.001934
C 161.136147 -1.033205 -0.903382
C 160.625376 -1.764411 -1.960661
C 161.661216 -2.581705 -2.457454
C 162.781159 -2.327766 -1.685678
N 162.470128 -1.330843 -0.794455
C 164.184476 -3.062154 -1.820219
C 164.187014 -4.406236 -2.438388
C 164.659631 -4.579053 -3.747520
C 164.664562 -5.843076 -4.337466
C 164.184942 -6.931477 -3.612569
O 164.168526 -8.184299 -4.158525
C 163.693899 -6.778456 -2.321762
C 163.694869 -5.513054 -1.734851
C 165.314270 -2.461630 -1.369636
C 166.607842 -3.109393 -1.436964
C 167.520278 -2.272506 -0.945572
N 165.516253 -1.241731 -0.797147
C 166.846833 -1.057840 -0.536887
C 167.502752 -0.001633 0.001934
C 166.702741 1.303665 0.432730
C 167.247712 2.555444 0.635423
C 166.226496 3.387821 1.134405
C 165.065142 2.639434 1.170986
N 165.362623 1.377274 0.718023
C 163.649346 3.138041 1.706401
C 163.619621 4.355116 2.551254
C 163.767948 5.615332 1.959995
C 163.728176 6.773938 2.740991
C 163.502589 6.668466 4.111975
O 163.408093 7.816129 4.844394
C 163.359700 5.421482 4.720936
C 163.430916 4.265023 3.938015
C 162.512103 2.449677 1.394222
C 161.212632 2.867229 1.878314
C 160.306429 1.995937 1.432411
C 160.984281 1.014421 0.617674
N 162.313518 1.345784 0.629847
H 159.611073 -1.722110 -2.323129
H 161.602530 -3.294661 -3.272574
H 163.134569 -0.869416 -0.177070
H 165.029223 -3.712745 -4.296766
H 165.057473 -5.947301 -5.336188
H 164.469700 -8.099527 -5.077123
H 163.306700 -7.631456 -1.782309
H 163.311360 -5.369621 -0.726740
H 166.816303 -4.099074 -1.810892
H 168.569516 -2.487866 -0.866146
H 168.281458 2.829505 0.491342
H 166.332414 4.416441 1.456324
H 164.690046 0.627564 0.605942
H 163.916096 5.679757 0.884011
H 163.853532 7.748550 2.286782
H 162.795839 7.619464 5.581005
H 163.194037 5.328849 5.786169
H 163.315904 3.282913 4.386506
H 160.996500 3.725749 2.489394
H 159.250441 2.053439 1.630857
C 174.176375 -0.001633 0.001934
C 174.980517 -1.033205 -0.903382
C 174.469746 -1.764411 -1.960661
C 175.505585 -2.581705 -2.457454
C 176.625529 -2.327766 -1.685678
N 176.314498 -1.330843 -0.794455
C 178.028846 -3.062154 -1.820219
C 178.031383 -4.406236 -2.438388
C 178.504001 -4.579053 -3.747520
C 178.508932 -5.843076 -4.337466
C 178.029312 -6.931477 -3.612569
O 178.012896 -8.184299 -4.158525
C 177.538269 -6.778456 -2.321762
C 177.539239 -5.513054 -1.734851
C 179.158639 -2.461630 -1.369636
C 180.452212 -3.109393 -1.436964
C 181.364648 -2.272506 -0.945572
N 179.360623 -1.241731 -0.797147
C 180.691203 -1.057840 -0.536887
C 181.347122 -0.001633 0.001934
C 180.547111 1.303665 0.432730
C 181.092082 2.555444 0.635423
C 180.070866 3.387821 1.134405
C 178.909512 2.639434 1.170986
N 179.206993 1.377274 0.718023
C 177.493716 3.138041 1.706401
C 177.463991 4.355116 2.551254
C 177.612318 5.615332 1.959995
C 177.572546 6.773938 2.740991
C 177.346959 6.668466 4.111975
O 177.252463 7.816129 4.844394
C 177.204070 5.421482 4.720936
C 177.275286 4.265023 3.938015
C 176.356473 2.449677 1.394222
C 175.057002 2.867229 1.878314
C 174.150799 1.995937 1.432411
C 174.828651 1.014421 0.617674
N 176.157888 1.345784 0.629847
H 173.455443 -1.722110 -2.323129
H 175.446900 -3.294661 -3.272574
H 176.978939 -0.869416 -0.177070
H 178.873593 -3.712745 -4.296766
H 178.901843 -5.947301 -5.336188
H 178.314070 -8.099527 -5.077123
H 177.151070 -7.631456 -1.782309
H 177.155730 -5.369621 -0.726740
H 180.660673 -4.099074 -1.810892
H 182.413886 -2.487866 -0.866146
H 182.125828 2.829505 0.491342
H 180.176784 4.416441 1.456324
H 178.534416 0.627564 0.605942
H 177.760466 5.679757 0.884011
H 177.697902 7.748550 2.286782
H 176.640209 7.619464 5.581005
H 177.038407 5.328849 5.786169
H 177.160274 3.282913 4.386506
H 174.840870 3.725749 2.489394
H 173.094811 2.053439 1.630857
C 188.020745 -0.001633 0.001934
C 188.824887 -1.033205 -0.903382
C 188.314116 -1.764411 -1.960661
C 189.349955 -2.581705 -2.457454
C 190.469899 -2.327766 -1.685678
N 190.158868 -1.330843 -0.794455
C 191.873216 -3.062154 -1.820219
C 191.875753 -4.406236 -2.438388
C 192.348371 -4.579053 -3.747520
C 192.353302 -5.843076 -4.337466
C 191.873682 -6.931477 -3.612569
O 191.857266 -8.184299 -4.158525
C 191.382639 -6.778456 -2.321762
C 191.383609 -5.513054 -1.734851
C 193.003009 -2.461630 -1.369636
C 194.296582 -3.109393 -1.436964
C 195.209018 -2.272506 -0.945572
N 193.204993 -1.241731 -0.797147
C 194.535573 -1.057840 -0.536887
C 195.191492 -0.001633 0.001934
C 194.391481 1.303665 0.432730
C 194.936452 2.555444 0.635423
C 193.915236 3.387821 1.134405
C 192.753881 2.639434 1.170986
N 193.051363 1.377274 0.718023
C 191.338086 3.138041 1.706401
C 191.308361 4.355116 2.551254
C 191.456688 5.615332 1.959995
C 191.416916 6.773938 2.740991
C 191.191329 6.668466 4.111975
O 191.096833 7.816129 4.844394
C 191.048440 5.421482 4.720936
C 191.119656 4.265023 3.938015
C 190.200843 2.449677 1.394222
C 188.901372 2.867229 1.878314
C 187.995169 1.995937 1.432411
C 188.673021 1.014421 0.617674
N 190.002258 1.345784 0.629847
H 187.299813 -1.722110 -2.323129
H 189.291270 -3.294661 -3.272574
H 190.823309 -0.869416 -0.177070
H 192.717963 -3.712745 -4.296766
H 192.746213 -5.947301 -5.336188
H 192.158440 -8.099527 -5.077123
H 190.995440 -7.631456 -1.782309
H 191.000100 -5.369621 -0.726740
H 194.505043 -4.099074 -1.810892
H 196.258255 -2.487866 -0.866146
H 195.970198 2.829505 0.491342
H 194.021154 4.416441 1.456324
H 192.378786 0.627564 0.605942
H 191.604836 5.679757 0.884011
H 191.542272 7.748550 2.286782
H 190.484579 7.619464 5.581005
H 190.882776 5.328849 5.786169
H 191.004644 3.282913 4.386506
H 188.685239 3.725749 2.489394
H 186.939181 2.053439 1.630857
C 201.865115 -0.001633 0.001934
C 202.669257 -1.033205 -0.903382
C 202.158486 -1.764411 -1.960661
C 203.194325 -2.581705 -2.457454
C 204.314269 -2.327766 -1.685678
N 204.003238 -1.330843 -0.794455
C 205.717586 -3.062154 -1.820219
C 205.720123 -4.406236 -2.438388
C 206.192741 -4.579053 -3.747520
C 206.197672 -5.843076 -4.337466
C 205.718052 -6.931477 -3.612569
O 205.701636 -8.184299 -4.158525
C 205.227009 -6.778456 -2.321762
C 205.227979 -5.513054 -1.734851
C 206.847379 -2.461630 -1.369636
C 208.140952 -3.109393 -1.436964
C 209.053388 -2.272506 -0.945572
N 207.049363 -1.241731 -0.797147
C 208.379943 -1.057840 -0.536887
C 209.035862 -0.001633 0.001934
C 208.235851 1.303665 0.432730
C 208.780822 2.555444 0.635423
C 207.759606 3.387821 1.134405
C 206.598251 2.639434 1.170986
N 206.895733 1.377274 0.718023
C 205.182456 3.138041 1.706401
C 205.152731 4.355116 2.551254
C 205.301058 5.615332 1.959995
C 205.261286 6.773938 2.740991
C 205.035699 6.668466 4.111975
O 204.941203 7.816129 4.844394
C 204.892810 5.421482 4.720936
C 204.964026 4.265023 3.938015
C 204.045213 2.449677 1.394222
C 202.745742 2.867229 1.878314
C 201.839539 1.995937 1.432411
C 202.517391 1.014421 0.617674
N 203.846628 1.345784 0.629847
H 201.144183 -1.722110 -2.323129
H 203.135640 -3.294661 -3.272574
H 204.667679 -0.869416 -0.177070
H 206.562333 -3.712745 -4.296766
H 206.590583 -5.947301 -5.336188
H 206.002810 -8.099527 -5.077123
H 204.839810 -7.631456 -1.782309
H 204.844469 -5.369621 -0.726740
H 208.349412 -4.099074 -1.810892
H 210.102625 -2.487866 -0.866146
H 209.814568 2.829505 0.491342
H 207.865524 4.416441 1.456324
H 206.223156 0.627564 0.605942
H 205.449206 5.679757 0.884011
H 205.386642 7.748550 2.286782
H 204.328949 7.619464 5.581005
H 204.727146 5.328849 5.786169
H 204.849014 3.282913 4.386506
H 202.529609 3.725749 2.489394
H 200.783551 2.053439 1.630857
C 215.709485 -0.001633 0.001934
C 216.513627 -1.033205 -0.903382
C 216.002856 -1.764411 -1.960661
C 217.038695 -2.581705 -2.457454
C 218.158638 -2.327766 -1.685678
N 217.847608 -1.330843 -0.794455
C 219.561956 -3.062154 -1.820219
C 219.564493 -4.406236 -2.438388
C 220.037111 -4.579053 -3.747520
C 220.042042 -5.843076 -4.337466
C 219.562422 -6.931477 -3.612569
O 219.546006 -8.184299 -4.158525
C 219.071379 -6.778456 -2.321762
C 219.072349 -5.513054 -1.734851
C 220.691749 -2.461630 -1.369636
C 221.985321 -3.109393 -1.436964
C 222.897758 -2.272506 -0.945572
N 220.893733 -1.241731 -0.797147
C 222.224313 -1.057840 -0.536887
C 222.880232 -0.001633 0.001934
C 222.080221 1.303665 0.432730
C 222.625192 2.555444 0.635423
C 221.603976 3.387821 1.134405
C 220.442621 2.639434 1.170986
N 220.740103 1.377274 0.718023
C 219.026826 3.138041 1.706401
C 218.997101 4.355116 2.551254
C 219.145428 5.615332 1.959995
C 219.105656 6.773938 2.740991
C 218.880069 6.668466 4.111975
O 218.785573 7.816129 4.844394
C 218.737180 5.421482 4.720936
C 218.808396 4.265023 3.938015
C 217.889583 2.449677 1.394222
C 216.590112 2.867229 1.878314
C 215.683909 1.995937 1.432411
C 216.361761 1.014421 0.617674
N 217.690998 1.345784 0.629847
H 214.988553 -1.722110 -2.323129
H 216.980010 -3.294661 -3.272574
H 218.512049 -0.869416 -0.177070
H 220.406703 -3.712745 -4.296766
H 220.434953 -5.947301 -5.336188
H 219.847180 -8.099527 -5.077123
H 218.684180 -7.631456 -1.782309
H 218.688839 -5.369621 -0.726740
H 222.193782 -4.099074 -1.810892
H 223.946995 -2.487866 -0.866146
H 223.658938 2.829505 0.491342
H 221.709894 4.416441 1.456324
H 220.067526 0.627564 0.605942
H 219.293576 5.679757 0.884011
H 219.231012 7.748550 2.286782
H 218.173319 7.619464 5.581005
H 218.571516 5.328849 5.786169
H 218.693384 3.282913 4.386506
H 216.373979 3.725749 2.489394
H 214.627920 2.053439 1.630857
C 229.553855 -0.001633 0.001934
C 230.357996 -1.033205 -0.903382
C 229.847226 -1.764411 -1.960661
C 230.883065 -2.581705 -2.457454
C 232.003008 -2.327766 -1.685678
N 231.691978 -1.330843 -0.794455
C 233.406326 -3.062154 -1.820219
C 233.408863 -4.406236 -2.438388
C 233.881481 -4.579053 -3.747520
C 233.886412 -5.843076 -4.337466
C 233.406792 -6.931477 -3.612569
O 233.390376 -8.184299 -4.158525
C 232.915749 -6.778456 -2.321762
C 232.916719 -5.513054 -1.734851
C 234.536119 -2.461630 -1.369636
C 235.829691 -3.109393 -1.436964
C 236.742128 -2.272506 -0.945572
N 234.738102 -1.241731 -0.797147
C 236.068683 -1.057840 -0.536887
C 236.724602 -0.001633 0.001934
C 235.924591 1.303665 0.432730
C 236.469562 2.555444 0.635423
C 235.448346 3.387821 1.134405
C 234.286991 2.639434 1.170986
N 234.584472 1.377274 0.718023
C 232.871196 3.138041 1.706401
C 232.841471 4.355116 2.551254
C 232.989798 5.615332 1.959995
C 232.950026 6.773938 2.740991
C 232.724439 6.668466 4.111975
O 232.629943 7.816129 4.844394
C 232.581550 5.421482 4.720936
C 232.652766 4.265023 3.938015
C 231.733953 2.449677 1.394222
C 230.434482 2.867229 1.878314
C 229.528279 1.995937 1.432411
C 230.206131 1.014421 0.617674
N 231.535368 1.345784 0.629847
H 228.832923 -1.722110 -2.323129
H 230.824380 -3.294661 -3.272574
H 232.356419 -0.869416 -0.177070
H 234.251072 -3.712745 -4.296766
H 234.279323 -5.947301 -5.336188
H 233.691550 -8.099527 -5.077123
H 232.528550 -7.631456 -1.782309
H 232.533209 -5.369621 -0.726740
H 236.038152 -4.099074 -1.810892
H 237.791365 -2.487866 -0.866146
H 237.503308 2.829505 0.491342
H 235.554264 4.416441 1.456324
H 233.911896 0.627564 0.605942
H 233.137946 5.679757 0.884011
H 233.075382 7.748550 2.286782
H 232.017689 7.619464 5.581005
H 232.415886 5.328849 5.786169
H 232.537754 3.282913 4.386506
H 230.218349 3.725749 2.489394
H 228.472290 2.053439 1.630857
C 243.398225 -0.001633 0.001934
C 244.202366 -1.033205 -0.903382
C 243.691596 -1.764411 -1.960661
C 244.727435 -2.581705 -2.457454
C 245.847378 -2.327766 -1.685678
N 245.536348 -1.330843 -0.794455
C 247.250696 -3.062154 -1.820219
C 247.253233 -4.406236 -2.438388
C 247.725851 -4.579053 -3.747520
C 247.730782 -5.843076 -4.337466
C 247.251162 -6.931477 -3.612569
O 247.234746 -8.184299 -4.158525
C 246.760119 -6.778456 -2.321762
C 246.761089 -5.513054 -1.734851
C 248.380489 -2.461630 -1.369636
C 249.674061 -3.109393 -1.436964
C 250.586498 -2.272506 -0.945572
N 248.582472 -1.241731 -0.797147
C 249.913053 -1.057840 -0.536887
C 250.568971 -0.001633 0.001934
C 249.768961 1.303665 0.432730
C 250.313932 2.555444 0.635423
C 249.292716 3.387821 1.134405
C 248.131361 2.639434 1.170986
N 248.428842 1.377274 0.718023
C 246.715566 3.138041 1.706401
C 246.685841 4.355116 2.551254
C 246.834168 5.615332 1.959995
C 246.794396 6.773938 2.740991
C 246.568809 6.668466 4.111975
O 246.474313 7.816129 4.844394
C 246.425920 5.421482 4.720936
C 246.497136 4.265023 3.938015
C 245.578323 2.449677 1.394222
C 244.278852 2.867229 1.878314
C 243.372649 1.995937 1.432411
C 244.050501 1.014421 0.617674
N 245.379738 1.345784 0.629847
H 242.677293 -1.722110 -2.323129
H 244.668750 -3.294661 -3.272574
H 246.200789 -0.869416 -0.177070
H 248.095442 -3.712745 -4.296766
H 248.123692 -5.947301 -5.336188
H 247.535920 -8.099527 -5.077123
H 246.372920 -7.631456 -1.782309
H 246.377579 -5.369621 -0.726740
H 249.882522 -4.099074 -1.810892
H 251.635735 -2.487866 -0.866146
H 251.347678 2.829505 0.491342
H 249.398634 4.416441 1.456324
H 247.756265 0.627564 0.605942
H 246.982316 5.679757 0.884011
H 246.919752 7.748550 2.286782
H 245.862059 7.619464 5.581005
H 246.260256 5.328849 5.786169
H 246.382124 3.282913 4.386506
H 244.062719 3.725749 2.489394
H 242.316660 2.053439 1.630857
