 xtb: 6.5.1 (b24c23e)
          07302207453D

177206  0     0  0            999 V2000
   30.3812    0.4230    0.3104 Zn  0  0  0  0  0  0  0  0  0  0  0  0
   26.9713    0.3694    0.2347 C   0  0  0  0  0  0  0  0  0  0  0  0
   27.6086   -0.8647    0.2902 C   0  0  0  0  0  0  0  0  0  0  0  0
   26.9415   -2.1352    0.3441 C   0  0  0  0  0  0  0  0  0  0  0  0
   27.9059   -3.0881    0.3957 C   0  0  0  0  0  0  0  0  0  0  0  0
   29.1757   -2.4117    0.3639 C   0  0  0  0  0  0  0  0  0  0  0  0
   28.9588   -1.0651    0.3082 N   0  0  0  0  0  0  0  0  0  0  0  0
   30.4296   -3.0322    0.4112 C   0  0  0  0  0  0  0  0  0  0  0  0
   30.4563   -4.5163    0.4338 C   0  0  0  0  0  0  0  0  0  0  0  0
   29.9663   -5.2445   -0.5804 C   0  0  0  0  0  0  0  0  0  0  0  0
   29.9675   -6.7512   -0.5704 C   0  0  0  0  0  0  0  0  0  0  0  0
   30.8892   -7.2741    0.4419 N   0  0  0  0  0  0  0  0  0  0  0  0
   31.2047   -6.5246    1.5471 C   0  0  0  0  0  0  0  0  0  0  0  0
   31.0490   -5.1898    1.5811 C   0  0  0  0  0  0  0  0  0  0  0  0
   31.6638   -2.3721    0.4347 C   0  0  0  0  0  0  0  0  0  0  0  0
   32.9474   -3.0169    0.4453 C   0  0  0  0  0  0  0  0  0  0  0  0
   33.8879   -2.0380    0.4394 C   0  0  0  0  0  0  0  0  0  0  0  0
   31.8493   -1.0157    0.4148 N   0  0  0  0  0  0  0  0  0  0  0  0
   33.1907   -0.7857    0.4180 C   0  0  0  0  0  0  0  0  0  0  0  0
   33.8126    0.4769    0.3785 C   0  0  0  0  0  0  0  0  0  0  0  0
   33.1541    1.7196    0.3166 C   0  0  0  0  0  0  0  0  0  0  0  0
   33.8121    2.9931    0.3238 C   0  0  0  0  0  0  0  0  0  0  0  0
   32.8423    3.9422    0.2827 C   0  0  0  0  0  0  0  0  0  0  0  0
   31.5801    3.2576    0.2416 C   0  0  0  0  0  0  0  0  0  0  0  0
   31.8070    1.9076    0.2675 N   0  0  0  0  0  0  0  0  0  0  0  0
   30.3256    3.8781    0.2146 C   0  0  0  0  0  0  0  0  0  0  0  0
   30.3053    5.3625    0.1981 C   0  0  0  0  0  0  0  0  0  0  0  0
   29.7532    6.0691    1.1955 C   0  0  0  0  0  0  0  0  0  0  0  0
   29.7054    7.5751    1.1902 C   0  0  0  0  0  0  0  0  0  0  0  0
   30.6549    8.1312    0.2222 N   0  0  0  0  0  0  0  0  0  0  0  0
   31.0347    7.3994   -0.8748 C   0  0  0  0  0  0  0  0  0  0  0  0
   30.9199    6.0608   -0.9225 C   0  0  0  0  0  0  0  0  0  0  0  0
   29.0912    3.2182    0.2061 C   0  0  0  0  0  0  0  0  0  0  0  0
   27.8035    3.8547    0.1192 C   0  0  0  0  0  0  0  0  0  0  0  0
   26.8681    2.8720    0.1257 C   0  0  0  0  0  0  0  0  0  0  0  0
   27.5716    1.6227    0.2076 C   0  0  0  0  0  0  0  0  0  0  0  0
   28.9144    1.8653    0.2500 N   0  0  0  0  0  0  0  0  0  0  0  0
   25.8859    0.3524    0.2104 H   0  0  0  0  0  0  0  0  0  0  0  0
   25.8709   -2.2691    0.3499 H   0  0  0  0  0  0  0  0  0  0  0  0
   27.7736   -4.1562    0.4622 H   0  0  0  0  0  0  0  0  0  0  0  0
   29.5263   -4.7807   -1.4556 H   0  0  0  0  0  0  0  0  0  0  0  0
   30.2856   -7.1358   -1.5489 H   0  0  0  0  0  0  0  0  0  0  0  0
   28.9454   -7.1330   -0.3866 H   0  0  0  0  0  0  0  0  0  0  0  0
   30.8055   -8.2695    0.5909 H   0  0  0  0  0  0  0  0  0  0  0  0
   31.6681   -7.0810    2.3557 H   0  0  0  0  0  0  0  0  0  0  0  0
   31.3511   -4.6090    2.4412 H   0  0  0  0  0  0  0  0  0  0  0  0
   33.1070   -4.0832    0.4475 H   0  0  0  0  0  0  0  0  0  0  0  0
   34.9607   -2.1482    0.4387 H   0  0  0  0  0  0  0  0  0  0  0  0
   34.8802    3.1365    0.3668 H   0  0  0  0  0  0  0  0  0  0  0  0
   32.9681    5.0131    0.2880 H   0  0  0  0  0  0  0  0  0  0  0  0
   29.2952    5.5868    2.0513 H   0  0  0  0  0  0  0  0  0  0  0  0
   29.9663    7.9658    2.1829 H   0  0  0  0  0  0  0  0  0  0  0  0
   28.6808    7.9242    0.9609 H   0  0  0  0  0  0  0  0  0  0  0  0
   30.5496    9.1250    0.0766 H   0  0  0  0  0  0  0  0  0  0  0  0
   31.5125    7.9748   -1.6614 H   0  0  0  0  0  0  0  0  0  0  0  0
   31.2715    5.4949   -1.7736 H   0  0  0  0  0  0  0  0  0  0  0  0
   27.6410    4.9184    0.0489 H   0  0  0  0  0  0  0  0  0  0  0  0
   25.7951    2.9723    0.0722 H   0  0  0  0  0  0  0  0  0  0  0  0
   52.1965    0.3790    0.3295 Zn  0  0  0  0  0  0  0  0  0  0  0  0
   55.6052    0.3025    0.2708 C   0  0  0  0  0  0  0  0  0  0  0  0
   55.0146    1.5605    0.3015 C   0  0  0  0  0  0  0  0  0  0  0  0
   55.7285    2.8057    0.3451 C   0  0  0  0  0  0  0  0  0  0  0  0
   54.8005    3.7952    0.3624 C   0  0  0  0  0  0  0  0  0  0  0  0
   53.5066    3.1671    0.3162 C   0  0  0  0  0  0  0  0  0  0  0  0
   53.6729    1.8122    0.2925 N   0  0  0  0  0  0  0  0  0  0  0  0
   52.2764    3.8347    0.3107 C   0  0  0  0  0  0  0  0  0  0  0  0
   52.3026    5.3190    0.3206 C   0  0  0  0  0  0  0  0  0  0  0  0
   52.8500    6.0264   -0.6786 C   0  0  0  0  0  0  0  0  0  0  0  0
   52.9040    7.5324   -0.6683 C   0  0  0  0  0  0  0  0  0  0  0  0
   51.9663    8.0902    0.3103 N   0  0  0  0  0  0  0  0  0  0  0  0
   51.5898    7.3556    1.4065 C   0  0  0  0  0  0  0  0  0  0  0  0
   51.6982    6.0164    1.4476 C   0  0  0  0  0  0  0  0  0  0  0  0
   51.0180    3.2213    0.3053 C   0  0  0  0  0  0  0  0  0  0  0  0
   49.7602    3.9130    0.2491 C   0  0  0  0  0  0  0  0  0  0  0  0
   48.7833    2.9702    0.2601 C   0  0  0  0  0  0  0  0  0  0  0  0
   50.7817    1.8734    0.3349 N   0  0  0  0  0  0  0  0  0  0  0  0
   49.4327    1.6935    0.3173 C   0  0  0  0  0  0  0  0  0  0  0  0
   48.7653    0.4560    0.3845 C   0  0  0  0  0  0  0  0  0  0  0  0
   49.3787   -0.8103    0.4330 C   0  0  0  0  0  0  0  0  0  0  0  0
   48.6749   -2.0565    0.5156 C   0  0  0  0  0  0  0  0  0  0  0  0
   49.6084   -3.0422    0.4995 C   0  0  0  0  0  0  0  0  0  0  0  0
   50.8934   -2.4080    0.3996 C   0  0  0  0  0  0  0  0  0  0  0  0
   50.7170   -1.0508    0.3724 N   0  0  0  0  0  0  0  0  0  0  0  0
   52.1223   -3.0772    0.3550 C   0  0  0  0  0  0  0  0  0  0  0  0
   52.0836   -4.5611    0.3574 C   0  0  0  0  0  0  0  0  0  0  0  0
   52.6402   -5.2821    1.3418 C   0  0  0  0  0  0  0  0  0  0  0  0
   52.6310   -6.7889    1.3465 C   0  0  0  0  0  0  0  0  0  0  0  0
   51.6370   -7.3169    0.4077 N   0  0  0  0  0  0  0  0  0  0  0  0
   51.2472   -6.5760   -0.6796 C   0  0  0  0  0  0  0  0  0  0  0  0
   51.4067   -5.2425   -0.7377 C   0  0  0  0  0  0  0  0  0  0  0  0
   53.3801   -2.4651    0.3035 C   0  0  0  0  0  0  0  0  0  0  0  0
   54.6422   -3.1506    0.2128 C   0  0  0  0  0  0  0  0  0  0  0  0
   55.6136   -2.2037    0.1953 C   0  0  0  0  0  0  0  0  0  0  0  0
   54.9582   -0.9277    0.2617 C   0  0  0  0  0  0  0  0  0  0  0  0
   53.6077   -1.1190    0.3180 N   0  0  0  0  0  0  0  0  0  0  0  0
   56.6905    0.2782    0.2523 H   0  0  0  0  0  0  0  0  0  0  0  0
   56.8033    2.8991    0.3683 H   0  0  0  0  0  0  0  0  0  0  0  0
   54.9724    4.8586    0.4118 H   0  0  0  0  0  0  0  0  0  0  0  0
   53.3002    5.5455   -1.5392 H   0  0  0  0  0  0  0  0  0  0  0  0
   52.6357    7.9276   -1.6573 H   0  0  0  0  0  0  0  0  0  0  0  0
   53.9322    7.8762   -0.4475 H   0  0  0  0  0  0  0  0  0  0  0  0
   52.0799    9.0825    0.4602 H   0  0  0  0  0  0  0  0  0  0  0  0
   51.1202    7.9300    2.1987 H   0  0  0  0  0  0  0  0  0  0  0  0
   51.3482    5.4486    2.2981 H   0  0  0  0  0  0  0  0  0  0  0  0
   49.6422    4.9837    0.2009 H   0  0  0  0  0  0  0  0  0  0  0  0
   47.7155    3.1196    0.2316 H   0  0  0  0  0  0  0  0  0  0  0  0
   47.6031   -2.1580    0.5788 H   0  0  0  0  0  0  0  0  0  0  0  0
   49.4438   -4.1063    0.5560 H   0  0  0  0  0  0  0  0  0  0  0  0
   53.1440   -4.8127    2.1787 H   0  0  0  0  0  0  0  0  0  0  0  0
   52.3819   -7.1628    2.3488 H   0  0  0  0  0  0  0  0  0  0  0  0
   53.6356   -7.1775    1.0938 H   0  0  0  0  0  0  0  0  0  0  0  0
   51.7070   -8.3138    0.2617 H   0  0  0  0  0  0  0  0  0  0  0  0
   50.7247   -7.1374   -1.4477 H   0  0  0  0  0  0  0  0  0  0  0  0
   51.0464   -4.6682   -1.5796 H   0  0  0  0  0  0  0  0  0  0  0  0
   54.7645   -4.2206    0.1585 H   0  0  0  0  0  0  0  0  0  0  0  0
   56.6816   -2.3453    0.1343 H   0  0  0  0  0  0  0  0  0  0  0  0
   35.2235    0.4968    0.4006 C   0  0  0  0  0  0  0  0  0  0  0  0
   36.4396    0.5084    0.4157 C   0  0  0  0  0  0  0  0  0  0  0  0
   46.1385    0.5045    0.4193 C   0  0  0  0  0  0  0  0  0  0  0  0
   47.3545    0.4856    0.4045 C   0  0  0  0  0  0  0  0  0  0  0  0
   41.2895    0.5262    0.4399 Zn  0  0  0  0  0  0  0  0  0  0  0  0
   37.8503    0.5181    0.4277 C   0  0  0  0  0  0  0  0  0  0  0  0
   38.4924    1.4944   -0.3583 C   0  0  0  0  0  0  0  0  0  0  0  0
   37.8164    2.4806   -1.1483 C   0  0  0  0  0  0  0  0  0  0  0  0
   38.7731    3.2090   -1.7792 C   0  0  0  0  0  0  0  0  0  0  0  0
   40.0443    2.6684   -1.3865 C   0  0  0  0  0  0  0  0  0  0  0  0
   39.8369    1.6342   -0.5133 N   0  0  0  0  0  0  0  0  0  0  0  0
   41.2900    3.1356   -1.8188 C   0  0  0  0  0  0  0  0  0  0  0  0
   41.2949    4.2315   -2.8207 C   0  0  0  0  0  0  0  0  0  0  0  0
   40.7730    4.0609   -4.0445 C   0  0  0  0  0  0  0  0  0  0  0  0
   40.8166    5.1340   -5.1004 C   0  0  0  0  0  0  0  0  0  0  0  0
   41.1125    6.4433   -4.5129 N   0  0  0  0  0  0  0  0  0  0  0  0
   41.7872    6.5402   -3.3232 C   0  0  0  0  0  0  0  0  0  0  0  0
   41.8820    5.5137   -2.4599 C   0  0  0  0  0  0  0  0  0  0  0  0
   42.5354    2.6521   -1.4028 C   0  0  0  0  0  0  0  0  0  0  0  0
   43.8067    3.1143   -1.8848 C   0  0  0  0  0  0  0  0  0  0  0  0
   44.7633    2.3874   -1.2518 C   0  0  0  0  0  0  0  0  0  0  0  0
   42.7423    1.6466   -0.4969 N   0  0  0  0  0  0  0  0  0  0  0  0
   44.0867    1.4682   -0.3850 C   0  0  0  0  0  0  0  0  0  0  0  0
   44.7277    0.5172    0.4312 C   0  0  0  0  0  0  0  0  0  0  0  0
   44.0859   -0.4269    1.2554 C   0  0  0  0  0  0  0  0  0  0  0  0
   44.7628   -1.3464    2.1212 C   0  0  0  0  0  0  0  0  0  0  0  0
   43.8066   -2.0669    2.7618 C   0  0  0  0  0  0  0  0  0  0  0  0
   42.5345   -1.6028    2.2834 C   0  0  0  0  0  0  0  0  0  0  0  0
   42.7413   -0.5982    1.3760 N   0  0  0  0  0  0  0  0  0  0  0  0
   41.2879   -2.0878    2.6941 C   0  0  0  0  0  0  0  0  0  0  0  0
   41.2781   -3.1951    3.6833 C   0  0  0  0  0  0  0  0  0  0  0  0
   41.8067   -4.3968    3.4099 C   0  0  0  0  0  0  0  0  0  0  0  0
   41.8230   -5.5210    4.4132 C   0  0  0  0  0  0  0  0  0  0  0  0
   40.8794   -5.2711    5.5065 N   0  0  0  0  0  0  0  0  0  0  0  0
   40.5205   -3.9884    5.8352 C   0  0  0  0  0  0  0  0  0  0  0  0
   40.6584   -2.9602    4.9804 C   0  0  0  0  0  0  0  0  0  0  0  0
   40.0435   -1.6161    2.2614 C   0  0  0  0  0  0  0  0  0  0  0  0
   38.7723   -2.1593    2.6502 C   0  0  0  0  0  0  0  0  0  0  0  0
   37.8161   -1.4385    2.0103 C   0  0  0  0  0  0  0  0  0  0  0  0
   38.4924   -0.4517    1.2209 C   0  0  0  0  0  0  0  0  0  0  0  0
   39.8368   -0.5844    1.3855 N   0  0  0  0  0  0  0  0  0  0  0  0
   36.7459    2.5978   -1.2071 H   0  0  0  0  0  0  0  0  0  0  0  0
   38.6332    4.0455   -2.4448 H   0  0  0  0  0  0  0  0  0  0  0  0
   40.3559    3.1109   -4.3584 H   0  0  0  0  0  0  0  0  0  0  0  0
   41.5718    4.8832   -5.8692 H   0  0  0  0  0  0  0  0  0  0  0  0
   39.8461    5.2020   -5.6107 H   0  0  0  0  0  0  0  0  0  0  0  0
   41.3042    7.1629   -5.1948 H   0  0  0  0  0  0  0  0  0  0  0  0
   42.1643    7.5324   -3.0961 H   0  0  0  0  0  0  0  0  0  0  0  0
   42.3504    5.6330   -1.4932 H   0  0  0  0  0  0  0  0  0  0  0  0
   43.9480    3.8888   -2.6217 H   0  0  0  0  0  0  0  0  0  0  0  0
   45.8336    2.4554   -1.3658 H   0  0  0  0  0  0  0  0  0  0  0  0
   45.8333   -1.4176    2.2318 H   0  0  0  0  0  0  0  0  0  0  0  0
   43.9493   -2.8372    3.5025 H   0  0  0  0  0  0  0  0  0  0  0  0
   42.2683   -4.6135    2.4536 H   0  0  0  0  0  0  0  0  0  0  0  0
   42.8439   -5.6574    4.8170 H   0  0  0  0  0  0  0  0  0  0  0  0
   41.5375   -6.4646    3.9288 H   0  0  0  0  0  0  0  0  0  0  0  0
   40.9715   -5.9170    6.2774 H   0  0  0  0  0  0  0  0  0  0  0  0
   40.0398   -3.8851    6.8029 H   0  0  0  0  0  0  0  0  0  0  0  0
   40.3218   -1.9654    5.2362 H   0  0  0  0  0  0  0  0  0  0  0  0
   38.6317   -2.9909    3.3220 H   0  0  0  0  0  0  0  0  0  0  0  0
   36.7458   -1.5595    2.0643 H   0  0  0  0  0  0  0  0  0  0  0  0
  2  3  4  0  0  0  0
  3  4  4  0  0  0  0
  4  5  2  0  0  0  0
  5  6  4  0  0  0  0
  1  7  1  0  0  0  0
  3  7  4  0  0  0  0
  6  7  4  0  0  0  0
  6  8  4  0  0  0  0
  8  9  1  0  0  0  0
  9 10  2  0  0  0  0
 10 11  1  0  0  0  0
 11 12  1  0  0  0  0
 12 13  1  0  0  0  0
  9 14  1  0  0  0  0
 13 14  2  0  0  0  0
  8 15  4  0  0  0  0
 15 16  4  0  0  0  0
 16 17  2  0  0  0  0
  1 18  1  0  0  0  0
 15 18  4  0  0  0  0
 17 19  4  0  0  0  0
 18 19  4  0  0  0  0
 19 20  4  0  0  0  0
 20 21  4  0  0  0  0
 21 22  4  0  0  0  0
 22 23  2  0  0  0  0
 23 24  4  0  0  0  0
  1 25  1  0  0  0  0
 21 25  4  0  0  0  0
 24 25  4  0  0  0  0
 24 26  4  0  0  0  0
 26 27  1  0  0  0  0
 27 28  2  0  0  0  0
 28 29  1  0  0  0  0
 29 30  1  0  0  0  0
 30 31  1  0  0  0  0
 27 32  1  0  0  0  0
 31 32  2  0  0  0  0
 26 33  4  0  0  0  0
 33 34  4  0  0  0  0
 34 35  2  0  0  0  0
  2 36  4  0  0  0  0
 35 36  4  0  0  0  0
  1 37  1  0  0  0  0
 33 37  4  0  0  0  0
 36 37  4  0  0  0  0
  2 38  1  0  0  0  0
  4 39  1  0  0  0  0
  5 40  1  0  0  0  0
 10 41  1  0  0  0  0
 11 42  1  0  0  0  0
 11 43  1  0  0  0  0
 12 44  1  0  0  0  0
 13 45  1  0  0  0  0
 14 46  1  0  0  0  0
 16 47  1  0  0  0  0
 17 48  1  0  0  0  0
 22 49  1  0  0  0  0
 23 50  1  0  0  0  0
 28 51  1  0  0  0  0
 29 52  1  0  0  0  0
 29 53  1  0  0  0  0
 30 54  1  0  0  0  0
 31 55  1  0  0  0  0
 32 56  1  0  0  0  0
 34 57  1  0  0  0  0
 35 58  1  0  0  0  0
 60 61  4  0  0  0  0
 61 62  4  0  0  0  0
 62 63  2  0  0  0  0
 63 64  4  0  0  0  0
 59 65  1  0  0  0  0
 61 65  4  0  0  0  0
 64 65  4  0  0  0  0
 64 66  4  0  0  0  0
 66 67  1  0  0  0  0
 67 68  2  0  0  0  0
 68 69  1  0  0  0  0
 69 70  1  0  0  0  0
 70 71  1  0  0  0  0
 67 72  1  0  0  0  0
 71 72  2  0  0  0  0
 66 73  4  0  0  0  0
 73 74  4  0  0  0  0
 74 75  2  0  0  0  0
 59 76  1  0  0  0  0
 73 76  4  0  0  0  0
 75 77  4  0  0  0  0
 76 77  4  0  0  0  0
 77 78  4  0  0  0  0
 78 79  4  0  0  0  0
 79 80  4  0  0  0  0
 80 81  2  0  0  0  0
 81 82  4  0  0  0  0
 59 83  1  0  0  0  0
 79 83  4  0  0  0  0
 82 83  4  0  0  0  0
 82 84  4  0  0  0  0
 84 85  1  0  0  0  0
 85 86  2  0  0  0  0
 86 87  1  0  0  0  0
 87 88  1  0  0  0  0
 88 89  1  0  0  0  0
 85 90  1  0  0  0  0
 89 90  2  0  0  0  0
 84 91  4  0  0  0  0
 91 92  4  0  0  0  0
 92 93  2  0  0  0  0
 60 94  4  0  0  0  0
 93 94  4  0  0  0  0
 59 95  1  0  0  0  0
 91 95  4  0  0  0  0
 94 95  4  0  0  0  0
 60 96  1  0  0  0  0
 62 97  1  0  0  0  0
 63 98  1  0  0  0  0
 68 99  1  0  0  0  0
 69100  1  0  0  0  0
 69101  1  0  0  0  0
 70102  1  0  0  0  0
 71103  1  0  0  0  0
 72104  1  0  0  0  0
 74105  1  0  0  0  0
 75106  1  0  0  0  0
 80107  1  0  0  0  0
 81108  1  0  0  0  0
 86109  1  0  0  0  0
 87110  1  0  0  0  0
 87111  1  0  0  0  0
 88112  1  0  0  0  0
 89113  1  0  0  0  0
 90114  1  0  0  0  0
 92115  1  0  0  0  0
 93116  1  0  0  0  0
 20117  4  0  0  0  0
117118  3  0  0  0  0
 78120  4  0  0  0  0
119120  3  0  0  0  0
118122  4  0  0  0  0
122123  4  0  0  0  0
123124  4  0  0  0  0
124125  2  0  0  0  0
125126  4  0  0  0  0
121127  1  0  0  0  0
123127  4  0  0  0  0
126127  4  0  0  0  0
126128  4  0  0  0  0
128129  1  0  0  0  0
129130  2  0  0  0  0
130131  1  0  0  0  0
131132  1  0  0  0  0
132133  1  0  0  0  0
129134  1  0  0  0  0
133134  2  0  0  0  0
128135  4  0  0  0  0
135136  4  0  0  0  0
136137  2  0  0  0  0
121138  1  0  0  0  0
135138  4  0  0  0  0
137139  4  0  0  0  0
138139  4  0  0  0  0
119140  4  0  0  0  0
139140  4  0  0  0  0
140141  4  0  0  0  0
141142  4  0  0  0  0
142143  2  0  0  0  0
143144  4  0  0  0  0
121145  1  0  0  0  0
141145  4  0  0  0  0
144145  4  0  0  0  0
144146  4  0  0  0  0
146147  1  0  0  0  0
147148  2  0  0  0  0
148149  1  0  0  0  0
149150  1  0  0  0  0
150151  1  0  0  0  0
147152  1  0  0  0  0
151152  2  0  0  0  0
146153  4  0  0  0  0
153154  4  0  0  0  0
154155  2  0  0  0  0
122156  4  0  0  0  0
155156  4  0  0  0  0
121157  1  0  0  0  0
153157  4  0  0  0  0
156157  4  0  0  0  0
124158  1  0  0  0  0
125159  1  0  0  0  0
130160  1  0  0  0  0
131161  1  0  0  0  0
131162  1  0  0  0  0
132163  1  0  0  0  0
133164  1  0  0  0  0
134165  1  0  0  0  0
136166  1  0  0  0  0
137167  1  0  0  0  0
142168  1  0  0  0  0
143169  1  0  0  0  0
148170  1  0  0  0  0
149171  1  0  0  0  0
149172  1  0  0  0  0
150173  1  0  0  0  0
151174  1  0  0  0  0
152175  1  0  0  0  0
154176  1  0  0  0  0
155177  1  0  0  0  0
M  END
