 xtb: 6.5.1 (b24c23e)
          07282212033D

240267  0     0  0            999 V2000
   46.4293   -0.0537   -0.1790 C   0  0  0  0  0  0  0  0  0  0  0  0
   47.0309    1.1439   -0.5433 C   0  0  0  0  0  0  0  0  0  0  0  0
   46.3742    2.3270   -0.9840 C   0  0  0  0  0  0  0  0  0  0  0  0
   47.3309    3.2668   -1.2467 C   0  0  0  0  0  0  0  0  0  0  0  0
   48.6026    2.6932   -0.9601 C   0  0  0  0  0  0  0  0  0  0  0  0
   48.3709    1.4110   -0.5487 N   0  0  0  0  0  0  0  0  0  0  0  0
   49.8610    3.2934   -1.0805 C   0  0  0  0  0  0  0  0  0  0  0  0
   49.8872    4.7021   -1.5447 C   0  0  0  0  0  0  0  0  0  0  0  0
   50.5495    5.0408   -2.7255 C   0  0  0  0  0  0  0  0  0  0  0  0
   50.5690    6.3510   -3.1769 C   0  0  0  0  0  0  0  0  0  0  0  0
   49.9266    7.3447   -2.4418 C   0  0  0  0  0  0  0  0  0  0  0  0
   49.9210    8.6408   -2.8470 O   0  0  0  0  0  0  0  0  0  0  0  0
   49.2661    7.0213   -1.2580 C   0  0  0  0  0  0  0  0  0  0  0  0
   49.2462    5.7091   -0.8191 C   0  0  0  0  0  0  0  0  0  0  0  0
   51.0780    2.6640   -0.8052 C   0  0  0  0  0  0  0  0  0  0  0  0
   52.3646    3.3341   -0.8625 C   0  0  0  0  0  0  0  0  0  0  0  0
   53.2921    2.4090   -0.5401 C   0  0  0  0  0  0  0  0  0  0  0  0
   51.2448    1.3648   -0.4349 N   0  0  0  0  0  0  0  0  0  0  0  0
   52.5721    1.1779   -0.2793 C   0  0  0  0  0  0  0  0  0  0  0  0
   53.2200   -0.0292    0.0484 C   0  0  0  0  0  0  0  0  0  0  0  0
   52.5957   -1.2612    0.3185 C   0  0  0  0  0  0  0  0  0  0  0  0
   53.2483   -2.4861    0.6183 C   0  0  0  0  0  0  0  0  0  0  0  0
   52.2880   -3.4342    0.8400 C   0  0  0  0  0  0  0  0  0  0  0  0
   51.0168   -2.8130    0.6964 C   0  0  0  0  0  0  0  0  0  0  0  0
   51.2549   -1.5038    0.3700 N   0  0  0  0  0  0  0  0  0  0  0  0
   49.7590   -3.4087    0.8432 C   0  0  0  0  0  0  0  0  0  0  0  0
   49.7368   -4.8396    1.2320 C   0  0  0  0  0  0  0  0  0  0  0  0
   50.3105   -5.2612    2.4343 C   0  0  0  0  0  0  0  0  0  0  0  0
   50.2875   -6.5949    2.8018 C   0  0  0  0  0  0  0  0  0  0  0  0
   49.6921   -7.5335    1.9610 C   0  0  0  0  0  0  0  0  0  0  0  0
   49.6909   -8.8345    2.3501 O   0  0  0  0  0  0  0  0  0  0  0  0
   49.1189   -7.1288    0.7577 C   0  0  0  0  0  0  0  0  0  0  0  0
   49.1402   -5.7893    0.4017 C   0  0  0  0  0  0  0  0  0  0  0  0
   48.5375   -2.7536    0.6544 C   0  0  0  0  0  0  0  0  0  0  0  0
   47.2375   -3.3674    0.8765 C   0  0  0  0  0  0  0  0  0  0  0  0
   46.3159   -2.4257    0.5905 C   0  0  0  0  0  0  0  0  0  0  0  0
   47.0515   -1.2350    0.2035 C   0  0  0  0  0  0  0  0  0  0  0  0
   48.3858   -1.4659    0.2633 N   0  0  0  0  0  0  0  0  0  0  0  0
   45.3442   -0.0602   -0.2061 H   0  0  0  0  0  0  0  0  0  0  0  0
   45.3061    2.4296   -1.0913 H   0  0  0  0  0  0  0  0  0  0  0  0
   47.1749    4.2680   -1.6144 H   0  0  0  0  0  0  0  0  0  0  0  0
   49.0986    0.7519   -0.2933 H   0  0  0  0  0  0  0  0  0  0  0  0
   51.0387    4.2659   -3.3052 H   0  0  0  0  0  0  0  0  0  0  0  0
   51.0791    6.6064   -4.0995 H   0  0  0  0  0  0  0  0  0  0  0  0
   50.4128    8.7539   -3.6714 H   0  0  0  0  0  0  0  0  0  0  0  0
   48.7760    7.8050   -0.6936 H   0  0  0  0  0  0  0  0  0  0  0  0
   48.7446    5.4616    0.1099 H   0  0  0  0  0  0  0  0  0  0  0  0
   52.5153    4.3743   -1.1018 H   0  0  0  0  0  0  0  0  0  0  0  0
   54.3620    2.5257   -0.4782 H   0  0  0  0  0  0  0  0  0  0  0  0
   54.3174   -2.6184    0.6560 H   0  0  0  0  0  0  0  0  0  0  0  0
   52.4444   -4.4744    1.0751 H   0  0  0  0  0  0  0  0  0  0  0  0
   50.5282   -0.8185    0.1914 H   0  0  0  0  0  0  0  0  0  0  0  0
   50.7605   -4.5299    3.0964 H   0  0  0  0  0  0  0  0  0  0  0  0
   50.7243   -6.9228    3.7369 H   0  0  0  0  0  0  0  0  0  0  0  0
   49.2515   -9.3968    1.6981 H   0  0  0  0  0  0  0  0  0  0  0  0
   48.6600   -7.8633    0.1044 H   0  0  0  0  0  0  0  0  0  0  0  0
   48.7050   -5.4778   -0.5413 H   0  0  0  0  0  0  0  0  0  0  0  0
   47.0766   -4.3768    1.2197 H   0  0  0  0  0  0  0  0  0  0  0  0
   45.2403   -2.4972    0.6356 H   0  0  0  0  0  0  0  0  0  0  0  0
   85.8795   -0.0461    0.2607 C   0  0  0  0  0  0  0  0  0  0  0  0
   85.2616   -1.2247    0.6582 C   0  0  0  0  0  0  0  0  0  0  0  0
   85.9044   -2.4150    1.1001 C   0  0  0  0  0  0  0  0  0  0  0  0
   84.9354   -3.3302    1.4011 C   0  0  0  0  0  0  0  0  0  0  0  0
   83.6683   -2.7257    1.1609 C   0  0  0  0  0  0  0  0  0  0  0  0
   83.9167   -1.4613    0.7066 N   0  0  0  0  0  0  0  0  0  0  0  0
   82.4022   -3.2991    1.3244 C   0  0  0  0  0  0  0  0  0  0  0  0
   82.3615   -4.6797    1.8655 C   0  0  0  0  0  0  0  0  0  0  0  0
   81.7971   -5.7179    1.1237 C   0  0  0  0  0  0  0  0  0  0  0  0
   81.7603   -7.0093    1.6265 C   0  0  0  0  0  0  0  0  0  0  0  0
   82.2859   -7.2751    2.8887 C   0  0  0  0  0  0  0  0  0  0  0  0
   82.2680   -8.5245    3.4206 O   0  0  0  0  0  0  0  0  0  0  0  0
   82.8506   -6.2469    3.6412 C   0  0  0  0  0  0  0  0  0  0  0  0
   82.8890   -4.9626    3.1280 C   0  0  0  0  0  0  0  0  0  0  0  0
   81.1927   -2.6669    1.0237 C   0  0  0  0  0  0  0  0  0  0  0  0
   79.8882   -3.2611    1.2549 C   0  0  0  0  0  0  0  0  0  0  0  0
   78.9767   -2.3513    0.8528 C   0  0  0  0  0  0  0  0  0  0  0  0
   81.0504   -1.4157    0.5073 N   0  0  0  0  0  0  0  0  0  0  0  0
   79.7240   -1.1988    0.3881 C   0  0  0  0  0  0  0  0  0  0  0  0
   79.1000   -0.0283   -0.0839 C   0  0  0  0  0  0  0  0  0  0  0  0
   79.7430    1.1524   -0.4979 C   0  0  0  0  0  0  0  0  0  0  0  0
   79.1115    2.3119   -1.0211 C   0  0  0  0  0  0  0  0  0  0  0  0
   80.0848    3.2246   -1.3208 C   0  0  0  0  0  0  0  0  0  0  0  0
   81.3421    2.6531   -0.9807 C   0  0  0  0  0  0  0  0  0  0  0  0
   81.0840    1.3987   -0.4942 N   0  0  0  0  0  0  0  0  0  0  0  0
   82.6073    3.2312   -1.1334 C   0  0  0  0  0  0  0  0  0  0  0  0
   82.6521    4.6140   -1.6669 C   0  0  0  0  0  0  0  0  0  0  0  0
   82.0259    5.6622   -0.9878 C   0  0  0  0  0  0  0  0  0  0  0  0
   82.0692    6.9538   -1.4823 C   0  0  0  0  0  0  0  0  0  0  0  0
   82.7385    7.2147   -2.6766 C   0  0  0  0  0  0  0  0  0  0  0  0
   82.7580    8.4926   -3.1358 O   0  0  0  0  0  0  0  0  0  0  0  0
   83.3642    6.1793   -3.3670 C   0  0  0  0  0  0  0  0  0  0  0  0
   83.3217    4.8900   -2.8598 C   0  0  0  0  0  0  0  0  0  0  0  0
   83.8163    2.5995   -0.8234 C   0  0  0  0  0  0  0  0  0  0  0  0
   85.1212    3.2334   -0.9301 C   0  0  0  0  0  0  0  0  0  0  0  0
   86.0268    2.3124   -0.5428 C   0  0  0  0  0  0  0  0  0  0  0  0
   85.2757    1.1209   -0.1893 C   0  0  0  0  0  0  0  0  0  0  0  0
   83.9483    1.3325   -0.3634 N   0  0  0  0  0  0  0  0  0  0  0  0
   86.9636   -0.0448    0.3144 H   0  0  0  0  0  0  0  0  0  0  0  0
   86.9730   -2.5435    1.1685 H   0  0  0  0  0  0  0  0  0  0  0  0
   85.0800   -4.3400    1.7494 H   0  0  0  0  0  0  0  0  0  0  0  0
   83.1972   -0.7981    0.4389 H   0  0  0  0  0  0  0  0  0  0  0  0
   81.3993   -5.5150    0.1357 H   0  0  0  0  0  0  0  0  0  0  0  0
   81.3260   -7.8135    1.0424 H   0  0  0  0  0  0  0  0  0  0  0  0
   81.8458   -9.1557    2.8226 H   0  0  0  0  0  0  0  0  0  0  0  0
   83.2514   -6.4669    4.6230 H   0  0  0  0  0  0  0  0  0  0  0  0
   83.3149   -4.1604    3.7204 H   0  0  0  0  0  0  0  0  0  0  0  0
   79.7136   -4.2346    1.6836 H   0  0  0  0  0  0  0  0  0  0  0  0
   77.9011   -2.4244    0.8729 H   0  0  0  0  0  0  0  0  0  0  0  0
   78.0480    2.4210   -1.1599 H   0  0  0  0  0  0  0  0  0  0  0  0
   79.9473    4.2028   -1.7519 H   0  0  0  0  0  0  0  0  0  0  0  0
   81.7990    0.7463   -0.1899 H   0  0  0  0  0  0  0  0  0  0  0  0
   81.5176    5.4631   -0.0509 H   0  0  0  0  0  0  0  0  0  0  0  0
   81.5916    7.7692   -0.9534 H   0  0  0  0  0  0  0  0  0  0  0  0
   83.2504    8.5614   -3.9648 H   0  0  0  0  0  0  0  0  0  0  0  0
   83.8802    6.3860   -4.2986 H   0  0  0  0  0  0  0  0  0  0  0  0
   83.7979    4.0829   -3.4052 H   0  0  0  0  0  0  0  0  0  0  0  0
   85.2953    4.2499   -1.2446 H   0  0  0  0  0  0  0  0  0  0  0  0
   87.1000    2.4040   -0.4826 H   0  0  0  0  0  0  0  0  0  0  0  0
   54.6293   -0.0210    0.1044 C   0  0  0  0  0  0  0  0  0  0  0  0
   55.8451   -0.0139    0.1568 C   0  0  0  0  0  0  0  0  0  0  0  0
   65.5586    0.1089    0.1257 C   0  0  0  0  0  0  0  0  0  0  0  0
   66.7725    0.1428    0.0164 C   0  0  0  0  0  0  0  0  0  0  0  0
   76.4743   -0.0020   -0.1800 C   0  0  0  0  0  0  0  0  0  0  0  0
   77.6901   -0.0173   -0.1418 C   0  0  0  0  0  0  0  0  0  0  0  0
   57.2536   -0.0133    0.2120 C   0  0  0  0  0  0  0  0  0  0  0  0
   57.8963   -1.2076   -0.1643 C   0  0  0  0  0  0  0  0  0  0  0  0
   57.2715   -2.3913   -0.6334 C   0  0  0  0  0  0  0  0  0  0  0  0
   58.2524   -3.3052   -0.9079 C   0  0  0  0  0  0  0  0  0  0  0  0
   59.5060   -2.7062   -0.6089 C   0  0  0  0  0  0  0  0  0  0  0  0
   59.2404   -1.4369   -0.1696 N   0  0  0  0  0  0  0  0  0  0  0  0
   60.7741   -3.2840   -0.7512 C   0  0  0  0  0  0  0  0  0  0  0  0
   60.8055   -4.6982   -1.1998 C   0  0  0  0  0  0  0  0  0  0  0  0
   61.4439   -5.0465   -2.3908 C   0  0  0  0  0  0  0  0  0  0  0  0
   61.4691   -6.3632   -2.8229 C   0  0  0  0  0  0  0  0  0  0  0  0
   60.8579   -7.3536   -2.0573 C   0  0  0  0  0  0  0  0  0  0  0  0
   60.8605   -8.6559   -2.4417 O   0  0  0  0  0  0  0  0  0  0  0  0
   60.2208   -7.0203   -0.8634 C   0  0  0  0  0  0  0  0  0  0  0  0
   60.1936   -5.7018   -0.4446 C   0  0  0  0  0  0  0  0  0  0  0  0
   61.9926   -2.6431   -0.5209 C   0  0  0  0  0  0  0  0  0  0  0  0
   63.2777   -3.3127   -0.5979 C   0  0  0  0  0  0  0  0  0  0  0  0
   64.2128   -2.3745   -0.3415 C   0  0  0  0  0  0  0  0  0  0  0  0
   62.1690   -1.3318   -0.1944 N   0  0  0  0  0  0  0  0  0  0  0  0
   63.5002   -1.1372   -0.1004 C   0  0  0  0  0  0  0  0  0  0  0  0
   64.1531    0.0773    0.2023 C   0  0  0  0  0  0  0  0  0  0  0  0
   63.5052    1.2646    0.5979 C   0  0  0  0  0  0  0  0  0  0  0  0
   64.1281    2.4636    1.0271 C   0  0  0  0  0  0  0  0  0  0  0  0
   63.1473    3.3490    1.3799 C   0  0  0  0  0  0  0  0  0  0  0  0
   61.8915    2.7220    1.1585 C   0  0  0  0  0  0  0  0  0  0  0  0
   62.1587    1.4619    0.6916 N   0  0  0  0  0  0  0  0  0  0  0  0
   60.6254    3.2716    1.3935 C   0  0  0  0  0  0  0  0  0  0  0  0
   60.5980    4.6613    1.9165 C   0  0  0  0  0  0  0  0  0  0  0  0
   61.1208    5.7188    1.1688 C   0  0  0  0  0  0  0  0  0  0  0  0
   61.0982    7.0126    1.6593 C   0  0  0  0  0  0  0  0  0  0  0  0
   60.5546    7.2656    2.9174 C   0  0  0  0  0  0  0  0  0  0  0  0
   60.5542    8.5456    3.3712 O   0  0  0  0  0  0  0  0  0  0  0  0
   60.0309    6.2206    3.6750 C   0  0  0  0  0  0  0  0  0  0  0  0
   60.0511    4.9292    3.1718 C   0  0  0  0  0  0  0  0  0  0  0  0
   59.4041    2.6312    1.1770 C   0  0  0  0  0  0  0  0  0  0  0  0
   58.1153    3.2753    1.3576 C   0  0  0  0  0  0  0  0  0  0  0  0
   57.1810    2.3628    1.0191 C   0  0  0  0  0  0  0  0  0  0  0  0
   57.8990    1.1660    0.6298 C   0  0  0  0  0  0  0  0  0  0  0  0
   59.2312    1.3566    0.7326 N   0  0  0  0  0  0  0  0  0  0  0  0
   56.2079   -2.5174   -0.7555 H   0  0  0  0  0  0  0  0  0  0  0  0
   58.1203   -4.3009   -1.2984 H   0  0  0  0  0  0  0  0  0  0  0  0
   59.9459   -0.7590    0.0986 H   0  0  0  0  0  0  0  0  0  0  0  0
   61.9095   -4.2747   -2.9936 H   0  0  0  0  0  0  0  0  0  0  0  0
   61.9602   -6.6264   -3.7536 H   0  0  0  0  0  0  0  0  0  0  0  0
   61.3330   -8.7759   -3.2765 H   0  0  0  0  0  0  0  0  0  0  0  0
   59.7544   -7.8012   -0.2757 H   0  0  0  0  0  0  0  0  0  0  0  0
   59.7092   -5.4455    0.4910 H   0  0  0  0  0  0  0  0  0  0  0  0
   63.4234   -4.3619   -0.7979 H   0  0  0  0  0  0  0  0  0  0  0  0
   65.2821   -2.4935   -0.2856 H   0  0  0  0  0  0  0  0  0  0  0  0
   65.1922    2.6190    1.0760 H   0  0  0  0  0  0  0  0  0  0  0  0
   63.2823    4.3449    1.7689 H   0  0  0  0  0  0  0  0  0  0  0  0
   61.4528    0.7725    0.4556 H   0  0  0  0  0  0  0  0  0  0  0  0
   61.5321    5.5250    0.1844 H   0  0  0  0  0  0  0  0  0  0  0  0
   61.4966    7.8355    1.0789 H   0  0  0  0  0  0  0  0  0  0  0  0
   60.1475    8.6088    4.2458 H   0  0  0  0  0  0  0  0  0  0  0  0
   59.6116    6.4215    4.6550 H   0  0  0  0  0  0  0  0  0  0  0  0
   59.6535    4.1146    3.7668 H   0  0  0  0  0  0  0  0  0  0  0  0
   57.9673    4.2926    1.6818 H   0  0  0  0  0  0  0  0  0  0  0  0
   56.1080    2.4665    1.0254 H   0  0  0  0  0  0  0  0  0  0  0  0
   68.1776    0.1487   -0.0747 C   0  0  0  0  0  0  0  0  0  0  0  0
   68.7809   -1.0065   -0.6138 C   0  0  0  0  0  0  0  0  0  0  0  0
   68.1150   -2.1110   -1.2022 C   0  0  0  0  0  0  0  0  0  0  0  0
   69.0629   -3.0130   -1.6025 C   0  0  0  0  0  0  0  0  0  0  0  0
   70.3383   -2.4894   -1.2590 C   0  0  0  0  0  0  0  0  0  0  0  0
   70.1178   -1.2664   -0.6821 N   0  0  0  0  0  0  0  0  0  0  0  0
   71.5825   -3.1007   -1.4604 C   0  0  0  0  0  0  0  0  0  0  0  0
   71.5603   -4.4664   -2.0389 C   0  0  0  0  0  0  0  0  0  0  0  0
   72.2003   -4.7296   -3.2509 C   0  0  0  0  0  0  0  0  0  0  0  0
   72.1744   -5.9997   -3.8051 C   0  0  0  0  0  0  0  0  0  0  0  0
   71.5100   -7.0294   -3.1429 C   0  0  0  0  0  0  0  0  0  0  0  0
   71.4604   -8.2884   -3.6497 O   0  0  0  0  0  0  0  0  0  0  0  0
   70.8729   -6.7824   -1.9282 C   0  0  0  0  0  0  0  0  0  0  0  0
   70.8970   -5.5092   -1.3871 C   0  0  0  0  0  0  0  0  0  0  0  0
   72.8239   -2.5345   -1.1631 C   0  0  0  0  0  0  0  0  0  0  0  0
   74.0855   -3.2432   -1.2848 C   0  0  0  0  0  0  0  0  0  0  0  0
   75.0509   -2.3706   -0.9277 C   0  0  0  0  0  0  0  0  0  0  0  0
   73.0416   -1.2664   -0.7210 N   0  0  0  0  0  0  0  0  0  0  0  0
   74.3780   -1.1333   -0.5871 C   0  0  0  0  0  0  0  0  0  0  0  0
   75.0653    0.0369   -0.2152 C   0  0  0  0  0  0  0  0  0  0  0  0
   74.4681    1.2610    0.1370 C   0  0  0  0  0  0  0  0  0  0  0  0
   75.1416    2.4427    0.5411 C   0  0  0  0  0  0  0  0  0  0  0  0
   74.1956    3.3766    0.8644 C   0  0  0  0  0  0  0  0  0  0  0  0
   72.9154    2.7925    0.6628 C   0  0  0  0  0  0  0  0  0  0  0  0
   73.1311    1.5164    0.2166 N   0  0  0  0  0  0  0  0  0  0  0  0
   71.6705    3.3746    0.9311 C   0  0  0  0  0  0  0  0  0  0  0  0
   71.6964    4.7745    1.4262 C   0  0  0  0  0  0  0  0  0  0  0  0
   72.2073    5.8011    0.6285 C   0  0  0  0  0  0  0  0  0  0  0  0
   72.2371    7.1064    1.0867 C   0  0  0  0  0  0  0  0  0  0  0  0
   71.7603    7.4022    2.3624 C   0  0  0  0  0  0  0  0  0  0  0  0
   71.8099    8.6924    2.7829 O   0  0  0  0  0  0  0  0  0  0  0  0
   71.2519    6.3880    3.1706 C   0  0  0  0  0  0  0  0  0  0  0  0
   71.2191    5.0845    2.6998 C   0  0  0  0  0  0  0  0  0  0  0  0
   70.4307    2.7500    0.7886 C   0  0  0  0  0  0  0  0  0  0  0  0
   69.1661    3.4090    1.0576 C   0  0  0  0  0  0  0  0  0  0  0  0
   68.2014    2.5035    0.7955 C   0  0  0  0  0  0  0  0  0  0  0  0
   68.8729    1.3005    0.3499 C   0  0  0  0  0  0  0  0  0  0  0  0
   70.2105    1.4764    0.3569 N   0  0  0  0  0  0  0  0  0  0  0  0
   67.0481   -2.1905   -1.3255 H   0  0  0  0  0  0  0  0  0  0  0  0
   68.8938   -3.9514   -2.1047 H   0  0  0  0  0  0  0  0  0  0  0  0
   70.8485   -0.6438   -0.3542 H   0  0  0  0  0  0  0  0  0  0  0  0
   72.7072   -3.9261   -3.7735 H   0  0  0  0  0  0  0  0  0  0  0  0
   72.6663   -6.1958   -4.7519 H   0  0  0  0  0  0  0  0  0  0  0  0
   71.9348   -8.3484   -4.4898 H   0  0  0  0  0  0  0  0  0  0  0  0
   70.3657   -7.5938   -1.4211 H   0  0  0  0  0  0  0  0  0  0  0  0
   70.4124   -5.3214   -0.4354 H   0  0  0  0  0  0  0  0  0  0  0  0
   74.1948   -4.2732   -1.5836 H   0  0  0  0  0  0  0  0  0  0  0  0
   76.1173   -2.5255   -0.8894 H   0  0  0  0  0  0  0  0  0  0  0  0
   76.2129    2.5529    0.5887 H   0  0  0  0  0  0  0  0  0  0  0  0
   74.3680    4.3766    1.2274 H   0  0  0  0  0  0  0  0  0  0  0  0
   72.3979    0.8488    0.0015 H   0  0  0  0  0  0  0  0  0  0  0  0
   72.5679    5.5731   -0.3684 H   0  0  0  0  0  0  0  0  0  0  0  0
   72.6257    7.9055    0.4676 H   0  0  0  0  0  0  0  0  0  0  0  0
   71.4493    8.7865    3.6748 H   0  0  0  0  0  0  0  0  0  0  0  0
   70.8863    6.6219    4.1647 H   0  0  0  0  0  0  0  0  0  0  0  0
   70.8347    4.2939    3.3346 H   0  0  0  0  0  0  0  0  0  0  0  0
   69.0508    4.4292    1.3859 H   0  0  0  0  0  0  0  0  0  0  0  0
   67.1339    2.6233    0.8711 H   0  0  0  0  0  0  0  0  0  0  0  0
  1  2  4  0  0  0  0
  2  3  4  0  0  0  0
  3  4  2  0  0  0  0
  4  5  4  0  0  0  0
  2  6  4  0  0  0  0
  5  6  4  0  0  0  0
  5  7  4  0  0  0  0
  7  8  1  0  0  0  0
  8  9  4  0  0  0  0
  9 10  4  0  0  0  0
 10 11  4  0  0  0  0
 11 12  1  0  0  0  0
 11 13  4  0  0  0  0
  8 14  4  0  0  0  0
 13 14  4  0  0  0  0
  7 15  4  0  0  0  0
 15 16  1  0  0  0  0
 16 17  2  0  0  0  0
 15 18  4  0  0  0  0
 17 19  1  0  0  0  0
 18 19  4  0  0  0  0
 19 20  4  0  0  0  0
 20 21  4  0  0  0  0
 21 22  4  0  0  0  0
 22 23  2  0  0  0  0
 23 24  4  0  0  0  0
 21 25  4  0  0  0  0
 24 25  4  0  0  0  0
 24 26  4  0  0  0  0
 26 27  1  0  0  0  0
 27 28  4  0  0  0  0
 28 29  4  0  0  0  0
 29 30  4  0  0  0  0
 30 31  1  0  0  0  0
 30 32  4  0  0  0  0
 27 33  4  0  0  0  0
 32 33  4  0  0  0  0
 26 34  4  0  0  0  0
 34 35  1  0  0  0  0
 35 36  2  0  0  0  0
  1 37  4  0  0  0  0
 36 37  1  0  0  0  0
 34 38  4  0  0  0  0
 37 38  4  0  0  0  0
  1 39  1  0  0  0  0
  3 40  1  0  0  0  0
  4 41  1  0  0  0  0
  6 42  1  0  0  0  0
  9 43  1  0  0  0  0
 10 44  1  0  0  0  0
 12 45  1  0  0  0  0
 13 46  1  0  0  0  0
 14 47  1  0  0  0  0
 16 48  1  0  0  0  0
 17 49  1  0  0  0  0
 22 50  1  0  0  0  0
 23 51  1  0  0  0  0
 25 52  1  0  0  0  0
 28 53  1  0  0  0  0
 29 54  1  0  0  0  0
 31 55  1  0  0  0  0
 32 56  1  0  0  0  0
 33 57  1  0  0  0  0
 35 58  1  0  0  0  0
 36 59  1  0  0  0  0
 60 61  4  0  0  0  0
 61 62  4  0  0  0  0
 62 63  2  0  0  0  0
 63 64  4  0  0  0  0
 61 65  4  0  0  0  0
 64 65  4  0  0  0  0
 64 66  4  0  0  0  0
 66 67  1  0  0  0  0
 67 68  4  0  0  0  0
 68 69  4  0  0  0  0
 69 70  4  0  0  0  0
 70 71  1  0  0  0  0
 70 72  4  0  0  0  0
 67 73  4  0  0  0  0
 72 73  4  0  0  0  0
 66 74  4  0  0  0  0
 74 75  1  0  0  0  0
 75 76  2  0  0  0  0
 74 77  4  0  0  0  0
 76 78  1  0  0  0  0
 77 78  4  0  0  0  0
 78 79  4  0  0  0  0
 79 80  4  0  0  0  0
 80 81  4  0  0  0  0
 81 82  2  0  0  0  0
 82 83  4  0  0  0  0
 80 84  4  0  0  0  0
 83 84  4  0  0  0  0
 83 85  4  0  0  0  0
 85 86  1  0  0  0  0
 86 87  4  0  0  0  0
 87 88  4  0  0  0  0
 88 89  4  0  0  0  0
 89 90  1  0  0  0  0
 89 91  4  0  0  0  0
 86 92  4  0  0  0  0
 91 92  4  0  0  0  0
 85 93  4  0  0  0  0
 93 94  1  0  0  0  0
 94 95  2  0  0  0  0
 60 96  4  0  0  0  0
 95 96  1  0  0  0  0
 93 97  4  0  0  0  0
 96 97  4  0  0  0  0
 60 98  1  0  0  0  0
 62 99  1  0  0  0  0
 63100  1  0  0  0  0
 65101  1  0  0  0  0
 68102  1  0  0  0  0
 69103  1  0  0  0  0
 71104  1  0  0  0  0
 72105  1  0  0  0  0
 73106  1  0  0  0  0
 75107  1  0  0  0  0
 76108  1  0  0  0  0
 81109  1  0  0  0  0
 82110  1  0  0  0  0
 84111  1  0  0  0  0
 87112  1  0  0  0  0
 88113  1  0  0  0  0
 90114  1  0  0  0  0
 91115  1  0  0  0  0
 92116  1  0  0  0  0
 94117  1  0  0  0  0
 95118  1  0  0  0  0
 20119  4  0  0  0  0
119120  3  0  0  0  0
121122  3  0  0  0  0
 79124  4  0  0  0  0
123124  3  0  0  0  0
120125  4  0  0  0  0
125126  4  0  0  0  0
126127  4  0  0  0  0
127128  2  0  0  0  0
128129  4  0  0  0  0
126130  4  0  0  0  0
129130  4  0  0  0  0
129131  4  0  0  0  0
131132  1  0  0  0  0
132133  4  0  0  0  0
133134  4  0  0  0  0
134135  4  0  0  0  0
135136  1  0  0  0  0
135137  4  0  0  0  0
132138  4  0  0  0  0
137138  4  0  0  0  0
131139  4  0  0  0  0
139140  1  0  0  0  0
140141  2  0  0  0  0
139142  4  0  0  0  0
141143  1  0  0  0  0
142143  4  0  0  0  0
121144  4  0  0  0  0
143144  4  0  0  0  0
144145  4  0  0  0  0
145146  4  0  0  0  0
146147  2  0  0  0  0
147148  4  0  0  0  0
145149  4  0  0  0  0
148149  4  0  0  0  0
148150  4  0  0  0  0
150151  1  0  0  0  0
151152  4  0  0  0  0
152153  4  0  0  0  0
153154  4  0  0  0  0
154155  1  0  0  0  0
154156  4  0  0  0  0
151157  4  0  0  0  0
156157  4  0  0  0  0
150158  4  0  0  0  0
158159  1  0  0  0  0
159160  2  0  0  0  0
125161  4  0  0  0  0
160161  1  0  0  0  0
158162  4  0  0  0  0
161162  4  0  0  0  0
127163  1  0  0  0  0
128164  1  0  0  0  0
130165  1  0  0  0  0
133166  1  0  0  0  0
134167  1  0  0  0  0
136168  1  0  0  0  0
137169  1  0  0  0  0
138170  1  0  0  0  0
140171  1  0  0  0  0
141172  1  0  0  0  0
146173  1  0  0  0  0
147174  1  0  0  0  0
149175  1  0  0  0  0
152176  1  0  0  0  0
153177  1  0  0  0  0
155178  1  0  0  0  0
156179  1  0  0  0  0
157180  1  0  0  0  0
159181  1  0  0  0  0
160182  1  0  0  0  0
122183  4  0  0  0  0
183184  4  0  0  0  0
184185  4  0  0  0  0
185186  2  0  0  0  0
186187  4  0  0  0  0
184188  4  0  0  0  0
187188  4  0  0  0  0
187189  4  0  0  0  0
189190  1  0  0  0  0
190191  4  0  0  0  0
191192  4  0  0  0  0
192193  4  0  0  0  0
193194  1  0  0  0  0
193195  4  0  0  0  0
190196  4  0  0  0  0
195196  4  0  0  0  0
189197  4  0  0  0  0
197198  1  0  0  0  0
198199  2  0  0  0  0
197200  4  0  0  0  0
199201  1  0  0  0  0
200201  4  0  0  0  0
123202  4  0  0  0  0
201202  4  0  0  0  0
202203  4  0  0  0  0
203204  4  0  0  0  0
204205  2  0  0  0  0
205206  4  0  0  0  0
203207  4  0  0  0  0
206207  4  0  0  0  0
206208  4  0  0  0  0
208209  1  0  0  0  0
209210  4  0  0  0  0
210211  4  0  0  0  0
211212  4  0  0  0  0
212213  1  0  0  0  0
212214  4  0  0  0  0
209215  4  0  0  0  0
214215  4  0  0  0  0
208216  4  0  0  0  0
216217  1  0  0  0  0
217218  2  0  0  0  0
183219  4  0  0  0  0
218219  1  0  0  0  0
216220  4  0  0  0  0
219220  4  0  0  0  0
185221  1  0  0  0  0
186222  1  0  0  0  0
188223  1  0  0  0  0
191224  1  0  0  0  0
192225  1  0  0  0  0
194226  1  0  0  0  0
195227  1  0  0  0  0
196228  1  0  0  0  0
198229  1  0  0  0  0
199230  1  0  0  0  0
204231  1  0  0  0  0
205232  1  0  0  0  0
207233  1  0  0  0  0
210234  1  0  0  0  0
211235  1  0  0  0  0
213236  1  0  0  0  0
214237  1  0  0  0  0
215238  1  0  0  0  0
217239  1  0  0  0  0
218240  1  0  0  0  0
M  END
