 xtb: 6.5.1 (b24c23e)
          07302208593D

318357  0     0  0            999 V2000
   41.7464    0.0029   -0.0211 Cu  0  0  0  0  0  0  0  0  0  0  0  0
   38.3339    0.0868   -0.0467 C   0  0  0  0  0  0  0  0  0  0  0  0
   38.9846    1.2164    0.4278 C   0  0  0  0  0  0  0  0  0  0  0  0
   38.3295    2.4016    0.9050 C   0  0  0  0  0  0  0  0  0  0  0  0
   39.3031    3.2687    1.2792 C   0  0  0  0  0  0  0  0  0  0  0  0
   40.5619    2.6206    1.0323 C   0  0  0  0  0  0  0  0  0  0  0  0
   40.3380    1.3768    0.5158 N   0  0  0  0  0  0  0  0  0  0  0  0
   41.8121    3.1840    1.2849 C   0  0  0  0  0  0  0  0  0  0  0  0
   41.8458    4.5626    1.8554 C   0  0  0  0  0  0  0  0  0  0  0  0
   41.8433    5.6713    1.0041 C   0  0  0  0  0  0  0  0  0  0  0  0
   41.7992    5.4728   -0.4877 C   0  0  0  0  0  0  0  0  0  0  0  0
   41.8836    6.9500    1.5472 C   0  0  0  0  0  0  0  0  0  0  0  0
   41.9258    7.1406    2.9246 C   0  0  0  0  0  0  0  0  0  0  0  0
   41.9939    8.5300    3.4989 C   0  0  0  0  0  0  0  0  0  0  0  0
   41.9270    6.0302    3.7623 C   0  0  0  0  0  0  0  0  0  0  0  0
   41.8871    4.7423    3.2408 C   0  0  0  0  0  0  0  0  0  0  0  0
   41.8901    3.5452    4.1539 C   0  0  0  0  0  0  0  0  0  0  0  0
   43.0364    2.5621    1.0483 C   0  0  0  0  0  0  0  0  0  0  0  0
   44.3171    3.1560    1.3072 C   0  0  0  0  0  0  0  0  0  0  0  0
   45.2570    2.2451    0.9477 C   0  0  0  0  0  0  0  0  0  0  0  0
   43.2155    1.3037    0.5371 N   0  0  0  0  0  0  0  0  0  0  0  0
   44.5574    1.0904    0.4677 C   0  0  0  0  0  0  0  0  0  0  0  0
   45.1817   -0.0788   -0.0021 C   0  0  0  0  0  0  0  0  0  0  0  0
   44.5081   -1.2183   -0.4758 C   0  0  0  0  0  0  0  0  0  0  0  0
   45.1573   -2.4064   -0.9448 C   0  0  0  0  0  0  0  0  0  0  0  0
   44.1792   -3.2734   -1.3111 C   0  0  0  0  0  0  0  0  0  0  0  0
   42.9253   -2.6181   -1.0689 C   0  0  0  0  0  0  0  0  0  0  0  0
   43.1584   -1.3681   -0.5593 N   0  0  0  0  0  0  0  0  0  0  0  0
   41.6755   -3.1807   -1.3204 C   0  0  0  0  0  0  0  0  0  0  0  0
   41.6491   -4.5619   -1.8849 C   0  0  0  0  0  0  0  0  0  0  0  0
   41.7094   -4.7508   -3.2692 C   0  0  0  0  0  0  0  0  0  0  0  0
   41.7936   -3.5601   -4.1867 C   0  0  0  0  0  0  0  0  0  0  0  0
   41.6933   -6.0410   -3.7837 C   0  0  0  0  0  0  0  0  0  0  0  0
   41.6190   -7.1465   -2.9409 C   0  0  0  0  0  0  0  0  0  0  0  0
   41.5998   -8.5348   -3.5215 C   0  0  0  0  0  0  0  0  0  0  0  0
   41.5575   -6.9470   -1.5667 C   0  0  0  0  0  0  0  0  0  0  0  0
   41.5722   -5.6641   -1.0298 C   0  0  0  0  0  0  0  0  0  0  0  0
   41.5103   -5.4566    0.4602 C   0  0  0  0  0  0  0  0  0  0  0  0
   40.4510   -2.5556   -1.0881 C   0  0  0  0  0  0  0  0  0  0  0  0
   39.1657   -3.1410   -1.3548 C   0  0  0  0  0  0  0  0  0  0  0  0
   38.2303   -2.2259   -0.9975 C   0  0  0  0  0  0  0  0  0  0  0  0
   38.9355   -1.0739   -0.5107 C   0  0  0  0  0  0  0  0  0  0  0  0
   40.2806   -1.3011   -0.5769 N   0  0  0  0  0  0  0  0  0  0  0  0
   37.2491    0.1137   -0.0553 H   0  0  0  0  0  0  0  0  0  0  0  0
   37.2601    2.5382    0.9435 H   0  0  0  0  0  0  0  0  0  0  0  0
   39.1933    4.2606    1.6880 H   0  0  0  0  0  0  0  0  0  0  0  0
   40.8869    4.9453   -0.7729 H   0  0  0  0  0  0  0  0  0  0  0  0
   42.6488    4.8706   -0.8152 H   0  0  0  0  0  0  0  0  0  0  0  0
   41.8267    6.4294   -1.0088 H   0  0  0  0  0  0  0  0  0  0  0  0
   41.8823    7.8106    0.8862 H   0  0  0  0  0  0  0  0  0  0  0  0
   41.5624    8.5590    4.4997 H   0  0  0  0  0  0  0  0  0  0  0  0
   43.0355    8.8523    3.5684 H   0  0  0  0  0  0  0  0  0  0  0  0
   41.4621    9.2392    2.8640 H   0  0  0  0  0  0  0  0  0  0  0  0
   41.9591    6.1692    4.8380 H   0  0  0  0  0  0  0  0  0  0  0  0
   42.7731    2.9305    3.9687 H   0  0  0  0  0  0  0  0  0  0  0  0
   41.8922    3.8526    5.1992 H   0  0  0  0  0  0  0  0  0  0  0  0
   41.0092    2.9268    3.9718 H   0  0  0  0  0  0  0  0  0  0  0  0
   44.4669    4.1447    1.7106 H   0  0  0  0  0  0  0  0  0  0  0  0
   46.3302    2.3367    0.9985 H   0  0  0  0  0  0  0  0  0  0  0  0
   46.2256   -2.5485   -0.9832 H   0  0  0  0  0  0  0  0  0  0  0  0
   44.2861   -4.2698   -1.7090 H   0  0  0  0  0  0  0  0  0  0  0  0
   40.9407   -2.8977   -4.0279 H   0  0  0  0  0  0  0  0  0  0  0  0
   41.8047   -3.8728   -5.2304 H   0  0  0  0  0  0  0  0  0  0  0  0
   42.7016   -2.9891   -3.9833 H   0  0  0  0  0  0  0  0  0  0  0  0
   41.7414   -6.1887   -4.8577 H   0  0  0  0  0  0  0  0  0  0  0  0
   42.4363   -8.6724   -4.2086 H   0  0  0  0  0  0  0  0  0  0  0  0
   41.6644   -9.2882   -2.7365 H   0  0  0  0  0  0  0  0  0  0  0  0
   40.6759   -8.6961   -4.0807 H   0  0  0  0  0  0  0  0  0  0  0  0
   41.4998   -7.8019   -0.9010 H   0  0  0  0  0  0  0  0  0  0  0  0
   40.6232   -4.8785    0.7258 H   0  0  0  0  0  0  0  0  0  0  0  0
   42.3853   -4.9005    0.8020 H   0  0  0  0  0  0  0  0  0  0  0  0
   41.4751   -6.4108    0.9851 H   0  0  0  0  0  0  0  0  0  0  0  0
   39.0134   -4.1268   -1.7648 H   0  0  0  0  0  0  0  0  0  0  0  0
   37.1562   -2.3093   -1.0535 H   0  0  0  0  0  0  0  0  0  0  0  0
   97.6138   -0.0235   -0.0537 Cu  0  0  0  0  0  0  0  0  0  0  0  0
  101.0269   -0.0785   -0.0940 C   0  0  0  0  0  0  0  0  0  0  0  0
  100.3771   -1.2197   -0.5414 C   0  0  0  0  0  0  0  0  0  0  0  0
  101.0330   -2.4078   -1.0101 C   0  0  0  0  0  0  0  0  0  0  0  0
  100.0598   -3.2886   -1.3520 C   0  0  0  0  0  0  0  0  0  0  0  0
   98.8005   -2.6448   -1.0967 C   0  0  0  0  0  0  0  0  0  0  0  0
   99.0237   -1.3909   -0.6048 N   0  0  0  0  0  0  0  0  0  0  0  0
   97.5503   -3.2196   -1.3220 C   0  0  0  0  0  0  0  0  0  0  0  0
   97.5169   -4.6098   -1.8637 C   0  0  0  0  0  0  0  0  0  0  0  0
   97.5330   -4.8222   -3.2452 C   0  0  0  0  0  0  0  0  0  0  0  0
   97.5917   -3.6474   -4.1849 C   0  0  0  0  0  0  0  0  0  0  0  0
   97.4924   -6.1214   -3.7374 C   0  0  0  0  0  0  0  0  0  0  0  0
   97.4366   -7.2113   -2.8746 C   0  0  0  0  0  0  0  0  0  0  0  0
   97.3683   -8.6120   -3.4204 C   0  0  0  0  0  0  0  0  0  0  0  0
   97.4221   -6.9882   -1.5017 C   0  0  0  0  0  0  0  0  0  0  0  0
   97.4620   -5.6973   -0.9875 C   0  0  0  0  0  0  0  0  0  0  0  0
   97.4448   -5.4641    0.4998 C   0  0  0  0  0  0  0  0  0  0  0  0
   96.3257   -2.6005   -1.0802 C   0  0  0  0  0  0  0  0  0  0  0  0
   95.0455   -3.2009   -1.3256 C   0  0  0  0  0  0  0  0  0  0  0  0
   94.1048   -2.2912   -0.9652 C   0  0  0  0  0  0  0  0  0  0  0  0
   96.1455   -1.3391   -0.5768 N   0  0  0  0  0  0  0  0  0  0  0  0
   94.8034   -1.1312   -0.4969 C   0  0  0  0  0  0  0  0  0  0  0  0
   94.1778    0.0354   -0.0222 C   0  0  0  0  0  0  0  0  0  0  0  0
   94.8505    1.1786    0.4439 C   0  0  0  0  0  0  0  0  0  0  0  0
   94.2005    2.3587    0.9317 C   0  0  0  0  0  0  0  0  0  0  0  0
   95.1781    3.2326    1.2825 C   0  0  0  0  0  0  0  0  0  0  0  0
   96.4326    2.5909    1.0090 C   0  0  0  0  0  0  0  0  0  0  0  0
   96.2003    1.3402    0.5006 N   0  0  0  0  0  0  0  0  0  0  0  0
   97.6823    3.1665    1.2294 C   0  0  0  0  0  0  0  0  0  0  0  0
   97.7088    4.5513    1.7851 C   0  0  0  0  0  0  0  0  0  0  0  0
   97.6550    5.6500    0.9216 C   0  0  0  0  0  0  0  0  0  0  0  0
   97.5773    5.4326   -0.5662 C   0  0  0  0  0  0  0  0  0  0  0  0
   97.6719    6.9349    1.4492 C   0  0  0  0  0  0  0  0  0  0  0  0
   97.7405    7.1429    2.8241 C   0  0  0  0  0  0  0  0  0  0  0  0
   97.7604    8.5442    3.3725 C   0  0  0  0  0  0  0  0  0  0  0  0
   97.7958    6.0436    3.6728 C   0  0  0  0  0  0  0  0  0  0  0  0
   97.7804    4.7484    3.1664 C   0  0  0  0  0  0  0  0  0  0  0  0
   97.8364    3.5632    4.0931 C   0  0  0  0  0  0  0  0  0  0  0  0
   98.9073    2.5529    0.9702 C   0  0  0  0  0  0  0  0  0  0  0  0
  100.1923    3.1559    1.1956 C   0  0  0  0  0  0  0  0  0  0  0  0
  101.1285    2.2468    0.8255 C   0  0  0  0  0  0  0  0  0  0  0  0
  100.4241    1.0816    0.3700 C   0  0  0  0  0  0  0  0  0  0  0  0
   99.0786    1.2950    0.4677 N   0  0  0  0  0  0  0  0  0  0  0  0
  102.1118   -0.0954   -0.1072 H   0  0  0  0  0  0  0  0  0  0  0  0
  102.1026   -2.5373   -1.0641 H   0  0  0  0  0  0  0  0  0  0  0  0
  100.1702   -4.2877   -1.7429 H   0  0  0  0  0  0  0  0  0  0  0  0
   98.5026   -3.0705   -4.0136 H   0  0  0  0  0  0  0  0  0  0  0  0
   96.7407   -2.9847   -4.0165 H   0  0  0  0  0  0  0  0  0  0  0  0
   97.5778   -3.9779   -5.2231 H   0  0  0  0  0  0  0  0  0  0  0  0
   97.5042   -6.2861   -4.8099 H   0  0  0  0  0  0  0  0  0  0  0  0
   97.7978   -9.3252   -2.7165 H   0  0  0  0  0  0  0  0  0  0  0  0
   96.3268   -8.8920   -3.5949 H   0  0  0  0  0  0  0  0  0  0  0  0
   97.9020   -8.6860   -4.3684 H   0  0  0  0  0  0  0  0  0  0  0  0
   97.3794   -7.8321   -0.8209 H   0  0  0  0  0  0  0  0  0  0  0  0
   96.5644   -4.8832    0.7816 H   0  0  0  0  0  0  0  0  0  0  0  0
   97.4274   -6.4091    1.0419 H   0  0  0  0  0  0  0  0  0  0  0  0
   98.3281   -4.9005    0.8058 H   0  0  0  0  0  0  0  0  0  0  0  0
   94.8965   -4.1916   -1.7243 H   0  0  0  0  0  0  0  0  0  0  0  0
   93.0316   -2.3872   -1.0080 H   0  0  0  0  0  0  0  0  0  0  0  0
   93.1320    2.4904    0.9940 H   0  0  0  0  0  0  0  0  0  0  0  0
   95.0705    4.2243    1.6919 H   0  0  0  0  0  0  0  0  0  0  0  0
   98.4295    4.8424   -0.9083 H   0  0  0  0  0  0  0  0  0  0  0  0
   97.5728    6.3830   -1.0990 H   0  0  0  0  0  0  0  0  0  0  0  0
   96.6683    4.8845   -0.8215 H   0  0  0  0  0  0  0  0  0  0  0  0
   97.6289    7.7881    0.7800 H   0  0  0  0  0  0  0  0  0  0  0  0
   96.9253    9.1218    2.9729 H   0  0  0  0  0  0  0  0  0  0  0  0
   97.6936    8.5395    4.4604 H   0  0  0  0  0  0  0  0  0  0  0  0
   98.6854    9.0480    3.0846 H   0  0  0  0  0  0  0  0  0  0  0  0
   97.8493    6.1948    4.7460 H   0  0  0  0  0  0  0  0  0  0  0  0
   98.7264    2.9647    3.8894 H   0  0  0  0  0  0  0  0  0  0  0  0
   96.9638    2.9242    3.9447 H   0  0  0  0  0  0  0  0  0  0  0  0
   97.8625    3.8838    5.1342 H   0  0  0  0  0  0  0  0  0  0  0  0
  100.3440    4.1496    1.5863 H   0  0  0  0  0  0  0  0  0  0  0  0
  102.2027    2.3427    0.8525 H   0  0  0  0  0  0  0  0  0  0  0  0
   46.5870   -0.1084    0.0011 C   0  0  0  0  0  0  0  0  0  0  0  0
   47.8110   -0.1251    0.0042 C   0  0  0  0  0  0  0  0  0  0  0  0
   49.1539   -0.1400    0.0053 C   0  0  0  0  0  0  0  0  0  0  0  0
   50.3842   -0.1467    0.0060 C   0  0  0  0  0  0  0  0  0  0  0  0
   51.7223   -0.1508    0.0013 C   0  0  0  0  0  0  0  0  0  0  0  0
   52.9527   -0.1463   -0.0008 C   0  0  0  0  0  0  0  0  0  0  0  0
   54.2954   -0.1390   -0.0051 C   0  0  0  0  0  0  0  0  0  0  0  0
   55.5198   -0.1294   -0.0114 C   0  0  0  0  0  0  0  0  0  0  0  0
   65.2123   -0.0294   -0.0428 C   0  0  0  0  0  0  0  0  0  0  0  0
   66.4372   -0.0217   -0.0441 C   0  0  0  0  0  0  0  0  0  0  0  0
   67.7793   -0.0158   -0.0464 C   0  0  0  0  0  0  0  0  0  0  0  0
   69.0102   -0.0128   -0.0455 C   0  0  0  0  0  0  0  0  0  0  0  0
   70.3476   -0.0107   -0.0441 C   0  0  0  0  0  0  0  0  0  0  0  0
   71.5786   -0.0130   -0.0420 C   0  0  0  0  0  0  0  0  0  0  0  0
   72.9207   -0.0134   -0.0396 C   0  0  0  0  0  0  0  0  0  0  0  0
   74.1456   -0.0161   -0.0371 C   0  0  0  0  0  0  0  0  0  0  0  0
   83.8392    0.0300   -0.0180 C   0  0  0  0  0  0  0  0  0  0  0  0
   85.0635    0.0427   -0.0189 C   0  0  0  0  0  0  0  0  0  0  0  0
   86.4063    0.0528   -0.0165 C   0  0  0  0  0  0  0  0  0  0  0  0
   87.6367    0.0567   -0.0115 C   0  0  0  0  0  0  0  0  0  0  0  0
   88.9748    0.0602   -0.0105 C   0  0  0  0  0  0  0  0  0  0  0  0
   90.2052    0.0650   -0.0097 C   0  0  0  0  0  0  0  0  0  0  0  0
   91.5482    0.0614   -0.0116 C   0  0  0  0  0  0  0  0  0  0  0  0
   92.7724    0.0567   -0.0123 C   0  0  0  0  0  0  0  0  0  0  0  0
   60.3663   -0.0737   -0.0281 Cu  0  0  0  0  0  0  0  0  0  0  0  0
   56.9244   -0.1150   -0.0163 C   0  0  0  0  0  0  0  0  0  0  0  0
   57.5765    0.0458    1.2198 C   0  0  0  0  0  0  0  0  0  0  0  0
   56.9051    0.1960    2.4765 C   0  0  0  0  0  0  0  0  0  0  0  0
   57.8673    0.3201    3.4263 C   0  0  0  0  0  0  0  0  0  0  0  0
   59.1324    0.2448    2.7535 C   0  0  0  0  0  0  0  0  0  0  0  0
   58.9227    0.0792    1.4104 N   0  0  0  0  0  0  0  0  0  0  0  0
   60.3729    0.3258    3.3841 C   0  0  0  0  0  0  0  0  0  0  0  0
   60.3715    0.5007    4.8663 C   0  0  0  0  0  0  0  0  0  0  0  0
   60.4092    1.7845    5.4171 C   0  0  0  0  0  0  0  0  0  0  0  0
   60.4604    2.9884    4.5145 C   0  0  0  0  0  0  0  0  0  0  0  0
   60.3963    1.9361    6.7990 C   0  0  0  0  0  0  0  0  0  0  0  0
   60.3455    0.8287    7.6388 C   0  0  0  0  0  0  0  0  0  0  0  0
   60.3468    1.0010    9.1338 C   0  0  0  0  0  0  0  0  0  0  0  0
   60.3114   -0.4448    7.0794 C   0  0  0  0  0  0  0  0  0  0  0  0
   60.3231   -0.6198    5.7009 C   0  0  0  0  0  0  0  0  0  0  0  0
   60.2812   -2.0008    5.1028 C   0  0  0  0  0  0  0  0  0  0  0  0
   61.6108    0.2567    2.7478 C   0  0  0  0  0  0  0  0  0  0  0  0
   62.8785    0.3355    3.4150 C   0  0  0  0  0  0  0  0  0  0  0  0
   63.8369    0.2329    2.4586 C   0  0  0  0  0  0  0  0  0  0  0  0
   61.8154    0.1065    1.4017 N   0  0  0  0  0  0  0  0  0  0  0  0
   63.1605    0.0908    1.2035 C   0  0  0  0  0  0  0  0  0  0  0  0
   63.8083   -0.0400   -0.0391 C   0  0  0  0  0  0  0  0  0  0  0  0
   63.1554   -0.1803   -1.2780 C   0  0  0  0  0  0  0  0  0  0  0  0
   63.8263   -0.3038   -2.5378 C   0  0  0  0  0  0  0  0  0  0  0  0
   62.8641   -0.4195   -3.4888 C   0  0  0  0  0  0  0  0  0  0  0  0
   61.5993   -0.3691   -2.8133 C   0  0  0  0  0  0  0  0  0  0  0  0
   61.8095   -0.2210   -1.4678 N   0  0  0  0  0  0  0  0  0  0  0  0
   60.3588   -0.4618   -3.4418 C   0  0  0  0  0  0  0  0  0  0  0  0
   60.3508   -0.6259   -4.9251 C   0  0  0  0  0  0  0  0  0  0  0  0
   60.2592    0.4987   -5.7504 C   0  0  0  0  0  0  0  0  0  0  0  0
   60.1783    1.8733   -5.1414 C   0  0  0  0  0  0  0  0  0  0  0  0
   60.2408    0.3340   -7.1302 C   0  0  0  0  0  0  0  0  0  0  0  0
   60.3104   -0.9333   -7.7000 C   0  0  0  0  0  0  0  0  0  0  0  0
   60.3041   -1.0952   -9.1962 C   0  0  0  0  0  0  0  0  0  0  0  0
   60.4042   -2.0449   -6.8694 C   0  0  0  0  0  0  0  0  0  0  0  0
   60.4246   -1.9037   -5.4866 C   0  0  0  0  0  0  0  0  0  0  0  0
   60.5206   -3.1124   -4.5942 C   0  0  0  0  0  0  0  0  0  0  0  0
   59.1212   -0.4140   -2.8020 C   0  0  0  0  0  0  0  0  0  0  0  0
   57.8537   -0.5189   -3.4663 C   0  0  0  0  0  0  0  0  0  0  0  0
   56.8955   -0.4228   -2.5092 C   0  0  0  0  0  0  0  0  0  0  0  0
   57.5717   -0.2592   -1.2569 C   0  0  0  0  0  0  0  0  0  0  0  0
   58.9169   -0.2586   -1.4569 N   0  0  0  0  0  0  0  0  0  0  0  0
   55.8345    0.2045    2.6049 H   0  0  0  0  0  0  0  0  0  0  0  0
   57.7416    0.4523    4.4890 H   0  0  0  0  0  0  0  0  0  0  0  0
   61.3691    2.9693    3.9097 H   0  0  0  0  0  0  0  0  0  0  0  0
   60.4469    3.9107    5.0945 H   0  0  0  0  0  0  0  0  0  0  0  0
   59.6069    2.9892    3.8341 H   0  0  0  0  0  0  0  0  0  0  0  0
   60.4230    2.9333    7.2260 H   0  0  0  0  0  0  0  0  0  0  0  0
   61.3642    0.9006    9.5191 H   0  0  0  0  0  0  0  0  0  0  0  0
   59.7283    0.2405    9.6116 H   0  0  0  0  0  0  0  0  0  0  0  0
   59.9730    1.9863    9.4128 H   0  0  0  0  0  0  0  0  0  0  0  0
   60.2721   -1.3144    7.7274 H   0  0  0  0  0  0  0  0  0  0  0  0
   59.3835   -2.1222    4.4934 H   0  0  0  0  0  0  0  0  0  0  0  0
   61.1467   -2.1610    4.4571 H   0  0  0  0  0  0  0  0  0  0  0  0
   60.2795   -2.7627    5.8818 H   0  0  0  0  0  0  0  0  0  0  0  0
   63.0081    0.4525    4.4790 H   0  0  0  0  0  0  0  0  0  0  0  0
   64.9080    0.2507    2.5815 H   0  0  0  0  0  0  0  0  0  0  0  0
   64.8969   -0.3003   -2.6673 H   0  0  0  0  0  0  0  0  0  0  0  0
   62.9889   -0.5281   -4.5543 H   0  0  0  0  0  0  0  0  0  0  0  0
   59.2802    1.9627   -4.5270 H   0  0  0  0  0  0  0  0  0  0  0  0
   60.1494    2.6404   -5.9146 H   0  0  0  0  0  0  0  0  0  0  0  0
   61.0415    2.0550   -4.4986 H   0  0  0  0  0  0  0  0  0  0  0  0
   60.1678    1.2069   -7.7707 H   0  0  0  0  0  0  0  0  0  0  0  0
   59.9259   -2.0775   -9.4798 H   0  0  0  0  0  0  0  0  0  0  0  0
   61.3200   -0.9961   -9.5855 H   0  0  0  0  0  0  0  0  0  0  0  0
   59.6859   -0.3297   -9.6661 H   0  0  0  0  0  0  0  0  0  0  0  0
   60.4587   -3.0374   -7.3046 H   0  0  0  0  0  0  0  0  0  0  0  0
   60.5373   -4.0298   -5.1817 H   0  0  0  0  0  0  0  0  0  0  0  0
   59.6696   -3.1484   -3.9115 H   0  0  0  0  0  0  0  0  0  0  0  0
   61.4298   -3.0669   -3.9916 H   0  0  0  0  0  0  0  0  0  0  0  0
   57.7239   -0.6510   -4.5285 H   0  0  0  0  0  0  0  0  0  0  0  0
   55.8245   -0.4583   -2.6300 H   0  0  0  0  0  0  0  0  0  0  0  0
   78.9920   -0.0059   -0.0260 Cu  0  0  0  0  0  0  0  0  0  0  0  0
   75.5497   -0.0154   -0.0336 C   0  0  0  0  0  0  0  0  0  0  0  0
   76.1967    0.1275    1.2080 C   0  0  0  0  0  0  0  0  0  0  0  0
   75.5199    0.2708    2.4626 C   0  0  0  0  0  0  0  0  0  0  0  0
   76.4779    0.3769    3.4190 C   0  0  0  0  0  0  0  0  0  0  0  0
   77.7459    0.2989    2.7522 C   0  0  0  0  0  0  0  0  0  0  0  0
   77.5418    0.1478    1.4062 N   0  0  0  0  0  0  0  0  0  0  0  0
   78.9837    0.3677    3.3890 C   0  0  0  0  0  0  0  0  0  0  0  0
   78.9837    0.5279    4.8728 C   0  0  0  0  0  0  0  0  0  0  0  0
   79.0321    1.8059    5.4363 C   0  0  0  0  0  0  0  0  0  0  0  0
   79.0770    3.0188    4.5455 C   0  0  0  0  0  0  0  0  0  0  0  0
   79.0379    1.9432    6.8197 C   0  0  0  0  0  0  0  0  0  0  0  0
   78.9957    0.8274    7.6487 C   0  0  0  0  0  0  0  0  0  0  0  0
   79.0247    0.9839    9.1451 C   0  0  0  0  0  0  0  0  0  0  0  0
   78.9468   -0.4401    7.0767 C   0  0  0  0  0  0  0  0  0  0  0  0
   78.9398   -0.6009    5.6963 C   0  0  0  0  0  0  0  0  0  0  0  0
   78.8862   -1.9756    5.0848 C   0  0  0  0  0  0  0  0  0  0  0  0
   80.2244    0.3012    2.7572 C   0  0  0  0  0  0  0  0  0  0  0  0
   81.4892    0.3736    3.4310 C   0  0  0  0  0  0  0  0  0  0  0  0
   82.4519    0.2787    2.4784 C   0  0  0  0  0  0  0  0  0  0  0  0
   80.4350    0.1616    1.4112 N   0  0  0  0  0  0  0  0  0  0  0  0
   81.7812    0.1463    1.2193 C   0  0  0  0  0  0  0  0  0  0  0  0
   82.4344    0.0181   -0.0201 C   0  0  0  0  0  0  0  0  0  0  0  0
   81.7878   -0.1246   -1.2613 C   0  0  0  0  0  0  0  0  0  0  0  0
   82.4647   -0.2572   -2.5170 C   0  0  0  0  0  0  0  0  0  0  0  0
   81.5068   -0.3751   -3.4719 C   0  0  0  0  0  0  0  0  0  0  0  0
   80.2388   -0.3148   -2.8030 C   0  0  0  0  0  0  0  0  0  0  0  0
   80.4426   -0.1609   -1.4576 N   0  0  0  0  0  0  0  0  0  0  0  0
   79.0012   -0.4017   -3.4385 C   0  0  0  0  0  0  0  0  0  0  0  0
   79.0085   -0.5828   -4.9199 C   0  0  0  0  0  0  0  0  0  0  0  0
   78.9458    0.5320   -5.7610 C   0  0  0  0  0  0  0  0  0  0  0  0
   78.8662    1.9149   -5.1711 C   0  0  0  0  0  0  0  0  0  0  0  0
   78.9589    0.3499   -7.1387 C   0  0  0  0  0  0  0  0  0  0  0  0
   79.0324   -0.9251   -7.6908 C   0  0  0  0  0  0  0  0  0  0  0  0
   79.0681   -1.1056   -9.1844 C   0  0  0  0  0  0  0  0  0  0  0  0
   79.0940   -2.0270   -6.8444 C   0  0  0  0  0  0  0  0  0  0  0  0
   79.0825   -1.8683   -5.4634 C   0  0  0  0  0  0  0  0  0  0  0  0
   79.1483   -3.0662   -4.5539 C   0  0  0  0  0  0  0  0  0  0  0  0
   77.7604   -0.3365   -2.8073 C   0  0  0  0  0  0  0  0  0  0  0  0
   76.4958   -0.4277   -3.4789 C   0  0  0  0  0  0  0  0  0  0  0  0
   75.5329   -0.3169   -2.5279 C   0  0  0  0  0  0  0  0  0  0  0  0
   76.2033   -0.1601   -1.2715 C   0  0  0  0  0  0  0  0  0  0  0  0
   77.5495   -0.1749   -1.4635 N   0  0  0  0  0  0  0  0  0  0  0  0
   74.4487    0.2868    2.5854 H   0  0  0  0  0  0  0  0  0  0  0  0
   76.3479    0.4990    4.4824 H   0  0  0  0  0  0  0  0  0  0  0  0
   79.9717    2.9966    3.9204 H   0  0  0  0  0  0  0  0  0  0  0  0
   79.0861    3.9350    5.1353 H   0  0  0  0  0  0  0  0  0  0  0  0
   78.2086    3.0360    3.8843 H   0  0  0  0  0  0  0  0  0  0  0  0
   79.0752    2.9358    7.2566 H   0  0  0  0  0  0  0  0  0  0  0  0
   80.0480    0.8708    9.5108 H   0  0  0  0  0  0  0  0  0  0  0  0
   78.4086    0.2235    9.6261 H   0  0  0  0  0  0  0  0  0  0  0  0
   78.6646    1.9692    9.4411 H   0  0  0  0  0  0  0  0  0  0  0  0
   78.9132   -1.3162    7.7161 H   0  0  0  0  0  0  0  0  0  0  0  0
   77.9846   -2.0854    4.4789 H   0  0  0  0  0  0  0  0  0  0  0  0
   79.7473   -2.1346    4.4330 H   0  0  0  0  0  0  0  0  0  0  0  0
   78.8840   -2.7450    5.8562 H   0  0  0  0  0  0  0  0  0  0  0  0
   81.6140    0.4815    4.4965 H   0  0  0  0  0  0  0  0  0  0  0  0
   83.5225    0.2945    2.6062 H   0  0  0  0  0  0  0  0  0  0  0  0
   83.5358   -0.2587   -2.6413 H   0  0  0  0  0  0  0  0  0  0  0  0
   81.6370   -0.4905   -4.5360 H   0  0  0  0  0  0  0  0  0  0  0  0
   77.9591    2.0197   -4.5726 H   0  0  0  0  0  0  0  0  0  0  0  0
   78.8565    2.6723   -5.9544 H   0  0  0  0  0  0  0  0  0  0  0  0
   79.7205    2.0978   -4.5166 H   0  0  0  0  0  0  0  0  0  0  0  0
   78.9105    1.2152   -7.7917 H   0  0  0  0  0  0  0  0  0  0  0  0
   78.7015   -2.0928   -9.4663 H   0  0  0  0  0  0  0  0  0  0  0  0
   80.0943   -1.0073   -9.5460 H   0  0  0  0  0  0  0  0  0  0  0  0
   78.4609   -0.3482   -9.6811 H   0  0  0  0  0  0  0  0  0  0  0  0
   79.1508   -3.0254   -7.2656 H   0  0  0  0  0  0  0  0  0  0  0  0
   79.1743   -3.9911   -5.1293 H   0  0  0  0  0  0  0  0  0  0  0  0
   78.2801   -3.0886   -3.8926 H   0  0  0  0  0  0  0  0  0  0  0  0
   80.0422   -3.0184   -3.9290 H   0  0  0  0  0  0  0  0  0  0  0  0
   76.3712   -0.5608   -4.5416 H   0  0  0  0  0  0  0  0  0  0  0  0
   74.4624   -0.3395   -2.6552 H   0  0  0  0  0  0  0  0  0  0  0  0
  2  3  4  0  0  0  0
  3  4  1  0  0  0  0
  4  5  2  0  0  0  0
  5  6  4  0  0  0  0
  1  7  1  0  0  0  0
  3  7  4  0  0  0  0
  6  7  4  0  0  0  0
  6  8  4  0  0  0  0
  8  9  1  0  0  0  0
  9 10  4  0  0  0  0
 10 11  1  0  0  0  0
 10 12  4  0  0  0  0
 12 13  4  0  0  0  0
 13 14  1  0  0  0  0
 13 15  4  0  0  0  0
  9 16  4  0  0  0  0
 15 16  4  0  0  0  0
 16 17  1  0  0  0  0
  8 18  4  0  0  0  0
 18 19  4  0  0  0  0
 19 20  2  0  0  0  0
  1 21  1  0  0  0  0
 18 21  4  0  0  0  0
 20 22  4  0  0  0  0
 21 22  4  0  0  0  0
 22 23  4  0  0  0  0
 23 24  4  0  0  0  0
 24 25  4  0  0  0  0
 25 26  2  0  0  0  0
 26 27  4  0  0  0  0
  1 28  1  0  0  0  0
 24 28  4  0  0  0  0
 27 28  4  0  0  0  0
 27 29  4  0  0  0  0
 29 30  1  0  0  0  0
 30 31  4  0  0  0  0
 31 32  1  0  0  0  0
 31 33  4  0  0  0  0
 33 34  4  0  0  0  0
 34 35  1  0  0  0  0
 34 36  4  0  0  0  0
 30 37  4  0  0  0  0
 36 37  4  0  0  0  0
 37 38  1  0  0  0  0
 29 39  4  0  0  0  0
 39 40  4  0  0  0  0
 40 41  2  0  0  0  0
  2 42  4  0  0  0  0
 41 42  1  0  0  0  0
  1 43  1  0  0  0  0
 39 43  4  0  0  0  0
 42 43  4  0  0  0  0
  2 44  1  0  0  0  0
  4 45  1  0  0  0  0
  5 46  1  0  0  0  0
 11 47  1  0  0  0  0
 11 48  1  0  0  0  0
 11 49  1  0  0  0  0
 12 50  1  0  0  0  0
 14 51  1  0  0  0  0
 14 52  1  0  0  0  0
 14 53  1  0  0  0  0
 15 54  1  0  0  0  0
 17 55  1  0  0  0  0
 17 56  1  0  0  0  0
 17 57  1  0  0  0  0
 19 58  1  0  0  0  0
 20 59  1  0  0  0  0
 25 60  1  0  0  0  0
 26 61  1  0  0  0  0
 32 62  1  0  0  0  0
 32 63  1  0  0  0  0
 32 64  1  0  0  0  0
 33 65  1  0  0  0  0
 35 66  1  0  0  0  0
 35 67  1  0  0  0  0
 35 68  1  0  0  0  0
 36 69  1  0  0  0  0
 38 70  1  0  0  0  0
 38 71  1  0  0  0  0
 38 72  1  0  0  0  0
 40 73  1  0  0  0  0
 41 74  1  0  0  0  0
 76 77  4  0  0  0  0
 77 78  1  0  0  0  0
 78 79  2  0  0  0  0
 79 80  4  0  0  0  0
 75 81  1  0  0  0  0
 77 81  4  0  0  0  0
 80 81  4  0  0  0  0
 80 82  4  0  0  0  0
 82 83  1  0  0  0  0
 83 84  4  0  0  0  0
 84 85  1  0  0  0  0
 84 86  4  0  0  0  0
 86 87  4  0  0  0  0
 87 88  1  0  0  0  0
 87 89  4  0  0  0  0
 83 90  4  0  0  0  0
 89 90  4  0  0  0  0
 90 91  1  0  0  0  0
 82 92  4  0  0  0  0
 92 93  4  0  0  0  0
 93 94  2  0  0  0  0
 75 95  1  0  0  0  0
 92 95  4  0  0  0  0
 94 96  4  0  0  0  0
 95 96  4  0  0  0  0
 96 97  4  0  0  0  0
 97 98  4  0  0  0  0
 98 99  4  0  0  0  0
 99100  2  0  0  0  0
100101  4  0  0  0  0
 75102  1  0  0  0  0
 98102  4  0  0  0  0
101102  4  0  0  0  0
101103  4  0  0  0  0
103104  1  0  0  0  0
104105  4  0  0  0  0
105106  1  0  0  0  0
105107  4  0  0  0  0
107108  4  0  0  0  0
108109  1  0  0  0  0
108110  4  0  0  0  0
104111  4  0  0  0  0
110111  4  0  0  0  0
111112  1  0  0  0  0
103113  4  0  0  0  0
113114  4  0  0  0  0
114115  2  0  0  0  0
 76116  4  0  0  0  0
115116  1  0  0  0  0
 75117  1  0  0  0  0
113117  4  0  0  0  0
116117  4  0  0  0  0
 76118  1  0  0  0  0
 78119  1  0  0  0  0
 79120  1  0  0  0  0
 85121  1  0  0  0  0
 85122  1  0  0  0  0
 85123  1  0  0  0  0
 86124  1  0  0  0  0
 88125  1  0  0  0  0
 88126  1  0  0  0  0
 88127  1  0  0  0  0
 89128  1  0  0  0  0
 91129  1  0  0  0  0
 91130  1  0  0  0  0
 91131  1  0  0  0  0
 93132  1  0  0  0  0
 94133  1  0  0  0  0
 99134  1  0  0  0  0
100135  1  0  0  0  0
106136  1  0  0  0  0
106137  1  0  0  0  0
106138  1  0  0  0  0
107139  1  0  0  0  0
109140  1  0  0  0  0
109141  1  0  0  0  0
109142  1  0  0  0  0
110143  1  0  0  0  0
112144  1  0  0  0  0
112145  1  0  0  0  0
112146  1  0  0  0  0
114147  1  0  0  0  0
115148  1  0  0  0  0
 23149  4  0  0  0  0
149150  3  0  0  0  0
150151  4  0  0  0  0
151152  3  0  0  0  0
152153  4  0  0  0  0
153154  3  0  0  0  0
154155  4  0  0  0  0
155156  3  0  0  0  0
157158  3  0  0  0  0
158159  4  0  0  0  0
159160  3  0  0  0  0
160161  4  0  0  0  0
161162  3  0  0  0  0
162163  4  0  0  0  0
163164  3  0  0  0  0
165166  3  0  0  0  0
166167  4  0  0  0  0
167168  3  0  0  0  0
168169  4  0  0  0  0
169170  3  0  0  0  0
170171  4  0  0  0  0
 97172  4  0  0  0  0
171172  3  0  0  0  0
156174  4  0  0  0  0
174175  4  0  0  0  0
175176  4  0  0  0  0
176177  2  0  0  0  0
177178  4  0  0  0  0
173179  1  0  0  0  0
175179  4  0  0  0  0
178179  4  0  0  0  0
178180  4  0  0  0  0
180181  1  0  0  0  0
181182  4  0  0  0  0
182183  1  0  0  0  0
182184  4  0  0  0  0
184185  4  0  0  0  0
185186  1  0  0  0  0
185187  4  0  0  0  0
181188  4  0  0  0  0
187188  4  0  0  0  0
188189  1  0  0  0  0
180190  4  0  0  0  0
190191  4  0  0  0  0
191192  2  0  0  0  0
173193  1  0  0  0  0
190193  4  0  0  0  0
192194  4  0  0  0  0
193194  4  0  0  0  0
157195  4  0  0  0  0
194195  4  0  0  0  0
195196  4  0  0  0  0
196197  4  0  0  0  0
197198  2  0  0  0  0
198199  4  0  0  0  0
173200  1  0  0  0  0
196200  4  0  0  0  0
199200  4  0  0  0  0
199201  4  0  0  0  0
201202  1  0  0  0  0
202203  4  0  0  0  0
203204  1  0  0  0  0
203205  4  0  0  0  0
205206  4  0  0  0  0
206207  1  0  0  0  0
206208  4  0  0  0  0
202209  4  0  0  0  0
208209  4  0  0  0  0
209210  1  0  0  0  0
201211  4  0  0  0  0
211212  4  0  0  0  0
212213  2  0  0  0  0
174214  4  0  0  0  0
213214  4  0  0  0  0
173215  1  0  0  0  0
211215  4  0  0  0  0
214215  4  0  0  0  0
176216  1  0  0  0  0
177217  1  0  0  0  0
183218  1  0  0  0  0
183219  1  0  0  0  0
183220  1  0  0  0  0
184221  1  0  0  0  0
186222  1  0  0  0  0
186223  1  0  0  0  0
186224  1  0  0  0  0
187225  1  0  0  0  0
189226  1  0  0  0  0
189227  1  0  0  0  0
189228  1  0  0  0  0
191229  1  0  0  0  0
192230  1  0  0  0  0
197231  1  0  0  0  0
198232  1  0  0  0  0
204233  1  0  0  0  0
204234  1  0  0  0  0
204235  1  0  0  0  0
205236  1  0  0  0  0
207237  1  0  0  0  0
207238  1  0  0  0  0
207239  1  0  0  0  0
208240  1  0  0  0  0
210241  1  0  0  0  0
210242  1  0  0  0  0
210243  1  0  0  0  0
212244  1  0  0  0  0
213245  1  0  0  0  0
164247  4  0  0  0  0
247248  4  0  0  0  0
248249  4  0  0  0  0
249250  2  0  0  0  0
250251  4  0  0  0  0
246252  1  0  0  0  0
248252  4  0  0  0  0
251252  4  0  0  0  0
251253  4  0  0  0  0
253254  1  0  0  0  0
254255  4  0  0  0  0
255256  1  0  0  0  0
255257  4  0  0  0  0
257258  4  0  0  0  0
258259  1  0  0  0  0
258260  4  0  0  0  0
254261  4  0  0  0  0
260261  4  0  0  0  0
261262  1  0  0  0  0
253263  4  0  0  0  0
263264  4  0  0  0  0
264265  2  0  0  0  0
246266  1  0  0  0  0
263266  4  0  0  0  0
265267  4  0  0  0  0
266267  4  0  0  0  0
165268  4  0  0  0  0
267268  4  0  0  0  0
268269  4  0  0  0  0
269270  4  0  0  0  0
270271  2  0  0  0  0
271272  4  0  0  0  0
246273  1  0  0  0  0
269273  4  0  0  0  0
272273  4  0  0  0  0
272274  4  0  0  0  0
274275  1  0  0  0  0
275276  4  0  0  0  0
276277  1  0  0  0  0
276278  4  0  0  0  0
278279  4  0  0  0  0
279280  1  0  0  0  0
279281  4  0  0  0  0
275282  4  0  0  0  0
281282  4  0  0  0  0
282283  1  0  0  0  0
274284  4  0  0  0  0
284285  4  0  0  0  0
285286  2  0  0  0  0
247287  4  0  0  0  0
286287  4  0  0  0  0
246288  1  0  0  0  0
284288  4  0  0  0  0
287288  4  0  0  0  0
249289  1  0  0  0  0
250290  1  0  0  0  0
256291  1  0  0  0  0
256292  1  0  0  0  0
256293  1  0  0  0  0
257294  1  0  0  0  0
259295  1  0  0  0  0
259296  1  0  0  0  0
259297  1  0  0  0  0
260298  1  0  0  0  0
262299  1  0  0  0  0
262300  1  0  0  0  0
262301  1  0  0  0  0
264302  1  0  0  0  0
265303  1  0  0  0  0
270304  1  0  0  0  0
271305  1  0  0  0  0
277306  1  0  0  0  0
277307  1  0  0  0  0
277308  1  0  0  0  0
278309  1  0  0  0  0
280310  1  0  0  0  0
280311  1  0  0  0  0
280312  1  0  0  0  0
281313  1  0  0  0  0
283314  1  0  0  0  0
283315  1  0  0  0  0
283316  1  0  0  0  0
285317  1  0  0  0  0
286318  1  0  0  0  0
M  END
