192

C 19.091794 -0.027912 0.076779
C 19.825669 1.195147 0.707941
C 19.231599 2.215651 1.414961
C 20.256684 3.137273 1.754245
C 21.441102 2.652427 1.233331
N 21.173891 1.439876 0.648165
C 22.861244 3.357351 1.271026
C 22.852978 4.791980 1.591594
C 22.543400 5.683927 0.625984
C 22.474469 7.164874 0.832067
N 22.921266 7.554087 2.167679
C 23.159917 6.624139 3.152855
C 23.153769 5.305638 2.922471
C 23.987244 2.657955 0.967513
C 25.286662 3.295736 0.938070
C 26.189500 2.389080 0.582362
N 24.185106 1.345340 0.628060
C 25.514122 1.121886 0.376384
C 26.180438 -0.001828 -0.000443
C 25.402599 -1.371676 -0.197462
C 25.942450 -2.639139 -0.098096
C 24.916433 -3.566462 -0.408375
C 23.775097 -2.840684 -0.678481
N 24.067896 -1.509368 -0.492676
C 22.361876 -3.423446 -1.102502
C 22.371758 -4.757795 -1.715780
C 21.980214 -5.828914 -0.991163
C 21.909613 -7.228080 -1.518763
N 22.467314 -7.337932 -2.865945
C 22.771268 -6.219793 -3.610555
C 22.753164 -4.980810 -3.104442
C 21.240510 -2.681405 -0.906282
C 19.920156 -3.145475 -1.293485
C 19.033989 -2.212274 -0.957399
C 19.754781 -1.116601 -0.356457
N 21.075866 -1.439360 -0.359281
H 18.014609 0.023055 -0.024924
H 18.181149 2.295037 1.648126
H 20.140408 4.063371 2.296613
H 21.868794 0.817532 0.243242
H 22.316179 5.314777 -0.370587
H 21.442751 7.502966 0.684029
H 23.103022 7.668991 0.090605
H 22.619083 8.464754 2.488790
H 23.365859 7.029524 4.137251
H 23.361347 4.579041 3.700770
H 25.489889 4.329533 1.155591
H 27.240905 2.584107 0.474365
H 26.965225 -2.874401 0.155470
H 25.001329 -4.642533 -0.439613
H 23.385067 -0.756607 -0.516494
H 21.671508 -5.674186 0.040128
H 20.864635 -7.556760 -1.531390
H 22.465148 -7.898656 -0.855064
H 22.142450 -8.130895 -3.404537
H 23.033796 -6.407114 -4.645969
H 23.004141 -4.108009 -3.698255
H 19.696448 -4.080129 -1.774839
H 17.971288 -2.254662 -1.113328
C 65.473102 -0.020367 0.078929
C 64.739227 -1.392410 -0.029403
C 65.333297 -2.632309 0.033499
C 64.308212 -3.594340 -0.163978
C 63.123794 -2.907739 -0.351080
N 63.391005 -1.568871 -0.209200
C 61.703652 -3.526650 -0.690622
C 61.711918 -4.914767 -1.174416
C 62.021496 -5.163753 -2.465143
C 62.090427 -6.530884 -3.070642
N 61.643630 -7.565653 -2.140804
C 61.404979 -7.294688 -0.813418
C 61.411127 -6.052793 -0.314199
C 60.577652 -2.772321 -0.579885
C 59.278234 -3.298784 -0.941088
C 58.375396 -2.340814 -0.765456
N 60.379790 -1.477937 -0.176454
C 59.050774 -1.155385 -0.272542
C 58.384458 -0.001828 -0.000443
C 59.162297 1.266114 0.554196
C 58.622446 2.290821 1.306733
C 59.648463 3.242407 1.531863
C 60.789799 2.768021 0.919761
N 60.497000 1.538735 0.375904
C 62.203020 3.486756 0.866612
C 62.193138 4.943947 1.048804
C 62.584682 5.472223 2.229180
C 62.655283 6.939332 2.518347
N 62.097582 7.742801 1.431422
C 61.793628 7.185106 0.209271
C 61.811732 5.865445 -0.013721
C 63.324386 2.752744 0.642219
C 64.644740 3.351208 0.557793
C 65.530907 2.381023 0.351495
C 64.810115 1.133160 0.284629
N 63.489030 1.408928 0.452360
H 66.550287 -0.010069 -0.034363
H 66.383747 -2.822674 0.189796
H 64.424488 -4.667222 -0.191234
H 62.696102 -0.826566 -0.225256
H 62.248717 -4.324746 -3.117441
H 63.122145 -6.740160 -3.374656
H 61.461874 -6.568446 -3.966459
H 61.945813 -8.508796 -2.347949
H 61.199036 -8.158069 -0.190567
H 61.203549 -5.845586 0.730195
H 59.075007 -4.291958 -1.301167
H 57.323991 -2.449621 -0.960033
H 57.599671 2.357088 1.646221
H 59.563567 4.173313 2.072528
H 61.179829 0.911597 -0.041127
H 62.893388 4.797130 3.024007
H 63.700261 7.225299 2.680868
H 62.099748 7.159341 3.435825
H 62.422446 8.700557 1.391711
H 61.531100 7.890071 -0.571880
H 61.560755 5.436750 -0.978405
H 64.868448 4.399201 0.641409
H 66.593608 2.499236 0.241330
C 28.690913 0.011830 0.009111
C 30.149139 -0.010007 -0.008762
C 31.283067 -0.030760 -0.010253
C 32.644449 -0.043350 -0.012444
C 33.918668 -0.033044 -0.017209
C 35.107130 -0.014245 -0.023365
C 36.459491 0.010539 -0.007498
C 37.559758 0.011830 0.009111
C 46.889817 0.011830 0.009111
C 48.348043 -0.010007 -0.008762
C 49.481971 -0.030760 -0.010253
C 50.843353 -0.043350 -0.012444
C 52.117572 -0.033044 -0.017209
C 53.306034 -0.014245 -0.023365
C 54.658395 0.010539 -0.007498
C 55.758662 0.011830 0.009111
C 38.671124 0.000455 -0.001613
C 39.446817 -0.147110 1.377484
C 38.873640 -0.127896 2.633345
C 39.914138 -0.267692 3.579488
C 41.100156 -0.366572 2.881044
N 40.806989 -0.286924 1.539479
C 42.539758 -0.513994 3.526543
C 42.563366 -0.764007 4.977067
C 42.502451 -2.035320 5.428558
C 42.561712 -2.422963 6.873275
N 42.524748 -1.258180 7.757055
C 42.696092 0.018306 7.270184
C 42.708585 0.301501 5.962060
C 43.665671 -0.405233 2.773473
C 44.977776 -0.484275 3.381436
C 45.889696 -0.323608 2.431479
N 43.862461 -0.213868 1.431671
C 45.207296 -0.159762 1.163040
C 45.890157 0.000455 -0.001613
C 45.113105 0.105749 -1.382444
C 45.679577 0.017180 -2.638480
C 44.639147 0.152110 -3.585656
C 43.460687 0.316845 -2.886626
N 43.756573 0.272440 -1.544493
C 42.024709 0.496256 -3.529682
C 42.005483 0.764643 -4.976741
C 42.109714 2.038198 -5.413793
C 42.058437 2.444268 -6.853651
N 42.053599 1.289255 -7.751244
C 41.837675 0.014192 -7.278244
C 41.818895 -0.283414 -5.973469
C 40.898199 0.399769 -2.775837
C 39.587067 0.515456 -3.379539
C 38.674112 0.361083 -2.429764
C 39.355340 0.163704 -1.165194
N 40.700254 0.193832 -1.436189
H 37.823614 -0.016258 2.855255
H 39.809829 -0.283946 4.654337
H 41.491719 -0.287394 0.787000
H 42.421208 -2.841765 4.704587
H 43.481012 -2.989054 7.058288
H 41.713383 -3.071466 7.114796
H 42.890009 -1.411724 8.688674
H 42.817911 0.790974 8.021476
H 42.838448 1.311290 5.587435
H 45.187825 -0.634781 4.425375
H 46.950940 -0.332810 2.599341
H 46.725099 -0.134229 -2.858450
H 44.738112 0.125741 -4.661070
H 43.074566 0.309918 -0.790683
H 42.221927 2.833001 -4.681108
H 41.157346 3.042100 -7.028616
H 42.926593 3.067688 -7.091058
H 41.688580 1.466504 -8.678678
H 41.684366 -0.744558 -8.037686
H 41.652189 -1.291769 -5.609960
H 39.378281 0.685919 -4.420684
H 37.613040 0.395619 -2.595378
