 xtb: 6.5.1 (b24c23e)
          07302214143D

177206  0     0  0            999 V2000
   36.2983    0.0423    0.0156 Cu  0  0  0  0  0  0  0  0  0  0  0  0
   32.8872    0.0274    0.0672 C   0  0  0  0  0  0  0  0  0  0  0  0
   33.5113    1.2491    0.2683 C   0  0  0  0  0  0  0  0  0  0  0  0
   32.8263    2.4983    0.4392 C   0  0  0  0  0  0  0  0  0  0  0  0
   33.7768    3.4481    0.6208 C   0  0  0  0  0  0  0  0  0  0  0  0
   35.0514    2.7837    0.5778 C   0  0  0  0  0  0  0  0  0  0  0  0
   34.8598    1.4519    0.3492 N   0  0  0  0  0  0  0  0  0  0  0  0
   36.2908    3.4053    0.7452 C   0  0  0  0  0  0  0  0  0  0  0  0
   36.2925    4.8563    1.0504 C   0  0  0  0  0  0  0  0  0  0  0  0
   35.6718    5.3405    2.2044 C   0  0  0  0  0  0  0  0  0  0  0  0
   35.6726    6.6940    2.4903 C   0  0  0  0  0  0  0  0  0  0  0  0
   36.2929    7.5941    1.6187 C   0  0  0  0  0  0  0  0  0  0  0  0
   36.2933    8.9880    1.9078 C   0  0  0  0  0  0  0  0  0  0  0  0
   36.2941   10.1151    2.1400 N   0  0  0  0  0  0  0  0  0  0  0  0
   36.9133    7.1152    0.4610 C   0  0  0  0  0  0  0  0  0  0  0  0
   36.9138    5.7598    0.1848 C   0  0  0  0  0  0  0  0  0  0  0  0
   37.5300    2.7671    0.6502 C   0  0  0  0  0  0  0  0  0  0  0  0
   38.7922    3.3917    0.9238 C   0  0  0  0  0  0  0  0  0  0  0  0
   39.7506    2.4535    0.7183 C   0  0  0  0  0  0  0  0  0  0  0  0
   37.7399    1.4594    0.3006 N   0  0  0  0  0  0  0  0  0  0  0  0
   39.0866    1.2504    0.3198 C   0  0  0  0  0  0  0  0  0  0  0  0
   39.7436    0.0553   -0.0282 C   0  0  0  0  0  0  0  0  0  0  0  0
   39.0859   -1.1438   -0.3616 C   0  0  0  0  0  0  0  0  0  0  0  0
   39.7483   -2.3422   -0.7764 C   0  0  0  0  0  0  0  0  0  0  0  0
   38.7923   -3.2876   -0.9580 C   0  0  0  0  0  0  0  0  0  0  0  0
   37.5329   -2.6720   -0.6540 C   0  0  0  0  0  0  0  0  0  0  0  0
   37.7417   -1.3625   -0.3097 N   0  0  0  0  0  0  0  0  0  0  0  0
   36.2971   -3.3198   -0.7180 C   0  0  0  0  0  0  0  0  0  0  0  0
   36.3024   -4.7707   -1.0247 C   0  0  0  0  0  0  0  0  0  0  0  0
   35.6663   -5.2575   -2.1689 C   0  0  0  0  0  0  0  0  0  0  0  0
   35.6710   -6.6107   -2.4562 C   0  0  0  0  0  0  0  0  0  0  0  0
   36.3103   -7.5077   -1.5953 C   0  0  0  0  0  0  0  0  0  0  0  0
   36.3170   -8.9011   -1.8864 C   0  0  0  0  0  0  0  0  0  0  0  0
   36.3302  -10.0275   -2.1217 N   0  0  0  0  0  0  0  0  0  0  0  0
   36.9454   -7.0261   -0.4466 C   0  0  0  0  0  0  0  0  0  0  0  0
   36.9425   -5.6709   -0.1695 C   0  0  0  0  0  0  0  0  0  0  0  0
   35.0577   -2.7089   -0.5158 C   0  0  0  0  0  0  0  0  0  0  0  0
   33.7882   -3.3842   -0.5244 C   0  0  0  0  0  0  0  0  0  0  0  0
   32.8356   -2.4435   -0.3099 C   0  0  0  0  0  0  0  0  0  0  0  0
   33.5148   -1.1889   -0.1550 C   0  0  0  0  0  0  0  0  0  0  0  0
   34.8618   -1.3797   -0.2770 N   0  0  0  0  0  0  0  0  0  0  0  0
   31.8023    0.0229    0.0842 H   0  0  0  0  0  0  0  0  0  0  0  0
   31.7550    2.6202    0.4103 H   0  0  0  0  0  0  0  0  0  0  0  0
   33.6345    4.5077    0.7602 H   0  0  0  0  0  0  0  0  0  0  0  0
   35.2007    4.6445    2.8892 H   0  0  0  0  0  0  0  0  0  0  0  0
   35.1942    7.0613    3.3906 H   0  0  0  0  0  0  0  0  0  0  0  0
   37.3920    7.8104   -0.2187 H   0  0  0  0  0  0  0  0  0  0  0  0
   37.3859    5.3933   -0.7198 H   0  0  0  0  0  0  0  0  0  0  0  0
   38.9243    4.4104    1.2504 H   0  0  0  0  0  0  0  0  0  0  0  0
   40.8155    2.5591    0.8369 H   0  0  0  0  0  0  0  0  0  0  0  0
   40.8104   -2.4398   -0.9218 H   0  0  0  0  0  0  0  0  0  0  0  0
   38.9237   -4.3058   -1.2865 H   0  0  0  0  0  0  0  0  0  0  0  0
   35.1797   -4.5636   -2.8452 H   0  0  0  0  0  0  0  0  0  0  0  0
   35.1810   -6.9802   -3.3494 H   0  0  0  0  0  0  0  0  0  0  0  0
   37.4382   -7.7191    0.2252 H   0  0  0  0  0  0  0  0  0  0  0  0
   37.4270   -5.3020    0.7275 H   0  0  0  0  0  0  0  0  0  0  0  0
   33.6516   -4.4443   -0.6653 H   0  0  0  0  0  0  0  0  0  0  0  0
   31.7668   -2.5749   -0.2492 H   0  0  0  0  0  0  0  0  0  0  0  0
   58.1439   -0.0251    0.0346 Cu  0  0  0  0  0  0  0  0  0  0  0  0
   61.5508   -0.0333    0.0851 C   0  0  0  0  0  0  0  0  0  0  0  0
   60.9198   -1.2416    0.3393 C   0  0  0  0  0  0  0  0  0  0  0  0
   61.5991   -2.4824    0.5816 C   0  0  0  0  0  0  0  0  0  0  0  0
   60.6436   -3.4239    0.7782 C   0  0  0  0  0  0  0  0  0  0  0  0
   59.3707   -2.7640    0.6666 C   0  0  0  0  0  0  0  0  0  0  0  0
   59.5697   -1.4411    0.3962 N   0  0  0  0  0  0  0  0  0  0  0  0
   58.1282   -3.3908    0.7852 C   0  0  0  0  0  0  0  0  0  0  0  0
   58.1204   -4.8343    1.1278 C   0  0  0  0  0  0  0  0  0  0  0  0
   58.6471   -5.2722    2.3450 C   0  0  0  0  0  0  0  0  0  0  0  0
   58.6315   -6.6148    2.6777 C   0  0  0  0  0  0  0  0  0  0  0  0
   58.0920   -7.5502    1.7898 C   0  0  0  0  0  0  0  0  0  0  0  0
   58.0721   -8.9326    2.1289 C   0  0  0  0  0  0  0  0  0  0  0  0
   58.0542  -10.0493    2.4065 N   0  0  0  0  0  0  0  0  0  0  0  0
   57.5702   -7.1179    0.5669 C   0  0  0  0  0  0  0  0  0  0  0  0
   57.5830   -5.7727    0.2440 C   0  0  0  0  0  0  0  0  0  0  0  0
   56.8920   -2.7635    0.6153 C   0  0  0  0  0  0  0  0  0  0  0  0
   55.6169   -3.3987    0.7937 C   0  0  0  0  0  0  0  0  0  0  0  0
   54.6676   -2.4559    0.5671 C   0  0  0  0  0  0  0  0  0  0  0  0
   56.6991   -1.4471    0.2914 N   0  0  0  0  0  0  0  0  0  0  0  0
   55.3540   -1.2377    0.2569 C   0  0  0  0  0  0  0  0  0  0  0  0
   54.7157   -0.0162   -0.0132 C   0  0  0  0  0  0  0  0  0  0  0  0
   55.3681    1.2015   -0.2668 C   0  0  0  0  0  0  0  0  0  0  0  0
   54.6970    2.4234   -0.5958 C   0  0  0  0  0  0  0  0  0  0  0  0
   55.6571    3.3615   -0.7946 C   0  0  0  0  0  0  0  0  0  0  0  0
   56.9233    2.7197   -0.5802 C   0  0  0  0  0  0  0  0  0  0  0  0
   56.7146    1.4039   -0.2636 N   0  0  0  0  0  0  0  0  0  0  0  0
   58.1668    3.3415   -0.7123 C   0  0  0  0  0  0  0  0  0  0  0  0
   58.1765    4.7868   -1.0468 C   0  0  0  0  0  0  0  0  0  0  0  0
   58.7435    5.2299   -2.2440 C   0  0  0  0  0  0  0  0  0  0  0  0
   58.7493    6.5752   -2.5656 C   0  0  0  0  0  0  0  0  0  0  0  0
   58.1908    7.5081   -1.6866 C   0  0  0  0  0  0  0  0  0  0  0  0
   58.1964    8.8935   -2.0140 C   0  0  0  0  0  0  0  0  0  0  0  0
   58.2017   10.0132   -2.2797 N   0  0  0  0  0  0  0  0  0  0  0  0
   57.6265    7.0702   -0.4849 C   0  0  0  0  0  0  0  0  0  0  0  0
   57.6183    5.7224   -0.1731 C   0  0  0  0  0  0  0  0  0  0  0  0
   59.4023    2.7084   -0.5588 C   0  0  0  0  0  0  0  0  0  0  0  0
   60.6811    3.3622   -0.6316 C   0  0  0  0  0  0  0  0  0  0  0  0
   61.6258    2.4158   -0.4081 C   0  0  0  0  0  0  0  0  0  0  0  0
   60.9336    1.1781   -0.1876 C   0  0  0  0  0  0  0  0  0  0  0  0
   59.5867    1.3841   -0.2846 N   0  0  0  0  0  0  0  0  0  0  0  0
   62.6358   -0.0359    0.1016 H   0  0  0  0  0  0  0  0  0  0  0  0
   62.6708   -2.6046    0.5875 H   0  0  0  0  0  0  0  0  0  0  0  0
   60.7804   -4.4763    0.9685 H   0  0  0  0  0  0  0  0  0  0  0  0
   59.0555   -4.5480    3.0410 H   0  0  0  0  0  0  0  0  0  0  0  0
   59.0345   -6.9460    3.6276 H   0  0  0  0  0  0  0  0  0  0  0  0
   57.1562   -7.8411   -0.1259 H   0  0  0  0  0  0  0  0  0  0  0  0
   57.1862   -5.4423   -0.7093 H   0  0  0  0  0  0  0  0  0  0  0  0
   55.4703   -4.4296    1.0728 H   0  0  0  0  0  0  0  0  0  0  0  0
   53.5959   -2.5644    0.6162 H   0  0  0  0  0  0  0  0  0  0  0  0
   53.6278    2.5374   -0.6760 H   0  0  0  0  0  0  0  0  0  0  0  0
   55.5239    4.3932   -1.0773 H   0  0  0  0  0  0  0  0  0  0  0  0
   59.1672    4.5079   -2.9330 H   0  0  0  0  0  0  0  0  0  0  0  0
   59.1845    6.9108   -3.4996 H   0  0  0  0  0  0  0  0  0  0  0  0
   57.1968    7.7911    0.2008 H   0  0  0  0  0  0  0  0  0  0  0  0
   57.1890    5.3875    0.7645 H   0  0  0  0  0  0  0  0  0  0  0  0
   60.8287    4.4141   -0.8165 H   0  0  0  0  0  0  0  0  0  0  0  0
   62.6977    2.5330   -0.3819 H   0  0  0  0  0  0  0  0  0  0  0  0
   41.1557    0.0581   -0.0421 C   0  0  0  0  0  0  0  0  0  0  0  0
   42.3742    0.0565   -0.0515 C   0  0  0  0  0  0  0  0  0  0  0  0
   52.0888    0.0002   -0.0403 C   0  0  0  0  0  0  0  0  0  0  0  0
   53.3047   -0.0099   -0.0286 C   0  0  0  0  0  0  0  0  0  0  0  0
   47.2388    0.0353   -0.0645 Cu  0  0  0  0  0  0  0  0  0  0  0  0
   43.7861    0.0525   -0.0590 C   0  0  0  0  0  0  0  0  0  0  0  0
   44.4378   -1.1460   -0.4078 C   0  0  0  0  0  0  0  0  0  0  0  0
   43.7684   -2.3760   -0.7022 C   0  0  0  0  0  0  0  0  0  0  0  0
   44.7217   -3.2823   -1.0349 C   0  0  0  0  0  0  0  0  0  0  0  0
   45.9858   -2.6105   -0.9440 C   0  0  0  0  0  0  0  0  0  0  0  0
   45.7820   -1.3153   -0.5490 N   0  0  0  0  0  0  0  0  0  0  0  0
   47.2218   -3.2077   -1.2023 C   0  0  0  0  0  0  0  0  0  0  0  0
   47.2071   -4.5969   -1.7223 C   0  0  0  0  0  0  0  0  0  0  0  0
   46.6010   -4.8811   -2.9484 C   0  0  0  0  0  0  0  0  0  0  0  0
   46.5913   -6.1708   -3.4480 C   0  0  0  0  0  0  0  0  0  0  0  0
   47.1844   -7.2077   -2.7215 C   0  0  0  0  0  0  0  0  0  0  0  0
   47.1741   -8.5368   -3.2312 C   0  0  0  0  0  0  0  0  0  0  0  0
   47.1639   -9.6098   -3.6468 N   0  0  0  0  0  0  0  0  0  0  0  0
   47.7873   -6.9296   -1.4912 C   0  0  0  0  0  0  0  0  0  0  0  0
   47.7999   -5.6358   -1.0014 C   0  0  0  0  0  0  0  0  0  0  0  0
   48.4678   -2.6058   -1.0167 C   0  0  0  0  0  0  0  0  0  0  0  0
   49.7312   -3.2077   -1.3363 C   0  0  0  0  0  0  0  0  0  0  0  0
   50.6935   -2.3098   -1.0050 C   0  0  0  0  0  0  0  0  0  0  0  0
   48.6788   -1.3510   -0.5129 N   0  0  0  0  0  0  0  0  0  0  0  0
   50.0248   -1.1512   -0.4929 C   0  0  0  0  0  0  0  0  0  0  0  0
   50.6784    0.0111   -0.0510 C   0  0  0  0  0  0  0  0  0  0  0  0
   50.0369    1.1841    0.3805 C   0  0  0  0  0  0  0  0  0  0  0  0
   50.7172    2.3358    0.8925 C   0  0  0  0  0  0  0  0  0  0  0  0
   49.7648    3.2497    1.2085 C   0  0  0  0  0  0  0  0  0  0  0  0
   48.4957    2.6637    0.8816 C   0  0  0  0  0  0  0  0  0  0  0  0
   48.6936    1.4031    0.3870 N   0  0  0  0  0  0  0  0  0  0  0  0
   47.2568    3.2838    1.0571 C   0  0  0  0  0  0  0  0  0  0  0  0
   47.2617    4.6774    1.5650 C   0  0  0  0  0  0  0  0  0  0  0  0
   46.6562    4.9835    2.7861 C   0  0  0  0  0  0  0  0  0  0  0  0
   46.6711    6.2770    3.2758 C   0  0  0  0  0  0  0  0  0  0  0  0
   47.2890    7.2958    2.5445 C   0  0  0  0  0  0  0  0  0  0  0  0
   47.3082    8.6278    3.0464 C   0  0  0  0  0  0  0  0  0  0  0  0
   47.3253    9.7041    3.4534 N   0  0  0  0  0  0  0  0  0  0  0  0
   47.8896    6.9963    1.3181 C   0  0  0  0  0  0  0  0  0  0  0  0
   47.8772    5.6989    0.8381 C   0  0  0  0  0  0  0  0  0  0  0  0
   46.0138    2.6996    0.8027 C   0  0  0  0  0  0  0  0  0  0  0  0
   44.7565    3.3844    0.8925 C   0  0  0  0  0  0  0  0  0  0  0  0
   43.7929    2.4848    0.5710 C   0  0  0  0  0  0  0  0  0  0  0  0
   44.4497    1.2466    0.2822 C   0  0  0  0  0  0  0  0  0  0  0  0
   45.7960    1.4038    0.4171 N   0  0  0  0  0  0  0  0  0  0  0  0
   42.7039   -2.5266   -0.6478 H   0  0  0  0  0  0  0  0  0  0  0  0
   44.5853   -4.3185   -1.2986 H   0  0  0  0  0  0  0  0  0  0  0  0
   46.1491   -4.0772   -3.5186 H   0  0  0  0  0  0  0  0  0  0  0  0
   46.1259   -6.3821   -4.4037 H   0  0  0  0  0  0  0  0  0  0  0  0
   48.2437   -7.7320   -0.9234 H   0  0  0  0  0  0  0  0  0  0  0  0
   48.2589   -5.4260   -0.0419 H   0  0  0  0  0  0  0  0  0  0  0  0
   49.8617   -4.1850   -1.7720 H   0  0  0  0  0  0  0  0  0  0  0  0
   51.7621   -2.4096   -1.1088 H   0  0  0  0  0  0  0  0  0  0  0  0
   51.7860    2.4212    1.0059 H   0  0  0  0  0  0  0  0  0  0  0  0
   49.9056    4.2277    1.6394 H   0  0  0  0  0  0  0  0  0  0  0  0
   46.1865    4.1935    3.3613 H   0  0  0  0  0  0  0  0  0  0  0  0
   46.2069    6.5050    4.2282 H   0  0  0  0  0  0  0  0  0  0  0  0
   48.3648    7.7847    0.7461 H   0  0  0  0  0  0  0  0  0  0  0  0
   48.3356    5.4723   -0.1179 H   0  0  0  0  0  0  0  0  0  0  0  0
   44.6314    4.4240    1.1486 H   0  0  0  0  0  0  0  0  0  0  0  0
   42.7294    2.6450    0.5193 H   0  0  0  0  0  0  0  0  0  0  0  0
  2  3  4  0  0  0  0
  3  4  1  0  0  0  0
  4  5  2  0  0  0  0
  5  6  4  0  0  0  0
  1  7  1  0  0  0  0
  3  7  4  0  0  0  0
  6  7  4  0  0  0  0
  6  8  4  0  0  0  0
  8  9  1  0  0  0  0
  9 10  4  0  0  0  0
 10 11  4  0  0  0  0
 11 12  4  0  0  0  0
 12 13  1  0  0  0  0
 13 14  3  0  0  0  0
 12 15  4  0  0  0  0
  9 16  4  0  0  0  0
 15 16  4  0  0  0  0
  8 17  4  0  0  0  0
 17 18  4  0  0  0  0
 18 19  2  0  0  0  0
  1 20  1  0  0  0  0
 17 20  4  0  0  0  0
 19 21  4  0  0  0  0
 20 21  4  0  0  0  0
 21 22  4  0  0  0  0
 22 23  4  0  0  0  0
 23 24  4  0  0  0  0
 24 25  2  0  0  0  0
 25 26  4  0  0  0  0
  1 27  1  0  0  0  0
 23 27  4  0  0  0  0
 26 27  4  0  0  0  0
 26 28  4  0  0  0  0
 28 29  1  0  0  0  0
 29 30  4  0  0  0  0
 30 31  4  0  0  0  0
 31 32  4  0  0  0  0
 32 33  1  0  0  0  0
 33 34  3  0  0  0  0
 32 35  4  0  0  0  0
 29 36  4  0  0  0  0
 35 36  4  0  0  0  0
 28 37  4  0  0  0  0
 37 38  4  0  0  0  0
 38 39  2  0  0  0  0
  2 40  4  0  0  0  0
 39 40  1  0  0  0  0
  1 41  1  0  0  0  0
 37 41  4  0  0  0  0
 40 41  4  0  0  0  0
  2 42  1  0  0  0  0
  4 43  1  0  0  0  0
  5 44  1  0  0  0  0
 10 45  1  0  0  0  0
 11 46  1  0  0  0  0
 15 47  1  0  0  0  0
 16 48  1  0  0  0  0
 18 49  1  0  0  0  0
 19 50  1  0  0  0  0
 24 51  1  0  0  0  0
 25 52  1  0  0  0  0
 30 53  1  0  0  0  0
 31 54  1  0  0  0  0
 35 55  1  0  0  0  0
 36 56  1  0  0  0  0
 38 57  1  0  0  0  0
 39 58  1  0  0  0  0
 60 61  4  0  0  0  0
 61 62  1  0  0  0  0
 62 63  2  0  0  0  0
 63 64  4  0  0  0  0
 59 65  1  0  0  0  0
 61 65  4  0  0  0  0
 64 65  4  0  0  0  0
 64 66  4  0  0  0  0
 66 67  1  0  0  0  0
 67 68  4  0  0  0  0
 68 69  4  0  0  0  0
 69 70  4  0  0  0  0
 70 71  1  0  0  0  0
 71 72  3  0  0  0  0
 70 73  4  0  0  0  0
 67 74  4  0  0  0  0
 73 74  4  0  0  0  0
 66 75  4  0  0  0  0
 75 76  4  0  0  0  0
 76 77  2  0  0  0  0
 59 78  1  0  0  0  0
 75 78  4  0  0  0  0
 77 79  4  0  0  0  0
 78 79  4  0  0  0  0
 79 80  4  0  0  0  0
 80 81  4  0  0  0  0
 81 82  4  0  0  0  0
 82 83  2  0  0  0  0
 83 84  4  0  0  0  0
 59 85  1  0  0  0  0
 81 85  4  0  0  0  0
 84 85  4  0  0  0  0
 84 86  4  0  0  0  0
 86 87  1  0  0  0  0
 87 88  4  0  0  0  0
 88 89  4  0  0  0  0
 89 90  4  0  0  0  0
 90 91  1  0  0  0  0
 91 92  3  0  0  0  0
 90 93  4  0  0  0  0
 87 94  4  0  0  0  0
 93 94  4  0  0  0  0
 86 95  4  0  0  0  0
 95 96  4  0  0  0  0
 96 97  2  0  0  0  0
 60 98  4  0  0  0  0
 97 98  1  0  0  0  0
 59 99  1  0  0  0  0
 95 99  4  0  0  0  0
 98 99  4  0  0  0  0
 60100  1  0  0  0  0
 62101  1  0  0  0  0
 63102  1  0  0  0  0
 68103  1  0  0  0  0
 69104  1  0  0  0  0
 73105  1  0  0  0  0
 74106  1  0  0  0  0
 76107  1  0  0  0  0
 77108  1  0  0  0  0
 82109  1  0  0  0  0
 83110  1  0  0  0  0
 88111  1  0  0  0  0
 89112  1  0  0  0  0
 93113  1  0  0  0  0
 94114  1  0  0  0  0
 96115  1  0  0  0  0
 97116  1  0  0  0  0
 22117  4  0  0  0  0
117118  3  0  0  0  0
 80120  4  0  0  0  0
119120  3  0  0  0  0
118122  4  0  0  0  0
122123  4  0  0  0  0
123124  4  0  0  0  0
124125  2  0  0  0  0
125126  4  0  0  0  0
121127  1  0  0  0  0
123127  4  0  0  0  0
126127  4  0  0  0  0
126128  4  0  0  0  0
128129  1  0  0  0  0
129130  4  0  0  0  0
130131  4  0  0  0  0
131132  4  0  0  0  0
132133  1  0  0  0  0
133134  3  0  0  0  0
132135  4  0  0  0  0
129136  4  0  0  0  0
135136  4  0  0  0  0
128137  4  0  0  0  0
137138  4  0  0  0  0
138139  2  0  0  0  0
121140  1  0  0  0  0
137140  4  0  0  0  0
139141  4  0  0  0  0
140141  4  0  0  0  0
119142  4  0  0  0  0
141142  4  0  0  0  0
142143  4  0  0  0  0
143144  4  0  0  0  0
144145  2  0  0  0  0
145146  4  0  0  0  0
121147  1  0  0  0  0
143147  4  0  0  0  0
146147  4  0  0  0  0
146148  4  0  0  0  0
148149  1  0  0  0  0
149150  4  0  0  0  0
150151  4  0  0  0  0
151152  4  0  0  0  0
152153  1  0  0  0  0
153154  3  0  0  0  0
152155  4  0  0  0  0
149156  4  0  0  0  0
155156  4  0  0  0  0
148157  4  0  0  0  0
157158  4  0  0  0  0
158159  2  0  0  0  0
122160  4  0  0  0  0
159160  4  0  0  0  0
121161  1  0  0  0  0
157161  4  0  0  0  0
160161  4  0  0  0  0
124162  1  0  0  0  0
125163  1  0  0  0  0
130164  1  0  0  0  0
131165  1  0  0  0  0
135166  1  0  0  0  0
136167  1  0  0  0  0
138168  1  0  0  0  0
139169  1  0  0  0  0
144170  1  0  0  0  0
145171  1  0  0  0  0
150172  1  0  0  0  0
151173  1  0  0  0  0
155174  1  0  0  0  0
156175  1  0  0  0  0
158176  1  0  0  0  0
159177  1  0  0  0  0
M  END
