316

C 54.963831 -0.029930 0.091869
C 55.692051 1.346034 0.170621
C 55.084743 2.567694 0.348989
C 56.107362 3.550528 0.301918
C 57.304832 2.894771 0.086842
N 57.044088 1.547505 0.055476
C 58.727673 3.563574 -0.116109
C 58.767071 5.029549 -0.319838
C 59.071420 5.880858 0.749423
C 59.100353 7.264562 0.562397
C 58.823852 7.804386 -0.698258
C 58.854646 9.224141 -0.894147
N 58.878371 10.373625 -1.058434
C 58.517156 6.956978 -1.768731
C 58.488932 5.573007 -1.578044
C 59.857947 2.807089 -0.139592
C 61.161039 3.387983 -0.391679
C 62.064466 2.415365 -0.375519
N 60.056064 1.461593 0.028188
C 61.388026 1.162643 -0.101027
C 62.059391 -0.017010 -0.015706
C 61.286246 -1.365006 0.311218
C 61.839945 -2.516432 0.838422
C 60.812631 -3.489588 0.911033
C 59.658938 -2.903498 0.435471
N 59.944380 -1.594914 0.128998
C 58.245857 -3.606346 0.280953
C 58.213477 -5.082124 0.194211
C 57.871117 -5.852735 1.312495
C 57.849718 -7.245910 1.227140
C 58.174992 -7.877278 0.021498
C 58.151328 -9.307579 -0.068720
N 58.133134 -10.466569 -0.142440
C 58.521647 -7.110698 -1.097135
C 58.539995 -5.717662 -1.008944
C 57.118512 -2.853845 0.196596
C 55.795114 -3.432481 0.041107
C 54.907786 -2.442300 0.003695
C 55.630085 -1.199542 0.116902
N 56.952482 -1.497261 0.226369
H 53.884985 -0.028485 -0.009150
H 54.026782 2.733622 0.482041
H 55.979088 4.618646 0.390772
H 57.743488 0.814894 -0.034946
H 59.289938 5.447030 1.724000
H 59.340171 7.906579 1.405519
H 58.301427 7.357111 -2.755070
H 58.253541 4.903841 -2.402469
H 61.373970 4.425551 -0.577369
H 63.116991 2.557940 -0.539379
H 62.873057 -2.650512 1.121222
H 60.910897 -4.507140 1.253255
H 59.256476 -0.899311 -0.150552
H 57.616645 -5.348998 2.242807
H 57.578332 -7.824774 2.105671
H 58.779860 -7.581915 -2.041937
H 58.803613 -5.109289 -1.873283
H 55.563579 -4.479337 -0.031767
H 53.842498 -2.542198 -0.103526
C 128.302186 0.025275 0.084050
C 127.573966 -1.274704 0.541797
C 128.181274 -2.398787 1.052392
C 127.158655 -3.356038 1.280095
C 125.961185 -2.785796 0.891381
N 126.221930 -1.500226 0.487127
C 124.538344 -3.484652 0.882132
C 124.498946 -4.949545 1.093501
C 124.194597 -5.470450 2.357109
C 124.165664 -6.851669 2.561679
C 124.442165 -7.720334 1.500509
C 124.411371 -9.138648 1.706576
N 124.387646 -10.288544 1.867950
C 124.748861 -7.203513 0.236820
C 124.777085 -5.821020 0.035692
C 123.408071 -2.764441 0.649504
C 122.104978 -3.392491 0.568640
C 121.201551 -2.453637 0.314078
N 123.209953 -1.425271 0.437055
C 121.877991 -1.173960 0.229906
C 121.206626 -0.017010 -0.015706
C 121.979772 1.368754 -0.075965
C 121.426072 2.621295 0.110766
C 122.453386 3.576341 -0.089715
C 123.607080 2.881243 -0.383822
N 123.321637 1.539020 -0.314861
C 125.020160 3.513540 -0.727436
C 125.052540 4.907189 -1.220575
C 125.394900 5.958029 -0.360264
C 125.416300 7.272709 -0.829133
C 125.091025 7.544451 -2.162682
C 125.114689 8.893448 -2.646532
N 125.132883 9.986384 -3.039192
C 124.744371 6.497387 -3.024449
C 124.726023 5.183628 -2.552894
C 126.147505 2.767209 -0.599514
C 127.470903 3.279910 -0.909569
C 128.358231 2.318283 -0.670546
C 127.635932 1.155839 -0.216690
N 126.313535 1.472246 -0.194202
H 129.381032 -0.004165 -0.012595
H 129.239235 -2.521242 1.226287
H 127.286929 -4.357474 1.662060
H 125.522529 -0.821538 0.196822
H 123.976080 -4.783054 3.172887
H 123.925846 -7.234310 3.549923
H 124.964590 -7.861806 -0.599615
H 125.012476 -5.407107 -0.942129
H 121.892047 -4.440816 0.678374
H 120.149026 -2.636108 0.196255
H 120.392960 2.828632 0.345211
H 122.355120 4.648905 -0.043516
H 124.009541 0.793146 -0.390255
H 125.649372 5.732442 0.673343
H 125.687685 8.072766 -0.145898
H 124.486157 6.687710 -4.062945
H 124.462404 4.359164 -3.214300
H 127.702438 4.265358 -1.270278
H 129.423519 2.384478 -0.801291
C 68.273994 -0.015907 -0.007216
C 67.065055 -0.029362 -0.015663
C 65.643526 -0.020543 -0.027646
C 64.431856 -0.013104 -0.016783
C 69.690598 -0.022582 -0.006683
C 70.911294 -0.013104 -0.016783
C 84.249233 -0.015907 -0.007216
C 83.040294 -0.029362 -0.015663
C 81.618765 -0.020543 -0.027646
C 80.407095 -0.013104 -0.016783
C 85.665837 -0.022582 -0.006683
C 86.886533 -0.013104 -0.016783
C 100.224472 -0.015907 -0.007216
C 99.015533 -0.029362 -0.015663
C 97.594004 -0.020543 -0.027646
C 96.382334 -0.013104 -0.016783
C 101.641076 -0.022582 -0.006683
C 102.861772 -0.013104 -0.016783
C 116.199711 -0.015907 -0.007216
C 114.990772 -0.029362 -0.015663
C 113.569243 -0.020543 -0.027646
C 112.357573 -0.013104 -0.016783
C 117.616315 -0.022582 -0.006683
C 118.837011 -0.013104 -0.016783
C 72.078717 0.013343 0.012966
C 72.873951 1.165074 -0.728771
C 72.372786 2.385441 -1.133531
C 73.411347 3.061167 -1.824249
C 74.515126 2.234311 -1.814225
N 74.200722 1.118880 -1.079467
C 75.901955 2.508041 -2.525471
C 75.889823 3.353425 -3.739836
C 75.413161 2.834590 -4.949272
C 75.386541 3.631274 -6.096112
C 75.835765 4.955429 -6.037631
C 75.809687 5.774515 -7.213604
N 75.788399 6.440496 -8.165636
C 76.309871 5.479939 -4.829791
C 76.334236 4.680546 -3.685051
C 77.038332 1.935782 -2.049131
C 78.323752 2.106961 -2.694755
C 79.232834 1.426901 -2.004501
N 77.248171 1.124760 -0.969175
C 78.572347 0.787204 -0.884803
C 79.236672 0.013343 0.012966
C 78.441455 -0.660089 1.205934
C 78.942707 -0.993312 2.447703
C 77.904152 -1.643516 3.162501
C 76.800271 -1.681343 2.336590
N 77.114621 -1.012646 1.180334
C 75.413446 -2.375471 2.651282
C 75.425764 -3.538916 3.565491
C 75.904068 -4.775828 3.117815
C 75.930897 -5.874749 3.979371
C 75.480261 -5.740384 5.297504
C 75.506501 -6.867152 6.183053
N 75.527865 -7.779274 6.902702
C 75.004566 -4.504725 5.750973
C 74.980023 -3.408034 4.886825
C 74.277039 -1.933189 2.052357
C 72.991668 -2.567928 2.260614
C 72.082578 -1.918445 1.541531
C 72.743014 -0.837744 0.837909
N 74.067147 -0.902141 1.180012
H 71.367192 2.742554 -0.970356
H 73.353450 4.031850 -2.292949
H 74.858259 0.396439 -0.800617
H 75.065731 1.803458 -4.983336
H 75.013856 3.206782 -7.024608
H 76.663332 6.505583 -4.765337
H 76.702586 5.075911 -2.739949
H 78.519519 2.676072 -3.585595
H 80.276930 1.369425 -2.252937
H 79.948349 -0.809826 2.794625
H 77.962093 -2.055115 4.158751
H 76.457008 -0.776005 0.443087
H 76.252628 -4.869020 2.090722
H 76.304853 -6.825839 3.609530
H 74.649993 -4.381533 6.770847
H 74.610477 -2.442026 5.226645
H 72.795950 -3.424276 2.880425
H 71.038526 -2.169968 1.498427
C 88.053956 0.013343 0.012966
C 88.849190 1.165074 -0.728771
C 88.348025 2.385441 -1.133531
C 89.386586 3.061167 -1.824249
C 90.490365 2.234311 -1.814225
N 90.175961 1.118880 -1.079467
C 91.877194 2.508041 -2.525471
C 91.865062 3.353425 -3.739836
C 91.388400 2.834590 -4.949272
C 91.361780 3.631274 -6.096112
C 91.811004 4.955429 -6.037631
C 91.784926 5.774515 -7.213604
N 91.763638 6.440496 -8.165636
C 92.285110 5.479939 -4.829791
C 92.309475 4.680546 -3.685051
C 93.013571 1.935782 -2.049131
C 94.298991 2.106961 -2.694755
C 95.208073 1.426901 -2.004501
N 93.223410 1.124760 -0.969175
C 94.547586 0.787204 -0.884803
C 95.211911 0.013343 0.012966
C 94.416694 -0.660089 1.205934
C 94.917946 -0.993312 2.447703
C 93.879390 -1.643516 3.162501
C 92.775509 -1.681343 2.336590
N 93.089860 -1.012646 1.180334
C 91.388684 -2.375471 2.651282
C 91.401003 -3.538916 3.565491
C 91.879307 -4.775828 3.117815
C 91.906136 -5.874749 3.979371
C 91.455500 -5.740384 5.297504
C 91.481740 -6.867152 6.183053
N 91.503104 -7.779274 6.902702
C 90.979805 -4.504725 5.750973
C 90.955262 -3.408034 4.886825
C 90.252278 -1.933189 2.052357
C 88.966907 -2.567928 2.260614
C 88.057817 -1.918445 1.541531
C 88.718253 -0.837744 0.837909
N 90.042386 -0.902141 1.180012
H 87.342431 2.742554 -0.970356
H 89.328689 4.031850 -2.292949
H 90.833497 0.396439 -0.800617
H 91.040970 1.803458 -4.983336
H 90.989094 3.206782 -7.024608
H 92.638571 6.505583 -4.765337
H 92.677825 5.075911 -2.739949
H 94.494758 2.676072 -3.585595
H 96.252169 1.369425 -2.252937
H 95.923588 -0.809826 2.794625
H 93.937332 -2.055115 4.158751
H 92.432247 -0.776005 0.443087
H 92.227866 -4.869020 2.090722
H 92.280092 -6.825839 3.609530
H 90.625232 -4.381533 6.770847
H 90.585716 -2.442026 5.226645
H 88.771189 -3.424276 2.880425
H 87.013765 -2.169968 1.498427
C 104.029195 0.013343 0.012966
C 104.824429 1.165074 -0.728771
C 104.323264 2.385441 -1.133531
C 105.361825 3.061167 -1.824249
C 106.465604 2.234311 -1.814225
N 106.151200 1.118880 -1.079467
C 107.852433 2.508041 -2.525471
C 107.840301 3.353425 -3.739836
C 107.363639 2.834590 -4.949272
C 107.337018 3.631274 -6.096112
C 107.786242 4.955429 -6.037631
C 107.760165 5.774515 -7.213604
N 107.738877 6.440496 -8.165636
C 108.260349 5.479939 -4.829791
C 108.284714 4.680546 -3.685051
C 108.988810 1.935782 -2.049131
C 110.274230 2.106961 -2.694755
C 111.183312 1.426901 -2.004501
N 109.198648 1.124760 -0.969175
C 110.522824 0.787204 -0.884803
C 111.187150 0.013343 0.012966
C 110.391933 -0.660089 1.205934
C 110.893185 -0.993312 2.447703
C 109.854629 -1.643516 3.162501
C 108.750748 -1.681343 2.336590
N 109.065099 -1.012646 1.180334
C 107.363923 -2.375471 2.651282
C 107.376242 -3.538916 3.565491
C 107.854546 -4.775828 3.117815
C 107.881375 -5.874749 3.979371
C 107.430739 -5.740384 5.297504
C 107.456979 -6.867152 6.183053
N 107.478343 -7.779274 6.902702
C 106.955044 -4.504725 5.750973
C 106.930501 -3.408034 4.886825
C 106.227517 -1.933189 2.052357
C 104.942146 -2.567928 2.260614
C 104.033056 -1.918445 1.541531
C 104.693492 -0.837744 0.837909
N 106.017625 -0.902141 1.180012
H 103.317670 2.742554 -0.970356
H 105.303928 4.031850 -2.292949
H 106.808736 0.396439 -0.800617
H 107.016209 1.803458 -4.983336
H 106.964333 3.206782 -7.024608
H 108.613809 6.505583 -4.765337
H 108.653064 5.075911 -2.739949
H 110.469996 2.676072 -3.585595
H 112.227408 1.369425 -2.252937
H 111.898827 -0.809826 2.794625
H 109.912571 -2.055115 4.158751
H 108.407486 -0.776005 0.443087
H 108.203105 -4.869020 2.090722
H 108.255331 -6.825839 3.609530
H 106.600471 -4.381533 6.770847
H 106.560955 -2.442026 5.226645
H 104.746428 -3.424276 2.880425
H 102.989004 -2.169968 1.498427
