 xtb: 6.5.1 (b24c23e)
          07272219463D

316350  0     0  0            999 V2000
   56.2007    0.0856    0.0900 C   0  0  0  0  0  0  0  0  0  0  0  0
   56.8071    1.3335    0.0278 C   0  0  0  0  0  0  0  0  0  0  0  0
   56.1534    2.5978    0.0197 C   0  0  0  0  0  0  0  0  0  0  0  0
   57.1121    3.5670   -0.0713 C   0  0  0  0  0  0  0  0  0  0  0  0
   58.3825    2.9253   -0.1305 C   0  0  0  0  0  0  0  0  0  0  0  0
   58.1482    1.5820   -0.0560 N   0  0  0  0  0  0  0  0  0  0  0  0
   59.6431    3.5265   -0.2233 C   0  0  0  0  0  0  0  0  0  0  0  0
   59.6689    5.0048   -0.3286 C   0  0  0  0  0  0  0  0  0  0  0  0
   60.3177    5.7737    0.6406 C   0  0  0  0  0  0  0  0  0  0  0  0
   60.3416    7.1535    0.5462 C   0  0  0  0  0  0  0  0  0  0  0  0
   59.7172    7.7936   -0.5286 C   0  0  0  0  0  0  0  0  0  0  0  0
   59.7428    9.2132   -0.6311 C   0  0  0  0  0  0  0  0  0  0  0  0
   59.7627   10.3609   -0.7127 N   0  0  0  0  0  0  0  0  0  0  0  0
   59.0677    7.0289   -1.5022 C   0  0  0  0  0  0  0  0  0  0  0  0
   59.0433    5.6497   -1.3983 C   0  0  0  0  0  0  0  0  0  0  0  0
   60.8608    2.8411   -0.2238 C   0  0  0  0  0  0  0  0  0  0  0  0
   62.1540    3.4835   -0.3780 C   0  0  0  0  0  0  0  0  0  0  0  0
   63.0777    2.5023   -0.3163 C   0  0  0  0  0  0  0  0  0  0  0  0
   61.0198    1.4951   -0.0978 N   0  0  0  0  0  0  0  0  0  0  0  0
   62.3473    1.2622   -0.1381 C   0  0  0  0  0  0  0  0  0  0  0  0
   62.9885    0.0127   -0.0183 C   0  0  0  0  0  0  0  0  0  0  0  0
   62.3566   -1.2400    0.0955 C   0  0  0  0  0  0  0  0  0  0  0  0
   63.0048   -2.4975    0.2200 C   0  0  0  0  0  0  0  0  0  0  0  0
   62.0408   -3.4659    0.2689 C   0  0  0  0  0  0  0  0  0  0  0  0
   60.7730   -2.8282    0.1699 C   0  0  0  0  0  0  0  0  0  0  0  0
   61.0157   -1.4834    0.0776 N   0  0  0  0  0  0  0  0  0  0  0  0
   59.5125   -3.4351    0.1918 C   0  0  0  0  0  0  0  0  0  0  0  0
   59.4872   -4.9155    0.2515 C   0  0  0  0  0  0  0  0  0  0  0  0
   58.8792   -5.5740    1.3231 C   0  0  0  0  0  0  0  0  0  0  0  0
   58.8556   -6.9559    1.3793 C   0  0  0  0  0  0  0  0  0  0  0  0
   59.4382   -7.7095    0.3559 C   0  0  0  0  0  0  0  0  0  0  0  0
   59.4130   -9.1318    0.4079 C   0  0  0  0  0  0  0  0  0  0  0  0
   59.3929  -10.2817    0.4488 N   0  0  0  0  0  0  0  0  0  0  0  0
   60.0464   -7.0556   -0.7198 C   0  0  0  0  0  0  0  0  0  0  0  0
   60.0717   -5.6734   -0.7663 C   0  0  0  0  0  0  0  0  0  0  0  0
   58.2930   -2.7500    0.1601 C   0  0  0  0  0  0  0  0  0  0  0  0
   56.9894   -3.3961    0.1422 C   0  0  0  0  0  0  0  0  0  0  0  0
   56.0735   -2.4072    0.1221 C   0  0  0  0  0  0  0  0  0  0  0  0
   56.8161   -1.1589    0.1116 C   0  0  0  0  0  0  0  0  0  0  0  0
   58.1493   -1.4043    0.1261 N   0  0  0  0  0  0  0  0  0  0  0  0
   55.1158    0.0934    0.1180 H   0  0  0  0  0  0  0  0  0  0  0  0
   55.0856    2.7343    0.0814 H   0  0  0  0  0  0  0  0  0  0  0  0
   56.9591    4.6339   -0.0864 H   0  0  0  0  0  0  0  0  0  0  0  0
   58.8744    0.8736   -0.0603 H   0  0  0  0  0  0  0  0  0  0  0  0
   60.7920    5.2819    1.4823 H   0  0  0  0  0  0  0  0  0  0  0  0
   60.8427    7.7432    1.3048 H   0  0  0  0  0  0  0  0  0  0  0  0
   58.5860    7.5212   -2.3389 H   0  0  0  0  0  0  0  0  0  0  0  0
   58.5510    5.0601   -2.1636 H   0  0  0  0  0  0  0  0  0  0  0  0
   62.3118    4.5392   -0.5273 H   0  0  0  0  0  0  0  0  0  0  0  0
   64.1503    2.5822   -0.3917 H   0  0  0  0  0  0  0  0  0  0  0  0
   64.0731   -2.6334    0.2685 H   0  0  0  0  0  0  0  0  0  0  0  0
   62.1912   -4.5278    0.3758 H   0  0  0  0  0  0  0  0  0  0  0  0
   60.2915   -0.7759    0.0109 H   0  0  0  0  0  0  0  0  0  0  0  0
   58.4380   -4.9936    2.1254 H   0  0  0  0  0  0  0  0  0  0  0  0
   58.3874   -7.4594    2.2170 H   0  0  0  0  0  0  0  0  0  0  0  0
   60.4955   -7.6362   -1.5171 H   0  0  0  0  0  0  0  0  0  0  0  0
   60.5322   -5.1705   -1.6092 H   0  0  0  0  0  0  0  0  0  0  0  0
   56.8227   -4.4611    0.1334 H   0  0  0  0  0  0  0  0  0  0  0  0
   54.9977   -2.4832    0.1044 H   0  0  0  0  0  0  0  0  0  0  0  0
  127.0664   -0.0845    0.0618 C   0  0  0  0  0  0  0  0  0  0  0  0
  126.4556   -1.2929    0.3711 C   0  0  0  0  0  0  0  0  0  0  0  0
  127.1056   -2.5107    0.7177 C   0  0  0  0  0  0  0  0  0  0  0  0
  126.1425   -3.4555    0.9337 C   0  0  0  0  0  0  0  0  0  0  0  0
  124.8729   -2.8473    0.7167 C   0  0  0  0  0  0  0  0  0  0  0  0
  125.1124   -1.5431    0.3900 N   0  0  0  0  0  0  0  0  0  0  0  0
  123.6087   -3.4366    0.8333 C   0  0  0  0  0  0  0  0  0  0  0  0
  123.5758   -4.8794    1.1723 C   0  0  0  0  0  0  0  0  0  0  0  0
  122.9506   -5.3189    2.3417 C   0  0  0  0  0  0  0  0  0  0  0  0
  122.9185   -6.6644    2.6610 C   0  0  0  0  0  0  0  0  0  0  0  0
  123.5107   -7.6014    1.8090 C   0  0  0  0  0  0  0  0  0  0  0  0
  123.4765   -8.9874    2.1318 C   0  0  0  0  0  0  0  0  0  0  0  0
  123.4486  -10.1077    2.3930 N   0  0  0  0  0  0  0  0  0  0  0  0
  124.1368   -7.1671    0.6369 C   0  0  0  0  0  0  0  0  0  0  0  0
  124.1697   -5.8194    0.3267 C   0  0  0  0  0  0  0  0  0  0  0  0
  122.3933   -2.7715    0.6523 C   0  0  0  0  0  0  0  0  0  0  0  0
  121.0956   -3.4194    0.7225 C   0  0  0  0  0  0  0  0  0  0  0  0
  120.1763   -2.4588    0.4954 C   0  0  0  0  0  0  0  0  0  0  0  0
  122.2406   -1.4494    0.3663 N   0  0  0  0  0  0  0  0  0  0  0  0
  120.9135   -1.2295    0.2750 C   0  0  0  0  0  0  0  0  0  0  0  0
  120.2779   -0.0008    0.0038 C   0  0  0  0  0  0  0  0  0  0  0  0
  120.9147    1.2238   -0.2721 C   0  0  0  0  0  0  0  0  0  0  0  0
  120.2713    2.4648   -0.5229 C   0  0  0  0  0  0  0  0  0  0  0  0
  121.2391    3.4030   -0.7524 C   0  0  0  0  0  0  0  0  0  0  0  0
  122.5046    2.7601   -0.6568 C   0  0  0  0  0  0  0  0  0  0  0  0
  122.2566    1.4469   -0.3570 N   0  0  0  0  0  0  0  0  0  0  0  0
  123.7679    3.3428   -0.8048 C   0  0  0  0  0  0  0  0  0  0  0  0
  123.8019    4.7823   -1.1553 C   0  0  0  0  0  0  0  0  0  0  0  0
  124.4142    5.7044   -0.3030 C   0  0  0  0  0  0  0  0  0  0  0  0
  124.4456    7.0493   -0.6250 C   0  0  0  0  0  0  0  0  0  0  0  0
  123.8666    7.4989   -1.8155 C   0  0  0  0  0  0  0  0  0  0  0  0
  123.8992    8.8818   -2.1513 C   0  0  0  0  0  0  0  0  0  0  0  0
  123.9247    9.9996   -2.4234 N   0  0  0  0  0  0  0  0  0  0  0  0
  123.2551    6.5800   -2.6736 C   0  0  0  0  0  0  0  0  0  0  0  0
  123.2221    5.2374   -2.3421 C   0  0  0  0  0  0  0  0  0  0  0  0
  124.9844    2.6699   -0.6463 C   0  0  0  0  0  0  0  0  0  0  0  0
  126.2899    3.2772   -0.8554 C   0  0  0  0  0  0  0  0  0  0  0  0
  127.2021    2.3159   -0.6087 C   0  0  0  0  0  0  0  0  0  0  0  0
  126.4553    1.1196   -0.2614 C   0  0  0  0  0  0  0  0  0  0  0  0
  125.1230    1.3679   -0.3028 N   0  0  0  0  0  0  0  0  0  0  0  0
  128.1516   -0.0924    0.0736 H   0  0  0  0  0  0  0  0  0  0  0  0
  128.1741   -2.6330    0.7942 H   0  0  0  0  0  0  0  0  0  0  0  0
  126.2922   -4.4818    1.2272 H   0  0  0  0  0  0  0  0  0  0  0  0
  124.3881   -0.8602    0.1941 H   0  0  0  0  0  0  0  0  0  0  0  0
  122.5010   -4.5943    3.0111 H   0  0  0  0  0  0  0  0  0  0  0  0
  122.4358   -6.9970    3.5725 H   0  0  0  0  0  0  0  0  0  0  0  0
  124.5936   -7.8908   -0.0281 H   0  0  0  0  0  0  0  0  0  0  0  0
  124.6434   -5.4888   -0.5908 H   0  0  0  0  0  0  0  0  0  0  0  0
  120.9318   -4.4689    0.9055 H   0  0  0  0  0  0  0  0  0  0  0  0
  119.1024   -2.5493    0.4643 H   0  0  0  0  0  0  0  0  0  0  0  0
  119.2034    2.6122   -0.5197 H   0  0  0  0  0  0  0  0  0  0  0  0
  121.0925    4.4506   -0.9585 H   0  0  0  0  0  0  0  0  0  0  0  0
  122.9783    0.7485   -0.2115 H   0  0  0  0  0  0  0  0  0  0  0  0
  124.8527    5.3617    0.6274 H   0  0  0  0  0  0  0  0  0  0  0  0
  124.9169    7.7592    0.0445 H   0  0  0  0  0  0  0  0  0  0  0  0
  122.8093    6.9240   -3.5995 H   0  0  0  0  0  0  0  0  0  0  0  0
  122.7593    4.5265   -3.0174 H   0  0  0  0  0  0  0  0  0  0  0  0
  126.4600    4.2965   -1.1627 H   0  0  0  0  0  0  0  0  0  0  0  0
  128.2780    2.3769   -0.6578 H   0  0  0  0  0  0  0  0  0  0  0  0
   68.1912   -0.0390   -0.0056 C   0  0  0  0  0  0  0  0  0  0  0  0
   66.9629   -0.0259   -0.0076 C   0  0  0  0  0  0  0  0  0  0  0  0
   65.6185   -0.0137   -0.0113 C   0  0  0  0  0  0  0  0  0  0  0  0
   64.3947    0.0010   -0.0172 C   0  0  0  0  0  0  0  0  0  0  0  0
   69.5354   -0.0455   -0.0081 C   0  0  0  0  0  0  0  0  0  0  0  0
   70.7595   -0.0550   -0.0089 C   0  0  0  0  0  0  0  0  0  0  0  0
   84.2277    0.0103    0.0120 C   0  0  0  0  0  0  0  0  0  0  0  0
   82.9988    0.0076    0.0099 C   0  0  0  0  0  0  0  0  0  0  0  0
   81.6554   -0.0005    0.0049 C   0  0  0  0  0  0  0  0  0  0  0  0
   80.4309   -0.0099   -0.0041 C   0  0  0  0  0  0  0  0  0  0  0  0
   85.5711    0.0108    0.0103 C   0  0  0  0  0  0  0  0  0  0  0  0
   86.7957    0.0054    0.0086 C   0  0  0  0  0  0  0  0  0  0  0  0
  100.2668   -0.0029    0.0003 C   0  0  0  0  0  0  0  0  0  0  0  0
   99.0378   -0.0015   -0.0005 C   0  0  0  0  0  0  0  0  0  0  0  0
   97.6944   -0.0026   -0.0030 C   0  0  0  0  0  0  0  0  0  0  0  0
   96.4698   -0.0050   -0.0073 C   0  0  0  0  0  0  0  0  0  0  0  0
  101.6102   -0.0058   -0.0019 C   0  0  0  0  0  0  0  0  0  0  0  0
  102.8347   -0.0102   -0.0054 C   0  0  0  0  0  0  0  0  0  0  0  0
  116.3036    0.0301    0.0012 C   0  0  0  0  0  0  0  0  0  0  0  0
  115.0753    0.0289    0.0035 C   0  0  0  0  0  0  0  0  0  0  0  0
  113.7311    0.0244   -0.0007 C   0  0  0  0  0  0  0  0  0  0  0  0
  112.5070    0.0174   -0.0078 C   0  0  0  0  0  0  0  0  0  0  0  0
  117.6480    0.0260    0.0000 C   0  0  0  0  0  0  0  0  0  0  0  0
  118.8718    0.0154    0.0013 C   0  0  0  0  0  0  0  0  0  0  0  0
   72.1646   -0.0596   -0.0179 C   0  0  0  0  0  0  0  0  0  0  0  0
   72.7868    0.8476   -0.8971 C   0  0  0  0  0  0  0  0  0  0  0  0
   72.1335    1.7705   -1.7542 C   0  0  0  0  0  0  0  0  0  0  0  0
   73.0940    2.4362   -2.4655 C   0  0  0  0  0  0  0  0  0  0  0  0
   74.3623    1.9326   -2.0671 C   0  0  0  0  0  0  0  0  0  0  0  0
   74.1263    0.9839   -1.1090 N   0  0  0  0  0  0  0  0  0  0  0  0
   75.6191    2.3318   -2.5392 C   0  0  0  0  0  0  0  0  0  0  0  0
   75.6231    3.3437   -3.6234 C   0  0  0  0  0  0  0  0  0  0  0  0
   75.0182    3.0656   -4.8515 C   0  0  0  0  0  0  0  0  0  0  0  0
   75.0228    4.0036   -5.8681 C   0  0  0  0  0  0  0  0  0  0  0  0
   75.6303    5.2472   -5.6712 C   0  0  0  0  0  0  0  0  0  0  0  0
   75.6342    6.2160   -6.7143 C   0  0  0  0  0  0  0  0  0  0  0  0
   75.6373    6.9990   -7.5577 N   0  0  0  0  0  0  0  0  0  0  0  0
   76.2335    5.5321   -4.4425 C   0  0  0  0  0  0  0  0  0  0  0  0
   76.2304    4.5870   -3.4325 C   0  0  0  0  0  0  0  0  0  0  0  0
   76.8481    1.8577   -2.0779 C   0  0  0  0  0  0  0  0  0  0  0  0
   78.1303    2.2588   -2.6294 C   0  0  0  0  0  0  0  0  0  0  0  0
   79.0729    1.6050   -1.9197 C   0  0  0  0  0  0  0  0  0  0  0  0
   77.0326    0.9593   -1.0714 N   0  0  0  0  0  0  0  0  0  0  0  0
   78.3650    0.7969   -0.9464 C   0  0  0  0  0  0  0  0  0  0  0  0
   79.0268   -0.0254   -0.0119 C   0  0  0  0  0  0  0  0  0  0  0  0
   78.4041   -0.8776    0.9210 C   0  0  0  0  0  0  0  0  0  0  0  0
   79.0567   -1.6948    1.8798 C   0  0  0  0  0  0  0  0  0  0  0  0
   78.0962   -2.3832    2.5692 C   0  0  0  0  0  0  0  0  0  0  0  0
   76.8285   -2.0114    2.0442 C   0  0  0  0  0  0  0  0  0  0  0  0
   77.0652   -1.0909    1.0585 N   0  0  0  0  0  0  0  0  0  0  0  0
   75.5719   -2.4725    2.4556 C   0  0  0  0  0  0  0  0  0  0  0  0
   75.5654   -3.5074    3.5179 C   0  0  0  0  0  0  0  0  0  0  0  0
   76.1787   -4.7444    3.3062 C   0  0  0  0  0  0  0  0  0  0  0  0
   76.1719   -5.7128    4.2941 C   0  0  0  0  0  0  0  0  0  0  0  0
   75.5537   -5.4572    5.5217 C   0  0  0  0  0  0  0  0  0  0  0  0
   75.5483   -6.4498    6.5421 C   0  0  0  0  0  0  0  0  0  0  0  0
   75.5440   -7.2520    7.3670 N   0  0  0  0  0  0  0  0  0  0  0  0
   74.9413   -4.2194    5.7398 C   0  0  0  0  0  0  0  0  0  0  0  0
   74.9466   -3.2581    4.7452 C   0  0  0  0  0  0  0  0  0  0  0  0
   74.3431   -2.0402    1.9530 C   0  0  0  0  0  0  0  0  0  0  0  0
   73.0620   -2.5857    2.3658 C   0  0  0  0  0  0  0  0  0  0  0  0
   72.1192   -1.9099    1.6772 C   0  0  0  0  0  0  0  0  0  0  0  0
   72.8260   -0.9627    0.8379 C   0  0  0  0  0  0  0  0  0  0  0  0
   74.1586   -1.0721    1.0143 N   0  0  0  0  0  0  0  0  0  0  0  0
   71.0654    1.9041   -1.8106 H   0  0  0  0  0  0  0  0  0  0  0  0
   72.9395    3.2147   -3.1946 H   0  0  0  0  0  0  0  0  0  0  0  0
   74.8497    0.4611   -0.6267 H   0  0  0  0  0  0  0  0  0  0  0  0
   74.5572    2.0975   -5.0128 H   0  0  0  0  0  0  0  0  0  0  0  0
   74.5576    3.7776   -6.8205 H   0  0  0  0  0  0  0  0  0  0  0  0
   76.7018    6.4966   -4.2851 H   0  0  0  0  0  0  0  0  0  0  0  0
   76.6886    4.8160   -2.4771 H   0  0  0  0  0  0  0  0  0  0  0  0
   78.2685    2.9373   -3.4554 H   0  0  0  0  0  0  0  0  0  0  0  0
   80.1448    1.6407   -2.0304 H   0  0  0  0  0  0  0  0  0  0  0  0
   80.1245   -1.7404    2.0209 H   0  0  0  0  0  0  0  0  0  0  0  0
   78.2504   -3.0797    3.3770 H   0  0  0  0  0  0  0  0  0  0  0  0
   76.3421   -0.6325    0.5142 H   0  0  0  0  0  0  0  0  0  0  0  0
   76.6480   -4.9516    2.3510 H   0  0  0  0  0  0  0  0  0  0  0  0
   76.6438   -6.6726    4.1197 H   0  0  0  0  0  0  0  0  0  0  0  0
   74.4643   -4.0165    6.6915 H   0  0  0  0  0  0  0  0  0  0  0  0
   74.4811   -2.2952    4.9222 H   0  0  0  0  0  0  0  0  0  0  0  0
   72.9248   -3.3856    3.0751 H   0  0  0  0  0  0  0  0  0  0  0  0
   71.0479   -2.0275    1.7089 H   0  0  0  0  0  0  0  0  0  0  0  0
   88.1998   -0.0001    0.0013 C   0  0  0  0  0  0  0  0  0  0  0  0
   88.8257    0.8876   -0.8956 C   0  0  0  0  0  0  0  0  0  0  0  0
   88.1763    1.8003   -1.7661 C   0  0  0  0  0  0  0  0  0  0  0  0
   89.1399    2.4566   -2.4822 C   0  0  0  0  0  0  0  0  0  0  0  0
   90.4063    1.9563   -2.0741 C   0  0  0  0  0  0  0  0  0  0  0  0
   90.1659    1.0185   -1.1060 N   0  0  0  0  0  0  0  0  0  0  0  0
   91.6651    2.3499   -2.5454 C   0  0  0  0  0  0  0  0  0  0  0  0
   91.6743    3.3575   -3.6336 C   0  0  0  0  0  0  0  0  0  0  0  0
   91.0732    3.0770   -4.8630 C   0  0  0  0  0  0  0  0  0  0  0  0
   91.0827    4.0125   -5.8820 C   0  0  0  0  0  0  0  0  0  0  0  0
   91.6914    5.2557   -5.6862 C   0  0  0  0  0  0  0  0  0  0  0  0
   91.6998    6.2221   -6.7316 C   0  0  0  0  0  0  0  0  0  0  0  0
   91.7052    7.0026   -7.5771 N   0  0  0  0  0  0  0  0  0  0  0  0
   92.2913    5.5428   -4.4565 C   0  0  0  0  0  0  0  0  0  0  0  0
   92.2833    4.6002   -3.4440 C   0  0  0  0  0  0  0  0  0  0  0  0
   92.8926    1.8753   -2.0801 C   0  0  0  0  0  0  0  0  0  0  0  0
   94.1758    2.2690   -2.6345 C   0  0  0  0  0  0  0  0  0  0  0  0
   95.1166    1.6137   -1.9236 C   0  0  0  0  0  0  0  0  0  0  0  0
   93.0745    0.9810   -1.0696 N   0  0  0  0  0  0  0  0  0  0  0  0
   94.4065    0.8130   -0.9460 C   0  0  0  0  0  0  0  0  0  0  0  0
   95.0658   -0.0097   -0.0101 C   0  0  0  0  0  0  0  0  0  0  0  0
   94.4398   -0.8520    0.9298 C   0  0  0  0  0  0  0  0  0  0  0  0
   95.0896   -1.6707    1.8890 C   0  0  0  0  0  0  0  0  0  0  0  0
   94.1260   -2.3446    2.5885 C   0  0  0  0  0  0  0  0  0  0  0  0
   92.8592   -1.9615    2.0696 C   0  0  0  0  0  0  0  0  0  0  0  0
   93.0995   -1.0501    1.0767 N   0  0  0  0  0  0  0  0  0  0  0  0
   91.6002   -2.4044    2.4944 C   0  0  0  0  0  0  0  0  0  0  0  0
   91.5909   -3.4323    3.5636 C   0  0  0  0  0  0  0  0  0  0  0  0
   92.1843   -4.6790    3.3520 C   0  0  0  0  0  0  0  0  0  0  0  0
   92.1741   -5.6421    4.3450 C   0  0  0  0  0  0  0  0  0  0  0  0
   91.5727   -5.3712    5.5776 C   0  0  0  0  0  0  0  0  0  0  0  0
   91.5633   -6.3588    6.6030 C   0  0  0  0  0  0  0  0  0  0  0  0
   91.5555   -7.1571    7.4317 N   0  0  0  0  0  0  0  0  0  0  0  0
   90.9808   -4.1236    5.7958 C   0  0  0  0  0  0  0  0  0  0  0  0
   90.9892   -3.1675    4.7961 C   0  0  0  0  0  0  0  0  0  0  0  0
   90.3726   -1.9631    1.9979 C   0  0  0  0  0  0  0  0  0  0  0  0
   89.0890   -2.4886    2.4279 C   0  0  0  0  0  0  0  0  0  0  0  0
   88.1483   -1.8144    1.7348 C   0  0  0  0  0  0  0  0  0  0  0  0
   88.8589   -0.8882    0.8756 C   0  0  0  0  0  0  0  0  0  0  0  0
   90.1910   -1.0062    1.0463 N   0  0  0  0  0  0  0  0  0  0  0  0
   87.1085    1.9350   -1.8270 H   0  0  0  0  0  0  0  0  0  0  0  0
   88.9884    3.2269   -3.2206 H   0  0  0  0  0  0  0  0  0  0  0  0
   90.8870    0.5005   -0.6151 H   0  0  0  0  0  0  0  0  0  0  0  0
   90.6115    2.1092   -5.0234 H   0  0  0  0  0  0  0  0  0  0  0  0
   90.6202    3.7849   -6.8352 H   0  0  0  0  0  0  0  0  0  0  0  0
   92.7609    6.5068   -4.2999 H   0  0  0  0  0  0  0  0  0  0  0  0
   92.7391    4.8307   -2.4878 H   0  0  0  0  0  0  0  0  0  0  0  0
   94.3160    2.9436   -3.4634 H   0  0  0  0  0  0  0  0  0  0  0  0
   96.1885    1.6443   -2.0358 H   0  0  0  0  0  0  0  0  0  0  0  0
   96.1576   -1.7273    2.0236 H   0  0  0  0  0  0  0  0  0  0  0  0
   94.2776   -3.0381    3.3993 H   0  0  0  0  0  0  0  0  0  0  0  0
   92.3783   -0.5873    0.5337 H   0  0  0  0  0  0  0  0  0  0  0  0
   92.6403   -4.8977    2.3930 H   0  0  0  0  0  0  0  0  0  0  0  0
   92.6304   -6.6095    4.1708 H   0  0  0  0  0  0  0  0  0  0  0  0
   90.5170   -3.9089    6.7514 H   0  0  0  0  0  0  0  0  0  0  0  0
   90.5396   -2.1971    4.9728 H   0  0  0  0  0  0  0  0  0  0  0  0
   88.9485   -3.2756    3.1509 H   0  0  0  0  0  0  0  0  0  0  0  0
   87.0762   -1.9209    1.7756 H   0  0  0  0  0  0  0  0  0  0  0  0
  104.2389   -0.0121   -0.0119 C   0  0  0  0  0  0  0  0  0  0  0  0
  104.8623    0.8802   -0.9059 C   0  0  0  0  0  0  0  0  0  0  0  0
  104.2097    1.7911   -1.7762 C   0  0  0  0  0  0  0  0  0  0  0  0
  105.1712    2.4563   -2.4867 C   0  0  0  0  0  0  0  0  0  0  0  0
  106.4397    1.9637   -2.0752 C   0  0  0  0  0  0  0  0  0  0  0  0
  106.2022    1.0205   -1.1115 N   0  0  0  0  0  0  0  0  0  0  0  0
  107.6973    2.3703   -2.5376 C   0  0  0  0  0  0  0  0  0  0  0  0
  107.7049    3.3850   -3.6193 C   0  0  0  0  0  0  0  0  0  0  0  0
  107.1160    3.1067   -4.8550 C   0  0  0  0  0  0  0  0  0  0  0  0
  107.1252    4.0484   -5.8682 C   0  0  0  0  0  0  0  0  0  0  0  0
  107.7213    5.2957   -5.6601 C   0  0  0  0  0  0  0  0  0  0  0  0
  107.7300    6.2682   -6.6998 C   0  0  0  0  0  0  0  0  0  0  0  0
  107.7370    7.0538   -7.5405 N   0  0  0  0  0  0  0  0  0  0  0  0
  108.3085    5.5807   -4.4238 C   0  0  0  0  0  0  0  0  0  0  0  0
  108.3010    4.6319   -3.4172 C   0  0  0  0  0  0  0  0  0  0  0  0
  108.9262    1.9020   -2.0688 C   0  0  0  0  0  0  0  0  0  0  0  0
  110.2093    2.3106   -2.6124 C   0  0  0  0  0  0  0  0  0  0  0  0
  111.1511    1.6548   -1.9035 C   0  0  0  0  0  0  0  0  0  0  0  0
  109.1090    0.9994   -1.0663 N   0  0  0  0  0  0  0  0  0  0  0  0
  110.4417    0.8386   -0.9381 C   0  0  0  0  0  0  0  0  0  0  0  0
  111.1019    0.0061   -0.0124 C   0  0  0  0  0  0  0  0  0  0  0  0
  110.4791   -0.8505    0.9157 C   0  0  0  0  0  0  0  0  0  0  0  0
  111.1317   -1.6760    1.8673 C   0  0  0  0  0  0  0  0  0  0  0  0
  110.1703   -2.3564    2.5633 C   0  0  0  0  0  0  0  0  0  0  0  0
  108.9020   -1.9710    2.0497 C   0  0  0  0  0  0  0  0  0  0  0  0
  109.1392   -1.0525    1.0628 N   0  0  0  0  0  0  0  0  0  0  0  0
  107.6440   -2.4163    2.4752 C   0  0  0  0  0  0  0  0  0  0  0  0
  107.6371   -3.4459    3.5429 C   0  0  0  0  0  0  0  0  0  0  0  0
  108.2309   -4.6921    3.3293 C   0  0  0  0  0  0  0  0  0  0  0  0
  108.2243   -5.6554    4.3221 C   0  0  0  0  0  0  0  0  0  0  0  0
  107.6259   -5.3855    5.5564 C   0  0  0  0  0  0  0  0  0  0  0  0
  107.6204   -6.3731    6.5816 C   0  0  0  0  0  0  0  0  0  0  0  0
  107.6173   -7.1719    7.4099 N   0  0  0  0  0  0  0  0  0  0  0  0
  107.0332   -4.1385    5.7763 C   0  0  0  0  0  0  0  0  0  0  0  0
  107.0381   -3.1822    4.7769 C   0  0  0  0  0  0  0  0  0  0  0  0
  106.4156   -1.9742    1.9815 C   0  0  0  0  0  0  0  0  0  0  0  0
  105.1329   -2.5025    2.4112 C   0  0  0  0  0  0  0  0  0  0  0  0
  104.1910   -1.8288    1.7192 C   0  0  0  0  0  0  0  0  0  0  0  0
  104.8999   -0.8997    0.8614 C   0  0  0  0  0  0  0  0  0  0  0  0
  106.2321   -1.0157    1.0319 N   0  0  0  0  0  0  0  0  0  0  0  0
  103.1413    1.9186   -1.8405 H   0  0  0  0  0  0  0  0  0  0  0  0
  105.0173    3.2277   -3.2234 H   0  0  0  0  0  0  0  0  0  0  0  0
  106.9253    0.5061   -0.6197 H   0  0  0  0  0  0  0  0  0  0  0  0
  106.6643    2.1358   -5.0249 H   0  0  0  0  0  0  0  0  0  0  0  0
  106.6725    3.8224   -6.8266 H   0  0  0  0  0  0  0  0  0  0  0  0
  108.7682    6.5479   -4.2577 H   0  0  0  0  0  0  0  0  0  0  0  0
  108.7472    4.8606   -2.4560 H   0  0  0  0  0  0  0  0  0  0  0  0
  110.3489    2.9947   -3.4336 H   0  0  0  0  0  0  0  0  0  0  0  0
  112.2232    1.6940   -2.0100 H   0  0  0  0  0  0  0  0  0  0  0  0
  112.2000   -1.7320    1.9997 H   0  0  0  0  0  0  0  0  0  0  0  0
  110.3244   -3.0558    3.3687 H   0  0  0  0  0  0  0  0  0  0  0  0
  108.4161   -0.5863    0.5252 H   0  0  0  0  0  0  0  0  0  0  0  0
  108.6846   -4.9101    2.3690 H   0  0  0  0  0  0  0  0  0  0  0  0
  108.6811   -6.6223    4.1464 H   0  0  0  0  0  0  0  0  0  0  0  0
  106.5716   -3.9246    6.7332 H   0  0  0  0  0  0  0  0  0  0  0  0
  106.5880   -2.2123    4.9551 H   0  0  0  0  0  0  0  0  0  0  0  0
  104.9939   -3.2908    3.1329 H   0  0  0  0  0  0  0  0  0  0  0  0
  103.1190   -1.9371    1.7600 H   0  0  0  0  0  0  0  0  0  0  0  0
  1  2  4  0  0  0  0
  2  3  4  0  0  0  0
  3  4  2  0  0  0  0
  4  5  4  0  0  0  0
  2  6  4  0  0  0  0
  5  6  4  0  0  0  0
  5  7  4  0  0  0  0
  7  8  1  0  0  0  0
  8  9  4  0  0  0  0
  9 10  4  0  0  0  0
 10 11  4  0  0  0  0
 11 12  1  0  0  0  0
 12 13  3  0  0  0  0
 11 14  4  0  0  0  0
  8 15  4  0  0  0  0
 14 15  4  0  0  0  0
  7 16  4  0  0  0  0
 16 17  1  0  0  0  0
 17 18  2  0  0  0  0
 16 19  4  0  0  0  0
 18 20  1  0  0  0  0
 19 20  4  0  0  0  0
 20 21  4  0  0  0  0
 21 22  4  0  0  0  0
 22 23  4  0  0  0  0
 23 24  2  0  0  0  0
 24 25  4  0  0  0  0
 22 26  4  0  0  0  0
 25 26  4  0  0  0  0
 25 27  4  0  0  0  0
 27 28  1  0  0  0  0
 28 29  4  0  0  0  0
 29 30  4  0  0  0  0
 30 31  4  0  0  0  0
 31 32  1  0  0  0  0
 32 33  3  0  0  0  0
 31 34  4  0  0  0  0
 28 35  4  0  0  0  0
 34 35  4  0  0  0  0
 27 36  4  0  0  0  0
 36 37  1  0  0  0  0
 37 38  2  0  0  0  0
  1 39  4  0  0  0  0
 38 39  1  0  0  0  0
 36 40  4  0  0  0  0
 39 40  4  0  0  0  0
  1 41  1  0  0  0  0
  3 42  1  0  0  0  0
  4 43  1  0  0  0  0
  6 44  1  0  0  0  0
  9 45  1  0  0  0  0
 10 46  1  0  0  0  0
 14 47  1  0  0  0  0
 15 48  1  0  0  0  0
 17 49  1  0  0  0  0
 18 50  1  0  0  0  0
 23 51  1  0  0  0  0
 24 52  1  0  0  0  0
 26 53  1  0  0  0  0
 29 54  1  0  0  0  0
 30 55  1  0  0  0  0
 34 56  1  0  0  0  0
 35 57  1  0  0  0  0
 37 58  1  0  0  0  0
 38 59  1  0  0  0  0
 60 61  4  0  0  0  0
 61 62  4  0  0  0  0
 62 63  2  0  0  0  0
 63 64  4  0  0  0  0
 61 65  4  0  0  0  0
 64 65  4  0  0  0  0
 64 66  4  0  0  0  0
 66 67  1  0  0  0  0
 67 68  4  0  0  0  0
 68 69  4  0  0  0  0
 69 70  4  0  0  0  0
 70 71  1  0  0  0  0
 71 72  3  0  0  0  0
 70 73  4  0  0  0  0
 67 74  4  0  0  0  0
 73 74  4  0  0  0  0
 66 75  4  0  0  0  0
 75 76  1  0  0  0  0
 76 77  2  0  0  0  0
 75 78  4  0  0  0  0
 77 79  1  0  0  0  0
 78 79  4  0  0  0  0
 79 80  4  0  0  0  0
 80 81  4  0  0  0  0
 81 82  4  0  0  0  0
 82 83  2  0  0  0  0
 83 84  4  0  0  0  0
 81 85  4  0  0  0  0
 84 85  4  0  0  0  0
 84 86  4  0  0  0  0
 86 87  1  0  0  0  0
 87 88  4  0  0  0  0
 88 89  4  0  0  0  0
 89 90  4  0  0  0  0
 90 91  1  0  0  0  0
 91 92  3  0  0  0  0
 90 93  4  0  0  0  0
 87 94  4  0  0  0  0
 93 94  4  0  0  0  0
 86 95  4  0  0  0  0
 95 96  1  0  0  0  0
 96 97  2  0  0  0  0
 60 98  4  0  0  0  0
 97 98  1  0  0  0  0
 95 99  4  0  0  0  0
 98 99  4  0  0  0  0
 60100  1  0  0  0  0
 62101  1  0  0  0  0
 63102  1  0  0  0  0
 65103  1  0  0  0  0
 68104  1  0  0  0  0
 69105  1  0  0  0  0
 73106  1  0  0  0  0
 74107  1  0  0  0  0
 76108  1  0  0  0  0
 77109  1  0  0  0  0
 82110  1  0  0  0  0
 83111  1  0  0  0  0
 85112  1  0  0  0  0
 88113  1  0  0  0  0
 89114  1  0  0  0  0
 93115  1  0  0  0  0
 94116  1  0  0  0  0
 96117  1  0  0  0  0
 97118  1  0  0  0  0
119120  3  0  0  0  0
120121  4  0  0  0  0
 21122  4  0  0  0  0
121122  3  0  0  0  0
119123  4  0  0  0  0
123124  3  0  0  0  0
125126  3  0  0  0  0
126127  4  0  0  0  0
127128  3  0  0  0  0
125129  4  0  0  0  0
129130  3  0  0  0  0
131132  3  0  0  0  0
132133  4  0  0  0  0
133134  3  0  0  0  0
131135  4  0  0  0  0
135136  3  0  0  0  0
137138  3  0  0  0  0
138139  4  0  0  0  0
139140  3  0  0  0  0
137141  4  0  0  0  0
 80142  4  0  0  0  0
141142  3  0  0  0  0
124143  4  0  0  0  0
143144  4  0  0  0  0
144145  4  0  0  0  0
145146  2  0  0  0  0
146147  4  0  0  0  0
144148  4  0  0  0  0
147148  4  0  0  0  0
147149  4  0  0  0  0
149150  1  0  0  0  0
150151  4  0  0  0  0
151152  4  0  0  0  0
152153  4  0  0  0  0
153154  1  0  0  0  0
154155  3  0  0  0  0
153156  4  0  0  0  0
150157  4  0  0  0  0
156157  4  0  0  0  0
149158  4  0  0  0  0
158159  1  0  0  0  0
159160  2  0  0  0  0
158161  4  0  0  0  0
160162  1  0  0  0  0
161162  4  0  0  0  0
128163  4  0  0  0  0
162163  4  0  0  0  0
163164  4  0  0  0  0
164165  4  0  0  0  0
165166  2  0  0  0  0
166167  4  0  0  0  0
164168  4  0  0  0  0
167168  4  0  0  0  0
167169  4  0  0  0  0
169170  1  0  0  0  0
170171  4  0  0  0  0
171172  4  0  0  0  0
172173  4  0  0  0  0
173174  1  0  0  0  0
174175  3  0  0  0  0
173176  4  0  0  0  0
170177  4  0  0  0  0
176177  4  0  0  0  0
169178  4  0  0  0  0
178179  1  0  0  0  0
179180  2  0  0  0  0
143181  4  0  0  0  0
180181  1  0  0  0  0
178182  4  0  0  0  0
181182  4  0  0  0  0
145183  1  0  0  0  0
146184  1  0  0  0  0
148185  1  0  0  0  0
151186  1  0  0  0  0
152187  1  0  0  0  0
156188  1  0  0  0  0
157189  1  0  0  0  0
159190  1  0  0  0  0
160191  1  0  0  0  0
165192  1  0  0  0  0
166193  1  0  0  0  0
168194  1  0  0  0  0
171195  1  0  0  0  0
172196  1  0  0  0  0
176197  1  0  0  0  0
177198  1  0  0  0  0
179199  1  0  0  0  0
180200  1  0  0  0  0
130201  4  0  0  0  0
201202  4  0  0  0  0
202203  4  0  0  0  0
203204  2  0  0  0  0
204205  4  0  0  0  0
202206  4  0  0  0  0
205206  4  0  0  0  0
205207  4  0  0  0  0
207208  1  0  0  0  0
208209  4  0  0  0  0
209210  4  0  0  0  0
210211  4  0  0  0  0
211212  1  0  0  0  0
212213  3  0  0  0  0
211214  4  0  0  0  0
208215  4  0  0  0  0
214215  4  0  0  0  0
207216  4  0  0  0  0
216217  1  0  0  0  0
217218  2  0  0  0  0
216219  4  0  0  0  0
218220  1  0  0  0  0
219220  4  0  0  0  0
134221  4  0  0  0  0
220221  4  0  0  0  0
221222  4  0  0  0  0
222223  4  0  0  0  0
223224  2  0  0  0  0
224225  4  0  0  0  0
222226  4  0  0  0  0
225226  4  0  0  0  0
225227  4  0  0  0  0
227228  1  0  0  0  0
228229  4  0  0  0  0
229230  4  0  0  0  0
230231  4  0  0  0  0
231232  1  0  0  0  0
232233  3  0  0  0  0
231234  4  0  0  0  0
228235  4  0  0  0  0
234235  4  0  0  0  0
227236  4  0  0  0  0
236237  1  0  0  0  0
237238  2  0  0  0  0
201239  4  0  0  0  0
238239  1  0  0  0  0
236240  4  0  0  0  0
239240  4  0  0  0  0
203241  1  0  0  0  0
204242  1  0  0  0  0
206243  1  0  0  0  0
209244  1  0  0  0  0
210245  1  0  0  0  0
214246  1  0  0  0  0
215247  1  0  0  0  0
217248  1  0  0  0  0
218249  1  0  0  0  0
223250  1  0  0  0  0
224251  1  0  0  0  0
226252  1  0  0  0  0
229253  1  0  0  0  0
230254  1  0  0  0  0
234255  1  0  0  0  0
235256  1  0  0  0  0
237257  1  0  0  0  0
238258  1  0  0  0  0
136259  4  0  0  0  0
259260  4  0  0  0  0
260261  4  0  0  0  0
261262  2  0  0  0  0
262263  4  0  0  0  0
260264  4  0  0  0  0
263264  4  0  0  0  0
263265  4  0  0  0  0
265266  1  0  0  0  0
266267  4  0  0  0  0
267268  4  0  0  0  0
268269  4  0  0  0  0
269270  1  0  0  0  0
270271  3  0  0  0  0
269272  4  0  0  0  0
266273  4  0  0  0  0
272273  4  0  0  0  0
265274  4  0  0  0  0
274275  1  0  0  0  0
275276  2  0  0  0  0
274277  4  0  0  0  0
276278  1  0  0  0  0
277278  4  0  0  0  0
140279  4  0  0  0  0
278279  4  0  0  0  0
279280  4  0  0  0  0
280281  4  0  0  0  0
281282  2  0  0  0  0
282283  4  0  0  0  0
280284  4  0  0  0  0
283284  4  0  0  0  0
283285  4  0  0  0  0
285286  1  0  0  0  0
286287  4  0  0  0  0
287288  4  0  0  0  0
288289  4  0  0  0  0
289290  1  0  0  0  0
290291  3  0  0  0  0
289292  4  0  0  0  0
286293  4  0  0  0  0
292293  4  0  0  0  0
285294  4  0  0  0  0
294295  1  0  0  0  0
295296  2  0  0  0  0
259297  4  0  0  0  0
296297  1  0  0  0  0
294298  4  0  0  0  0
297298  4  0  0  0  0
261299  1  0  0  0  0
262300  1  0  0  0  0
264301  1  0  0  0  0
267302  1  0  0  0  0
268303  1  0  0  0  0
272304  1  0  0  0  0
273305  1  0  0  0  0
275306  1  0  0  0  0
276307  1  0  0  0  0
281308  1  0  0  0  0
282309  1  0  0  0  0
284310  1  0  0  0  0
287311  1  0  0  0  0
288312  1  0  0  0  0
292313  1  0  0  0  0
293314  1  0  0  0  0
295315  1  0  0  0  0
296316  1  0  0  0  0
M  END
