166

Cu 16.134297 0.028145 0.029536
C 12.760640 -0.081487 -0.080516
C 13.433546 -0.896271 -0.898968
C 12.804845 -1.826694 -1.833495
C 13.765668 -2.468000 -2.477678
C 15.048790 -1.974290 -1.981823
N 14.854604 -0.978729 -0.981845
C 16.237028 -2.405163 -2.414584
C 17.536712 -1.913744 -1.920937
C 18.816395 -2.411938 -2.421061
C 19.772145 -1.770698 -1.776950
N 17.690331 -1.004806 -1.008118
C 19.101619 -0.854958 -0.857428
C 19.710349 -0.008546 -0.007328
C 18.962535 0.897385 0.902411
C 19.533940 1.744369 1.753009
C 18.471849 2.441728 2.453408
C 17.325491 1.975606 1.985317
N 17.537965 0.978988 0.984393
C 16.010196 2.446012 2.457898
C 14.843323 1.988592 1.998566
C 13.535507 2.437895 2.450050
C 12.654479 1.743260 1.752436
C 13.401388 0.854470 0.859565
N 14.682737 0.991249 0.996784
H 11.677529 -0.104012 -0.103068
H 11.743427 -1.976406 -1.983822
H 13.612003 -3.223973 -3.236981
H 16.256726 -3.169647 -3.182425
H 18.967275 -3.168068 -3.180357
H 20.833818 -1.917483 -1.924150
H 20.593571 1.896620 1.905905
H 18.591657 3.200837 3.215823
H 15.993566 3.210902 3.226187
H 13.311768 3.184975 3.200518
H 11.578822 1.826215 1.835933
Cu 72.812506 -0.060493 -0.004741
C 76.186163 0.094659 -0.012399
C 75.513257 1.248110 -0.069713
C 76.141958 2.565211 -0.135100
C 75.181135 3.473071 -0.180204
C 73.898013 2.774201 -0.145532
N 74.092199 1.364875 -0.075549
C 72.709775 3.384133 -0.175803
C 71.410091 2.688443 -0.141223
C 70.130408 3.393503 -0.176037
C 69.174658 2.485740 -0.130941
N 71.256472 1.401843 -0.077441
C 69.845184 1.189598 -0.066776
C 69.236454 -0.008546 -0.007328
C 69.984268 -1.290849 0.056198
C 69.412863 -2.489752 0.115630
C 70.474954 -3.476903 0.164611
C 71.621312 -2.817123 0.131918
N 71.408838 -1.406378 0.061946
C 72.936606 -3.483094 0.165050
C 74.103480 -2.835644 0.132984
C 75.411296 -3.471809 0.164706
C 76.292324 -2.488545 0.115952
C 75.545415 -1.230273 0.053373
N 74.264066 -1.423787 0.062865
H 77.269274 0.126496 -0.013929
H 77.203376 2.777112 -0.145587
H 75.334800 4.543217 -0.233327
H 72.690077 4.466321 -0.229516
H 69.979528 4.463761 -0.229048
H 68.112985 2.693371 -0.141084
H 68.353232 -2.705259 0.126310
H 70.355146 -4.551463 0.217927
H 72.953237 -4.565883 0.218823
H 75.635035 -4.529432 0.217276
H 77.367981 -2.606094 0.121912
C 22.489416 0.001274 -0.000458
C 23.947642 -0.020562 -0.018332
C 25.081570 -0.041316 -0.019822
C 26.442952 -0.053906 -0.022014
C 27.717171 -0.043599 -0.026779
C 28.905633 -0.024801 -0.032935
C 30.257994 -0.000017 -0.017067
C 31.358262 0.001274 -0.000458
C 39.997519 0.001274 -0.000458
C 41.455746 -0.020562 -0.018332
C 42.589674 -0.041316 -0.019822
C 43.951056 -0.053906 -0.022014
C 45.225274 -0.043599 -0.026779
C 46.413737 -0.024801 -0.032935
C 47.766098 -0.000017 -0.017067
C 48.866365 0.001274 -0.000458
C 57.505623 0.001274 -0.000458
C 58.963849 -0.020562 -0.018332
C 60.097777 -0.041316 -0.019822
C 61.459159 -0.053906 -0.022014
C 62.733378 -0.043599 -0.026779
C 63.921840 -0.024801 -0.032935
C 65.274201 -0.000017 -0.017067
C 66.374468 0.001274 -0.000458
Cu 35.674207 -0.045868 -0.040520
C 32.240755 0.008354 0.007694
C 32.907288 0.881787 0.784925
C 32.282975 1.873778 1.667614
C 33.241347 2.552344 2.271491
C 34.522556 2.032116 1.808624
N 34.330465 0.976538 0.869309
C 35.704941 2.497168 2.222500
C 37.014616 1.993980 1.774767
C 38.281259 2.538908 2.259775
C 39.253439 1.873476 1.667609
N 37.190593 1.034539 0.920912
C 38.605808 0.895818 0.797510
C 39.234857 0.008354 0.007694
C 38.504934 -0.957182 -0.851611
C 39.091677 -1.847981 -1.644485
C 38.041606 -2.595306 -2.309491
C 36.887426 -2.111916 -1.879158
N 37.081737 -1.055785 -0.939226
C 35.582348 -2.621900 -2.332832
C 34.403165 -2.154229 -1.916581
C 33.116053 -2.656176 -2.363110
C 32.209484 -1.940541 -1.726316
C 32.917174 -0.978134 -0.870058
N 34.204679 -1.100217 -0.978763
H 31.225605 2.044501 1.819479
H 33.086083 3.352677 2.983665
H 35.711350 3.306832 2.942995
H 38.412404 3.341328 2.973895
H 40.311243 2.042866 1.818396
H 40.153982 -1.999082 -1.779061
H 38.174197 -3.397887 -3.023766
H 35.583877 -3.432015 -3.053693
H 32.921552 -3.451645 -3.070879
H 31.140122 -2.061515 -1.833888
Cu 53.182310 -0.045868 -0.040520
C 49.748858 0.008354 0.007694
C 50.415392 0.881787 0.784925
C 49.791078 1.873778 1.667614
C 50.749450 2.552344 2.271491
C 52.030660 2.032116 1.808624
N 51.838569 0.976538 0.869309
C 53.213044 2.497168 2.222500
C 54.522719 1.993980 1.774767
C 55.789362 2.538908 2.259775
C 56.761542 1.873476 1.667609
N 54.698696 1.034539 0.920912
C 56.113912 0.895818 0.797510
C 56.742961 0.008354 0.007694
C 56.013037 -0.957182 -0.851611
C 56.599780 -1.847981 -1.644485
C 55.549709 -2.595306 -2.309491
C 54.395529 -2.111916 -1.879158
N 54.589840 -1.055785 -0.939226
C 53.090451 -2.621900 -2.332832
C 51.911268 -2.154229 -1.916581
C 50.624156 -2.656176 -2.363110
C 49.717588 -1.940541 -1.726316
C 50.425277 -0.978134 -0.870058
N 51.712782 -1.100217 -0.978763
H 48.733709 2.044501 1.819479
H 50.594187 3.352677 2.983665
H 53.219453 3.306832 2.942995
H 55.920507 3.341328 2.973895
H 57.819346 2.042866 1.818396
H 57.662085 -1.999082 -1.779061
H 55.682300 -3.397887 -3.023766
H 53.091980 -3.432015 -3.053693
H 50.429656 -3.451645 -3.070879
H 48.648226 -2.061515 -1.833888
