 xtb: 6.5.1 (b24c23e)
          07292222553D

256295  0     0  0            999 V2000
   44.2927    0.0048   -0.0282 Co  0  0  0  0  0  0  0  0  0  0  0  0
   40.9208    0.0571   -0.1448 C   0  0  0  0  0  0  0  0  0  0  0  0
   41.5974    1.2545   -0.2317 C   0  0  0  0  0  0  0  0  0  0  0  0
   40.9496    2.5244   -0.3600 C   0  0  0  0  0  0  0  0  0  0  0  0
   41.9081    3.4665   -0.2021 C   0  0  0  0  0  0  0  0  0  0  0  0
   43.1433    2.7704    0.0121 C   0  0  0  0  0  0  0  0  0  0  0  0
   42.9486    1.4144   -0.0513 N   0  0  0  0  0  0  0  0  0  0  0  0
   44.3264    3.3868    0.3975 C   0  0  0  0  0  0  0  0  0  0  0  0
   44.3434    4.8559    0.5890 C   0  0  0  0  0  0  0  0  0  0  0  0
   44.5595    5.4006    1.8578 C   0  0  0  0  0  0  0  0  0  0  0  0
   44.5826    6.7710    2.0323 C   0  0  0  0  0  0  0  0  0  0  0  0
   44.3948    7.6265    0.9417 C   0  0  0  0  0  0  0  0  0  0  0  0
   44.4317    9.0854    1.1528 C   0  0  0  0  0  0  0  0  0  0  0  0
   44.6183    9.6018    2.2246 O   0  0  0  0  0  0  0  0  0  0  0  0
   44.1787    7.0821   -0.3264 C   0  0  0  0  0  0  0  0  0  0  0  0
   44.1511    5.7096   -0.5000 C   0  0  0  0  0  0  0  0  0  0  0  0
   45.4976    2.6734    0.5993 C   0  0  0  0  0  0  0  0  0  0  0  0
   46.7485    3.2743    0.9547 C   0  0  0  0  0  0  0  0  0  0  0  0
   47.6934    2.3123    0.8307 C   0  0  0  0  0  0  0  0  0  0  0  0
   45.6726    1.3398    0.3044 N   0  0  0  0  0  0  0  0  0  0  0  0
   47.0187    1.1289    0.4000 C   0  0  0  0  0  0  0  0  0  0  0  0
   47.6858   -0.0349    0.0087 C   0  0  0  0  0  0  0  0  0  0  0  0
   46.9974   -1.1897   -0.3702 C   0  0  0  0  0  0  0  0  0  0  0  0
   47.6477   -2.3909   -0.7888 C   0  0  0  0  0  0  0  0  0  0  0  0
   46.6851   -3.3388   -0.8873 C   0  0  0  0  0  0  0  0  0  0  0  0
   45.4502   -2.7121   -0.5221 C   0  0  0  0  0  0  0  0  0  0  0  0
   45.6475   -1.3748   -0.2658 N   0  0  0  0  0  0  0  0  0  0  0  0
   44.2505   -3.3900   -0.3648 C   0  0  0  0  0  0  0  0  0  0  0  0
   44.2376   -4.8624   -0.5080 C   0  0  0  0  0  0  0  0  0  0  0  0
   43.4459   -5.4713   -1.4858 C   0  0  0  0  0  0  0  0  0  0  0  0
   43.4416   -6.8476   -1.6268 C   0  0  0  0  0  0  0  0  0  0  0  0
   44.2245   -7.6435   -0.7872 C   0  0  0  0  0  0  0  0  0  0  0  0
   44.2369   -9.1124   -0.9161 C   0  0  0  0  0  0  0  0  0  0  0  0
   44.8915   -9.8398   -0.2142 O   0  0  0  0  0  0  0  0  0  0  0  0
   45.0136   -7.0347    0.1943 C   0  0  0  0  0  0  0  0  0  0  0  0
   45.0229   -5.6600    0.3301 C   0  0  0  0  0  0  0  0  0  0  0  0
   43.0626   -2.7247   -0.0905 C   0  0  0  0  0  0  0  0  0  0  0  0
   41.8010   -3.3770    0.1063 C   0  0  0  0  0  0  0  0  0  0  0  0
   40.8611   -2.4039    0.1525 C   0  0  0  0  0  0  0  0  0  0  0  0
   41.5516   -1.1592    0.0030 C   0  0  0  0  0  0  0  0  0  0  0  0
   42.9059   -1.3624   -0.0856 N   0  0  0  0  0  0  0  0  0  0  0  0
   39.8380    0.0744   -0.1813 H   0  0  0  0  0  0  0  0  0  0  0  0
   39.8924    2.6565   -0.5264 H   0  0  0  0  0  0  0  0  0  0  0  0
   41.7987    4.5388   -0.2065 H   0  0  0  0  0  0  0  0  0  0  0  0
   44.6956    4.7393    2.7059 H   0  0  0  0  0  0  0  0  0  0  0  0
   44.7461    7.2031    3.0137 H   0  0  0  0  0  0  0  0  0  0  0  0
   44.2723    9.6836    0.2303 H   0  0  0  0  0  0  0  0  0  0  0  0
   44.0353    7.7389   -1.1782 H   0  0  0  0  0  0  0  0  0  0  0  0
   43.9968    5.2891   -1.4874 H   0  0  0  0  0  0  0  0  0  0  0  0
   46.8792    4.3061    1.2368 H   0  0  0  0  0  0  0  0  0  0  0  0
   48.7562    2.3850    0.9963 H   0  0  0  0  0  0  0  0  0  0  0  0
   48.7064   -2.4824   -0.9703 H   0  0  0  0  0  0  0  0  0  0  0  0
   46.7898   -4.3704   -1.1811 H   0  0  0  0  0  0  0  0  0  0  0  0
   42.8479   -4.8553   -2.1479 H   0  0  0  0  0  0  0  0  0  0  0  0
   42.8299   -7.3116   -2.3937 H   0  0  0  0  0  0  0  0  0  0  0  0
   43.5842   -9.5046   -1.7250 H   0  0  0  0  0  0  0  0  0  0  0  0
   45.6157   -7.6610    0.8438 H   0  0  0  0  0  0  0  0  0  0  0  0
   45.6276   -5.1914    1.0982 H   0  0  0  0  0  0  0  0  0  0  0  0
   41.6661   -4.4429    0.1927 H   0  0  0  0  0  0  0  0  0  0  0  0
   39.7938   -2.4997    0.2728 H   0  0  0  0  0  0  0  0  0  0  0  0
   92.1519   -0.0358   -0.0740 Co  0  0  0  0  0  0  0  0  0  0  0  0
   95.5258   -0.0710   -0.2041 C   0  0  0  0  0  0  0  0  0  0  0  0
   94.8496   -1.2469   -0.4452 C   0  0  0  0  0  0  0  0  0  0  0  0
   95.5003   -2.4885   -0.7349 C   0  0  0  0  0  0  0  0  0  0  0  0
   94.5433   -3.4445   -0.7028 C   0  0  0  0  0  0  0  0  0  0  0  0
   93.3055   -2.7835   -0.4075 C   0  0  0  0  0  0  0  0  0  0  0  0
   93.4981   -1.4306   -0.2902 N   0  0  0  0  0  0  0  0  0  0  0  0
   92.1184   -3.4464   -0.1280 C   0  0  0  0  0  0  0  0  0  0  0  0
   92.1013   -4.9280   -0.1379 C   0  0  0  0  0  0  0  0  0  0  0  0
   91.8602   -5.6388    1.0411 C   0  0  0  0  0  0  0  0  0  0  0  0
   91.8364   -7.0203    1.0288 C   0  0  0  0  0  0  0  0  0  0  0  0
   92.0487   -7.7210   -0.1630 C   0  0  0  0  0  0  0  0  0  0  0  0
   92.0091   -9.1948   -0.1521 C   0  0  0  0  0  0  0  0  0  0  0  0
   91.7995   -9.8513    0.8356 O   0  0  0  0  0  0  0  0  0  0  0  0
   92.2903   -7.0106   -1.3413 C   0  0  0  0  0  0  0  0  0  0  0  0
   92.3182   -5.6272   -1.3277 C   0  0  0  0  0  0  0  0  0  0  0  0
   90.9413   -2.7675    0.1461 C   0  0  0  0  0  0  0  0  0  0  0  0
   89.6853   -3.4147    0.3816 C   0  0  0  0  0  0  0  0  0  0  0  0
   88.7399   -2.4454    0.3803 C   0  0  0  0  0  0  0  0  0  0  0  0
   90.7687   -1.4053    0.0460 N   0  0  0  0  0  0  0  0  0  0  0  0
   89.4197   -1.2108    0.1462 C   0  0  0  0  0  0  0  0  0  0  0  0
   88.7563    0.0006   -0.0600 C   0  0  0  0  0  0  0  0  0  0  0  0
   89.4464    1.2013   -0.2359 C   0  0  0  0  0  0  0  0  0  0  0  0
   88.7967    2.4551   -0.4527 C   0  0  0  0  0  0  0  0  0  0  0  0
   89.7596    3.4058   -0.3943 C   0  0  0  0  0  0  0  0  0  0  0  0
   90.9943    2.7273   -0.1377 C   0  0  0  0  0  0  0  0  0  0  0  0
   90.7968    1.3664   -0.1001 N   0  0  0  0  0  0  0  0  0  0  0  0
   92.1961    3.3724    0.1138 C   0  0  0  0  0  0  0  0  0  0  0  0
   92.2088    4.8495    0.2002 C   0  0  0  0  0  0  0  0  0  0  0  0
   92.9837    5.6033   -0.6857 C   0  0  0  0  0  0  0  0  0  0  0  0
   92.9869    6.9849   -0.6126 C   0  0  0  0  0  0  0  0  0  0  0  0
   92.2195    7.6403    0.3532 C   0  0  0  0  0  0  0  0  0  0  0  0
   92.2057    9.1114    0.4520 C   0  0  0  0  0  0  0  0  0  0  0  0
   91.5633    9.7211    1.2679 O   0  0  0  0  0  0  0  0  0  0  0  0
   91.4472    6.8859    1.2428 C   0  0  0  0  0  0  0  0  0  0  0  0
   91.4390    5.5067    1.1649 C   0  0  0  0  0  0  0  0  0  0  0  0
   93.3857    2.6738    0.2684 C   0  0  0  0  0  0  0  0  0  0  0  0
   94.6504    3.2911    0.5434 C   0  0  0  0  0  0  0  0  0  0  0  0
   95.5897    2.3229    0.4334 C   0  0  0  0  0  0  0  0  0  0  0  0
   94.8960    1.1128    0.1128 C   0  0  0  0  0  0  0  0  0  0  0  0
   93.5410    1.3255    0.0694 N   0  0  0  0  0  0  0  0  0  0  0  0
   96.6085   -0.0822   -0.2478 H   0  0  0  0  0  0  0  0  0  0  0  0
   96.5583   -2.5963   -0.9129 H   0  0  0  0  0  0  0  0  0  0  0  0
   94.6551   -4.5071   -0.8449 H   0  0  0  0  0  0  0  0  0  0  0  0
   91.7046   -5.0978    1.9676 H   0  0  0  0  0  0  0  0  0  0  0  0
   91.6531   -7.5807    1.9393 H   0  0  0  0  0  0  0  0  0  0  0  0
   92.1901   -9.6629   -1.1432 H   0  0  0  0  0  0  0  0  0  0  0  0
   92.4532   -7.5467   -2.2706 H   0  0  0  0  0  0  0  0  0  0  0  0
   92.4918   -5.0776   -2.2460 H   0  0  0  0  0  0  0  0  0  0  0  0
   89.5522   -4.4769    0.5048 H   0  0  0  0  0  0  0  0  0  0  0  0
   87.6742   -2.5419    0.5106 H   0  0  0  0  0  0  0  0  0  0  0  0
   87.7382    2.5752   -0.6174 H   0  0  0  0  0  0  0  0  0  0  0  0
   89.6554    4.4716   -0.5156 H   0  0  0  0  0  0  0  0  0  0  0  0
   93.5695    5.0979   -1.4453 H   0  0  0  0  0  0  0  0  0  0  0  0
   93.5854    7.5628   -1.3093 H   0  0  0  0  0  0  0  0  0  0  0  0
   92.8439    9.6246   -0.2986 H   0  0  0  0  0  0  0  0  0  0  0  0
   90.8573    7.4034    1.9916 H   0  0  0  0  0  0  0  0  0  0  0  0
   90.8471    4.9239    1.8616 H   0  0  0  0  0  0  0  0  0  0  0  0
   94.7872    4.3328    0.7842 H   0  0  0  0  0  0  0  0  0  0  0  0
   96.6585    2.4005    0.5533 H   0  0  0  0  0  0  0  0  0  0  0  0
   52.8840   -0.0568   -0.0063 C   0  0  0  0  0  0  0  0  0  0  0  0
   51.6548   -0.0557   -0.0038 C   0  0  0  0  0  0  0  0  0  0  0  0
   50.3122   -0.0514   -0.0009 C   0  0  0  0  0  0  0  0  0  0  0  0
   49.0878   -0.0452    0.0037 C   0  0  0  0  0  0  0  0  0  0  0  0
   54.2263   -0.0574   -0.0072 C   0  0  0  0  0  0  0  0  0  0  0  0
   55.4511   -0.0562   -0.0061 C   0  0  0  0  0  0  0  0  0  0  0  0
   68.8321   -0.0107   -0.0633 C   0  0  0  0  0  0  0  0  0  0  0  0
   67.6026   -0.0149   -0.0616 C   0  0  0  0  0  0  0  0  0  0  0  0
   66.2607   -0.0156   -0.0546 C   0  0  0  0  0  0  0  0  0  0  0  0
   65.0358   -0.0219   -0.0474 C   0  0  0  0  0  0  0  0  0  0  0  0
   70.1741   -0.0074   -0.0603 C   0  0  0  0  0  0  0  0  0  0  0  0
   71.3990   -0.0055   -0.0538 C   0  0  0  0  0  0  0  0  0  0  0  0
   84.7852    0.0278   -0.0885 C   0  0  0  0  0  0  0  0  0  0  0  0
   83.5565    0.0280   -0.0903 C   0  0  0  0  0  0  0  0  0  0  0  0
   82.2131    0.0232   -0.0839 C   0  0  0  0  0  0  0  0  0  0  0  0
   80.9889    0.0207   -0.0725 C   0  0  0  0  0  0  0  0  0  0  0  0
   86.1290    0.0221   -0.0821 C   0  0  0  0  0  0  0  0  0  0  0  0
   87.3528    0.0125   -0.0740 C   0  0  0  0  0  0  0  0  0  0  0  0
   60.2436   -0.0410   -0.0204 Co  0  0  0  0  0  0  0  0  0  0  0  0
   56.8516   -0.0537   -0.0027 C   0  0  0  0  0  0  0  0  0  0  0  0
   57.5307    1.1672    0.0657 C   0  0  0  0  0  0  0  0  0  0  0  0
   56.8786    2.4374    0.0934 C   0  0  0  0  0  0  0  0  0  0  0  0
   57.8313    3.3559    0.3883 C   0  0  0  0  0  0  0  0  0  0  0  0
   59.0593    2.6383    0.5481 C   0  0  0  0  0  0  0  0  0  0  0  0
   58.8726    1.3028    0.2810 N   0  0  0  0  0  0  0  0  0  0  0  0
   60.2364    3.1929    1.0337 C   0  0  0  0  0  0  0  0  0  0  0  0
   60.2323    4.6004    1.4872 C   0  0  0  0  0  0  0  0  0  0  0  0
   61.0905    5.5357    0.9006 C   0  0  0  0  0  0  0  0  0  0  0  0
   61.0845    6.8501    1.3257 C   0  0  0  0  0  0  0  0  0  0  0  0
   60.2254    7.2584    2.3513 C   0  0  0  0  0  0  0  0  0  0  0  0
   60.2435    8.6663    2.7910 C   0  0  0  0  0  0  0  0  0  0  0  0
   60.9651    9.5051    2.3161 O   0  0  0  0  0  0  0  0  0  0  0  0
   59.3686    6.3247    2.9388 C   0  0  0  0  0  0  0  0  0  0  0  0
   59.3700    5.0100    2.5082 C   0  0  0  0  0  0  0  0  0  0  0  0
   61.4177    2.4668    1.1000 C   0  0  0  0  0  0  0  0  0  0  0  0
   62.6485    2.9707    1.6301 C   0  0  0  0  0  0  0  0  0  0  0  0
   63.6070    2.0647    1.3178 C   0  0  0  0  0  0  0  0  0  0  0  0
   61.6088    1.2236    0.5431 N   0  0  0  0  0  0  0  0  0  0  0  0
   62.9551    1.0066    0.6138 C   0  0  0  0  0  0  0  0  0  0  0  0
   63.6355   -0.0296   -0.0340 C   0  0  0  0  0  0  0  0  0  0  0  0
   62.9535   -1.0772   -0.6613 C   0  0  0  0  0  0  0  0  0  0  0  0
   63.6021   -2.1360   -1.3670 C   0  0  0  0  0  0  0  0  0  0  0  0
   62.6489   -3.0607   -1.6399 C   0  0  0  0  0  0  0  0  0  0  0  0
   61.4244   -2.5644   -1.0892 C   0  0  0  0  0  0  0  0  0  0  0  0
   61.6132   -1.3139   -0.5498 N   0  0  0  0  0  0  0  0  0  0  0  0
   60.2502   -3.2997   -0.9950 C   0  0  0  0  0  0  0  0  0  0  0  0
   60.2542   -4.7139   -1.4269 C   0  0  0  0  0  0  0  0  0  0  0  0
   61.1260   -5.6306   -0.8323 C   0  0  0  0  0  0  0  0  0  0  0  0
   61.1310   -6.9546   -1.2336 C   0  0  0  0  0  0  0  0  0  0  0  0
   60.2686   -7.3868   -2.2438 C   0  0  0  0  0  0  0  0  0  0  0  0
   60.2572   -8.7916   -2.6937 C   0  0  0  0  0  0  0  0  0  0  0  0
   59.5347   -9.2090   -3.5617 O   0  0  0  0  0  0  0  0  0  0  0  0
   59.3986   -6.4690   -2.8415 C   0  0  0  0  0  0  0  0  0  0  0  0
   59.3887   -5.1486   -2.4356 C   0  0  0  0  0  0  0  0  0  0  0  0
   59.0723   -2.7442   -0.5135 C   0  0  0  0  0  0  0  0  0  0  0  0
   57.8458   -3.4643   -0.3505 C   0  0  0  0  0  0  0  0  0  0  0  0
   56.8876   -2.5449   -0.0783 C   0  0  0  0  0  0  0  0  0  0  0  0
   57.5355   -1.2722   -0.0619 C   0  0  0  0  0  0  0  0  0  0  0  0
   58.8801   -1.4061   -0.2603 N   0  0  0  0  0  0  0  0  0  0  0  0
   55.8259    2.5895   -0.0821 H   0  0  0  0  0  0  0  0  0  0  0  0
   57.7223    4.4233    0.4907 H   0  0  0  0  0  0  0  0  0  0  0  0
   61.7483    5.2251    0.0968 H   0  0  0  0  0  0  0  0  0  0  0  0
   61.7428    7.5833    0.8721 H   0  0  0  0  0  0  0  0  0  0  0  0
   59.5284    8.8980    3.6087 H   0  0  0  0  0  0  0  0  0  0  0  0
   58.7012    6.6324    3.7372 H   0  0  0  0  0  0  0  0  0  0  0  0
   58.7132    4.2845    2.9748 H   0  0  0  0  0  0  0  0  0  0  0  0
   62.7556    3.8997    2.1658 H   0  0  0  0  0  0  0  0  0  0  0  0
   64.6632    2.0990    1.5309 H   0  0  0  0  0  0  0  0  0  0  0  0
   64.6528   -2.1587   -1.6070 H   0  0  0  0  0  0  0  0  0  0  0  0
   62.7555   -3.9959   -2.1648 H   0  0  0  0  0  0  0  0  0  0  0  0
   61.7879   -5.3003   -0.0397 H   0  0  0  0  0  0  0  0  0  0  0  0
   61.8065   -7.6609   -0.7620 H   0  0  0  0  0  0  0  0  0  0  0  0
   60.9792   -9.4468   -2.1615 H   0  0  0  0  0  0  0  0  0  0  0  0
   58.7354   -6.8130   -3.6280 H   0  0  0  0  0  0  0  0  0  0  0  0
   58.7227   -4.4368   -2.9100 H   0  0  0  0  0  0  0  0  0  0  0  0
   57.7409   -4.5332   -0.4393 H   0  0  0  0  0  0  0  0  0  0  0  0
   55.8338   -2.6979    0.0900 H   0  0  0  0  0  0  0  0  0  0  0  0
   76.1932   -0.0007   -0.0358 Co  0  0  0  0  0  0  0  0  0  0  0  0
   72.7995   -0.0059   -0.0414 C   0  0  0  0  0  0  0  0  0  0  0  0
   73.4801    1.2121    0.0519 C   0  0  0  0  0  0  0  0  0  0  0  0
   72.8276    2.4818    0.0976 C   0  0  0  0  0  0  0  0  0  0  0  0
   73.7801    3.3960    0.4051 C   0  0  0  0  0  0  0  0  0  0  0  0
   75.0087    2.6764    0.5534 C   0  0  0  0  0  0  0  0  0  0  0  0
   74.8220    1.3440    0.2692 N   0  0  0  0  0  0  0  0  0  0  0  0
   76.1868    3.2282    1.0375 C   0  0  0  0  0  0  0  0  0  0  0  0
   76.1814    4.6325    1.5015 C   0  0  0  0  0  0  0  0  0  0  0  0
   77.0251    5.5775    0.9098 C   0  0  0  0  0  0  0  0  0  0  0  0
   77.0133    6.8898    1.3416 C   0  0  0  0  0  0  0  0  0  0  0  0
   76.1633    7.2857    2.3795 C   0  0  0  0  0  0  0  0  0  0  0  0
   76.1725    8.6922    2.8242 C   0  0  0  0  0  0  0  0  0  0  0  0
   76.8774    9.5406    2.3416 O   0  0  0  0  0  0  0  0  0  0  0  0
   75.3223    6.3418    2.9735 C   0  0  0  0  0  0  0  0  0  0  0  0
   75.3290    5.0294    2.5357 C   0  0  0  0  0  0  0  0  0  0  0  0
   77.3704    2.5043    1.0903 C   0  0  0  0  0  0  0  0  0  0  0  0
   78.6033    3.0098    1.6135 C   0  0  0  0  0  0  0  0  0  0  0  0
   79.5618    2.1068    1.2928 C   0  0  0  0  0  0  0  0  0  0  0  0
   77.5603    1.2639    0.5276 N   0  0  0  0  0  0  0  0  0  0  0  0
   78.9080    1.0486    0.5910 C   0  0  0  0  0  0  0  0  0  0  0  0
   79.5870    0.0128   -0.0571 C   0  0  0  0  0  0  0  0  0  0  0  0
   78.9048   -1.0373   -0.6784 C   0  0  0  0  0  0  0  0  0  0  0  0
   79.5544   -2.1014   -1.3750 C   0  0  0  0  0  0  0  0  0  0  0  0
   78.6020   -3.0286   -1.6418 C   0  0  0  0  0  0  0  0  0  0  0  0
   77.3764   -2.5276   -1.0983 C   0  0  0  0  0  0  0  0  0  0  0  0
   77.5635   -1.2738   -0.5672 N   0  0  0  0  0  0  0  0  0  0  0  0
   76.1998   -3.2607   -1.0111 C   0  0  0  0  0  0  0  0  0  0  0  0
   76.2055   -4.6774   -1.4356 C   0  0  0  0  0  0  0  0  0  0  0  0
   77.0655   -5.5934   -0.8232 C   0  0  0  0  0  0  0  0  0  0  0  0
   77.0691   -6.9205   -1.2140 C   0  0  0  0  0  0  0  0  0  0  0  0
   76.2172   -7.3566   -2.2315 C   0  0  0  0  0  0  0  0  0  0  0  0
   76.2022   -8.7654   -2.6680 C   0  0  0  0  0  0  0  0  0  0  0  0
   75.4866   -9.1872   -3.5397 O   0  0  0  0  0  0  0  0  0  0  0  0
   75.3605   -6.4390   -2.8485 C   0  0  0  0  0  0  0  0  0  0  0  0
   75.3521   -5.1154   -2.4531 C   0  0  0  0  0  0  0  0  0  0  0  0
   75.0183   -2.7013   -0.5455 C   0  0  0  0  0  0  0  0  0  0  0  0
   73.7872   -3.4178   -0.4000 C   0  0  0  0  0  0  0  0  0  0  0  0
   72.8284   -2.4958   -0.1403 C   0  0  0  0  0  0  0  0  0  0  0  0
   73.4804   -1.2254   -0.1112 C   0  0  0  0  0  0  0  0  0  0  0  0
   74.8268   -1.3625   -0.2932 N   0  0  0  0  0  0  0  0  0  0  0  0
   71.7749    2.6360   -0.0756 H   0  0  0  0  0  0  0  0  0  0  0  0
   73.6711    4.4617    0.5228 H   0  0  0  0  0  0  0  0  0  0  0  0
   77.6756    5.2764    0.0964 H   0  0  0  0  0  0  0  0  0  0  0  0
   77.6595    7.6308    0.8835 H   0  0  0  0  0  0  0  0  0  0  0  0
   75.4672    8.9128    3.6535 H   0  0  0  0  0  0  0  0  0  0  0  0
   74.6623    6.6398    3.7816 H   0  0  0  0  0  0  0  0  0  0  0  0
   74.6836    4.2960    3.0061 H   0  0  0  0  0  0  0  0  0  0  0  0
   78.7116    3.9380    2.1504 H   0  0  0  0  0  0  0  0  0  0  0  0
   80.6193    2.1429    1.4993 H   0  0  0  0  0  0  0  0  0  0  0  0
   80.6056   -2.1259   -1.6128 H   0  0  0  0  0  0  0  0  0  0  0  0
   78.7094   -3.9682   -2.1587 H   0  0  0  0  0  0  0  0  0  0  0  0
   77.7188   -5.2601   -0.0247 H   0  0  0  0  0  0  0  0  0  0  0  0
   77.7347   -7.6265   -0.7281 H   0  0  0  0  0  0  0  0  0  0  0  0
   76.9142   -9.4198   -2.1215 H   0  0  0  0  0  0  0  0  0  0  0  0
   74.7060   -6.7859   -3.6409 H   0  0  0  0  0  0  0  0  0  0  0  0
   74.6962   -4.4040   -2.9419 H   0  0  0  0  0  0  0  0  0  0  0  0
   73.6801   -4.4863   -0.4915 H   0  0  0  0  0  0  0  0  0  0  0  0
   71.7720   -2.6457    0.0137 H   0  0  0  0  0  0  0  0  0  0  0  0
  2  3  4  0  0  0  0
  3  4  1  0  0  0  0
  4  5  2  0  0  0  0
  5  6  4  0  0  0  0
  1  7  1  0  0  0  0
  3  7  4  0  0  0  0
  6  7  4  0  0  0  0
  6  8  4  0  0  0  0
  8  9  1  0  0  0  0
  9 10  4  0  0  0  0
 10 11  4  0  0  0  0
 11 12  4  0  0  0  0
 12 13  1  0  0  0  0
 13 14  2  0  0  0  0
 12 15  4  0  0  0  0
  9 16  4  0  0  0  0
 15 16  4  0  0  0  0
  8 17  4  0  0  0  0
 17 18  4  0  0  0  0
 18 19  2  0  0  0  0
  1 20  1  0  0  0  0
 17 20  4  0  0  0  0
 19 21  4  0  0  0  0
 20 21  4  0  0  0  0
 21 22  4  0  0  0  0
 22 23  4  0  0  0  0
 23 24  4  0  0  0  0
 24 25  2  0  0  0  0
 25 26  4  0  0  0  0
  1 27  1  0  0  0  0
 23 27  4  0  0  0  0
 26 27  4  0  0  0  0
 26 28  4  0  0  0  0
 28 29  1  0  0  0  0
 29 30  4  0  0  0  0
 30 31  4  0  0  0  0
 31 32  4  0  0  0  0
 32 33  1  0  0  0  0
 33 34  2  0  0  0  0
 32 35  4  0  0  0  0
 29 36  4  0  0  0  0
 35 36  4  0  0  0  0
 28 37  4  0  0  0  0
 37 38  4  0  0  0  0
 38 39  2  0  0  0  0
  2 40  4  0  0  0  0
 39 40  1  0  0  0  0
  1 41  1  0  0  0  0
 37 41  4  0  0  0  0
 40 41  4  0  0  0  0
  2 42  1  0  0  0  0
  4 43  1  0  0  0  0
  5 44  1  0  0  0  0
 10 45  1  0  0  0  0
 11 46  1  0  0  0  0
 13 47  1  0  0  0  0
 15 48  1  0  0  0  0
 16 49  1  0  0  0  0
 18 50  1  0  0  0  0
 19 51  1  0  0  0  0
 24 52  1  0  0  0  0
 25 53  1  0  0  0  0
 30 54  1  0  0  0  0
 31 55  1  0  0  0  0
 33 56  1  0  0  0  0
 35 57  1  0  0  0  0
 36 58  1  0  0  0  0
 38 59  1  0  0  0  0
 39 60  1  0  0  0  0
 62 63  4  0  0  0  0
 63 64  1  0  0  0  0
 64 65  2  0  0  0  0
 65 66  4  0  0  0  0
 61 67  1  0  0  0  0
 63 67  4  0  0  0  0
 66 67  4  0  0  0  0
 66 68  4  0  0  0  0
 68 69  1  0  0  0  0
 69 70  4  0  0  0  0
 70 71  4  0  0  0  0
 71 72  4  0  0  0  0
 72 73  1  0  0  0  0
 73 74  2  0  0  0  0
 72 75  4  0  0  0  0
 69 76  4  0  0  0  0
 75 76  4  0  0  0  0
 68 77  4  0  0  0  0
 77 78  4  0  0  0  0
 78 79  2  0  0  0  0
 61 80  1  0  0  0  0
 77 80  4  0  0  0  0
 79 81  4  0  0  0  0
 80 81  4  0  0  0  0
 81 82  4  0  0  0  0
 82 83  4  0  0  0  0
 83 84  4  0  0  0  0
 84 85  2  0  0  0  0
 85 86  4  0  0  0  0
 61 87  1  0  0  0  0
 83 87  4  0  0  0  0
 86 87  4  0  0  0  0
 86 88  4  0  0  0  0
 88 89  1  0  0  0  0
 89 90  4  0  0  0  0
 90 91  4  0  0  0  0
 91 92  4  0  0  0  0
 92 93  1  0  0  0  0
 93 94  2  0  0  0  0
 92 95  4  0  0  0  0
 89 96  4  0  0  0  0
 95 96  4  0  0  0  0
 88 97  4  0  0  0  0
 97 98  4  0  0  0  0
 98 99  2  0  0  0  0
 62100  4  0  0  0  0
 99100  1  0  0  0  0
 61101  1  0  0  0  0
 97101  4  0  0  0  0
100101  4  0  0  0  0
 62102  1  0  0  0  0
 64103  1  0  0  0  0
 65104  1  0  0  0  0
 70105  1  0  0  0  0
 71106  1  0  0  0  0
 73107  1  0  0  0  0
 75108  1  0  0  0  0
 76109  1  0  0  0  0
 78110  1  0  0  0  0
 79111  1  0  0  0  0
 84112  1  0  0  0  0
 85113  1  0  0  0  0
 90114  1  0  0  0  0
 91115  1  0  0  0  0
 93116  1  0  0  0  0
 95117  1  0  0  0  0
 96118  1  0  0  0  0
 98119  1  0  0  0  0
 99120  1  0  0  0  0
121122  3  0  0  0  0
122123  4  0  0  0  0
 22124  4  0  0  0  0
123124  3  0  0  0  0
121125  4  0  0  0  0
125126  3  0  0  0  0
127128  3  0  0  0  0
128129  4  0  0  0  0
129130  3  0  0  0  0
127131  4  0  0  0  0
131132  3  0  0  0  0
133134  3  0  0  0  0
134135  4  0  0  0  0
135136  3  0  0  0  0
133137  4  0  0  0  0
 82138  4  0  0  0  0
137138  3  0  0  0  0
126140  4  0  0  0  0
140141  4  0  0  0  0
141142  4  0  0  0  0
142143  2  0  0  0  0
143144  4  0  0  0  0
139145  1  0  0  0  0
141145  4  0  0  0  0
144145  4  0  0  0  0
144146  4  0  0  0  0
146147  1  0  0  0  0
147148  4  0  0  0  0
148149  4  0  0  0  0
149150  4  0  0  0  0
150151  1  0  0  0  0
151152  2  0  0  0  0
150153  4  0  0  0  0
147154  4  0  0  0  0
153154  4  0  0  0  0
146155  4  0  0  0  0
155156  4  0  0  0  0
156157  2  0  0  0  0
139158  1  0  0  0  0
155158  4  0  0  0  0
157159  4  0  0  0  0
158159  4  0  0  0  0
130160  4  0  0  0  0
159160  4  0  0  0  0
160161  4  0  0  0  0
161162  4  0  0  0  0
162163  2  0  0  0  0
163164  4  0  0  0  0
139165  1  0  0  0  0
161165  4  0  0  0  0
164165  4  0  0  0  0
164166  4  0  0  0  0
166167  1  0  0  0  0
167168  4  0  0  0  0
168169  4  0  0  0  0
169170  4  0  0  0  0
170171  1  0  0  0  0
171172  2  0  0  0  0
170173  4  0  0  0  0
167174  4  0  0  0  0
173174  4  0  0  0  0
166175  4  0  0  0  0
175176  4  0  0  0  0
176177  2  0  0  0  0
140178  4  0  0  0  0
177178  4  0  0  0  0
139179  1  0  0  0  0
175179  4  0  0  0  0
178179  4  0  0  0  0
142180  1  0  0  0  0
143181  1  0  0  0  0
148182  1  0  0  0  0
149183  1  0  0  0  0
151184  1  0  0  0  0
153185  1  0  0  0  0
154186  1  0  0  0  0
156187  1  0  0  0  0
157188  1  0  0  0  0
162189  1  0  0  0  0
163190  1  0  0  0  0
168191  1  0  0  0  0
169192  1  0  0  0  0
171193  1  0  0  0  0
173194  1  0  0  0  0
174195  1  0  0  0  0
176196  1  0  0  0  0
177197  1  0  0  0  0
132199  4  0  0  0  0
199200  4  0  0  0  0
200201  4  0  0  0  0
201202  2  0  0  0  0
202203  4  0  0  0  0
198204  1  0  0  0  0
200204  4  0  0  0  0
203204  4  0  0  0  0
203205  4  0  0  0  0
205206  1  0  0  0  0
206207  4  0  0  0  0
207208  4  0  0  0  0
208209  4  0  0  0  0
209210  1  0  0  0  0
210211  2  0  0  0  0
209212  4  0  0  0  0
206213  4  0  0  0  0
212213  4  0  0  0  0
205214  4  0  0  0  0
214215  4  0  0  0  0
215216  2  0  0  0  0
198217  1  0  0  0  0
214217  4  0  0  0  0
216218  4  0  0  0  0
217218  4  0  0  0  0
136219  4  0  0  0  0
218219  4  0  0  0  0
219220  4  0  0  0  0
220221  4  0  0  0  0
221222  2  0  0  0  0
222223  4  0  0  0  0
198224  1  0  0  0  0
220224  4  0  0  0  0
223224  4  0  0  0  0
223225  4  0  0  0  0
225226  1  0  0  0  0
226227  4  0  0  0  0
227228  4  0  0  0  0
228229  4  0  0  0  0
229230  1  0  0  0  0
230231  2  0  0  0  0
229232  4  0  0  0  0
226233  4  0  0  0  0
232233  4  0  0  0  0
225234  4  0  0  0  0
234235  4  0  0  0  0
235236  2  0  0  0  0
199237  4  0  0  0  0
236237  4  0  0  0  0
198238  1  0  0  0  0
234238  4  0  0  0  0
237238  4  0  0  0  0
201239  1  0  0  0  0
202240  1  0  0  0  0
207241  1  0  0  0  0
208242  1  0  0  0  0
210243  1  0  0  0  0
212244  1  0  0  0  0
213245  1  0  0  0  0
215246  1  0  0  0  0
216247  1  0  0  0  0
221248  1  0  0  0  0
222249  1  0  0  0  0
227250  1  0  0  0  0
228251  1  0  0  0  0
230252  1  0  0  0  0
232253  1  0  0  0  0
233254  1  0  0  0  0
235255  1  0  0  0  0
236256  1  0  0  0  0
M  END
