416

C 70.723028 0.065724 0.111794
C 71.452292 -1.300788 -0.069261
C 70.849131 -2.537647 -0.096055
C 71.871308 -3.492819 -0.333493
C 73.063936 -2.805072 -0.450908
N 72.802798 -1.475158 -0.234847
C 74.483271 -3.420753 -0.796924
C 74.514974 -4.809307 -1.308652
C 74.310184 -5.060856 -2.672008
C 74.301525 -6.370509 -3.152782
C 74.497119 -7.426146 -2.257967
S 74.392164 -9.098668 -2.823034
O 73.804968 -9.102122 -4.147857
O 73.260543 -9.749892 -1.868988
O 75.648306 -9.758805 -2.543629
C 74.712946 -7.190209 -0.896589
C 74.723839 -5.877793 -0.425814
C 75.614580 -2.678373 -0.665340
C 76.916116 -3.194452 -1.036653
C 77.819468 -2.244284 -0.825352
N 75.813346 -1.398897 -0.219837
C 77.143978 -1.078382 -0.290949
C 77.812582 0.058237 0.039461
C 77.035628 1.293986 0.660280
C 77.570826 2.261484 1.487707
C 76.545555 3.199192 1.766731
C 75.411500 2.773342 1.108255
N 75.704532 1.583884 0.484291
C 74.005283 3.506530 1.089776
C 73.986383 4.963398 1.341072
C 74.363961 5.851976 0.325962
C 74.399360 7.224551 0.570509
C 74.051762 7.702333 1.838249
S 74.215917 9.430680 2.176929
O 73.155101 10.133892 1.491578
O 75.618588 9.830224 1.477986
O 74.450418 9.593605 3.597327
C 73.663757 6.829640 2.858546
C 73.630825 5.458500 2.603940
C 72.877724 2.796846 0.829664
C 71.558889 3.402362 0.780934
C 70.670990 2.447575 0.519159
C 71.388786 1.203996 0.382063
N 72.709832 1.466597 0.566514
H 69.645823 0.086705 -0.002332
H 69.793966 -2.728103 0.026405
H 71.745751 -4.560340 -0.430610
H 73.501151 -0.736347 -0.199566
H 74.153157 -4.220295 -3.345796
H 74.132569 -6.547874 -4.211066
H 72.385352 -9.521179 -2.243724
H 74.868925 -8.011532 -0.202638
H 74.888956 -5.666594 0.629389
H 77.126965 -4.173437 -1.428480
H 78.871900 -2.348247 -1.016803
H 78.589026 2.295652 1.845336
H 76.627152 4.085684 2.377009
H 75.023708 0.986639 0.021953
H 74.636172 5.454936 -0.650597
H 74.700769 7.901578 -0.224092
H 76.344239 9.511423 2.053307
H 73.400150 7.195670 3.846914
H 73.338742 4.755953 3.382937
H 71.331992 4.442875 0.927400
H 69.608422 2.574588 0.418205
C 161.017486 0.013422 0.096730
C 160.288222 1.266897 0.670260
C 160.891382 2.328529 1.305457
C 159.869205 3.263669 1.612449
C 158.676577 2.743733 1.147209
N 158.937716 1.502630 0.622789
C 157.257243 3.449142 1.181681
C 157.225540 4.897167 1.486919
C 157.430329 5.835350 0.466219
C 157.438989 7.200097 0.755702
C 157.243395 7.618066 2.074931
S 157.348350 9.334928 2.486045
O 157.935546 10.042527 1.366012
O 158.479971 9.378931 3.640323
O 156.092208 9.745321 3.073773
C 157.027568 6.694154 3.102260
C 157.016675 5.332386 2.802841
C 156.125934 2.750500 0.898235
C 154.824397 3.385021 0.858307
C 153.921046 2.468021 0.531843
N 155.927168 1.430067 0.594936
C 154.596535 1.196478 0.364236
C 153.927931 0.058237 0.039461
C 154.704886 -1.318418 -0.092121
C 154.169687 -2.577812 0.093936
C 155.194959 -3.520283 -0.168551
C 156.329014 -2.809425 -0.499644
N 156.035982 -1.470297 -0.395346
C 157.735230 -3.420465 -0.905275
C 157.754130 -4.787815 -1.467385
C 157.376553 -5.000332 -2.799622
C 157.341154 -6.292712 -3.322611
C 157.688751 -7.371613 -2.503213
S 157.524597 -9.015333 -3.135725
O 158.585413 -9.246279 -4.090124
O 156.121926 -8.981901 -3.940112
O 157.290095 -9.908809 -2.019582
C 158.076756 -7.175307 -1.175032
C 158.109689 -5.878791 -0.661324
C 158.862789 -2.681147 -0.748058
C 160.181625 -3.167982 -1.111397
C 161.069523 -2.220223 -0.825218
C 160.351727 -1.094231 -0.279852
N 159.030682 -1.414713 -0.263335
H 162.094690 0.056359 -0.011072
H 161.946548 2.424672 1.510461
H 159.994763 4.219309 2.098025
H 158.239363 0.858233 0.259691
H 157.587357 5.481947 -0.551444
H 157.607945 7.913194 -0.046119
H 159.355161 9.384578 3.201342
H 156.871588 7.020544 4.126765
H 156.851558 4.592279 3.584057
H 154.613548 4.422445 1.047229
H 152.868614 2.657891 0.425020
H 153.151487 -2.796968 0.378606
H 155.113361 -4.595576 -0.123289
H 156.716806 -0.718629 -0.469183
H 157.104342 -4.144683 -3.415393
H 157.039744 -6.443375 -4.355595
H 155.396275 -9.017952 -3.283357
H 158.340363 -8.010977 -0.532767
H 158.401772 -5.698219 0.372021
H 160.408522 -4.127000 -1.540818
H 162.132092 -2.274081 -0.978265
C 84.139690 0.059339 0.047951
C 82.930751 0.045884 0.039503
C 81.509222 0.054703 0.027520
C 80.297552 0.062142 0.038383
C 85.556295 0.052664 0.048484
C 86.776990 0.062142 0.038383
C 100.306895 0.059339 0.047951
C 99.097956 0.045884 0.039503
C 97.676427 0.054703 0.027520
C 96.464758 0.062142 0.038383
C 101.723500 0.052664 0.048484
C 102.944196 0.062142 0.038383
C 116.474101 0.059339 0.047951
C 115.265161 0.045884 0.039503
C 113.843633 0.054703 0.027520
C 112.631963 0.062142 0.038383
C 117.890705 0.052664 0.048484
C 119.111401 0.062142 0.038383
C 132.641306 0.059339 0.047951
C 131.432367 0.045884 0.039503
C 130.010838 0.054703 0.027520
C 128.799168 0.062142 0.038383
C 134.057910 0.052664 0.048484
C 135.278606 0.062142 0.038383
C 148.808511 0.059339 0.047951
C 147.599572 0.045884 0.039503
C 146.178043 0.054703 0.027520
C 144.966374 0.062142 0.038383
C 150.225116 0.052664 0.048484
C 151.445811 0.062142 0.038383
C 88.113727 -0.036856 -0.024537
C 88.910905 0.431780 -1.309742
C 88.414388 0.549025 -2.591805
C 89.454080 1.075404 -3.401227
C 90.553264 1.257285 -2.588484
N 90.236058 0.790091 -1.338159
C 91.939075 1.893341 -3.007101
C 91.925424 2.913931 -4.077656
C 92.248774 2.563364 -5.395575
C 92.200853 3.520476 -6.408473
C 91.834912 4.832942 -6.092434
S 91.700425 6.014411 -7.402275
O 91.088896 7.219272 -6.878915
O 90.581396 5.370094 -8.374716
O 92.952855 6.047475 -8.121957
C 91.526792 5.201899 -4.780164
C 91.569490 4.235479 -3.775096
C 93.076816 1.546474 -2.352174
C 94.362181 2.131842 -2.671158
C 95.273655 1.606526 -1.859363
N 93.288807 0.668426 -1.326580
C 94.613683 0.661474 -0.981379
C 95.279124 -0.036856 -0.024537
C 94.484683 -1.039764 0.909984
C 94.991385 -2.158493 1.538447
C 93.952825 -2.698838 2.340907
C 92.842134 -1.899365 2.167788
N 93.154870 -0.939040 1.238839
C 91.452455 -2.046662 2.909919
C 91.459051 -2.661470 4.255979
C 91.054785 -3.992737 4.428091
C 91.040531 -4.564141 5.699838
C 91.440948 -3.796693 6.798283
S 91.312040 -4.495123 8.418077
O 92.315159 -5.527649 8.550597
O 89.858182 -5.204021 8.416347
O 91.194489 -3.413415 9.374288
C 91.860430 -2.472912 6.641460
C 91.870785 -1.909686 5.365107
C 90.314363 -1.570355 2.339674
C 89.026736 -1.637016 3.000456
C 88.116566 -1.088494 2.202518
C 88.778213 -0.644343 0.993054
N 90.103476 -0.956489 1.136921
H 87.411714 0.302931 -2.906718
H 89.399906 1.311238 -4.452793
H 90.891788 0.680936 -0.570094
H 92.534152 1.536147 -5.615115
H 92.446204 3.236705 -7.428403
H 89.701228 5.573028 -7.996455
H 91.245727 6.220267 -4.526030
H 91.324857 4.493916 -2.745745
H 94.557309 2.868633 -3.429807
H 96.319630 1.855539 -1.867789
H 96.000675 -2.531743 1.452694
H 94.017195 -3.561236 2.987234
H 92.496212 -0.282749 0.829713
H 90.740696 -4.566962 3.558119
H 90.715192 -5.593666 5.820934
H 89.182152 -4.506122 8.549311
H 92.166607 -1.870543 7.492465
H 92.185832 -0.877751 5.217491
H 88.829624 -2.049462 3.972915
H 87.070998 -0.994545 2.433143
C 104.280932 -0.036856 -0.024537
C 105.078110 0.431780 -1.309742
C 104.581594 0.549025 -2.591805
C 105.621285 1.075404 -3.401227
C 106.720470 1.257285 -2.588484
N 106.403263 0.790091 -1.338159
C 108.106280 1.893341 -3.007101
C 108.092629 2.913931 -4.077656
C 108.415980 2.563364 -5.395575
C 108.368059 3.520476 -6.408473
C 108.002117 4.832942 -6.092434
S 107.867631 6.014411 -7.402275
O 107.256101 7.219272 -6.878915
O 106.748601 5.370094 -8.374716
O 109.120060 6.047475 -8.121957
C 107.693997 5.201899 -4.780164
C 107.736696 4.235479 -3.775096
C 109.244022 1.546474 -2.352174
C 110.529386 2.131842 -2.671158
C 111.440860 1.606526 -1.859363
N 109.456012 0.668426 -1.326580
C 110.780889 0.661474 -0.981379
C 111.446329 -0.036856 -0.024537
C 110.651888 -1.039764 0.909984
C 111.158591 -2.158493 1.538447
C 110.120030 -2.698838 2.340907
C 109.009339 -1.899365 2.167788
N 109.322075 -0.939040 1.238839
C 107.619660 -2.046662 2.909919
C 107.626256 -2.661470 4.255979
C 107.221991 -3.992737 4.428091
C 107.207736 -4.564141 5.699838
C 107.608154 -3.796693 6.798283
S 107.479245 -4.495123 8.418077
O 108.482364 -5.527649 8.550597
O 106.025387 -5.204021 8.416347
O 107.361694 -3.413415 9.374288
C 108.027636 -2.472912 6.641460
C 108.037990 -1.909686 5.365107
C 106.481568 -1.570355 2.339674
C 105.193941 -1.637016 3.000456
C 104.283771 -1.088494 2.202518
C 104.945419 -0.644343 0.993054
N 106.270681 -0.956489 1.136921
H 103.578920 0.302931 -2.906718
H 105.567112 1.311238 -4.452793
H 107.058993 0.680936 -0.570094
H 108.701358 1.536147 -5.615115
H 108.613409 3.236705 -7.428403
H 105.868433 5.573028 -7.996455
H 107.412932 6.220267 -4.526030
H 107.492062 4.493916 -2.745745
H 110.724514 2.868633 -3.429807
H 112.486835 1.855539 -1.867789
H 112.167880 -2.531743 1.452694
H 110.184401 -3.561236 2.987234
H 108.663417 -0.282749 0.829713
H 106.907902 -4.566962 3.558119
H 106.882397 -5.593666 5.820934
H 105.349357 -4.506122 8.549311
H 108.333813 -1.870543 7.492465
H 108.353037 -0.877751 5.217491
H 104.996829 -2.049462 3.972915
H 103.238204 -0.994545 2.433143
C 120.448137 -0.036856 -0.024537
C 121.245315 0.431780 -1.309742
C 120.748799 0.549025 -2.591805
C 121.788490 1.075404 -3.401227
C 122.887675 1.257285 -2.588484
N 122.570469 0.790091 -1.338159
C 124.273485 1.893341 -3.007101
C 124.259834 2.913931 -4.077656
C 124.583185 2.563364 -5.395575
C 124.535264 3.520476 -6.408473
C 124.169322 4.832942 -6.092434
S 124.034836 6.014411 -7.402275
O 123.423307 7.219272 -6.878915
O 122.915806 5.370094 -8.374716
O 125.287266 6.047475 -8.121957
C 123.861203 5.201899 -4.780164
C 123.903901 4.235479 -3.775096
C 125.411227 1.546474 -2.352174
C 126.696592 2.131842 -2.671158
C 127.608065 1.606526 -1.859363
N 125.623217 0.668426 -1.326580
C 126.948094 0.661474 -0.981379
C 127.613535 -0.036856 -0.024537
C 126.819094 -1.039764 0.909984
C 127.325796 -2.158493 1.538447
C 126.287235 -2.698838 2.340907
C 125.176544 -1.899365 2.167788
N 125.489280 -0.939040 1.238839
C 123.786866 -2.046662 2.909919
C 123.793462 -2.661470 4.255979
C 123.389196 -3.992737 4.428091
C 123.374941 -4.564141 5.699838
C 123.775359 -3.796693 6.798283
S 123.646450 -4.495123 8.418077
O 124.649569 -5.527649 8.550597
O 122.192592 -5.204021 8.416347
O 123.528900 -3.413415 9.374288
C 124.194841 -2.472912 6.641460
C 124.205195 -1.909686 5.365107
C 122.648773 -1.570355 2.339674
C 121.361146 -1.637016 3.000456
C 120.450977 -1.088494 2.202518
C 121.112624 -0.644343 0.993054
N 122.437886 -0.956489 1.136921
H 119.746125 0.302931 -2.906718
H 121.734317 1.311238 -4.452793
H 123.226199 0.680936 -0.570094
H 124.868563 1.536147 -5.615115
H 124.780615 3.236705 -7.428403
H 122.035638 5.573028 -7.996455
H 123.580137 6.220267 -4.526030
H 123.659267 4.493916 -2.745745
H 126.891720 2.868633 -3.429807
H 128.654040 1.855539 -1.867789
H 128.335086 -2.531743 1.452694
H 126.351606 -3.561236 2.987234
H 124.830622 -0.282749 0.829713
H 123.075107 -4.566962 3.558119
H 123.049603 -5.593666 5.820934
H 121.516562 -4.506122 8.549311
H 124.501018 -1.870543 7.492465
H 124.520243 -0.877751 5.217491
H 121.164034 -2.049462 3.972915
H 119.405409 -0.994545 2.433143
C 136.615342 -0.036856 -0.024537
C 137.412521 0.431780 -1.309742
C 136.916004 0.549025 -2.591805
C 137.955696 1.075404 -3.401227
C 139.054880 1.257285 -2.588484
N 138.737674 0.790091 -1.338159
C 140.440691 1.893341 -3.007101
C 140.427040 2.913931 -4.077656
C 140.750390 2.563364 -5.395575
C 140.702469 3.520476 -6.408473
C 140.336527 4.832942 -6.092434
S 140.202041 6.014411 -7.402275
O 139.590512 7.219272 -6.878915
O 139.083012 5.370094 -8.374716
O 141.454471 6.047475 -8.121957
C 140.028408 5.201899 -4.780164
C 140.071106 4.235479 -3.775096
C 141.578432 1.546474 -2.352174
C 142.863797 2.131842 -2.671158
C 143.775270 1.606526 -1.859363
N 141.790423 0.668426 -1.326580
C 143.115299 0.661474 -0.981379
C 143.780740 -0.036856 -0.024537
C 142.986299 -1.039764 0.909984
C 143.493001 -2.158493 1.538447
C 142.454441 -2.698838 2.340907
C 141.343750 -1.899365 2.167788
N 141.656486 -0.939040 1.238839
C 139.954071 -2.046662 2.909919
C 139.960667 -2.661470 4.255979
C 139.556401 -3.992737 4.428091
C 139.542146 -4.564141 5.699838
C 139.942564 -3.796693 6.798283
S 139.813655 -4.495123 8.418077
O 140.816775 -5.527649 8.550597
O 138.359798 -5.204021 8.416347
O 139.696105 -3.413415 9.374288
C 140.362046 -2.472912 6.641460
C 140.372401 -1.909686 5.365107
C 138.815978 -1.570355 2.339674
C 137.528352 -1.637016 3.000456
C 136.618182 -1.088494 2.202518
C 137.279829 -0.644343 0.993054
N 138.605092 -0.956489 1.136921
H 135.913330 0.302931 -2.906718
H 137.901522 1.311238 -4.452793
H 139.393404 0.680936 -0.570094
H 141.035768 1.536147 -5.615115
H 140.947820 3.236705 -7.428403
H 138.202844 5.573028 -7.996455
H 139.747342 6.220267 -4.526030
H 139.826473 4.493916 -2.745745
H 143.058925 2.868633 -3.429807
H 144.821246 1.855539 -1.867789
H 144.502291 -2.531743 1.452694
H 142.518811 -3.561236 2.987234
H 140.997828 -0.282749 0.829713
H 139.242312 -4.566962 3.558119
H 139.216808 -5.593666 5.820934
H 137.683767 -4.506122 8.549311
H 140.668223 -1.870543 7.492465
H 140.687448 -0.877751 5.217491
H 137.331240 -2.049462 3.972915
H 135.572614 -0.994545 2.433143
