 xtb: 6.5.1 (b24c23e)
          07312217343D

416457  0     0  0            999 V2000
   72.4282   -0.0026    0.1210 C   0  0  0  0  0  0  0  0  0  0  0  0
   73.0231   -1.2170   -0.1946 C   0  0  0  0  0  0  0  0  0  0  0  0
   72.3583   -2.4492   -0.4515 C   0  0  0  0  0  0  0  0  0  0  0  0
   73.3079   -3.3881   -0.7393 C   0  0  0  0  0  0  0  0  0  0  0  0
   74.5838   -2.7573   -0.6752 C   0  0  0  0  0  0  0  0  0  0  0  0
   74.3616   -1.4539   -0.3339 N   0  0  0  0  0  0  0  0  0  0  0  0
   75.8390   -3.3384   -0.8870 C   0  0  0  0  0  0  0  0  0  0  0  0
   75.8496   -4.7686   -1.2789 C   0  0  0  0  0  0  0  0  0  0  0  0
   75.2294   -5.1779   -2.4623 C   0  0  0  0  0  0  0  0  0  0  0  0
   75.2360   -6.5118   -2.8353 C   0  0  0  0  0  0  0  0  0  0  0  0
   75.8635   -7.4302   -2.0092 C   0  0  0  0  0  0  0  0  0  0  0  0
   75.8796   -9.1192   -2.4789 S   0  0  0  0  0  0  0  0  0  0  0  0
   75.7314   -9.2593   -3.8980 O   0  0  0  0  0  0  0  0  0  0  0  0
   74.4806   -9.5702   -1.7866 O   0  0  0  0  0  0  0  0  0  0  0  0
   76.9521   -9.8134   -1.8305 O   0  0  0  0  0  0  0  0  0  0  0  0
   76.4883   -7.0551   -0.8310 C   0  0  0  0  0  0  0  0  0  0  0  0
   76.4794   -5.7178   -0.4700 C   0  0  0  0  0  0  0  0  0  0  0  0
   77.0638   -2.6780   -0.7589 C   0  0  0  0  0  0  0  0  0  0  0  0
   78.3509   -3.2923   -1.0337 C   0  0  0  0  0  0  0  0  0  0  0  0
   79.2835   -2.3481   -0.7933 C   0  0  0  0  0  0  0  0  0  0  0  0
   77.2348   -1.3814   -0.3838 N   0  0  0  0  0  0  0  0  0  0  0  0
   78.5647   -1.1561   -0.3855 C   0  0  0  0  0  0  0  0  0  0  0  0
   79.2163    0.0463   -0.0475 C   0  0  0  0  0  0  0  0  0  0  0  0
   78.5966    1.2602    0.3020 C   0  0  0  0  0  0  0  0  0  0  0  0
   79.2569    2.4674    0.6545 C   0  0  0  0  0  0  0  0  0  0  0  0
   78.3020    3.4118    0.9097 C   0  0  0  0  0  0  0  0  0  0  0  0
   77.0274    2.8106    0.7136 C   0  0  0  0  0  0  0  0  0  0  0  0
   77.2573    1.5091    0.3557 N   0  0  0  0  0  0  0  0  0  0  0  0
   75.7718    3.4046    0.8816 C   0  0  0  0  0  0  0  0  0  0  0  0
   75.7583    4.8413    1.2456 C   0  0  0  0  0  0  0  0  0  0  0  0
   76.3272    5.7901    0.3916 C   0  0  0  0  0  0  0  0  0  0  0  0
   76.3135    7.1345    0.7242 C   0  0  0  0  0  0  0  0  0  0  0  0
   75.7305    7.5176    1.9212 C   0  0  0  0  0  0  0  0  0  0  0  0
   75.7029    9.2185    2.3445 S   0  0  0  0  0  0  0  0  0  0  0  0
   75.8128   10.0398    1.1746 O   0  0  0  0  0  0  0  0  0  0  0  0
   77.1187    9.2869    3.1385 O   0  0  0  0  0  0  0  0  0  0  0  0
   74.6487    9.4918    3.2758 O   0  0  0  0  0  0  0  0  0  0  0  0
   75.1574    6.6014    2.7881 C   0  0  0  0  0  0  0  0  0  0  0  0
   75.1731    5.2599    2.4436 C   0  0  0  0  0  0  0  0  0  0  0  0
   74.5459    2.7469    0.7337 C   0  0  0  0  0  0  0  0  0  0  0  0
   73.2478    3.3914    0.8657 C   0  0  0  0  0  0  0  0  0  0  0  0
   72.3233    2.4330    0.6578 C   0  0  0  0  0  0  0  0  0  0  0  0
   73.0547    1.2079    0.3852 C   0  0  0  0  0  0  0  0  0  0  0  0
   74.3903    1.4369    0.4306 N   0  0  0  0  0  0  0  0  0  0  0  0
   71.3435   -0.0082    0.1574 H   0  0  0  0  0  0  0  0  0  0  0  0
   71.2896   -2.5870   -0.4127 H   0  0  0  0  0  0  0  0  0  0  0  0
   73.1457   -4.4291   -0.9669 H   0  0  0  0  0  0  0  0  0  0  0  0
   75.0938   -0.7643   -0.2015 H   0  0  0  0  0  0  0  0  0  0  0  0
   74.7560   -4.4419   -3.1016 H   0  0  0  0  0  0  0  0  0  0  0  0
   74.7687   -6.8378   -3.7560 H   0  0  0  0  0  0  0  0  0  0  0  0
   74.2486  -10.4664   -2.0587 H   0  0  0  0  0  0  0  0  0  0  0  0
   76.9738   -7.7988   -0.2117 H   0  0  0  0  0  0  0  0  0  0  0  0
   76.9522   -5.4052    0.4536 H   0  0  0  0  0  0  0  0  0  0  0  0
   78.4987   -4.3035   -1.3766 H   0  0  0  0  0  0  0  0  0  0  0  0
   80.3552   -2.4218   -0.8856 H   0  0  0  0  0  0  0  0  0  0  0  0
   80.3269    2.5867    0.7082 H   0  0  0  0  0  0  0  0  0  0  0  0
   78.4632    4.4318    1.2182 H   0  0  0  0  0  0  0  0  0  0  0  0
   76.5263    0.8309    0.1679 H   0  0  0  0  0  0  0  0  0  0  0  0
   76.7650    5.4717   -0.5473 H   0  0  0  0  0  0  0  0  0  0  0  0
   76.7406    7.8788    0.0638 H   0  0  0  0  0  0  0  0  0  0  0  0
   77.3224   10.1990    3.3784 H   0  0  0  0  0  0  0  0  0  0  0  0
   74.7059    6.9363    3.7135 H   0  0  0  0  0  0  0  0  0  0  0  0
   74.7415    4.5258    3.1138 H   0  0  0  0  0  0  0  0  0  0  0  0
   73.0902    4.4371    1.0748 H   0  0  0  0  0  0  0  0  0  0  0  0
   71.2481    2.5176    0.6705 H   0  0  0  0  0  0  0  0  0  0  0  0
  159.3359    0.0275    0.1176 C   0  0  0  0  0  0  0  0  0  0  0  0
  158.7382    1.2226    0.4952 C   0  0  0  0  0  0  0  0  0  0  0  0
  159.4003    2.4073    0.9244 C   0  0  0  0  0  0  0  0  0  0  0  0
  158.4481    3.3524    1.1817 C   0  0  0  0  0  0  0  0  0  0  0  0
  157.1732    2.7779    0.9090 C   0  0  0  0  0  0  0  0  0  0  0  0
  157.3986    1.4917    0.5096 N   0  0  0  0  0  0  0  0  0  0  0  0
  155.9160    3.3787    1.0386 C   0  0  0  0  0  0  0  0  0  0  0  0
  155.9002    4.7994    1.4632 C   0  0  0  0  0  0  0  0  0  0  0  0
  156.5188    5.7765    0.6788 C   0  0  0  0  0  0  0  0  0  0  0  0
  156.5082    7.1047    1.0715 C   0  0  0  0  0  0  0  0  0  0  0  0
  155.8783    7.4423    2.2585 C   0  0  0  0  0  0  0  0  0  0  0  0
  155.8591    9.1223    2.7593 S   0  0  0  0  0  0  0  0  0  0  0  0
  156.0012    9.9969    1.6321 O   0  0  0  0  0  0  0  0  0  0  0  0
  157.2615    9.1408    3.5798 O   0  0  0  0  0  0  0  0  0  0  0  0
  154.7891    9.3615    3.6814 O   0  0  0  0  0  0  0  0  0  0  0  0
  155.2542    6.4971    3.0562 C   0  0  0  0  0  0  0  0  0  0  0  0
  155.2671    5.1725    2.6515 C   0  0  0  0  0  0  0  0  0  0  0  0
  154.6932    2.7454    0.8015 C   0  0  0  0  0  0  0  0  0  0  0  0
  153.4045    3.4097    0.8872 C   0  0  0  0  0  0  0  0  0  0  0  0
  152.4741    2.4761    0.6009 C   0  0  0  0  0  0  0  0  0  0  0  0
  154.5254    1.4428    0.4460 N   0  0  0  0  0  0  0  0  0  0  0  0
  153.1959    1.2475    0.3296 C   0  0  0  0  0  0  0  0  0  0  0  0
  152.5467    0.0398    0.0058 C   0  0  0  0  0  0  0  0  0  0  0  0
  153.1693   -1.1784   -0.3234 C   0  0  0  0  0  0  0  0  0  0  0  0
  152.5125   -2.3973   -0.6398 C   0  0  0  0  0  0  0  0  0  0  0  0
  153.4697   -3.3307   -0.9254 C   0  0  0  0  0  0  0  0  0  0  0  0
  154.7421   -2.7068   -0.7983 C   0  0  0  0  0  0  0  0  0  0  0  0
  154.5089   -1.4106   -0.4237 N   0  0  0  0  0  0  0  0  0  0  0  0
  155.9992   -3.2922   -0.9844 C   0  0  0  0  0  0  0  0  0  0  0  0
  156.0168   -4.7062   -1.4284 C   0  0  0  0  0  0  0  0  0  0  0  0
  155.4322   -5.0699   -2.6446 C   0  0  0  0  0  0  0  0  0  0  0  0
  155.4524   -6.3881   -3.0691 C   0  0  0  0  0  0  0  0  0  0  0  0
  156.0575   -7.3376   -2.2616 C   0  0  0  0  0  0  0  0  0  0  0  0
  156.0960   -9.0061   -2.7978 S   0  0  0  0  0  0  0  0  0  0  0  0
  155.9607   -9.0893   -4.2226 O   0  0  0  0  0  0  0  0  0  0  0  0
  154.6992   -9.5002   -2.1314 O   0  0  0  0  0  0  0  0  0  0  0  0
  157.1712   -9.7159   -2.1703 O   0  0  0  0  0  0  0  0  0  0  0  0
  156.6455   -7.0085   -1.0510 C   0  0  0  0  0  0  0  0  0  0  0  0
  156.6232   -5.6865   -0.6384 C   0  0  0  0  0  0  0  0  0  0  0  0
  157.2238   -2.6458   -0.7837 C   0  0  0  0  0  0  0  0  0  0  0  0
  158.5228   -3.2548   -1.0274 C   0  0  0  0  0  0  0  0  0  0  0  0
  159.4455   -2.3244   -0.7118 C   0  0  0  0  0  0  0  0  0  0  0  0
  158.7117   -1.1439   -0.2898 C   0  0  0  0  0  0  0  0  0  0  0  0
  157.3766   -1.3710   -0.3553 N   0  0  0  0  0  0  0  0  0  0  0  0
  160.4209    0.0186    0.1418 H   0  0  0  0  0  0  0  0  0  0  0  0
  160.4692    2.5083    1.0244 H   0  0  0  0  0  0  0  0  0  0  0  0
  158.6082    4.3571    1.5379 H   0  0  0  0  0  0  0  0  0  0  0  0
  156.6678    0.8331    0.2619 H   0  0  0  0  0  0  0  0  0  0  0  0
  156.9940    5.4939   -0.2534 H   0  0  0  0  0  0  0  0  0  0  0  0
  156.9744    7.8712    0.4654 H   0  0  0  0  0  0  0  0  0  0  0  0
  157.5009   10.0472    3.8081 H   0  0  0  0  0  0  0  0  0  0  0  0
  154.7665    6.7969    3.9752 H   0  0  0  0  0  0  0  0  0  0  0  0
  154.7951    4.4157    3.2670 H   0  0  0  0  0  0  0  0  0  0  0  0
  153.2543    4.4513    1.1204 H   0  0  0  0  0  0  0  0  0  0  0  0
  151.4022    2.5846    0.5607 H   0  0  0  0  0  0  0  0  0  0  0  0
  151.4432   -2.5338   -0.6418 H   0  0  0  0  0  0  0  0  0  0  0  0
  153.3117   -4.3636   -1.1898 H   0  0  0  0  0  0  0  0  0  0  0  0
  155.2380   -0.7285   -0.2427 H   0  0  0  0  0  0  0  0  0  0  0  0
  154.9775   -4.3097   -3.2691 H   0  0  0  0  0  0  0  0  0  0  0  0
  155.0137   -6.6781   -4.0156 H   0  0  0  0  0  0  0  0  0  0  0  0
  154.5101  -10.4106   -2.3894 H   0  0  0  0  0  0  0  0  0  0  0  0
  157.1138   -7.7755   -0.4471 H   0  0  0  0  0  0  0  0  0  0  0  0
  157.0667   -5.4104    0.3110 H   0  0  0  0  0  0  0  0  0  0  0  0
  158.6822   -4.2530   -1.4020 H   0  0  0  0  0  0  0  0  0  0  0  0
  160.5206   -2.3960   -0.7593 H   0  0  0  0  0  0  0  0  0  0  0  0
   84.4203    0.0719   -0.0389 C   0  0  0  0  0  0  0  0  0  0  0  0
   83.1926    0.0621   -0.0492 C   0  0  0  0  0  0  0  0  0  0  0  0
   81.8471    0.0568   -0.0548 C   0  0  0  0  0  0  0  0  0  0  0  0
   80.6238    0.0494   -0.0573 C   0  0  0  0  0  0  0  0  0  0  0  0
   85.7655    0.0830   -0.0256 C   0  0  0  0  0  0  0  0  0  0  0  0
   86.9889    0.0923   -0.0075 C   0  0  0  0  0  0  0  0  0  0  0  0
  100.4585    0.1023    0.0697 C   0  0  0  0  0  0  0  0  0  0  0  0
   99.2297    0.1092    0.0713 C   0  0  0  0  0  0  0  0  0  0  0  0
   97.8863    0.1162    0.0725 C   0  0  0  0  0  0  0  0  0  0  0  0
   96.6619    0.1252    0.0709 C   0  0  0  0  0  0  0  0  0  0  0  0
  101.8019    0.1012    0.0685 C   0  0  0  0  0  0  0  0  0  0  0  0
  103.0264    0.0980    0.0710 C   0  0  0  0  0  0  0  0  0  0  0  0
  116.4960    0.0766    0.0522 C   0  0  0  0  0  0  0  0  0  0  0  0
  115.2671    0.0792    0.0528 C   0  0  0  0  0  0  0  0  0  0  0  0
  113.9238    0.0824    0.0576 C   0  0  0  0  0  0  0  0  0  0  0  0
  112.6993    0.0903    0.0608 C   0  0  0  0  0  0  0  0  0  0  0  0
  117.8393    0.0761    0.0522 C   0  0  0  0  0  0  0  0  0  0  0  0
  119.0638    0.0765    0.0547 C   0  0  0  0  0  0  0  0  0  0  0  0
  132.5336    0.1052    0.0835 C   0  0  0  0  0  0  0  0  0  0  0  0
  131.3046    0.1081    0.0820 C   0  0  0  0  0  0  0  0  0  0  0  0
  129.9612    0.1095    0.0821 C   0  0  0  0  0  0  0  0  0  0  0  0
  128.7368    0.1135    0.0811 C   0  0  0  0  0  0  0  0  0  0  0  0
  133.8770    0.1042    0.0839 C   0  0  0  0  0  0  0  0  0  0  0  0
  135.1014    0.1016    0.0868 C   0  0  0  0  0  0  0  0  0  0  0  0
  148.5707    0.0389    0.0272 C   0  0  0  0  0  0  0  0  0  0  0  0
  147.3428    0.0463    0.0395 C   0  0  0  0  0  0  0  0  0  0  0  0
  145.9978    0.0562    0.0547 C   0  0  0  0  0  0  0  0  0  0  0  0
  144.7743    0.0672    0.0661 C   0  0  0  0  0  0  0  0  0  0  0  0
  149.9160    0.0375    0.0141 C   0  0  0  0  0  0  0  0  0  0  0  0
  151.1393    0.0390    0.0057 C   0  0  0  0  0  0  0  0  0  0  0  0
   88.3952    0.1080    0.0108 C   0  0  0  0  0  0  0  0  0  0  0  0
   89.0264    0.7989   -1.0405 C   0  0  0  0  0  0  0  0  0  0  0  0
   88.3829    1.4559   -2.1213 C   0  0  0  0  0  0  0  0  0  0  0  0
   89.3506    2.0141   -2.9106 C   0  0  0  0  0  0  0  0  0  0  0  0
   90.6141    1.7199   -2.3285 C   0  0  0  0  0  0  0  0  0  0  0  0
   90.3679    0.9761   -1.2064 N   0  0  0  0  0  0  0  0  0  0  0  0
   91.8763    2.0899   -2.8088 C   0  0  0  0  0  0  0  0  0  0  0  0
   91.8935    2.9275   -4.0334 C   0  0  0  0  0  0  0  0  0  0  0  0
   92.4996    2.4557   -5.2005 C   0  0  0  0  0  0  0  0  0  0  0  0
   92.5152    3.2314   -6.3479 C   0  0  0  0  0  0  0  0  0  0  0  0
   91.9216    4.4827   -6.3128 C   0  0  0  0  0  0  0  0  0  0  0  0
   91.9469    5.4748   -7.7582 S   0  0  0  0  0  0  0  0  0  0  0  0
   91.8212    6.8641   -7.4283 O   0  0  0  0  0  0  0  0  0  0  0  0
   90.5394    4.9841   -8.4040 O   0  0  0  0  0  0  0  0  0  0  0  0
   93.0098    5.0718   -8.6303 O   0  0  0  0  0  0  0  0  0  0  0  0
   91.3190    4.9808   -5.1691 C   0  0  0  0  0  0  0  0  0  0  0  0
   91.3049    4.1946   -4.0288 C   0  0  0  0  0  0  0  0  0  0  0  0
   93.1005    1.7382   -2.2380 C   0  0  0  0  0  0  0  0  0  0  0  0
   94.3873    2.1896   -2.7378 C   0  0  0  0  0  0  0  0  0  0  0  0
   95.3223    1.6399   -1.9360 C   0  0  0  0  0  0  0  0  0  0  0  0
   93.2744    0.9499   -1.1418 N   0  0  0  0  0  0  0  0  0  0  0  0
   94.6051    0.8644   -0.9429 C   0  0  0  0  0  0  0  0  0  0  0  0
   95.2576    0.1311    0.0688 C   0  0  0  0  0  0  0  0  0  0  0  0
   94.6260   -0.6029    1.0914 C   0  0  0  0  0  0  0  0  0  0  0  0
   95.2702   -1.3590    2.1047 C   0  0  0  0  0  0  0  0  0  0  0  0
   94.3022   -1.8989    2.9063 C   0  0  0  0  0  0  0  0  0  0  0  0
   93.0376   -1.4807    2.4084 C   0  0  0  0  0  0  0  0  0  0  0  0
   93.2842   -0.7079    1.3057 N   0  0  0  0  0  0  0  0  0  0  0  0
   91.7751   -1.8063    2.9186 C   0  0  0  0  0  0  0  0  0  0  0  0
   91.7567   -2.6325    4.1508 C   0  0  0  0  0  0  0  0  0  0  0  0
   91.1682   -3.8996    4.1410 C   0  0  0  0  0  0  0  0  0  0  0  0
   91.1515   -4.6761    5.2879 C   0  0  0  0  0  0  0  0  0  0  0  0
   91.7242   -4.1688    6.4430 C   0  0  0  0  0  0  0  0  0  0  0  0
   91.7163   -5.1494    7.8963 S   0  0  0  0  0  0  0  0  0  0  0  0
   91.5697   -6.5376    7.5723 O   0  0  0  0  0  0  0  0  0  0  0  0
   90.3158   -4.6225    8.5272 O   0  0  0  0  0  0  0  0  0  0  0  0
   92.7772   -4.7612    8.7786 O   0  0  0  0  0  0  0  0  0  0  0  0
   92.3164   -2.9170    6.4836 C   0  0  0  0  0  0  0  0  0  0  0  0
   92.3317   -2.1510    5.3297 C   0  0  0  0  0  0  0  0  0  0  0  0
   90.5503   -1.4215    2.3697 C   0  0  0  0  0  0  0  0  0  0  0  0
   89.2620   -1.7383    2.9612 C   0  0  0  0  0  0  0  0  0  0  0  0
   88.3272   -1.2073    2.1467 C   0  0  0  0  0  0  0  0  0  0  0  0
   89.0456   -0.5581    1.0676 C   0  0  0  0  0  0  0  0  0  0  0  0
   90.3775   -0.6938    1.2331 N   0  0  0  0  0  0  0  0  0  0  0  0
   87.3159    1.4880   -2.2710 H   0  0  0  0  0  0  0  0  0  0  0  0
   89.2043    2.5716   -3.8211 H   0  0  0  0  0  0  0  0  0  0  0  0
   91.0858    0.6055   -0.5928 H   0  0  0  0  0  0  0  0  0  0  0  0
   92.9486    1.4694   -5.2094 H   0  0  0  0  0  0  0  0  0  0  0  0
   92.9824    2.8758   -7.2577 H   0  0  0  0  0  0  0  0  0  0  0  0
   90.3343    5.5037   -9.1908 H   0  0  0  0  0  0  0  0  0  0  0  0
   90.8760    5.9688   -5.1732 H   0  0  0  0  0  0  0  0  0  0  0  0
   90.8500    4.5710   -3.1199 H   0  0  0  0  0  0  0  0  0  0  0  0
   94.5332    2.8482   -3.5784 H   0  0  0  0  0  0  0  0  0  0  0  0
   96.3946    1.7409   -1.9845 H   0  0  0  0  0  0  0  0  0  0  0  0
   96.3379   -1.4737    2.1984 H   0  0  0  0  0  0  0  0  0  0  0  0
   94.4492   -2.5389    3.7608 H   0  0  0  0  0  0  0  0  0  0  0  0
   92.5659   -0.2819    0.7297 H   0  0  0  0  0  0  0  0  0  0  0  0
   90.7366   -4.2823    3.2237 H   0  0  0  0  0  0  0  0  0  0  0  0
   90.7078   -5.6638    5.2888 H   0  0  0  0  0  0  0  0  0  0  0  0
   90.1510   -5.0466    9.3782 H   0  0  0  0  0  0  0  0  0  0  0  0
   92.7594   -2.5538    7.4024 H   0  0  0  0  0  0  0  0  0  0  0  0
   92.7796   -1.1642    5.3435 H   0  0  0  0  0  0  0  0  0  0  0  0
   89.1148   -2.2808    3.8808 H   0  0  0  0  0  0  0  0  0  0  0  0
   87.2541   -1.2303    2.2481 H   0  0  0  0  0  0  0  0  0  0  0  0
  104.4305    0.0991    0.0695 C   0  0  0  0  0  0  0  0  0  0  0  0
  105.0559    0.7752   -0.9962 C   0  0  0  0  0  0  0  0  0  0  0  0
  104.4058    1.4246   -2.0773 C   0  0  0  0  0  0  0  0  0  0  0  0
  105.3692    1.9700   -2.8811 C   0  0  0  0  0  0  0  0  0  0  0  0
  106.6362    1.6758   -2.3074 C   0  0  0  0  0  0  0  0  0  0  0  0
  106.3963    0.9434   -1.1761 N   0  0  0  0  0  0  0  0  0  0  0  0
  107.8957    2.0385   -2.8002 C   0  0  0  0  0  0  0  0  0  0  0  0
  107.9068    2.8671   -4.0310 C   0  0  0  0  0  0  0  0  0  0  0  0
  108.5044    2.3851   -5.1983 C   0  0  0  0  0  0  0  0  0  0  0  0
  108.5177    3.1537   -6.3506 C   0  0  0  0  0  0  0  0  0  0  0  0
  107.9304    4.4080   -6.3202 C   0  0  0  0  0  0  0  0  0  0  0  0
  107.9559    5.3926   -7.7709 S   0  0  0  0  0  0  0  0  0  0  0  0
  107.8561    6.7860   -7.4482 O   0  0  0  0  0  0  0  0  0  0  0  0
  106.5324    4.9269   -8.3989 O   0  0  0  0  0  0  0  0  0  0  0  0
  109.0040    4.9660   -8.6492 O   0  0  0  0  0  0  0  0  0  0  0  0
  107.3352    4.9156   -5.1767 C   0  0  0  0  0  0  0  0  0  0  0  0
  107.3232    4.1365   -4.0314 C   0  0  0  0  0  0  0  0  0  0  0  0
  109.1234    1.6898   -2.2352 C   0  0  0  0  0  0  0  0  0  0  0  0
  110.4070    2.1377   -2.7461 C   0  0  0  0  0  0  0  0  0  0  0  0
  111.3471    1.5935   -1.9465 C   0  0  0  0  0  0  0  0  0  0  0  0
  109.3043    0.9086   -1.1349 N   0  0  0  0  0  0  0  0  0  0  0  0
  110.6363    0.8244   -0.9441 C   0  0  0  0  0  0  0  0  0  0  0  0
  111.2953    0.0957    0.0668 C   0  0  0  0  0  0  0  0  0  0  0  0
  110.6699   -0.6353    1.0957 C   0  0  0  0  0  0  0  0  0  0  0  0
  111.3201   -1.3913    2.1050 C   0  0  0  0  0  0  0  0  0  0  0  0
  110.3568   -1.9280    2.9147 C   0  0  0  0  0  0  0  0  0  0  0  0
  109.0898   -1.5074    2.4260 C   0  0  0  0  0  0  0  0  0  0  0  0
  109.3295   -0.7372    1.3201 N   0  0  0  0  0  0  0  0  0  0  0  0
  107.8301   -1.8267    2.9480 C   0  0  0  0  0  0  0  0  0  0  0  0
  107.8194   -2.6519    4.1811 C   0  0  0  0  0  0  0  0  0  0  0  0
  107.2270   -3.9172    4.1763 C   0  0  0  0  0  0  0  0  0  0  0  0
  107.2184   -4.6939    5.3232 C   0  0  0  0  0  0  0  0  0  0  0  0
  107.8028   -4.1884    6.4732 C   0  0  0  0  0  0  0  0  0  0  0  0
  107.8067   -5.1701    7.9259 S   0  0  0  0  0  0  0  0  0  0  0  0
  107.6554   -6.5581    7.6025 O   0  0  0  0  0  0  0  0  0  0  0  0
  106.4123   -4.6428    8.5691 O   0  0  0  0  0  0  0  0  0  0  0  0
  108.8766   -4.7836    8.7977 O   0  0  0  0  0  0  0  0  0  0  0  0
  108.3985   -2.9382    6.5088 C   0  0  0  0  0  0  0  0  0  0  0  0
  108.4057   -2.1720    5.3549 C   0  0  0  0  0  0  0  0  0  0  0  0
  106.6025   -1.4360    2.4112 C   0  0  0  0  0  0  0  0  0  0  0  0
  105.3189   -1.7422    3.0178 C   0  0  0  0  0  0  0  0  0  0  0  0
  104.3787   -1.2054    2.2133 C   0  0  0  0  0  0  0  0  0  0  0  0
  105.0895   -0.5650    1.1240 C   0  0  0  0  0  0  0  0  0  0  0  0
  106.4215   -0.7100    1.2738 N   0  0  0  0  0  0  0  0  0  0  0  0
  103.3376    1.4606   -2.2176 H   0  0  0  0  0  0  0  0  0  0  0  0
  105.2172    2.5191   -3.7959 H   0  0  0  0  0  0  0  0  0  0  0  0
  107.1180    0.5762   -0.5648 H   0  0  0  0  0  0  0  0  0  0  0  0
  108.9492    1.3970   -5.2032 H   0  0  0  0  0  0  0  0  0  0  0  0
  108.9788    2.7904   -7.2604 H   0  0  0  0  0  0  0  0  0  0  0  0
  106.2873    5.5028   -9.1334 H   0  0  0  0  0  0  0  0  0  0  0  0
  106.8969    5.9056   -5.1845 H   0  0  0  0  0  0  0  0  0  0  0  0
  106.8746    4.5206   -3.1226 H   0  0  0  0  0  0  0  0  0  0  0  0
  110.5476    2.7909   -3.5919 H   0  0  0  0  0  0  0  0  0  0  0  0
  112.4191    1.6943   -2.0023 H   0  0  0  0  0  0  0  0  0  0  0  0
  112.3882   -1.5083    2.1908 H   0  0  0  0  0  0  0  0  0  0  0  0
  110.5090   -2.5671    3.7690 H   0  0  0  0  0  0  0  0  0  0  0  0
  108.6079   -0.3096    0.7494 H   0  0  0  0  0  0  0  0  0  0  0  0
  106.7861   -4.2984    3.2628 H   0  0  0  0  0  0  0  0  0  0  0  0
  106.7721   -5.6804    5.3278 H   0  0  0  0  0  0  0  0  0  0  0  0
  106.2426   -5.0840    9.4103 H   0  0  0  0  0  0  0  0  0  0  0  0
  108.8503   -2.5762    7.4238 H   0  0  0  0  0  0  0  0  0  0  0  0
  108.8564   -1.1864    5.3648 H   0  0  0  0  0  0  0  0  0  0  0  0
  105.1783   -2.2819    3.9402 H   0  0  0  0  0  0  0  0  0  0  0  0
  103.3067   -1.2201    2.3271 H   0  0  0  0  0  0  0  0  0  0  0  0
  120.4678    0.0827    0.0575 C   0  0  0  0  0  0  0  0  0  0  0  0
  121.0940    0.7615   -1.0062 C   0  0  0  0  0  0  0  0  0  0  0  0
  120.4449    1.4078   -2.0897 C   0  0  0  0  0  0  0  0  0  0  0  0
  121.4088    1.9568   -2.8904 C   0  0  0  0  0  0  0  0  0  0  0  0
  122.6750    1.6687   -2.3118 C   0  0  0  0  0  0  0  0  0  0  0  0
  122.4343    0.9355   -1.1811 N   0  0  0  0  0  0  0  0  0  0  0  0
  123.9347    2.0371   -2.7999 C   0  0  0  0  0  0  0  0  0  0  0  0
  123.9469    2.8651   -4.0312 C   0  0  0  0  0  0  0  0  0  0  0  0
  124.5521    2.3856   -5.1955 C   0  0  0  0  0  0  0  0  0  0  0  0
  124.5676    3.1541   -6.3478 C   0  0  0  0  0  0  0  0  0  0  0  0
  123.9744    4.4057   -6.3205 C   0  0  0  0  0  0  0  0  0  0  0  0
  124.0038    5.3908   -7.7709 S   0  0  0  0  0  0  0  0  0  0  0  0
  123.8926    6.7834   -7.4485 O   0  0  0  0  0  0  0  0  0  0  0  0
  122.5880    4.9164   -8.4094 O   0  0  0  0  0  0  0  0  0  0  0  0
  125.0611    4.9711   -8.6415 O   0  0  0  0  0  0  0  0  0  0  0  0
  123.3711    4.9106   -5.1800 C   0  0  0  0  0  0  0  0  0  0  0  0
  123.3572    4.1317   -4.0347 C   0  0  0  0  0  0  0  0  0  0  0  0
  125.1619    1.6948   -2.2297 C   0  0  0  0  0  0  0  0  0  0  0  0
  126.4453    2.1488   -2.7358 C   0  0  0  0  0  0  0  0  0  0  0  0
  127.3849    1.6101   -1.9320 C   0  0  0  0  0  0  0  0  0  0  0  0
  125.3424    0.9153   -1.1282 N   0  0  0  0  0  0  0  0  0  0  0  0
  126.6741    0.8377   -0.9321 C   0  0  0  0  0  0  0  0  0  0  0  0
  127.3326    0.1127    0.0816 C   0  0  0  0  0  0  0  0  0  0  0  0
  126.7067   -0.6208    1.1084 C   0  0  0  0  0  0  0  0  0  0  0  0
  127.3566   -1.3728    2.1208 C   0  0  0  0  0  0  0  0  0  0  0  0
  126.3927   -1.9149    2.9263 C   0  0  0  0  0  0  0  0  0  0  0  0
  125.1256   -1.5011    2.4320 C   0  0  0  0  0  0  0  0  0  0  0  0
  125.3659   -0.7296    1.3272 N   0  0  0  0  0  0  0  0  0  0  0  0
  123.8654   -1.8275    2.9485 C   0  0  0  0  0  0  0  0  0  0  0  0
  123.8542   -2.6538    4.1810 C   0  0  0  0  0  0  0  0  0  0  0  0
  123.2702   -3.9229    4.1725 C   0  0  0  0  0  0  0  0  0  0  0  0
  123.2624   -4.7010    5.3184 C   0  0  0  0  0  0  0  0  0  0  0  0
  123.8389   -4.1930    6.4712 C   0  0  0  0  0  0  0  0  0  0  0  0
  123.8442   -5.1765    7.9227 S   0  0  0  0  0  0  0  0  0  0  0  0
  123.7062   -6.5650    7.5960 O   0  0  0  0  0  0  0  0  0  0  0  0
  122.4432   -4.6607    8.5607 O   0  0  0  0  0  0  0  0  0  0  0  0
  124.9065   -4.7827    8.8007 O   0  0  0  0  0  0  0  0  0  0  0  0
  124.4258   -2.9387    6.5107 C   0  0  0  0  0  0  0  0  0  0  0  0
  124.4325   -2.1712    5.3577 C   0  0  0  0  0  0  0  0  0  0  0  0
  122.6380   -1.4431    2.4069 C   0  0  0  0  0  0  0  0  0  0  0  0
  121.3536   -1.7560    3.0082 C   0  0  0  0  0  0  0  0  0  0  0  0
  120.4140   -1.2227    2.2006 C   0  0  0  0  0  0  0  0  0  0  0  0
  121.1259   -0.5787    1.1142 C   0  0  0  0  0  0  0  0  0  0  0  0
  122.4579   -0.7170    1.2693 N   0  0  0  0  0  0  0  0  0  0  0  0
  119.3771    1.4389   -2.2340 H   0  0  0  0  0  0  0  0  0  0  0  0
  121.2577    2.5047   -3.8060 H   0  0  0  0  0  0  0  0  0  0  0  0
  123.1553    0.5721   -0.5669 H   0  0  0  0  0  0  0  0  0  0  0  0
  125.0017    1.3996   -5.1981 H   0  0  0  0  0  0  0  0  0  0  0  0
  125.0349    2.7928   -7.2553 H   0  0  0  0  0  0  0  0  0  0  0  0
  122.3436    5.4929   -9.1438 H   0  0  0  0  0  0  0  0  0  0  0  0
  122.9281    5.8985   -5.1902 H   0  0  0  0  0  0  0  0  0  0  0  0
  122.9024    4.5138   -3.1282 H   0  0  0  0  0  0  0  0  0  0  0  0
  126.5860    2.8021   -3.5815 H   0  0  0  0  0  0  0  0  0  0  0  0
  128.4566    1.7163   -1.9836 H   0  0  0  0  0  0  0  0  0  0  0  0
  128.4249   -1.4841    2.2113 H   0  0  0  0  0  0  0  0  0  0  0  0
  126.5446   -2.5531    3.7813 H   0  0  0  0  0  0  0  0  0  0  0  0
  124.6444   -0.3060    0.7533 H   0  0  0  0  0  0  0  0  0  0  0  0
  122.8354   -4.3060    3.2568 H   0  0  0  0  0  0  0  0  0  0  0  0
  122.8228   -5.6905    5.3201 H   0  0  0  0  0  0  0  0  0  0  0  0
  122.2840   -5.0882    9.4111 H   0  0  0  0  0  0  0  0  0  0  0  0
  124.8715   -2.5747    7.4279 H   0  0  0  0  0  0  0  0  0  0  0  0
  124.8765   -1.1826    5.3705 H   0  0  0  0  0  0  0  0  0  0  0  0
  121.2121   -2.2973    3.9295 H   0  0  0  0  0  0  0  0  0  0  0  0
  119.3416   -1.2427    2.3104 H   0  0  0  0  0  0  0  0  0  0  0  0
  136.5057    0.1018    0.0865 C   0  0  0  0  0  0  0  0  0  0  0  0
  137.1317    0.7820   -0.9760 C   0  0  0  0  0  0  0  0  0  0  0  0
  136.4823    1.4364   -2.0547 C   0  0  0  0  0  0  0  0  0  0  0  0
  137.4461    1.9859   -2.8550 C   0  0  0  0  0  0  0  0  0  0  0  0
  138.7129    1.6897   -2.2813 C   0  0  0  0  0  0  0  0  0  0  0  0
  138.4722    0.9514   -1.1539 N   0  0  0  0  0  0  0  0  0  0  0  0
  139.9725    2.0566   -2.7698 C   0  0  0  0  0  0  0  0  0  0  0  0
  139.9866    2.8917   -3.9961 C   0  0  0  0  0  0  0  0  0  0  0  0
  140.5922    2.4173   -5.1624 C   0  0  0  0  0  0  0  0  0  0  0  0
  140.6105    3.1919   -6.3105 C   0  0  0  0  0  0  0  0  0  0  0  0
  140.0198    4.4446   -6.2771 C   0  0  0  0  0  0  0  0  0  0  0  0
  140.0527    5.4371   -7.7222 S   0  0  0  0  0  0  0  0  0  0  0  0
  139.9447    6.8281   -7.3925 O   0  0  0  0  0  0  0  0  0  0  0  0
  138.6363    4.9685   -8.3642 O   0  0  0  0  0  0  0  0  0  0  0  0
  141.1091    5.0197   -8.5951 O   0  0  0  0  0  0  0  0  0  0  0  0
  139.4162    4.9444   -5.1346 C   0  0  0  0  0  0  0  0  0  0  0  0
  139.3994    4.1594   -3.9935 C   0  0  0  0  0  0  0  0  0  0  0  0
  141.1997    1.7048   -2.2041 C   0  0  0  0  0  0  0  0  0  0  0  0
  142.4839    2.1596   -2.7079 C   0  0  0  0  0  0  0  0  0  0  0  0
  143.4231    1.6067   -1.9134 C   0  0  0  0  0  0  0  0  0  0  0  0
  141.3787    0.9124   -1.1127 N   0  0  0  0  0  0  0  0  0  0  0  0
  142.7114    0.8248   -0.9215 C   0  0  0  0  0  0  0  0  0  0  0  0
  143.3680    0.0783    0.0762 C   0  0  0  0  0  0  0  0  0  0  0  0
  142.7425   -0.6643    1.0952 C   0  0  0  0  0  0  0  0  0  0  0  0
  143.3916   -1.4351    2.0944 C   0  0  0  0  0  0  0  0  0  0  0  0
  142.4281   -1.9731    2.9026 C   0  0  0  0  0  0  0  0  0  0  0  0
  141.1617   -1.5387    2.4235 C   0  0  0  0  0  0  0  0  0  0  0  0
  141.4020   -0.7601    1.3241 N   0  0  0  0  0  0  0  0  0  0  0  0
  139.9022   -1.8529    2.9490 C   0  0  0  0  0  0  0  0  0  0  0  0
  139.8913   -2.6850    4.1774 C   0  0  0  0  0  0  0  0  0  0  0  0
  139.2878   -3.9450    4.1697 C   0  0  0  0  0  0  0  0  0  0  0  0
  139.2801   -4.7280    5.3123 C   0  0  0  0  0  0  0  0  0  0  0  0
  139.8765   -4.2342    6.4611 C   0  0  0  0  0  0  0  0  0  0  0  0
  139.8821   -5.2243    7.9081 S   0  0  0  0  0  0  0  0  0  0  0  0
  139.7157   -6.6085    7.5765 O   0  0  0  0  0  0  0  0  0  0  0  0
  138.4988   -4.6864    8.5663 O   0  0  0  0  0  0  0  0  0  0  0  0
  140.9617   -4.8536    8.7752 O   0  0  0  0  0  0  0  0  0  0  0  0
  140.4832   -2.9893    6.4997 C   0  0  0  0  0  0  0  0  0  0  0  0
  140.4894   -2.2168    5.3501 C   0  0  0  0  0  0  0  0  0  0  0  0
  138.6752   -1.4511    2.4187 C   0  0  0  0  0  0  0  0  0  0  0  0
  137.3914   -1.7529    3.0273 C   0  0  0  0  0  0  0  0  0  0  0  0
  136.4521   -1.2086    2.2268 C   0  0  0  0  0  0  0  0  0  0  0  0
  137.1637   -0.5677    1.1382 C   0  0  0  0  0  0  0  0  0  0  0  0
  138.4952   -0.7192    1.2850 N   0  0  0  0  0  0  0  0  0  0  0  0
  135.4143    1.4726   -2.1958 H   0  0  0  0  0  0  0  0  0  0  0  0
  137.2948    2.5394   -3.7672 H   0  0  0  0  0  0  0  0  0  0  0  0
  139.1934    0.5812   -0.5439 H   0  0  0  0  0  0  0  0  0  0  0  0
  141.0398    1.4304   -5.1698 H   0  0  0  0  0  0  0  0  0  0  0  0
  141.0782    2.8346   -7.2193 H   0  0  0  0  0  0  0  0  0  0  0  0
  138.4014    5.5394   -9.1059 H   0  0  0  0  0  0  0  0  0  0  0  0
  138.9754    5.9334   -5.1399 H   0  0  0  0  0  0  0  0  0  0  0  0
  138.9447    4.5378   -3.0854 H   0  0  0  0  0  0  0  0  0  0  0  0
  142.6254    2.8229   -3.5456 H   0  0  0  0  0  0  0  0  0  0  0  0
  144.4951    1.7087   -1.9665 H   0  0  0  0  0  0  0  0  0  0  0  0
  144.4592   -1.5598    2.1747 H   0  0  0  0  0  0  0  0  0  0  0  0
  142.5792   -2.6216    3.7500 H   0  0  0  0  0  0  0  0  0  0  0  0
  140.6810   -0.3216    0.7609 H   0  0  0  0  0  0  0  0  0  0  0  0
  138.8377   -4.3175    3.2570 H   0  0  0  0  0  0  0  0  0  0  0  0
  138.8252   -5.7106    5.3144 H   0  0  0  0  0  0  0  0  0  0  0  0
  138.3507   -5.1027    9.4241 H   0  0  0  0  0  0  0  0  0  0  0  0
  140.9443   -2.6363    7.4136 H   0  0  0  0  0  0  0  0  0  0  0  0
  140.9487   -1.2352    5.3625 H   0  0  0  0  0  0  0  0  0  0  0  0
  137.2503   -2.2951    3.9481 H   0  0  0  0  0  0  0  0  0  0  0  0
  135.3803   -1.2184    2.3431 H   0  0  0  0  0  0  0  0  0  0  0  0
  1  2  4  0  0  0  0
  2  3  4  0  0  0  0
  3  4  2  0  0  0  0
  4  5  4  0  0  0  0
  2  6  4  0  0  0  0
  5  6  4  0  0  0  0
  5  7  4  0  0  0  0
  7  8  1  0  0  0  0
  8  9  4  0  0  0  0
  9 10  4  0  0  0  0
 10 11  4  0  0  0  0
 11 12  1  0  0  0  0
 12 13  2  0  0  0  0
 12 14  1  0  0  0  0
 12 15  2  0  0  0  0
 11 16  4  0  0  0  0
  8 17  4  0  0  0  0
 16 17  4  0  0  0  0
  7 18  4  0  0  0  0
 18 19  1  0  0  0  0
 19 20  2  0  0  0  0
 18 21  4  0  0  0  0
 20 22  1  0  0  0  0
 21 22  4  0  0  0  0
 22 23  4  0  0  0  0
 23 24  4  0  0  0  0
 24 25  4  0  0  0  0
 25 26  2  0  0  0  0
 26 27  4  0  0  0  0
 24 28  4  0  0  0  0
 27 28  4  0  0  0  0
 27 29  4  0  0  0  0
 29 30  1  0  0  0  0
 30 31  4  0  0  0  0
 31 32  4  0  0  0  0
 32 33  4  0  0  0  0
 33 34  1  0  0  0  0
 34 35  2  0  0  0  0
 34 36  1  0  0  0  0
 34 37  2  0  0  0  0
 33 38  4  0  0  0  0
 30 39  4  0  0  0  0
 38 39  4  0  0  0  0
 29 40  4  0  0  0  0
 40 41  1  0  0  0  0
 41 42  2  0  0  0  0
  1 43  4  0  0  0  0
 42 43  1  0  0  0  0
 40 44  4  0  0  0  0
 43 44  4  0  0  0  0
  1 45  1  0  0  0  0
  3 46  1  0  0  0  0
  4 47  1  0  0  0  0
  6 48  1  0  0  0  0
  9 49  1  0  0  0  0
 10 50  1  0  0  0  0
 14 51  1  0  0  0  0
 16 52  1  0  0  0  0
 17 53  1  0  0  0  0
 19 54  1  0  0  0  0
 20 55  1  0  0  0  0
 25 56  1  0  0  0  0
 26 57  1  0  0  0  0
 28 58  1  0  0  0  0
 31 59  1  0  0  0  0
 32 60  1  0  0  0  0
 36 61  1  0  0  0  0
 38 62  1  0  0  0  0
 39 63  1  0  0  0  0
 41 64  1  0  0  0  0
 42 65  1  0  0  0  0
 66 67  4  0  0  0  0
 67 68  4  0  0  0  0
 68 69  2  0  0  0  0
 69 70  4  0  0  0  0
 67 71  4  0  0  0  0
 70 71  4  0  0  0  0
 70 72  4  0  0  0  0
 72 73  1  0  0  0  0
 73 74  4  0  0  0  0
 74 75  4  0  0  0  0
 75 76  4  0  0  0  0
 76 77  1  0  0  0  0
 77 78  2  0  0  0  0
 77 79  1  0  0  0  0
 77 80  2  0  0  0  0
 76 81  4  0  0  0  0
 73 82  4  0  0  0  0
 81 82  4  0  0  0  0
 72 83  4  0  0  0  0
 83 84  1  0  0  0  0
 84 85  2  0  0  0  0
 83 86  4  0  0  0  0
 85 87  1  0  0  0  0
 86 87  4  0  0  0  0
 87 88  4  0  0  0  0
 88 89  4  0  0  0  0
 89 90  4  0  0  0  0
 90 91  2  0  0  0  0
 91 92  4  0  0  0  0
 89 93  4  0  0  0  0
 92 93  4  0  0  0  0
 92 94  4  0  0  0  0
 94 95  1  0  0  0  0
 95 96  4  0  0  0  0
 96 97  4  0  0  0  0
 97 98  4  0  0  0  0
 98 99  1  0  0  0  0
 99100  2  0  0  0  0
 99101  1  0  0  0  0
 99102  2  0  0  0  0
 98103  4  0  0  0  0
 95104  4  0  0  0  0
103104  4  0  0  0  0
 94105  4  0  0  0  0
105106  1  0  0  0  0
106107  2  0  0  0  0
 66108  4  0  0  0  0
107108  1  0  0  0  0
105109  4  0  0  0  0
108109  4  0  0  0  0
 66110  1  0  0  0  0
 68111  1  0  0  0  0
 69112  1  0  0  0  0
 71113  1  0  0  0  0
 74114  1  0  0  0  0
 75115  1  0  0  0  0
 79116  1  0  0  0  0
 81117  1  0  0  0  0
 82118  1  0  0  0  0
 84119  1  0  0  0  0
 85120  1  0  0  0  0
 90121  1  0  0  0  0
 91122  1  0  0  0  0
 93123  1  0  0  0  0
 96124  1  0  0  0  0
 97125  1  0  0  0  0
101126  1  0  0  0  0
103127  1  0  0  0  0
104128  1  0  0  0  0
106129  1  0  0  0  0
107130  1  0  0  0  0
131132  3  0  0  0  0
132133  4  0  0  0  0
 23134  4  0  0  0  0
133134  3  0  0  0  0
131135  4  0  0  0  0
135136  3  0  0  0  0
137138  3  0  0  0  0
138139  4  0  0  0  0
139140  3  0  0  0  0
137141  4  0  0  0  0
141142  3  0  0  0  0
143144  3  0  0  0  0
144145  4  0  0  0  0
145146  3  0  0  0  0
143147  4  0  0  0  0
147148  3  0  0  0  0
149150  3  0  0  0  0
150151  4  0  0  0  0
151152  3  0  0  0  0
149153  4  0  0  0  0
153154  3  0  0  0  0
155156  3  0  0  0  0
156157  4  0  0  0  0
157158  3  0  0  0  0
155159  4  0  0  0  0
 88160  4  0  0  0  0
159160  3  0  0  0  0
136161  4  0  0  0  0
161162  4  0  0  0  0
162163  4  0  0  0  0
163164  2  0  0  0  0
164165  4  0  0  0  0
162166  4  0  0  0  0
165166  4  0  0  0  0
165167  4  0  0  0  0
167168  1  0  0  0  0
168169  4  0  0  0  0
169170  4  0  0  0  0
170171  4  0  0  0  0
171172  1  0  0  0  0
172173  2  0  0  0  0
172174  1  0  0  0  0
172175  2  0  0  0  0
171176  4  0  0  0  0
168177  4  0  0  0  0
176177  4  0  0  0  0
167178  4  0  0  0  0
178179  1  0  0  0  0
179180  2  0  0  0  0
178181  4  0  0  0  0
180182  1  0  0  0  0
181182  4  0  0  0  0
140183  4  0  0  0  0
182183  4  0  0  0  0
183184  4  0  0  0  0
184185  4  0  0  0  0
185186  2  0  0  0  0
186187  4  0  0  0  0
184188  4  0  0  0  0
187188  4  0  0  0  0
187189  4  0  0  0  0
189190  1  0  0  0  0
190191  4  0  0  0  0
191192  4  0  0  0  0
192193  4  0  0  0  0
193194  1  0  0  0  0
194195  2  0  0  0  0
194196  1  0  0  0  0
194197  2  0  0  0  0
193198  4  0  0  0  0
190199  4  0  0  0  0
198199  4  0  0  0  0
189200  4  0  0  0  0
200201  1  0  0  0  0
201202  2  0  0  0  0
161203  4  0  0  0  0
202203  1  0  0  0  0
200204  4  0  0  0  0
203204  4  0  0  0  0
163205  1  0  0  0  0
164206  1  0  0  0  0
166207  1  0  0  0  0
169208  1  0  0  0  0
170209  1  0  0  0  0
174210  1  0  0  0  0
176211  1  0  0  0  0
177212  1  0  0  0  0
179213  1  0  0  0  0
180214  1  0  0  0  0
185215  1  0  0  0  0
186216  1  0  0  0  0
188217  1  0  0  0  0
191218  1  0  0  0  0
192219  1  0  0  0  0
196220  1  0  0  0  0
198221  1  0  0  0  0
199222  1  0  0  0  0
201223  1  0  0  0  0
202224  1  0  0  0  0
142225  4  0  0  0  0
225226  4  0  0  0  0
226227  4  0  0  0  0
227228  2  0  0  0  0
228229  4  0  0  0  0
226230  4  0  0  0  0
229230  4  0  0  0  0
229231  4  0  0  0  0
231232  1  0  0  0  0
232233  4  0  0  0  0
233234  4  0  0  0  0
234235  4  0  0  0  0
235236  1  0  0  0  0
236237  2  0  0  0  0
236238  1  0  0  0  0
236239  2  0  0  0  0
235240  4  0  0  0  0
232241  4  0  0  0  0
240241  4  0  0  0  0
231242  4  0  0  0  0
242243  1  0  0  0  0
243244  2  0  0  0  0
242245  4  0  0  0  0
244246  1  0  0  0  0
245246  4  0  0  0  0
146247  4  0  0  0  0
246247  4  0  0  0  0
247248  4  0  0  0  0
248249  4  0  0  0  0
249250  2  0  0  0  0
250251  4  0  0  0  0
248252  4  0  0  0  0
251252  4  0  0  0  0
251253  4  0  0  0  0
253254  1  0  0  0  0
254255  4  0  0  0  0
255256  4  0  0  0  0
256257  4  0  0  0  0
257258  1  0  0  0  0
258259  2  0  0  0  0
258260  1  0  0  0  0
258261  2  0  0  0  0
257262  4  0  0  0  0
254263  4  0  0  0  0
262263  4  0  0  0  0
253264  4  0  0  0  0
264265  1  0  0  0  0
265266  2  0  0  0  0
225267  4  0  0  0  0
266267  1  0  0  0  0
264268  4  0  0  0  0
267268  4  0  0  0  0
227269  1  0  0  0  0
228270  1  0  0  0  0
230271  1  0  0  0  0
233272  1  0  0  0  0
234273  1  0  0  0  0
238274  1  0  0  0  0
240275  1  0  0  0  0
241276  1  0  0  0  0
243277  1  0  0  0  0
244278  1  0  0  0  0
249279  1  0  0  0  0
250280  1  0  0  0  0
252281  1  0  0  0  0
255282  1  0  0  0  0
256283  1  0  0  0  0
260284  1  0  0  0  0
262285  1  0  0  0  0
263286  1  0  0  0  0
265287  1  0  0  0  0
266288  1  0  0  0  0
148289  4  0  0  0  0
289290  4  0  0  0  0
290291  4  0  0  0  0
291292  2  0  0  0  0
292293  4  0  0  0  0
290294  4  0  0  0  0
293294  4  0  0  0  0
293295  4  0  0  0  0
295296  1  0  0  0  0
296297  4  0  0  0  0
297298  4  0  0  0  0
298299  4  0  0  0  0
299300  1  0  0  0  0
300301  2  0  0  0  0
300302  1  0  0  0  0
300303  2  0  0  0  0
299304  4  0  0  0  0
296305  4  0  0  0  0
304305  4  0  0  0  0
295306  4  0  0  0  0
306307  1  0  0  0  0
307308  2  0  0  0  0
306309  4  0  0  0  0
308310  1  0  0  0  0
309310  4  0  0  0  0
152311  4  0  0  0  0
310311  4  0  0  0  0
311312  4  0  0  0  0
312313  4  0  0  0  0
313314  2  0  0  0  0
314315  4  0  0  0  0
312316  4  0  0  0  0
315316  4  0  0  0  0
315317  4  0  0  0  0
317318  1  0  0  0  0
318319  4  0  0  0  0
319320  4  0  0  0  0
320321  4  0  0  0  0
321322  1  0  0  0  0
322323  2  0  0  0  0
322324  1  0  0  0  0
322325  2  0  0  0  0
321326  4  0  0  0  0
318327  4  0  0  0  0
326327  4  0  0  0  0
317328  4  0  0  0  0
328329  1  0  0  0  0
329330  2  0  0  0  0
289331  4  0  0  0  0
330331  1  0  0  0  0
328332  4  0  0  0  0
331332  4  0  0  0  0
291333  1  0  0  0  0
292334  1  0  0  0  0
294335  1  0  0  0  0
297336  1  0  0  0  0
298337  1  0  0  0  0
302338  1  0  0  0  0
304339  1  0  0  0  0
305340  1  0  0  0  0
307341  1  0  0  0  0
308342  1  0  0  0  0
313343  1  0  0  0  0
314344  1  0  0  0  0
316345  1  0  0  0  0
319346  1  0  0  0  0
320347  1  0  0  0  0
324348  1  0  0  0  0
326349  1  0  0  0  0
327350  1  0  0  0  0
329351  1  0  0  0  0
330352  1  0  0  0  0
154353  4  0  0  0  0
353354  4  0  0  0  0
354355  4  0  0  0  0
355356  2  0  0  0  0
356357  4  0  0  0  0
354358  4  0  0  0  0
357358  4  0  0  0  0
357359  4  0  0  0  0
359360  1  0  0  0  0
360361  4  0  0  0  0
361362  4  0  0  0  0
362363  4  0  0  0  0
363364  1  0  0  0  0
364365  2  0  0  0  0
364366  1  0  0  0  0
364367  2  0  0  0  0
363368  4  0  0  0  0
360369  4  0  0  0  0
368369  4  0  0  0  0
359370  4  0  0  0  0
370371  1  0  0  0  0
371372  2  0  0  0  0
370373  4  0  0  0  0
372374  1  0  0  0  0
373374  4  0  0  0  0
158375  4  0  0  0  0
374375  4  0  0  0  0
375376  4  0  0  0  0
376377  4  0  0  0  0
377378  2  0  0  0  0
378379  4  0  0  0  0
376380  4  0  0  0  0
379380  4  0  0  0  0
379381  4  0  0  0  0
381382  1  0  0  0  0
382383  4  0  0  0  0
383384  4  0  0  0  0
384385  4  0  0  0  0
385386  1  0  0  0  0
386387  2  0  0  0  0
386388  1  0  0  0  0
386389  2  0  0  0  0
385390  4  0  0  0  0
382391  4  0  0  0  0
390391  4  0  0  0  0
381392  4  0  0  0  0
392393  1  0  0  0  0
393394  2  0  0  0  0
353395  4  0  0  0  0
394395  1  0  0  0  0
392396  4  0  0  0  0
395396  4  0  0  0  0
355397  1  0  0  0  0
356398  1  0  0  0  0
358399  1  0  0  0  0
361400  1  0  0  0  0
362401  1  0  0  0  0
366402  1  0  0  0  0
368403  1  0  0  0  0
369404  1  0  0  0  0
371405  1  0  0  0  0
372406  1  0  0  0  0
377407  1  0  0  0  0
378408  1  0  0  0  0
380409  1  0  0  0  0
383410  1  0  0  0  0
384411  1  0  0  0  0
388412  1  0  0  0  0
390413  1  0  0  0  0
391414  1  0  0  0  0
393415  1  0  0  0  0
394416  1  0  0  0  0
M  END
