 xtb: 6.5.1 (b24c23e)
          07302211503D

248287  0     0  0            999 V2000
   42.8022   -0.0175   -0.0376 Zn  0  0  0  0  0  0  0  0  0  0  0  0
   39.3929   -0.0703   -0.0900 C   0  0  0  0  0  0  0  0  0  0  0  0
   40.0298   -1.3036   -0.0189 C   0  0  0  0  0  0  0  0  0  0  0  0
   39.3625   -2.5712    0.0800 C   0  0  0  0  0  0  0  0  0  0  0  0
   40.3268   -3.5230    0.1497 C   0  0  0  0  0  0  0  0  0  0  0  0
   41.5962   -2.8487    0.0819 C   0  0  0  0  0  0  0  0  0  0  0  0
   41.3803   -1.5048   -0.0115 N   0  0  0  0  0  0  0  0  0  0  0  0
   42.8508   -3.4697    0.1296 C   0  0  0  0  0  0  0  0  0  0  0  0
   42.8732   -4.9514    0.2162 C   0  0  0  0  0  0  0  0  0  0  0  0
   42.3175   -5.7324   -0.7975 C   0  0  0  0  0  0  0  0  0  0  0  0
   42.3401   -7.1166   -0.7194 C   0  0  0  0  0  0  0  0  0  0  0  0
   42.9178   -7.7371    0.3855 C   0  0  0  0  0  0  0  0  0  0  0  0
   42.9589   -9.0900    0.5036 O   0  0  0  0  0  0  0  0  0  0  0  0
   43.4735   -6.9692    1.4070 C   0  0  0  0  0  0  0  0  0  0  0  0
   43.4517   -5.5887    1.3167 C   0  0  0  0  0  0  0  0  0  0  0  0
   44.0858   -2.8121    0.1055 C   0  0  0  0  0  0  0  0  0  0  0  0
   45.3692   -3.4581    0.0950 C   0  0  0  0  0  0  0  0  0  0  0  0
   46.3099   -2.4801    0.0580 C   0  0  0  0  0  0  0  0  0  0  0  0
   44.2718   -1.4558    0.0607 N   0  0  0  0  0  0  0  0  0  0  0  0
   45.6123   -1.2281    0.0378 C   0  0  0  0  0  0  0  0  0  0  0  0
   46.2363    0.0351   -0.0050 C   0  0  0  0  0  0  0  0  0  0  0  0
   45.5756    1.2792   -0.0514 C   0  0  0  0  0  0  0  0  0  0  0  0
   46.2359    2.5495   -0.1228 C   0  0  0  0  0  0  0  0  0  0  0  0
   45.2665    3.4985   -0.1733 C   0  0  0  0  0  0  0  0  0  0  0  0
   44.0025    2.8166   -0.1256 C   0  0  0  0  0  0  0  0  0  0  0  0
   44.2288    1.4675   -0.0578 N   0  0  0  0  0  0  0  0  0  0  0  0
   42.7487    3.4354   -0.1759 C   0  0  0  0  0  0  0  0  0  0  0  0
   42.7250    4.9192   -0.2254 C   0  0  0  0  0  0  0  0  0  0  0  0
   43.2492    5.6732    0.8273 C   0  0  0  0  0  0  0  0  0  0  0  0
   43.2241    7.0562    0.7907 C   0  0  0  0  0  0  0  0  0  0  0  0
   42.6765    7.7082   -0.3125 C   0  0  0  0  0  0  0  0  0  0  0  0
   42.6703    9.0669   -0.3181 O   0  0  0  0  0  0  0  0  0  0  0  0
   42.1538    6.9702   -1.3717 C   0  0  0  0  0  0  0  0  0  0  0  0
   42.1768    5.5847   -1.3221 C   0  0  0  0  0  0  0  0  0  0  0  0
   41.5135    2.7753   -0.1811 C   0  0  0  0  0  0  0  0  0  0  0  0
   40.2246    3.4152   -0.1899 C   0  0  0  0  0  0  0  0  0  0  0  0
   39.2888    2.4331   -0.1723 C   0  0  0  0  0  0  0  0  0  0  0  0
   39.9931    1.1821   -0.1419 C   0  0  0  0  0  0  0  0  0  0  0  0
   41.3373    1.4228   -0.1466 N   0  0  0  0  0  0  0  0  0  0  0  0
   38.3073   -0.0862   -0.0894 H   0  0  0  0  0  0  0  0  0  0  0  0
   38.2921   -2.7037    0.1023 H   0  0  0  0  0  0  0  0  0  0  0  0
   40.1941   -4.5882    0.2519 H   0  0  0  0  0  0  0  0  0  0  0  0
   41.8794   -5.2513   -1.6649 H   0  0  0  0  0  0  0  0  0  0  0  0
   41.9124   -7.7185   -1.5142 H   0  0  0  0  0  0  0  0  0  0  0  0
   42.5468   -9.5218   -0.2566 H   0  0  0  0  0  0  0  0  0  0  0  0
   43.9159   -7.4649    2.2622 H   0  0  0  0  0  0  0  0  0  0  0  0
   43.8731   -4.9913    2.1175 H   0  0  0  0  0  0  0  0  0  0  0  0
   45.5290   -4.5243    0.0996 H   0  0  0  0  0  0  0  0  0  0  0  0
   47.3826   -2.5895    0.0394 H   0  0  0  0  0  0  0  0  0  0  0  0
   47.3051    2.6890   -0.1394 H   0  0  0  0  0  0  0  0  0  0  0  0
   45.3943    4.5662   -0.2508 H   0  0  0  0  0  0  0  0  0  0  0  0
   43.6646    5.1659    1.6910 H   0  0  0  0  0  0  0  0  0  0  0  0
   43.6233    7.6428    1.6089 H   0  0  0  0  0  0  0  0  0  0  0  0
   42.2689    9.4130   -1.1263 H   0  0  0  0  0  0  0  0  0  0  0  0
   41.7327    7.4821   -2.2304 H   0  0  0  0  0  0  0  0  0  0  0  0
   41.7803    5.0114   -2.1528 H   0  0  0  0  0  0  0  0  0  0  0  0
   40.0608    4.4810   -0.1948 H   0  0  0  0  0  0  0  0  0  0  0  0
   38.2148    2.5355   -0.1708 H   0  0  0  0  0  0  0  0  0  0  0  0
   90.9513    0.0012   -0.0160 Zn  0  0  0  0  0  0  0  0  0  0  0  0
   94.3596    0.0506   -0.1231 C   0  0  0  0  0  0  0  0  0  0  0  0
   93.7198    1.2809   -0.2157 C   0  0  0  0  0  0  0  0  0  0  0  0
   94.3840    2.5506   -0.3079 C   0  0  0  0  0  0  0  0  0  0  0  0
   93.4177    3.5017   -0.3549 C   0  0  0  0  0  0  0  0  0  0  0  0
   92.1498    2.8232   -0.3028 C   0  0  0  0  0  0  0  0  0  0  0  0
   92.3688    1.4796   -0.2120 N   0  0  0  0  0  0  0  0  0  0  0  0
   90.8943    3.4441   -0.3140 C   0  0  0  0  0  0  0  0  0  0  0  0
   90.8695    4.9233   -0.4382 C   0  0  0  0  0  0  0  0  0  0  0  0
   91.3947    5.5494   -1.5690 C   0  0  0  0  0  0  0  0  0  0  0  0
   91.3693    6.9302   -1.6913 C   0  0  0  0  0  0  0  0  0  0  0  0
   90.8198    7.7041   -0.6720 C   0  0  0  0  0  0  0  0  0  0  0  0
   90.7771    9.0598   -0.7495 O   0  0  0  0  0  0  0  0  0  0  0  0
   90.2953    7.0921    0.4648 C   0  0  0  0  0  0  0  0  0  0  0  0
   90.3192    5.7130    0.5744 C   0  0  0  0  0  0  0  0  0  0  0  0
   89.6614    2.7894   -0.2194 C   0  0  0  0  0  0  0  0  0  0  0  0
   88.3759    3.4279   -0.2859 C   0  0  0  0  0  0  0  0  0  0  0  0
   87.4379    2.4527   -0.1770 C   0  0  0  0  0  0  0  0  0  0  0  0
   89.4789    1.4387   -0.0827 N   0  0  0  0  0  0  0  0  0  0  0  0
   88.1390    1.2089   -0.0506 C   0  0  0  0  0  0  0  0  0  0  0  0
   87.5180   -0.0513    0.0655 C   0  0  0  0  0  0  0  0  0  0  0  0
   88.1816   -1.2909    0.1634 C   0  0  0  0  0  0  0  0  0  0  0  0
   87.5245   -2.5610    0.2604 C   0  0  0  0  0  0  0  0  0  0  0  0
   88.4962   -3.5065    0.3296 C   0  0  0  0  0  0  0  0  0  0  0  0
   89.7585   -2.8216    0.2812 C   0  0  0  0  0  0  0  0  0  0  0  0
   89.5289   -1.4757    0.1730 N   0  0  0  0  0  0  0  0  0  0  0  0
   91.0136   -3.4390    0.3076 C   0  0  0  0  0  0  0  0  0  0  0  0
   91.0411   -4.9158    0.4603 C   0  0  0  0  0  0  0  0  0  0  0  0
   90.5262   -5.5197    1.6099 C   0  0  0  0  0  0  0  0  0  0  0  0
   90.5558   -6.8947    1.7628 C   0  0  0  0  0  0  0  0  0  0  0  0
   91.0982   -7.6902    0.7555 C   0  0  0  0  0  0  0  0  0  0  0  0
   91.1091   -9.0368    0.9360 O   0  0  0  0  0  0  0  0  0  0  0  0
   91.6111   -7.1030   -0.3986 C   0  0  0  0  0  0  0  0  0  0  0  0
   91.5840   -5.7238   -0.5389 C   0  0  0  0  0  0  0  0  0  0  0  0
   92.2470   -2.7834    0.2044 C   0  0  0  0  0  0  0  0  0  0  0  0
   93.5376   -3.4164    0.2708 C   0  0  0  0  0  0  0  0  0  0  0  0
   94.4705   -2.4398    0.1431 C   0  0  0  0  0  0  0  0  0  0  0  0
   93.7628   -1.1976    0.0083 C   0  0  0  0  0  0  0  0  0  0  0  0
   92.4195   -1.4387    0.0517 N   0  0  0  0  0  0  0  0  0  0  0  0
   95.4451    0.0679   -0.1407 H   0  0  0  0  0  0  0  0  0  0  0  0
   95.4542    2.6860   -0.3244 H   0  0  0  0  0  0  0  0  0  0  0  0
   93.5481    4.5708   -0.4061 H   0  0  0  0  0  0  0  0  0  0  0  0
   91.8108    4.9476   -2.3694 H   0  0  0  0  0  0  0  0  0  0  0  0
   91.7728    7.4107   -2.5762 H   0  0  0  0  0  0  0  0  0  0  0  0
   91.1655    9.3769   -1.5759 H   0  0  0  0  0  0  0  0  0  0  0  0
   89.8749    7.7065    1.2514 H   0  0  0  0  0  0  0  0  0  0  0  0
   89.9220    5.2377    1.4644 H   0  0  0  0  0  0  0  0  0  0  0  0
   88.2126    4.4857   -0.4152 H   0  0  0  0  0  0  0  0  0  0  0  0
   86.3647    2.5582   -0.1875 H   0  0  0  0  0  0  0  0  0  0  0  0
   86.4555   -2.7037    0.2683 H   0  0  0  0  0  0  0  0  0  0  0  0
   88.3712   -4.5755    0.3934 H   0  0  0  0  0  0  0  0  0  0  0  0
   90.1147   -4.8999    2.3988 H   0  0  0  0  0  0  0  0  0  0  0  0
   90.1642   -7.3646    2.6565 H   0  0  0  0  0  0  0  0  0  0  0  0
   91.5057   -9.4894    0.1796 H   0  0  0  0  0  0  0  0  0  0  0  0
   92.0280   -7.7267   -1.1822 H   0  0  0  0  0  0  0  0  0  0  0  0
   91.9729   -5.2687   -1.4431 H   0  0  0  0  0  0  0  0  0  0  0  0
   93.7045   -4.4725    0.4109 H   0  0  0  0  0  0  0  0  0  0  0  0
   95.5448   -2.5392    0.1472 H   0  0  0  0  0  0  0  0  0  0  0  0
   51.4387    0.0642   -0.0377 C   0  0  0  0  0  0  0  0  0  0  0  0
   50.2103    0.0652   -0.0285 C   0  0  0  0  0  0  0  0  0  0  0  0
   48.8658    0.0600   -0.0192 C   0  0  0  0  0  0  0  0  0  0  0  0
   47.6418    0.0534   -0.0118 C   0  0  0  0  0  0  0  0  0  0  0  0
   52.7831    0.0611   -0.0466 C   0  0  0  0  0  0  0  0  0  0  0  0
   54.0073    0.0558   -0.0540 C   0  0  0  0  0  0  0  0  0  0  0  0
   67.4920   -0.0199   -0.0339 C   0  0  0  0  0  0  0  0  0  0  0  0
   66.2631   -0.0171   -0.0388 C   0  0  0  0  0  0  0  0  0  0  0  0
   64.9197   -0.0119   -0.0429 C   0  0  0  0  0  0  0  0  0  0  0  0
   63.6952   -0.0049   -0.0470 C   0  0  0  0  0  0  0  0  0  0  0  0
   68.8355   -0.0235   -0.0321 C   0  0  0  0  0  0  0  0  0  0  0  0
   70.0600   -0.0267   -0.0304 C   0  0  0  0  0  0  0  0  0  0  0  0
   83.5441   -0.0886    0.0568 C   0  0  0  0  0  0  0  0  0  0  0  0
   82.3158   -0.0858    0.0442 C   0  0  0  0  0  0  0  0  0  0  0  0
   80.9715   -0.0801    0.0285 C   0  0  0  0  0  0  0  0  0  0  0  0
   79.7474   -0.0725    0.0110 C   0  0  0  0  0  0  0  0  0  0  0  0
   84.8886   -0.0820    0.0655 C   0  0  0  0  0  0  0  0  0  0  0  0
   86.1126   -0.0721    0.0699 C   0  0  0  0  0  0  0  0  0  0  0  0
   58.8515    0.0289   -0.0576 Zn  0  0  0  0  0  0  0  0  0  0  0  0
   55.4122    0.0495   -0.0582 C   0  0  0  0  0  0  0  0  0  0  0  0
   56.0622    1.1106    0.6044 C   0  0  0  0  0  0  0  0  0  0  0  0
   55.3911    2.1647    1.3051 C   0  0  0  0  0  0  0  0  0  0  0  0
   56.3521    2.9844    1.8037 C   0  0  0  0  0  0  0  0  0  0  0  0
   57.6202    2.4426    1.4029 C   0  0  0  0  0  0  0  0  0  0  0  0
   57.4069    1.2977    0.6824 N   0  0  0  0  0  0  0  0  0  0  0  0
   58.8691    2.9890    1.7189 C   0  0  0  0  0  0  0  0  0  0  0  0
   58.8777    4.2604    2.4859 C   0  0  0  0  0  0  0  0  0  0  0  0
   59.4590    4.3203    3.7547 C   0  0  0  0  0  0  0  0  0  0  0  0
   59.4674    5.5012    4.4759 C   0  0  0  0  0  0  0  0  0  0  0  0
   58.8966    6.6489    3.9290 C   0  0  0  0  0  0  0  0  0  0  0  0
   58.9257    7.7923    4.6617 O   0  0  0  0  0  0  0  0  0  0  0  0
   58.3166    6.6056    2.6634 C   0  0  0  0  0  0  0  0  0  0  0  0
   58.3061    5.4156    1.9520 C   0  0  0  0  0  0  0  0  0  0  0  0
   60.1114    2.4429    1.3780 C   0  0  0  0  0  0  0  0  0  0  0  0
   61.3861    3.0404    1.6609 C   0  0  0  0  0  0  0  0  0  0  0  0
   62.3375    2.2062    1.1679 C   0  0  0  0  0  0  0  0  0  0  0  0
   60.3111    1.2667    0.7053 N   0  0  0  0  0  0  0  0  0  0  0  0
   61.6535    1.0977    0.5715 C   0  0  0  0  0  0  0  0  0  0  0  0
   62.2913    0.0046   -0.0505 C   0  0  0  0  0  0  0  0  0  0  0  0
   61.6407   -1.0789   -0.6758 C   0  0  0  0  0  0  0  0  0  0  0  0
   62.3113   -2.1972   -1.2691 C   0  0  0  0  0  0  0  0  0  0  0  0
   61.3503   -3.0166   -1.7683 C   0  0  0  0  0  0  0  0  0  0  0  0
   60.0831   -2.4003   -1.4920 C   0  0  0  0  0  0  0  0  0  0  0  0
   60.2967   -1.2280   -0.8168 N   0  0  0  0  0  0  0  0  0  0  0  0
   58.8345   -2.9274   -1.8407 C   0  0  0  0  0  0  0  0  0  0  0  0
   58.8292   -4.1949   -2.6137 C   0  0  0  0  0  0  0  0  0  0  0  0
   58.2339   -5.3438   -2.0920 C   0  0  0  0  0  0  0  0  0  0  0  0
   58.2320   -6.5297   -2.8102 C   0  0  0  0  0  0  0  0  0  0  0  0
   58.8237   -6.5756   -4.0703 C   0  0  0  0  0  0  0  0  0  0  0  0
   58.8414   -7.7154   -4.8091 O   0  0  0  0  0  0  0  0  0  0  0  0
   59.4186   -5.4344   -4.6049 C   0  0  0  0  0  0  0  0  0  0  0  0
   59.4220   -4.2576   -3.8773 C   0  0  0  0  0  0  0  0  0  0  0  0
   57.5919   -2.3651   -1.5268 C   0  0  0  0  0  0  0  0  0  0  0  0
   56.3177   -2.8888   -1.9317 C   0  0  0  0  0  0  0  0  0  0  0  0
   55.3663   -2.0600   -1.4295 C   0  0  0  0  0  0  0  0  0  0  0  0
   56.0497   -1.0172   -0.7239 C   0  0  0  0  0  0  0  0  0  0  0  0
   57.3921   -1.2203   -0.8020 N   0  0  0  0  0  0  0  0  0  0  0  0
   54.3213    2.2556    1.4062 H   0  0  0  0  0  0  0  0  0  0  0  0
   56.2153    3.8708    2.4019 H   0  0  0  0  0  0  0  0  0  0  0  0
   59.8928    3.4246    4.1851 H   0  0  0  0  0  0  0  0  0  0  0  0
   59.9110    5.5483    5.4627 H   0  0  0  0  0  0  0  0  0  0  0  0
   58.5007    8.5222    4.1917 H   0  0  0  0  0  0  0  0  0  0  0  0
   57.8775    7.5025    2.2399 H   0  0  0  0  0  0  0  0  0  0  0  0
   57.8650    5.3862    0.9618 H   0  0  0  0  0  0  0  0  0  0  0  0
   61.5336    3.9842    2.1609 H   0  0  0  0  0  0  0  0  0  0  0  0
   63.4085    2.3284    1.1954 H   0  0  0  0  0  0  0  0  0  0  0  0
   63.3806   -2.3357   -1.2905 H   0  0  0  0  0  0  0  0  0  0  0  0
   61.4867   -3.9624   -2.2675 H   0  0  0  0  0  0  0  0  0  0  0  0
   57.7841   -5.3131   -1.1058 H   0  0  0  0  0  0  0  0  0  0  0  0
   57.7741   -7.4217   -2.3961 H   0  0  0  0  0  0  0  0  0  0  0  0
   58.4004   -8.4408   -4.3470 H   0  0  0  0  0  0  0  0  0  0  0  0
   59.8716   -5.4833   -5.5875 H   0  0  0  0  0  0  0  0  0  0  0  0
   59.8745   -3.3667   -4.2984 H   0  0  0  0  0  0  0  0  0  0  0  0
   56.1702   -3.7702   -2.5348 H   0  0  0  0  0  0  0  0  0  0  0  0
   54.2955   -2.1371   -1.5320 H   0  0  0  0  0  0  0  0  0  0  0  0
   74.9034   -0.0398   -0.0265 Zn  0  0  0  0  0  0  0  0  0  0  0  0
   71.4639   -0.0294   -0.0301 C   0  0  0  0  0  0  0  0  0  0  0  0
   72.1105    1.0292    0.6404 C   0  0  0  0  0  0  0  0  0  0  0  0
   71.4359    2.0784    1.3451 C   0  0  0  0  0  0  0  0  0  0  0  0
   72.3941    2.9050    1.8378 C   0  0  0  0  0  0  0  0  0  0  0  0
   73.6636    2.3717    1.4303 C   0  0  0  0  0  0  0  0  0  0  0  0
   73.4540    1.2240    0.7129 N   0  0  0  0  0  0  0  0  0  0  0  0
   74.9104    2.9294    1.7347 C   0  0  0  0  0  0  0  0  0  0  0  0
   74.9127    4.2084    2.4887 C   0  0  0  0  0  0  0  0  0  0  0  0
   75.5017    4.2881    3.7529 C   0  0  0  0  0  0  0  0  0  0  0  0
   75.5023    5.4767    4.4613 C   0  0  0  0  0  0  0  0  0  0  0  0
   74.9158    6.6124    3.9061 C   0  0  0  0  0  0  0  0  0  0  0  0
   74.9371    7.7638    4.6265 O   0  0  0  0  0  0  0  0  0  0  0  0
   74.3280    6.5494    2.6449 C   0  0  0  0  0  0  0  0  0  0  0  0
   74.3254    5.3519    1.9464 C   0  0  0  0  0  0  0  0  0  0  0  0
   76.1547    2.3881    1.3922 C   0  0  0  0  0  0  0  0  0  0  0  0
   77.4272    2.9944    1.6661 C   0  0  0  0  0  0  0  0  0  0  0  0
   78.3815    2.1578    1.1828 C   0  0  0  0  0  0  0  0  0  0  0  0
   76.3583    1.2058    0.7320 N   0  0  0  0  0  0  0  0  0  0  0  0
   77.7015    1.0396    0.5999 C   0  0  0  0  0  0  0  0  0  0  0  0
   78.3426   -0.0614   -0.0039 C   0  0  0  0  0  0  0  0  0  0  0  0
   77.6959   -1.1501   -0.6234 C   0  0  0  0  0  0  0  0  0  0  0  0
   78.3693   -2.2708   -1.2091 C   0  0  0  0  0  0  0  0  0  0  0  0
   77.4113   -3.0876   -1.7181 C   0  0  0  0  0  0  0  0  0  0  0  0
   76.1429   -2.4683   -1.4537 C   0  0  0  0  0  0  0  0  0  0  0  0
   76.3525   -1.2971   -0.7760 N   0  0  0  0  0  0  0  0  0  0  0  0
   74.8966   -2.9915   -1.8168 C   0  0  0  0  0  0  0  0  0  0  0  0
   74.8949   -4.2528   -2.5998 C   0  0  0  0  0  0  0  0  0  0  0  0
   74.2898   -5.4038   -2.0943 C   0  0  0  0  0  0  0  0  0  0  0  0
   74.2866   -6.5822   -2.8248 C   0  0  0  0  0  0  0  0  0  0  0  0
   74.8870   -6.6181   -4.0811 C   0  0  0  0  0  0  0  0  0  0  0  0
   74.9025   -7.7497   -4.8324 O   0  0  0  0  0  0  0  0  0  0  0  0
   75.4929   -5.4750   -4.5991 C   0  0  0  0  0  0  0  0  0  0  0  0
   75.4975   -4.3059   -3.8592 C   0  0  0  0  0  0  0  0  0  0  0  0
   73.6524   -2.4295   -1.5099 C   0  0  0  0  0  0  0  0  0  0  0  0
   72.3804   -2.9499   -1.9263 C   0  0  0  0  0  0  0  0  0  0  0  0
   71.4261   -2.1257   -1.4222 C   0  0  0  0  0  0  0  0  0  0  0  0
   72.1057   -1.0884   -0.7048 C   0  0  0  0  0  0  0  0  0  0  0  0
   73.4482   -1.2899   -0.7778 N   0  0  0  0  0  0  0  0  0  0  0  0
   70.3661    2.1620    1.4517 H   0  0  0  0  0  0  0  0  0  0  0  0
   72.2546    3.7908    2.4364 H   0  0  0  0  0  0  0  0  0  0  0  0
   75.9475    3.4017    4.1902 H   0  0  0  0  0  0  0  0  0  0  0  0
   75.9516    5.5392    5.4447 H   0  0  0  0  0  0  0  0  0  0  0  0
   74.5035    8.4847    4.1504 H   0  0  0  0  0  0  0  0  0  0  0  0
   73.8764    7.4370    2.2147 H   0  0  0  0  0  0  0  0  0  0  0  0
   73.8779    5.3070    0.9597 H   0  0  0  0  0  0  0  0  0  0  0  0
   77.5714    3.9448    2.1543 H   0  0  0  0  0  0  0  0  0  0  0  0
   79.4520    2.2847    1.2081 H   0  0  0  0  0  0  0  0  0  0  0  0
   79.4384   -2.4116   -1.2206 H   0  0  0  0  0  0  0  0  0  0  0  0
   77.5499   -4.0333   -2.2168 H   0  0  0  0  0  0  0  0  0  0  0  0
   73.8326   -5.3807   -1.1113 H   0  0  0  0  0  0  0  0  0  0  0  0
   73.8204   -7.4757   -2.4235 H   0  0  0  0  0  0  0  0  0  0  0  0
   74.4543   -8.4776   -4.3811 H   0  0  0  0  0  0  0  0  0  0  0  0
   75.9525   -5.5163   -5.5789 H   0  0  0  0  0  0  0  0  0  0  0  0
   75.9581   -3.4132   -4.2676 H   0  0  0  0  0  0  0  0  0  0  0  0
   72.2362   -3.8262   -2.5375 H   0  0  0  0  0  0  0  0  0  0  0  0
   70.3559   -2.2024   -1.5304 H   0  0  0  0  0  0  0  0  0  0  0  0
  2  3  4  0  0  0  0
  3  4  1  0  0  0  0
  4  5  2  0  0  0  0
  5  6  4  0  0  0  0
  1  7  1  0  0  0  0
  3  7  4  0  0  0  0
  6  7  4  0  0  0  0
  6  8  4  0  0  0  0
  8  9  1  0  0  0  0
  9 10  4  0  0  0  0
 10 11  4  0  0  0  0
 11 12  4  0  0  0  0
 12 13  1  0  0  0  0
 12 14  4  0  0  0  0
  9 15  4  0  0  0  0
 14 15  4  0  0  0  0
  8 16  4  0  0  0  0
 16 17  4  0  0  0  0
 17 18  2  0  0  0  0
  1 19  1  0  0  0  0
 16 19  4  0  0  0  0
 18 20  4  0  0  0  0
 19 20  4  0  0  0  0
 20 21  4  0  0  0  0
 21 22  4  0  0  0  0
 22 23  4  0  0  0  0
 23 24  2  0  0  0  0
 24 25  4  0  0  0  0
  1 26  1  0  0  0  0
 22 26  4  0  0  0  0
 25 26  4  0  0  0  0
 25 27  4  0  0  0  0
 27 28  1  0  0  0  0
 28 29  4  0  0  0  0
 29 30  4  0  0  0  0
 30 31  4  0  0  0  0
 31 32  1  0  0  0  0
 31 33  4  0  0  0  0
 28 34  4  0  0  0  0
 33 34  4  0  0  0  0
 27 35  4  0  0  0  0
 35 36  4  0  0  0  0
 36 37  2  0  0  0  0
  2 38  4  0  0  0  0
 37 38  1  0  0  0  0
  1 39  1  0  0  0  0
 35 39  4  0  0  0  0
 38 39  4  0  0  0  0
  2 40  1  0  0  0  0
  4 41  1  0  0  0  0
  5 42  1  0  0  0  0
 10 43  1  0  0  0  0
 11 44  1  0  0  0  0
 13 45  1  0  0  0  0
 14 46  1  0  0  0  0
 15 47  1  0  0  0  0
 17 48  1  0  0  0  0
 18 49  1  0  0  0  0
 23 50  1  0  0  0  0
 24 51  1  0  0  0  0
 29 52  1  0  0  0  0
 30 53  1  0  0  0  0
 32 54  1  0  0  0  0
 33 55  1  0  0  0  0
 34 56  1  0  0  0  0
 36 57  1  0  0  0  0
 37 58  1  0  0  0  0
 60 61  4  0  0  0  0
 61 62  1  0  0  0  0
 62 63  2  0  0  0  0
 63 64  4  0  0  0  0
 59 65  1  0  0  0  0
 61 65  4  0  0  0  0
 64 65  4  0  0  0  0
 64 66  4  0  0  0  0
 66 67  1  0  0  0  0
 67 68  4  0  0  0  0
 68 69  4  0  0  0  0
 69 70  4  0  0  0  0
 70 71  1  0  0  0  0
 70 72  4  0  0  0  0
 67 73  4  0  0  0  0
 72 73  4  0  0  0  0
 66 74  4  0  0  0  0
 74 75  4  0  0  0  0
 75 76  2  0  0  0  0
 59 77  1  0  0  0  0
 74 77  4  0  0  0  0
 76 78  4  0  0  0  0
 77 78  4  0  0  0  0
 78 79  4  0  0  0  0
 79 80  4  0  0  0  0
 80 81  4  0  0  0  0
 81 82  2  0  0  0  0
 82 83  4  0  0  0  0
 59 84  1  0  0  0  0
 80 84  4  0  0  0  0
 83 84  4  0  0  0  0
 83 85  4  0  0  0  0
 85 86  1  0  0  0  0
 86 87  4  0  0  0  0
 87 88  4  0  0  0  0
 88 89  4  0  0  0  0
 89 90  1  0  0  0  0
 89 91  4  0  0  0  0
 86 92  4  0  0  0  0
 91 92  4  0  0  0  0
 85 93  4  0  0  0  0
 93 94  4  0  0  0  0
 94 95  2  0  0  0  0
 60 96  4  0  0  0  0
 95 96  1  0  0  0  0
 59 97  1  0  0  0  0
 93 97  4  0  0  0  0
 96 97  4  0  0  0  0
 60 98  1  0  0  0  0
 62 99  1  0  0  0  0
 63100  1  0  0  0  0
 68101  1  0  0  0  0
 69102  1  0  0  0  0
 71103  1  0  0  0  0
 72104  1  0  0  0  0
 73105  1  0  0  0  0
 75106  1  0  0  0  0
 76107  1  0  0  0  0
 81108  1  0  0  0  0
 82109  1  0  0  0  0
 87110  1  0  0  0  0
 88111  1  0  0  0  0
 90112  1  0  0  0  0
 91113  1  0  0  0  0
 92114  1  0  0  0  0
 94115  1  0  0  0  0
 95116  1  0  0  0  0
117118  3  0  0  0  0
118119  4  0  0  0  0
 21120  4  0  0  0  0
119120  3  0  0  0  0
117121  4  0  0  0  0
121122  3  0  0  0  0
123124  3  0  0  0  0
124125  4  0  0  0  0
125126  3  0  0  0  0
123127  4  0  0  0  0
127128  3  0  0  0  0
129130  3  0  0  0  0
130131  4  0  0  0  0
131132  3  0  0  0  0
129133  4  0  0  0  0
 79134  4  0  0  0  0
133134  3  0  0  0  0
122136  4  0  0  0  0
136137  4  0  0  0  0
137138  4  0  0  0  0
138139  2  0  0  0  0
139140  4  0  0  0  0
135141  1  0  0  0  0
137141  4  0  0  0  0
140141  4  0  0  0  0
140142  4  0  0  0  0
142143  1  0  0  0  0
143144  4  0  0  0  0
144145  4  0  0  0  0
145146  4  0  0  0  0
146147  1  0  0  0  0
146148  4  0  0  0  0
143149  4  0  0  0  0
148149  4  0  0  0  0
142150  4  0  0  0  0
150151  4  0  0  0  0
151152  2  0  0  0  0
135153  1  0  0  0  0
150153  4  0  0  0  0
152154  4  0  0  0  0
153154  4  0  0  0  0
126155  4  0  0  0  0
154155  4  0  0  0  0
155156  4  0  0  0  0
156157  4  0  0  0  0
157158  2  0  0  0  0
158159  4  0  0  0  0
135160  1  0  0  0  0
156160  4  0  0  0  0
159160  4  0  0  0  0
159161  4  0  0  0  0
161162  1  0  0  0  0
162163  4  0  0  0  0
163164  4  0  0  0  0
164165  4  0  0  0  0
165166  1  0  0  0  0
165167  4  0  0  0  0
162168  4  0  0  0  0
167168  4  0  0  0  0
161169  4  0  0  0  0
169170  4  0  0  0  0
170171  2  0  0  0  0
136172  4  0  0  0  0
171172  4  0  0  0  0
135173  1  0  0  0  0
169173  4  0  0  0  0
172173  4  0  0  0  0
138174  1  0  0  0  0
139175  1  0  0  0  0
144176  1  0  0  0  0
145177  1  0  0  0  0
147178  1  0  0  0  0
148179  1  0  0  0  0
149180  1  0  0  0  0
151181  1  0  0  0  0
152182  1  0  0  0  0
157183  1  0  0  0  0
158184  1  0  0  0  0
163185  1  0  0  0  0
164186  1  0  0  0  0
166187  1  0  0  0  0
167188  1  0  0  0  0
168189  1  0  0  0  0
170190  1  0  0  0  0
171191  1  0  0  0  0
128193  4  0  0  0  0
193194  4  0  0  0  0
194195  4  0  0  0  0
195196  2  0  0  0  0
196197  4  0  0  0  0
192198  1  0  0  0  0
194198  4  0  0  0  0
197198  4  0  0  0  0
197199  4  0  0  0  0
199200  1  0  0  0  0
200201  4  0  0  0  0
201202  4  0  0  0  0
202203  4  0  0  0  0
203204  1  0  0  0  0
203205  4  0  0  0  0
200206  4  0  0  0  0
205206  4  0  0  0  0
199207  4  0  0  0  0
207208  4  0  0  0  0
208209  2  0  0  0  0
192210  1  0  0  0  0
207210  4  0  0  0  0
209211  4  0  0  0  0
210211  4  0  0  0  0
132212  4  0  0  0  0
211212  4  0  0  0  0
212213  4  0  0  0  0
213214  4  0  0  0  0
214215  2  0  0  0  0
215216  4  0  0  0  0
192217  1  0  0  0  0
213217  4  0  0  0  0
216217  4  0  0  0  0
216218  4  0  0  0  0
218219  1  0  0  0  0
219220  4  0  0  0  0
220221  4  0  0  0  0
221222  4  0  0  0  0
222223  1  0  0  0  0
222224  4  0  0  0  0
219225  4  0  0  0  0
224225  4  0  0  0  0
218226  4  0  0  0  0
226227  4  0  0  0  0
227228  2  0  0  0  0
193229  4  0  0  0  0
228229  4  0  0  0  0
192230  1  0  0  0  0
226230  4  0  0  0  0
229230  4  0  0  0  0
195231  1  0  0  0  0
196232  1  0  0  0  0
201233  1  0  0  0  0
202234  1  0  0  0  0
204235  1  0  0  0  0
205236  1  0  0  0  0
206237  1  0  0  0  0
208238  1  0  0  0  0
209239  1  0  0  0  0
214240  1  0  0  0  0
215241  1  0  0  0  0
220242  1  0  0  0  0
221243  1  0  0  0  0
223244  1  0  0  0  0
224245  1  0  0  0  0
225246  1  0  0  0  0
227247  1  0  0  0  0
228248  1  0  0  0  0
M  END
