 xtb: 6.5.1 (b24c23e)
          07302209333D

276315  0     0  0            999 V2000
   50.2364    0.0144   -0.0967 Zn  0  0  0  0  0  0  0  0  0  0  0  0
   46.8239    0.0144   -0.1443 C   0  0  0  0  0  0  0  0  0  0  0  0
   47.4386    1.2154    0.1893 C   0  0  0  0  0  0  0  0  0  0  0  0
   46.7494    2.4254    0.5410 C   0  0  0  0  0  0  0  0  0  0  0  0
   47.6968    3.3557    0.8191 C   0  0  0  0  0  0  0  0  0  0  0  0
   48.9778    2.7270    0.6325 C   0  0  0  0  0  0  0  0  0  0  0  0
   48.7853    1.4298    0.2554 N   0  0  0  0  0  0  0  0  0  0  0  0
   50.2199    3.3372    0.8405 C   0  0  0  0  0  0  0  0  0  0  0  0
   51.4671    2.7196    0.6983 C   0  0  0  0  0  0  0  0  0  0  0  0
   52.7368    3.3651    0.8849 C   0  0  0  0  0  0  0  0  0  0  0  0
   53.6968    2.4371    0.6401 C   0  0  0  0  0  0  0  0  0  0  0  0
   51.6809    1.4172    0.3329 N   0  0  0  0  0  0  0  0  0  0  0  0
   53.0266    1.2192    0.2908 C   0  0  0  0  0  0  0  0  0  0  0  0
   53.6741    0.0140   -0.0454 C   0  0  0  0  0  0  0  0  0  0  0  0
   53.0358   -1.1910   -0.4001 C   0  0  0  0  0  0  0  0  0  0  0  0
   53.7160   -2.3892   -0.7947 C   0  0  0  0  0  0  0  0  0  0  0  0
   52.7637   -3.3160   -1.0721 C   0  0  0  0  0  0  0  0  0  0  0  0
   51.4889   -2.6939   -0.8447 C   0  0  0  0  0  0  0  0  0  0  0  0
   50.2463   -3.3107   -1.0288 C   0  0  0  0  0  0  0  0  0  0  0  0
   50.2514   -4.7402   -1.4307 C   0  0  0  0  0  0  0  0  0  0  0  0
   49.6935   -5.1328   -2.6450 C   0  0  0  0  0  0  0  0  0  0  0  0
   49.6955   -6.4723   -3.0255 C   0  0  0  0  0  0  0  0  0  0  0  0
   49.0826   -6.8774   -4.3393 C   0  0  0  0  0  0  0  0  0  0  0  0
   50.2582   -7.4199   -2.1790 C   0  0  0  0  0  0  0  0  0  0  0  0
   50.8198   -7.0434   -0.9603 C   0  0  0  0  0  0  0  0  0  0  0  0
   51.4240   -8.0863   -0.0589 C   0  0  0  0  0  0  0  0  0  0  0  0
   50.8148   -5.7040   -0.5929 C   0  0  0  0  0  0  0  0  0  0  0  0
   48.9987   -2.6969   -0.8673 C   0  0  0  0  0  0  0  0  0  0  0  0
   47.7226   -3.3464   -1.0111 C   0  0  0  0  0  0  0  0  0  0  0  0
   46.7681   -2.4136   -0.7682 C   0  0  0  0  0  0  0  0  0  0  0  0
   47.4480   -1.1857   -0.4636 C   0  0  0  0  0  0  0  0  0  0  0  0
   48.7963   -1.3912   -0.5266 N   0  0  0  0  0  0  0  0  0  0  0  0
   51.6918   -1.3992   -0.4473 N   0  0  0  0  0  0  0  0  0  0  0  0
   50.2121    4.7640    1.2547 C   0  0  0  0  0  0  0  0  0  0  0  0
   49.7059    5.7424    0.4004 C   0  0  0  0  0  0  0  0  0  0  0  0
   49.6952    7.0790    0.7843 C   0  0  0  0  0  0  0  0  0  0  0  0
   49.1725    8.1353   -0.1518 C   0  0  0  0  0  0  0  0  0  0  0  0
   50.1924    7.4336    2.0350 C   0  0  0  0  0  0  0  0  0  0  0  0
   50.6994    6.4684    2.8998 C   0  0  0  0  0  0  0  0  0  0  0  0
   51.2107    6.8593    4.2603 C   0  0  0  0  0  0  0  0  0  0  0  0
   50.7082    5.1353    2.5034 C   0  0  0  0  0  0  0  0  0  0  0  0
   45.7382    0.0103   -0.1451 H   0  0  0  0  0  0  0  0  0  0  0  0
   45.6766    2.5355    0.5746 H   0  0  0  0  0  0  0  0  0  0  0  0
   47.5472    4.3761    1.1340 H   0  0  0  0  0  0  0  0  0  0  0  0
   52.8744    4.3987    1.1591 H   0  0  0  0  0  0  0  0  0  0  0  0
   54.7666    2.5615    0.6904 H   0  0  0  0  0  0  0  0  0  0  0  0
   54.7864   -2.4988   -0.8635 H   0  0  0  0  0  0  0  0  0  0  0  0
   52.9099   -4.3272   -1.4162 H   0  0  0  0  0  0  0  0  0  0  0  0
   49.2697   -4.3839   -3.3053 H   0  0  0  0  0  0  0  0  0  0  0  0
   49.2791   -7.9273   -4.5559 H   0  0  0  0  0  0  0  0  0  0  0  0
   48.0015   -6.7263   -4.3109 H   0  0  0  0  0  0  0  0  0  0  0  0
   49.4851   -6.2703   -5.1516 H   0  0  0  0  0  0  0  0  0  0  0  0
   50.2622   -8.4659   -2.4684 H   0  0  0  0  0  0  0  0  0  0  0  0
   51.8059   -7.6372    0.8577 H   0  0  0  0  0  0  0  0  0  0  0  0
   50.6775   -8.8375    0.2054 H   0  0  0  0  0  0  0  0  0  0  0  0
   52.2462   -8.5940   -0.5667 H   0  0  0  0  0  0  0  0  0  0  0  0
   51.2363   -5.3997    0.3590 H   0  0  0  0  0  0  0  0  0  0  0  0
   47.5801   -4.3873   -1.2542 H   0  0  0  0  0  0  0  0  0  0  0  0
   45.6963   -2.5367   -0.7836 H   0  0  0  0  0  0  0  0  0  0  0  0
   49.3324    5.4553   -0.5766 H   0  0  0  0  0  0  0  0  0  0  0  0
   48.6994    8.9457    0.4035 H   0  0  0  0  0  0  0  0  0  0  0  0
   48.4475    7.7139   -0.8483 H   0  0  0  0  0  0  0  0  0  0  0  0
   49.9962    8.5579   -0.7319 H   0  0  0  0  0  0  0  0  0  0  0  0
   50.1844    8.4753    2.3393 H   0  0  0  0  0  0  0  0  0  0  0  0
   50.3899    6.8515    4.9814 H   0  0  0  0  0  0  0  0  0  0  0  0
   51.6357    7.8631    4.2418 H   0  0  0  0  0  0  0  0  0  0  0  0
   51.9719    6.1593    4.6052 H   0  0  0  0  0  0  0  0  0  0  0  0
   51.0891    4.3724    3.1737 H   0  0  0  0  0  0  0  0  0  0  0  0
   82.9857   -0.0221   -0.0807 Zn  0  0  0  0  0  0  0  0  0  0  0  0
   86.3958    0.0247   -0.1342 C   0  0  0  0  0  0  0  0  0  0  0  0
   85.7736   -0.8239   -1.0422 C   0  0  0  0  0  0  0  0  0  0  0  0
   86.4554   -1.6875   -1.9654 C   0  0  0  0  0  0  0  0  0  0  0  0
   85.5026   -2.3646   -2.6538 C   0  0  0  0  0  0  0  0  0  0  0  0
   84.2254   -1.9179   -2.1638 C   0  0  0  0  0  0  0  0  0  0  0  0
   84.4257   -0.9874   -1.1859 N   0  0  0  0  0  0  0  0  0  0  0  0
   82.9805   -2.3905   -2.5945 C   0  0  0  0  0  0  0  0  0  0  0  0
   81.7376   -1.9932   -2.0897 C   0  0  0  0  0  0  0  0  0  0  0  0
   80.4627   -2.4554   -2.5646 C   0  0  0  0  0  0  0  0  0  0  0  0
   79.5096   -1.8112   -1.8439 C   0  0  0  0  0  0  0  0  0  0  0  0
   81.5341   -1.0736   -1.0959 N   0  0  0  0  0  0  0  0  0  0  0  0
   80.1902   -0.9437   -0.9276 C   0  0  0  0  0  0  0  0  0  0  0  0
   79.5522   -0.0638   -0.0326 C   0  0  0  0  0  0  0  0  0  0  0  0
   80.1954    0.8271    0.8478 C   0  0  0  0  0  0  0  0  0  0  0  0
   79.5202    1.7232    1.7399 C   0  0  0  0  0  0  0  0  0  0  0  0
   80.4775    2.3922    2.4320 C   0  0  0  0  0  0  0  0  0  0  0  0
   81.7495    1.9046    1.9751 C   0  0  0  0  0  0  0  0  0  0  0  0
   82.9955    2.3402    2.4400 C   0  0  0  0  0  0  0  0  0  0  0  0
   82.9959    3.3373    3.5404 C   0  0  0  0  0  0  0  0  0  0  0  0
   83.5566    4.5984    3.3535 C   0  0  0  0  0  0  0  0  0  0  0  0
   83.5568    5.5333    4.3855 C   0  0  0  0  0  0  0  0  0  0  0  0
   84.1751    6.8882    4.1677 C   0  0  0  0  0  0  0  0  0  0  0  0
   82.9930    5.1966    5.6103 C   0  0  0  0  0  0  0  0  0  0  0  0
   82.4282    3.9388    5.8134 C   0  0  0  0  0  0  0  0  0  0  0  0
   81.8250    3.5936    7.1484 C   0  0  0  0  0  0  0  0  0  0  0  0
   82.4322    3.0152    4.7761 C   0  0  0  0  0  0  0  0  0  0  0  0
   84.2394    1.9116    1.9621 C   0  0  0  0  0  0  0  0  0  0  0  0
   85.5199    2.3340    2.4650 C   0  0  0  0  0  0  0  0  0  0  0  0
   86.4682    1.6908    1.7387 C   0  0  0  0  0  0  0  0  0  0  0  0
   85.7801    0.8584    0.7919 C   0  0  0  0  0  0  0  0  0  0  0  0
   84.4332    1.0102    0.9560 N   0  0  0  0  0  0  0  0  0  0  0  0
   81.5404    0.9626    1.0039 N   0  0  0  0  0  0  0  0  0  0  0  0
   82.9781   -3.3935   -3.6904 C   0  0  0  0  0  0  0  0  0  0  0  0
   83.4655   -3.0520   -4.9509 C   0  0  0  0  0  0  0  0  0  0  0  0
   83.4594   -3.9799   -5.9870 C   0  0  0  0  0  0  0  0  0  0  0  0
   83.9587   -3.5938   -7.3533 C   0  0  0  0  0  0  0  0  0  0  0  0
   82.9648   -5.2592   -5.7533 C   0  0  0  0  0  0  0  0  0  0  0  0
   82.4775   -5.6165   -4.4993 C   0  0  0  0  0  0  0  0  0  0  0  0
   81.9671   -7.0112   -4.2547 C   0  0  0  0  0  0  0  0  0  0  0  0
   82.4852   -4.6792   -3.4722 C   0  0  0  0  0  0  0  0  0  0  0  0
   87.4815    0.0291   -0.1422 H   0  0  0  0  0  0  0  0  0  0  0  0
   87.5274   -1.7628   -2.0610 H   0  0  0  0  0  0  0  0  0  0  0  0
   85.6462   -3.1111   -3.4186 H   0  0  0  0  0  0  0  0  0  0  0  0
   80.3170   -3.1713   -3.3576 H   0  0  0  0  0  0  0  0  0  0  0  0
   78.4384   -1.9025   -1.9289 H   0  0  0  0  0  0  0  0  0  0  0  0
   78.4497    1.8248    1.8210 H   0  0  0  0  0  0  0  0  0  0  0  0
   80.3365    3.1576    3.1782 H   0  0  0  0  0  0  0  0  0  0  0  0
   83.9799    4.8575    2.3891 H   0  0  0  0  0  0  0  0  0  0  0  0
   83.9417    7.5621    4.9919 H   0  0  0  0  0  0  0  0  0  0  0  0
   85.2607    6.7960    4.0940 H   0  0  0  0  0  0  0  0  0  0  0  0
   83.8117    7.3300    3.2387 H   0  0  0  0  0  0  0  0  0  0  0  0
   82.9899    5.9203    6.4189 H   0  0  0  0  0  0  0  0  0  0  0  0
   81.3797    2.5991    7.1309 H   0  0  0  0  0  0  0  0  0  0  0  0
   82.5904    3.6181    7.9265 H   0  0  0  0  0  0  0  0  0  0  0  0
   81.0527    4.3175    7.4142 H   0  0  0  0  0  0  0  0  0  0  0  0
   82.0082    2.0282    4.9256 H   0  0  0  0  0  0  0  0  0  0  0  0
   85.6696    3.0265    3.2779 H   0  0  0  0  0  0  0  0  0  0  0  0
   87.5407    1.7601    1.8326 H   0  0  0  0  0  0  0  0  0  0  0  0
   83.8363   -2.0476   -5.1245 H   0  0  0  0  0  0  0  0  0  0  0  0
   84.3632   -4.4592   -7.8786 H   0  0  0  0  0  0  0  0  0  0  0  0
   84.7330   -2.8295   -7.2822 H   0  0  0  0  0  0  0  0  0  0  0  0
   83.1362   -3.1894   -7.9479 H   0  0  0  0  0  0  0  0  0  0  0  0
   82.9582   -5.9872   -6.5581 H   0  0  0  0  0  0  0  0  0  0  0  0
   82.8020   -7.6778   -4.0264 H   0  0  0  0  0  0  0  0  0  0  0  0
   81.4584   -7.3974   -5.1385 H   0  0  0  0  0  0  0  0  0  0  0  0
   81.2755   -7.0307   -3.4123 H   0  0  0  0  0  0  0  0  0  0  0  0
   82.1191   -4.9496   -2.4877 H   0  0  0  0  0  0  0  0  0  0  0  0
   55.0844    0.0144   -0.0362 C   0  0  0  0  0  0  0  0  0  0  0  0
   56.3014    0.0080   -0.0238 C   0  0  0  0  0  0  0  0  0  0  0  0
   66.0072   -0.0702    0.0459 C   0  0  0  0  0  0  0  0  0  0  0  0
   67.2245   -0.0778    0.0518 C   0  0  0  0  0  0  0  0  0  0  0  0
   76.9253   -0.0693   -0.0171 C   0  0  0  0  0  0  0  0  0  0  0  0
   78.1417   -0.0675   -0.0234 C   0  0  0  0  0  0  0  0  0  0  0  0
   61.1549   -0.0307    0.0154 Zn  0  0  0  0  0  0  0  0  0  0  0  0
   57.7112   -0.0019   -0.0107 C   0  0  0  0  0  0  0  0  0  0  0  0
   58.3676    1.2170   -0.2720 C   0  0  0  0  0  0  0  0  0  0  0  0
   57.7059    2.4605   -0.5347 C   0  0  0  0  0  0  0  0  0  0  0  0
   58.6725    3.3891   -0.7510 C   0  0  0  0  0  0  0  0  0  0  0  0
   59.9364    2.7177   -0.6348 C   0  0  0  0  0  0  0  0  0  0  0  0
   59.7145    1.4003   -0.3344 N   0  0  0  0  0  0  0  0  0  0  0  0
   61.1885    3.3217   -0.7906 C   0  0  0  0  0  0  0  0  0  0  0  0
   62.4281    2.6902   -0.6449 C   0  0  0  0  0  0  0  0  0  0  0  0
   63.7042    3.3099   -0.8661 C   0  0  0  0  0  0  0  0  0  0  0  0
   64.6520    2.3654   -0.6353 C   0  0  0  0  0  0  0  0  0  0  0  0
   62.6238    1.3801   -0.2972 N   0  0  0  0  0  0  0  0  0  0  0  0
   63.9660    1.1598   -0.2762 C   0  0  0  0  0  0  0  0  0  0  0  0
   64.5985   -0.0598    0.0379 C   0  0  0  0  0  0  0  0  0  0  0  0
   63.9418   -1.2685    0.3439 C   0  0  0  0  0  0  0  0  0  0  0  0
   64.6027   -2.4857    0.7108 C   0  0  0  0  0  0  0  0  0  0  0  0
   63.6360   -3.4134    0.9313 C   0  0  0  0  0  0  0  0  0  0  0  0
   62.3733   -2.7719    0.6950 C   0  0  0  0  0  0  0  0  0  0  0  0
   61.1212   -3.3817    0.8256 C   0  0  0  0  0  0  0  0  0  0  0  0
   61.1076   -4.8222    1.1892 C   0  0  0  0  0  0  0  0  0  0  0  0
   60.5387   -5.2381    2.3913 C   0  0  0  0  0  0  0  0  0  0  0  0
   60.5250   -6.5854    2.7389 C   0  0  0  0  0  0  0  0  0  0  0  0
   59.9295   -7.0214    4.0505 C   0  0  0  0  0  0  0  0  0  0  0  0
   61.0842   -7.5184    1.8722 C   0  0  0  0  0  0  0  0  0  0  0  0
   61.6540   -7.1189    0.6658 C   0  0  0  0  0  0  0  0  0  0  0  0
   62.2615   -8.1428   -0.2550 C   0  0  0  0  0  0  0  0  0  0  0  0
   61.6652   -5.7701    0.3311 C   0  0  0  0  0  0  0  0  0  0  0  0
   59.8816   -2.7571    0.6512 C   0  0  0  0  0  0  0  0  0  0  0  0
   58.6051   -3.4069    0.7504 C   0  0  0  0  0  0  0  0  0  0  0  0
   57.6574   -2.4631    0.5171 C   0  0  0  0  0  0  0  0  0  0  0  0
   58.3436   -1.2313    0.2620 C   0  0  0  0  0  0  0  0  0  0  0  0
   59.6861   -1.4369    0.3448 N   0  0  0  0  0  0  0  0  0  0  0  0
   62.5957   -1.4657    0.3491 N   0  0  0  0  0  0  0  0  0  0  0  0
   61.2044    4.7626   -1.1518 C   0  0  0  0  0  0  0  0  0  0  0  0
   61.7647    5.6998   -0.2856 C   0  0  0  0  0  0  0  0  0  0  0  0
   61.7792    7.0505   -0.6187 C   0  0  0  0  0  0  0  0  0  0  0  0
   62.3972    8.0543    0.3171 C   0  0  0  0  0  0  0  0  0  0  0  0
   61.2350    7.4595   -1.8319 C   0  0  0  0  0  0  0  0  0  0  0  0
   60.6737    6.5354   -2.7089 C   0  0  0  0  0  0  0  0  0  0  0  0
   60.1075    6.9889   -4.0275 C   0  0  0  0  0  0  0  0  0  0  0  0
   60.6595    5.1890   -2.3626 C   0  0  0  0  0  0  0  0  0  0  0  0
   56.6371    2.6011   -0.5500 H   0  0  0  0  0  0  0  0  0  0  0  0
   58.5424    4.4383   -0.9622 H   0  0  0  0  0  0  0  0  0  0  0  0
   63.8546    4.3325   -1.1726 H   0  0  0  0  0  0  0  0  0  0  0  0
   65.7224    2.4681   -0.7140 H   0  0  0  0  0  0  0  0  0  0  0  0
   65.6702   -2.6068    0.8007 H   0  0  0  0  0  0  0  0  0  0  0  0
   63.7650   -4.4384    1.2398 H   0  0  0  0  0  0  0  0  0  0  0  0
   60.1166   -4.5003    3.0650 H   0  0  0  0  0  0  0  0  0  0  0  0
   59.5939   -8.0575    4.0007 H   0  0  0  0  0  0  0  0  0  0  0  0
   60.6780   -6.9434    4.8424 H   0  0  0  0  0  0  0  0  0  0  0  0
   59.0838   -6.3886    4.3212 H   0  0  0  0  0  0  0  0  0  0  0  0
   61.0746   -8.5709    2.1367 H   0  0  0  0  0  0  0  0  0  0  0  0
   62.4670   -7.7138   -1.2355 H   0  0  0  0  0  0  0  0  0  0  0  0
   61.5913   -8.9948   -0.3772 H   0  0  0  0  0  0  0  0  0  0  0  0
   63.2008   -8.5108    0.1636 H   0  0  0  0  0  0  0  0  0  0  0  0
   62.0938   -5.4475   -0.6115 H   0  0  0  0  0  0  0  0  0  0  0  0
   58.4544   -4.4532    0.9625 H   0  0  0  0  0  0  0  0  0  0  0  0
   56.5863   -2.5860    0.5171 H   0  0  0  0  0  0  0  0  0  0  0  0
   62.1751    5.3708    0.6629 H   0  0  0  0  0  0  0  0  0  0  0  0
   61.9571    9.0415    0.1750 H   0  0  0  0  0  0  0  0  0  0  0  0
   63.4701    8.1290    0.1252 H   0  0  0  0  0  0  0  0  0  0  0  0
   62.2597    7.7523    1.3557 H   0  0  0  0  0  0  0  0  0  0  0  0
   61.2449    8.5119   -2.0970 H   0  0  0  0  0  0  0  0  0  0  0  0
   59.6298    7.9641   -3.9289 H   0  0  0  0  0  0  0  0  0  0  0  0
   59.3761    6.2737   -4.4041 H   0  0  0  0  0  0  0  0  0  0  0  0
   60.9088    7.0776   -4.7647 H   0  0  0  0  0  0  0  0  0  0  0  0
   60.2348    4.4581   -3.0420 H   0  0  0  0  0  0  0  0  0  0  0  0
   72.0755   -0.0753    0.0239 Zn  0  0  0  0  0  0  0  0  0  0  0  0
   68.6333   -0.0789    0.0493 C   0  0  0  0  0  0  0  0  0  0  0  0
   69.2781    1.1526    0.2813 C   0  0  0  0  0  0  0  0  0  0  0  0
   68.6051    2.3831    0.5741 C   0  0  0  0  0  0  0  0  0  0  0  0
   69.5623    3.3322    0.7369 C   0  0  0  0  0  0  0  0  0  0  0  0
   70.8314    2.6900    0.5406 C   0  0  0  0  0  0  0  0  0  0  0  0
   70.6222    1.3629    0.2752 N   0  0  0  0  0  0  0  0  0  0  0  0
   72.0769    3.3202    0.6334 C   0  0  0  0  0  0  0  0  0  0  0  0
   73.3228    2.6963    0.5088 C   0  0  0  0  0  0  0  0  0  0  0  0
   74.5937    3.3631    0.5601 C   0  0  0  0  0  0  0  0  0  0  0  0
   75.5499    2.4146    0.3882 C   0  0  0  0  0  0  0  0  0  0  0  0
   73.5297    1.3600    0.2945 N   0  0  0  0  0  0  0  0  0  0  0  0
   74.8738    1.1621    0.2214 C   0  0  0  0  0  0  0  0  0  0  0  0
   75.5152   -0.0704   -0.0069 C   0  0  0  0  0  0  0  0  0  0  0  0
   74.8729   -1.3042   -0.2257 C   0  0  0  0  0  0  0  0  0  0  0  0
   75.5498   -2.5537   -0.4110 C   0  0  0  0  0  0  0  0  0  0  0  0
   74.5934   -3.5050   -0.5662 C   0  0  0  0  0  0  0  0  0  0  0  0
   73.3215   -2.8430   -0.4856 C   0  0  0  0  0  0  0  0  0  0  0  0
   72.0753   -3.4712   -0.5830 C   0  0  0  0  0  0  0  0  0  0  0  0
   72.0733   -4.9358   -0.8302 C   0  0  0  0  0  0  0  0  0  0  0  0
   71.5270   -5.8043    0.1125 C   0  0  0  0  0  0  0  0  0  0  0  0
   71.5235   -7.1783   -0.1091 C   0  0  0  0  0  0  0  0  0  0  0  0
   70.9527   -8.1076    0.9281 C   0  0  0  0  0  0  0  0  0  0  0  0
   72.0686   -7.6798   -1.2859 C   0  0  0  0  0  0  0  0  0  0  0  0
   72.6151   -6.8242   -2.2398 C   0  0  0  0  0  0  0  0  0  0  0  0
   73.2039   -7.3882   -3.5049 C   0  0  0  0  0  0  0  0  0  0  0  0
   72.6174   -5.4546   -2.0054 C   0  0  0  0  0  0  0  0  0  0  0  0
   70.8298   -2.8449   -0.4653 C   0  0  0  0  0  0  0  0  0  0  0  0
   69.5590   -3.4914   -0.6352 C   0  0  0  0  0  0  0  0  0  0  0  0
   68.6023   -2.5437   -0.4614 C   0  0  0  0  0  0  0  0  0  0  0  0
   69.2772   -1.3100   -0.1869 C   0  0  0  0  0  0  0  0  0  0  0  0
   70.6218   -1.5173   -0.2019 N   0  0  0  0  0  0  0  0  0  0  0  0
   73.5283   -1.5066   -0.2717 N   0  0  0  0  0  0  0  0  0  0  0  0
   72.0750    4.7847    0.8808 C   0  0  0  0  0  0  0  0  0  0  0  0
   72.6430    5.3065    2.0423 C   0  0  0  0  0  0  0  0  0  0  0  0
   72.6396    6.6772    2.2763 C   0  0  0  0  0  0  0  0  0  0  0  0
   73.2664    7.2376    3.5247 C   0  0  0  0  0  0  0  0  0  0  0  0
   72.0677    7.5290    1.3356 C   0  0  0  0  0  0  0  0  0  0  0  0
   71.4974    7.0238    0.1712 C   0  0  0  0  0  0  0  0  0  0  0  0
   70.8993    7.9535   -0.8501 C   0  0  0  0  0  0  0  0  0  0  0  0
   71.5030    5.6507   -0.0500 C   0  0  0  0  0  0  0  0  0  0  0  0
   67.5365    2.4989    0.6582 H   0  0  0  0  0  0  0  0  0  0  0  0
   69.4231    4.3724    0.9840 H   0  0  0  0  0  0  0  0  0  0  0  0
   74.7347    4.4233    0.6961 H   0  0  0  0  0  0  0  0  0  0  0  0
   76.6197    2.5479    0.3627 H   0  0  0  0  0  0  0  0  0  0  0  0
   76.6205   -2.6828   -0.4095 H   0  0  0  0  0  0  0  0  0  0  0  0
   74.7358   -4.5639   -0.7102 H   0  0  0  0  0  0  0  0  0  0  0  0
   71.1146   -5.4030    1.0318 H   0  0  0  0  0  0  0  0  0  0  0  0
   70.6798   -9.0657    0.4856 H   0  0  0  0  0  0  0  0  0  0  0  0
   71.6928   -8.2907    1.7104 H   0  0  0  0  0  0  0  0  0  0  0  0
   70.0697   -7.6699    1.3950 H   0  0  0  0  0  0  0  0  0  0  0  0
   72.0667   -8.7499   -1.4661 H   0  0  0  0  0  0  0  0  0  0  0  0
   73.4379   -6.5951   -4.2148 H   0  0  0  0  0  0  0  0  0  0  0  0
   72.5072   -8.0848   -3.9735 H   0  0  0  0  0  0  0  0  0  0  0  0
   74.1234   -7.9326   -3.2797 H   0  0  0  0  0  0  0  0  0  0  0  0
   73.0275   -4.7770   -2.7463 H   0  0  0  0  0  0  0  0  0  0  0  0
   69.4180   -4.5336   -0.8727 H   0  0  0  0  0  0  0  0  0  0  0  0
   67.5326   -2.6624   -0.5251 H   0  0  0  0  0  0  0  0  0  0  0  0
   73.0726    4.6320    2.7749 H   0  0  0  0  0  0  0  0  0  0  0  0
   72.7290    8.1234    3.8645 H   0  0  0  0  0  0  0  0  0  0  0  0
   74.3008    7.5255    3.3230 H   0  0  0  0  0  0  0  0  0  0  0  0
   73.2695    6.4974    4.3249 H   0  0  0  0  0  0  0  0  0  0  0  0
   72.0635    8.5994    1.5143 H   0  0  0  0  0  0  0  0  0  0  0  0
   70.5146    8.8566   -0.3757 H   0  0  0  0  0  0  0  0  0  0  0  0
   70.0883    7.4655   -1.3912 H   0  0  0  0  0  0  0  0  0  0  0  0
   71.6616    8.2486   -1.5748 H   0  0  0  0  0  0  0  0  0  0  0  0
   71.0716    5.2462   -0.9592 H   0  0  0  0  0  0  0  0  0  0  0  0
  2  3  4  0  0  0  0
  3  4  1  0  0  0  0
  4  5  2  0  0  0  0
  5  6  4  0  0  0  0
  1  7  1  0  0  0  0
  3  7  4  0  0  0  0
  6  7  4  0  0  0  0
  6  8  4  0  0  0  0
  8  9  4  0  0  0  0
  9 10  4  0  0  0  0
 10 11  2  0  0  0  0
  1 12  1  0  0  0  0
  9 12  4  0  0  0  0
 11 13  4  0  0  0  0
 12 13  4  0  0  0  0
 13 14  4  0  0  0  0
 14 15  4  0  0  0  0
 15 16  4  0  0  0  0
 16 17  2  0  0  0  0
 17 18  4  0  0  0  0
 18 19  4  0  0  0  0
 19 20  1  0  0  0  0
 20 21  4  0  0  0  0
 21 22  4  0  0  0  0
 22 23  1  0  0  0  0
 22 24  4  0  0  0  0
 24 25  4  0  0  0  0
 25 26  1  0  0  0  0
 20 27  4  0  0  0  0
 25 27  4  0  0  0  0
 19 28  4  0  0  0  0
 28 29  4  0  0  0  0
 29 30  2  0  0  0  0
  2 31  4  0  0  0  0
 30 31  1  0  0  0  0
  1 32  1  0  0  0  0
 28 32  4  0  0  0  0
 31 32  4  0  0  0  0
  1 33  1  0  0  0  0
 15 33  4  0  0  0  0
 18 33  4  0  0  0  0
  8 34  1  0  0  0  0
 34 35  4  0  0  0  0
 35 36  4  0  0  0  0
 36 37  1  0  0  0  0
 36 38  4  0  0  0  0
 38 39  4  0  0  0  0
 39 40  1  0  0  0  0
 34 41  4  0  0  0  0
 39 41  4  0  0  0  0
  2 42  1  0  0  0  0
  4 43  1  0  0  0  0
  5 44  1  0  0  0  0
 10 45  1  0  0  0  0
 11 46  1  0  0  0  0
 16 47  1  0  0  0  0
 17 48  1  0  0  0  0
 21 49  1  0  0  0  0
 23 50  1  0  0  0  0
 23 51  1  0  0  0  0
 23 52  1  0  0  0  0
 24 53  1  0  0  0  0
 26 54  1  0  0  0  0
 26 55  1  0  0  0  0
 26 56  1  0  0  0  0
 27 57  1  0  0  0  0
 29 58  1  0  0  0  0
 30 59  1  0  0  0  0
 35 60  1  0  0  0  0
 37 61  1  0  0  0  0
 37 62  1  0  0  0  0
 37 63  1  0  0  0  0
 38 64  1  0  0  0  0
 40 65  1  0  0  0  0
 40 66  1  0  0  0  0
 40 67  1  0  0  0  0
 41 68  1  0  0  0  0
 70 71  4  0  0  0  0
 71 72  1  0  0  0  0
 72 73  2  0  0  0  0
 73 74  4  0  0  0  0
 69 75  1  0  0  0  0
 71 75  4  0  0  0  0
 74 75  4  0  0  0  0
 74 76  4  0  0  0  0
 76 77  4  0  0  0  0
 77 78  4  0  0  0  0
 78 79  2  0  0  0  0
 69 80  1  0  0  0  0
 77 80  4  0  0  0  0
 79 81  4  0  0  0  0
 80 81  4  0  0  0  0
 81 82  4  0  0  0  0
 82 83  4  0  0  0  0
 83 84  4  0  0  0  0
 84 85  2  0  0  0  0
 85 86  4  0  0  0  0
 86 87  4  0  0  0  0
 87 88  1  0  0  0  0
 88 89  4  0  0  0  0
 89 90  4  0  0  0  0
 90 91  1  0  0  0  0
 90 92  4  0  0  0  0
 92 93  4  0  0  0  0
 93 94  1  0  0  0  0
 88 95  4  0  0  0  0
 93 95  4  0  0  0  0
 87 96  4  0  0  0  0
 96 97  4  0  0  0  0
 97 98  2  0  0  0  0
 70 99  4  0  0  0  0
 98 99  1  0  0  0  0
 69100  1  0  0  0  0
 96100  4  0  0  0  0
 99100  4  0  0  0  0
 69101  1  0  0  0  0
 83101  4  0  0  0  0
 86101  4  0  0  0  0
 76102  1  0  0  0  0
102103  4  0  0  0  0
103104  4  0  0  0  0
104105  1  0  0  0  0
104106  4  0  0  0  0
106107  4  0  0  0  0
107108  1  0  0  0  0
102109  4  0  0  0  0
107109  4  0  0  0  0
 70110  1  0  0  0  0
 72111  1  0  0  0  0
 73112  1  0  0  0  0
 78113  1  0  0  0  0
 79114  1  0  0  0  0
 84115  1  0  0  0  0
 85116  1  0  0  0  0
 89117  1  0  0  0  0
 91118  1  0  0  0  0
 91119  1  0  0  0  0
 91120  1  0  0  0  0
 92121  1  0  0  0  0
 94122  1  0  0  0  0
 94123  1  0  0  0  0
 94124  1  0  0  0  0
 95125  1  0  0  0  0
 97126  1  0  0  0  0
 98127  1  0  0  0  0
103128  1  0  0  0  0
105129  1  0  0  0  0
105130  1  0  0  0  0
105131  1  0  0  0  0
106132  1  0  0  0  0
108133  1  0  0  0  0
108134  1  0  0  0  0
108135  1  0  0  0  0
109136  1  0  0  0  0
 14137  4  0  0  0  0
137138  3  0  0  0  0
139140  3  0  0  0  0
 82142  4  0  0  0  0
141142  3  0  0  0  0
138144  4  0  0  0  0
144145  4  0  0  0  0
145146  4  0  0  0  0
146147  2  0  0  0  0
147148  4  0  0  0  0
143149  1  0  0  0  0
145149  4  0  0  0  0
148149  4  0  0  0  0
148150  4  0  0  0  0
150151  4  0  0  0  0
151152  4  0  0  0  0
152153  2  0  0  0  0
143154  1  0  0  0  0
151154  4  0  0  0  0
153155  4  0  0  0  0
154155  4  0  0  0  0
139156  4  0  0  0  0
155156  4  0  0  0  0
156157  4  0  0  0  0
157158  4  0  0  0  0
158159  2  0  0  0  0
159160  4  0  0  0  0
160161  4  0  0  0  0
161162  1  0  0  0  0
162163  4  0  0  0  0
163164  4  0  0  0  0
164165  1  0  0  0  0
164166  4  0  0  0  0
166167  4  0  0  0  0
167168  1  0  0  0  0
162169  4  0  0  0  0
167169  4  0  0  0  0
161170  4  0  0  0  0
170171  4  0  0  0  0
171172  2  0  0  0  0
144173  4  0  0  0  0
172173  4  0  0  0  0
143174  1  0  0  0  0
170174  4  0  0  0  0
173174  4  0  0  0  0
143175  1  0  0  0  0
157175  4  0  0  0  0
160175  4  0  0  0  0
150176  1  0  0  0  0
176177  4  0  0  0  0
177178  4  0  0  0  0
178179  1  0  0  0  0
178180  4  0  0  0  0
180181  4  0  0  0  0
181182  1  0  0  0  0
176183  4  0  0  0  0
181183  4  0  0  0  0
146184  1  0  0  0  0
147185  1  0  0  0  0
152186  1  0  0  0  0
153187  1  0  0  0  0
158188  1  0  0  0  0
159189  1  0  0  0  0
163190  1  0  0  0  0
165191  1  0  0  0  0
165192  1  0  0  0  0
165193  1  0  0  0  0
166194  1  0  0  0  0
168195  1  0  0  0  0
168196  1  0  0  0  0
168197  1  0  0  0  0
169198  1  0  0  0  0
171199  1  0  0  0  0
172200  1  0  0  0  0
177201  1  0  0  0  0
179202  1  0  0  0  0
179203  1  0  0  0  0
179204  1  0  0  0  0
180205  1  0  0  0  0
182206  1  0  0  0  0
182207  1  0  0  0  0
182208  1  0  0  0  0
183209  1  0  0  0  0
140211  4  0  0  0  0
211212  4  0  0  0  0
212213  4  0  0  0  0
213214  2  0  0  0  0
214215  4  0  0  0  0
210216  1  0  0  0  0
212216  4  0  0  0  0
215216  4  0  0  0  0
215217  4  0  0  0  0
217218  4  0  0  0  0
218219  4  0  0  0  0
219220  2  0  0  0  0
210221  1  0  0  0  0
218221  4  0  0  0  0
220222  4  0  0  0  0
221222  4  0  0  0  0
141223  4  0  0  0  0
222223  4  0  0  0  0
223224  4  0  0  0  0
224225  4  0  0  0  0
225226  2  0  0  0  0
226227  4  0  0  0  0
227228  4  0  0  0  0
228229  1  0  0  0  0
229230  4  0  0  0  0
230231  4  0  0  0  0
231232  1  0  0  0  0
231233  4  0  0  0  0
233234  4  0  0  0  0
234235  1  0  0  0  0
229236  4  0  0  0  0
234236  4  0  0  0  0
228237  4  0  0  0  0
237238  4  0  0  0  0
238239  2  0  0  0  0
211240  4  0  0  0  0
239240  4  0  0  0  0
210241  1  0  0  0  0
237241  4  0  0  0  0
240241  4  0  0  0  0
210242  1  0  0  0  0
224242  4  0  0  0  0
227242  4  0  0  0  0
217243  1  0  0  0  0
243244  4  0  0  0  0
244245  4  0  0  0  0
245246  1  0  0  0  0
245247  4  0  0  0  0
247248  4  0  0  0  0
248249  1  0  0  0  0
243250  4  0  0  0  0
248250  4  0  0  0  0
213251  1  0  0  0  0
214252  1  0  0  0  0
219253  1  0  0  0  0
220254  1  0  0  0  0
225255  1  0  0  0  0
226256  1  0  0  0  0
230257  1  0  0  0  0
232258  1  0  0  0  0
232259  1  0  0  0  0
232260  1  0  0  0  0
233261  1  0  0  0  0
235262  1  0  0  0  0
235263  1  0  0  0  0
235264  1  0  0  0  0
236265  1  0  0  0  0
238266  1  0  0  0  0
239267  1  0  0  0  0
244268  1  0  0  0  0
246269  1  0  0  0  0
246270  1  0  0  0  0
246271  1  0  0  0  0
247272  1  0  0  0  0
249273  1  0  0  0  0
249274  1  0  0  0  0
249275  1  0  0  0  0
250276  1  0  0  0  0
M  END
