 xtb: 6.5.1 (b24c23e)
          07262216543D

 82 91  0     0  0            999 V2000
    1.7902   -0.0827   -0.0116 C   0  0  0  0  0  0  0  0  0  0  0  0
    2.4177   -1.3204   -0.0736 C   0  0  0  0  0  0  0  0  0  0  0  0
    1.8065   -2.6056   -0.1399 C   0  0  0  0  0  0  0  0  0  0  0  0
    2.8005   -3.5422   -0.1843 C   0  0  0  0  0  0  0  0  0  0  0  0
    4.0501   -2.8591   -0.1469 C   0  0  0  0  0  0  0  0  0  0  0  0
    3.7681   -1.5253   -0.0806 N   0  0  0  0  0  0  0  0  0  0  0  0
    5.3202   -3.4231   -0.1729 C   0  0  0  0  0  0  0  0  0  0  0  0
    6.5373   -2.7582   -0.1384 C   0  0  0  0  0  0  0  0  0  0  0  0
    7.8185   -3.4410   -0.1723 C   0  0  0  0  0  0  0  0  0  0  0  0
    8.7639   -2.4798   -0.1246 C   0  0  0  0  0  0  0  0  0  0  0  0
    6.7246   -1.4118   -0.0713 N   0  0  0  0  0  0  0  0  0  0  0  0
    8.0562   -1.2135   -0.0605 C   0  0  0  0  0  0  0  0  0  0  0  0
    8.7071    0.0367    0.0021 C   0  0  0  0  0  0  0  0  0  0  0  0
    8.0548    1.2823    0.0656 C   0  0  0  0  0  0  0  0  0  0  0  0
    8.6609    2.5660    0.1322 C   0  0  0  0  0  0  0  0  0  0  0  0
    7.6631    3.5000    0.1824 C   0  0  0  0  0  0  0  0  0  0  0  0
    6.4176    2.8128    0.1471 C   0  0  0  0  0  0  0  0  0  0  0  0
    6.7068    1.4767    0.0765 N   0  0  0  0  0  0  0  0  0  0  0  0
    5.1484    3.3768    0.1773 C   0  0  0  0  0  0  0  0  0  0  0  0
    3.9303    2.7094    0.1407 C   0  0  0  0  0  0  0  0  0  0  0  0
    2.6429    3.3862    0.1746 C   0  0  0  0  0  0  0  0  0  0  0  0
    1.7032    2.4210    0.1209 C   0  0  0  0  0  0  0  0  0  0  0  0
    2.4174    1.1558    0.0548 C   0  0  0  0  0  0  0  0  0  0  0  0
    3.7548    1.3690    0.0688 N   0  0  0  0  0  0  0  0  0  0  0  0
    0.7054   -0.0930   -0.0149 H   0  0  0  0  0  0  0  0  0  0  0  0
    0.7416   -2.7759   -0.1511 H   0  0  0  0  0  0  0  0  0  0  0  0
    2.6924   -4.6139   -0.2382 H   0  0  0  0  0  0  0  0  0  0  0  0
    4.4615   -0.7858   -0.0417 H   0  0  0  0  0  0  0  0  0  0  0  0
    5.3549   -4.5066   -0.2270 H   0  0  0  0  0  0  0  0  0  0  0  0
    7.9435   -4.5111   -0.2256 H   0  0  0  0  0  0  0  0  0  0  0  0
    9.8370   -2.5865   -0.1298 H   0  0  0  0  0  0  0  0  0  0  0  0
    9.7251    2.7395    0.1406 H   0  0  0  0  0  0  0  0  0  0  0  0
    7.7685    4.5717    0.2390 H   0  0  0  0  0  0  0  0  0  0  0  0
    6.0164    0.7341    0.0382 H   0  0  0  0  0  0  0  0  0  0  0  0
    5.1147    4.4600    0.2349 H   0  0  0  0  0  0  0  0  0  0  0  0
    2.5128    4.4557    0.2317 H   0  0  0  0  0  0  0  0  0  0  0  0
    0.6290    2.5207    0.1240 H   0  0  0  0  0  0  0  0  0  0  0  0
   27.3624    0.0766   -0.0374 C   0  0  0  0  0  0  0  0  0  0  0  0
   26.7339    1.2964   -0.2533 C   0  0  0  0  0  0  0  0  0  0  0  0
   27.3441    2.5629   -0.4838 C   0  0  0  0  0  0  0  0  0  0  0  0
   26.3495    3.4871   -0.6385 C   0  0  0  0  0  0  0  0  0  0  0  0
   25.1004    2.8144   -0.5092 C   0  0  0  0  0  0  0  0  0  0  0  0
   25.3834    1.4992   -0.2782 N   0  0  0  0  0  0  0  0  0  0  0  0
   23.8299    3.3706   -0.6000 C   0  0  0  0  0  0  0  0  0  0  0  0
   22.6134    2.7143   -0.4806 C   0  0  0  0  0  0  0  0  0  0  0  0
   21.3316    3.3864   -0.5989 C   0  0  0  0  0  0  0  0  0  0  0  0
   20.3871    2.4376   -0.4324 C   0  0  0  0  0  0  0  0  0  0  0  0
   22.4275    1.3868   -0.2458 N   0  0  0  0  0  0  0  0  0  0  0  0
   21.0960    1.1896   -0.2121 C   0  0  0  0  0  0  0  0  0  0  0  0
   20.4465   -0.0435    0.0071 C   0  0  0  0  0  0  0  0  0  0  0  0
   21.0999   -1.2697    0.2317 C   0  0  0  0  0  0  0  0  0  0  0  0
   20.4947   -2.5341    0.4656 C   0  0  0  0  0  0  0  0  0  0  0  0
   21.4931   -3.4525    0.6394 C   0  0  0  0  0  0  0  0  0  0  0  0
   22.7382   -2.7746    0.5158 C   0  0  0  0  0  0  0  0  0  0  0  0
   22.4480   -1.4596    0.2701 N   0  0  0  0  0  0  0  0  0  0  0  0
   24.0078   -3.3287    0.6198 C   0  0  0  0  0  0  0  0  0  0  0  0
   25.2252   -2.6713    0.4922 C   0  0  0  0  0  0  0  0  0  0  0  0
   26.5133   -3.3372    0.6103 C   0  0  0  0  0  0  0  0  0  0  0  0
   27.4519   -2.3877    0.4233 C   0  0  0  0  0  0  0  0  0  0  0  0
   26.7364   -1.1426    0.1936 C   0  0  0  0  0  0  0  0  0  0  0  0
   25.3993   -1.3523    0.2424 N   0  0  0  0  0  0  0  0  0  0  0  0
   28.4471    0.0862   -0.0487 H   0  0  0  0  0  0  0  0  0  0  0  0
   28.4088    2.7301   -0.5227 H   0  0  0  0  0  0  0  0  0  0  0  0
   26.4569    4.5437   -0.8263 H   0  0  0  0  0  0  0  0  0  0  0  0
   24.6903    0.7708   -0.1431 H   0  0  0  0  0  0  0  0  0  0  0  0
   23.7942    4.4390   -0.7879 H   0  0  0  0  0  0  0  0  0  0  0  0
   21.2055    4.4414   -0.7852 H   0  0  0  0  0  0  0  0  0  0  0  0
   19.3139    2.5415   -0.4517 H   0  0  0  0  0  0  0  0  0  0  0  0
   19.4306   -2.7061    0.4948 H   0  0  0  0  0  0  0  0  0  0  0  0
   21.3885   -4.5076    0.8358 H   0  0  0  0  0  0  0  0  0  0  0  0
   23.1381   -0.7280    0.1356 H   0  0  0  0  0  0  0  0  0  0  0  0
   24.0425   -4.3946    0.8206 H   0  0  0  0  0  0  0  0  0  0  0  0
   26.6447   -4.3895    0.8091 H   0  0  0  0  0  0  0  0  0  0  0  0
   28.5263   -2.4859    0.4342 H   0  0  0  0  0  0  0  0  0  0  0  0
   10.1107    0.0492    0.0013 C   0  0  0  0  0  0  0  0  0  0  0  0
   11.3355    0.0433   -0.0001 C   0  0  0  0  0  0  0  0  0  0  0  0
   12.6776    0.0301   -0.0007 C   0  0  0  0  0  0  0  0  0  0  0  0
   13.9083    0.0058    0.0004 C   0  0  0  0  0  0  0  0  0  0  0  0
   15.2455   -0.0161    0.0008 C   0  0  0  0  0  0  0  0  0  0  0  0
   16.4760   -0.0404    0.0010 C   0  0  0  0  0  0  0  0  0  0  0  0
   17.8180   -0.0542    0.0021 C   0  0  0  0  0  0  0  0  0  0  0  0
   19.0428   -0.0575    0.0094 C   0  0  0  0  0  0  0  0  0  0  0  0
  1  2  4  0  0  0  0
  2  3  4  0  0  0  0
  3  4  2  0  0  0  0
  4  5  4  0  0  0  0
  2  6  4  0  0  0  0
  5  6  4  0  0  0  0
  5  7  4  0  0  0  0
  7  8  4  0  0  0  0
  8  9  1  0  0  0  0
  9 10  2  0  0  0  0
  8 11  4  0  0  0  0
 10 12  1  0  0  0  0
 11 12  4  0  0  0  0
 12 13  4  0  0  0  0
 13 14  4  0  0  0  0
 14 15  4  0  0  0  0
 15 16  2  0  0  0  0
 16 17  4  0  0  0  0
 14 18  4  0  0  0  0
 17 18  4  0  0  0  0
 17 19  4  0  0  0  0
 19 20  4  0  0  0  0
 20 21  1  0  0  0  0
 21 22  2  0  0  0  0
  1 23  4  0  0  0  0
 22 23  1  0  0  0  0
 20 24  4  0  0  0  0
 23 24  4  0  0  0  0
  1 25  1  0  0  0  0
  3 26  1  0  0  0  0
  4 27  1  0  0  0  0
  6 28  1  0  0  0  0
  7 29  1  0  0  0  0
  9 30  1  0  0  0  0
 10 31  1  0  0  0  0
 15 32  1  0  0  0  0
 16 33  1  0  0  0  0
 18 34  1  0  0  0  0
 19 35  1  0  0  0  0
 21 36  1  0  0  0  0
 22 37  1  0  0  0  0
 38 39  4  0  0  0  0
 39 40  4  0  0  0  0
 40 41  2  0  0  0  0
 41 42  4  0  0  0  0
 39 43  4  0  0  0  0
 42 43  4  0  0  0  0
 42 44  4  0  0  0  0
 44 45  4  0  0  0  0
 45 46  1  0  0  0  0
 46 47  2  0  0  0  0
 45 48  4  0  0  0  0
 47 49  1  0  0  0  0
 48 49  4  0  0  0  0
 49 50  4  0  0  0  0
 50 51  4  0  0  0  0
 51 52  4  0  0  0  0
 52 53  2  0  0  0  0
 53 54  4  0  0  0  0
 51 55  4  0  0  0  0
 54 55  4  0  0  0  0
 54 56  4  0  0  0  0
 56 57  4  0  0  0  0
 57 58  1  0  0  0  0
 58 59  2  0  0  0  0
 38 60  4  0  0  0  0
 59 60  1  0  0  0  0
 57 61  4  0  0  0  0
 60 61  4  0  0  0  0
 38 62  1  0  0  0  0
 40 63  1  0  0  0  0
 41 64  1  0  0  0  0
 43 65  1  0  0  0  0
 44 66  1  0  0  0  0
 46 67  1  0  0  0  0
 47 68  1  0  0  0  0
 52 69  1  0  0  0  0
 53 70  1  0  0  0  0
 55 71  1  0  0  0  0
 56 72  1  0  0  0  0
 58 73  1  0  0  0  0
 59 74  1  0  0  0  0
 13 75  4  0  0  0  0
 75 76  3  0  0  0  0
 76 77  4  0  0  0  0
 77 78  3  0  0  0  0
 78 79  4  0  0  0  0
 79 80  3  0  0  0  0
 80 81  4  0  0  0  0
 50 82  4  0  0  0  0
 81 82  3  0  0  0  0
M  END
