 xtb: 6.5.1 (b24c23e)
          07272217333D

142155  0     0  0            999 V2000
   11.5847    0.1331    0.0214 C   0  0  0  0  0  0  0  0  0  0  0  0
   12.1957    1.3286    0.3771 C   0  0  0  0  0  0  0  0  0  0  0  0
   11.5465    2.5372    0.7553 C   0  0  0  0  0  0  0  0  0  0  0  0
   12.5110    3.4688    1.0187 C   0  0  0  0  0  0  0  0  0  0  0  0
   13.7809    2.8622    0.7997 C   0  0  0  0  0  0  0  0  0  0  0  0
   13.5396    1.5709    0.4244 N   0  0  0  0  0  0  0  0  0  0  0  0
   15.0444    3.4449    0.9494 C   0  0  0  0  0  0  0  0  0  0  0  0
   16.2604    2.7858    0.7546 C   0  0  0  0  0  0  0  0  0  0  0  0
   17.5569    3.4309    0.8582 C   0  0  0  0  0  0  0  0  0  0  0  0
   18.4791    2.4799    0.6019 C   0  0  0  0  0  0  0  0  0  0  0  0
   16.4172    1.4740    0.4236 N   0  0  0  0  0  0  0  0  0  0  0  0
   17.7450    1.2587    0.3331 C   0  0  0  0  0  0  0  0  0  0  0  0
   18.3834    0.0391    0.0273 C   0  0  0  0  0  0  0  0  0  0  0  0
   17.7457   -1.1773   -0.2831 C   0  0  0  0  0  0  0  0  0  0  0  0
   18.3871   -2.4125   -0.5650 C   0  0  0  0  0  0  0  0  0  0  0  0
   17.4179   -3.3420   -0.8237 C   0  0  0  0  0  0  0  0  0  0  0  0
   16.1535   -2.6993   -0.7167 C   0  0  0  0  0  0  0  0  0  0  0  0
   14.8911   -3.2749   -0.8938 C   0  0  0  0  0  0  0  0  0  0  0  0
   14.8561   -4.7062   -1.2830 C   0  0  0  0  0  0  0  0  0  0  0  0
   14.2437   -5.6446   -0.4529 C   0  0  0  0  0  0  0  0  0  0  0  0
   14.2070   -6.9876   -0.8109 C   0  0  0  0  0  0  0  0  0  0  0  0
   13.5322   -7.9949    0.0807 C   0  0  0  0  0  0  0  0  0  0  0  0
   14.7840   -7.3893   -2.0122 C   0  0  0  0  0  0  0  0  0  0  0  0
   15.3986   -6.4652   -2.8516 C   0  0  0  0  0  0  0  0  0  0  0  0
   15.9997   -6.9072   -4.1586 C   0  0  0  0  0  0  0  0  0  0  0  0
   15.4333   -5.1251   -2.4810 C   0  0  0  0  0  0  0  0  0  0  0  0
   13.6746   -2.6036   -0.7334 C   0  0  0  0  0  0  0  0  0  0  0  0
   12.3718   -3.2042   -0.9746 C   0  0  0  0  0  0  0  0  0  0  0  0
   11.4563   -2.2488   -0.7155 C   0  0  0  0  0  0  0  0  0  0  0  0
   12.1988   -1.0628   -0.3268 C   0  0  0  0  0  0  0  0  0  0  0  0
   13.5311   -1.3108   -0.3564 N   0  0  0  0  0  0  0  0  0  0  0  0
   16.4038   -1.3948   -0.3799 N   0  0  0  0  0  0  0  0  0  0  0  0
   15.0728    4.8763    1.3408 C   0  0  0  0  0  0  0  0  0  0  0  0
   15.6739    5.2681    2.5354 C   0  0  0  0  0  0  0  0  0  0  0  0
   15.6960    6.6082    2.9098 C   0  0  0  0  0  0  0  0  0  0  0  0
   16.3606    7.0189    4.1960 C   0  0  0  0  0  0  0  0  0  0  0  0
   15.1138    7.5583    2.0776 C   0  0  0  0  0  0  0  0  0  0  0  0
   14.5091    7.1829    0.8810 C   0  0  0  0  0  0  0  0  0  0  0  0
   13.8991    8.2228   -0.0199 C   0  0  0  0  0  0  0  0  0  0  0  0
   14.4912    5.8411    0.5183 C   0  0  0  0  0  0  0  0  0  0  0  0
   10.4994    0.1442    0.0173 H   0  0  0  0  0  0  0  0  0  0  0  0
   10.4773    2.6627    0.8193 H   0  0  0  0  0  0  0  0  0  0  0  0
   12.3621    4.4855    1.3442 H   0  0  0  0  0  0  0  0  0  0  0  0
   14.2630    0.8911    0.2152 H   0  0  0  0  0  0  0  0  0  0  0  0
   17.7172    4.4730    1.0827 H   0  0  0  0  0  0  0  0  0  0  0  0
   19.5533    2.5721    0.5820 H   0  0  0  0  0  0  0  0  0  0  0  0
   19.4547   -2.5624   -0.5618 H   0  0  0  0  0  0  0  0  0  0  0  0
   17.5620   -4.3837   -1.0595 H   0  0  0  0  0  0  0  0  0  0  0  0
   13.8108   -5.3215    0.4875 H   0  0  0  0  0  0  0  0  0  0  0  0
   12.5034   -8.1530   -0.2510 H   0  0  0  0  0  0  0  0  0  0  0  0
   14.0502   -8.9536    0.0439 H   0  0  0  0  0  0  0  0  0  0  0  0
   13.5069   -7.6461    1.1131 H   0  0  0  0  0  0  0  0  0  0  0  0
   14.7566   -8.4364   -2.2961 H   0  0  0  0  0  0  0  0  0  0  0  0
   16.8090   -6.2417   -4.4593 H   0  0  0  0  0  0  0  0  0  0  0  0
   16.3869   -7.9236   -4.0836 H   0  0  0  0  0  0  0  0  0  0  0  0
   15.2377   -6.8914   -4.9413 H   0  0  0  0  0  0  0  0  0  0  0  0
   15.8968   -4.3939   -3.1344 H   0  0  0  0  0  0  0  0  0  0  0  0
   12.2058   -4.2157   -1.3090 H   0  0  0  0  0  0  0  0  0  0  0  0
   10.3810   -2.3080   -0.7802 H   0  0  0  0  0  0  0  0  0  0  0  0
   15.6839   -0.6979   -0.2199 H   0  0  0  0  0  0  0  0  0  0  0  0
   16.1106    4.5170    3.1845 H   0  0  0  0  0  0  0  0  0  0  0  0
   16.1368    6.3062    4.9905 H   0  0  0  0  0  0  0  0  0  0  0  0
   16.0303    8.0098    4.5074 H   0  0  0  0  0  0  0  0  0  0  0  0
   17.4444    7.0452    4.0621 H   0  0  0  0  0  0  0  0  0  0  0  0
   15.1276    8.6047    2.3649 H   0  0  0  0  0  0  0  0  0  0  0  0
   13.4641    9.0344    0.5641 H   0  0  0  0  0  0  0  0  0  0  0  0
   14.6672    8.6473   -0.6704 H   0  0  0  0  0  0  0  0  0  0  0  0
   13.1239    7.7858   -0.6496 H   0  0  0  0  0  0  0  0  0  0  0  0
   14.0358    5.5388   -0.4187 H   0  0  0  0  0  0  0  0  0  0  0  0
   31.7881   -0.1253   -0.0482 C   0  0  0  0  0  0  0  0  0  0  0  0
   31.1772   -1.3369   -0.3445 C   0  0  0  0  0  0  0  0  0  0  0  0
   31.8264   -2.5712   -0.6277 C   0  0  0  0  0  0  0  0  0  0  0  0
   30.8619   -3.5082   -0.8711 C   0  0  0  0  0  0  0  0  0  0  0  0
   29.5920   -2.8740   -0.7548 C   0  0  0  0  0  0  0  0  0  0  0  0
   29.8333   -1.5698   -0.4267 N   0  0  0  0  0  0  0  0  0  0  0  0
   28.3286   -3.4523   -0.9209 C   0  0  0  0  0  0  0  0  0  0  0  0
   27.1126   -2.7848   -0.7567 C   0  0  0  0  0  0  0  0  0  0  0  0
   25.8161   -3.3934   -0.9943 C   0  0  0  0  0  0  0  0  0  0  0  0
   24.8939   -2.4432   -0.7351 C   0  0  0  0  0  0  0  0  0  0  0  0
   26.9558   -1.4856   -0.3792 N   0  0  0  0  0  0  0  0  0  0  0  0
   25.6280   -1.2539   -0.3489 C   0  0  0  0  0  0  0  0  0  0  0  0
   24.9898   -0.0471    0.0041 C   0  0  0  0  0  0  0  0  0  0  0  0
   25.6275    1.1593    0.3515 C   0  0  0  0  0  0  0  0  0  0  0  0
   24.9860    2.3672    0.7334 C   0  0  0  0  0  0  0  0  0  0  0  0
   25.9552    3.3002    0.9797 C   0  0  0  0  0  0  0  0  0  0  0  0
   27.2196    2.6920    0.7462 C   0  0  0  0  0  0  0  0  0  0  0  0
   28.4819    3.2785    0.8832 C   0  0  0  0  0  0  0  0  0  0  0  0
   28.5169    4.7104    1.2704 C   0  0  0  0  0  0  0  0  0  0  0  0
   29.1314    5.1011    2.4596 C   0  0  0  0  0  0  0  0  0  0  0  0
   29.1681    6.4410    2.8292 C   0  0  0  0  0  0  0  0  0  0  0  0
   29.8453    6.8602    4.1061 C   0  0  0  0  0  0  0  0  0  0  0  0
   28.5890    7.3944    1.9965 C   0  0  0  0  0  0  0  0  0  0  0  0
   27.9722    7.0207    0.8065 C   0  0  0  0  0  0  0  0  0  0  0  0
   27.3687    8.0621   -0.0968 C   0  0  0  0  0  0  0  0  0  0  0  0
   27.9376    5.6769    0.4493 C   0  0  0  0  0  0  0  0  0  0  0  0
   29.6983    2.6183    0.6817 C   0  0  0  0  0  0  0  0  0  0  0  0
   31.0012    3.2587    0.7757 C   0  0  0  0  0  0  0  0  0  0  0  0
   31.9166    2.3031    0.5170 C   0  0  0  0  0  0  0  0  0  0  0  0
   31.1740    1.0830    0.2546 C   0  0  0  0  0  0  0  0  0  0  0  0
   29.8417    1.3121    0.3546 N   0  0  0  0  0  0  0  0  0  0  0  0
   26.9693    1.3962    0.3773 N   0  0  0  0  0  0  0  0  0  0  0  0
   28.3001   -4.8853   -1.3062 C   0  0  0  0  0  0  0  0  0  0  0  0
   27.6970   -5.8265   -0.4743 C   0  0  0  0  0  0  0  0  0  0  0  0
   27.6747   -7.1722   -0.8281 C   0  0  0  0  0  0  0  0  0  0  0  0
   27.0077   -8.1759    0.0731 C   0  0  0  0  0  0  0  0  0  0  0  0
   28.2589   -7.5722   -2.0252 C   0  0  0  0  0  0  0  0  0  0  0  0
   28.8658   -6.6441   -2.8671 C   0  0  0  0  0  0  0  0  0  0  0  0
   29.4781   -7.0868   -4.1687 C   0  0  0  0  0  0  0  0  0  0  0  0
   28.8837   -5.3028   -2.5024 C   0  0  0  0  0  0  0  0  0  0  0  0
   32.8734   -0.1328   -0.0571 H   0  0  0  0  0  0  0  0  0  0  0  0
   32.8956   -2.7119   -0.6351 H   0  0  0  0  0  0  0  0  0  0  0  0
   31.0109   -4.5503   -1.1032 H   0  0  0  0  0  0  0  0  0  0  0  0
   29.1098   -0.8774   -0.2645 H   0  0  0  0  0  0  0  0  0  0  0  0
   25.6557   -4.4059   -1.3277 H   0  0  0  0  0  0  0  0  0  0  0  0
   23.8197   -2.5125   -0.7994 H   0  0  0  0  0  0  0  0  0  0  0  0
   23.9184    2.4946    0.8127 H   0  0  0  0  0  0  0  0  0  0  0  0
   25.8110    4.3181    1.3033 H   0  0  0  0  0  0  0  0  0  0  0  0
   29.5659    4.3474    3.1072 H   0  0  0  0  0  0  0  0  0  0  0  0
   30.8734    7.1652    3.8976 H   0  0  0  0  0  0  0  0  0  0  0  0
   29.3275    7.7056    4.5600 H   0  0  0  0  0  0  0  0  0  0  0  0
   29.8729    6.0375    4.8206 H   0  0  0  0  0  0  0  0  0  0  0  0
   28.6164    8.4414    2.2805 H   0  0  0  0  0  0  0  0  0  0  0  0
   26.5585    7.6393   -0.6910 H   0  0  0  0  0  0  0  0  0  0  0  0
   26.9821    8.9011    0.4823 H   0  0  0  0  0  0  0  0  0  0  0  0
   28.1291    8.4445   -0.7817 H   0  0  0  0  0  0  0  0  0  0  0  0
   27.4726    5.3758   -0.4831 H   0  0  0  0  0  0  0  0  0  0  0  0
   31.1672    4.3007    0.9973 H   0  0  0  0  0  0  0  0  0  0  0  0
   32.9919    2.3869    0.4905 H   0  0  0  0  0  0  0  0  0  0  0  0
   27.6893    0.7143    0.1625 H   0  0  0  0  0  0  0  0  0  0  0  0
   27.2588   -5.5060    0.4646 H   0  0  0  0  0  0  0  0  0  0  0  0
   27.2291   -7.9620    1.1193 H   0  0  0  0  0  0  0  0  0  0  0  0
   27.3382   -9.1886   -0.1577 H   0  0  0  0  0  0  0  0  0  0  0  0
   25.9242   -8.1307   -0.0584 H   0  0  0  0  0  0  0  0  0  0  0  0
   28.2450   -8.6203   -2.3059 H   0  0  0  0  0  0  0  0  0  0  0  0
   29.9125   -8.0824   -4.0737 H   0  0  0  0  0  0  0  0  0  0  0  0
   28.7114   -7.1245   -4.9460 H   0  0  0  0  0  0  0  0  0  0  0  0
   30.2542   -6.3920   -4.4901 H   0  0  0  0  0  0  0  0  0  0  0  0
   29.3406   -4.5689   -3.1575 H   0  0  0  0  0  0  0  0  0  0  0  0
   21.0118    0.0023    0.0242 C   0  0  0  0  0  0  0  0  0  0  0  0
   19.7895    0.0213    0.0262 C   0  0  0  0  0  0  0  0  0  0  0  0
   22.3614   -0.0141    0.0202 C   0  0  0  0  0  0  0  0  0  0  0  0
   23.5837   -0.0310    0.0118 C   0  0  0  0  0  0  0  0  0  0  0  0
  1  2  4  0  0  0  0
  2  3  4  0  0  0  0
  3  4  2  0  0  0  0
  4  5  4  0  0  0  0
  2  6  4  0  0  0  0
  5  6  4  0  0  0  0
  5  7  4  0  0  0  0
  7  8  4  0  0  0  0
  8  9  1  0  0  0  0
  9 10  2  0  0  0  0
  8 11  4  0  0  0  0
 10 12  1  0  0  0  0
 11 12  4  0  0  0  0
 12 13  4  0  0  0  0
 13 14  4  0  0  0  0
 14 15  4  0  0  0  0
 15 16  2  0  0  0  0
 16 17  4  0  0  0  0
 17 18  4  0  0  0  0
 18 19  1  0  0  0  0
 19 20  4  0  0  0  0
 20 21  4  0  0  0  0
 21 22  1  0  0  0  0
 21 23  4  0  0  0  0
 23 24  4  0  0  0  0
 24 25  1  0  0  0  0
 19 26  4  0  0  0  0
 24 26  4  0  0  0  0
 18 27  4  0  0  0  0
 27 28  1  0  0  0  0
 28 29  2  0  0  0  0
  1 30  4  0  0  0  0
 29 30  1  0  0  0  0
 27 31  4  0  0  0  0
 30 31  4  0  0  0  0
 14 32  4  0  0  0  0
 17 32  4  0  0  0  0
  7 33  1  0  0  0  0
 33 34  4  0  0  0  0
 34 35  4  0  0  0  0
 35 36  1  0  0  0  0
 35 37  4  0  0  0  0
 37 38  4  0  0  0  0
 38 39  1  0  0  0  0
 33 40  4  0  0  0  0
 38 40  4  0  0  0  0
  1 41  1  0  0  0  0
  3 42  1  0  0  0  0
  4 43  1  0  0  0  0
  6 44  1  0  0  0  0
  9 45  1  0  0  0  0
 10 46  1  0  0  0  0
 15 47  1  0  0  0  0
 16 48  1  0  0  0  0
 20 49  1  0  0  0  0
 22 50  1  0  0  0  0
 22 51  1  0  0  0  0
 22 52  1  0  0  0  0
 23 53  1  0  0  0  0
 25 54  1  0  0  0  0
 25 55  1  0  0  0  0
 25 56  1  0  0  0  0
 26 57  1  0  0  0  0
 28 58  1  0  0  0  0
 29 59  1  0  0  0  0
 32 60  1  0  0  0  0
 34 61  1  0  0  0  0
 36 62  1  0  0  0  0
 36 63  1  0  0  0  0
 36 64  1  0  0  0  0
 37 65  1  0  0  0  0
 39 66  1  0  0  0  0
 39 67  1  0  0  0  0
 39 68  1  0  0  0  0
 40 69  1  0  0  0  0
 70 71  4  0  0  0  0
 71 72  4  0  0  0  0
 72 73  2  0  0  0  0
 73 74  4  0  0  0  0
 71 75  4  0  0  0  0
 74 75  4  0  0  0  0
 74 76  4  0  0  0  0
 76 77  4  0  0  0  0
 77 78  1  0  0  0  0
 78 79  2  0  0  0  0
 77 80  4  0  0  0  0
 79 81  1  0  0  0  0
 80 81  4  0  0  0  0
 81 82  4  0  0  0  0
 82 83  4  0  0  0  0
 83 84  4  0  0  0  0
 84 85  2  0  0  0  0
 85 86  4  0  0  0  0
 86 87  4  0  0  0  0
 87 88  1  0  0  0  0
 88 89  4  0  0  0  0
 89 90  4  0  0  0  0
 90 91  1  0  0  0  0
 90 92  4  0  0  0  0
 92 93  4  0  0  0  0
 93 94  1  0  0  0  0
 88 95  4  0  0  0  0
 93 95  4  0  0  0  0
 87 96  4  0  0  0  0
 96 97  1  0  0  0  0
 97 98  2  0  0  0  0
 70 99  4  0  0  0  0
 98 99  1  0  0  0  0
 96100  4  0  0  0  0
 99100  4  0  0  0  0
 83101  4  0  0  0  0
 86101  4  0  0  0  0
 76102  1  0  0  0  0
102103  4  0  0  0  0
103104  4  0  0  0  0
104105  1  0  0  0  0
104106  4  0  0  0  0
106107  4  0  0  0  0
107108  1  0  0  0  0
102109  4  0  0  0  0
107109  4  0  0  0  0
 70110  1  0  0  0  0
 72111  1  0  0  0  0
 73112  1  0  0  0  0
 75113  1  0  0  0  0
 78114  1  0  0  0  0
 79115  1  0  0  0  0
 84116  1  0  0  0  0
 85117  1  0  0  0  0
 89118  1  0  0  0  0
 91119  1  0  0  0  0
 91120  1  0  0  0  0
 91121  1  0  0  0  0
 92122  1  0  0  0  0
 94123  1  0  0  0  0
 94124  1  0  0  0  0
 94125  1  0  0  0  0
 95126  1  0  0  0  0
 97127  1  0  0  0  0
 98128  1  0  0  0  0
101129  1  0  0  0  0
103130  1  0  0  0  0
105131  1  0  0  0  0
105132  1  0  0  0  0
105133  1  0  0  0  0
106134  1  0  0  0  0
108135  1  0  0  0  0
108136  1  0  0  0  0
108137  1  0  0  0  0
109138  1  0  0  0  0
 13140  4  0  0  0  0
139140  3  0  0  0  0
139141  4  0  0  0  0
 82142  4  0  0  0  0
141142  3  0  0  0  0
M  END
