474

C 58.326217 -0.044571 -0.120274
C 59.053601 -0.241343 1.249511
C 58.452322 -0.594010 2.437823
C 59.472636 -0.628589 3.422014
C 60.653490 -0.265382 2.811417
N 60.397188 -0.090004 1.473355
C 62.071571 -0.117871 3.509720
C 63.205588 -0.061375 2.753836
C 64.517480 0.088906 3.350788
C 65.419188 0.149901 2.378861
N 63.399998 -0.101857 1.397550
C 64.734122 0.017627 1.107309
C 65.394402 0.026012 -0.080277
C 64.610604 -0.165652 -1.448734
C 65.122571 -0.715128 -2.607486
C 64.100718 -0.676931 -3.589024
C 62.996839 -0.101769 -3.005162
C 61.594328 0.163030 -3.709845
C 61.587386 0.376619 -5.188171
C 62.079442 1.565929 -5.764062
O 62.573781 2.650880 -5.087888
C 61.692609 3.218393 -4.118370
C 62.180903 1.691419 -7.157268
C 61.751527 0.666633 -7.996531
C 61.235640 -0.503669 -7.445043
C 61.171941 -0.666645 -6.054595
O 60.667246 -1.810393 -5.484091
C 60.914283 -3.032437 -6.173849
C 60.471176 0.189356 -2.945131
C 59.140148 0.352573 -3.501875
C 58.256508 0.271486 -2.510223
C 58.990823 0.081136 -1.283558
N 60.317626 0.063869 -1.592128
N 63.298034 0.153870 -1.685881
C 62.108852 -0.002814 4.999605
C 61.808309 1.211349 5.656352
O 61.344618 2.331823 5.014614
C 62.358242 3.005863 4.272667
C 61.840977 1.302639 7.052700
C 62.199043 0.198255 7.819169
C 62.485397 -1.014146 7.191105
C 62.440259 -1.126240 5.792150
O 62.645661 -2.314067 5.136246
C 63.431269 -3.299881 5.786270
H 57.234627 -0.008238 -0.115243
H 57.402287 -0.799138 2.579587
H 59.354540 -0.867383 4.466356
H 61.095403 0.108360 0.760446
H 64.730963 0.152684 4.401761
H 66.477123 0.260328 2.533165
H 66.116261 -1.112491 -2.729719
H 64.157018 -1.029914 -4.606285
H 62.204590 3.245796 -3.147151
H 61.479505 4.250747 -4.417195
H 60.742989 2.700980 -4.012420
H 62.598315 2.601775 -7.576242
H 61.818823 0.778662 -9.072177
H 60.888774 -1.287350 -8.110162
H 60.765520 -3.858681 -5.475184
H 60.195739 -3.157642 -6.990803
H 61.942775 -3.087061 -6.545668
H 58.902517 0.475207 -4.540959
H 57.185046 0.323501 -2.601226
H 62.621553 0.446382 -0.985959
H 62.639167 3.923690 4.798460
H 61.946076 3.293410 3.300233
H 63.259066 2.421722 4.100768
H 61.573535 2.237737 7.533816
H 62.228130 0.279352 8.902354
H 62.713458 -1.870937 7.813330
H 62.855491 -3.793596 6.571775
H 63.705428 -4.055537 5.047318
H 64.356311 -2.876266 6.193199
C 164.274697 -0.040756 -0.034194
C 163.547314 -0.357907 -1.381208
C 164.148592 -0.814292 -2.533672
C 163.128278 -0.935782 -3.510947
C 161.947424 -0.519995 -2.934867
N 162.203726 -0.226959 -1.617560
C 160.529343 -0.434822 -3.643480
C 159.395326 -0.311694 -2.895555
C 158.083434 -0.214799 -3.503459
C 157.181727 -0.068082 -2.540735
N 159.200916 -0.232061 -1.541004
C 157.866793 -0.087376 -1.262468
C 157.206513 0.026012 -0.080277
C 157.990310 -0.043869 1.299769
C 157.478344 -0.488706 2.502578
C 158.500196 -0.363847 3.476891
C 159.604076 0.157421 2.844447
C 161.006587 0.483509 3.522948
C 161.013528 0.827010 4.976591
C 160.521472 2.062593 5.445036
O 160.027133 3.083489 4.675554
C 160.908305 3.563030 3.659642
C 160.420011 2.310814 6.821683
C 160.849387 1.364272 7.748295
C 161.365274 0.149780 7.302474
C 161.428974 -0.135535 5.931889
O 161.933668 -1.325259 5.464779
C 161.686632 -2.481508 6.259917
C 162.129739 0.442097 2.758903
C 163.460766 0.653915 3.299030
C 164.344406 0.485439 2.318435
C 163.610091 0.187344 1.113413
N 162.283288 0.197436 1.422301
N 159.302880 0.295376 1.507727
C 160.492062 -0.451988 -5.137702
C 160.792605 0.699331 -5.899261
O 161.256297 1.872172 -5.359138
C 160.242672 2.609192 -4.679714
C 160.759937 0.666764 -7.298212
C 160.401872 -0.501083 -7.964000
C 160.115517 -1.653183 -7.231167
C 160.160656 -1.641108 -5.827780
O 159.955253 -2.766270 -5.069390
C 159.169645 -3.805711 -5.629677
H 165.366287 -0.005011 -0.042419
H 165.198627 -1.031155 -2.656737
H 163.246374 -1.266007 -4.530076
H 161.505511 0.033680 -0.924988
H 157.869951 -0.244224 -4.555954
H 156.123791 0.028266 -2.704202
H 156.484653 -0.873700 2.659476
H 158.443897 -0.625475 4.521385
H 160.396324 3.504427 2.689806
H 161.121409 4.617767 3.865990
H 161.857926 3.038273 3.599870
H 160.002599 3.254658 7.158500
H 160.782091 1.570997 8.809817
H 161.712140 -0.572004 8.034299
H 161.835394 -3.366307 5.637067
H 162.405175 -2.533968 7.084744
H 160.658140 -2.503033 6.635111
H 163.698397 0.867969 4.323195
H 165.415868 0.545299 2.404481
H 159.979362 0.524837 0.784676
H 159.961747 3.476918 -5.284623
H 160.654839 2.981618 -3.736522
H 159.341849 2.042543 -4.456824
H 161.027380 1.555645 -7.860146
H 160.372784 -0.516105 -9.050113
H 159.887456 -2.561649 -7.775175
H 159.745423 -4.366965 -6.368437
H 158.895486 -4.493050 -4.826787
H 158.244604 -3.419747 -6.072477
C 68.472699 0.039670 -0.070723
C 69.930926 0.017834 -0.088597
C 71.064854 -0.002920 -0.090088
C 72.426235 -0.015510 -0.092279
C 73.700454 -0.005203 -0.097044
C 74.888917 0.013595 -0.103200
C 76.241277 0.038379 -0.087332
C 77.341545 0.039670 -0.070723
C 87.640537 0.039670 -0.070723
C 89.098763 0.017834 -0.088597
C 90.232691 -0.002920 -0.090088
C 91.594073 -0.015510 -0.092279
C 92.868292 -0.005203 -0.097044
C 94.056754 0.013595 -0.103200
C 95.409115 0.038379 -0.087332
C 96.509382 0.039670 -0.070723
C 106.808374 0.039670 -0.070723
C 108.266600 0.017834 -0.088597
C 109.400528 -0.002920 -0.090088
C 110.761910 -0.015510 -0.092279
C 112.036129 -0.005203 -0.097044
C 113.224591 0.013595 -0.103200
C 114.576952 0.038379 -0.087332
C 115.677220 0.039670 -0.070723
C 125.976212 0.039670 -0.070723
C 127.434438 0.017834 -0.088597
C 128.568366 -0.002920 -0.090088
C 129.929748 -0.015510 -0.092279
C 131.203967 -0.005203 -0.097044
C 132.392429 0.013595 -0.103200
C 133.744790 0.038379 -0.087332
C 134.845057 0.039670 -0.070723
C 145.144049 0.039670 -0.070723
C 146.602275 0.017834 -0.088597
C 147.736203 -0.002920 -0.090088
C 149.097585 -0.015510 -0.092279
C 150.371804 -0.005203 -0.097044
C 151.560266 0.013595 -0.103200
C 152.912627 0.038379 -0.087332
C 154.012894 0.039670 -0.070723
C 78.999686 -0.018697 0.050519
C 79.790849 1.237687 0.613903
C 79.261956 2.271999 1.357593
C 80.296849 3.219517 1.544239
C 81.431547 2.732957 0.931742
N 81.130515 1.494623 0.421388
C 82.838995 3.466289 0.835683
C 83.970999 2.744802 0.604394
C 85.271748 3.373322 0.482861
C 86.181853 2.426500 0.302660
N 84.176166 1.399729 0.447090
C 85.508751 1.144561 0.258798
C 86.177937 -0.018697 0.050519
C 85.376331 -1.382393 -0.052459
C 85.875122 -2.653432 0.179240
C 84.839237 -3.575566 -0.105860
C 83.740160 -2.837909 -0.510338
C 82.345379 -3.423525 -0.988593
C 82.351509 -4.770365 -1.638591
C 81.987589 -5.902406 -0.860096
O 81.663119 -5.685965 0.455844
C 80.723779 -6.576757 1.039708
C 82.029884 -7.192692 -1.407719
C 82.440190 -7.381158 -2.718803
C 82.805250 -6.280979 -3.487043
C 82.752103 -4.976333 -2.975791
O 83.162687 -4.049002 -3.903937
C 82.492343 -2.787646 -3.887908
C 81.207869 -2.695175 -0.818580
C 79.903856 -3.203685 -1.198114
C 78.991177 -2.286288 -0.904718
C 79.668570 -1.135287 -0.338568
N 81.005212 -1.437935 -0.316966
N 84.055531 -1.505653 -0.409911
C 82.868359 4.950748 0.987478
C 82.935135 5.787273 -0.145306
O 82.995459 5.228656 -1.399511
C 81.860377 5.584249 -2.191727
C 83.004497 7.181870 -0.010513
C 82.972834 7.767514 1.252887
C 82.866392 6.962112 2.384722
C 82.833396 5.567641 2.256967
O 82.672619 4.862545 3.422279
C 83.908605 4.287144 3.852071
H 78.242216 2.356231 1.711366
H 80.225779 4.158408 2.070046
H 81.801016 0.862191 -0.012705
H 85.475714 4.425987 0.542272
H 87.234866 2.598538 0.191946
H 86.878220 -2.896054 0.504240
H 84.891068 -4.655197 -0.037983
H 80.324415 -6.104731 1.944351
H 81.218701 -7.508179 1.342942
H 79.874419 -6.776739 0.370230
H 81.784020 -8.062388 -0.811292
H 82.490365 -8.379148 -3.141915
H 83.134119 -6.429849 -4.506380
H 82.496897 -2.444682 -4.938018
H 81.428764 -2.886993 -3.600843
H 83.034505 -2.044207 -3.288562
H 79.703765 -4.162289 -1.637118
H 77.937107 -2.400035 -1.076309
H 83.409711 -0.729268 -0.532378
H 82.088350 6.498950 -2.755293
H 80.950851 5.736896 -1.598067
H 81.681007 4.778777 -2.917899
H 83.100258 7.808415 -0.891697
H 83.031341 8.846784 1.353043
H 82.832659 7.406487 3.371651
H 84.655040 4.173733 3.062688
H 83.691491 3.300892 4.282307
H 84.334584 4.919183 4.640061
C 98.167524 -0.018697 0.050519
C 98.958686 1.237687 0.613903
C 98.429794 2.271999 1.357593
C 99.464686 3.219517 1.544239
C 100.599385 2.732957 0.931742
N 100.298352 1.494623 0.421388
C 102.006833 3.466289 0.835683
C 103.138836 2.744802 0.604394
C 104.439586 3.373322 0.482861
C 105.349691 2.426500 0.302660
N 103.344004 1.399729 0.447090
C 104.676589 1.144561 0.258798
C 105.345774 -0.018697 0.050519
C 104.544169 -1.382393 -0.052459
C 105.042960 -2.653432 0.179240
C 104.007075 -3.575566 -0.105860
C 102.907998 -2.837909 -0.510338
C 101.513216 -3.423525 -0.988593
C 101.519346 -4.770365 -1.638591
C 101.155426 -5.902406 -0.860096
O 100.830956 -5.685965 0.455844
C 99.891616 -6.576757 1.039708
C 101.197722 -7.192692 -1.407719
C 101.608027 -7.381158 -2.718803
C 101.973088 -6.280979 -3.487043
C 101.919940 -4.976333 -2.975791
O 102.330525 -4.049002 -3.903937
C 101.660181 -2.787646 -3.887908
C 100.375707 -2.695175 -0.818580
C 99.071693 -3.203685 -1.198114
C 98.159014 -2.286288 -0.904718
C 98.836407 -1.135287 -0.338568
N 100.173049 -1.437935 -0.316966
N 103.223368 -1.505653 -0.409911
C 102.036197 4.950748 0.987478
C 102.102972 5.787273 -0.145306
O 102.163296 5.228656 -1.399511
C 101.028214 5.584249 -2.191727
C 102.172335 7.181870 -0.010513
C 102.140672 7.767514 1.252887
C 102.034230 6.962112 2.384722
C 102.001233 5.567641 2.256967
O 101.840456 4.862545 3.422279
C 103.076442 4.287144 3.852071
H 97.410053 2.356231 1.711366
H 99.393616 4.158408 2.070046
H 100.968853 0.862191 -0.012705
H 104.643552 4.425987 0.542272
H 106.402703 2.598538 0.191946
H 106.046057 -2.896054 0.504240
H 104.058906 -4.655197 -0.037983
H 99.492253 -6.104731 1.944351
H 100.386538 -7.508179 1.342942
H 99.042257 -6.776739 0.370230
H 100.951857 -8.062388 -0.811292
H 101.658203 -8.379148 -3.141915
H 102.301957 -6.429849 -4.506380
H 101.664734 -2.444682 -4.938018
H 100.596601 -2.886993 -3.600843
H 102.202342 -2.044207 -3.288562
H 98.871603 -4.162289 -1.637118
H 97.104944 -2.400035 -1.076309
H 102.577549 -0.729268 -0.532378
H 101.256187 6.498950 -2.755293
H 100.118689 5.736896 -1.598067
H 100.848844 4.778777 -2.917899
H 102.268095 7.808415 -0.891697
H 102.199179 8.846784 1.353043
H 102.000497 7.406487 3.371651
H 103.822878 4.173733 3.062688
H 102.859328 3.300892 4.282307
H 103.502422 4.919183 4.640061
C 117.335361 -0.018697 0.050519
C 118.126524 1.237687 0.613903
C 117.597631 2.271999 1.357593
C 118.632524 3.219517 1.544239
C 119.767222 2.732957 0.931742
N 119.466190 1.494623 0.421388
C 121.174670 3.466289 0.835683
C 122.306674 2.744802 0.604394
C 123.607423 3.373322 0.482861
C 124.517528 2.426500 0.302660
N 122.511841 1.399729 0.447090
C 123.844426 1.144561 0.258798
C 124.513612 -0.018697 0.050519
C 123.712006 -1.382393 -0.052459
C 124.210797 -2.653432 0.179240
C 123.174912 -3.575566 -0.105860
C 122.075835 -2.837909 -0.510338
C 120.681054 -3.423525 -0.988593
C 120.687183 -4.770365 -1.638591
C 120.323264 -5.902406 -0.860096
O 119.998794 -5.685965 0.455844
C 119.059454 -6.576757 1.039708
C 120.365559 -7.192692 -1.407719
C 120.775865 -7.381158 -2.718803
C 121.140925 -6.280979 -3.487043
C 121.087778 -4.976333 -2.975791
O 121.498362 -4.049002 -3.903937
C 120.828018 -2.787646 -3.887908
C 119.543544 -2.695175 -0.818580
C 118.239531 -3.203685 -1.198114
C 117.326852 -2.286288 -0.904718
C 118.004245 -1.135287 -0.338568
N 119.340887 -1.437935 -0.316966
N 122.391206 -1.505653 -0.409911
C 121.204034 4.950748 0.987478
C 121.270810 5.787273 -0.145306
O 121.331134 5.228656 -1.399511
C 120.196052 5.584249 -2.191727
C 121.340172 7.181870 -0.010513
C 121.308509 7.767514 1.252887
C 121.202067 6.962112 2.384722
C 121.169071 5.567641 2.256967
O 121.008294 4.862545 3.422279
C 122.244280 4.287144 3.852071
H 116.577890 2.356231 1.711366
H 118.561453 4.158408 2.070046
H 120.136691 0.862191 -0.012705
H 123.811389 4.425987 0.542272
H 125.570541 2.598538 0.191946
H 125.213894 -2.896054 0.504240
H 123.226743 -4.655197 -0.037983
H 118.660090 -6.104731 1.944351
H 119.554376 -7.508179 1.342942
H 118.210094 -6.776739 0.370230
H 120.119694 -8.062388 -0.811292
H 120.826040 -8.379148 -3.141915
H 121.469794 -6.429849 -4.506380
H 120.832572 -2.444682 -4.938018
H 119.764438 -2.886993 -3.600843
H 121.370180 -2.044207 -3.288562
H 118.039440 -4.162289 -1.637118
H 116.272782 -2.400035 -1.076309
H 121.745386 -0.729268 -0.532378
H 120.424025 6.498950 -2.755293
H 119.286526 5.736896 -1.598067
H 120.016682 4.778777 -2.917899
H 121.435933 7.808415 -0.891697
H 121.367016 8.846784 1.353043
H 121.168334 7.406487 3.371651
H 122.990715 4.173733 3.062688
H 122.027166 3.300892 4.282307
H 122.670259 4.919183 4.640061
C 136.503199 -0.018697 0.050519
C 137.294361 1.237687 0.613903
C 136.765469 2.271999 1.357593
C 137.800361 3.219517 1.544239
C 138.935060 2.732957 0.931742
N 138.634027 1.494623 0.421388
C 140.342508 3.466289 0.835683
C 141.474511 2.744802 0.604394
C 142.775260 3.373322 0.482861
C 143.685366 2.426500 0.302660
N 141.679678 1.399729 0.447090
C 143.012264 1.144561 0.258798
C 143.681449 -0.018697 0.050519
C 142.879844 -1.382393 -0.052459
C 143.378635 -2.653432 0.179240
C 142.342750 -3.575566 -0.105860
C 141.243673 -2.837909 -0.510338
C 139.848891 -3.423525 -0.988593
C 139.855021 -4.770365 -1.638591
C 139.491101 -5.902406 -0.860096
O 139.166631 -5.685965 0.455844
C 138.227291 -6.576757 1.039708
C 139.533397 -7.192692 -1.407719
C 139.943702 -7.381158 -2.718803
C 140.308762 -6.280979 -3.487043
C 140.255615 -4.976333 -2.975791
O 140.666200 -4.049002 -3.903937
C 139.995856 -2.787646 -3.887908
C 138.711381 -2.695175 -0.818580
C 137.407368 -3.203685 -1.198114
C 136.494689 -2.286288 -0.904718
C 137.172082 -1.135287 -0.338568
N 138.508724 -1.437935 -0.316966
N 141.559043 -1.505653 -0.409911
C 140.371871 4.950748 0.987478
C 140.438647 5.787273 -0.145306
O 140.498971 5.228656 -1.399511
C 139.363889 5.584249 -2.191727
C 140.508009 7.181870 -0.010513
C 140.476347 7.767514 1.252887
C 140.369905 6.962112 2.384722
C 140.336908 5.567641 2.256967
O 140.176131 4.862545 3.422279
C 141.412117 4.287144 3.852071
H 135.745728 2.356231 1.711366
H 137.729291 4.158408 2.070046
H 139.304528 0.862191 -0.012705
H 142.979227 4.425987 0.542272
H 144.738378 2.598538 0.191946
H 144.381732 -2.896054 0.504240
H 142.394581 -4.655197 -0.037983
H 137.827928 -6.104731 1.944351
H 138.722213 -7.508179 1.342942
H 137.377932 -6.776739 0.370230
H 139.287532 -8.062388 -0.811292
H 139.993877 -8.379148 -3.141915
H 140.637632 -6.429849 -4.506380
H 140.000409 -2.444682 -4.938018
H 138.932276 -2.886993 -3.600843
H 140.538017 -2.044207 -3.288562
H 137.207278 -4.162289 -1.637118
H 135.440619 -2.400035 -1.076309
H 140.913223 -0.729268 -0.532378
H 139.591862 6.498950 -2.755293
H 138.454364 5.736896 -1.598067
H 139.184519 4.778777 -2.917899
H 140.603770 7.808415 -0.891697
H 140.534853 8.846784 1.353043
H 140.336172 7.406487 3.371651
H 142.158553 4.173733 3.062688
H 141.195003 3.300892 4.282307
H 141.838097 4.919183 4.640061
