 xtb: 6.5.1 (b24c23e)
          07292222003D

130149  0     0  0            999 V2000
   14.7233    0.0579   -0.0212 Fe  0  0  0  0  0  0  0  0  0  0  0  0
   11.3324    0.0849   -0.1471 C   0  0  0  0  0  0  0  0  0  0  0  0
   11.9817    1.2994   -0.0771 C   0  0  0  0  0  0  0  0  0  0  0  0
   11.2976    2.5566   -0.0448 C   0  0  0  0  0  0  0  0  0  0  0  0
   12.2511    3.5146    0.0219 C   0  0  0  0  0  0  0  0  0  0  0  0
   13.5175    2.8404    0.0195 C   0  0  0  0  0  0  0  0  0  0  0  0
   13.3385    1.4839   -0.0226 N   0  0  0  0  0  0  0  0  0  0  0  0
   14.7426    3.4960    0.0792 C   0  0  0  0  0  0  0  0  0  0  0  0
   14.7525    4.9794    0.1051 C   0  0  0  0  0  0  0  0  0  0  0  0
   14.2510    5.7017   -0.9777 C   0  0  0  0  0  0  0  0  0  0  0  0
   14.2690    7.0914   -0.9563 C   0  0  0  0  0  0  0  0  0  0  0  0
   13.7930    7.8036   -2.0062 O   0  0  0  0  0  0  0  0  0  0  0  0
   14.7814    7.7630    0.1551 C   0  0  0  0  0  0  0  0  0  0  0  0
   14.7831    9.1329    0.1491 O   0  0  0  0  0  0  0  0  0  0  0  0
   15.2770    7.0411    1.2379 C   0  0  0  0  0  0  0  0  0  0  0  0
   15.7590    7.7698    2.2930 O   0  0  0  0  0  0  0  0  0  0  0  0
   15.2690    5.6520    1.2157 C   0  0  0  0  0  0  0  0  0  0  0  0
   15.9569    2.8250    0.1116 C   0  0  0  0  0  0  0  0  0  0  0  0
   17.2289    3.4842    0.1236 C   0  0  0  0  0  0  0  0  0  0  0  0
   18.1726    2.5130    0.1473 C   0  0  0  0  0  0  0  0  0  0  0  0
   16.1266    1.4604    0.1131 N   0  0  0  0  0  0  0  0  0  0  0  0
   17.4753    1.2658    0.1400 C   0  0  0  0  0  0  0  0  0  0  0  0
   18.1315    0.0290    0.1554 C   0  0  0  0  0  0  0  0  0  0  0  0
   17.4561   -1.1970    0.1219 C   0  0  0  0  0  0  0  0  0  0  0  0
   18.1339   -2.4553    0.1199 C   0  0  0  0  0  0  0  0  0  0  0  0
   17.1762   -3.4108    0.0607 C   0  0  0  0  0  0  0  0  0  0  0  0
   15.9150   -2.7312    0.0346 C   0  0  0  0  0  0  0  0  0  0  0  0
   16.1051   -1.3696    0.0716 N   0  0  0  0  0  0  0  0  0  0  0  0
   14.6934   -3.3811   -0.0613 C   0  0  0  0  0  0  0  0  0  0  0  0
   14.6812   -4.8647   -0.1014 C   0  0  0  0  0  0  0  0  0  0  0  0
   15.1265   -5.5990    0.9975 C   0  0  0  0  0  0  0  0  0  0  0  0
   15.1121   -6.9885    0.9582 C   0  0  0  0  0  0  0  0  0  0  0  0
   15.5336   -7.7129    2.0230 O   0  0  0  0  0  0  0  0  0  0  0  0
   14.6616   -7.6470   -0.1873 C   0  0  0  0  0  0  0  0  0  0  0  0
   14.6646   -9.0170   -0.1993 O   0  0  0  0  0  0  0  0  0  0  0  0
   14.2222   -6.9126   -1.2859 C   0  0  0  0  0  0  0  0  0  0  0  0
   13.8004   -7.6289   -2.3750 O   0  0  0  0  0  0  0  0  0  0  0  0
   14.2247   -5.5239   -1.2456 C   0  0  0  0  0  0  0  0  0  0  0  0
   13.4796   -2.7055   -0.1281 C   0  0  0  0  0  0  0  0  0  0  0  0
   12.2052   -3.3609   -0.1922 C   0  0  0  0  0  0  0  0  0  0  0  0
   11.2651   -2.3874   -0.2183 C   0  0  0  0  0  0  0  0  0  0  0  0
   11.9656   -1.1404   -0.1609 C   0  0  0  0  0  0  0  0  0  0  0  0
   13.3188   -1.3465   -0.0991 N   0  0  0  0  0  0  0  0  0  0  0  0
   10.2490    0.0936   -0.1906 H   0  0  0  0  0  0  0  0  0  0  0  0
   10.2253    2.6701   -0.0661 H   0  0  0  0  0  0  0  0  0  0  0  0
   12.1212    4.5832    0.0762 H   0  0  0  0  0  0  0  0  0  0  0  0
   13.8645    5.1906   -1.8500 H   0  0  0  0  0  0  0  0  0  0  0  0
   13.8934    8.7488   -1.8048 H   0  0  0  0  0  0  0  0  0  0  0  0
   15.1701    9.4353    0.9861 H   0  0  0  0  0  0  0  0  0  0  0  0
   16.0824    7.1887    2.9938 H   0  0  0  0  0  0  0  0  0  0  0  0
   15.6452    5.0961    2.0665 H   0  0  0  0  0  0  0  0  0  0  0  0
   17.3727    4.5521    0.1019 H   0  0  0  0  0  0  0  0  0  0  0  0
   19.2457    2.6164    0.1608 H   0  0  0  0  0  0  0  0  0  0  0  0
   19.2047   -2.5756    0.1522 H   0  0  0  0  0  0  0  0  0  0  0  0
   17.3027   -4.4804    0.0252 H   0  0  0  0  0  0  0  0  0  0  0  0
   15.4674   -5.0976    1.8939 H   0  0  0  0  0  0  0  0  0  0  0  0
   15.4475   -8.6556    1.8043 H   0  0  0  0  0  0  0  0  0  0  0  0
   14.3251   -9.3095   -1.0600 H   0  0  0  0  0  0  0  0  0  0  0  0
   13.5206   -7.0393   -3.0874 H   0  0  0  0  0  0  0  0  0  0  0  0
   13.8920   -4.9579   -2.1078 H   0  0  0  0  0  0  0  0  0  0  0  0
   12.0608   -4.4290   -0.2031 H   0  0  0  0  0  0  0  0  0  0  0  0
   10.1920   -2.4847   -0.2644 H   0  0  0  0  0  0  0  0  0  0  0  0
   30.7020   -0.0557   -0.0282 Fe  0  0  0  0  0  0  0  0  0  0  0  0
   34.0929   -0.0681   -0.1579 C   0  0  0  0  0  0  0  0  0  0  0  0
   33.4436   -1.2830   -0.2241 C   0  0  0  0  0  0  0  0  0  0  0  0
   34.1279   -2.5358   -0.3332 C   0  0  0  0  0  0  0  0  0  0  0  0
   33.1743   -3.4952   -0.3749 C   0  0  0  0  0  0  0  0  0  0  0  0
   31.9079   -2.8250   -0.3020 C   0  0  0  0  0  0  0  0  0  0  0  0
   32.0869   -1.4724   -0.1910 N   0  0  0  0  0  0  0  0  0  0  0  0
   30.6829   -3.4831   -0.3179 C   0  0  0  0  0  0  0  0  0  0  0  0
   30.6729   -4.9599   -0.4599 C   0  0  0  0  0  0  0  0  0  0  0  0
   31.1748   -5.5554   -1.6171 C   0  0  0  0  0  0  0  0  0  0  0  0
   31.1566   -6.9387   -1.7527 C   0  0  0  0  0  0  0  0  0  0  0  0
   31.6328   -7.5279   -2.8761 O   0  0  0  0  0  0  0  0  0  0  0  0
   30.6436   -7.7314   -0.7245 C   0  0  0  0  0  0  0  0  0  0  0  0
   30.6417   -9.0918   -0.8850 O   0  0  0  0  0  0  0  0  0  0  0  0
   30.1476   -7.1362    0.4328 C   0  0  0  0  0  0  0  0  0  0  0  0
   29.6651   -7.9793    1.3986 O   0  0  0  0  0  0  0  0  0  0  0  0
   30.1557   -5.7535    0.5675 C   0  0  0  0  0  0  0  0  0  0  0  0
   29.4685   -2.8200   -0.2107 C   0  0  0  0  0  0  0  0  0  0  0  0
   28.1964   -3.4762   -0.2748 C   0  0  0  0  0  0  0  0  0  0  0  0
   27.2527   -2.5139   -0.1409 C   0  0  0  0  0  0  0  0  0  0  0  0
   29.2989   -1.4645   -0.0538 N   0  0  0  0  0  0  0  0  0  0  0  0
   27.9501   -1.2741   -0.0053 C   0  0  0  0  0  0  0  0  0  0  0  0
   27.2939   -0.0472    0.1520 C   0  0  0  0  0  0  0  0  0  0  0  0
   27.9694    1.1745    0.2592 C   0  0  0  0  0  0  0  0  0  0  0  0
   27.2917    2.4247    0.4020 C   0  0  0  0  0  0  0  0  0  0  0  0
   28.2493    3.3809    0.4509 C   0  0  0  0  0  0  0  0  0  0  0  0
   29.5104    2.7089    0.3456 C   0  0  0  0  0  0  0  0  0  0  0  0
   29.3204    1.3519    0.2274 N   0  0  0  0  0  0  0  0  0  0  0  0
   30.7319    3.3658    0.3219 C   0  0  0  0  0  0  0  0  0  0  0  0
   30.7440    4.8442    0.4507 C   0  0  0  0  0  0  0  0  0  0  0  0
   30.2978    5.4489    1.6255 C   0  0  0  0  0  0  0  0  0  0  0  0
   30.3119    6.8338    1.7445 C   0  0  0  0  0  0  0  0  0  0  0  0
   29.8891    7.4324    2.8843 O   0  0  0  0  0  0  0  0  0  0  0  0
   30.7636    7.6183    0.6819 C   0  0  0  0  0  0  0  0  0  0  0  0
   30.7607    8.9807    0.8259 O   0  0  0  0  0  0  0  0  0  0  0  0
   31.2042    7.0136   -0.4926 C   0  0  0  0  0  0  0  0  0  0  0  0
   31.6274    7.8491   -1.4926 O   0  0  0  0  0  0  0  0  0  0  0  0
   31.2016    5.6293   -0.6107 C   0  0  0  0  0  0  0  0  0  0  0  0
   31.9456    2.7023    0.1768 C   0  0  0  0  0  0  0  0  0  0  0  0
   33.2200    3.3608    0.1854 C   0  0  0  0  0  0  0  0  0  0  0  0
   34.1600    2.3965    0.0485 C   0  0  0  0  0  0  0  0  0  0  0  0
   33.4596    1.1509   -0.0340 C   0  0  0  0  0  0  0  0  0  0  0  0
   32.1065    1.3487    0.0522 N   0  0  0  0  0  0  0  0  0  0  0  0
   35.1762   -0.0718   -0.2027 H   0  0  0  0  0  0  0  0  0  0  0  0
   35.2001   -2.6461   -0.3667 H   0  0  0  0  0  0  0  0  0  0  0  0
   33.3043   -4.5631   -0.4411 H   0  0  0  0  0  0  0  0  0  0  0  0
   31.5618   -4.9491   -2.4258 H   0  0  0  0  0  0  0  0  0  0  0  0
   31.5321   -8.4897   -2.7828 H   0  0  0  0  0  0  0  0  0  0  0  0
   30.2545   -9.4867   -0.0877 H   0  0  0  0  0  0  0  0  0  0  0  0
   29.3418   -7.4810    2.1606 H   0  0  0  0  0  0  0  0  0  0  0  0
   29.7792   -5.2971    1.4754 H   0  0  0  0  0  0  0  0  0  0  0  0
   28.0526   -4.5346   -0.4183 H   0  0  0  0  0  0  0  0  0  0  0  0
   26.1797   -2.6181   -0.1400 H   0  0  0  0  0  0  0  0  0  0  0  0
   26.2209    2.5404    0.4494 H   0  0  0  0  0  0  0  0  0  0  0  0
   28.1226    4.4475    0.5378 H   0  0  0  0  0  0  0  0  0  0  0  0
   29.9560    4.8488    2.4588 H   0  0  0  0  0  0  0  0  0  0  0  0
   29.9753    8.3938    2.7744 H   0  0  0  0  0  0  0  0  0  0  0  0
   31.1015    9.3693    0.0045 H   0  0  0  0  0  0  0  0  0  0  0  0
   31.9085    7.3444   -2.2671 H   0  0  0  0  0  0  0  0  0  0  0  0
   31.5351    5.1651   -1.5314 H   0  0  0  0  0  0  0  0  0  0  0  0
   33.3646    4.4233    0.2949 H   0  0  0  0  0  0  0  0  0  0  0  0
   35.2331    2.4985    0.0123 H   0  0  0  0  0  0  0  0  0  0  0  0
   23.3279   -0.0179    0.2256 C   0  0  0  0  0  0  0  0  0  0  0  0
   22.0976   -0.0056    0.2261 C   0  0  0  0  0  0  0  0  0  0  0  0
   20.7569    0.0058    0.2127 C   0  0  0  0  0  0  0  0  0  0  0  0
   19.5314    0.0177    0.1916 C   0  0  0  0  0  0  0  0  0  0  0  0
   24.6686   -0.0287    0.2121 C   0  0  0  0  0  0  0  0  0  0  0  0
   25.8941   -0.0401    0.1892 C   0  0  0  0  0  0  0  0  0  0  0  0
  2  3  4  0  0  0  0
  3  4  4  0  0  0  0
  4  5  2  0  0  0  0
  5  6  4  0  0  0  0
  1  7  1  0  0  0  0
  3  7  4  0  0  0  0
  6  7  4  0  0  0  0
  6  8  4  0  0  0  0
  8  9  1  0  0  0  0
  9 10  4  0  0  0  0
 10 11  4  0  0  0  0
 11 12  1  0  0  0  0
 11 13  4  0  0  0  0
 13 14  1  0  0  0  0
 13 15  4  0  0  0  0
 15 16  1  0  0  0  0
  9 17  4  0  0  0  0
 15 17  4  0  0  0  0
  8 18  4  0  0  0  0
 18 19  4  0  0  0  0
 19 20  2  0  0  0  0
  1 21  1  0  0  0  0
 18 21  4  0  0  0  0
 20 22  4  0  0  0  0
 21 22  4  0  0  0  0
 22 23  4  0  0  0  0
 23 24  4  0  0  0  0
 24 25  4  0  0  0  0
 25 26  2  0  0  0  0
 26 27  4  0  0  0  0
  1 28  1  0  0  0  0
 24 28  4  0  0  0  0
 27 28  4  0  0  0  0
 27 29  4  0  0  0  0
 29 30  1  0  0  0  0
 30 31  4  0  0  0  0
 31 32  4  0  0  0  0
 32 33  1  0  0  0  0
 32 34  4  0  0  0  0
 34 35  1  0  0  0  0
 34 36  4  0  0  0  0
 36 37  1  0  0  0  0
 30 38  4  0  0  0  0
 36 38  4  0  0  0  0
 29 39  4  0  0  0  0
 39 40  4  0  0  0  0
 40 41  2  0  0  0  0
  2 42  4  0  0  0  0
 41 42  4  0  0  0  0
  1 43  1  0  0  0  0
 39 43  4  0  0  0  0
 42 43  4  0  0  0  0
  2 44  1  0  0  0  0
  4 45  1  0  0  0  0
  5 46  1  0  0  0  0
 10 47  1  0  0  0  0
 12 48  1  0  0  0  0
 14 49  1  0  0  0  0
 16 50  1  0  0  0  0
 17 51  1  0  0  0  0
 19 52  1  0  0  0  0
 20 53  1  0  0  0  0
 25 54  1  0  0  0  0
 26 55  1  0  0  0  0
 31 56  1  0  0  0  0
 33 57  1  0  0  0  0
 35 58  1  0  0  0  0
 37 59  1  0  0  0  0
 38 60  1  0  0  0  0
 40 61  1  0  0  0  0
 41 62  1  0  0  0  0
 64 65  4  0  0  0  0
 65 66  4  0  0  0  0
 66 67  2  0  0  0  0
 67 68  4  0  0  0  0
 63 69  1  0  0  0  0
 65 69  4  0  0  0  0
 68 69  4  0  0  0  0
 68 70  4  0  0  0  0
 70 71  1  0  0  0  0
 71 72  4  0  0  0  0
 72 73  4  0  0  0  0
 73 74  1  0  0  0  0
 73 75  4  0  0  0  0
 75 76  1  0  0  0  0
 75 77  4  0  0  0  0
 77 78  1  0  0  0  0
 71 79  4  0  0  0  0
 77 79  4  0  0  0  0
 70 80  4  0  0  0  0
 80 81  4  0  0  0  0
 81 82  2  0  0  0  0
 63 83  1  0  0  0  0
 80 83  4  0  0  0  0
 82 84  4  0  0  0  0
 83 84  4  0  0  0  0
 84 85  4  0  0  0  0
 85 86  4  0  0  0  0
 86 87  4  0  0  0  0
 87 88  2  0  0  0  0
 88 89  4  0  0  0  0
 63 90  1  0  0  0  0
 86 90  4  0  0  0  0
 89 90  4  0  0  0  0
 89 91  4  0  0  0  0
 91 92  1  0  0  0  0
 92 93  4  0  0  0  0
 93 94  4  0  0  0  0
 94 95  1  0  0  0  0
 94 96  4  0  0  0  0
 96 97  1  0  0  0  0
 96 98  4  0  0  0  0
 98 99  1  0  0  0  0
 92100  4  0  0  0  0
 98100  4  0  0  0  0
 91101  4  0  0  0  0
101102  4  0  0  0  0
102103  2  0  0  0  0
 64104  4  0  0  0  0
103104  4  0  0  0  0
 63105  1  0  0  0  0
101105  4  0  0  0  0
104105  4  0  0  0  0
 64106  1  0  0  0  0
 66107  1  0  0  0  0
 67108  1  0  0  0  0
 72109  1  0  0  0  0
 74110  1  0  0  0  0
 76111  1  0  0  0  0
 78112  1  0  0  0  0
 79113  1  0  0  0  0
 81114  1  0  0  0  0
 82115  1  0  0  0  0
 87116  1  0  0  0  0
 88117  1  0  0  0  0
 93118  1  0  0  0  0
 95119  1  0  0  0  0
 97120  1  0  0  0  0
 99121  1  0  0  0  0
100122  1  0  0  0  0
102123  1  0  0  0  0
103124  1  0  0  0  0
125126  3  0  0  0  0
126127  4  0  0  0  0
 23128  4  0  0  0  0
127128  3  0  0  0  0
125129  4  0  0  0  0
 85130  4  0  0  0  0
129130  3  0  0  0  0
M  END
