316

C 57.108754 0.107687 0.276901
C 57.842198 1.280355 -0.443796
C 57.245232 2.408069 -0.959238
C 58.269475 3.177352 -1.570496
C 59.457172 2.488296 -1.413716
N 59.190817 1.357597 -0.682713
C 60.870665 2.900327 -1.988052
C 60.899857 3.958692 -2.954740
C 60.910013 4.845557 -3.765598
C 60.920170 5.897047 -4.731955
C 60.121694 5.808958 -5.866878
C 60.166106 6.853464 -6.773752
N 60.937944 7.953917 -6.623008
C 61.701592 8.004016 -5.507660
C 61.728195 7.012521 -4.542269
C 61.998758 2.246810 -1.605197
C 63.294505 2.582400 -2.160300
C 64.201543 1.772777 -1.626264
N 62.205384 1.219953 -0.721487
C 63.534860 0.886217 -0.692643
C 64.209074 -0.058655 0.015475
C 63.440112 -0.990027 1.044272
C 63.990382 -1.630171 2.137382
C 62.962963 -2.392110 2.747899
C 61.812227 -2.188460 2.016162
N 62.101004 -1.294136 1.012533
C 60.399787 -2.840364 2.292873
C 60.368792 -4.080858 3.007201
C 60.353425 -5.125010 3.601467
C 60.329957 -6.369876 4.301183
C 61.370178 -6.709899 5.158811
C 61.299980 -7.928032 5.812453
N 60.282004 -8.806792 5.668130
C 59.289088 -8.442495 4.824936
C 59.266333 -7.248274 4.125714
C 59.272257 -2.233344 1.845598
C 57.945655 -2.771072 2.092128
C 57.054444 -1.950392 1.543465
C 57.776758 -0.868425 0.919980
N 59.103659 -1.083223 1.125906
H 56.026478 0.080620 0.232512
H 56.192781 2.643003 -0.914043
H 58.149056 4.117937 -2.086484
H 59.882803 0.680873 -0.369343
H 59.484205 4.948364 -6.037927
H 59.561514 6.830968 -7.674916
H 62.314593 8.894006 -5.405262
H 62.360638 7.103843 -3.665820
H 63.496335 3.347669 -2.888223
H 65.250792 1.792976 -1.858029
H 65.019291 -1.565691 2.457378
H 63.052341 -3.018965 3.621996
H 61.415261 -0.877768 0.388018
H 62.211800 -6.043127 5.311408
H 62.087783 -8.238832 6.491729
H 58.481914 -9.161050 4.720513
H 58.444091 -7.006492 3.460756
H 57.719077 -3.672089 2.632571
H 55.985887 -2.067268 1.555474
C 132.747358 0.183114 0.209281
C 132.013914 -0.660933 1.296543
C 132.610880 -1.296052 2.361459
C 131.586638 -1.987406 3.059643
C 130.398940 -1.756562 2.391745
N 130.665295 -0.906838 1.347324
C 128.985447 -2.372330 2.738818
C 128.956255 -3.448467 3.685682
C 128.946099 -4.351033 4.479027
C 128.935942 -5.426092 5.419093
C 129.734418 -6.544685 5.208004
C 129.690006 -7.559854 6.147602
N 128.918168 -7.529777 7.257925
C 128.154520 -6.426508 7.429119
C 128.127917 -5.358940 6.548586
C 127.857354 -1.920622 2.130852
C 126.561607 -2.508953 2.404032
C 125.654569 -1.889971 1.657342
N 127.650728 -0.930400 1.206277
C 126.321252 -0.865404 0.877663
C 125.647038 -0.058655 0.015475
C 126.416000 1.065400 -0.798392
C 125.865730 2.221689 -1.315761
C 126.893149 2.911507 -2.006726
C 128.043885 2.161952 -1.883927
N 127.755108 1.066948 -1.104148
C 129.456325 2.507972 -2.501841
C 129.487320 3.353070 -3.657219
C 129.502687 4.057450 -4.630490
C 129.526155 4.888498 -5.791804
C 128.485934 5.778039 -6.036464
C 128.556132 6.560377 -7.176220
N 129.574108 6.512555 -8.065467
C 130.567024 5.634721 -7.795106
C 130.589779 4.809675 -6.684082
C 130.583855 1.997287 -1.947108
C 131.910457 2.300878 -2.454809
C 132.801668 1.666153 -1.698720
C 132.079354 0.928611 -0.691040
N 130.752454 1.156692 -0.882150
H 133.829634 0.141935 0.177544
H 133.663331 -1.276695 2.599916
H 131.707056 -2.602700 3.938481
H 129.973309 -0.521676 0.708726
H 130.371907 -6.621053 4.333906
H 130.294598 -8.453217 6.027158
H 127.541519 -6.421583 8.324967
H 127.495474 -4.497637 6.734757
H 126.359777 -3.315842 3.085528
H 124.605320 -2.122558 1.652196
H 124.836821 2.532766 -1.216835
H 126.803771 3.848638 -2.534721
H 128.440851 0.400827 -0.758225
H 127.644312 5.857159 -5.357045
H 127.768329 7.269445 -7.411242
H 131.374198 5.609124 -8.520758
H 131.412021 4.122352 -6.516109
H 132.137035 2.936175 -3.291652
H 133.870225 1.690810 -1.813595
C 70.704573 -0.057552 0.023965
C 69.495633 -0.071007 0.015518
C 68.074104 -0.062188 0.003535
C 66.862435 -0.054749 0.014397
C 72.121177 -0.064227 0.024498
C 73.341873 -0.054749 0.014397
C 87.256124 -0.057552 0.023965
C 86.047185 -0.071007 0.015518
C 84.625656 -0.062188 0.003535
C 83.413986 -0.054749 0.014397
C 88.672729 -0.064227 0.024498
C 89.893424 -0.054749 0.014397
C 103.807676 -0.057552 0.023965
C 102.598736 -0.071007 0.015518
C 101.177207 -0.062188 0.003535
C 99.965538 -0.054749 0.014397
C 105.224280 -0.064227 0.024498
C 106.444976 -0.054749 0.014397
C 120.359227 -0.057552 0.023965
C 119.150288 -0.071007 0.015518
C 117.728759 -0.062188 0.003535
C 116.517089 -0.054749 0.014397
C 121.775832 -0.064227 0.024498
C 122.996527 -0.054749 0.014397
C 74.805411 0.047329 -0.012480
C 75.603025 0.114428 -1.379453
C 75.113488 0.521638 -2.603091
C 76.155867 0.356905 -3.551428
C 77.249745 -0.141475 -2.875853
N 76.924802 -0.217059 -1.545062
C 78.634399 -0.554516 -3.506230
C 78.622510 -1.035054 -4.855582
C 78.596096 -1.446482 -5.984261
C 78.567125 -1.951638 -7.319605
C 79.324880 -3.067465 -7.657883
C 79.262135 -3.522702 -8.963071
N 78.509355 -2.948401 -9.928853
C 77.785072 -1.866757 -9.562749
C 77.779470 -1.334745 -8.285071
C 79.771135 -0.489713 -2.767972
C 81.059697 -0.874207 -3.306533
C 81.974743 -0.711665 -2.356877
N 79.986375 -0.102187 -1.474054
C 81.315688 -0.215192 -1.165153
C 81.986128 0.047329 -0.012480
C 81.191966 0.578057 1.253763
C 81.701020 1.333383 2.290330
C 80.660267 1.507732 3.238291
C 79.545127 0.860702 2.747528
N 79.859247 0.362671 1.507460
C 78.152178 0.711291 3.474143
C 78.145714 0.783014 4.904842
C 78.137384 0.866112 6.103838
C 78.110412 0.982698 7.527122
C 77.018940 1.573070 8.155485
C 77.039335 1.670533 9.536057
N 78.055651 1.226914 10.310534
C 79.099008 0.657161 9.664487
C 79.173877 0.512616 8.289659
C 77.018142 0.505777 2.757773
C 75.727325 0.340346 3.395176
C 74.813893 0.154454 2.448411
C 75.475408 0.197796 1.159944
N 76.806218 0.403453 1.410868
H 74.114348 0.880619 -2.796724
H 76.109837 0.563709 -4.609626
H 77.574183 -0.429710 -0.793542
H 79.945395 -3.567591 -6.921868
H 79.834883 -4.390410 -9.275196
H 77.186192 -1.421840 -10.351240
H 77.178029 -0.464698 -8.046064
H 81.250216 -1.229945 -4.303246
H 83.023420 -0.920955 -2.471530
H 82.713117 1.701597 2.368312
H 80.722481 2.032652 4.179675
H 79.201353 -0.069130 0.863736
H 76.177555 1.948330 7.582452
H 76.210773 2.123960 10.071896
H 79.904048 0.306605 10.303475
H 80.036170 0.047833 7.823770
H 75.533870 0.358179 4.452537
H 73.764969 0.001915 2.626752
C 91.356962 0.047329 -0.012480
C 92.154576 0.114428 -1.379453
C 91.665040 0.521638 -2.603091
C 92.707418 0.356905 -3.551428
C 93.801297 -0.141475 -2.875853
N 93.476353 -0.217059 -1.545062
C 95.185950 -0.554516 -3.506230
C 95.174062 -1.035054 -4.855582
C 95.147648 -1.446482 -5.984261
C 95.118677 -1.951638 -7.319605
C 95.876431 -3.067465 -7.657883
C 95.813687 -3.522702 -8.963071
N 95.060906 -2.948401 -9.928853
C 94.336624 -1.866757 -9.562749
C 94.331021 -1.334745 -8.285071
C 96.322686 -0.489713 -2.767972
C 97.611248 -0.874207 -3.306533
C 98.526294 -0.711665 -2.356877
N 96.537926 -0.102187 -1.474054
C 97.867239 -0.215192 -1.165153
C 98.537680 0.047329 -0.012480
C 97.743518 0.578057 1.253763
C 98.252571 1.333383 2.290330
C 97.211818 1.507732 3.238291
C 96.096679 0.860702 2.747528
N 96.410798 0.362671 1.507460
C 94.703729 0.711291 3.474143
C 94.697265 0.783014 4.904842
C 94.688935 0.866112 6.103838
C 94.661963 0.982698 7.527122
C 93.570492 1.573070 8.155485
C 93.590887 1.670533 9.536057
N 94.607203 1.226914 10.310534
C 95.650559 0.657161 9.664487
C 95.725428 0.512616 8.289659
C 93.569693 0.505777 2.757773
C 92.278876 0.340346 3.395176
C 91.365445 0.154454 2.448411
C 92.026959 0.197796 1.159944
N 93.357769 0.403453 1.410868
H 90.665899 0.880619 -2.796724
H 92.661389 0.563709 -4.609626
H 94.125734 -0.429710 -0.793542
H 96.496946 -3.567591 -6.921868
H 96.386434 -4.390410 -9.275196
H 93.737744 -1.421840 -10.351240
H 93.729580 -0.464698 -8.046064
H 97.801768 -1.229945 -4.303246
H 99.574972 -0.920955 -2.471530
H 99.264669 1.701597 2.368312
H 97.274032 2.032652 4.179675
H 95.752904 -0.069130 0.863736
H 92.729107 1.948330 7.582452
H 92.762325 2.123960 10.071896
H 96.455599 0.306605 10.303475
H 96.587721 0.047833 7.823770
H 92.085421 0.358179 4.452537
H 90.316520 0.001915 2.626752
C 107.908514 0.047329 -0.012480
C 108.706128 0.114428 -1.379453
C 108.216591 0.521638 -2.603091
C 109.258970 0.356905 -3.551428
C 110.352848 -0.141475 -2.875853
N 110.027905 -0.217059 -1.545062
C 111.737502 -0.554516 -3.506230
C 111.725613 -1.035054 -4.855582
C 111.699199 -1.446482 -5.984261
C 111.670228 -1.951638 -7.319605
C 112.427983 -3.067465 -7.657883
C 112.365238 -3.522702 -8.963071
N 111.612458 -2.948401 -9.928853
C 110.888175 -1.866757 -9.562749
C 110.882573 -1.334745 -8.285071
C 112.874238 -0.489713 -2.767972
C 114.162800 -0.874207 -3.306533
C 115.077846 -0.711665 -2.356877
N 113.089478 -0.102187 -1.474054
C 114.418791 -0.215192 -1.165153
C 115.089231 0.047329 -0.012480
C 114.295069 0.578057 1.253763
C 114.804123 1.333383 2.290330
C 113.763370 1.507732 3.238291
C 112.648230 0.860702 2.747528
N 112.962350 0.362671 1.507460
C 111.255281 0.711291 3.474143
C 111.248817 0.783014 4.904842
C 111.240487 0.866112 6.103838
C 111.213515 0.982698 7.527122
C 110.122043 1.573070 8.155485
C 110.142438 1.670533 9.536057
N 111.158754 1.226914 10.310534
C 112.202111 0.657161 9.664487
C 112.276980 0.512616 8.289659
C 110.121245 0.505777 2.757773
C 108.830428 0.340346 3.395176
C 107.916996 0.154454 2.448411
C 108.578511 0.197796 1.159944
N 109.909321 0.403453 1.410868
H 107.217451 0.880619 -2.796724
H 109.212940 0.563709 -4.609626
H 110.677286 -0.429710 -0.793542
H 113.048498 -3.567591 -6.921868
H 112.937986 -4.390410 -9.275196
H 110.289295 -1.421840 -10.351240
H 110.281132 -0.464698 -8.046064
H 114.353319 -1.229945 -4.303246
H 116.126523 -0.920955 -2.471530
H 115.816220 1.701597 2.368312
H 113.825584 2.032652 4.179675
H 112.304456 -0.069130 0.863736
H 109.280658 1.948330 7.582452
H 109.313876 2.123960 10.071896
H 113.007151 0.306605 10.303475
H 113.139273 0.047833 7.823770
H 108.636973 0.358179 4.452537
H 106.868072 0.001915 2.626752
