 xtb: 6.5.1 (b24c23e)
          07292200303D

316350  0     0  0            999 V2000
   59.3716   -0.0119   -0.0983 C   0  0  0  0  0  0  0  0  0  0  0  0
   59.9728    0.9896   -0.8520 C   0  0  0  0  0  0  0  0  0  0  0  0
   59.3217    1.9920   -1.6224 C   0  0  0  0  0  0  0  0  0  0  0  0
   60.2868    2.7690   -2.2025 C   0  0  0  0  0  0  0  0  0  0  0  0
   61.5529    2.2631   -1.8024 C   0  0  0  0  0  0  0  0  0  0  0  0
   61.3180    1.1943   -0.9918 N   0  0  0  0  0  0  0  0  0  0  0  0
   62.8186    2.7581   -2.1639 C   0  0  0  0  0  0  0  0  0  0  0  0
   62.8364    3.8817   -3.0197 C   0  0  0  0  0  0  0  0  0  0  0  0
   62.8482    4.8475   -3.7544 C   0  0  0  0  0  0  0  0  0  0  0  0
   62.8676    5.9727   -4.6097 C   0  0  0  0  0  0  0  0  0  0  0  0
   61.6807    6.5556   -5.0694 C   0  0  0  0  0  0  0  0  0  0  0  0
   61.7542    7.6557   -5.9049 C   0  0  0  0  0  0  0  0  0  0  0  0
   62.9054    8.1947   -6.2988 N   0  0  0  0  0  0  0  0  0  0  0  0
   64.0380    7.6462   -5.8664 C   0  0  0  0  0  0  0  0  0  0  0  0
   64.0741    6.5455   -5.0290 C   0  0  0  0  0  0  0  0  0  0  0  0
   64.0498    2.2282   -1.7443 C   0  0  0  0  0  0  0  0  0  0  0  0
   65.3304    2.7767   -2.1458 C   0  0  0  0  0  0  0  0  0  0  0  0
   66.2729    2.0153   -1.5512 C   0  0  0  0  0  0  0  0  0  0  0  0
   64.2258    1.1613   -0.9277 N   0  0  0  0  0  0  0  0  0  0  0  0
   65.5621    1.0060   -0.7902 C   0  0  0  0  0  0  0  0  0  0  0  0
   66.2142    0.0218   -0.0248 C   0  0  0  0  0  0  0  0  0  0  0  0
   65.5876   -0.9857    0.7340 C   0  0  0  0  0  0  0  0  0  0  0  0
   66.2327   -1.9884    1.5037 C   0  0  0  0  0  0  0  0  0  0  0  0
   65.2636   -2.7687    2.0745 C   0  0  0  0  0  0  0  0  0  0  0  0
   64.0020   -2.2616    1.6684 C   0  0  0  0  0  0  0  0  0  0  0  0
   64.2443   -1.1867    0.8616 N   0  0  0  0  0  0  0  0  0  0  0  0
   62.7375   -2.7625    2.0242 C   0  0  0  0  0  0  0  0  0  0  0  0
   62.7188   -3.8921    2.8706 C   0  0  0  0  0  0  0  0  0  0  0  0
   62.7061   -4.8650    3.5963 C   0  0  0  0  0  0  0  0  0  0  0  0
   62.6823   -5.9987    4.4398 C   0  0  0  0  0  0  0  0  0  0  0  0
   63.8657   -6.5943    4.8920 C   0  0  0  0  0  0  0  0  0  0  0  0
   63.7855   -7.7035    5.7150 C   0  0  0  0  0  0  0  0  0  0  0  0
   62.6312   -8.2397    6.1033 N   0  0  0  0  0  0  0  0  0  0  0  0
   61.5017   -7.6791    5.6778 C   0  0  0  0  0  0  0  0  0  0  0  0
   61.4723   -6.5688    4.8533 C   0  0  0  0  0  0  0  0  0  0  0  0
   61.5055   -2.2291    1.6049 C   0  0  0  0  0  0  0  0  0  0  0  0
   60.2184   -2.7742    2.0001 C   0  0  0  0  0  0  0  0  0  0  0  0
   59.2823   -2.0046    1.4082 C   0  0  0  0  0  0  0  0  0  0  0  0
   60.0009   -0.9931    0.6528 C   0  0  0  0  0  0  0  0  0  0  0  0
   61.3423   -1.1623    0.7975 N   0  0  0  0  0  0  0  0  0  0  0  0
   58.2864   -0.0192   -0.1057 H   0  0  0  0  0  0  0  0  0  0  0  0
   58.2523    2.0954   -1.7138 H   0  0  0  0  0  0  0  0  0  0  0  0
   60.1450    3.6187   -2.8509 H   0  0  0  0  0  0  0  0  0  0  0  0
   62.0390    0.6305   -0.5542 H   0  0  0  0  0  0  0  0  0  0  0  0
   60.7215    6.1485   -4.7732 H   0  0  0  0  0  0  0  0  0  0  0  0
   60.8493    8.1280   -6.2765 H   0  0  0  0  0  0  0  0  0  0  0  0
   64.9589    8.1107   -6.2070 H   0  0  0  0  0  0  0  0  0  0  0  0
   65.0195    6.1305   -4.7009 H   0  0  0  0  0  0  0  0  0  0  0  0
   65.4611    3.6284   -2.7941 H   0  0  0  0  0  0  0  0  0  0  0  0
   67.3460    2.1052   -1.6048 H   0  0  0  0  0  0  0  0  0  0  0  0
   67.3013   -2.0923    1.6014 H   0  0  0  0  0  0  0  0  0  0  0  0
   65.4020   -3.6209    2.7202 H   0  0  0  0  0  0  0  0  0  0  0  0
   63.5259   -0.6218    0.4207 H   0  0  0  0  0  0  0  0  0  0  0  0
   64.8276   -6.1905    4.5999 H   0  0  0  0  0  0  0  0  0  0  0  0
   64.6876   -8.1857    6.0806 H   0  0  0  0  0  0  0  0  0  0  0  0
   60.5781   -8.1419    6.0136 H   0  0  0  0  0  0  0  0  0  0  0  0
   60.5297   -6.1437    4.5301 H   0  0  0  0  0  0  0  0  0  0  0  0
   60.0831   -3.6289    2.6438 H   0  0  0  0  0  0  0  0  0  0  0  0
   58.2079   -2.0871    1.4576 H   0  0  0  0  0  0  0  0  0  0  0  0
  130.4751   -0.1216    0.0286 C   0  0  0  0  0  0  0  0  0  0  0  0
  129.8687   -0.9690    0.9487 C   0  0  0  0  0  0  0  0  0  0  0  0
  130.5142   -1.8403    1.8688 C   0  0  0  0  0  0  0  0  0  0  0  0
  129.5450   -2.4866    2.5860 C   0  0  0  0  0  0  0  0  0  0  0  0
  128.2819   -2.0280    2.1244 C   0  0  0  0  0  0  0  0  0  0  0  0
  128.5226   -1.1182    1.1400 N   0  0  0  0  0  0  0  0  0  0  0  0
  127.0134   -2.4228    2.5856 C   0  0  0  0  0  0  0  0  0  0  0  0
  126.9877   -3.3812    3.6231 C   0  0  0  0  0  0  0  0  0  0  0  0
  126.9683   -4.2047    4.5142 C   0  0  0  0  0  0  0  0  0  0  0  0
  126.9334   -5.1628    5.5529 C   0  0  0  0  0  0  0  0  0  0  0  0
  128.1105   -5.6928    6.0941 C   0  0  0  0  0  0  0  0  0  0  0  0
  128.0195   -6.6283    7.1093 C   0  0  0  0  0  0  0  0  0  0  0  0
  126.8602   -7.0553    7.6035 N   0  0  0  0  0  0  0  0  0  0  0  0
  125.7366   -6.5564    7.0942 C   0  0  0  0  0  0  0  0  0  0  0  0
  125.7181   -5.6175    6.0783 C   0  0  0  0  0  0  0  0  0  0  0  0
  125.7858   -1.9437    2.1002 C   0  0  0  0  0  0  0  0  0  0  0  0
  124.5023   -2.3802    2.6140 C   0  0  0  0  0  0  0  0  0  0  0  0
  123.5644   -1.7132    1.9092 C   0  0  0  0  0  0  0  0  0  0  0  0
  125.6157   -1.0344    1.1096 N   0  0  0  0  0  0  0  0  0  0  0  0
  124.2807   -0.8740    0.9679 C   0  0  0  0  0  0  0  0  0  0  0  0
  123.6326   -0.0329    0.0441 C   0  0  0  0  0  0  0  0  0  0  0  0
  124.2638    0.8016   -0.8986 C   0  0  0  0  0  0  0  0  0  0  0  0
  123.6245    1.6520   -1.8377 C   0  0  0  0  0  0  0  0  0  0  0  0
  124.5982    2.2929   -2.5555 C   0  0  0  0  0  0  0  0  0  0  0  0
  125.8570    1.8501   -2.0725 C   0  0  0  0  0  0  0  0  0  0  0  0
  125.6083    0.9508   -1.0753 N   0  0  0  0  0  0  0  0  0  0  0  0
  127.1245    2.2572   -2.5242 C   0  0  0  0  0  0  0  0  0  0  0  0
  127.1509    3.2054   -3.5696 C   0  0  0  0  0  0  0  0  0  0  0  0
  127.1705    4.0193   -4.4698 C   0  0  0  0  0  0  0  0  0  0  0  0
  127.2034    4.9643   -5.5201 C   0  0  0  0  0  0  0  0  0  0  0  0
  126.0241    5.4551   -6.0932 C   0  0  0  0  0  0  0  0  0  0  0  0
  126.1115    6.3774   -7.1206 C   0  0  0  0  0  0  0  0  0  0  0  0
  127.2693    6.8276   -7.5976 N   0  0  0  0  0  0  0  0  0  0  0  0
  128.3948    6.3664   -7.0579 C   0  0  0  0  0  0  0  0  0  0  0  0
  128.4170    5.4434   -6.0277 C   0  0  0  0  0  0  0  0  0  0  0  0
  128.3535    1.7945   -2.0203 C   0  0  0  0  0  0  0  0  0  0  0  0
  129.6437    2.2433   -2.5141 C   0  0  0  0  0  0  0  0  0  0  0  0
  130.5753    1.5785   -1.8008 C   0  0  0  0  0  0  0  0  0  0  0  0
  129.8510    0.7261   -0.8740 C   0  0  0  0  0  0  0  0  0  0  0  0
  128.5105    0.8869   -1.0363 N   0  0  0  0  0  0  0  0  0  0  0  0
  131.5603   -0.1325    0.0225 H   0  0  0  0  0  0  0  0  0  0  0  0
  131.5829   -1.9502    1.9607 H   0  0  0  0  0  0  0  0  0  0  0  0
  129.6820   -3.2172    3.3671 H   0  0  0  0  0  0  0  0  0  0  0  0
  127.8047   -0.6219    0.6228 H   0  0  0  0  0  0  0  0  0  0  0  0
  129.0761   -5.3731    5.7212 H   0  0  0  0  0  0  0  0  0  0  0  0
  128.9166   -7.0560    7.5476 H   0  0  0  0  0  0  0  0  0  0  0  0
  124.8086   -6.9266    7.5203 H   0  0  0  0  0  0  0  0  0  0  0  0
  124.7797   -5.2378    5.6924 H   0  0  0  0  0  0  0  0  0  0  0  0
  124.3667   -3.0995    3.4057 H   0  0  0  0  0  0  0  0  0  0  0  0
  122.4909   -1.7656    1.9958 H   0  0  0  0  0  0  0  0  0  0  0  0
  122.5565    1.7542   -1.9432 H   0  0  0  0  0  0  0  0  0  0  0  0
  124.4646    3.0097   -3.3496 H   0  0  0  0  0  0  0  0  0  0  0  0
  126.3238    0.4661   -0.5436 H   0  0  0  0  0  0  0  0  0  0  0  0
  125.0598    5.1150   -5.7351 H   0  0  0  0  0  0  0  0  0  0  0  0
  125.2126    6.7743   -7.5837 H   0  0  0  0  0  0  0  0  0  0  0  0
  129.3214    6.7548   -7.4708 H   0  0  0  0  0  0  0  0  0  0  0  0
  129.3569    5.0942   -5.6176 H   0  0  0  0  0  0  0  0  0  0  0  0
  129.7838    2.9688   -3.2996 H   0  0  0  0  0  0  0  0  0  0  0  0
  131.6501    1.6365   -1.8707 H   0  0  0  0  0  0  0  0  0  0  0  0
   71.4168    0.0136    0.0420 C   0  0  0  0  0  0  0  0  0  0  0  0
   70.1891    0.0242    0.0272 C   0  0  0  0  0  0  0  0  0  0  0  0
   68.8441    0.0281    0.0107 C   0  0  0  0  0  0  0  0  0  0  0  0
   67.6208    0.0290   -0.0076 C   0  0  0  0  0  0  0  0  0  0  0  0
   72.7617   -0.0021    0.0514 C   0  0  0  0  0  0  0  0  0  0  0  0
   73.9850   -0.0206    0.0605 C   0  0  0  0  0  0  0  0  0  0  0  0
   87.4978   -0.0992    0.0314 C   0  0  0  0  0  0  0  0  0  0  0  0
   86.2691   -0.1021    0.0321 C   0  0  0  0  0  0  0  0  0  0  0  0
   84.9257   -0.1050    0.0353 C   0  0  0  0  0  0  0  0  0  0  0  0
   83.7013   -0.1085    0.0373 C   0  0  0  0  0  0  0  0  0  0  0  0
   88.8412   -0.0968    0.0304 C   0  0  0  0  0  0  0  0  0  0  0  0
   90.0655   -0.0942    0.0339 C   0  0  0  0  0  0  0  0  0  0  0  0
  103.5784   -0.0725    0.0302 C   0  0  0  0  0  0  0  0  0  0  0  0
  102.3497   -0.0683    0.0279 C   0  0  0  0  0  0  0  0  0  0  0  0
  101.0064   -0.0662    0.0275 C   0  0  0  0  0  0  0  0  0  0  0  0
   99.7820   -0.0667    0.0255 C   0  0  0  0  0  0  0  0  0  0  0  0
  104.9218   -0.0775    0.0332 C   0  0  0  0  0  0  0  0  0  0  0  0
  106.1460   -0.0823    0.0410 C   0  0  0  0  0  0  0  0  0  0  0  0
  119.6582    0.0029    0.0583 C   0  0  0  0  0  0  0  0  0  0  0  0
  118.4301    0.0032    0.0610 C   0  0  0  0  0  0  0  0  0  0  0  0
  117.0855   -0.0016    0.0635 C   0  0  0  0  0  0  0  0  0  0  0  0
  115.8618   -0.0118    0.0616 C   0  0  0  0  0  0  0  0  0  0  0  0
  121.0029   -0.0040    0.0542 C   0  0  0  0  0  0  0  0  0  0  0  0
  122.2264   -0.0168    0.0492 C   0  0  0  0  0  0  0  0  0  0  0  0
   75.3907   -0.0445    0.0590 C   0  0  0  0  0  0  0  0  0  0  0  0
   76.0129   -0.2917   -1.1805 C   0  0  0  0  0  0  0  0  0  0  0  0
   75.3678   -0.5263   -2.4212 C   0  0  0  0  0  0  0  0  0  0  0  0
   76.3380   -0.7323   -3.3659 C   0  0  0  0  0  0  0  0  0  0  0  0
   77.5984   -0.6266   -2.7245 C   0  0  0  0  0  0  0  0  0  0  0  0
   77.3564   -0.3597   -1.4079 N   0  0  0  0  0  0  0  0  0  0  0  0
   78.8631   -0.7672   -3.3255 C   0  0  0  0  0  0  0  0  0  0  0  0
   78.8703   -1.0537   -4.7089 C   0  0  0  0  0  0  0  0  0  0  0  0
   78.8756   -1.3019   -5.8968 C   0  0  0  0  0  0  0  0  0  0  0  0
   78.8898   -1.5918   -7.2802 C   0  0  0  0  0  0  0  0  0  0  0  0
   80.0947   -1.7711   -7.9701 C   0  0  0  0  0  0  0  0  0  0  0  0
   80.0563   -2.0539   -9.3236 C   0  0  0  0  0  0  0  0  0  0  0  0
   78.9225   -2.1654  -10.0115 N   0  0  0  0  0  0  0  0  0  0  0  0
   77.7732   -1.9966   -9.3630 C   0  0  0  0  0  0  0  0  0  0  0  0
   77.7021   -1.7113   -8.0110 C   0  0  0  0  0  0  0  0  0  0  0  0
   80.1006   -0.6460   -2.6751 C   0  0  0  0  0  0  0  0  0  0  0  0
   81.3729   -0.7892   -3.3551 C   0  0  0  0  0  0  0  0  0  0  0  0
   82.3271   -0.6011   -2.4193 C   0  0  0  0  0  0  0  0  0  0  0  0
   80.2930   -0.3806   -1.3596 N   0  0  0  0  0  0  0  0  0  0  0  0
   81.6313   -0.3475   -1.1731 C   0  0  0  0  0  0  0  0  0  0  0  0
   82.2974   -0.1086    0.0441 C   0  0  0  0  0  0  0  0  0  0  0  0
   81.6742    0.1287    1.2859 C   0  0  0  0  0  0  0  0  0  0  0  0
   82.3191    0.3580    2.5275 C   0  0  0  0  0  0  0  0  0  0  0  0
   81.3486    0.5334    3.4781 C   0  0  0  0  0  0  0  0  0  0  0  0
   80.0881    0.4172    2.8387 C   0  0  0  0  0  0  0  0  0  0  0  0
   80.3307    0.1737    1.5173 N   0  0  0  0  0  0  0  0  0  0  0  0
   78.8234    0.5323    3.4442 C   0  0  0  0  0  0  0  0  0  0  0  0
   78.8146    0.7761    4.8358 C   0  0  0  0  0  0  0  0  0  0  0  0
   78.8110    0.9800    6.0321 C   0  0  0  0  0  0  0  0  0  0  0  0
   78.7983    1.2122    7.4264 C   0  0  0  0  0  0  0  0  0  0  0  0
   77.5947    1.3146    8.1339 C   0  0  0  0  0  0  0  0  0  0  0  0
   77.6366    1.5396    9.4982 C   0  0  0  0  0  0  0  0  0  0  0  0
   78.7724    1.6656   10.1802 N   0  0  0  0  0  0  0  0  0  0  0  0
   79.9206    1.5703    9.5148 C   0  0  0  0  0  0  0  0  0  0  0  0
   79.9883    1.3464    8.1511 C   0  0  0  0  0  0  0  0  0  0  0  0
   77.5857    0.4266    2.7903 C   0  0  0  0  0  0  0  0  0  0  0  0
   76.3132    0.5694    3.4704 C   0  0  0  0  0  0  0  0  0  0  0  0
   75.3594    0.4119    2.5286 C   0  0  0  0  0  0  0  0  0  0  0  0
   76.0554    0.1716    1.2799 C   0  0  0  0  0  0  0  0  0  0  0  0
   77.3942    0.1874    1.4705 N   0  0  0  0  0  0  0  0  0  0  0  0
   74.2994   -0.5363   -2.5645 H   0  0  0  0  0  0  0  0  0  0  0  0
   76.1990   -0.9388   -4.4149 H   0  0  0  0  0  0  0  0  0  0  0  0
   78.0723   -0.2325   -0.7002 H   0  0  0  0  0  0  0  0  0  0  0  0
   81.0404   -1.6888   -7.4482 H   0  0  0  0  0  0  0  0  0  0  0  0
   80.9755   -2.1980   -9.8840 H   0  0  0  0  0  0  0  0  0  0  0  0
   76.8673   -2.0945   -9.9544 H   0  0  0  0  0  0  0  0  0  0  0  0
   76.7437   -1.5815   -7.5227 H   0  0  0  0  0  0  0  0  0  0  0  0
   81.4906   -1.0026   -4.4055 H   0  0  0  0  0  0  0  0  0  0  0  0
   83.3990   -0.6275   -2.5334 H   0  0  0  0  0  0  0  0  0  0  0  0
   83.3877    0.3827    2.6679 H   0  0  0  0  0  0  0  0  0  0  0  0
   81.4872    0.7270    4.5296 H   0  0  0  0  0  0  0  0  0  0  0  0
   79.6152    0.0433    0.8100 H   0  0  0  0  0  0  0  0  0  0  0  0
   76.6473    1.2178    7.6176 H   0  0  0  0  0  0  0  0  0  0  0  0
   76.7185    1.6227   10.0726 H   0  0  0  0  0  0  0  0  0  0  0  0
   80.8282    1.6781   10.1018 H   0  0  0  0  0  0  0  0  0  0  0  0
   80.9455    1.2752    7.6489 H   0  0  0  0  0  0  0  0  0  0  0  0
   76.1952    0.7651    4.5241 H   0  0  0  0  0  0  0  0  0  0  0  0
   74.2876    0.4489    2.6402 H   0  0  0  0  0  0  0  0  0  0  0  0
   91.4694   -0.0936    0.0330 C   0  0  0  0  0  0  0  0  0  0  0  0
   92.0978   -0.3430   -1.2040 C   0  0  0  0  0  0  0  0  0  0  0  0
   91.4577   -0.5979   -2.4430 C   0  0  0  0  0  0  0  0  0  0  0  0
   92.4320   -0.7900   -3.3867 C   0  0  0  0  0  0  0  0  0  0  0  0
   93.6897   -0.6556   -2.7459 C   0  0  0  0  0  0  0  0  0  0  0  0
   93.4422   -0.3865   -1.4305 N   0  0  0  0  0  0  0  0  0  0  0  0
   94.9571   -0.7739   -3.3463 C   0  0  0  0  0  0  0  0  0  0  0  0
   94.9696   -1.0640   -4.7289 C   0  0  0  0  0  0  0  0  0  0  0  0
   94.9759   -1.3182   -5.9155 C   0  0  0  0  0  0  0  0  0  0  0  0
   94.9902   -1.6163   -7.2972 C   0  0  0  0  0  0  0  0  0  0  0  0
   96.1946   -1.7770   -7.9924 C   0  0  0  0  0  0  0  0  0  0  0  0
   96.1542   -2.0701   -9.3438 C   0  0  0  0  0  0  0  0  0  0  0  0
   95.0193   -2.2085  -10.0246 N   0  0  0  0  0  0  0  0  0  0  0  0
   93.8702   -2.0570   -9.3711 C   0  0  0  0  0  0  0  0  0  0  0  0
   93.8010   -1.7635   -8.0209 C   0  0  0  0  0  0  0  0  0  0  0  0
   96.1921   -0.6310   -2.6956 C   0  0  0  0  0  0  0  0  0  0  0  0
   97.4670   -0.7571   -3.3741 C   0  0  0  0  0  0  0  0  0  0  0  0
   98.4176   -0.5597   -2.4365 C   0  0  0  0  0  0  0  0  0  0  0  0
   96.3794   -0.3634   -1.3799 N   0  0  0  0  0  0  0  0  0  0  0  0
   97.7170   -0.3154   -1.1911 C   0  0  0  0  0  0  0  0  0  0  0  0
   98.3781   -0.0706    0.0275 C   0  0  0  0  0  0  0  0  0  0  0  0
   97.7499    0.1691    1.2665 C   0  0  0  0  0  0  0  0  0  0  0  0
   98.3901    0.4130    2.5076 C   0  0  0  0  0  0  0  0  0  0  0  0
   97.4159    0.5906    3.4542 C   0  0  0  0  0  0  0  0  0  0  0  0
   96.1580    0.4599    2.8127 C   0  0  0  0  0  0  0  0  0  0  0  0
   96.4056    0.2066    1.4942 N   0  0  0  0  0  0  0  0  0  0  0  0
   94.8907    0.5699    3.4147 C   0  0  0  0  0  0  0  0  0  0  0  0
   94.8782    0.8304    4.8033 C   0  0  0  0  0  0  0  0  0  0  0  0
   94.8715    1.0484    5.9971 C   0  0  0  0  0  0  0  0  0  0  0  0
   94.8572    1.3001    7.3879 C   0  0  0  0  0  0  0  0  0  0  0  0
   93.6528    1.4149    8.0922 C   0  0  0  0  0  0  0  0  0  0  0  0
   93.6932    1.6592    9.4533 C   0  0  0  0  0  0  0  0  0  0  0  0
   94.8281    1.7925   10.1351 N   0  0  0  0  0  0  0  0  0  0  0  0
   95.9772    1.6851    9.4729 C   0  0  0  0  0  0  0  0  0  0  0  0
   96.0464    1.4419    8.1127 C   0  0  0  0  0  0  0  0  0  0  0  0
   93.6556    0.4429    2.7608 C   0  0  0  0  0  0  0  0  0  0  0  0
   92.3807    0.5752    3.4381 C   0  0  0  0  0  0  0  0  0  0  0  0
   91.4300    0.3933    2.4974 C   0  0  0  0  0  0  0  0  0  0  0  0
   92.1305    0.1493    1.2520 C   0  0  0  0  0  0  0  0  0  0  0  0
   93.4682    0.1865    1.4429 N   0  0  0  0  0  0  0  0  0  0  0  0
   90.3897   -0.6294   -2.5862 H   0  0  0  0  0  0  0  0  0  0  0  0
   92.2972   -1.0052   -4.4344 H   0  0  0  0  0  0  0  0  0  0  0  0
   94.1555   -0.2408   -0.7239 H   0  0  0  0  0  0  0  0  0  0  0  0
   97.1415   -1.6731   -7.4765 H   0  0  0  0  0  0  0  0  0  0  0  0
   97.0732   -2.2004   -9.9079 H   0  0  0  0  0  0  0  0  0  0  0  0
   92.9634   -2.1767   -9.9570 H   0  0  0  0  0  0  0  0  0  0  0  0
   92.8431   -1.6487   -7.5280 H   0  0  0  0  0  0  0  0  0  0  0  0
   97.5890   -0.9674   -4.4246 H   0  0  0  0  0  0  0  0  0  0  0  0
   99.4898   -0.5729   -2.5490 H   0  0  0  0  0  0  0  0  0  0  0  0
   99.4580    0.4465    2.6505 H   0  0  0  0  0  0  0  0  0  0  0  0
   97.5506    0.7945    4.5042 H   0  0  0  0  0  0  0  0  0  0  0  0
   95.6922    0.0651    0.7868 H   0  0  0  0  0  0  0  0  0  0  0  0
   92.7059    1.3129    7.5759 H   0  0  0  0  0  0  0  0  0  0  0  0
   92.7742    1.7524   10.0247 H   0  0  0  0  0  0  0  0  0  0  0  0
   96.8840    1.7992   10.0599 H   0  0  0  0  0  0  0  0  0  0  0  0
   97.0042    1.3615    7.6129 H   0  0  0  0  0  0  0  0  0  0  0  0
   92.2587    0.7802    4.4897 H   0  0  0  0  0  0  0  0  0  0  0  0
   90.3578    0.4158    2.6082 H   0  0  0  0  0  0  0  0  0  0  0  0
  107.5500   -0.0837    0.0452 C   0  0  0  0  0  0  0  0  0  0  0  0
  108.1828   -0.3228   -1.1913 C   0  0  0  0  0  0  0  0  0  0  0  0
  107.5475   -0.5715   -2.4342 C   0  0  0  0  0  0  0  0  0  0  0  0
  108.5254   -0.7513   -3.3764 C   0  0  0  0  0  0  0  0  0  0  0  0
  109.7808   -0.6148   -2.7311 C   0  0  0  0  0  0  0  0  0  0  0  0
  109.5280   -0.3578   -1.4142 N   0  0  0  0  0  0  0  0  0  0  0  0
  111.0501   -0.7170   -3.3295 C   0  0  0  0  0  0  0  0  0  0  0  0
  111.0679   -0.9972   -4.7141 C   0  0  0  0  0  0  0  0  0  0  0  0
  111.0773   -1.2450   -5.9021 C   0  0  0  0  0  0  0  0  0  0  0  0
  111.0908   -1.5387   -7.2847 C   0  0  0  0  0  0  0  0  0  0  0  0
  112.2941   -1.6919   -7.9833 C   0  0  0  0  0  0  0  0  0  0  0  0
  112.2514   -1.9829   -9.3352 C   0  0  0  0  0  0  0  0  0  0  0  0
  111.1154   -2.1257  -10.0132 N   0  0  0  0  0  0  0  0  0  0  0  0
  109.9673   -1.9807   -9.3564 C   0  0  0  0  0  0  0  0  0  0  0  0
  109.9003   -1.6899   -8.0055 C   0  0  0  0  0  0  0  0  0  0  0  0
  112.2826   -0.5665   -2.6748 C   0  0  0  0  0  0  0  0  0  0  0  0
  113.5600   -0.6679   -3.3527 C   0  0  0  0  0  0  0  0  0  0  0  0
  114.5065   -0.4704   -2.4110 C   0  0  0  0  0  0  0  0  0  0  0  0
  112.4638   -0.3136   -1.3559 N   0  0  0  0  0  0  0  0  0  0  0  0
  113.8010   -0.2527   -1.1634 C   0  0  0  0  0  0  0  0  0  0  0  0
  114.4565   -0.0276    0.0611 C   0  0  0  0  0  0  0  0  0  0  0  0
  113.8246    0.1790    1.3033 C   0  0  0  0  0  0  0  0  0  0  0  0
  114.4604    0.4006    2.5511 C   0  0  0  0  0  0  0  0  0  0  0  0
  113.4828    0.5603    3.4973 C   0  0  0  0  0  0  0  0  0  0  0  0
  112.2272    0.4407    2.8492 C   0  0  0  0  0  0  0  0  0  0  0  0
  112.4792    0.2096    1.5277 N   0  0  0  0  0  0  0  0  0  0  0  0
  110.9576    0.5454    3.4473 C   0  0  0  0  0  0  0  0  0  0  0  0
  110.9396    0.7944    4.8379 C   0  0  0  0  0  0  0  0  0  0  0  0
  110.9263    1.0053    6.0329 C   0  0  0  0  0  0  0  0  0  0  0  0
  110.9026    1.2540    7.4242 C   0  0  0  0  0  0  0  0  0  0  0  0
  109.6932    1.3715    8.1194 C   0  0  0  0  0  0  0  0  0  0  0  0
  109.7241    1.6125    9.4813 C   0  0  0  0  0  0  0  0  0  0  0  0
  110.8541    1.7399   10.1722 N   0  0  0  0  0  0  0  0  0  0  0  0
  112.0079    1.6297    9.5186 C   0  0  0  0  0  0  0  0  0  0  0  0
  112.0867    1.3894    8.1585 C   0  0  0  0  0  0  0  0  0  0  0  0
  109.7252    0.4270    2.7867 C   0  0  0  0  0  0  0  0  0  0  0  0
  108.4475    0.5543    3.4598 C   0  0  0  0  0  0  0  0  0  0  0  0
  107.5008    0.3819    2.5135 C   0  0  0  0  0  0  0  0  0  0  0  0
  108.2064    0.1486    1.2688 C   0  0  0  0  0  0  0  0  0  0  0  0
  109.5432    0.1831    1.4656 N   0  0  0  0  0  0  0  0  0  0  0  0
  106.4801   -0.6074   -2.5807 H   0  0  0  0  0  0  0  0  0  0  0  0
  108.3950   -0.9588   -4.4262 H   0  0  0  0  0  0  0  0  0  0  0  0
  110.2381   -0.2146   -0.7038 H   0  0  0  0  0  0  0  0  0  0  0  0
  113.2419   -1.5845   -7.4700 H   0  0  0  0  0  0  0  0  0  0  0  0
  113.1696   -2.1078   -9.9020 H   0  0  0  0  0  0  0  0  0  0  0  0
  109.0596   -2.1037   -9.9401 H   0  0  0  0  0  0  0  0  0  0  0  0
  108.9434   -1.5806   -7.5096 H   0  0  0  0  0  0  0  0  0  0  0  0
  113.6861   -0.8629   -4.4057 H   0  0  0  0  0  0  0  0  0  0  0  0
  115.5790   -0.4688   -2.5216 H   0  0  0  0  0  0  0  0  0  0  0  0
  115.5278    0.4324    2.6984 H   0  0  0  0  0  0  0  0  0  0  0  0
  113.6140    0.7454    4.5512 H   0  0  0  0  0  0  0  0  0  0  0  0
  111.7687    0.0806    0.8150 H   0  0  0  0  0  0  0  0  0  0  0  0
  108.7500    1.2742    7.5956 H   0  0  0  0  0  0  0  0  0  0  0  0
  108.8010    1.7079   10.0458 H   0  0  0  0  0  0  0  0  0  0  0  0
  112.9105    1.7389   10.1130 H   0  0  0  0  0  0  0  0  0  0  0  0
  113.0480    1.3065    7.6658 H   0  0  0  0  0  0  0  0  0  0  0  0
  108.3216    0.7500    4.5127 H   0  0  0  0  0  0  0  0  0  0  0  0
  106.4281    0.4042    2.6199 H   0  0  0  0  0  0  0  0  0  0  0  0
  1  2  4  0  0  0  0
  2  3  4  0  0  0  0
  3  4  2  0  0  0  0
  4  5  4  0  0  0  0
  2  6  4  0  0  0  0
  5  6  4  0  0  0  0
  5  7  4  0  0  0  0
  7  8  1  0  0  0  0
  8  9  3  0  0  0  0
  9 10  1  0  0  0  0
 10 11  4  0  0  0  0
 11 12  4  0  0  0  0
 12 13  4  0  0  0  0
 13 14  4  0  0  0  0
 10 15  4  0  0  0  0
 14 15  4  0  0  0  0
  7 16  4  0  0  0  0
 16 17  1  0  0  0  0
 17 18  2  0  0  0  0
 16 19  4  0  0  0  0
 18 20  1  0  0  0  0
 19 20  4  0  0  0  0
 20 21  4  0  0  0  0
 21 22  4  0  0  0  0
 22 23  4  0  0  0  0
 23 24  2  0  0  0  0
 24 25  4  0  0  0  0
 22 26  4  0  0  0  0
 25 26  4  0  0  0  0
 25 27  4  0  0  0  0
 27 28  1  0  0  0  0
 28 29  3  0  0  0  0
 29 30  1  0  0  0  0
 30 31  4  0  0  0  0
 31 32  4  0  0  0  0
 32 33  4  0  0  0  0
 33 34  4  0  0  0  0
 30 35  4  0  0  0  0
 34 35  4  0  0  0  0
 27 36  4  0  0  0  0
 36 37  1  0  0  0  0
 37 38  2  0  0  0  0
  1 39  4  0  0  0  0
 38 39  1  0  0  0  0
 36 40  4  0  0  0  0
 39 40  4  0  0  0  0
  1 41  1  0  0  0  0
  3 42  1  0  0  0  0
  4 43  1  0  0  0  0
  6 44  1  0  0  0  0
 11 45  1  0  0  0  0
 12 46  1  0  0  0  0
 14 47  1  0  0  0  0
 15 48  1  0  0  0  0
 17 49  1  0  0  0  0
 18 50  1  0  0  0  0
 23 51  1  0  0  0  0
 24 52  1  0  0  0  0
 26 53  1  0  0  0  0
 31 54  1  0  0  0  0
 32 55  1  0  0  0  0
 34 56  1  0  0  0  0
 35 57  1  0  0  0  0
 37 58  1  0  0  0  0
 38 59  1  0  0  0  0
 60 61  4  0  0  0  0
 61 62  4  0  0  0  0
 62 63  2  0  0  0  0
 63 64  4  0  0  0  0
 61 65  4  0  0  0  0
 64 65  4  0  0  0  0
 64 66  4  0  0  0  0
 66 67  1  0  0  0  0
 67 68  3  0  0  0  0
 68 69  1  0  0  0  0
 69 70  4  0  0  0  0
 70 71  4  0  0  0  0
 71 72  4  0  0  0  0
 72 73  4  0  0  0  0
 69 74  4  0  0  0  0
 73 74  4  0  0  0  0
 66 75  4  0  0  0  0
 75 76  1  0  0  0  0
 76 77  2  0  0  0  0
 75 78  4  0  0  0  0
 77 79  1  0  0  0  0
 78 79  4  0  0  0  0
 79 80  4  0  0  0  0
 80 81  4  0  0  0  0
 81 82  4  0  0  0  0
 82 83  2  0  0  0  0
 83 84  4  0  0  0  0
 81 85  4  0  0  0  0
 84 85  4  0  0  0  0
 84 86  4  0  0  0  0
 86 87  1  0  0  0  0
 87 88  3  0  0  0  0
 88 89  1  0  0  0  0
 89 90  4  0  0  0  0
 90 91  4  0  0  0  0
 91 92  4  0  0  0  0
 92 93  4  0  0  0  0
 89 94  4  0  0  0  0
 93 94  4  0  0  0  0
 86 95  4  0  0  0  0
 95 96  1  0  0  0  0
 96 97  2  0  0  0  0
 60 98  4  0  0  0  0
 97 98  1  0  0  0  0
 95 99  4  0  0  0  0
 98 99  4  0  0  0  0
 60100  1  0  0  0  0
 62101  1  0  0  0  0
 63102  1  0  0  0  0
 65103  1  0  0  0  0
 70104  1  0  0  0  0
 71105  1  0  0  0  0
 73106  1  0  0  0  0
 74107  1  0  0  0  0
 76108  1  0  0  0  0
 77109  1  0  0  0  0
 82110  1  0  0  0  0
 83111  1  0  0  0  0
 85112  1  0  0  0  0
 90113  1  0  0  0  0
 91114  1  0  0  0  0
 93115  1  0  0  0  0
 94116  1  0  0  0  0
 96117  1  0  0  0  0
 97118  1  0  0  0  0
119120  3  0  0  0  0
120121  4  0  0  0  0
 21122  4  0  0  0  0
121122  3  0  0  0  0
119123  4  0  0  0  0
123124  3  0  0  0  0
125126  3  0  0  0  0
126127  4  0  0  0  0
127128  3  0  0  0  0
125129  4  0  0  0  0
129130  3  0  0  0  0
131132  3  0  0  0  0
132133  4  0  0  0  0
133134  3  0  0  0  0
131135  4  0  0  0  0
135136  3  0  0  0  0
137138  3  0  0  0  0
138139  4  0  0  0  0
139140  3  0  0  0  0
137141  4  0  0  0  0
 80142  4  0  0  0  0
141142  3  0  0  0  0
124143  4  0  0  0  0
143144  4  0  0  0  0
144145  4  0  0  0  0
145146  2  0  0  0  0
146147  4  0  0  0  0
144148  4  0  0  0  0
147148  4  0  0  0  0
147149  4  0  0  0  0
149150  1  0  0  0  0
150151  3  0  0  0  0
151152  1  0  0  0  0
152153  4  0  0  0  0
153154  4  0  0  0  0
154155  4  0  0  0  0
155156  4  0  0  0  0
152157  4  0  0  0  0
156157  4  0  0  0  0
149158  4  0  0  0  0
158159  1  0  0  0  0
159160  2  0  0  0  0
158161  4  0  0  0  0
160162  1  0  0  0  0
161162  4  0  0  0  0
128163  4  0  0  0  0
162163  4  0  0  0  0
163164  4  0  0  0  0
164165  4  0  0  0  0
165166  2  0  0  0  0
166167  4  0  0  0  0
164168  4  0  0  0  0
167168  4  0  0  0  0
167169  4  0  0  0  0
169170  1  0  0  0  0
170171  3  0  0  0  0
171172  1  0  0  0  0
172173  4  0  0  0  0
173174  4  0  0  0  0
174175  4  0  0  0  0
175176  4  0  0  0  0
172177  4  0  0  0  0
176177  4  0  0  0  0
169178  4  0  0  0  0
178179  1  0  0  0  0
179180  2  0  0  0  0
143181  4  0  0  0  0
180181  1  0  0  0  0
178182  4  0  0  0  0
181182  4  0  0  0  0
145183  1  0  0  0  0
146184  1  0  0  0  0
148185  1  0  0  0  0
153186  1  0  0  0  0
154187  1  0  0  0  0
156188  1  0  0  0  0
157189  1  0  0  0  0
159190  1  0  0  0  0
160191  1  0  0  0  0
165192  1  0  0  0  0
166193  1  0  0  0  0
168194  1  0  0  0  0
173195  1  0  0  0  0
174196  1  0  0  0  0
176197  1  0  0  0  0
177198  1  0  0  0  0
179199  1  0  0  0  0
180200  1  0  0  0  0
130201  4  0  0  0  0
201202  4  0  0  0  0
202203  4  0  0  0  0
203204  2  0  0  0  0
204205  4  0  0  0  0
202206  4  0  0  0  0
205206  4  0  0  0  0
205207  4  0  0  0  0
207208  1  0  0  0  0
208209  3  0  0  0  0
209210  1  0  0  0  0
210211  4  0  0  0  0
211212  4  0  0  0  0
212213  4  0  0  0  0
213214  4  0  0  0  0
210215  4  0  0  0  0
214215  4  0  0  0  0
207216  4  0  0  0  0
216217  1  0  0  0  0
217218  2  0  0  0  0
216219  4  0  0  0  0
218220  1  0  0  0  0
219220  4  0  0  0  0
134221  4  0  0  0  0
220221  4  0  0  0  0
221222  4  0  0  0  0
222223  4  0  0  0  0
223224  2  0  0  0  0
224225  4  0  0  0  0
222226  4  0  0  0  0
225226  4  0  0  0  0
225227  4  0  0  0  0
227228  1  0  0  0  0
228229  3  0  0  0  0
229230  1  0  0  0  0
230231  4  0  0  0  0
231232  4  0  0  0  0
232233  4  0  0  0  0
233234  4  0  0  0  0
230235  4  0  0  0  0
234235  4  0  0  0  0
227236  4  0  0  0  0
236237  1  0  0  0  0
237238  2  0  0  0  0
201239  4  0  0  0  0
238239  1  0  0  0  0
236240  4  0  0  0  0
239240  4  0  0  0  0
203241  1  0  0  0  0
204242  1  0  0  0  0
206243  1  0  0  0  0
211244  1  0  0  0  0
212245  1  0  0  0  0
214246  1  0  0  0  0
215247  1  0  0  0  0
217248  1  0  0  0  0
218249  1  0  0  0  0
223250  1  0  0  0  0
224251  1  0  0  0  0
226252  1  0  0  0  0
231253  1  0  0  0  0
232254  1  0  0  0  0
234255  1  0  0  0  0
235256  1  0  0  0  0
237257  1  0  0  0  0
238258  1  0  0  0  0
136259  4  0  0  0  0
259260  4  0  0  0  0
260261  4  0  0  0  0
261262  2  0  0  0  0
262263  4  0  0  0  0
260264  4  0  0  0  0
263264  4  0  0  0  0
263265  4  0  0  0  0
265266  1  0  0  0  0
266267  3  0  0  0  0
267268  1  0  0  0  0
268269  4  0  0  0  0
269270  4  0  0  0  0
270271  4  0  0  0  0
271272  4  0  0  0  0
268273  4  0  0  0  0
272273  4  0  0  0  0
265274  4  0  0  0  0
274275  1  0  0  0  0
275276  2  0  0  0  0
274277  4  0  0  0  0
276278  1  0  0  0  0
277278  4  0  0  0  0
140279  4  0  0  0  0
278279  4  0  0  0  0
279280  4  0  0  0  0
280281  4  0  0  0  0
281282  2  0  0  0  0
282283  4  0  0  0  0
280284  4  0  0  0  0
283284  4  0  0  0  0
283285  4  0  0  0  0
285286  1  0  0  0  0
286287  3  0  0  0  0
287288  1  0  0  0  0
288289  4  0  0  0  0
289290  4  0  0  0  0
290291  4  0  0  0  0
291292  4  0  0  0  0
288293  4  0  0  0  0
292293  4  0  0  0  0
285294  4  0  0  0  0
294295  1  0  0  0  0
295296  2  0  0  0  0
259297  4  0  0  0  0
296297  1  0  0  0  0
294298  4  0  0  0  0
297298  4  0  0  0  0
261299  1  0  0  0  0
262300  1  0  0  0  0
264301  1  0  0  0  0
269302  1  0  0  0  0
270303  1  0  0  0  0
272304  1  0  0  0  0
273305  1  0  0  0  0
275306  1  0  0  0  0
276307  1  0  0  0  0
281308  1  0  0  0  0
282309  1  0  0  0  0
284310  1  0  0  0  0
289311  1  0  0  0  0
290312  1  0  0  0  0
292313  1  0  0  0  0
293314  1  0  0  0  0
295315  1  0  0  0  0
296316  1  0  0  0  0
M  END
