 xtb: 6.5.1 (b24c23e)
          07302210443D

120139  0     0  0            999 V2000
   16.1460    0.0798    0.0321 Zn  0  0  0  0  0  0  0  0  0  0  0  0
   12.7250    0.1048    0.0657 C   0  0  0  0  0  0  0  0  0  0  0  0
   13.3592    0.9904    0.9285 C   0  0  0  0  0  0  0  0  0  0  0  0
   12.6944    1.8987    1.8206 C   0  0  0  0  0  0  0  0  0  0  0  0
   13.6614    2.5833    2.4829 C   0  0  0  0  0  0  0  0  0  0  0  0
   14.9246    2.0994    2.0005 C   0  0  0  0  0  0  0  0  0  0  0  0
   14.7122    1.1380    1.0638 N   0  0  0  0  0  0  0  0  0  0  0  0
   16.1842    2.5560    2.4318 C   0  0  0  0  0  0  0  0  0  0  0  0
   16.1986    3.5651    3.4202 C   0  0  0  0  0  0  0  0  0  0  0  0
   16.2049    4.4302    4.2714 C   0  0  0  0  0  0  0  0  0  0  0  0
   16.2158    5.4368    5.2635 C   0  0  0  0  0  0  0  0  0  0  0  0
   17.4170    5.9860    5.7280 C   0  0  0  0  0  0  0  0  0  0  0  0
   17.3732    6.9701    6.6992 C   0  0  0  0  0  0  0  0  0  0  0  0
   16.2378    7.4270    7.2217 N   0  0  0  0  0  0  0  0  0  0  0  0
   15.0916    6.9094    6.7863 C   0  0  0  0  0  0  0  0  0  0  0  0
   15.0260    5.9229    5.8188 C   0  0  0  0  0  0  0  0  0  0  0  0
   17.4284    2.0938    1.9660 C   0  0  0  0  0  0  0  0  0  0  0  0
   18.7026    2.5736    2.4150 C   0  0  0  0  0  0  0  0  0  0  0  0
   19.6509    1.8776    1.7351 C   0  0  0  0  0  0  0  0  0  0  0  0
   17.6171    1.1223    1.0271 N   0  0  0  0  0  0  0  0  0  0  0  0
   18.9614    0.9684    0.8677 C   0  0  0  0  0  0  0  0  0  0  0  0
   19.5878    0.0535   -0.0015 C   0  0  0  0  0  0  0  0  0  0  0  0
   18.9304   -0.8510   -0.8585 C   0  0  0  0  0  0  0  0  0  0  0  0
   19.5887   -1.7712   -1.7385 C   0  0  0  0  0  0  0  0  0  0  0  0
   18.6167   -2.4538   -2.3980 C   0  0  0  0  0  0  0  0  0  0  0  0
   17.3590   -1.9544   -1.9243 C   0  0  0  0  0  0  0  0  0  0  0  0
   17.5809   -0.9844   -0.9913 N   0  0  0  0  0  0  0  0  0  0  0  0
   16.0994   -2.4012   -2.3633 C   0  0  0  0  0  0  0  0  0  0  0  0
   16.0819   -3.4176   -3.3439 C   0  0  0  0  0  0  0  0  0  0  0  0
   16.0686   -4.2913   -4.1863 C   0  0  0  0  0  0  0  0  0  0  0  0
   16.0521   -5.3091   -5.1668 C   0  0  0  0  0  0  0  0  0  0  0  0
   17.2390   -5.8752   -5.6471 C   0  0  0  0  0  0  0  0  0  0  0  0
   17.1675   -6.8693   -6.6066 C   0  0  0  0  0  0  0  0  0  0  0  0
   16.0183   -7.3206   -7.1031 N   0  0  0  0  0  0  0  0  0  0  0  0
   14.8855   -6.7873   -6.6520 C   0  0  0  0  0  0  0  0  0  0  0  0
   14.8475   -5.7899   -5.6943 C   0  0  0  0  0  0  0  0  0  0  0  0
   14.8552   -1.9245   -1.9096 C   0  0  0  0  0  0  0  0  0  0  0  0
   13.5756   -2.3906   -2.3658 C   0  0  0  0  0  0  0  0  0  0  0  0
   12.6322   -1.6902   -1.6860 C   0  0  0  0  0  0  0  0  0  0  0  0
   13.3282   -0.7903   -0.8093 C   0  0  0  0  0  0  0  0  0  0  0  0
   14.6759   -0.9580   -0.9713 N   0  0  0  0  0  0  0  0  0  0  0  0
   11.6394    0.1128    0.0772 H   0  0  0  0  0  0  0  0  0  0  0  0
   11.6242    1.9917    1.9189 H   0  0  0  0  0  0  0  0  0  0  0  0
   13.5417    3.3498    3.2324 H   0  0  0  0  0  0  0  0  0  0  0  0
   18.3645    5.6431    5.3300 H   0  0  0  0  0  0  0  0  0  0  0  0
   18.2900    7.4138    7.0769 H   0  0  0  0  0  0  0  0  0  0  0  0
   14.1840    7.3048    7.2337 H   0  0  0  0  0  0  0  0  0  0  0  0
   14.0703    5.5299    5.4931 H   0  0  0  0  0  0  0  0  0  0  0  0
   18.8452    3.3444    3.1558 H   0  0  0  0  0  0  0  0  0  0  0  0
   20.7231    1.9654    1.8100 H   0  0  0  0  0  0  0  0  0  0  0  0
   20.6578   -1.8750   -1.8345 H   0  0  0  0  0  0  0  0  0  0  0  0
   18.7331   -3.2271   -3.1407 H   0  0  0  0  0  0  0  0  0  0  0  0
   18.1972   -5.5379   -5.2707 H   0  0  0  0  0  0  0  0  0  0  0  0
   18.0729   -7.3258   -6.9964 H   0  0  0  0  0  0  0  0  0  0  0  0
   13.9659   -7.1784   -7.0782 H   0  0  0  0  0  0  0  0  0  0  0  0
   13.9020   -5.3840   -5.3551 H   0  0  0  0  0  0  0  0  0  0  0  0
   13.4295   -3.1565   -3.1111 H   0  0  0  0  0  0  0  0  0  0  0  0
   11.5590   -1.7672   -1.7627 H   0  0  0  0  0  0  0  0  0  0  0  0
   29.6368   -0.0682   -0.0518 Zn  0  0  0  0  0  0  0  0  0  0  0  0
   33.0578   -0.1089   -0.0557 C   0  0  0  0  0  0  0  0  0  0  0  0
   32.4244   -1.3044   -0.3728 C   0  0  0  0  0  0  0  0  0  0  0  0
   33.0898   -2.5358   -0.6947 C   0  0  0  0  0  0  0  0  0  0  0  0
   32.1231   -3.4562   -0.9419 C   0  0  0  0  0  0  0  0  0  0  0  0
   30.8597   -2.7944   -0.7738 C   0  0  0  0  0  0  0  0  0  0  0  0
   31.0715   -1.4969   -0.4297 N   0  0  0  0  0  0  0  0  0  0  0  0
   29.6000   -3.3991   -0.9435 C   0  0  0  0  0  0  0  0  0  0  0  0
   29.5849   -4.7653   -1.3020 C   0  0  0  0  0  0  0  0  0  0  0  0
   29.5791   -5.9398   -1.6081 C   0  0  0  0  0  0  0  0  0  0  0  0
   29.5673   -7.3078   -1.9628 C   0  0  0  0  0  0  0  0  0  0  0  0
   28.3656   -7.9905   -2.1863 C   0  0  0  0  0  0  0  0  0  0  0  0
   28.4093   -9.3293   -2.5321 C   0  0  0  0  0  0  0  0  0  0  0  0
   29.5449  -10.0103   -2.6643 N   0  0  0  0  0  0  0  0  0  0  0  0
   30.6916   -9.3688   -2.4525 C   0  0  0  0  0  0  0  0  0  0  0  0
   30.7574   -8.0319   -2.1037 C   0  0  0  0  0  0  0  0  0  0  0  0
   28.3559   -2.7620   -0.7857 C   0  0  0  0  0  0  0  0  0  0  0  0
   27.0819   -3.3943   -0.9664 C   0  0  0  0  0  0  0  0  0  0  0  0
   26.1332   -2.4537   -0.7192 C   0  0  0  0  0  0  0  0  0  0  0  0
   28.1666   -1.4573   -0.4352 N   0  0  0  0  0  0  0  0  0  0  0  0
   26.8222   -1.2419   -0.3854 C   0  0  0  0  0  0  0  0  0  0  0  0
   26.1951   -0.0265   -0.0474 C   0  0  0  0  0  0  0  0  0  0  0  0
   26.8518    1.1737    0.2885 C   0  0  0  0  0  0  0  0  0  0  0  0
   26.1929    2.4010    0.6264 C   0  0  0  0  0  0  0  0  0  0  0  0
   27.1644    3.3179    0.8739 C   0  0  0  0  0  0  0  0  0  0  0  0
   28.4224    2.6555    0.6888 C   0  0  0  0  0  0  0  0  0  0  0  0
   28.2011    1.3567    0.3352 N   0  0  0  0  0  0  0  0  0  0  0  0
   29.6820    3.2615    0.8471 C   0  0  0  0  0  0  0  0  0  0  0  0
   29.6993    4.6249    1.2159 C   0  0  0  0  0  0  0  0  0  0  0  0
   29.7121    5.7961    1.5337 C   0  0  0  0  0  0  0  0  0  0  0  0
   29.7266    7.1599    1.9046 C   0  0  0  0  0  0  0  0  0  0  0  0
   28.5380    7.8629    2.1350 C   0  0  0  0  0  0  0  0  0  0  0  0
   28.6070    9.1962    2.4973 C   0  0  0  0  0  0  0  0  0  0  0  0
   29.7553    9.8535    2.6395 N   0  0  0  0  0  0  0  0  0  0  0  0
   30.8897    9.1925    2.4216 C   0  0  0  0  0  0  0  0  0  0  0  0
   30.9302    7.8590    2.0563 C   0  0  0  0  0  0  0  0  0  0  0  0
   30.9262    2.6273    0.6713 C   0  0  0  0  0  0  0  0  0  0  0  0
   32.2055    3.2584    0.8373 C   0  0  0  0  0  0  0  0  0  0  0  0
   33.1493    2.3158    0.5854 C   0  0  0  0  0  0  0  0  0  0  0  0
   32.4538    1.1011    0.2632 C   0  0  0  0  0  0  0  0  0  0  0  0
   31.1059    1.3259    0.3238 N   0  0  0  0  0  0  0  0  0  0  0  0
   34.1434   -0.1220   -0.0567 H   0  0  0  0  0  0  0  0  0  0  0  0
   34.1601   -2.6674   -0.7244 H   0  0  0  0  0  0  0  0  0  0  0  0
   32.2434   -4.4927   -1.2150 H   0  0  0  0  0  0  0  0  0  0  0  0
   27.4178   -7.4749   -2.0895 H   0  0  0  0  0  0  0  0  0  0  0  0
   27.4920   -9.8829   -2.7117 H   0  0  0  0  0  0  0  0  0  0  0  0
   31.5994   -9.9542   -2.5689 H   0  0  0  0  0  0  0  0  0  0  0  0
   31.7134   -7.5488   -1.9409 H   0  0  0  0  0  0  0  0  0  0  0  0
   26.9398   -4.4261   -1.2464 H   0  0  0  0  0  0  0  0  0  0  0  0
   25.0610   -2.5634   -0.7563 H   0  0  0  0  0  0  0  0  0  0  0  0
   25.1237    2.5364    0.6658 H   0  0  0  0  0  0  0  0  0  0  0  0
   27.0475    4.3521    1.1565 H   0  0  0  0  0  0  0  0  0  0  0  0
   27.5805    7.3669    2.0307 H   0  0  0  0  0  0  0  0  0  0  0  0
   27.7003    9.7653    2.6824 H   0  0  0  0  0  0  0  0  0  0  0  0
   31.8085    9.7586    2.5463 H   0  0  0  0  0  0  0  0  0  0  0  0
   31.8770    7.3595    1.8891 H   0  0  0  0  0  0  0  0  0  0  0  0
   32.3512    4.2913    1.1119 H   0  0  0  0  0  0  0  0  0  0  0  0
   34.2225    2.4215    0.6124 H   0  0  0  0  0  0  0  0  0  0  0  0
   22.2162    0.0239   -0.0236 C   0  0  0  0  0  0  0  0  0  0  0  0
   20.9947    0.0402   -0.0132 C   0  0  0  0  0  0  0  0  0  0  0  0
   23.5666    0.0068   -0.0326 C   0  0  0  0  0  0  0  0  0  0  0  0
   24.7882   -0.0100   -0.0424 C   0  0  0  0  0  0  0  0  0  0  0  0
  2  3  4  0  0  0  0
  3  4  4  0  0  0  0
  4  5  2  0  0  0  0
  5  6  4  0  0  0  0
  1  7  1  0  0  0  0
  3  7  4  0  0  0  0
  6  7  4  0  0  0  0
  6  8  4  0  0  0  0
  8  9  1  0  0  0  0
  9 10  3  0  0  0  0
 10 11  1  0  0  0  0
 11 12  4  0  0  0  0
 12 13  4  0  0  0  0
 13 14  4  0  0  0  0
 14 15  4  0  0  0  0
 11 16  4  0  0  0  0
 15 16  4  0  0  0  0
  8 17  4  0  0  0  0
 17 18  4  0  0  0  0
 18 19  2  0  0  0  0
  1 20  1  0  0  0  0
 17 20  4  0  0  0  0
 19 21  4  0  0  0  0
 20 21  4  0  0  0  0
 21 22  4  0  0  0  0
 22 23  4  0  0  0  0
 23 24  4  0  0  0  0
 24 25  2  0  0  0  0
 25 26  4  0  0  0  0
  1 27  1  0  0  0  0
 23 27  4  0  0  0  0
 26 27  4  0  0  0  0
 26 28  4  0  0  0  0
 28 29  1  0  0  0  0
 29 30  3  0  0  0  0
 30 31  1  0  0  0  0
 31 32  4  0  0  0  0
 32 33  4  0  0  0  0
 33 34  4  0  0  0  0
 34 35  4  0  0  0  0
 31 36  4  0  0  0  0
 35 36  4  0  0  0  0
 28 37  4  0  0  0  0
 37 38  4  0  0  0  0
 38 39  2  0  0  0  0
  2 40  4  0  0  0  0
 39 40  4  0  0  0  0
  1 41  1  0  0  0  0
 37 41  4  0  0  0  0
 40 41  4  0  0  0  0
  2 42  1  0  0  0  0
  4 43  1  0  0  0  0
  5 44  1  0  0  0  0
 12 45  1  0  0  0  0
 13 46  1  0  0  0  0
 15 47  1  0  0  0  0
 16 48  1  0  0  0  0
 18 49  1  0  0  0  0
 19 50  1  0  0  0  0
 24 51  1  0  0  0  0
 25 52  1  0  0  0  0
 32 53  1  0  0  0  0
 33 54  1  0  0  0  0
 35 55  1  0  0  0  0
 36 56  1  0  0  0  0
 38 57  1  0  0  0  0
 39 58  1  0  0  0  0
 60 61  4  0  0  0  0
 61 62  4  0  0  0  0
 62 63  2  0  0  0  0
 63 64  4  0  0  0  0
 59 65  1  0  0  0  0
 61 65  4  0  0  0  0
 64 65  4  0  0  0  0
 64 66  4  0  0  0  0
 66 67  1  0  0  0  0
 67 68  3  0  0  0  0
 68 69  1  0  0  0  0
 69 70  4  0  0  0  0
 70 71  4  0  0  0  0
 71 72  4  0  0  0  0
 72 73  4  0  0  0  0
 69 74  4  0  0  0  0
 73 74  4  0  0  0  0
 66 75  4  0  0  0  0
 75 76  4  0  0  0  0
 76 77  2  0  0  0  0
 59 78  1  0  0  0  0
 75 78  4  0  0  0  0
 77 79  4  0  0  0  0
 78 79  4  0  0  0  0
 79 80  4  0  0  0  0
 80 81  4  0  0  0  0
 81 82  4  0  0  0  0
 82 83  2  0  0  0  0
 83 84  4  0  0  0  0
 59 85  1  0  0  0  0
 81 85  4  0  0  0  0
 84 85  4  0  0  0  0
 84 86  4  0  0  0  0
 86 87  1  0  0  0  0
 87 88  3  0  0  0  0
 88 89  1  0  0  0  0
 89 90  4  0  0  0  0
 90 91  4  0  0  0  0
 91 92  4  0  0  0  0
 92 93  4  0  0  0  0
 89 94  4  0  0  0  0
 93 94  4  0  0  0  0
 86 95  4  0  0  0  0
 95 96  4  0  0  0  0
 96 97  2  0  0  0  0
 60 98  4  0  0  0  0
 97 98  4  0  0  0  0
 59 99  1  0  0  0  0
 95 99  4  0  0  0  0
 98 99  4  0  0  0  0
 60100  1  0  0  0  0
 62101  1  0  0  0  0
 63102  1  0  0  0  0
 70103  1  0  0  0  0
 71104  1  0  0  0  0
 73105  1  0  0  0  0
 74106  1  0  0  0  0
 76107  1  0  0  0  0
 77108  1  0  0  0  0
 82109  1  0  0  0  0
 83110  1  0  0  0  0
 90111  1  0  0  0  0
 91112  1  0  0  0  0
 93113  1  0  0  0  0
 94114  1  0  0  0  0
 96115  1  0  0  0  0
 97116  1  0  0  0  0
 22118  4  0  0  0  0
117118  3  0  0  0  0
117119  4  0  0  0  0
 80120  4  0  0  0  0
119120  3  0  0  0  0
M  END
