716

C 151.044645 1.204036 -0.176708
C 151.944246 1.593389 -1.385965
C 151.855219 2.745335 -2.142078
C 152.942414 2.722172 -3.055435
C 153.620994 1.534411 -2.855834
N 153.050891 0.890139 -1.783533
C 154.913097 1.010603 -3.619201
C 154.785042 0.686656 -5.068097
C 155.087886 -0.600613 -5.534776
C 154.854631 -0.975772 -6.861679
C 154.239461 -0.094223 -7.746930
N 153.892996 -0.480859 -9.065394
C 153.020519 -1.647074 -9.091838
C 153.975991 1.209208 -7.310007
C 154.247804 1.589271 -5.987489
C 156.017475 0.737008 -2.867815
C 157.293147 0.370443 -3.449018
C 158.150450 0.131242 -2.462409
N 156.190306 0.724955 -1.507830
C 157.459194 0.311164 -1.196487
C 158.051501 0.065271 -0.000837
C 157.224840 0.139600 1.366959
C 157.758056 0.036038 2.634197
C 156.682112 0.013704 3.557350
C 155.518229 0.084066 2.825164
N 155.855593 0.228649 1.496241
C 154.045827 -0.021733 3.429406
C 153.911684 -0.486507 4.829893
C 153.675115 0.430219 5.860685
C 153.561231 -0.004518 7.184959
C 153.711621 -1.359508 7.518001
N 153.540466 -1.861631 8.822119
C 153.727020 -0.949052 9.935892
C 153.931529 -2.265287 6.471492
C 154.047098 -1.835261 5.145379
C 152.967806 0.264545 2.657317
C 151.596863 0.125528 3.121069
C 150.779060 0.464595 2.126538
C 151.598920 0.824819 0.990163
N 152.899245 0.689228 1.362348
H 149.970952 1.243164 -0.291863
H 151.125124 3.532985 -2.020819
H 153.199624 3.495655 -3.767861
H 153.482087 0.146587 -1.249073
H 155.479746 -1.338259 -4.832423
H 155.134584 -1.974877 -7.172545
H 153.466822 0.308293 -9.543119
H 152.157721 -1.522553 -8.426348
H 152.637614 -1.789190 -10.104066
H 153.557276 -2.562799 -8.814702
H 153.493596 1.920766 -7.970178
H 154.022160 2.600590 -5.664574
H 157.517852 0.333153 -4.495081
H 159.178590 -0.150706 -2.601669
H 158.805704 -0.049610 2.878655
H 156.755853 -0.097213 4.627535
H 155.192592 0.348821 0.731518
H 153.578275 1.489367 5.615693
H 153.367620 0.747557 7.948834
H 154.051032 -2.732057 8.930878
H 152.917576 -0.212688 9.983027
H 154.698055 -0.438999 9.884059
H 153.701482 -1.520035 10.872721
H 154.009867 -3.328770 6.672812
H 154.222911 -2.549423 4.343827
H 151.290878 -0.215142 4.093036
H 149.705501 0.444289 2.149865
C 301.932216 1.211517 0.116793
C 301.032614 1.661970 1.304645
C 301.121642 2.850939 2.001090
C 300.034447 2.874337 2.914441
C 299.355867 1.677949 2.775609
N 299.925970 0.979886 1.737522
C 298.063764 1.193710 3.564670
C 298.191818 0.943998 5.028188
C 297.888975 -0.317825 5.559840
C 298.122230 -0.624899 6.904132
C 298.737400 0.300603 7.743324
N 299.083865 -0.018362 9.079772
C 299.956342 -1.181716 9.165594
C 299.000870 1.580083 7.240566
C 298.729056 1.892278 5.900403
C 296.959386 0.882192 2.828198
C 295.683714 0.545712 3.427321
C 294.826411 0.256560 2.454179
N 296.786555 0.800871 1.470593
C 295.517667 0.371756 1.180734
C 294.925360 0.065271 -0.000837
C 295.752021 0.069822 -1.370643
C 295.218804 -0.098164 -2.630959
C 296.294749 -0.167498 -3.551775
C 297.458632 -0.059927 -2.824125
N 297.121267 0.152169 -1.504293
C 298.931034 -0.196371 -3.422193
C 299.065177 -0.731889 -4.797183
C 299.301746 0.131134 -5.873339
C 299.415630 -0.370503 -7.173746
C 299.265240 -1.740700 -7.437326
N 299.436394 -2.308608 -8.714171
C 299.249841 -1.453955 -9.872988
C 299.045332 -2.591990 -6.346032
C 298.929763 -2.094964 -5.043548
C 300.009055 0.128869 -2.665690
C 301.379998 -0.033593 -3.121758
C 302.197801 0.355699 -2.145792
C 301.377941 0.773347 -1.029244
N 300.077616 0.618971 -1.394038
H 303.005908 1.256461 0.229805
H 301.851737 3.631388 1.839863
H 299.777237 3.683109 3.586537
H 299.494774 0.210072 1.241637
H 297.497115 -1.090295 4.895978
H 297.842277 -1.606870 7.265494
H 299.510039 0.794103 9.516674
H 300.819140 -1.091259 8.494625
H 300.339247 -1.272080 10.183748
H 299.419585 -2.110370 8.935469
H 299.483265 2.324349 7.863629
H 298.954701 2.885833 5.526386
H 295.459009 0.561762 4.473925
H 293.798271 -0.017928 2.607621
H 294.171157 -0.196155 -2.870736
H 296.221008 -0.332791 -4.614920
H 297.784269 0.311144 -0.746685
H 299.398586 1.201388 -5.682623
H 299.609241 0.341680 -7.974943
H 298.925829 -3.183445 -8.778445
H 300.059285 -0.720949 -9.957575
H 298.278806 -0.941924 -9.847207
H 299.275379 -2.071922 -10.779512
H 298.966994 -3.664347 -6.492912
H 298.753950 -2.767364 -4.206655
H 301.685982 -0.423337 -4.075108
H 303.271360 0.334231 -2.168054
C 163.901134 0.066583 0.007596
C 162.692194 0.053128 -0.000851
C 161.270665 0.061947 -0.012835
C 160.058996 0.069386 -0.001972
C 165.317738 0.059908 0.008129
C 166.538434 0.069386 -0.001972
C 179.698938 0.066583 0.007596
C 178.489998 0.053128 -0.000851
C 177.068470 0.061947 -0.012835
C 175.856800 0.069386 -0.001972
C 181.115542 0.059908 0.008129
C 182.336238 0.069386 -0.001972
C 195.496742 0.066583 0.007596
C 194.287803 0.053128 -0.000851
C 192.866274 0.061947 -0.012835
C 191.654604 0.069386 -0.001972
C 196.913346 0.059908 0.008129
C 198.134042 0.069386 -0.001972
C 211.294546 0.066583 0.007596
C 210.085607 0.053128 -0.000851
C 208.664078 0.061947 -0.012835
C 207.452409 0.069386 -0.001972
C 212.711151 0.059908 0.008129
C 213.931847 0.069386 -0.001972
C 227.092351 0.066583 0.007596
C 225.883411 0.053128 -0.000851
C 224.461882 0.061947 -0.012835
C 223.250213 0.069386 -0.001972
C 228.508955 0.059908 0.008129
C 229.729651 0.069386 -0.001972
C 242.890155 0.066583 0.007596
C 241.681216 0.053128 -0.000851
C 240.259687 0.061947 -0.012835
C 239.048017 0.069386 -0.001972
C 244.306759 0.059908 0.008129
C 245.527455 0.069386 -0.001972
C 258.687959 0.066583 0.007596
C 257.479020 0.053128 -0.000851
C 256.057491 0.061947 -0.012835
C 254.845821 0.069386 -0.001972
C 260.104564 0.059908 0.008129
C 261.325259 0.069386 -0.001972
C 274.485763 0.066583 0.007596
C 273.276824 0.053128 -0.000851
C 271.855295 0.061947 -0.012835
C 270.643626 0.069386 -0.001972
C 275.902368 0.059908 0.008129
C 277.123064 0.069386 -0.001972
C 290.283568 0.066583 0.007596
C 289.074628 0.053128 -0.000851
C 287.653099 0.061947 -0.012835
C 286.441430 0.069386 -0.001972
C 291.700172 0.059908 0.008129
C 292.920868 0.069386 -0.001972
C 167.653020 -0.023661 0.000414
C 168.428190 0.023605 1.387040
C 167.847082 0.037973 2.639496
C 168.889172 0.075511 3.593401
C 170.083115 0.083883 2.902114
N 169.794043 0.052956 1.558409
C 171.523183 0.119574 3.564129
C 171.584758 0.187841 5.045411
C 171.650317 -0.979647 5.808448
C 171.681449 -0.907254 7.205392
C 171.614781 0.325492 7.874196
N 171.690662 0.328667 9.278480
C 171.210554 1.500999 9.985163
C 171.604331 1.489514 7.095254
C 171.573276 1.423455 5.696662
C 172.650895 0.090770 2.806359
C 173.964743 0.117836 3.415833
C 174.874707 0.074000 2.451968
N 172.845765 0.035590 1.451114
C 174.190452 0.022938 1.175110
C 174.874159 -0.023661 0.000414
C 174.099304 -0.064760 -1.386657
C 174.680131 -0.064506 -2.639687
C 173.638120 -0.103600 -3.593822
C 172.444397 -0.125039 -2.902172
N 172.733781 -0.100859 -1.558154
C 171.005058 -0.166785 -3.562851
C 170.936986 -0.235047 -5.043650
C 170.887415 0.934583 -5.805750
C 170.814456 0.869202 -7.202745
C 170.758342 -0.362743 -7.866894
N 170.727355 -0.491915 -9.267506
C 170.186121 0.611963 -10.038224
C 170.865916 -1.528399 -7.091853
C 170.938374 -1.469339 -5.696010
C 169.876769 -0.139271 -2.805147
C 168.562579 -0.169507 -3.414343
C 167.652296 -0.125960 -2.450860
C 168.336519 -0.071424 -1.174266
N 169.681215 -0.082024 -1.450134
H 166.789816 0.020205 2.854497
H 168.778749 0.092190 4.667562
H 170.481404 0.043238 0.808590
H 171.685116 -1.942200 5.303524
H 171.754120 -1.834283 7.765833
H 171.309541 -0.538040 9.648365
H 170.179443 1.743858 9.707544
H 171.226517 1.300543 11.061487
H 171.855807 2.367837 9.810716
H 171.618671 2.473783 7.548744
H 171.548255 2.334110 5.102253
H 174.181125 0.163822 4.468530
H 175.936071 0.080404 2.619355
H 175.737181 -0.037281 -2.854915
H 173.748652 -0.112545 -4.668457
H 172.046761 -0.098737 -0.808055
H 170.907349 1.896928 -5.299181
H 170.798400 1.806338 -7.746933
H 170.314973 -1.386037 -9.521323
H 170.840671 1.488433 -9.999181
H 170.114314 0.312038 -11.088895
H 169.180515 0.884112 -9.700443
H 170.886212 -2.504866 -7.565848
H 170.996655 -2.381113 -5.106264
H 168.346000 -0.217282 -4.466732
H 166.590930 -0.134237 -2.617814
C 183.450824 -0.023661 0.000414
C 184.225994 0.023605 1.387040
C 183.644887 0.037973 2.639496
C 184.686977 0.075511 3.593401
C 185.880919 0.083883 2.902114
N 185.591847 0.052956 1.558409
C 187.320987 0.119574 3.564129
C 187.382563 0.187841 5.045411
C 187.448122 -0.979647 5.808448
C 187.479253 -0.907254 7.205392
C 187.412585 0.325492 7.874196
N 187.488466 0.328667 9.278480
C 187.008358 1.500999 9.985163
C 187.402135 1.489514 7.095254
C 187.371080 1.423455 5.696662
C 188.448699 0.090770 2.806359
C 189.762547 0.117836 3.415833
C 190.672511 0.074000 2.451968
N 188.643570 0.035590 1.451114
C 189.988256 0.022938 1.175110
C 190.671963 -0.023661 0.000414
C 189.897108 -0.064760 -1.386657
C 190.477935 -0.064506 -2.639687
C 189.435924 -0.103600 -3.593822
C 188.242201 -0.125039 -2.902172
N 188.531585 -0.100859 -1.558154
C 186.802862 -0.166785 -3.562851
C 186.734790 -0.235047 -5.043650
C 186.685220 0.934583 -5.805750
C 186.612260 0.869202 -7.202745
C 186.556146 -0.362743 -7.866894
N 186.525160 -0.491915 -9.267506
C 185.983925 0.611963 -10.038224
C 186.663720 -1.528399 -7.091853
C 186.736179 -1.469339 -5.696010
C 185.674574 -0.139271 -2.805147
C 184.360383 -0.169507 -3.414343
C 183.450101 -0.125960 -2.450860
C 184.134323 -0.071424 -1.174266
N 185.479020 -0.082024 -1.450134
H 182.587621 0.020205 2.854497
H 184.576554 0.092190 4.667562
H 186.279209 0.043238 0.808590
H 187.482921 -1.942200 5.303524
H 187.551924 -1.834283 7.765833
H 187.107345 -0.538040 9.648365
H 185.977247 1.743858 9.707544
H 187.024321 1.300543 11.061487
H 187.653612 2.367837 9.810716
H 187.416475 2.473783 7.548744
H 187.346059 2.334110 5.102253
H 189.978929 0.163822 4.468530
H 191.733875 0.080404 2.619355
H 191.534985 -0.037281 -2.854915
H 189.546456 -0.112545 -4.668457
H 187.844565 -0.098737 -0.808055
H 186.705154 1.896928 -5.299181
H 186.596204 1.806338 -7.746933
H 186.112777 -1.386037 -9.521323
H 186.638475 1.488433 -9.999181
H 185.912118 0.312038 -11.088895
H 184.978319 0.884112 -9.700443
H 186.684016 -2.504866 -7.565848
H 186.794459 -2.381113 -5.106264
H 184.143804 -0.217282 -4.466732
H 182.388735 -0.134237 -2.617814
C 199.248628 -0.023661 0.000414
C 200.023798 0.023605 1.387040
C 199.442691 0.037973 2.639496
C 200.484781 0.075511 3.593401
C 201.678724 0.083883 2.902114
N 201.389651 0.052956 1.558409
C 203.118792 0.119574 3.564129
C 203.180367 0.187841 5.045411
C 203.245926 -0.979647 5.808448
C 203.277057 -0.907254 7.205392
C 203.210390 0.325492 7.874196
N 203.286270 0.328667 9.278480
C 202.806163 1.500999 9.985163
C 203.199939 1.489514 7.095254
C 203.168885 1.423455 5.696662
C 204.246503 0.090770 2.806359
C 205.560352 0.117836 3.415833
C 206.470316 0.074000 2.451968
N 204.441374 0.035590 1.451114
C 205.786060 0.022938 1.175110
C 206.469768 -0.023661 0.000414
C 205.694912 -0.064760 -1.386657
C 206.275739 -0.064506 -2.639687
C 205.233728 -0.103600 -3.593822
C 204.040005 -0.125039 -2.902172
N 204.329390 -0.100859 -1.558154
C 202.600667 -0.166785 -3.562851
C 202.532594 -0.235047 -5.043650
C 202.483024 0.934583 -5.805750
C 202.410064 0.869202 -7.202745
C 202.353950 -0.362743 -7.866894
N 202.322964 -0.491915 -9.267506
C 201.781729 0.611963 -10.038224
C 202.461524 -1.528399 -7.091853
C 202.533983 -1.469339 -5.696010
C 201.472378 -0.139271 -2.805147
C 200.158187 -0.169507 -3.414343
C 199.247905 -0.125960 -2.450860
C 199.932127 -0.071424 -1.174266
N 201.276824 -0.082024 -1.450134
H 198.385425 0.020205 2.854497
H 200.374358 0.092190 4.667562
H 202.077013 0.043238 0.808590
H 203.280725 -1.942200 5.303524
H 203.349729 -1.834283 7.765833
H 202.905149 -0.538040 9.648365
H 201.775051 1.743858 9.707544
H 202.822126 1.300543 11.061487
H 203.451416 2.367837 9.810716
H 203.214280 2.473783 7.548744
H 203.143864 2.334110 5.102253
H 205.776733 0.163822 4.468530
H 207.531680 0.080404 2.619355
H 207.332790 -0.037281 -2.854915
H 205.344260 -0.112545 -4.668457
H 203.642369 -0.098737 -0.808055
H 202.502958 1.896928 -5.299181
H 202.394009 1.806338 -7.746933
H 201.910582 -1.386037 -9.521323
H 202.436279 1.488433 -9.999181
H 201.709923 0.312038 -11.088895
H 200.776123 0.884112 -9.700443
H 202.481820 -2.504866 -7.565848
H 202.592263 -2.381113 -5.106264
H 199.941608 -0.217282 -4.466732
H 198.186539 -0.134237 -2.617814
C 215.046432 -0.023661 0.000414
C 215.821602 0.023605 1.387040
C 215.240495 0.037973 2.639496
C 216.282585 0.075511 3.593401
C 217.476528 0.083883 2.902114
N 217.187456 0.052956 1.558409
C 218.916596 0.119574 3.564129
C 218.978171 0.187841 5.045411
C 219.043730 -0.979647 5.808448
C 219.074861 -0.907254 7.205392
C 219.008194 0.325492 7.874196
N 219.084074 0.328667 9.278480
C 218.603967 1.500999 9.985163
C 218.997744 1.489514 7.095254
C 218.966689 1.423455 5.696662
C 220.044307 0.090770 2.806359
C 221.358156 0.117836 3.415833
C 222.268120 0.074000 2.451968
N 220.239178 0.035590 1.451114
C 221.583864 0.022938 1.175110
C 222.267572 -0.023661 0.000414
C 221.492716 -0.064760 -1.386657
C 222.073544 -0.064506 -2.639687
C 221.031533 -0.103600 -3.593822
C 219.837809 -0.125039 -2.902172
N 220.127194 -0.100859 -1.558154
C 218.398471 -0.166785 -3.562851
C 218.330399 -0.235047 -5.043650
C 218.280828 0.934583 -5.805750
C 218.207869 0.869202 -7.202745
C 218.151755 -0.362743 -7.866894
N 218.120768 -0.491915 -9.267506
C 217.579534 0.611963 -10.038224
C 218.259329 -1.528399 -7.091853
C 218.331787 -1.469339 -5.696010
C 217.270182 -0.139271 -2.805147
C 215.955991 -0.169507 -3.414343
C 215.045709 -0.125960 -2.450860
C 215.729932 -0.071424 -1.174266
N 217.074628 -0.082024 -1.450134
H 214.183229 0.020205 2.854497
H 216.172162 0.092190 4.667562
H 217.874817 0.043238 0.808590
H 219.078529 -1.942200 5.303524
H 219.147533 -1.834283 7.765833
H 218.702953 -0.538040 9.648365
H 217.572856 1.743858 9.707544
H 218.619930 1.300543 11.061487
H 219.249220 2.367837 9.810716
H 219.012084 2.473783 7.548744
H 218.941668 2.334110 5.102253
H 221.574537 0.163822 4.468530
H 223.329484 0.080404 2.619355
H 223.130594 -0.037281 -2.854915
H 221.142065 -0.112545 -4.668457
H 219.440174 -0.098737 -0.808055
H 218.300762 1.896928 -5.299181
H 218.191813 1.806338 -7.746933
H 217.708386 -1.386037 -9.521323
H 218.234083 1.488433 -9.999181
H 217.507727 0.312038 -11.088895
H 216.573928 0.884112 -9.700443
H 218.279625 -2.504866 -7.565848
H 218.390067 -2.381113 -5.106264
H 215.739413 -0.217282 -4.466732
H 213.984343 -0.134237 -2.617814
C 230.844237 -0.023661 0.000414
C 231.619407 0.023605 1.387040
C 231.038299 0.037973 2.639496
C 232.080390 0.075511 3.593401
C 233.274332 0.083883 2.902114
N 232.985260 0.052956 1.558409
C 234.714400 0.119574 3.564129
C 234.775975 0.187841 5.045411
C 234.841534 -0.979647 5.808448
C 234.872666 -0.907254 7.205392
C 234.805998 0.325492 7.874196
N 234.881879 0.328667 9.278480
C 234.401771 1.500999 9.985163
C 234.795548 1.489514 7.095254
C 234.764493 1.423455 5.696662
C 235.842112 0.090770 2.806359
C 237.155960 0.117836 3.415833
C 238.065924 0.074000 2.451968
N 236.036982 0.035590 1.451114
C 237.381669 0.022938 1.175110
C 238.065376 -0.023661 0.000414
C 237.290521 -0.064760 -1.386657
C 237.871348 -0.064506 -2.639687
C 236.829337 -0.103600 -3.593822
C 235.635614 -0.125039 -2.902172
N 235.924998 -0.100859 -1.558154
C 234.196275 -0.166785 -3.562851
C 234.128203 -0.235047 -5.043650
C 234.078632 0.934583 -5.805750
C 234.005673 0.869202 -7.202745
C 233.949559 -0.362743 -7.866894
N 233.918572 -0.491915 -9.267506
C 233.377338 0.611963 -10.038224
C 234.057133 -1.528399 -7.091853
C 234.129592 -1.469339 -5.696010
C 233.067986 -0.139271 -2.805147
C 231.753796 -0.169507 -3.414343
C 230.843514 -0.125960 -2.450860
C 231.527736 -0.071424 -1.174266
N 232.872432 -0.082024 -1.450134
H 229.981034 0.020205 2.854497
H 231.969967 0.092190 4.667562
H 233.672622 0.043238 0.808590
H 234.876334 -1.942200 5.303524
H 234.945337 -1.834283 7.765833
H 234.500758 -0.538040 9.648365
H 233.370660 1.743858 9.707544
H 234.417734 1.300543 11.061487
H 235.047024 2.367837 9.810716
H 234.809888 2.473783 7.548744
H 234.739472 2.334110 5.102253
H 237.372342 0.163822 4.468530
H 239.127288 0.080404 2.619355
H 238.928398 -0.037281 -2.854915
H 236.939869 -0.112545 -4.668457
H 235.237978 -0.098737 -0.808055
H 234.098567 1.896928 -5.299181
H 233.989617 1.806338 -7.746933
H 233.506190 -1.386037 -9.521323
H 234.031888 1.488433 -9.999181
H 233.305531 0.312038 -11.088895
H 232.371732 0.884112 -9.700443
H 234.077429 -2.504866 -7.565848
H 234.187872 -2.381113 -5.106264
H 231.537217 -0.217282 -4.466732
H 229.782148 -0.134237 -2.617814
C 246.642041 -0.023661 0.000414
C 247.417211 0.023605 1.387040
C 246.836104 0.037973 2.639496
C 247.878194 0.075511 3.593401
C 249.072136 0.083883 2.902114
N 248.783064 0.052956 1.558409
C 250.512205 0.119574 3.564129
C 250.573780 0.187841 5.045411
C 250.639339 -0.979647 5.808448
C 250.670470 -0.907254 7.205392
C 250.603803 0.325492 7.874196
N 250.679683 0.328667 9.278480
C 250.199575 1.500999 9.985163
C 250.593352 1.489514 7.095254
C 250.562297 1.423455 5.696662
C 251.639916 0.090770 2.806359
C 252.953764 0.117836 3.415833
C 253.863728 0.074000 2.451968
N 251.834787 0.035590 1.451114
C 253.179473 0.022938 1.175110
C 253.863180 -0.023661 0.000414
C 253.088325 -0.064760 -1.386657
C 253.669152 -0.064506 -2.639687
C 252.627141 -0.103600 -3.593822
C 251.433418 -0.125039 -2.902172
N 251.722803 -0.100859 -1.558154
C 249.994080 -0.166785 -3.562851
C 249.926007 -0.235047 -5.043650
C 249.876437 0.934583 -5.805750
C 249.803477 0.869202 -7.202745
C 249.747363 -0.362743 -7.866894
N 249.716377 -0.491915 -9.267506
C 249.175142 0.611963 -10.038224
C 249.854937 -1.528399 -7.091853
C 249.927396 -1.469339 -5.696010
C 248.865791 -0.139271 -2.805147
C 247.551600 -0.169507 -3.414343
C 246.641318 -0.125960 -2.450860
C 247.325540 -0.071424 -1.174266
N 248.670237 -0.082024 -1.450134
H 245.778838 0.020205 2.854497
H 247.767771 0.092190 4.667562
H 249.470426 0.043238 0.808590
H 250.674138 -1.942200 5.303524
H 250.743142 -1.834283 7.765833
H 250.298562 -0.538040 9.648365
H 249.168464 1.743858 9.707544
H 250.215539 1.300543 11.061487
H 250.844829 2.367837 9.810716
H 250.607693 2.473783 7.548744
H 250.537277 2.334110 5.102253
H 253.170146 0.163822 4.468530
H 254.925093 0.080404 2.619355
H 254.726203 -0.037281 -2.854915
H 252.737673 -0.112545 -4.668457
H 251.035782 -0.098737 -0.808055
H 249.896371 1.896928 -5.299181
H 249.787421 1.806338 -7.746933
H 249.303994 -1.386037 -9.521323
H 249.829692 1.488433 -9.999181
H 249.103335 0.312038 -11.088895
H 248.169536 0.884112 -9.700443
H 249.875233 -2.504866 -7.565848
H 249.985676 -2.381113 -5.106264
H 247.335021 -0.217282 -4.466732
H 245.579952 -0.134237 -2.617814
C 262.439845 -0.023661 0.000414
C 263.215015 0.023605 1.387040
C 262.633908 0.037973 2.639496
C 263.675998 0.075511 3.593401
C 264.869941 0.083883 2.902114
N 264.580869 0.052956 1.558409
C 266.310009 0.119574 3.564129
C 266.371584 0.187841 5.045411
C 266.437143 -0.979647 5.808448
C 266.468274 -0.907254 7.205392
C 266.401607 0.325492 7.874196
N 266.477487 0.328667 9.278480
C 265.997380 1.500999 9.985163
C 266.391156 1.489514 7.095254
C 266.360102 1.423455 5.696662
C 267.437720 0.090770 2.806359
C 268.751569 0.117836 3.415833
C 269.661533 0.074000 2.451968
N 267.632591 0.035590 1.451114
C 268.977277 0.022938 1.175110
C 269.660985 -0.023661 0.000414
C 268.886129 -0.064760 -1.386657
C 269.466956 -0.064506 -2.639687
C 268.424945 -0.103600 -3.593822
C 267.231222 -0.125039 -2.902172
N 267.520607 -0.100859 -1.558154
C 265.791884 -0.166785 -3.562851
C 265.723811 -0.235047 -5.043650
C 265.674241 0.934583 -5.805750
C 265.601282 0.869202 -7.202745
C 265.545167 -0.362743 -7.866894
N 265.514181 -0.491915 -9.267506
C 264.972946 0.611963 -10.038224
C 265.652741 -1.528399 -7.091853
C 265.725200 -1.469339 -5.696010
C 264.663595 -0.139271 -2.805147
C 263.349404 -0.169507 -3.414343
C 262.439122 -0.125960 -2.450860
C 263.123344 -0.071424 -1.174266
N 264.468041 -0.082024 -1.450134
H 261.576642 0.020205 2.854497
H 263.565575 0.092190 4.667562
H 265.268230 0.043238 0.808590
H 266.471942 -1.942200 5.303524
H 266.540946 -1.834283 7.765833
H 266.096366 -0.538040 9.648365
H 264.966268 1.743858 9.707544
H 266.013343 1.300543 11.061487
H 266.642633 2.367837 9.810716
H 266.405497 2.473783 7.548744
H 266.335081 2.334110 5.102253
H 268.967950 0.163822 4.468530
H 270.722897 0.080404 2.619355
H 270.524007 -0.037281 -2.854915
H 268.535477 -0.112545 -4.668457
H 266.833587 -0.098737 -0.808055
H 265.694175 1.896928 -5.299181
H 265.585226 1.806338 -7.746933
H 265.101799 -1.386037 -9.521323
H 265.627496 1.488433 -9.999181
H 264.901140 0.312038 -11.088895
H 263.967340 0.884112 -9.700443
H 265.673037 -2.504866 -7.565848
H 265.783480 -2.381113 -5.106264
H 263.132826 -0.217282 -4.466732
H 261.377756 -0.134237 -2.617814
C 278.237649 -0.023661 0.000414
C 279.012819 0.023605 1.387040
C 278.431712 0.037973 2.639496
C 279.473802 0.075511 3.593401
C 280.667745 0.083883 2.902114
N 280.378673 0.052956 1.558409
C 282.107813 0.119574 3.564129
C 282.169388 0.187841 5.045411
C 282.234947 -0.979647 5.808448
C 282.266078 -0.907254 7.205392
C 282.199411 0.325492 7.874196
N 282.275292 0.328667 9.278480
C 281.795184 1.500999 9.985163
C 282.188961 1.489514 7.095254
C 282.157906 1.423455 5.696662
C 283.235525 0.090770 2.806359
C 284.549373 0.117836 3.415833
C 285.459337 0.074000 2.451968
N 283.430395 0.035590 1.451114
C 284.775081 0.022938 1.175110
C 285.458789 -0.023661 0.000414
C 284.683934 -0.064760 -1.386657
C 285.264761 -0.064506 -2.639687
C 284.222750 -0.103600 -3.593822
C 283.029027 -0.125039 -2.902172
N 283.318411 -0.100859 -1.558154
C 281.589688 -0.166785 -3.562851
C 281.521616 -0.235047 -5.043650
C 281.472045 0.934583 -5.805750
C 281.399086 0.869202 -7.202745
C 281.342972 -0.362743 -7.866894
N 281.311985 -0.491915 -9.267506
C 280.770751 0.611963 -10.038224
C 281.450546 -1.528399 -7.091853
C 281.523004 -1.469339 -5.696010
C 280.461399 -0.139271 -2.805147
C 279.147208 -0.169507 -3.414343
C 278.236926 -0.125960 -2.450860
C 278.921149 -0.071424 -1.174266
N 280.265845 -0.082024 -1.450134
H 277.374446 0.020205 2.854497
H 279.363379 0.092190 4.667562
H 281.066034 0.043238 0.808590
H 282.269746 -1.942200 5.303524
H 282.338750 -1.834283 7.765833
H 281.894170 -0.538040 9.648365
H 280.764073 1.743858 9.707544
H 281.811147 1.300543 11.061487
H 282.440437 2.367837 9.810716
H 282.203301 2.473783 7.548744
H 282.132885 2.334110 5.102253
H 284.765754 0.163822 4.468530
H 286.520701 0.080404 2.619355
H 286.321811 -0.037281 -2.854915
H 284.333282 -0.112545 -4.668457
H 282.631391 -0.098737 -0.808055
H 281.491979 1.896928 -5.299181
H 281.383030 1.806338 -7.746933
H 280.899603 -1.386037 -9.521323
H 281.425300 1.488433 -9.999181
H 280.698944 0.312038 -11.088895
H 279.765145 0.884112 -9.700443
H 281.470842 -2.504866 -7.565848
H 281.581284 -2.381113 -5.106264
H 278.930630 -0.217282 -4.466732
H 277.175560 -0.134237 -2.617814
