318

C 61.456441 0.019350 -0.120920
C 62.191197 -1.262887 -0.618408
C 61.596113 -2.355859 -1.205212
C 62.621572 -3.306250 -1.449522
C 63.807739 -2.761842 -0.996526
N 63.541250 -1.493866 -0.544816
C 65.225540 -3.468843 -0.972098
C 65.254730 -4.939661 -1.140484
C 65.548615 -5.510756 -2.386005
C 65.564219 -6.898800 -2.537541
C 65.284170 -7.714470 -1.437898
C 65.295399 -9.184724 -1.574430
O 65.533416 -9.758239 -2.631123
C 64.989487 -7.155396 -0.190459
C 64.974845 -5.767840 -0.045977
C 66.355471 -2.751737 -0.729825
C 67.656277 -3.382243 -0.634654
C 68.557539 -2.445327 -0.364197
N 66.553044 -1.413603 -0.514298
C 67.880916 -1.166105 -0.280611
C 68.546611 -0.012008 -0.009323
C 67.768507 1.369360 0.056779
C 68.310608 2.621935 -0.154427
C 67.284045 3.574274 0.063138
C 66.140812 2.875953 0.389099
N 66.432288 1.533303 0.330304
C 64.728438 3.502107 0.745150
C 64.688276 4.908044 1.201911
C 64.985131 5.231547 2.531680
C 64.956671 6.562175 2.955547
C 64.632723 7.569435 2.042518
C 64.598549 8.983130 2.467522
O 64.837871 9.345473 3.613748
C 64.335473 7.258443 0.711674
C 64.364835 5.927304 0.295110
C 63.603674 2.751836 0.617194
C 62.279023 3.259471 0.928977
C 61.394483 2.298262 0.680337
C 62.119203 1.142962 0.211428
N 63.441698 1.459015 0.205164
H 60.376960 -0.014607 -0.034068
H 60.543630 -2.464130 -1.418161
H 62.502437 -4.287156 -1.884218
H 64.235472 -0.830187 -0.209594
H 65.768269 -4.858917 -3.229423
H 65.795733 -7.331789 -3.506572
H 65.072598 -9.756563 -0.658254
H 64.771247 -7.775065 0.673020
H 64.749610 -5.311684 0.916307
H 67.868843 -4.429682 -0.751930
H 69.608811 -2.627705 -0.236004
H 69.335056 2.832056 -0.421842
H 67.372046 4.647863 -0.005774
H 65.749078 0.785617 0.420364
H 65.234986 4.434078 3.228852
H 65.186665 6.802030 3.989635
H 64.341543 9.716752 1.684750
H 64.080406 8.028981 -0.009104
H 64.133827 5.661900 -0.735504
H 62.046929 4.241194 1.300355
H 60.329608 2.361579 0.809945
C 122.291145 0.023805 -0.119571
C 121.556390 1.366642 0.177770
C 122.151473 2.601548 0.295809
C 121.126014 3.527836 0.619726
C 119.939847 2.823583 0.694648
N 120.206336 1.518004 0.367129
C 118.522046 3.398287 1.107155
C 118.492857 4.715476 1.782932
C 118.198971 5.881557 1.063399
C 118.183367 7.120527 1.707279
C 118.463416 7.189214 3.074691
C 118.452187 8.488263 3.776658
O 118.214170 9.551613 3.215581
C 118.758099 6.032071 3.802488
C 118.772741 4.797420 3.153009
C 117.392116 2.667233 0.910950
C 116.091309 3.139048 1.339885
C 115.190047 2.209469 1.045198
N 117.194542 1.434294 0.347998
C 115.866670 1.098735 0.405145
C 115.200976 -0.012008 -0.009323
C 115.979079 -1.198032 -0.720585
C 115.436978 -2.123070 -1.591136
C 116.463541 -3.036142 -1.938387
C 117.606775 -2.635924 -1.279806
N 117.315298 -1.486168 -0.583942
C 119.019148 -3.354416 -1.330892
C 119.059310 -4.777587 -1.730737
C 118.762455 -5.784394 -0.803764
C 118.790915 -7.126657 -1.189205
C 119.114863 -7.458272 -2.507622
C 119.149037 -8.870281 -2.938195
O 118.909715 -9.807590 -2.185482
C 119.412113 -6.461277 -3.442430
C 119.382751 -5.122640 -3.050631
C 120.143912 -2.659180 -1.021172
C 121.468564 -3.254504 -1.043347
C 122.353103 -2.316814 -0.717032
C 121.628383 -1.095446 -0.466325
N 120.305888 -1.354940 -0.646855
H 123.370626 0.003880 -0.028470
H 123.203956 2.809760 0.178686
H 121.245149 4.585122 0.802161
H 119.512114 0.779844 0.277896
H 117.979317 5.807053 0.000056
H 117.951853 8.018325 1.141189
H 118.674988 8.455844 4.856162
H 118.976339 6.068680 4.864677
H 118.997976 3.884088 3.700635
H 115.878743 4.075616 1.823333
H 114.138775 2.290105 1.253028
H 114.412530 -2.149561 -1.930193
H 116.375540 -3.891187 -2.591257
H 117.998508 -0.914019 -0.094258
H 118.512600 -5.507595 0.218678
H 118.560921 -7.899847 -0.461850
H 119.406043 -9.046472 -3.996443
H 119.667180 -6.702574 -4.469575
H 119.613760 -4.330119 -3.760922
H 121.700657 -4.277347 -1.278918
H 123.417978 -2.441391 -0.644315
C 71.674566 0.000428 -0.006881
C 70.422295 -0.018753 -0.011230
C 72.988234 -0.000338 -0.004949
C 74.491368 -0.018753 -0.011230
C 84.649209 0.000428 -0.006881
C 83.396938 -0.018753 -0.011230
C 85.962877 -0.000338 -0.004949
C 87.466011 -0.018753 -0.011230
C 97.623852 0.000428 -0.006881
C 96.371581 -0.018753 -0.011230
C 98.937520 -0.000338 -0.004949
C 100.440654 -0.018753 -0.011230
C 110.598495 0.000428 -0.006881
C 109.346224 -0.018753 -0.011230
C 111.912163 -0.000338 -0.004949
C 113.415297 -0.018753 -0.011230
C 75.301850 0.009806 0.007317
C 76.086559 0.879198 -1.059578
C 75.545025 1.476034 -2.172920
C 76.584073 2.173506 -2.835326
C 77.735257 1.977955 -2.111414
N 77.433499 1.151723 -1.054907
C 79.153608 2.594458 -2.447420
C 79.191283 3.774990 -3.346450
C 79.416270 3.619709 -4.719445
C 79.458965 4.734258 -5.560796
C 79.271389 6.009474 -5.024649
C 79.314398 7.202760 -5.894528
O 79.475694 7.140795 -7.107792
C 79.039656 6.178194 -3.656972
C 79.000070 5.059684 -2.821609
C 80.284447 2.074271 -1.900588
C 81.590665 2.624101 -2.195095
C 82.502164 1.921779 -1.532609
N 80.483619 1.031481 -1.034159
C 81.824036 0.888762 -0.775097
C 82.506130 0.009806 0.007317
C 81.730030 -1.099177 0.842803
C 82.309174 -2.111359 1.586283
C 81.267979 -2.836170 2.210623
C 80.075700 -2.248129 1.833340
N 80.364856 -1.212793 0.974212
C 78.641708 -2.681736 2.341010
C 78.578837 -3.777998 3.335162
C 78.454614 -5.100301 2.888210
C 78.421802 -6.149220 3.805767
C 78.499392 -5.868895 5.174931
C 78.453001 -6.993299 6.129513
O 78.521330 -6.843198 7.343318
C 78.613680 -4.553209 5.632553
C 78.658396 -3.507750 4.708200
C 77.512885 -2.088547 1.876198
C 76.204882 -2.452952 2.379122
C 75.297651 -1.705691 1.764667
C 75.977406 -0.846933 0.817067
N 77.316706 -1.112438 0.939175
H 74.513763 1.422563 -2.477511
H 76.498335 2.755837 -3.738052
H 78.106154 0.764171 -0.403857
H 79.565013 2.621502 -5.120088
H 79.641591 4.600597 -6.622039
H 79.186118 8.176876 -5.391298
H 78.889312 7.162155 -3.226473
H 78.826740 5.171514 -1.752012
H 81.803130 3.455708 -2.841241
H 83.559094 2.108330 -1.570408
H 83.365344 -2.303235 1.690502
H 81.379958 -3.680839 2.878024
H 79.675991 -0.615016 0.521139
H 78.383866 -5.290473 1.817389
H 78.336418 -7.166080 3.436362
H 78.351810 -7.998647 5.687844
H 78.669166 -4.336674 6.696144
H 78.751494 -2.477004 5.040913
H 75.992350 -3.192281 3.129936
H 74.240371 -1.757613 1.946964
C 88.276493 0.009806 0.007317
C 89.061202 0.879198 -1.059578
C 88.519668 1.476034 -2.172920
C 89.558716 2.173506 -2.835326
C 90.709900 1.977955 -2.111414
N 90.408142 1.151723 -1.054907
C 92.128251 2.594458 -2.447420
C 92.165926 3.774990 -3.346450
C 92.390913 3.619709 -4.719445
C 92.433608 4.734258 -5.560796
C 92.246032 6.009474 -5.024649
C 92.289041 7.202760 -5.894528
O 92.450337 7.140795 -7.107792
C 92.014299 6.178194 -3.656972
C 91.974713 5.059684 -2.821609
C 93.259090 2.074271 -1.900588
C 94.565308 2.624101 -2.195095
C 95.476807 1.921779 -1.532609
N 93.458262 1.031481 -1.034159
C 94.798679 0.888762 -0.775097
C 95.480773 0.009806 0.007317
C 94.704673 -1.099177 0.842803
C 95.283817 -2.111359 1.586283
C 94.242622 -2.836170 2.210623
C 93.050343 -2.248129 1.833340
N 93.339499 -1.212793 0.974212
C 91.616351 -2.681736 2.341010
C 91.553480 -3.777998 3.335162
C 91.429257 -5.100301 2.888210
C 91.396446 -6.149220 3.805767
C 91.474035 -5.868895 5.174931
C 91.427644 -6.993299 6.129513
O 91.495973 -6.843198 7.343318
C 91.588323 -4.553209 5.632553
C 91.633039 -3.507750 4.708200
C 90.487528 -2.088547 1.876198
C 89.179525 -2.452952 2.379122
C 88.272294 -1.705691 1.764667
C 88.952050 -0.846933 0.817067
N 90.291349 -1.112438 0.939175
H 87.488406 1.422563 -2.477511
H 89.472978 2.755837 -3.738052
H 91.080797 0.764171 -0.403857
H 92.539656 2.621502 -5.120088
H 92.616234 4.600597 -6.622039
H 92.160761 8.176876 -5.391298
H 91.863955 7.162155 -3.226473
H 91.801383 5.171514 -1.752012
H 94.777773 3.455708 -2.841241
H 96.533737 2.108330 -1.570408
H 96.339987 -2.303235 1.690502
H 94.354601 -3.680839 2.878024
H 92.650634 -0.615016 0.521139
H 91.358509 -5.290473 1.817389
H 91.311061 -7.166080 3.436362
H 91.326453 -7.998647 5.687844
H 91.643809 -4.336674 6.696144
H 91.726137 -2.477004 5.040913
H 88.966993 -3.192281 3.129936
H 87.215014 -1.757613 1.946964
C 101.251136 0.009806 0.007317
C 102.035845 0.879198 -1.059578
C 101.494311 1.476034 -2.172920
C 102.533359 2.173506 -2.835326
C 103.684543 1.977955 -2.111414
N 103.382785 1.151723 -1.054907
C 105.102895 2.594458 -2.447420
C 105.140569 3.774990 -3.346450
C 105.365556 3.619709 -4.719445
C 105.408251 4.734258 -5.560796
C 105.220675 6.009474 -5.024649
C 105.263684 7.202760 -5.894528
O 105.424980 7.140795 -7.107792
C 104.988942 6.178194 -3.656972
C 104.949356 5.059684 -2.821609
C 106.233734 2.074271 -1.900588
C 107.539951 2.624101 -2.195095
C 108.451450 1.921779 -1.532609
N 106.432905 1.031481 -1.034159
C 107.773322 0.888762 -0.775097
C 108.455416 0.009806 0.007317
C 107.679316 -1.099177 0.842803
C 108.258460 -2.111359 1.586283
C 107.217265 -2.836170 2.210623
C 106.024986 -2.248129 1.833340
N 106.314142 -1.212793 0.974212
C 104.590994 -2.681736 2.341010
C 104.528123 -3.777998 3.335162
C 104.403900 -5.100301 2.888210
C 104.371089 -6.149220 3.805767
C 104.448678 -5.868895 5.174931
C 104.402287 -6.993299 6.129513
O 104.470616 -6.843198 7.343318
C 104.562966 -4.553209 5.632553
C 104.607682 -3.507750 4.708200
C 103.462171 -2.088547 1.876198
C 102.154168 -2.452952 2.379122
C 101.246937 -1.705691 1.764667
C 101.926693 -0.846933 0.817067
N 103.265992 -1.112438 0.939175
H 100.463049 1.422563 -2.477511
H 102.447622 2.755837 -3.738052
H 104.055440 0.764171 -0.403857
H 105.514299 2.621502 -5.120088
H 105.590877 4.600597 -6.622039
H 105.135404 8.176876 -5.391298
H 104.838598 7.162155 -3.226473
H 104.776026 5.171514 -1.752012
H 107.752416 3.455708 -2.841241
H 109.508381 2.108330 -1.570408
H 109.314630 -2.303235 1.690502
H 107.329244 -3.680839 2.878024
H 105.625278 -0.615016 0.521139
H 104.333152 -5.290473 1.817389
H 104.285704 -7.166080 3.436362
H 104.301096 -7.998647 5.687844
H 104.618452 -4.336674 6.696144
H 104.700780 -2.477004 5.040913
H 101.941636 -3.192281 3.129936
H 100.189657 -1.757613 1.946964
