 xtb: 6.5.1 (b24c23e)
          07292222043D

204224  0     0  0            999 V2000
   23.0003   -0.3481    0.1525 C   0  0  0  0  0  0  0  0  0  0  0  0
   23.6163   -1.0954   -0.8430 C   0  0  0  0  0  0  0  0  0  0  0  0
   22.9711   -1.8807   -1.8394 C   0  0  0  0  0  0  0  0  0  0  0  0
   23.9380   -2.4445   -2.6232 C   0  0  0  0  0  0  0  0  0  0  0  0
   25.2062   -2.0353   -2.1205 C   0  0  0  0  0  0  0  0  0  0  0  0
   24.9606   -1.2150   -1.0560 N   0  0  0  0  0  0  0  0  0  0  0  0
   26.4744   -2.3802   -2.6018 C   0  0  0  0  0  0  0  0  0  0  0  0
   26.5246   -3.2941   -3.7698 C   0  0  0  0  0  0  0  0  0  0  0  0
   27.1317   -2.8659   -4.9539 C   0  0  0  0  0  0  0  0  0  0  0  0
   27.1752   -3.7133   -6.0537 C   0  0  0  0  0  0  0  0  0  0  0  0
   27.7453   -3.3599   -7.2484 O   0  0  0  0  0  0  0  0  0  0  0  0
   26.6224   -4.9893   -5.9782 C   0  0  0  0  0  0  0  0  0  0  0  0
   26.6546   -5.8459   -7.0471 O   0  0  0  0  0  0  0  0  0  0  0  0
   26.0200   -5.4198   -4.7950 C   0  0  0  0  0  0  0  0  0  0  0  0
   25.4892   -6.6652   -4.7303 O   0  0  0  0  0  0  0  0  0  0  0  0
   25.9681   -4.5712   -3.6950 C   0  0  0  0  0  0  0  0  0  0  0  0
   27.6822   -1.9284   -2.0639 C   0  0  0  0  0  0  0  0  0  0  0  0
   28.9872   -2.3812   -2.5111 C   0  0  0  0  0  0  0  0  0  0  0  0
   29.8970   -1.7339   -1.7537 C   0  0  0  0  0  0  0  0  0  0  0  0
   27.8220   -1.0353   -1.0457 N   0  0  0  0  0  0  0  0  0  0  0  0
   29.1470   -0.8882   -0.8456 C   0  0  0  0  0  0  0  0  0  0  0  0
   29.7709   -0.0268    0.0802 C   0  0  0  0  0  0  0  0  0  0  0  0
   29.1233    0.8180    1.0015 C   0  0  0  0  0  0  0  0  0  0  0  0
   29.7536    1.7367    1.8820 C   0  0  0  0  0  0  0  0  0  0  0  0
   28.7788    2.3574    2.6127 C   0  0  0  0  0  0  0  0  0  0  0  0
   27.5224    1.8244    2.2111 C   0  0  0  0  0  0  0  0  0  0  0  0
   27.7823    0.9081    1.2258 N   0  0  0  0  0  0  0  0  0  0  0  0
   26.2565    2.1597    2.7031 C   0  0  0  0  0  0  0  0  0  0  0  0
   26.2032    3.1616    3.7955 C   0  0  0  0  0  0  0  0  0  0  0  0
   26.8634    2.9265    5.0021 C   0  0  0  0  0  0  0  0  0  0  0  0
   26.8087    3.8686    6.0227 C   0  0  0  0  0  0  0  0  0  0  0  0
   27.4411    3.6461    7.2006 O   0  0  0  0  0  0  0  0  0  0  0  0
   26.0976    5.0552    5.8368 C   0  0  0  0  0  0  0  0  0  0  0  0
   26.0644    5.9670    6.8589 O   0  0  0  0  0  0  0  0  0  0  0  0
   25.4406    5.2911    4.6317 C   0  0  0  0  0  0  0  0  0  0  0  0
   24.7669    6.4792    4.5214 O   0  0  0  0  0  0  0  0  0  0  0  0
   25.4880    4.3487    3.6123 C   0  0  0  0  0  0  0  0  0  0  0  0
   25.0520    1.6168    2.2406 C   0  0  0  0  0  0  0  0  0  0  0  0
   23.7487    1.9045    2.8191 C   0  0  0  0  0  0  0  0  0  0  0  0
   22.8490    1.1972    2.1061 C   0  0  0  0  0  0  0  0  0  0  0  0
   23.6015    0.4732    1.0972 C   0  0  0  0  0  0  0  0  0  0  0  0
   24.9254    0.7408    1.2161 N   0  0  0  0  0  0  0  0  0  0  0  0
   21.9171   -0.4119    0.1820 H   0  0  0  0  0  0  0  0  0  0  0  0
   21.9024   -1.9849   -1.9383 H   0  0  0  0  0  0  0  0  0  0  0  0
   23.7911   -3.0841   -3.4781 H   0  0  0  0  0  0  0  0  0  0  0  0
   25.6823   -0.7603   -0.5068 H   0  0  0  0  0  0  0  0  0  0  0  0
   27.5518   -1.8694   -5.0236 H   0  0  0  0  0  0  0  0  0  0  0  0
   28.1087   -2.4657   -7.2045 H   0  0  0  0  0  0  0  0  0  0  0  0
   27.1086   -5.3957   -7.7772 H   0  0  0  0  0  0  0  0  0  0  0  0
   25.6283   -7.1009   -5.5874 H   0  0  0  0  0  0  0  0  0  0  0  0
   25.5147   -4.9234   -2.7775 H   0  0  0  0  0  0  0  0  0  0  0  0
   29.1618   -3.1110   -3.2850 H   0  0  0  0  0  0  0  0  0  0  0  0
   30.9723   -1.8080   -1.7840 H   0  0  0  0  0  0  0  0  0  0  0  0
   30.8177    1.9011    1.9356 H   0  0  0  0  0  0  0  0  0  0  0  0
   28.9150    3.1224    3.3595 H   0  0  0  0  0  0  0  0  0  0  0  0
   27.0680    0.3776    0.7379 H   0  0  0  0  0  0  0  0  0  0  0  0
   27.4022    2.0021    5.1656 H   0  0  0  0  0  0  0  0  0  0  0  0
   27.2841    4.4097    7.7803 H   0  0  0  0  0  0  0  0  0  0  0  0
   25.5303    6.7232    6.5677 H   0  0  0  0  0  0  0  0  0  0  0  0
   24.3384    6.5524    3.6586 H   0  0  0  0  0  0  0  0  0  0  0  0
   24.9874    4.5464    2.6717 H   0  0  0  0  0  0  0  0  0  0  0  0
   23.5721    2.5476    3.6664 H   0  0  0  0  0  0  0  0  0  0  0  0
   21.7787    1.1448    2.2313 H   0  0  0  0  0  0  0  0  0  0  0  0
   66.8667   -0.2305    0.3290 C   0  0  0  0  0  0  0  0  0  0  0  0
   66.2539    0.5585    1.2939 C   0  0  0  0  0  0  0  0  0  0  0  0
   66.9019    1.3167    2.3092 C   0  0  0  0  0  0  0  0  0  0  0  0
   65.9382    1.9514    3.0409 C   0  0  0  0  0  0  0  0  0  0  0  0
   64.6690    1.5891    2.5059 C   0  0  0  0  0  0  0  0  0  0  0  0
   64.9112    0.7581    1.4489 N   0  0  0  0  0  0  0  0  0  0  0  0
   63.4034    1.9948    2.9448 C   0  0  0  0  0  0  0  0  0  0  0  0
   63.3589    2.8963    4.1228 C   0  0  0  0  0  0  0  0  0  0  0  0
   62.7831    4.1642    4.0008 C   0  0  0  0  0  0  0  0  0  0  0  0
   62.7455    5.0142    5.0987 C   0  0  0  0  0  0  0  0  0  0  0  0
   62.2055    6.2727    5.0523 O   0  0  0  0  0  0  0  0  0  0  0  0
   63.2730    4.6054    6.3210 C   0  0  0  0  0  0  0  0  0  0  0  0
   63.2458    5.4232    7.4200 O   0  0  0  0  0  0  0  0  0  0  0  0
   63.8443    3.3379    6.4452 C   0  0  0  0  0  0  0  0  0  0  0  0
   64.3509    2.9477    7.6403 O   0  0  0  0  0  0  0  0  0  0  0  0
   63.8902    2.4877    5.3463 C   0  0  0  0  0  0  0  0  0  0  0  0
   62.1944    1.6121    2.3584 C   0  0  0  0  0  0  0  0  0  0  0  0
   60.8895    1.9649    2.8882 C   0  0  0  0  0  0  0  0  0  0  0  0
   59.9783    1.4070    2.0644 C   0  0  0  0  0  0  0  0  0  0  0  0
   62.0528    0.8443    1.2428 N   0  0  0  0  0  0  0  0  0  0  0  0
   60.7273    0.7128    1.0350 C   0  0  0  0  0  0  0  0  0  0  0  0
   60.1025    0.0247   -0.0252 C   0  0  0  0  0  0  0  0  0  0  0  0
   60.7481   -0.6835   -1.0565 C   0  0  0  0  0  0  0  0  0  0  0  0
   60.1168   -1.3119   -2.1625 C   0  0  0  0  0  0  0  0  0  0  0  0
   61.0893   -1.8864   -2.9329 C   0  0  0  0  0  0  0  0  0  0  0  0
   62.3450   -1.6393   -2.3116 C   0  0  0  0  0  0  0  0  0  0  0  0
   62.0873   -0.8977   -1.1883 N   0  0  0  0  0  0  0  0  0  0  0  0
   63.6085   -2.0516   -2.7477 C   0  0  0  0  0  0  0  0  0  0  0  0
   63.6590   -2.8707   -3.9832 C   0  0  0  0  0  0  0  0  0  0  0  0
   62.9846   -4.0904   -4.0499 C   0  0  0  0  0  0  0  0  0  0  0  0
   63.0354   -4.8535   -5.2106 C   0  0  0  0  0  0  0  0  0  0  0  0
   62.3888   -6.0423   -5.2826 O   0  0  0  0  0  0  0  0  0  0  0  0
   63.7571   -4.3946   -6.3138 C   0  0  0  0  0  0  0  0  0  0  0  0
   63.7860   -5.1660   -7.4456 O   0  0  0  0  0  0  0  0  0  0  0  0
   64.4285   -3.1763   -6.2481 C   0  0  0  0  0  0  0  0  0  0  0  0
   65.1121   -2.7900   -7.3711 O   0  0  0  0  0  0  0  0  0  0  0  0
   64.3850   -2.4146   -5.0874 C   0  0  0  0  0  0  0  0  0  0  0  0
   64.8128   -1.7483   -2.1019 C   0  0  0  0  0  0  0  0  0  0  0  0
   66.1127   -2.2554   -2.5131 C   0  0  0  0  0  0  0  0  0  0  0  0
   67.0130   -1.7471   -1.6474 C   0  0  0  0  0  0  0  0  0  0  0  0
   66.2640   -0.9359   -0.7043 C   0  0  0  0  0  0  0  0  0  0  0  0
   64.9417   -0.9690   -1.0022 N   0  0  0  0  0  0  0  0  0  0  0  0
   67.9486   -0.2909    0.3929 H   0  0  0  0  0  0  0  0  0  0  0  0
   67.9703    1.3681    2.4457 H   0  0  0  0  0  0  0  0  0  0  0  0
   66.0880    2.6171    3.8752 H   0  0  0  0  0  0  0  0  0  0  0  0
   64.1882    0.3516    0.8647 H   0  0  0  0  0  0  0  0  0  0  0  0
   62.3830    4.4938    3.0492 H   0  0  0  0  0  0  0  0  0  0  0  0
   61.8573    6.4648    4.1717 H   0  0  0  0  0  0  0  0  0  0  0  0
   62.8144    6.2538    7.1636 H   0  0  0  0  0  0  0  0  0  0  0  0
   64.2204    3.6696    8.2772 H   0  0  0  0  0  0  0  0  0  0  0  0
   64.3195    1.5006    5.4600 H   0  0  0  0  0  0  0  0  0  0  0  0
   60.7154    2.5433    3.7811 H   0  0  0  0  0  0  0  0  0  0  0  0
   58.9025    1.4421    2.1288 H   0  0  0  0  0  0  0  0  0  0  0  0
   59.0538   -1.3107   -2.3422 H   0  0  0  0  0  0  0  0  0  0  0  0
   60.9519   -2.4276   -3.8547 H   0  0  0  0  0  0  0  0  0  0  0  0
   62.8020   -0.5596   -0.5522 H   0  0  0  0  0  0  0  0  0  0  0  0
   62.4371   -4.4660   -3.1951 H   0  0  0  0  0  0  0  0  0  0  0  0
   62.5440   -6.4216   -6.1634 H   0  0  0  0  0  0  0  0  0  0  0  0
   64.3279   -4.7067   -8.1069 H   0  0  0  0  0  0  0  0  0  0  0  0
   65.5495   -1.9399   -7.2316 H   0  0  0  0  0  0  0  0  0  0  0  0
   64.8968   -1.4601   -5.0494 H   0  0  0  0  0  0  0  0  0  0  0  0
   66.2866   -2.9227   -3.3419 H   0  0  0  0  0  0  0  0  0  0  0  0
   68.0813   -1.8946   -1.6197 H   0  0  0  0  0  0  0  0  0  0  0  0
   31.1760    0.0054    0.0869 C   0  0  0  0  0  0  0  0  0  0  0  0
   32.4007    0.0210    0.0913 C   0  0  0  0  0  0  0  0  0  0  0  0
   33.7431    0.0297    0.0908 C   0  0  0  0  0  0  0  0  0  0  0  0
   34.9739    0.0293    0.0845 C   0  0  0  0  0  0  0  0  0  0  0  0
   36.3115    0.0245    0.0750 C   0  0  0  0  0  0  0  0  0  0  0  0
   37.5422    0.0174    0.0610 C   0  0  0  0  0  0  0  0  0  0  0  0
   38.8843    0.0111    0.0433 C   0  0  0  0  0  0  0  0  0  0  0  0
   40.1091    0.0080    0.0226 C   0  0  0  0  0  0  0  0  0  0  0  0
   49.7647    0.0333   -0.1122 C   0  0  0  0  0  0  0  0  0  0  0  0
   50.9896    0.0396   -0.1223 C   0  0  0  0  0  0  0  0  0  0  0  0
   52.3318    0.0446   -0.1292 C   0  0  0  0  0  0  0  0  0  0  0  0
   53.5627    0.0512   -0.1325 C   0  0  0  0  0  0  0  0  0  0  0  0
   54.9004    0.0527   -0.1304 C   0  0  0  0  0  0  0  0  0  0  0  0
   56.1312    0.0531   -0.1209 C   0  0  0  0  0  0  0  0  0  0  0  0
   57.4735    0.0490   -0.0995 C   0  0  0  0  0  0  0  0  0  0  0  0
   58.6978    0.0438   -0.0707 C   0  0  0  0  0  0  0  0  0  0  0  0
   41.5135    0.0093    0.0004 C   0  0  0  0  0  0  0  0  0  0  0  0
   42.1407   -1.2516   -0.0158 C   0  0  0  0  0  0  0  0  0  0  0  0
   41.4921   -2.5125    0.0296 C   0  0  0  0  0  0  0  0  0  0  0  0
   42.4553   -3.4831   -0.0213 C   0  0  0  0  0  0  0  0  0  0  0  0
   43.7205   -2.8416   -0.1098 C   0  0  0  0  0  0  0  0  0  0  0  0
   43.4798   -1.4934   -0.0918 N   0  0  0  0  0  0  0  0  0  0  0  0
   44.9788   -3.4519   -0.1871 C   0  0  0  0  0  0  0  0  0  0  0  0
   44.9941   -4.9349   -0.2370 C   0  0  0  0  0  0  0  0  0  0  0  0
   45.6423   -5.6647    0.7602 C   0  0  0  0  0  0  0  0  0  0  0  0
   45.6625   -7.0564    0.7317 C   0  0  0  0  0  0  0  0  0  0  0  0
   46.2814   -7.7774    1.7021 O   0  0  0  0  0  0  0  0  0  0  0  0
   45.0332   -7.7379   -0.3153 C   0  0  0  0  0  0  0  0  0  0  0  0
   45.0401   -9.0946   -0.3743 O   0  0  0  0  0  0  0  0  0  0  0  0
   44.3901   -7.0000   -1.3126 C   0  0  0  0  0  0  0  0  0  0  0  0
   43.7981   -7.7284   -2.3120 O   0  0  0  0  0  0  0  0  0  0  0  0
   44.3594   -5.6128   -1.2797 C   0  0  0  0  0  0  0  0  0  0  0  0
   46.2016   -2.7787   -0.2192 C   0  0  0  0  0  0  0  0  0  0  0  0
   47.4862   -3.4383   -0.3698 C   0  0  0  0  0  0  0  0  0  0  0  0
   48.4211   -2.4660   -0.3432 C   0  0  0  0  0  0  0  0  0  0  0  0
   46.3763   -1.4313   -0.1279 N   0  0  0  0  0  0  0  0  0  0  0  0
   47.7059   -1.2151   -0.1873 C   0  0  0  0  0  0  0  0  0  0  0  0
   48.3602    0.0301   -0.0963 C   0  0  0  0  0  0  0  0  0  0  0  0
   47.7342    1.2869    0.0114 C   0  0  0  0  0  0  0  0  0  0  0  0
   48.3854    2.5412    0.1386 C   0  0  0  0  0  0  0  0  0  0  0  0
   47.4228    3.5117    0.1903 C   0  0  0  0  0  0  0  0  0  0  0  0
   46.1547    2.8776    0.0865 C   0  0  0  0  0  0  0  0  0  0  0  0
   46.3939    1.5324   -0.0068 N   0  0  0  0  0  0  0  0  0  0  0  0
   44.8958    3.4907    0.0908 C   0  0  0  0  0  0  0  0  0  0  0  0
   44.8813    4.9738    0.1547 C   0  0  0  0  0  0  0  0  0  0  0  0
   45.4885    5.7255   -0.8517 C   0  0  0  0  0  0  0  0  0  0  0  0
   45.4696    7.1141   -0.7928 C   0  0  0  0  0  0  0  0  0  0  0  0
   46.0495    7.8533   -1.7696 O   0  0  0  0  0  0  0  0  0  0  0  0
   44.8494    7.7563    0.2801 C   0  0  0  0  0  0  0  0  0  0  0  0
   44.8496    9.1258    0.3134 O   0  0  0  0  0  0  0  0  0  0  0  0
   44.2476    7.0057    1.2870 C   0  0  0  0  0  0  0  0  0  0  0  0
   43.6635    7.7059    2.3094 O   0  0  0  0  0  0  0  0  0  0  0  0
   44.2582    5.6178    1.2271 C   0  0  0  0  0  0  0  0  0  0  0  0
   43.6717    2.8210    0.0403 C   0  0  0  0  0  0  0  0  0  0  0  0
   42.3842    3.4892   -0.0217 C   0  0  0  0  0  0  0  0  0  0  0  0
   41.4489    2.5170   -0.0426 C   0  0  0  0  0  0  0  0  0  0  0  0
   42.1666    1.2584   -0.0053 C   0  0  0  0  0  0  0  0  0  0  0  0
   43.4976    1.4706    0.0322 N   0  0  0  0  0  0  0  0  0  0  0  0
   40.4252   -2.6506    0.0996 H   0  0  0  0  0  0  0  0  0  0  0  0
   42.3042   -4.5498    0.0105 H   0  0  0  0  0  0  0  0  0  0  0  0
   44.2015   -0.7810   -0.1221 H   0  0  0  0  0  0  0  0  0  0  0  0
   46.1221   -5.1468    1.5829 H   0  0  0  0  0  0  0  0  0  0  0  0
   46.6849   -7.1995    2.3631 H   0  0  0  0  0  0  0  0  0  0  0  0
   44.5571   -9.3664   -1.1713 H   0  0  0  0  0  0  0  0  0  0  0  0
   43.3877   -7.1474   -2.9655 H   0  0  0  0  0  0  0  0  0  0  0  0
   43.8669   -5.0639   -2.0738 H   0  0  0  0  0  0  0  0  0  0  0  0
   47.6312   -4.4992   -0.4939 H   0  0  0  0  0  0  0  0  0  0  0  0
   49.4920   -2.5590   -0.4278 H   0  0  0  0  0  0  0  0  0  0  0  0
   49.4540    2.6743    0.1885 H   0  0  0  0  0  0  0  0  0  0  0  0
   47.5757    4.5729    0.2989 H   0  0  0  0  0  0  0  0  0  0  0  0
   45.6709    0.8241   -0.0763 H   0  0  0  0  0  0  0  0  0  0  0  0
   45.9577    5.2390   -1.6971 H   0  0  0  0  0  0  0  0  0  0  0  0
   45.9292    8.7928   -1.5536 H   0  0  0  0  0  0  0  0  0  0  0  0
   44.3788    9.4055    1.1146 H   0  0  0  0  0  0  0  0  0  0  0  0
   43.2658    7.1061    2.9541 H   0  0  0  0  0  0  0  0  0  0  0  0
   43.8000    5.0400    2.0212 H   0  0  0  0  0  0  0  0  0  0  0  0
   42.2369    4.5564   -0.0600 H   0  0  0  0  0  0  0  0  0  0  0  0
   40.3762    2.6156   -0.0890 H   0  0  0  0  0  0  0  0  0  0  0  0
  1  2  4  0  0  0  0
  2  3  4  0  0  0  0
  3  4  2  0  0  0  0
  4  5  4  0  0  0  0
  2  6  4  0  0  0  0
  5  6  4  0  0  0  0
  5  7  4  0  0  0  0
  7  8  1  0  0  0  0
  8  9  4  0  0  0  0
  9 10  4  0  0  0  0
 10 11  1  0  0  0  0
 10 12  4  0  0  0  0
 12 13  1  0  0  0  0
 12 14  4  0  0  0  0
 14 15  1  0  0  0  0
  8 16  4  0  0  0  0
 14 16  4  0  0  0  0
  7 17  4  0  0  0  0
 17 18  1  0  0  0  0
 18 19  2  0  0  0  0
 17 20  4  0  0  0  0
 19 21  1  0  0  0  0
 20 21  4  0  0  0  0
 21 22  4  0  0  0  0
 22 23  4  0  0  0  0
 23 24  4  0  0  0  0
 24 25  2  0  0  0  0
 25 26  4  0  0  0  0
 23 27  4  0  0  0  0
 26 27  4  0  0  0  0
 26 28  4  0  0  0  0
 28 29  1  0  0  0  0
 29 30  4  0  0  0  0
 30 31  4  0  0  0  0
 31 32  1  0  0  0  0
 31 33  4  0  0  0  0
 33 34  1  0  0  0  0
 33 35  4  0  0  0  0
 35 36  1  0  0  0  0
 29 37  4  0  0  0  0
 35 37  4  0  0  0  0
 28 38  4  0  0  0  0
 38 39  1  0  0  0  0
 39 40  2  0  0  0  0
  1 41  4  0  0  0  0
 40 41  1  0  0  0  0
 38 42  4  0  0  0  0
 41 42  4  0  0  0  0
  1 43  1  0  0  0  0
  3 44  1  0  0  0  0
  4 45  1  0  0  0  0
  6 46  1  0  0  0  0
  9 47  1  0  0  0  0
 11 48  1  0  0  0  0
 13 49  1  0  0  0  0
 15 50  1  0  0  0  0
 16 51  1  0  0  0  0
 18 52  1  0  0  0  0
 19 53  1  0  0  0  0
 24 54  1  0  0  0  0
 25 55  1  0  0  0  0
 27 56  1  0  0  0  0
 30 57  1  0  0  0  0
 32 58  1  0  0  0  0
 34 59  1  0  0  0  0
 36 60  1  0  0  0  0
 37 61  1  0  0  0  0
 39 62  1  0  0  0  0
 40 63  1  0  0  0  0
 64 65  4  0  0  0  0
 65 66  4  0  0  0  0
 66 67  2  0  0  0  0
 67 68  4  0  0  0  0
 65 69  4  0  0  0  0
 68 69  4  0  0  0  0
 68 70  4  0  0  0  0
 70 71  1  0  0  0  0
 71 72  4  0  0  0  0
 72 73  4  0  0  0  0
 73 74  1  0  0  0  0
 73 75  4  0  0  0  0
 75 76  1  0  0  0  0
 75 77  4  0  0  0  0
 77 78  1  0  0  0  0
 71 79  4  0  0  0  0
 77 79  4  0  0  0  0
 70 80  4  0  0  0  0
 80 81  1  0  0  0  0
 81 82  2  0  0  0  0
 80 83  4  0  0  0  0
 82 84  1  0  0  0  0
 83 84  4  0  0  0  0
 84 85  4  0  0  0  0
 85 86  4  0  0  0  0
 86 87  4  0  0  0  0
 87 88  2  0  0  0  0
 88 89  4  0  0  0  0
 86 90  4  0  0  0  0
 89 90  4  0  0  0  0
 89 91  4  0  0  0  0
 91 92  1  0  0  0  0
 92 93  4  0  0  0  0
 93 94  4  0  0  0  0
 94 95  1  0  0  0  0
 94 96  4  0  0  0  0
 96 97  1  0  0  0  0
 96 98  4  0  0  0  0
 98 99  1  0  0  0  0
 92100  4  0  0  0  0
 98100  4  0  0  0  0
 91101  4  0  0  0  0
101102  1  0  0  0  0
102103  2  0  0  0  0
 64104  4  0  0  0  0
103104  1  0  0  0  0
101105  4  0  0  0  0
104105  4  0  0  0  0
 64106  1  0  0  0  0
 66107  1  0  0  0  0
 67108  1  0  0  0  0
 69109  1  0  0  0  0
 72110  1  0  0  0  0
 74111  1  0  0  0  0
 76112  1  0  0  0  0
 78113  1  0  0  0  0
 79114  1  0  0  0  0
 81115  1  0  0  0  0
 82116  1  0  0  0  0
 87117  1  0  0  0  0
 88118  1  0  0  0  0
 90119  1  0  0  0  0
 93120  1  0  0  0  0
 95121  1  0  0  0  0
 97122  1  0  0  0  0
 99123  1  0  0  0  0
100124  1  0  0  0  0
102125  1  0  0  0  0
103126  1  0  0  0  0
 22127  4  0  0  0  0
127128  3  0  0  0  0
128129  4  0  0  0  0
129130  3  0  0  0  0
130131  4  0  0  0  0
131132  3  0  0  0  0
132133  4  0  0  0  0
133134  3  0  0  0  0
135136  3  0  0  0  0
136137  4  0  0  0  0
137138  3  0  0  0  0
138139  4  0  0  0  0
139140  3  0  0  0  0
140141  4  0  0  0  0
 85142  4  0  0  0  0
141142  3  0  0  0  0
134143  4  0  0  0  0
143144  4  0  0  0  0
144145  4  0  0  0  0
145146  2  0  0  0  0
146147  4  0  0  0  0
144148  4  0  0  0  0
147148  4  0  0  0  0
147149  4  0  0  0  0
149150  1  0  0  0  0
150151  4  0  0  0  0
151152  4  0  0  0  0
152153  1  0  0  0  0
152154  4  0  0  0  0
154155  1  0  0  0  0
154156  4  0  0  0  0
156157  1  0  0  0  0
150158  4  0  0  0  0
156158  4  0  0  0  0
149159  4  0  0  0  0
159160  1  0  0  0  0
160161  2  0  0  0  0
159162  4  0  0  0  0
161163  1  0  0  0  0
162163  4  0  0  0  0
135164  4  0  0  0  0
163164  4  0  0  0  0
164165  4  0  0  0  0
165166  4  0  0  0  0
166167  2  0  0  0  0
167168  4  0  0  0  0
165169  4  0  0  0  0
168169  4  0  0  0  0
168170  4  0  0  0  0
170171  1  0  0  0  0
171172  4  0  0  0  0
172173  4  0  0  0  0
173174  1  0  0  0  0
173175  4  0  0  0  0
175176  1  0  0  0  0
175177  4  0  0  0  0
177178  1  0  0  0  0
171179  4  0  0  0  0
177179  4  0  0  0  0
170180  4  0  0  0  0
180181  1  0  0  0  0
181182  2  0  0  0  0
143183  4  0  0  0  0
182183  1  0  0  0  0
180184  4  0  0  0  0
183184  4  0  0  0  0
145185  1  0  0  0  0
146186  1  0  0  0  0
148187  1  0  0  0  0
151188  1  0  0  0  0
153189  1  0  0  0  0
155190  1  0  0  0  0
157191  1  0  0  0  0
158192  1  0  0  0  0
160193  1  0  0  0  0
161194  1  0  0  0  0
166195  1  0  0  0  0
167196  1  0  0  0  0
169197  1  0  0  0  0
172198  1  0  0  0  0
174199  1  0  0  0  0
176200  1  0  0  0  0
178201  1  0  0  0  0
179202  1  0  0  0  0
181203  1  0  0  0  0
182204  1  0  0  0  0
M  END
