568

C 81.129606 -0.028635 -0.025102
C 81.854794 -1.407406 0.018081
C 81.237150 -2.633302 0.111709
C 82.259074 -3.616205 0.082853
C 83.467455 -2.956411 -0.027640
N 83.210410 -1.608870 -0.035365
C 84.901177 -3.626494 -0.149366
C 84.953256 -5.112378 -0.296853
C 84.882615 -5.704634 -1.579010
C 84.772446 -4.858714 -2.820799
C 84.920984 -7.103836 -1.698319
C 85.035514 -7.922878 -0.569984
C 85.039664 -9.414300 -0.712392
C 85.089057 -7.332107 0.696896
C 85.054551 -5.936101 0.848572
C 85.124193 -5.339419 2.230166
C 86.027440 -2.861911 -0.146361
C 87.340349 -3.451342 -0.307118
C 88.241828 -2.477375 -0.291365
N 86.217016 -1.509495 -0.020857
C 87.554123 -1.214294 -0.102901
C 88.225800 -0.033234 -0.036168
C 87.453794 1.334707 0.213251
C 88.024200 2.525011 0.622503
C 86.996742 3.497002 0.680819
C 85.822105 2.873305 0.318998
N 86.103047 1.549523 0.068905
C 84.394682 3.565000 0.214301
C 84.337233 5.056138 0.208388
C 84.472407 5.765998 -1.006767
C 84.668591 5.039862 -2.312021
C 84.412935 7.169631 -0.999432
C 84.231495 7.879226 0.192282
C 84.127655 9.373900 0.180758
C 84.087538 7.171175 1.390218
C 84.148121 5.768005 1.415992
C 83.982226 5.045575 2.727375
C 83.275292 2.799779 0.122285
C 81.945959 3.375606 0.018012
C 81.064155 2.382990 -0.040670
C 81.794811 1.140679 0.015912
N 83.118633 1.441391 0.105021
H 80.048547 -0.027804 -0.099890
H 80.173845 -2.801461 0.181516
H 82.128295 -4.686847 0.123705
H 83.915872 -0.875786 -0.070315
H 83.871078 -4.239215 -2.789323
H 84.704164 -5.480437 -3.720279
H 85.655700 -4.222871 -2.933464
H 84.862452 -7.554223 -2.686054
H 84.015055 -9.796930 -0.678719
H 85.498327 -9.715596 -1.659946
H 85.618606 -9.882808 0.090435
H 85.160371 -7.961034 1.580710
H 84.222983 -4.756993 2.444896
H 85.194871 -6.119289 2.996309
H 86.009057 -4.704006 2.333609
H 87.556835 -4.497799 -0.428229
H 89.300858 -2.627711 -0.393060
H 89.067445 2.687179 0.846469
H 87.102002 4.536770 0.952945
H 85.408439 0.840289 -0.153415
H 84.752434 5.742426 -3.148467
H 85.590932 4.451229 -2.292818
H 83.815739 4.386948 -2.522366
H 84.505780 7.709608 -1.938346
H 84.570880 9.801015 1.085860
H 83.077435 9.675573 0.125295
H 84.661101 9.799994 -0.674874
H 83.923652 7.713187 2.318157
H 83.964602 5.749098 3.567200
H 83.039005 4.491375 2.744349
H 84.816827 4.360928 2.905117
H 81.712401 4.424974 -0.005107
H 79.997021 2.482494 -0.119336
C 199.597436 -0.037265 -0.024883
C 198.872248 1.341919 -0.051836
C 199.489891 2.570989 -0.020640
C 198.467968 3.551155 -0.099418
C 197.259586 2.886598 -0.176232
N 197.516631 1.540406 -0.115453
C 195.825865 3.549628 -0.331860
C 195.773785 5.026094 -0.554681
C 195.844427 5.552415 -1.865284
C 195.954596 4.644470 -3.062471
C 195.806057 6.943744 -2.055558
C 195.691528 7.819079 -0.970312
C 195.687377 9.301335 -1.188342
C 195.637985 7.293464 0.324959
C 195.672490 5.906973 0.547395
C 195.602848 5.381286 1.957531
C 194.699602 2.786186 -0.289996
C 193.386692 3.366684 -0.480505
C 192.485213 2.394776 -0.415267
N 194.510025 1.441897 -0.095913
C 193.172918 1.142908 -0.162846
C 192.501241 -0.033234 -0.036168
C 193.273247 -1.386729 0.282459
C 192.702841 -2.554694 0.751683
C 193.730300 -3.522464 0.859328
C 194.904936 -2.917963 0.466274
N 194.623995 -1.608605 0.149218
C 196.332359 -3.614086 0.396870
C 196.389808 -5.103598 0.466756
C 196.254634 -5.874305 -0.710746
C 196.058451 -5.215451 -2.051222
C 196.314106 -7.275750 -0.632077
C 196.495546 -7.923855 0.594165
C 196.599386 -9.417183 0.658628
C 196.639503 -7.155829 1.754563
C 196.578921 -5.753163 1.708983
C 196.744815 -4.965011 2.981951
C 197.451750 -2.854531 0.266077
C 198.781083 -3.434914 0.191208
C 199.662886 -2.446564 0.082149
C 198.932231 -1.202983 0.075513
N 197.608409 -1.498777 0.179791
H 200.678494 -0.041896 -0.099532
H 200.553197 2.742479 0.040530
H 198.598746 4.622490 -0.113037
H 196.811169 0.806493 -0.113096
H 196.855963 4.027371 -2.999547
H 196.022878 5.219670 -3.992389
H 195.071341 4.003723 -3.142671
H 195.864589 7.343344 -3.064909
H 196.711986 9.685181 -1.174162
H 195.228714 9.554078 -2.149987
H 195.108435 9.810044 -0.410367
H 195.566671 7.966501 1.175663
H 196.504059 4.810528 2.201588
H 195.532170 6.199090 2.683045
H 194.717984 4.751952 2.093138
H 193.170206 4.405632 -0.654649
H 191.426183 2.539749 -0.524472
H 191.659597 -2.705268 0.983603
H 193.625039 -4.547056 1.183953
H 195.318602 -0.911587 -0.108863
H 195.974608 -5.959621 -2.850877
H 195.136109 -4.626602 -2.061963
H 196.911303 -4.574072 -2.294481
H 196.221261 -7.862753 -1.542331
H 196.156161 -9.797741 1.584269
H 197.649606 -9.721285 0.618570
H 196.065940 -9.886216 -0.174241
H 196.803389 -7.649976 2.708852
H 196.762439 -5.624938 3.856449
H 197.688036 -4.410665 2.970733
H 195.910214 -4.272216 3.124664
H 199.014640 -4.484101 0.221457
H 200.730020 -2.549938 0.008642
C 90.554067 -0.018544 -0.025893
C 92.012294 -0.040380 -0.043766
C 93.146222 -0.061134 -0.045257
C 94.507604 -0.073724 -0.047448
C 95.781822 -0.063417 -0.052213
C 96.970285 -0.044619 -0.058369
C 98.322646 -0.019835 -0.042501
C 99.422913 -0.018544 -0.025893
C 108.679272 -0.018544 -0.025893
C 110.137499 -0.040380 -0.043766
C 111.271427 -0.061134 -0.045257
C 112.632808 -0.073724 -0.047448
C 113.907027 -0.063417 -0.052213
C 115.095490 -0.044619 -0.058369
C 116.447850 -0.019835 -0.042501
C 117.548118 -0.018544 -0.025893
C 126.804477 -0.018544 -0.025893
C 128.262703 -0.040380 -0.043766
C 129.396632 -0.061134 -0.045257
C 130.758013 -0.073724 -0.047448
C 132.032232 -0.063417 -0.052213
C 133.220695 -0.044619 -0.058369
C 134.573055 -0.019835 -0.042501
C 135.673323 -0.018544 -0.025893
C 144.929682 -0.018544 -0.025893
C 146.387908 -0.040380 -0.043766
C 147.521836 -0.061134 -0.045257
C 148.883218 -0.073724 -0.047448
C 150.157437 -0.063417 -0.052213
C 151.345899 -0.044619 -0.058369
C 152.698260 -0.019835 -0.042501
C 153.798527 -0.018544 -0.025893
C 163.054887 -0.018544 -0.025893
C 164.513113 -0.040380 -0.043766
C 165.647041 -0.061134 -0.045257
C 167.008423 -0.073724 -0.047448
C 168.282642 -0.063417 -0.052213
C 169.471104 -0.044619 -0.058369
C 170.823465 -0.019835 -0.042501
C 171.923732 -0.018544 -0.025893
C 181.180092 -0.018544 -0.025893
C 182.638318 -0.040380 -0.043766
C 183.772246 -0.061134 -0.045257
C 185.133628 -0.073724 -0.047448
C 186.407847 -0.063417 -0.052213
C 187.596309 -0.044619 -0.058369
C 188.948670 -0.019835 -0.042501
C 190.048937 -0.018544 -0.025893
C 100.524785 0.015879 0.018022
C 101.313173 -0.769119 1.148032
C 100.785665 -1.266827 2.322326
C 101.821178 -1.969846 2.987965
C 102.952708 -1.869013 2.207477
N 102.651206 -1.079599 1.125131
C 104.351774 -2.560408 2.487685
C 104.359144 -3.792448 3.331159
C 104.099357 -5.053416 2.745799
C 103.816855 -5.182232 1.271475
C 104.118916 -6.207277 3.547363
C 104.381959 -6.130911 4.919004
C 104.443366 -7.375540 5.750307
C 104.648950 -4.882533 5.490940
C 104.630485 -3.709752 4.717112
C 104.930134 -2.387756 5.374885
C 105.484358 -2.061854 1.923917
C 106.776168 -2.688715 2.115532
C 107.684973 -1.989639 1.445419
N 105.690503 -0.978610 1.114073
C 107.018222 -0.882095 0.789879
C 107.685122 0.015879 0.018022
C 106.896682 1.204444 -0.673662
C 107.421179 2.418917 -1.067034
C 106.386027 3.137078 -1.717240
C 105.256773 2.345793 -1.688933
N 105.560278 1.201951 -0.992859
C 103.857800 2.678925 -2.357795
C 103.852010 3.626352 -3.511870
C 104.121538 3.154919 -4.817558
C 104.403682 1.697386 -5.076477
C 104.124743 4.058162 -5.893525
C 103.854684 5.416998 -5.697965
C 103.894717 6.371748 -6.852295
C 103.602226 5.880651 -4.402562
C 103.593528 5.002192 -3.306008
C 103.307099 5.542204 -1.929041
C 102.725758 2.074518 -1.908094
C 101.434042 2.317291 -2.515951
C 100.525729 1.593236 -1.872114
C 101.192414 0.852005 -0.820014
N 102.520711 1.178675 -0.894833
H 99.764372 -1.160180 2.654262
H 101.745552 -2.508027 3.920883
H 103.321004 -0.754372 0.433559
H 102.926034 -4.610711 0.996474
H 104.673019 -4.838874 0.684304
H 103.628250 -6.223859 0.993377
H 103.930083 -7.174858 3.089221
H 104.115163 -7.176813 6.775639
H 103.785514 -8.150334 5.343896
H 105.467750 -7.758286 5.775183
H 104.877654 -4.815150 6.551597
H 104.131633 -1.664808 5.181361
H 105.005578 -2.495437 6.462988
H 105.884364 -1.988319 5.017918
H 106.972709 -3.571939 2.697342
H 108.733392 -2.223359 1.408253
H 108.441188 2.745270 -0.927958
H 106.461556 4.112527 -2.174093
H 104.892471 0.483002 -0.728731
H 104.575592 1.510251 -6.141140
H 103.552120 1.080334 -4.775008
H 105.302986 1.376735 -4.542859
H 104.338070 3.690596 -6.894374
H 103.566136 5.882464 -7.775351
H 104.912991 6.746319 -6.991747
H 103.226241 7.222052 -6.681103
H 103.407932 6.937689 -4.238313
H 104.145189 5.346438 -1.252017
H 103.160077 6.628697 -1.952171
H 102.391327 5.101522 -1.523926
H 101.237860 2.969899 -3.348011
H 99.477570 1.576069 -2.107754
C 118.649990 0.015879 0.018022
C 119.438378 -0.769119 1.148032
C 118.910870 -1.266827 2.322326
C 119.946383 -1.969846 2.987965
C 121.077913 -1.869013 2.207477
N 120.776411 -1.079599 1.125131
C 122.476979 -2.560408 2.487685
C 122.484349 -3.792448 3.331159
C 122.224562 -5.053416 2.745799
C 121.942060 -5.182232 1.271475
C 122.244121 -6.207277 3.547363
C 122.507164 -6.130911 4.919004
C 122.568570 -7.375540 5.750307
C 122.774154 -4.882533 5.490940
C 122.755690 -3.709752 4.717112
C 123.055338 -2.387756 5.374885
C 123.609563 -2.061854 1.923917
C 124.901373 -2.688715 2.115532
C 125.810178 -1.989639 1.445419
N 123.815708 -0.978610 1.114073
C 125.143427 -0.882095 0.789879
C 125.810327 0.015879 0.018022
C 125.021887 1.204444 -0.673662
C 125.546384 2.418917 -1.067034
C 124.511232 3.137078 -1.717240
C 123.381978 2.345793 -1.688933
N 123.685483 1.201951 -0.992859
C 121.983004 2.678925 -2.357795
C 121.977215 3.626352 -3.511870
C 122.246743 3.154919 -4.817558
C 122.528887 1.697386 -5.076477
C 122.249948 4.058162 -5.893525
C 121.979889 5.416998 -5.697965
C 122.019922 6.371748 -6.852295
C 121.727431 5.880651 -4.402562
C 121.718733 5.002192 -3.306008
C 121.432304 5.542204 -1.929041
C 120.850963 2.074518 -1.908094
C 119.559247 2.317291 -2.515951
C 118.650934 1.593236 -1.872114
C 119.317619 0.852005 -0.820014
N 120.645915 1.178675 -0.894833
H 117.889577 -1.160180 2.654262
H 119.870756 -2.508027 3.920883
H 121.446209 -0.754372 0.433559
H 121.051239 -4.610711 0.996474
H 122.798224 -4.838874 0.684304
H 121.753455 -6.223859 0.993377
H 122.055288 -7.174858 3.089221
H 122.240368 -7.176813 6.775639
H 121.910719 -8.150334 5.343896
H 123.592955 -7.758286 5.775183
H 123.002859 -4.815150 6.551597
H 122.256838 -1.664808 5.181361
H 123.130783 -2.495437 6.462988
H 124.009569 -1.988319 5.017918
H 125.097914 -3.571939 2.697342
H 126.858597 -2.223359 1.408253
H 126.566392 2.745270 -0.927958
H 124.586761 4.112527 -2.174093
H 123.017676 0.483002 -0.728731
H 122.700797 1.510251 -6.141140
H 121.677325 1.080334 -4.775008
H 123.428191 1.376735 -4.542859
H 122.463275 3.690596 -6.894374
H 121.691340 5.882464 -7.775351
H 123.038195 6.746319 -6.991747
H 121.351446 7.222052 -6.681103
H 121.533137 6.937689 -4.238313
H 122.270394 5.346438 -1.252017
H 121.285282 6.628697 -1.952171
H 120.516532 5.101522 -1.523926
H 119.363065 2.969899 -3.348011
H 117.602774 1.576069 -2.107754
C 136.775194 0.015879 0.018022
C 137.563583 -0.769119 1.148032
C 137.036075 -1.266827 2.322326
C 138.071588 -1.969846 2.987965
C 139.203117 -1.869013 2.207477
N 138.901616 -1.079599 1.125131
C 140.602183 -2.560408 2.487685
C 140.609553 -3.792448 3.331159
C 140.349767 -5.053416 2.745799
C 140.067265 -5.182232 1.271475
C 140.369326 -6.207277 3.547363
C 140.632369 -6.130911 4.919004
C 140.693775 -7.375540 5.750307
C 140.899359 -4.882533 5.490940
C 140.880895 -3.709752 4.717112
C 141.180543 -2.387756 5.374885
C 141.734768 -2.061854 1.923917
C 143.026578 -2.688715 2.115532
C 143.935383 -1.989639 1.445419
N 141.940912 -0.978610 1.114073
C 143.268632 -0.882095 0.789879
C 143.935531 0.015879 0.018022
C 143.147092 1.204444 -0.673662
C 143.671589 2.418917 -1.067034
C 142.636437 3.137078 -1.717240
C 141.507183 2.345793 -1.688933
N 141.810688 1.201951 -0.992859
C 140.108209 2.678925 -2.357795
C 140.102420 3.626352 -3.511870
C 140.371948 3.154919 -4.817558
C 140.654092 1.697386 -5.076477
C 140.375153 4.058162 -5.893525
C 140.105094 5.416998 -5.697965
C 140.145127 6.371748 -6.852295
C 139.852636 5.880651 -4.402562
C 139.843938 5.002192 -3.306008
C 139.557509 5.542204 -1.929041
C 138.976168 2.074518 -1.908094
C 137.684452 2.317291 -2.515951
C 136.776139 1.593236 -1.872114
C 137.442824 0.852005 -0.820014
N 138.771120 1.178675 -0.894833
H 136.014782 -1.160180 2.654262
H 137.995961 -2.508027 3.920883
H 139.571413 -0.754372 0.433559
H 139.176444 -4.610711 0.996474
H 140.923429 -4.838874 0.684304
H 139.878659 -6.223859 0.993377
H 140.180493 -7.174858 3.089221
H 140.365573 -7.176813 6.775639
H 140.035924 -8.150334 5.343896
H 141.718159 -7.758286 5.775183
H 141.128064 -4.815150 6.551597
H 140.382043 -1.664808 5.181361
H 141.255988 -2.495437 6.462988
H 142.134774 -1.988319 5.017918
H 143.223119 -3.571939 2.697342
H 144.983802 -2.223359 1.408253
H 144.691597 2.745270 -0.927958
H 142.711966 4.112527 -2.174093
H 141.142881 0.483002 -0.728731
H 140.826002 1.510251 -6.141140
H 139.802529 1.080334 -4.775008
H 141.553396 1.376735 -4.542859
H 140.588480 3.690596 -6.894374
H 139.816545 5.882464 -7.775351
H 141.163400 6.746319 -6.991747
H 139.476651 7.222052 -6.681103
H 139.658342 6.937689 -4.238313
H 140.395599 5.346438 -1.252017
H 139.410487 6.628697 -1.952171
H 138.641736 5.101522 -1.523926
H 137.488270 2.969899 -3.348011
H 135.727979 1.576069 -2.107754
C 154.900399 0.015879 0.018022
C 155.688788 -0.769119 1.148032
C 155.161280 -1.266827 2.322326
C 156.196793 -1.969846 2.987965
C 157.328322 -1.869013 2.207477
N 157.026820 -1.079599 1.125131
C 158.727388 -2.560408 2.487685
C 158.734758 -3.792448 3.331159
C 158.474972 -5.053416 2.745799
C 158.192469 -5.182232 1.271475
C 158.494531 -6.207277 3.547363
C 158.757574 -6.130911 4.919004
C 158.818980 -7.375540 5.750307
C 159.024564 -4.882533 5.490940
C 159.006100 -3.709752 4.717112
C 159.305748 -2.387756 5.374885
C 159.859973 -2.061854 1.923917
C 161.151783 -2.688715 2.115532
C 162.060588 -1.989639 1.445419
N 160.066117 -0.978610 1.114073
C 161.393837 -0.882095 0.789879
C 162.060736 0.015879 0.018022
C 161.272296 1.204444 -0.673662
C 161.796794 2.418917 -1.067034
C 160.761642 3.137078 -1.717240
C 159.632388 2.345793 -1.688933
N 159.935893 1.201951 -0.992859
C 158.233414 2.678925 -2.357795
C 158.227625 3.626352 -3.511870
C 158.497153 3.154919 -4.817558
C 158.779297 1.697386 -5.076477
C 158.500358 4.058162 -5.893525
C 158.230299 5.416998 -5.697965
C 158.270332 6.371748 -6.852295
C 157.977841 5.880651 -4.402562
C 157.969143 5.002192 -3.306008
C 157.682714 5.542204 -1.929041
C 157.101373 2.074518 -1.908094
C 155.809657 2.317291 -2.515951
C 154.901344 1.593236 -1.872114
C 155.568029 0.852005 -0.820014
N 156.896325 1.178675 -0.894833
H 154.139987 -1.160180 2.654262
H 156.121166 -2.508027 3.920883
H 157.696618 -0.754372 0.433559
H 157.301649 -4.610711 0.996474
H 159.048634 -4.838874 0.684304
H 158.003864 -6.223859 0.993377
H 158.305698 -7.174858 3.089221
H 158.490777 -7.176813 6.775639
H 158.161129 -8.150334 5.343896
H 159.843364 -7.758286 5.775183
H 159.253269 -4.815150 6.551597
H 158.507248 -1.664808 5.181361
H 159.381193 -2.495437 6.462988
H 160.259979 -1.988319 5.017918
H 161.348324 -3.571939 2.697342
H 163.109007 -2.223359 1.408253
H 162.816802 2.745270 -0.927958
H 160.837171 4.112527 -2.174093
H 159.268086 0.483002 -0.728731
H 158.951207 1.510251 -6.141140
H 157.927734 1.080334 -4.775008
H 159.678601 1.376735 -4.542859
H 158.713685 3.690596 -6.894374
H 157.941750 5.882464 -7.775351
H 159.288605 6.746319 -6.991747
H 157.601856 7.222052 -6.681103
H 157.783547 6.937689 -4.238313
H 158.520804 5.346438 -1.252017
H 157.535692 6.628697 -1.952171
H 156.766941 5.101522 -1.523926
H 155.613474 2.969899 -3.348011
H 153.853184 1.576069 -2.107754
C 173.025604 0.015879 0.018022
C 173.813993 -0.769119 1.148032
C 173.286485 -1.266827 2.322326
C 174.321997 -1.969846 2.987965
C 175.453527 -1.869013 2.207477
N 175.152025 -1.079599 1.125131
C 176.852593 -2.560408 2.487685
C 176.859963 -3.792448 3.331159
C 176.600177 -5.053416 2.745799
C 176.317674 -5.182232 1.271475
C 176.619736 -6.207277 3.547363
C 176.882779 -6.130911 4.919004
C 176.944185 -7.375540 5.750307
C 177.149769 -4.882533 5.490940
C 177.131305 -3.709752 4.717112
C 177.430953 -2.387756 5.374885
C 177.985178 -2.061854 1.923917
C 179.276988 -2.688715 2.115532
C 180.185792 -1.989639 1.445419
N 178.191322 -0.978610 1.114073
C 179.519042 -0.882095 0.789879
C 180.185941 0.015879 0.018022
C 179.397501 1.204444 -0.673662
C 179.921999 2.418917 -1.067034
C 178.886847 3.137078 -1.717240
C 177.757592 2.345793 -1.688933
N 178.061098 1.201951 -0.992859
C 176.358619 2.678925 -2.357795
C 176.352830 3.626352 -3.511870
C 176.622358 3.154919 -4.817558
C 176.904502 1.697386 -5.076477
C 176.625563 4.058162 -5.893525
C 176.355504 5.416998 -5.697965
C 176.395537 6.371748 -6.852295
C 176.103046 5.880651 -4.402562
C 176.094348 5.002192 -3.306008
C 175.807919 5.542204 -1.929041
C 175.226577 2.074518 -1.908094
C 173.934861 2.317291 -2.515951
C 173.026549 1.593236 -1.872114
C 173.693234 0.852005 -0.820014
N 175.021530 1.178675 -0.894833
H 172.265191 -1.160180 2.654262
H 174.246371 -2.508027 3.920883
H 175.821823 -0.754372 0.433559
H 175.426854 -4.610711 0.996474
H 177.173838 -4.838874 0.684304
H 176.129069 -6.223859 0.993377
H 176.430903 -7.174858 3.089221
H 176.615982 -7.176813 6.775639
H 176.286333 -8.150334 5.343896
H 177.968569 -7.758286 5.775183
H 177.378474 -4.815150 6.551597
H 176.632453 -1.664808 5.181361
H 177.506397 -2.495437 6.462988
H 178.385184 -1.988319 5.017918
H 179.473529 -3.571939 2.697342
H 181.234212 -2.223359 1.408253
H 180.942007 2.745270 -0.927958
H 178.962376 4.112527 -2.174093
H 177.393290 0.483002 -0.728731
H 177.076412 1.510251 -6.141140
H 176.052939 1.080334 -4.775008
H 177.803806 1.376735 -4.542859
H 176.838890 3.690596 -6.894374
H 176.066955 5.882464 -7.775351
H 177.413810 6.746319 -6.991747
H 175.727061 7.222052 -6.681103
H 175.908752 6.937689 -4.238313
H 176.646009 5.346438 -1.252017
H 175.660897 6.628697 -1.952171
H 174.892146 5.101522 -1.523926
H 173.738679 2.969899 -3.348011
H 171.978389 1.576069 -2.107754
