 xtb: 6.5.1 (b24c23e)
          07292218523D

142161  0     0  0            999 V2000
   14.2102    0.0662   -0.0853 Fe  0  0  0  0  0  0  0  0  0  0  0  0
   10.8711    0.2896   -0.6610 C   0  0  0  0  0  0  0  0  0  0  0  0
   11.5163    1.4049   -0.1680 C   0  0  0  0  0  0  0  0  0  0  0  0
   10.8414    2.6199    0.1748 C   0  0  0  0  0  0  0  0  0  0  0  0
   11.7847    3.4657    0.6517 C   0  0  0  0  0  0  0  0  0  0  0  0
   13.0397    2.7755    0.5720 C   0  0  0  0  0  0  0  0  0  0  0  0
   12.8585    1.5083    0.0862 N   0  0  0  0  0  0  0  0  0  0  0  0
   14.2608    3.3482    0.9106 C   0  0  0  0  0  0  0  0  0  0  0  0
   15.4679    2.6721    0.8026 C   0  0  0  0  0  0  0  0  0  0  0  0
   16.7429    3.2793    1.0448 C   0  0  0  0  0  0  0  0  0  0  0  0
   17.6797    2.3312    0.8045 C   0  0  0  0  0  0  0  0  0  0  0  0
   15.6293    1.3659    0.4053 N   0  0  0  0  0  0  0  0  0  0  0  0
   16.9752    1.1478    0.4219 C   0  0  0  0  0  0  0  0  0  0  0  0
   17.6170   -0.0610    0.1308 C   0  0  0  0  0  0  0  0  0  0  0  0
   16.9234   -1.2369   -0.1766 C   0  0  0  0  0  0  0  0  0  0  0  0
   17.5720   -2.4952   -0.3733 C   0  0  0  0  0  0  0  0  0  0  0  0
   16.5952   -3.4000   -0.6222 C   0  0  0  0  0  0  0  0  0  0  0  0
   15.3530   -2.6870   -0.5890 C   0  0  0  0  0  0  0  0  0  0  0  0
   14.1295   -3.2634   -0.8975 C   0  0  0  0  0  0  0  0  0  0  0  0
   14.0922   -4.7151   -1.2032 C   0  0  0  0  0  0  0  0  0  0  0  0
   13.7768   -5.1549   -2.4867 C   0  0  0  0  0  0  0  0  0  0  0  0
   13.7486   -6.5151   -2.7794 C   0  0  0  0  0  0  0  0  0  0  0  0
   13.3962   -6.9804   -4.1664 C   0  0  0  0  0  0  0  0  0  0  0  0
   14.0302   -7.4339   -1.7743 C   0  0  0  0  0  0  0  0  0  0  0  0
   14.3450   -7.0089   -0.4859 C   0  0  0  0  0  0  0  0  0  0  0  0
   14.6609   -8.0184    0.5844 C   0  0  0  0  0  0  0  0  0  0  0  0
   14.3795   -5.6477   -0.2071 C   0  0  0  0  0  0  0  0  0  0  0  0
   12.9465   -2.5369   -0.9696 C   0  0  0  0  0  0  0  0  0  0  0  0
   11.6812   -3.1053   -1.3345 C   0  0  0  0  0  0  0  0  0  0  0  0
   10.7762   -2.0991   -1.3040 C   0  0  0  0  0  0  0  0  0  0  0  0
   11.4840   -0.9241   -0.8938 C   0  0  0  0  0  0  0  0  0  0  0  0
   12.8123   -1.2006   -0.7033 N   0  0  0  0  0  0  0  0  0  0  0  0
   15.5724   -1.3581   -0.3127 N   0  0  0  0  0  0  0  0  0  0  0  0
   14.2823    4.7599    1.3644 C   0  0  0  0  0  0  0  0  0  0  0  0
   13.8619    5.7764    0.5076 C   0  0  0  0  0  0  0  0  0  0  0  0
   13.8879    7.1038    0.9208 C   0  0  0  0  0  0  0  0  0  0  0  0
   13.4567    8.1996   -0.0161 C   0  0  0  0  0  0  0  0  0  0  0  0
   14.3377    7.4102    2.2018 C   0  0  0  0  0  0  0  0  0  0  0  0
   14.7613    6.4067    3.0680 C   0  0  0  0  0  0  0  0  0  0  0  0
   15.2273    6.7485    4.4575 C   0  0  0  0  0  0  0  0  0  0  0  0
   14.7324    5.0825    2.6435 C   0  0  0  0  0  0  0  0  0  0  0  0
    9.8039    0.3599   -0.8390 H   0  0  0  0  0  0  0  0  0  0  0  0
    9.7797    2.7796    0.0725 H   0  0  0  0  0  0  0  0  0  0  0  0
   11.6542    4.4668    1.0293 H   0  0  0  0  0  0  0  0  0  0  0  0
   16.8924    4.3032    1.3460 H   0  0  0  0  0  0  0  0  0  0  0  0
   18.7524    2.4096    0.8779 H   0  0  0  0  0  0  0  0  0  0  0  0
   18.6375   -2.6507   -0.3195 H   0  0  0  0  0  0  0  0  0  0  0  0
   16.6964   -4.4533   -0.8272 H   0  0  0  0  0  0  0  0  0  0  0  0
   13.5703   -4.4279   -3.2644 H   0  0  0  0  0  0  0  0  0  0  0  0
   13.7878   -7.9802   -4.3537 H   0  0  0  0  0  0  0  0  0  0  0  0
   12.3105   -7.0113   -4.2830 H   0  0  0  0  0  0  0  0  0  0  0  0
   13.7968   -6.2977   -4.9164 H   0  0  0  0  0  0  0  0  0  0  0  0
   14.0065   -8.4960   -1.9958 H   0  0  0  0  0  0  0  0  0  0  0  0
   14.6395   -7.5596    1.5727 H   0  0  0  0  0  0  0  0  0  0  0  0
   13.9435   -8.8397    0.5615 H   0  0  0  0  0  0  0  0  0  0  0  0
   15.6566   -8.4363    0.4206 H   0  0  0  0  0  0  0  0  0  0  0  0
   14.6163   -5.3020    0.7930 H   0  0  0  0  0  0  0  0  0  0  0  0
   11.5188   -4.1431   -1.5762 H   0  0  0  0  0  0  0  0  0  0  0  0
    9.7195   -2.1336   -1.5170 H   0  0  0  0  0  0  0  0  0  0  0  0
   13.5299    5.5260   -0.4939 H   0  0  0  0  0  0  0  0  0  0  0  0
   12.9820    9.0138    0.5321 H   0  0  0  0  0  0  0  0  0  0  0  0
   12.7578    7.8208   -0.7619 H   0  0  0  0  0  0  0  0  0  0  0  0
   14.3263    8.6046   -0.5388 H   0  0  0  0  0  0  0  0  0  0  0  0
   14.3600    8.4448    2.5285 H   0  0  0  0  0  0  0  0  0  0  0  0
   14.3749    6.7697    5.1403 H   0  0  0  0  0  0  0  0  0  0  0  0
   15.7014    7.7301    4.4769 H   0  0  0  0  0  0  0  0  0  0  0  0
   15.9368    6.0060    4.8229 H   0  0  0  0  0  0  0  0  0  0  0  0
   15.0484    4.2901    3.3132 H   0  0  0  0  0  0  0  0  0  0  0  0
   30.1893    0.0670   -0.0910 Fe  0  0  0  0  0  0  0  0  0  0  0  0
   33.5290    0.5555   -0.4638 C   0  0  0  0  0  0  0  0  0  0  0  0
   32.8842   -0.2298   -1.3970 C   0  0  0  0  0  0  0  0  0  0  0  0
   33.5597   -0.9000   -2.4665 C   0  0  0  0  0  0  0  0  0  0  0  0
   32.6166   -1.5945   -3.1454 C   0  0  0  0  0  0  0  0  0  0  0  0
   31.3612   -1.3234   -2.5065 C   0  0  0  0  0  0  0  0  0  0  0  0
   31.5419   -0.5021   -1.4260 N   0  0  0  0  0  0  0  0  0  0  0  0
   30.1399   -1.8060   -2.9638 C   0  0  0  0  0  0  0  0  0  0  0  0
   28.9322   -1.5103   -2.3474 C   0  0  0  0  0  0  0  0  0  0  0  0
   27.6573   -1.9089   -2.8656 C   0  0  0  0  0  0  0  0  0  0  0  0
   26.7201   -1.4116   -2.0238 C   0  0  0  0  0  0  0  0  0  0  0  0
   28.7704   -0.7642   -1.2041 N   0  0  0  0  0  0  0  0  0  0  0  0
   27.4243   -0.7163   -0.9924 C   0  0  0  0  0  0  0  0  0  0  0  0
   26.7820   -0.0993    0.0869 C   0  0  0  0  0  0  0  0  0  0  0  0
   27.4752    0.5225    1.1314 C   0  0  0  0  0  0  0  0  0  0  0  0
   26.8260    1.0640    2.2839 C   0  0  0  0  0  0  0  0  0  0  0  0
   27.8026    1.5533    3.0848 C   0  0  0  0  0  0  0  0  0  0  0  0
   29.0454    1.3195    2.4114 C   0  0  0  0  0  0  0  0  0  0  0  0
   30.2694    1.7727    2.8814 C   0  0  0  0  0  0  0  0  0  0  0  0
   30.3064    2.4689    4.1915 C   0  0  0  0  0  0  0  0  0  0  0  0
   30.6291    3.8222    4.2593 C   0  0  0  0  0  0  0  0  0  0  0  0
   30.6580    4.4801    5.4854 C   0  0  0  0  0  0  0  0  0  0  0  0
   31.0201    5.9393    5.5492 C   0  0  0  0  0  0  0  0  0  0  0  0
   30.3682    3.7707    6.6458 C   0  0  0  0  0  0  0  0  0  0  0  0
   30.0451    2.4169    6.5934 C   0  0  0  0  0  0  0  0  0  0  0  0
   29.7197    1.6706    7.8588 C   0  0  0  0  0  0  0  0  0  0  0  0
   30.0112    1.7720    5.3627 C   0  0  0  0  0  0  0  0  0  0  0  0
   31.4531    1.6378    2.1651 C   0  0  0  0  0  0  0  0  0  0  0  0
   32.7187    2.1447    2.6106 C   0  0  0  0  0  0  0  0  0  0  0  0
   33.6236    1.8367    1.6521 C   0  0  0  0  0  0  0  0  0  0  0  0
   32.9157    1.1172    0.6367 C   0  0  0  0  0  0  0  0  0  0  0  0
   31.5873    1.0115    0.9550 N   0  0  0  0  0  0  0  0  0  0  0  0
   28.8265    0.6844    1.2118 N   0  0  0  0  0  0  0  0  0  0  0  0
   30.1189   -2.6357   -4.1928 C   0  0  0  0  0  0  0  0  0  0  0  0
   30.5405   -2.0966   -5.4076 C   0  0  0  0  0  0  0  0  0  0  0  0
   30.5153   -2.8636   -6.5671 C   0  0  0  0  0  0  0  0  0  0  0  0
   30.9473   -2.2694   -7.8804 C   0  0  0  0  0  0  0  0  0  0  0  0
   30.0655   -4.1793   -6.5043 C   0  0  0  0  0  0  0  0  0  0  0  0
   29.6408   -4.7311   -5.2993 C   0  0  0  0  0  0  0  0  0  0  0  0
   29.1753   -6.1609   -5.2403 C   0  0  0  0  0  0  0  0  0  0  0  0
   29.6685   -3.9540   -4.1461 C   0  0  0  0  0  0  0  0  0  0  0  0
   34.5962    0.7069   -0.5807 H   0  0  0  0  0  0  0  0  0  0  0  0
   34.6215   -0.8473   -2.6476 H   0  0  0  0  0  0  0  0  0  0  0  0
   32.7474   -2.2380   -4.0002 H   0  0  0  0  0  0  0  0  0  0  0  0
   27.5083   -2.4830   -3.7654 H   0  0  0  0  0  0  0  0  0  0  0  0
   25.6472   -1.5012   -2.0807 H   0  0  0  0  0  0  0  0  0  0  0  0
   25.7603    1.0581    2.4466 H   0  0  0  0  0  0  0  0  0  0  0  0
   27.7010    2.0446    4.0387 H   0  0  0  0  0  0  0  0  0  0  0  0
   30.8408    4.3670    3.3459 H   0  0  0  0  0  0  0  0  0  0  0  0
   30.6305    6.3985    6.4577 H   0  0  0  0  0  0  0  0  0  0  0  0
   32.1066    6.0524    5.5481 H   0  0  0  0  0  0  0  0  0  0  0  0
   30.6244    6.4738    4.6852 H   0  0  0  0  0  0  0  0  0  0  0  0
   30.3922    4.2776    7.6050 H   0  0  0  0  0  0  0  0  0  0  0  0
   29.7344    0.5937    7.6919 H   0  0  0  0  0  0  0  0  0  0  0  0
   30.4357    1.9153    8.6443 H   0  0  0  0  0  0  0  0  0  0  0  0
   28.7245    1.9504    8.2111 H   0  0  0  0  0  0  0  0  0  0  0  0
   29.7689    0.7165    5.3070 H   0  0  0  0  0  0  0  0  0  0  0  0
   32.8815    2.6638    3.5412 H   0  0  0  0  0  0  0  0  0  0  0  0
   34.6804    2.0505    1.6265 H   0  0  0  0  0  0  0  0  0  0  0  0
   30.8730   -1.0651   -5.4461 H   0  0  0  0  0  0  0  0  0  0  0  0
   31.4223   -3.0229   -8.5092 H   0  0  0  0  0  0  0  0  0  0  0  0
   31.6462   -1.4476   -7.7241 H   0  0  0  0  0  0  0  0  0  0  0  0
   30.0781   -1.8803   -8.4155 H   0  0  0  0  0  0  0  0  0  0  0  0
   30.0441   -4.7816   -7.4067 H   0  0  0  0  0  0  0  0  0  0  0  0
   30.0278   -6.8222   -5.0687 H   0  0  0  0  0  0  0  0  0  0  0  0
   28.7027   -6.4539   -6.1781 H   0  0  0  0  0  0  0  0  0  0  0  0
   28.4647   -6.3048   -4.4262 H   0  0  0  0  0  0  0  0  0  0  0  0
   29.3513   -4.3758   -3.1988 H   0  0  0  0  0  0  0  0  0  0  0  0
   22.8143   -0.1407    0.1857 C   0  0  0  0  0  0  0  0  0  0  0  0
   21.5849   -0.1372    0.1932 C   0  0  0  0  0  0  0  0  0  0  0  0
   20.2426   -0.1216    0.1876 C   0  0  0  0  0  0  0  0  0  0  0  0
   19.0179   -0.1002    0.1724 C   0  0  0  0  0  0  0  0  0  0  0  0
   24.1565   -0.1377    0.1645 C   0  0  0  0  0  0  0  0  0  0  0  0
   25.3811   -0.1278    0.1356 C   0  0  0  0  0  0  0  0  0  0  0  0
  2  3  4  0  0  0  0
  3  4  4  0  0  0  0
  4  5  2  0  0  0  0
  5  6  4  0  0  0  0
  1  7  1  0  0  0  0
  3  7  4  0  0  0  0
  6  7  4  0  0  0  0
  6  8  4  0  0  0  0
  8  9  4  0  0  0  0
  9 10  4  0  0  0  0
 10 11  2  0  0  0  0
  1 12  1  0  0  0  0
  9 12  4  0  0  0  0
 11 13  4  0  0  0  0
 12 13  4  0  0  0  0
 13 14  4  0  0  0  0
 14 15  4  0  0  0  0
 15 16  4  0  0  0  0
 16 17  2  0  0  0  0
 17 18  4  0  0  0  0
 18 19  4  0  0  0  0
 19 20  1  0  0  0  0
 20 21  4  0  0  0  0
 21 22  4  0  0  0  0
 22 23  1  0  0  0  0
 22 24  4  0  0  0  0
 24 25  4  0  0  0  0
 25 26  1  0  0  0  0
 20 27  4  0  0  0  0
 25 27  4  0  0  0  0
 19 28  4  0  0  0  0
 28 29  4  0  0  0  0
 29 30  2  0  0  0  0
  2 31  4  0  0  0  0
 30 31  4  0  0  0  0
  1 32  1  0  0  0  0
 28 32  4  0  0  0  0
 31 32  4  0  0  0  0
  1 33  1  0  0  0  0
 15 33  4  0  0  0  0
 18 33  4  0  0  0  0
  8 34  1  0  0  0  0
 34 35  4  0  0  0  0
 35 36  4  0  0  0  0
 36 37  1  0  0  0  0
 36 38  4  0  0  0  0
 38 39  4  0  0  0  0
 39 40  1  0  0  0  0
 34 41  4  0  0  0  0
 39 41  4  0  0  0  0
  2 42  1  0  0  0  0
  4 43  1  0  0  0  0
  5 44  1  0  0  0  0
 10 45  1  0  0  0  0
 11 46  1  0  0  0  0
 16 47  1  0  0  0  0
 17 48  1  0  0  0  0
 21 49  1  0  0  0  0
 23 50  1  0  0  0  0
 23 51  1  0  0  0  0
 23 52  1  0  0  0  0
 24 53  1  0  0  0  0
 26 54  1  0  0  0  0
 26 55  1  0  0  0  0
 26 56  1  0  0  0  0
 27 57  1  0  0  0  0
 29 58  1  0  0  0  0
 30 59  1  0  0  0  0
 35 60  1  0  0  0  0
 37 61  1  0  0  0  0
 37 62  1  0  0  0  0
 37 63  1  0  0  0  0
 38 64  1  0  0  0  0
 40 65  1  0  0  0  0
 40 66  1  0  0  0  0
 40 67  1  0  0  0  0
 41 68  1  0  0  0  0
 70 71  4  0  0  0  0
 71 72  4  0  0  0  0
 72 73  2  0  0  0  0
 73 74  4  0  0  0  0
 69 75  1  0  0  0  0
 71 75  4  0  0  0  0
 74 75  4  0  0  0  0
 74 76  4  0  0  0  0
 76 77  4  0  0  0  0
 77 78  4  0  0  0  0
 78 79  2  0  0  0  0
 69 80  1  0  0  0  0
 77 80  4  0  0  0  0
 79 81  4  0  0  0  0
 80 81  4  0  0  0  0
 81 82  4  0  0  0  0
 82 83  4  0  0  0  0
 83 84  4  0  0  0  0
 84 85  2  0  0  0  0
 85 86  4  0  0  0  0
 86 87  4  0  0  0  0
 87 88  1  0  0  0  0
 88 89  4  0  0  0  0
 89 90  4  0  0  0  0
 90 91  1  0  0  0  0
 90 92  4  0  0  0  0
 92 93  4  0  0  0  0
 93 94  1  0  0  0  0
 88 95  4  0  0  0  0
 93 95  4  0  0  0  0
 87 96  4  0  0  0  0
 96 97  4  0  0  0  0
 97 98  2  0  0  0  0
 70 99  4  0  0  0  0
 98 99  4  0  0  0  0
 69100  1  0  0  0  0
 96100  4  0  0  0  0
 99100  4  0  0  0  0
 69101  1  0  0  0  0
 83101  4  0  0  0  0
 86101  4  0  0  0  0
 76102  1  0  0  0  0
102103  4  0  0  0  0
103104  4  0  0  0  0
104105  1  0  0  0  0
104106  4  0  0  0  0
106107  4  0  0  0  0
107108  1  0  0  0  0
102109  4  0  0  0  0
107109  4  0  0  0  0
 70110  1  0  0  0  0
 72111  1  0  0  0  0
 73112  1  0  0  0  0
 78113  1  0  0  0  0
 79114  1  0  0  0  0
 84115  1  0  0  0  0
 85116  1  0  0  0  0
 89117  1  0  0  0  0
 91118  1  0  0  0  0
 91119  1  0  0  0  0
 91120  1  0  0  0  0
 92121  1  0  0  0  0
 94122  1  0  0  0  0
 94123  1  0  0  0  0
 94124  1  0  0  0  0
 95125  1  0  0  0  0
 97126  1  0  0  0  0
 98127  1  0  0  0  0
103128  1  0  0  0  0
105129  1  0  0  0  0
105130  1  0  0  0  0
105131  1  0  0  0  0
106132  1  0  0  0  0
108133  1  0  0  0  0
108134  1  0  0  0  0
108135  1  0  0  0  0
109136  1  0  0  0  0
137138  3  0  0  0  0
138139  4  0  0  0  0
 14140  4  0  0  0  0
139140  3  0  0  0  0
137141  4  0  0  0  0
 82142  4  0  0  0  0
141142  3  0  0  0  0
M  END
