 xtb: 6.5.1 (b24c23e)
          07312216343D

198218  0     0  0            999 V2000
   32.1046    0.0324   -0.0794 C   0  0  0  0  0  0  0  0  0  0  0  0
   32.7121   -1.1924   -0.3219 C   0  0  0  0  0  0  0  0  0  0  0  0
   32.0584   -2.4328   -0.5694 C   0  0  0  0  0  0  0  0  0  0  0  0
   33.0191   -3.3865   -0.7510 C   0  0  0  0  0  0  0  0  0  0  0  0
   34.2920   -2.7575   -0.6292 C   0  0  0  0  0  0  0  0  0  0  0  0
   34.0555   -1.4387   -0.3654 N   0  0  0  0  0  0  0  0  0  0  0  0
   35.5542   -3.3536   -0.7180 C   0  0  0  0  0  0  0  0  0  0  0  0
   35.5848   -4.8043   -1.0246 C   0  0  0  0  0  0  0  0  0  0  0  0
   35.0604   -5.2786   -2.2297 C   0  0  0  0  0  0  0  0  0  0  0  0
   35.0924   -6.6310   -2.5270 C   0  0  0  0  0  0  0  0  0  0  0  0
   35.6478   -7.5017   -1.6036 C   0  0  0  0  0  0  0  0  0  0  0  0
   35.6977   -9.2137   -1.9773 S   0  0  0  0  0  0  0  0  0  0  0  0
   35.6465   -9.4280   -3.3935 O   0  0  0  0  0  0  0  0  0  0  0  0
   34.2589   -9.6317   -1.3495 O   0  0  0  0  0  0  0  0  0  0  0  0
   36.7237   -9.8706   -1.2226 O   0  0  0  0  0  0  0  0  0  0  0  0
   36.1755   -7.0619   -0.4004 C   0  0  0  0  0  0  0  0  0  0  0  0
   36.1426   -5.7068   -0.1156 C   0  0  0  0  0  0  0  0  0  0  0  0
   36.7723   -2.6885   -0.5503 C   0  0  0  0  0  0  0  0  0  0  0  0
   38.0711   -3.3227   -0.6959 C   0  0  0  0  0  0  0  0  0  0  0  0
   38.9918   -2.3596   -0.4875 C   0  0  0  0  0  0  0  0  0  0  0  0
   36.9252   -1.3668   -0.2727 N   0  0  0  0  0  0  0  0  0  0  0  0
   38.2551   -1.1370   -0.2266 C   0  0  0  0  0  0  0  0  0  0  0  0
   38.8876    0.0963    0.0056 C   0  0  0  0  0  0  0  0  0  0  0  0
   38.2587    1.3304    0.2352 C   0  0  0  0  0  0  0  0  0  0  0  0
   38.9070    2.5638    0.5145 C   0  0  0  0  0  0  0  0  0  0  0  0
   37.9428    3.5113    0.7166 C   0  0  0  0  0  0  0  0  0  0  0  0
   36.6739    2.8874    0.5542 C   0  0  0  0  0  0  0  0  0  0  0  0
   36.9166    1.5712    0.2674 N   0  0  0  0  0  0  0  0  0  0  0  0
   35.4114    3.4732    0.6944 C   0  0  0  0  0  0  0  0  0  0  0  0
   35.3796    4.9177    1.0265 C   0  0  0  0  0  0  0  0  0  0  0  0
   35.9326    5.8582    0.1536 C   0  0  0  0  0  0  0  0  0  0  0  0
   35.9066    7.2076    0.4653 C   0  0  0  0  0  0  0  0  0  0  0  0
   35.3286    7.6031    1.6607 C   0  0  0  0  0  0  0  0  0  0  0  0
   35.2930    9.3095    2.0610 S   0  0  0  0  0  0  0  0  0  0  0  0
   35.3794   10.1099    0.8757 O   0  0  0  0  0  0  0  0  0  0  0  0
   36.7146    9.3958    2.8423 O   0  0  0  0  0  0  0  0  0  0  0  0
   34.2516    9.5934    3.0042 O   0  0  0  0  0  0  0  0  0  0  0  0
   34.7688    6.6950    2.5447 C   0  0  0  0  0  0  0  0  0  0  0  0
   34.7951    5.3489    2.2203 C   0  0  0  0  0  0  0  0  0  0  0  0
   34.1935    2.8010    0.5473 C   0  0  0  0  0  0  0  0  0  0  0  0
   32.8897    3.4420    0.6307 C   0  0  0  0  0  0  0  0  0  0  0  0
   31.9754    2.4772    0.4082 C   0  0  0  0  0  0  0  0  0  0  0  0
   32.7191    1.2494    0.1837 C   0  0  0  0  0  0  0  0  0  0  0  0
   34.0516    1.4839    0.2691 N   0  0  0  0  0  0  0  0  0  0  0  0
   31.0195    0.0285   -0.0984 H   0  0  0  0  0  0  0  0  0  0  0  0
   30.9887   -2.5652   -0.5957 H   0  0  0  0  0  0  0  0  0  0  0  0
   32.8665   -4.4361   -0.9429 H   0  0  0  0  0  0  0  0  0  0  0  0
   34.7815   -0.7459   -0.2164 H   0  0  0  0  0  0  0  0  0  0  0  0
   34.6433   -4.5791   -2.9448 H   0  0  0  0  0  0  0  0  0  0  0  0
   34.7005   -7.0078   -3.4634 H   0  0  0  0  0  0  0  0  0  0  0  0
   34.1042  -10.5766   -1.4693 H   0  0  0  0  0  0  0  0  0  0  0  0
   36.6066   -7.7700    0.2961 H   0  0  0  0  0  0  0  0  0  0  0  0
   36.5404   -5.3429    0.8244 H   0  0  0  0  0  0  0  0  0  0  0  0
   38.2351   -4.3598   -0.9395 H   0  0  0  0  0  0  0  0  0  0  0  0
   40.0667   -2.4401   -0.5127 H   0  0  0  0  0  0  0  0  0  0  0  0
   39.9759    2.6959    0.5634 H   0  0  0  0  0  0  0  0  0  0  0  0
   38.0940    4.5486    0.9669 H   0  0  0  0  0  0  0  0  0  0  0  0
   36.1920    0.8766    0.1185 H   0  0  0  0  0  0  0  0  0  0  0  0
   36.3680    5.5295   -0.7828 H   0  0  0  0  0  0  0  0  0  0  0  0
   36.3222    7.9459   -0.2089 H   0  0  0  0  0  0  0  0  0  0  0  0
   36.8327   10.2735    3.2256 H   0  0  0  0  0  0  0  0  0  0  0  0
   34.3195    7.0398    3.4676 H   0  0  0  0  0  0  0  0  0  0  0  0
   34.3733    4.6207    2.9031 H   0  0  0  0  0  0  0  0  0  0  0  0
   32.7230    4.4905    0.8182 H   0  0  0  0  0  0  0  0  0  0  0  0
   30.9001    2.5579    0.3852 H   0  0  0  0  0  0  0  0  0  0  0  0
   60.5958    0.0611   -0.0418 C   0  0  0  0  0  0  0  0  0  0  0  0
   60.0010    1.2685    0.2992 C   0  0  0  0  0  0  0  0  0  0  0  0
   60.6664    2.4717    0.6689 C   0  0  0  0  0  0  0  0  0  0  0  0
   59.7152    3.4192    0.9201 C   0  0  0  0  0  0  0  0  0  0  0  0
   58.4371    2.8297    0.6972 C   0  0  0  0  0  0  0  0  0  0  0  0
   58.6606    1.5315    0.3369 N   0  0  0  0  0  0  0  0  0  0  0  0
   57.1797    3.4291    0.8243 C   0  0  0  0  0  0  0  0  0  0  0  0
   57.1552    4.8560    1.2253 C   0  0  0  0  0  0  0  0  0  0  0  0
   57.7658    5.8313    0.4331 C   0  0  0  0  0  0  0  0  0  0  0  0
   57.7429    7.1629    0.8147 C   0  0  0  0  0  0  0  0  0  0  0  0
   57.1085    7.5053    1.9977 C   0  0  0  0  0  0  0  0  0  0  0  0
   57.0721    9.1882    2.4869 S   0  0  0  0  0  0  0  0  0  0  0  0
   57.2662   10.0530    1.3606 O   0  0  0  0  0  0  0  0  0  0  0  0
   58.4323    9.2024    3.3754 O   0  0  0  0  0  0  0  0  0  0  0  0
   55.9638    9.4399    3.3601 O   0  0  0  0  0  0  0  0  0  0  0  0
   56.4907    6.5618    2.8026 C   0  0  0  0  0  0  0  0  0  0  0  0
   56.5160    5.2344    2.4093 C   0  0  0  0  0  0  0  0  0  0  0  0
   55.9567    2.7850    0.6122 C   0  0  0  0  0  0  0  0  0  0  0  0
   54.6688    3.4558    0.6577 C   0  0  0  0  0  0  0  0  0  0  0  0
   53.7377    2.5112    0.4133 C   0  0  0  0  0  0  0  0  0  0  0  0
   55.7885    1.4679    0.3237 N   0  0  0  0  0  0  0  0  0  0  0  0
   54.4572    1.2670    0.2166 C   0  0  0  0  0  0  0  0  0  0  0  0
   53.8103    0.0381   -0.0001 C   0  0  0  0  0  0  0  0  0  0  0  0
   54.4283   -1.2034   -0.2213 C   0  0  0  0  0  0  0  0  0  0  0  0
   53.7713   -2.4470   -0.4233 C   0  0  0  0  0  0  0  0  0  0  0  0
   54.7268   -3.3958   -0.6589 C   0  0  0  0  0  0  0  0  0  0  0  0
   55.9981   -2.7577   -0.6156 C   0  0  0  0  0  0  0  0  0  0  0  0
   55.7670   -1.4388   -0.3331 N   0  0  0  0  0  0  0  0  0  0  0  0
   57.2532   -3.3460   -0.8051 C   0  0  0  0  0  0  0  0  0  0  0  0
   57.2669   -4.7857   -1.1584 C   0  0  0  0  0  0  0  0  0  0  0  0
   56.6551   -5.2245   -2.3356 C   0  0  0  0  0  0  0  0  0  0  0  0
   56.6710   -6.5661   -2.6790 C   0  0  0  0  0  0  0  0  0  0  0  0
   57.2974   -7.4626   -1.8285 C   0  0  0  0  0  0  0  0  0  0  0  0
   57.3274   -9.1609   -2.2626 S   0  0  0  0  0  0  0  0  0  0  0  0
   57.1650   -9.3246   -3.6769 O   0  0  0  0  0  0  0  0  0  0  0  0
   55.9486   -9.6138   -1.5334 O   0  0  0  0  0  0  0  0  0  0  0  0
   58.4140   -9.8362   -1.6161 O   0  0  0  0  0  0  0  0  0  0  0  0
   57.9118   -7.0584   -0.6543 C   0  0  0  0  0  0  0  0  0  0  0  0
   57.8957   -5.7133   -0.3240 C   0  0  0  0  0  0  0  0  0  0  0  0
   58.4773   -2.6781   -0.6965 C   0  0  0  0  0  0  0  0  0  0  0  0
   59.7720   -3.2921   -0.9509 C   0  0  0  0  0  0  0  0  0  0  0  0
   60.6966   -2.3354   -0.7357 C   0  0  0  0  0  0  0  0  0  0  0  0
   59.9678   -1.1356   -0.3611 C   0  0  0  0  0  0  0  0  0  0  0  0
   58.6338   -1.3764   -0.3594 N   0  0  0  0  0  0  0  0  0  0  0  0
   61.6810    0.0604   -0.0535 H   0  0  0  0  0  0  0  0  0  0  0  0
   61.7367    2.5818    0.7378 H   0  0  0  0  0  0  0  0  0  0  0  0
   59.8783    4.4359    1.2387 H   0  0  0  0  0  0  0  0  0  0  0  0
   57.9281    0.8603    0.1318 H   0  0  0  0  0  0  0  0  0  0  0  0
   58.2435    5.5455   -0.4968 H   0  0  0  0  0  0  0  0  0  0  0  0
   58.2032    7.9284    0.2026 H   0  0  0  0  0  0  0  0  0  0  0  0
   58.5966   10.0887    3.7196 H   0  0  0  0  0  0  0  0  0  0  0  0
   55.9981    6.8654    3.7178 H   0  0  0  0  0  0  0  0  0  0  0  0
   56.0488    4.4786    3.0297 H   0  0  0  0  0  0  0  0  0  0  0  0
   54.5206    4.5087    0.8347 H   0  0  0  0  0  0  0  0  0  0  0  0
   52.6662    2.6205    0.3621 H   0  0  0  0  0  0  0  0  0  0  0  0
   52.7029   -2.5875   -0.3890 H   0  0  0  0  0  0  0  0  0  0  0  0
   54.5694   -4.4467   -0.8391 H   0  0  0  0  0  0  0  0  0  0  0  0
   56.4959   -0.7405   -0.2295 H   0  0  0  0  0  0  0  0  0  0  0  0
   56.1821   -4.5049   -2.9937 H   0  0  0  0  0  0  0  0  0  0  0  0
   56.2120   -6.9149   -3.5955 H   0  0  0  0  0  0  0  0  0  0  0  0
   55.8313  -10.5691   -1.6021 H   0  0  0  0  0  0  0  0  0  0  0  0
   58.3962   -7.7859   -0.0152 H   0  0  0  0  0  0  0  0  0  0  0  0
   58.3618   -5.3775    0.5949 H   0  0  0  0  0  0  0  0  0  0  0  0
   59.9259   -4.3124   -1.2631 H   0  0  0  0  0  0  0  0  0  0  0  0
   61.7697   -2.4017   -0.8215 H   0  0  0  0  0  0  0  0  0  0  0  0
   40.3032    0.1091    0.0114 C   0  0  0  0  0  0  0  0  0  0  0  0
   41.5180    0.1122    0.0150 C   0  0  0  0  0  0  0  0  0  0  0  0
   51.1806    0.0444    0.0131 C   0  0  0  0  0  0  0  0  0  0  0  0
   52.3955    0.0377    0.0059 C   0  0  0  0  0  0  0  0  0  0  0  0
   42.9331    0.1089    0.0187 C   0  0  0  0  0  0  0  0  0  0  0  0
   43.5568    0.9317   -0.9329 C   0  0  0  0  0  0  0  0  0  0  0  0
   42.9055    1.7177   -1.9208 C   0  0  0  0  0  0  0  0  0  0  0  0
   43.8678    2.3423   -2.6642 C   0  0  0  0  0  0  0  0  0  0  0  0
   45.1373    1.9673   -2.1426 C   0  0  0  0  0  0  0  0  0  0  0  0
   44.8982    1.1109   -1.1022 N   0  0  0  0  0  0  0  0  0  0  0  0
   46.3988    2.3621   -2.6022 C   0  0  0  0  0  0  0  0  0  0  0  0
   46.4230    3.2854   -3.7625 C   0  0  0  0  0  0  0  0  0  0  0  0
   47.0312    2.8844   -4.9553 C   0  0  0  0  0  0  0  0  0  0  0  0
   47.0457    3.7251   -6.0556 C   0  0  0  0  0  0  0  0  0  0  0  0
   46.4494    4.9711   -5.9479 C   0  0  0  0  0  0  0  0  0  0  0  0
   46.4636    6.0398   -7.3380 S   0  0  0  0  0  0  0  0  0  0  0  0
   46.3032    7.4021   -6.9259 O   0  0  0  0  0  0  0  0  0  0  0  0
   45.0817    5.5424   -8.0330 O   0  0  0  0  0  0  0  0  0  0  0  0
   47.5391    5.7133   -8.2281 O   0  0  0  0  0  0  0  0  0  0  0  0
   45.8498    5.4021   -4.7759 C   0  0  0  0  0  0  0  0  0  0  0  0
   45.8369    4.5510   -3.6827 C   0  0  0  0  0  0  0  0  0  0  0  0
   47.6216    1.9436   -2.0708 C   0  0  0  0  0  0  0  0  0  0  0  0
   48.9112    2.4419   -2.5173 C   0  0  0  0  0  0  0  0  0  0  0  0
   49.8426    1.8077   -1.7764 C   0  0  0  0  0  0  0  0  0  0  0  0
   47.7891    1.0423   -1.0677 N   0  0  0  0  0  0  0  0  0  0  0  0
   49.1214    0.9260   -0.8783 C   0  0  0  0  0  0  0  0  0  0  0  0
   49.7662    0.0565    0.0177 C   0  0  0  0  0  0  0  0  0  0  0  0
   49.1410   -0.8117    0.9279 C   0  0  0  0  0  0  0  0  0  0  0  0
   49.7898   -1.6927    1.8335 C   0  0  0  0  0  0  0  0  0  0  0  0
   48.8267   -2.3170    2.5768 C   0  0  0  0  0  0  0  0  0  0  0  0
   47.5599   -1.8309    2.1496 C   0  0  0  0  0  0  0  0  0  0  0  0
   47.8000   -0.9350    1.1439 N   0  0  0  0  0  0  0  0  0  0  0  0
   46.3002   -2.2030    2.6333 C   0  0  0  0  0  0  0  0  0  0  0  0
   46.2839   -3.1493    3.7756 C   0  0  0  0  0  0  0  0  0  0  0  0
   45.6824   -4.4040    3.6506 C   0  0  0  0  0  0  0  0  0  0  0  0
   45.6608   -5.2831    4.7210 C   0  0  0  0  0  0  0  0  0  0  0  0
   46.2413   -4.8909    5.9161 C   0  0  0  0  0  0  0  0  0  0  0  0
   46.2222   -5.9993    7.2746 S   0  0  0  0  0  0  0  0  0  0  0  0
   46.0694   -7.3492    6.8203 O   0  0  0  0  0  0  0  0  0  0  0  0
   44.8269   -5.5204    7.9534 O   0  0  0  0  0  0  0  0  0  0  0  0
   47.2808   -5.7016    8.1949 O   0  0  0  0  0  0  0  0  0  0  0  0
   46.8492   -3.6554    6.0695 C   0  0  0  0  0  0  0  0  0  0  0  0
   46.8701   -2.7866    4.9911 C   0  0  0  0  0  0  0  0  0  0  0  0
   45.0759   -1.7479    2.1382 C   0  0  0  0  0  0  0  0  0  0  0  0
   43.7851   -2.1294    2.6853 C   0  0  0  0  0  0  0  0  0  0  0  0
   42.8542   -1.4928    1.9460 C   0  0  0  0  0  0  0  0  0  0  0  0
   43.5770   -0.7116    0.9603 C   0  0  0  0  0  0  0  0  0  0  0  0
   44.9088   -0.8809    1.1045 N   0  0  0  0  0  0  0  0  0  0  0  0
   41.8366    1.7811   -2.0458 H   0  0  0  0  0  0  0  0  0  0  0  0
   43.7140    2.9972   -3.5062 H   0  0  0  0  0  0  0  0  0  0  0  0
   45.6224    0.6614   -0.5520 H   0  0  0  0  0  0  0  0  0  0  0  0
   47.4809    1.9006   -5.0218 H   0  0  0  0  0  0  0  0  0  0  0  0
   47.5127    3.4231   -6.9846 H   0  0  0  0  0  0  0  0  0  0  0  0
   45.0211    5.8850   -8.9331 H   0  0  0  0  0  0  0  0  0  0  0  0
   45.4063    6.3884   -4.7224 H   0  0  0  0  0  0  0  0  0  0  0  0
   45.3845    4.8753   -2.7528 H   0  0  0  0  0  0  0  0  0  0  0  0
   49.0602    3.1880   -3.2808 H   0  0  0  0  0  0  0  0  0  0  0  0
   50.9152    1.9103   -1.8123 H   0  0  0  0  0  0  0  0  0  0  0  0
   50.8576   -1.8255    1.8996 H   0  0  0  0  0  0  0  0  0  0  0  0
   48.9769   -3.0560    3.3468 H   0  0  0  0  0  0  0  0  0  0  0  0
   47.0776   -0.4330    0.6384 H   0  0  0  0  0  0  0  0  0  0  0  0
   45.2439   -4.6958    2.7036 H   0  0  0  0  0  0  0  0  0  0  0  0
   45.2058   -6.2617    4.6324 H   0  0  0  0  0  0  0  0  0  0  0  0
   44.7312   -5.9102    8.8310 H   0  0  0  0  0  0  0  0  0  0  0  0
   47.2988   -3.3833    7.0162 H   0  0  0  0  0  0  0  0  0  0  0  0
   47.3297   -1.8104    5.0941 H   0  0  0  0  0  0  0  0  0  0  0  0
   43.6335   -2.7853    3.5271 H   0  0  0  0  0  0  0  0  0  0  0  0
   41.7809   -1.5224    2.0446 H   0  0  0  0  0  0  0  0  0  0  0  0
  1  2  4  0  0  0  0
  2  3  4  0  0  0  0
  3  4  2  0  0  0  0
  4  5  4  0  0  0  0
  2  6  4  0  0  0  0
  5  6  4  0  0  0  0
  5  7  4  0  0  0  0
  7  8  1  0  0  0  0
  8  9  4  0  0  0  0
  9 10  4  0  0  0  0
 10 11  4  0  0  0  0
 11 12  1  0  0  0  0
 12 13  2  0  0  0  0
 12 14  1  0  0  0  0
 12 15  2  0  0  0  0
 11 16  4  0  0  0  0
  8 17  4  0  0  0  0
 16 17  4  0  0  0  0
  7 18  4  0  0  0  0
 18 19  1  0  0  0  0
 19 20  2  0  0  0  0
 18 21  4  0  0  0  0
 20 22  1  0  0  0  0
 21 22  4  0  0  0  0
 22 23  4  0  0  0  0
 23 24  4  0  0  0  0
 24 25  4  0  0  0  0
 25 26  2  0  0  0  0
 26 27  4  0  0  0  0
 24 28  4  0  0  0  0
 27 28  4  0  0  0  0
 27 29  4  0  0  0  0
 29 30  1  0  0  0  0
 30 31  4  0  0  0  0
 31 32  4  0  0  0  0
 32 33  4  0  0  0  0
 33 34  1  0  0  0  0
 34 35  2  0  0  0  0
 34 36  1  0  0  0  0
 34 37  2  0  0  0  0
 33 38  4  0  0  0  0
 30 39  4  0  0  0  0
 38 39  4  0  0  0  0
 29 40  4  0  0  0  0
 40 41  1  0  0  0  0
 41 42  2  0  0  0  0
  1 43  4  0  0  0  0
 42 43  1  0  0  0  0
 40 44  4  0  0  0  0
 43 44  4  0  0  0  0
  1 45  1  0  0  0  0
  3 46  1  0  0  0  0
  4 47  1  0  0  0  0
  6 48  1  0  0  0  0
  9 49  1  0  0  0  0
 10 50  1  0  0  0  0
 14 51  1  0  0  0  0
 16 52  1  0  0  0  0
 17 53  1  0  0  0  0
 19 54  1  0  0  0  0
 20 55  1  0  0  0  0
 25 56  1  0  0  0  0
 26 57  1  0  0  0  0
 28 58  1  0  0  0  0
 31 59  1  0  0  0  0
 32 60  1  0  0  0  0
 36 61  1  0  0  0  0
 38 62  1  0  0  0  0
 39 63  1  0  0  0  0
 41 64  1  0  0  0  0
 42 65  1  0  0  0  0
 66 67  4  0  0  0  0
 67 68  4  0  0  0  0
 68 69  2  0  0  0  0
 69 70  4  0  0  0  0
 67 71  4  0  0  0  0
 70 71  4  0  0  0  0
 70 72  4  0  0  0  0
 72 73  1  0  0  0  0
 73 74  4  0  0  0  0
 74 75  4  0  0  0  0
 75 76  4  0  0  0  0
 76 77  1  0  0  0  0
 77 78  2  0  0  0  0
 77 79  1  0  0  0  0
 77 80  2  0  0  0  0
 76 81  4  0  0  0  0
 73 82  4  0  0  0  0
 81 82  4  0  0  0  0
 72 83  4  0  0  0  0
 83 84  1  0  0  0  0
 84 85  2  0  0  0  0
 83 86  4  0  0  0  0
 85 87  1  0  0  0  0
 86 87  4  0  0  0  0
 87 88  4  0  0  0  0
 88 89  4  0  0  0  0
 89 90  4  0  0  0  0
 90 91  2  0  0  0  0
 91 92  4  0  0  0  0
 89 93  4  0  0  0  0
 92 93  4  0  0  0  0
 92 94  4  0  0  0  0
 94 95  1  0  0  0  0
 95 96  4  0  0  0  0
 96 97  4  0  0  0  0
 97 98  4  0  0  0  0
 98 99  1  0  0  0  0
 99100  2  0  0  0  0
 99101  1  0  0  0  0
 99102  2  0  0  0  0
 98103  4  0  0  0  0
 95104  4  0  0  0  0
103104  4  0  0  0  0
 94105  4  0  0  0  0
105106  1  0  0  0  0
106107  2  0  0  0  0
 66108  4  0  0  0  0
107108  1  0  0  0  0
105109  4  0  0  0  0
108109  4  0  0  0  0
 66110  1  0  0  0  0
 68111  1  0  0  0  0
 69112  1  0  0  0  0
 71113  1  0  0  0  0
 74114  1  0  0  0  0
 75115  1  0  0  0  0
 79116  1  0  0  0  0
 81117  1  0  0  0  0
 82118  1  0  0  0  0
 84119  1  0  0  0  0
 85120  1  0  0  0  0
 90121  1  0  0  0  0
 91122  1  0  0  0  0
 93123  1  0  0  0  0
 96124  1  0  0  0  0
 97125  1  0  0  0  0
101126  1  0  0  0  0
103127  1  0  0  0  0
104128  1  0  0  0  0
106129  1  0  0  0  0
107130  1  0  0  0  0
 23131  1  0  0  0  0
131132  3  0  0  0  0
 88134  1  0  0  0  0
133134  3  0  0  0  0
132135  1  0  0  0  0
135136  4  0  0  0  0
136137  4  0  0  0  0
137138  2  0  0  0  0
138139  4  0  0  0  0
136140  4  0  0  0  0
139140  4  0  0  0  0
139141  4  0  0  0  0
141142  1  0  0  0  0
142143  4  0  0  0  0
143144  4  0  0  0  0
144145  4  0  0  0  0
145146  1  0  0  0  0
146147  2  0  0  0  0
146148  1  0  0  0  0
146149  2  0  0  0  0
145150  4  0  0  0  0
142151  4  0  0  0  0
150151  4  0  0  0  0
141152  4  0  0  0  0
152153  1  0  0  0  0
153154  2  0  0  0  0
152155  4  0  0  0  0
154156  1  0  0  0  0
155156  4  0  0  0  0
133157  1  0  0  0  0
156157  4  0  0  0  0
157158  4  0  0  0  0
158159  4  0  0  0  0
159160  2  0  0  0  0
160161  4  0  0  0  0
158162  4  0  0  0  0
161162  4  0  0  0  0
161163  4  0  0  0  0
163164  1  0  0  0  0
164165  4  0  0  0  0
165166  4  0  0  0  0
166167  4  0  0  0  0
167168  1  0  0  0  0
168169  2  0  0  0  0
168170  1  0  0  0  0
168171  2  0  0  0  0
167172  4  0  0  0  0
164173  4  0  0  0  0
172173  4  0  0  0  0
163174  4  0  0  0  0
174175  1  0  0  0  0
175176  2  0  0  0  0
135177  4  0  0  0  0
176177  1  0  0  0  0
174178  4  0  0  0  0
177178  4  0  0  0  0
137179  1  0  0  0  0
138180  1  0  0  0  0
140181  1  0  0  0  0
143182  1  0  0  0  0
144183  1  0  0  0  0
148184  1  0  0  0  0
150185  1  0  0  0  0
151186  1  0  0  0  0
153187  1  0  0  0  0
154188  1  0  0  0  0
159189  1  0  0  0  0
160190  1  0  0  0  0
162191  1  0  0  0  0
165192  1  0  0  0  0
166193  1  0  0  0  0
170194  1  0  0  0  0
172195  1  0  0  0  0
173196  1  0  0  0  0
175197  1  0  0  0  0
176198  1  0  0  0  0
M  END
