 xtb: 6.5.1 (b24c23e)
          07302211343D

120139  0     0  0            999 V2000
   15.5547   -0.0522   -0.0058 Zn  0  0  0  0  0  0  0  0  0  0  0  0
   12.1457   -0.0892   -0.0999 C   0  0  0  0  0  0  0  0  0  0  0  0
   12.7759   -1.3258   -0.0277 C   0  0  0  0  0  0  0  0  0  0  0  0
   12.1014   -2.5909    0.0536 C   0  0  0  0  0  0  0  0  0  0  0  0
   13.0601   -3.5470    0.1391 C   0  0  0  0  0  0  0  0  0  0  0  0
   14.3335   -2.8780    0.0990 C   0  0  0  0  0  0  0  0  0  0  0  0
   14.1252   -1.5329    0.0035 N   0  0  0  0  0  0  0  0  0  0  0  0
   15.5840   -3.5038    0.1766 C   0  0  0  0  0  0  0  0  0  0  0  0
   15.5963   -4.9854    0.2732 C   0  0  0  0  0  0  0  0  0  0  0  0
   15.0644   -5.7702   -0.7503 C   0  0  0  0  0  0  0  0  0  0  0  0
   15.0715   -7.1537   -0.6598 C   0  0  0  0  0  0  0  0  0  0  0  0
   15.6092   -7.7698    0.4677 C   0  0  0  0  0  0  0  0  0  0  0  0
   15.6319   -9.1220    0.5994 O   0  0  0  0  0  0  0  0  0  0  0  0
   16.1425   -6.9982    1.4980 C   0  0  0  0  0  0  0  0  0  0  0  0
   16.1366   -5.6183    1.3952 C   0  0  0  0  0  0  0  0  0  0  0  0
   16.8223   -2.8518    0.1756 C   0  0  0  0  0  0  0  0  0  0  0  0
   18.1025   -3.5035    0.1969 C   0  0  0  0  0  0  0  0  0  0  0  0
   19.0484   -2.5300    0.1645 C   0  0  0  0  0  0  0  0  0  0  0  0
   17.0155   -1.4969    0.1199 N   0  0  0  0  0  0  0  0  0  0  0  0
   18.3575   -1.2753    0.1167 C   0  0  0  0  0  0  0  0  0  0  0  0
   18.9885   -0.0160    0.0602 C   0  0  0  0  0  0  0  0  0  0  0  0
   18.3343    1.2308   -0.0090 C   0  0  0  0  0  0  0  0  0  0  0  0
   19.0010    2.4967   -0.0890 C   0  0  0  0  0  0  0  0  0  0  0  0
   18.0365    3.4506   -0.1490 C   0  0  0  0  0  0  0  0  0  0  0  0
   16.7691    2.7761   -0.0989 C   0  0  0  0  0  0  0  0  0  0  0  0
   16.9882    1.4262   -0.0219 N   0  0  0  0  0  0  0  0  0  0  0  0
   15.5182    3.4016   -0.1516 C   0  0  0  0  0  0  0  0  0  0  0  0
   15.5011    4.8853   -0.2010 C   0  0  0  0  0  0  0  0  0  0  0  0
   16.0404    5.6373    0.8455 C   0  0  0  0  0  0  0  0  0  0  0  0
   16.0184    7.0206    0.8106 C   0  0  0  0  0  0  0  0  0  0  0  0
   15.4574    7.6751   -0.2842 C   0  0  0  0  0  0  0  0  0  0  0  0
   15.4525    9.0339   -0.2880 O   0  0  0  0  0  0  0  0  0  0  0  0
   14.9202    6.9393   -1.3378 C   0  0  0  0  0  0  0  0  0  0  0  0
   14.9413    5.5538   -1.2904 C   0  0  0  0  0  0  0  0  0  0  0  0
   14.2798    2.7475   -0.1593 C   0  0  0  0  0  0  0  0  0  0  0  0
   12.9937    3.3929   -0.1704 C   0  0  0  0  0  0  0  0  0  0  0  0
   12.0535    2.4149   -0.1639 C   0  0  0  0  0  0  0  0  0  0  0  0
   12.7522    1.1608   -0.1366 C   0  0  0  0  0  0  0  0  0  0  0  0
   14.0972    1.3955   -0.1312 N   0  0  0  0  0  0  0  0  0  0  0  0
   11.0601   -0.1000   -0.1129 H   0  0  0  0  0  0  0  0  0  0  0  0
   11.0302   -2.7188    0.0540 H   0  0  0  0  0  0  0  0  0  0  0  0
   12.9204   -4.6120    0.2344 H   0  0  0  0  0  0  0  0  0  0  0  0
   14.6568   -5.2928   -1.6346 H   0  0  0  0  0  0  0  0  0  0  0  0
   14.6619   -7.7586   -1.4617 H   0  0  0  0  0  0  0  0  0  0  0  0
   15.2359   -9.5565   -0.1677 H   0  0  0  0  0  0  0  0  0  0  0  0
   16.5543   -7.4904    2.3704 H   0  0  0  0  0  0  0  0  0  0  0  0
   16.5401   -5.0181    2.2031 H   0  0  0  0  0  0  0  0  0  0  0  0
   18.2569   -4.5703    0.2182 H   0  0  0  0  0  0  0  0  0  0  0  0
   20.1208   -2.6445    0.1662 H   0  0  0  0  0  0  0  0  0  0  0  0
   20.0709    2.6317   -0.1034 H   0  0  0  0  0  0  0  0  0  0  0  0
   18.1709    4.5169   -0.2349 H   0  0  0  0  0  0  0  0  0  0  0  0
   16.4649    5.1287    1.7039 H   0  0  0  0  0  0  0  0  0  0  0  0
   16.4296    7.6050    1.6244 H   0  0  0  0  0  0  0  0  0  0  0  0
   15.0387    9.3809   -1.0895 H   0  0  0  0  0  0  0  0  0  0  0  0
   14.4889    7.4533   -2.1902 H   0  0  0  0  0  0  0  0  0  0  0  0
   14.5341    4.9826   -2.1173 H   0  0  0  0  0  0  0  0  0  0  0  0
   12.8336    4.4593   -0.1689 H   0  0  0  0  0  0  0  0  0  0  0  0
   10.9800    2.5220   -0.1673 H   0  0  0  0  0  0  0  0  0  0  0  0
   29.0289    0.0515   -0.0136 Zn  0  0  0  0  0  0  0  0  0  0  0  0
   32.4381    0.0747   -0.1120 C   0  0  0  0  0  0  0  0  0  0  0  0
   31.8078    1.3089   -0.2160 C   0  0  0  0  0  0  0  0  0  0  0  0
   32.4822    2.5728   -0.3146 C   0  0  0  0  0  0  0  0  0  0  0  0
   31.5234    3.5313   -0.3669 C   0  0  0  0  0  0  0  0  0  0  0  0
   30.2500    2.8632   -0.3130 C   0  0  0  0  0  0  0  0  0  0  0  0
   30.4584    1.5182   -0.2159 N   0  0  0  0  0  0  0  0  0  0  0  0
   28.9994    3.4935   -0.3276 C   0  0  0  0  0  0  0  0  0  0  0  0
   28.9871    4.9736   -0.4446 C   0  0  0  0  0  0  0  0  0  0  0  0
   29.5220    5.6035   -1.5686 C   0  0  0  0  0  0  0  0  0  0  0  0
   29.5144    6.9857   -1.6778 C   0  0  0  0  0  0  0  0  0  0  0  0
   28.9730    7.7570   -0.6522 C   0  0  0  0  0  0  0  0  0  0  0  0
   28.9492    9.1141   -0.7166 O   0  0  0  0  0  0  0  0  0  0  0  0
   28.4369    7.1411    0.4768 C   0  0  0  0  0  0  0  0  0  0  0  0
   28.4434    5.7608    0.5734 C   0  0  0  0  0  0  0  0  0  0  0  0
   27.7611    2.8479   -0.2368 C   0  0  0  0  0  0  0  0  0  0  0  0
   26.4809    3.4957   -0.3110 C   0  0  0  0  0  0  0  0  0  0  0  0
   25.5350    2.5277   -0.2034 C   0  0  0  0  0  0  0  0  0  0  0  0
   27.5680    1.4991   -0.0969 N   0  0  0  0  0  0  0  0  0  0  0  0
   26.2259    1.2793   -0.0690 C   0  0  0  0  0  0  0  0  0  0  0  0
   25.5951    0.0250    0.0571 C   0  0  0  0  0  0  0  0  0  0  0  0
   26.2494   -1.2187    0.1689 C   0  0  0  0  0  0  0  0  0  0  0  0
   25.5827   -2.4829    0.2734 C   0  0  0  0  0  0  0  0  0  0  0  0
   26.5473   -3.4354    0.3511 C   0  0  0  0  0  0  0  0  0  0  0  0
   27.8146   -2.7608    0.3017 C   0  0  0  0  0  0  0  0  0  0  0  0
   27.5954   -1.4138    0.1831 N   0  0  0  0  0  0  0  0  0  0  0  0
   29.0656   -3.3874    0.3377 C   0  0  0  0  0  0  0  0  0  0  0  0
   29.0828   -4.8628    0.5019 C   0  0  0  0  0  0  0  0  0  0  0  0
   28.5472   -5.4565    1.6474 C   0  0  0  0  0  0  0  0  0  0  0  0
   28.5697   -6.8304    1.8116 C   0  0  0  0  0  0  0  0  0  0  0  0
   29.1272   -7.6354    0.8203 C   0  0  0  0  0  0  0  0  0  0  0  0
   29.1330   -8.9807    1.0119 O   0  0  0  0  0  0  0  0  0  0  0  0
   29.6603   -7.0589   -0.3300 C   0  0  0  0  0  0  0  0  0  0  0  0
   29.6389   -5.6809   -0.4821 C   0  0  0  0  0  0  0  0  0  0  0  0
   30.3040   -2.7414    0.2344 C   0  0  0  0  0  0  0  0  0  0  0  0
   31.5900   -3.3820    0.3139 C   0  0  0  0  0  0  0  0  0  0  0  0
   32.5302   -2.4131    0.1801 C   0  0  0  0  0  0  0  0  0  0  0  0
   31.8316   -1.1678    0.0292 C   0  0  0  0  0  0  0  0  0  0  0  0
   30.4865   -1.3992    0.0692 N   0  0  0  0  0  0  0  0  0  0  0  0
   33.5237    0.0835   -0.1263 H   0  0  0  0  0  0  0  0  0  0  0  0
   33.5534    2.6996   -0.3309 H   0  0  0  0  0  0  0  0  0  0  0  0
   31.6631    4.5990   -0.4236 H   0  0  0  0  0  0  0  0  0  0  0  0
   29.9324    5.0042   -2.3739 H   0  0  0  0  0  0  0  0  0  0  0  0
   29.9264    7.4692   -2.5570 H   0  0  0  0  0  0  0  0  0  0  0  0
   29.3474    9.4341   -1.5371 H   0  0  0  0  0  0  0  0  0  0  0  0
   28.0225    7.7533    1.2683 H   0  0  0  0  0  0  0  0  0  0  0  0
   28.0379    5.2827    1.4580 H   0  0  0  0  0  0  0  0  0  0  0  0
   26.3265    4.5545   -0.4442 H   0  0  0  0  0  0  0  0  0  0  0  0
   24.4626    2.6409   -0.2192 H   0  0  0  0  0  0  0  0  0  0  0  0
   24.5129   -2.6185    0.2798 H   0  0  0  0  0  0  0  0  0  0  0  0
   26.4132   -4.5029    0.4205 H   0  0  0  0  0  0  0  0  0  0  0  0
   28.1254   -4.8297    2.4252 H   0  0  0  0  0  0  0  0  0  0  0  0
   28.1615   -7.2917    2.7024 H   0  0  0  0  0  0  0  0  0  0  0  0
   29.5439   -9.4393    0.2669 H   0  0  0  0  0  0  0  0  0  0  0  0
   30.0886   -7.6902   -1.1013 H   0  0  0  0  0  0  0  0  0  0  0  0
   30.0431   -5.2343   -1.3838 H   0  0  0  0  0  0  0  0  0  0  0  0
   31.7500   -4.4374    0.4669 H   0  0  0  0  0  0  0  0  0  0  0  0
   33.6038   -2.5199    0.1908 H   0  0  0  0  0  0  0  0  0  0  0  0
   21.6168   -0.0004    0.0661 C   0  0  0  0  0  0  0  0  0  0  0  0
   20.3945   -0.0038    0.0641 C   0  0  0  0  0  0  0  0  0  0  0  0
   22.9667    0.0082    0.0658 C   0  0  0  0  0  0  0  0  0  0  0  0
   24.1890    0.0135    0.0628 C   0  0  0  0  0  0  0  0  0  0  0  0
  2  3  4  0  0  0  0
  3  4  4  0  0  0  0
  4  5  2  0  0  0  0
  5  6  4  0  0  0  0
  1  7  1  0  0  0  0
  3  7  4  0  0  0  0
  6  7  4  0  0  0  0
  6  8  4  0  0  0  0
  8  9  1  0  0  0  0
  9 10  4  0  0  0  0
 10 11  4  0  0  0  0
 11 12  4  0  0  0  0
 12 13  1  0  0  0  0
 12 14  4  0  0  0  0
  9 15  4  0  0  0  0
 14 15  4  0  0  0  0
  8 16  4  0  0  0  0
 16 17  4  0  0  0  0
 17 18  2  0  0  0  0
  1 19  1  0  0  0  0
 16 19  4  0  0  0  0
 18 20  4  0  0  0  0
 19 20  4  0  0  0  0
 20 21  4  0  0  0  0
 21 22  4  0  0  0  0
 22 23  4  0  0  0  0
 23 24  2  0  0  0  0
 24 25  4  0  0  0  0
  1 26  1  0  0  0  0
 22 26  4  0  0  0  0
 25 26  4  0  0  0  0
 25 27  4  0  0  0  0
 27 28  1  0  0  0  0
 28 29  4  0  0  0  0
 29 30  4  0  0  0  0
 30 31  4  0  0  0  0
 31 32  1  0  0  0  0
 31 33  4  0  0  0  0
 28 34  4  0  0  0  0
 33 34  4  0  0  0  0
 27 35  4  0  0  0  0
 35 36  4  0  0  0  0
 36 37  2  0  0  0  0
  2 38  4  0  0  0  0
 37 38  4  0  0  0  0
  1 39  1  0  0  0  0
 35 39  4  0  0  0  0
 38 39  4  0  0  0  0
  2 40  1  0  0  0  0
  4 41  1  0  0  0  0
  5 42  1  0  0  0  0
 10 43  1  0  0  0  0
 11 44  1  0  0  0  0
 13 45  1  0  0  0  0
 14 46  1  0  0  0  0
 15 47  1  0  0  0  0
 17 48  1  0  0  0  0
 18 49  1  0  0  0  0
 23 50  1  0  0  0  0
 24 51  1  0  0  0  0
 29 52  1  0  0  0  0
 30 53  1  0  0  0  0
 32 54  1  0  0  0  0
 33 55  1  0  0  0  0
 34 56  1  0  0  0  0
 36 57  1  0  0  0  0
 37 58  1  0  0  0  0
 60 61  4  0  0  0  0
 61 62  4  0  0  0  0
 62 63  2  0  0  0  0
 63 64  4  0  0  0  0
 59 65  1  0  0  0  0
 61 65  4  0  0  0  0
 64 65  4  0  0  0  0
 64 66  4  0  0  0  0
 66 67  1  0  0  0  0
 67 68  4  0  0  0  0
 68 69  4  0  0  0  0
 69 70  4  0  0  0  0
 70 71  1  0  0  0  0
 70 72  4  0  0  0  0
 67 73  4  0  0  0  0
 72 73  4  0  0  0  0
 66 74  4  0  0  0  0
 74 75  4  0  0  0  0
 75 76  2  0  0  0  0
 59 77  1  0  0  0  0
 74 77  4  0  0  0  0
 76 78  4  0  0  0  0
 77 78  4  0  0  0  0
 78 79  4  0  0  0  0
 79 80  4  0  0  0  0
 80 81  4  0  0  0  0
 81 82  2  0  0  0  0
 82 83  4  0  0  0  0
 59 84  1  0  0  0  0
 80 84  4  0  0  0  0
 83 84  4  0  0  0  0
 83 85  4  0  0  0  0
 85 86  1  0  0  0  0
 86 87  4  0  0  0  0
 87 88  4  0  0  0  0
 88 89  4  0  0  0  0
 89 90  1  0  0  0  0
 89 91  4  0  0  0  0
 86 92  4  0  0  0  0
 91 92  4  0  0  0  0
 85 93  4  0  0  0  0
 93 94  4  0  0  0  0
 94 95  2  0  0  0  0
 60 96  4  0  0  0  0
 95 96  4  0  0  0  0
 59 97  1  0  0  0  0
 93 97  4  0  0  0  0
 96 97  4  0  0  0  0
 60 98  1  0  0  0  0
 62 99  1  0  0  0  0
 63100  1  0  0  0  0
 68101  1  0  0  0  0
 69102  1  0  0  0  0
 71103  1  0  0  0  0
 72104  1  0  0  0  0
 73105  1  0  0  0  0
 75106  1  0  0  0  0
 76107  1  0  0  0  0
 81108  1  0  0  0  0
 82109  1  0  0  0  0
 87110  1  0  0  0  0
 88111  1  0  0  0  0
 90112  1  0  0  0  0
 91113  1  0  0  0  0
 92114  1  0  0  0  0
 94115  1  0  0  0  0
 95116  1  0  0  0  0
 21118  4  0  0  0  0
117118  3  0  0  0  0
117119  4  0  0  0  0
 79120  4  0  0  0  0
119120  3  0  0  0  0
M  END
