 xtb: 6.5.1 (b24c23e)
          07262214183D

380429  0     0  0            999 V2000
   79.4295    0.0176   -0.0191 C   0  0  0  0  0  0  0  0  0  0  0  0
   80.0342   -1.2067   -0.2736 C   0  0  0  0  0  0  0  0  0  0  0  0
   79.4003   -2.4534   -0.5448 C   0  0  0  0  0  0  0  0  0  0  0  0
   80.3777   -3.3890   -0.7362 C   0  0  0  0  0  0  0  0  0  0  0  0
   81.6393   -2.7439   -0.5878 C   0  0  0  0  0  0  0  0  0  0  0  0
   81.3807   -1.4328   -0.3098 N   0  0  0  0  0  0  0  0  0  0  0  0
   82.8988   -3.3196   -0.7045 C   0  0  0  0  0  0  0  0  0  0  0  0
   84.1294   -2.6938   -0.5645 C   0  0  0  0  0  0  0  0  0  0  0  0
   85.3950   -3.3883   -0.7207 C   0  0  0  0  0  0  0  0  0  0  0  0
   86.3611   -2.4683   -0.5206 C   0  0  0  0  0  0  0  0  0  0  0  0
   84.3467   -1.3823   -0.2748 N   0  0  0  0  0  0  0  0  0  0  0  0
   85.6834   -1.2157   -0.2392 C   0  0  0  0  0  0  0  0  0  0  0  0
   86.3588   -0.0052    0.0179 C   0  0  0  0  0  0  0  0  0  0  0  0
   85.7283    1.2266    0.2748 C   0  0  0  0  0  0  0  0  0  0  0  0
   86.3542    2.4700    0.5599 C   0  0  0  0  0  0  0  0  0  0  0  0
   85.3726    3.4024    0.7540 C   0  0  0  0  0  0  0  0  0  0  0  0
   84.1163    2.7539    0.5960 C   0  0  0  0  0  0  0  0  0  0  0  0
   84.3833    1.4427    0.3084 N   0  0  0  0  0  0  0  0  0  0  0  0
   82.8580    3.3321    0.7115 C   0  0  0  0  0  0  0  0  0  0  0  0
   81.6265    2.7059    0.5675 C   0  0  0  0  0  0  0  0  0  0  0  0
   80.3536    3.3963    0.7069 C   0  0  0  0  0  0  0  0  0  0  0  0
   79.3939    2.4717    0.5029 C   0  0  0  0  0  0  0  0  0  0  0  0
   80.0816    1.2175    0.2398 C   0  0  0  0  0  0  0  0  0  0  0  0
   81.4230    1.3973    0.2863 N   0  0  0  0  0  0  0  0  0  0  0  0
   78.3448    0.0294   -0.0248 H   0  0  0  0  0  0  0  0  0  0  0  0
   78.3326   -2.5998   -0.5855 H   0  0  0  0  0  0  0  0  0  0  0  0
   80.2503   -4.4361   -0.9611 H   0  0  0  0  0  0  0  0  0  0  0  0
   82.0864   -0.7213   -0.1520 H   0  0  0  0  0  0  0  0  0  0  0  0
   82.9127   -4.3802   -0.9348 H   0  0  0  0  0  0  0  0  0  0  0  0
   85.4970   -4.4364   -0.9549 H   0  0  0  0  0  0  0  0  0  0  0  0
   87.4309   -2.5962   -0.5594 H   0  0  0  0  0  0  0  0  0  0  0  0
   87.4203    2.6207    0.6136 H   0  0  0  0  0  0  0  0  0  0  0  0
   85.4965    4.4476    0.9886 H   0  0  0  0  0  0  0  0  0  0  0  0
   83.6807    0.7286    0.1466 H   0  0  0  0  0  0  0  0  0  0  0  0
   82.8469    4.3926    0.9419 H   0  0  0  0  0  0  0  0  0  0  0  0
   80.2456    4.4463    0.9307 H   0  0  0  0  0  0  0  0  0  0  0  0
   78.3220    2.5924    0.5219 H   0  0  0  0  0  0  0  0  0  0  0  0
  185.7480   -0.0195    0.0069 C   0  0  0  0  0  0  0  0  0  0  0  0
  185.1406    1.1957   -0.2823 C   0  0  0  0  0  0  0  0  0  0  0  0
  185.7710    2.4392   -0.5750 C   0  0  0  0  0  0  0  0  0  0  0  0
  184.7909    3.3640   -0.8021 C   0  0  0  0  0  0  0  0  0  0  0  0
  183.5311    2.7152   -0.6548 C   0  0  0  0  0  0  0  0  0  0  0  0
  183.7933    1.4129   -0.3410 N   0  0  0  0  0  0  0  0  0  0  0  0
  182.2703    3.2803   -0.8038 C   0  0  0  0  0  0  0  0  0  0  0  0
  181.0406    2.6529   -0.6626 C   0  0  0  0  0  0  0  0  0  0  0  0
  179.7747    3.3378   -0.8540 C   0  0  0  0  0  0  0  0  0  0  0  0
  178.8094    2.4213   -0.6352 C   0  0  0  0  0  0  0  0  0  0  0  0
  180.8241    1.3498   -0.3360 N   0  0  0  0  0  0  0  0  0  0  0  0
  179.4876    1.1803   -0.3077 C   0  0  0  0  0  0  0  0  0  0  0  0
  178.8131   -0.0229   -0.0149 C   0  0  0  0  0  0  0  0  0  0  0  0
  179.4470   -1.2450    0.2789 C   0  0  0  0  0  0  0  0  0  0  0  0
  178.8251   -2.4828    0.5947 C   0  0  0  0  0  0  0  0  0  0  0  0
  179.8095   -3.4063    0.8150 C   0  0  0  0  0  0  0  0  0  0  0  0
  181.0639   -2.7574    0.6441 C   0  0  0  0  0  0  0  0  0  0  0  0
  180.7927   -1.4551    0.3217 N   0  0  0  0  0  0  0  0  0  0  0  0
  182.3235   -3.3282    0.7802 C   0  0  0  0  0  0  0  0  0  0  0  0
  183.5543   -2.7020    0.6301 C   0  0  0  0  0  0  0  0  0  0  0  0
  184.8280   -3.3852    0.7962 C   0  0  0  0  0  0  0  0  0  0  0  0
  185.7867   -2.4620    0.5814 C   0  0  0  0  0  0  0  0  0  0  0  0
  185.0977   -1.2162    0.2844 C   0  0  0  0  0  0  0  0  0  0  0  0
  183.7565   -1.3995    0.3218 N   0  0  0  0  0  0  0  0  0  0  0  0
  186.8328   -0.0264    0.0140 H   0  0  0  0  0  0  0  0  0  0  0  0
  186.8383    2.5910   -0.6050 H   0  0  0  0  0  0  0  0  0  0  0  0
  184.9154    4.4061   -1.0506 H   0  0  0  0  0  0  0  0  0  0  0  0
  183.0900    0.7010   -0.1751 H   0  0  0  0  0  0  0  0  0  0  0  0
  182.2542    4.3343   -1.0627 H   0  0  0  0  0  0  0  0  0  0  0  0
  179.6720    4.3777   -1.1218 H   0  0  0  0  0  0  0  0  0  0  0  0
  177.7399    2.5442   -0.6905 H   0  0  0  0  0  0  0  0  0  0  0  0
  177.7595   -2.6363    0.6492 H   0  0  0  0  0  0  0  0  0  0  0  0
  179.6888   -4.4456    1.0761 H   0  0  0  0  0  0  0  0  0  0  0  0
  181.4929   -0.7424    0.1439 H   0  0  0  0  0  0  0  0  0  0  0  0
  182.3364   -4.3828    1.0363 H   0  0  0  0  0  0  0  0  0  0  0  0
  184.9372   -4.4296    1.0438 H   0  0  0  0  0  0  0  0  0  0  0  0
  186.8588   -2.5788    0.6132 H   0  0  0  0  0  0  0  0  0  0  0  0
   87.7670   -0.0112    0.0179 C   0  0  0  0  0  0  0  0  0  0  0  0
   88.9843   -0.0090    0.0173 C   0  0  0  0  0  0  0  0  0  0  0  0
   98.8071    0.0286   -0.0091 C   0  0  0  0  0  0  0  0  0  0  0  0
  100.0250    0.0303   -0.0113 C   0  0  0  0  0  0  0  0  0  0  0  0
  109.8534    0.0083    0.0253 C   0  0  0  0  0  0  0  0  0  0  0  0
  111.0714    0.0053    0.0270 C   0  0  0  0  0  0  0  0  0  0  0  0
  120.9084   -0.0024   -0.0113 C   0  0  0  0  0  0  0  0  0  0  0  0
  122.1267   -0.0019   -0.0191 C   0  0  0  0  0  0  0  0  0  0  0  0
  131.9752   -0.0176   -0.0035 C   0  0  0  0  0  0  0  0  0  0  0  0
  133.1938   -0.0147   -0.0058 C   0  0  0  0  0  0  0  0  0  0  0  0
  143.0363    0.0165   -0.0020 C   0  0  0  0  0  0  0  0  0  0  0  0
  144.2544    0.0150   -0.0024 C   0  0  0  0  0  0  0  0  0  0  0  0
  154.0852   -0.0038    0.0153 C   0  0  0  0  0  0  0  0  0  0  0  0
  155.3031   -0.0034    0.0124 C   0  0  0  0  0  0  0  0  0  0  0  0
  165.1364   -0.0005    0.0020 C   0  0  0  0  0  0  0  0  0  0  0  0
  166.3545   -0.0014    0.0017 C   0  0  0  0  0  0  0  0  0  0  0  0
  176.1875   -0.0145   -0.0068 C   0  0  0  0  0  0  0  0  0  0  0  0
  177.4050   -0.0178   -0.0131 C   0  0  0  0  0  0  0  0  0  0  0  0
   90.3916   -0.0027    0.0092 C   0  0  0  0  0  0  0  0  0  0  0  0
   91.0263    1.2258   -0.2566 C   0  0  0  0  0  0  0  0  0  0  0  0
   90.4106    2.4720   -0.5458 C   0  0  0  0  0  0  0  0  0  0  0  0
   91.4013    3.3931   -0.7534 C   0  0  0  0  0  0  0  0  0  0  0  0
   92.6510    2.7332   -0.5984 C   0  0  0  0  0  0  0  0  0  0  0  0
   92.3732    1.4279   -0.2987 N   0  0  0  0  0  0  0  0  0  0  0  0
   93.9137    3.3016   -0.7301 C   0  0  0  0  0  0  0  0  0  0  0  0
   95.1485    2.6866   -0.5934 C   0  0  0  0  0  0  0  0  0  0  0  0
   96.4071    3.3903   -0.7628 C   0  0  0  0  0  0  0  0  0  0  0  0
   97.3825    2.4802   -0.5605 C   0  0  0  0  0  0  0  0  0  0  0  0
   95.3794    1.3789   -0.2951 N   0  0  0  0  0  0  0  0  0  0  0  0
   96.7172    1.2244   -0.2673 C   0  0  0  0  0  0  0  0  0  0  0  0
   97.4006    0.0181   -0.0085 C   0  0  0  0  0  0  0  0  0  0  0  0
   96.7656   -1.2118    0.2513 C   0  0  0  0  0  0  0  0  0  0  0  0
   97.3806   -2.4588    0.5391 C   0  0  0  0  0  0  0  0  0  0  0  0
   96.3896   -3.3818    0.7347 C   0  0  0  0  0  0  0  0  0  0  0  0
   95.1401   -2.7222    0.5758 C   0  0  0  0  0  0  0  0  0  0  0  0
   95.4187   -1.4148    0.2846 N   0  0  0  0  0  0  0  0  0  0  0  0
   93.8777   -3.2917    0.7015 C   0  0  0  0  0  0  0  0  0  0  0  0
   92.6426   -2.6752    0.5716 C   0  0  0  0  0  0  0  0  0  0  0  0
   91.3840   -3.3784    0.7452 C   0  0  0  0  0  0  0  0  0  0  0  0
   90.4086   -2.4660    0.5554 C   0  0  0  0  0  0  0  0  0  0  0  0
   91.0737   -1.2099    0.2628 C   0  0  0  0  0  0  0  0  0  0  0  0
   92.4121   -1.3661    0.2816 N   0  0  0  0  0  0  0  0  0  0  0  0
   89.3458    2.6332   -0.5939 H   0  0  0  0  0  0  0  0  0  0  0  0
   91.2865    4.4376   -0.9954 H   0  0  0  0  0  0  0  0  0  0  0  0
   93.0659    0.7041   -0.1365 H   0  0  0  0  0  0  0  0  0  0  0  0
   93.9228    4.3596   -0.9733 H   0  0  0  0  0  0  0  0  0  0  0  0
   96.4988    4.4374   -1.0055 H   0  0  0  0  0  0  0  0  0  0  0  0
   98.4511    2.6166   -0.6064 H   0  0  0  0  0  0  0  0  0  0  0  0
   98.4449   -2.6195    0.5938 H   0  0  0  0  0  0  0  0  0  0  0  0
   96.5038   -4.4275    0.9718 H   0  0  0  0  0  0  0  0  0  0  0  0
   94.7264   -0.6913    0.1202 H   0  0  0  0  0  0  0  0  0  0  0  0
   93.8685   -4.3514    0.9373 H   0  0  0  0  0  0  0  0  0  0  0  0
   91.2927   -4.4266    0.9831 H   0  0  0  0  0  0  0  0  0  0  0  0
   89.3403   -2.6010    0.6088 H   0  0  0  0  0  0  0  0  0  0  0  0
  101.4315    0.0343   -0.0112 C   0  0  0  0  0  0  0  0  0  0  0  0
  102.0744    1.2690    0.2023 C   0  0  0  0  0  0  0  0  0  0  0  0
  101.4687    2.5310    0.4393 C   0  0  0  0  0  0  0  0  0  0  0  0
  102.4669    3.4526    0.6033 C   0  0  0  0  0  0  0  0  0  0  0  0
  103.7114    2.7772    0.4745 C   0  0  0  0  0  0  0  0  0  0  0  0
  103.4229    1.4623    0.2322 N   0  0  0  0  0  0  0  0  0  0  0  0
  104.9783    3.3408    0.5835 C   0  0  0  0  0  0  0  0  0  0  0  0
  106.2094    2.7118    0.4801 C   0  0  0  0  0  0  0  0  0  0  0  0
  107.4716    3.4133    0.6310 C   0  0  0  0  0  0  0  0  0  0  0  0
  108.4420    2.4888    0.4755 C   0  0  0  0  0  0  0  0  0  0  0  0
  106.4334    1.3914    0.2381 N   0  0  0  0  0  0  0  0  0  0  0  0
  107.7704    1.2269    0.2273 C   0  0  0  0  0  0  0  0  0  0  0  0
  108.4470    0.0067    0.0197 C   0  0  0  0  0  0  0  0  0  0  0  0
  107.8037   -1.2272   -0.1974 C   0  0  0  0  0  0  0  0  0  0  0  0
  108.4094   -2.4893   -0.4343 C   0  0  0  0  0  0  0  0  0  0  0  0
  107.4113   -3.4096   -0.6055 C   0  0  0  0  0  0  0  0  0  0  0  0
  106.1668   -2.7335   -0.4803 C   0  0  0  0  0  0  0  0  0  0  0  0
  106.4552   -1.4193   -0.2336 N   0  0  0  0  0  0  0  0  0  0  0  0
  104.9001   -3.2965   -0.5933 C   0  0  0  0  0  0  0  0  0  0  0  0
  103.6689   -2.6681   -0.4861 C   0  0  0  0  0  0  0  0  0  0  0  0
  102.4066   -3.3700   -0.6343 C   0  0  0  0  0  0  0  0  0  0  0  0
  101.4363   -2.4467   -0.4716 C   0  0  0  0  0  0  0  0  0  0  0  0
  102.1081   -1.1850   -0.2230 C   0  0  0  0  0  0  0  0  0  0  0  0
  103.4452   -1.3486   -0.2395 N   0  0  0  0  0  0  0  0  0  0  0  0
  100.4055    2.7024    0.4828 H   0  0  0  0  0  0  0  0  0  0  0  0
  102.3607    4.5076    0.7997 H   0  0  0  0  0  0  0  0  0  0  0  0
  104.1092    0.7267    0.0986 H   0  0  0  0  0  0  0  0  0  0  0  0
  104.9948    4.4084    0.7804 H   0  0  0  0  0  0  0  0  0  0  0  0
  107.5689    4.4687    0.8316 H   0  0  0  0  0  0  0  0  0  0  0  0
  109.5111    2.6194    0.5266 H   0  0  0  0  0  0  0  0  0  0  0  0
  109.4726   -2.6616   -0.4729 H   0  0  0  0  0  0  0  0  0  0  0  0
  107.5175   -4.4642   -0.8039 H   0  0  0  0  0  0  0  0  0  0  0  0
  105.7690   -0.6834   -0.1017 H   0  0  0  0  0  0  0  0  0  0  0  0
  104.8836   -4.3634   -0.7940 H   0  0  0  0  0  0  0  0  0  0  0  0
  102.3092   -4.4249   -0.8376 H   0  0  0  0  0  0  0  0  0  0  0  0
  100.3671   -2.5781   -0.5182 H   0  0  0  0  0  0  0  0  0  0  0  0
  112.4778    0.0094    0.0257 C   0  0  0  0  0  0  0  0  0  0  0  0
  113.1197    1.2362   -0.2325 C   0  0  0  0  0  0  0  0  0  0  0  0
  112.5135    2.4884   -0.5152 C   0  0  0  0  0  0  0  0  0  0  0  0
  113.5112    3.4032   -0.7158 C   0  0  0  0  0  0  0  0  0  0  0  0
  114.7560    2.7331   -0.5644 C   0  0  0  0  0  0  0  0  0  0  0  0
  114.4682    1.4283   -0.2720 N   0  0  0  0  0  0  0  0  0  0  0  0
  116.0222    3.2926   -0.6989 C   0  0  0  0  0  0  0  0  0  0  0  0
  117.2547    2.6704   -0.5751 C   0  0  0  0  0  0  0  0  0  0  0  0
  118.5142    3.3684   -0.7594 C   0  0  0  0  0  0  0  0  0  0  0  0
  119.4876    2.4536   -0.5700 C   0  0  0  0  0  0  0  0  0  0  0  0
  117.4836    1.3616   -0.2794 N   0  0  0  0  0  0  0  0  0  0  0  0
  118.8211    1.2014   -0.2661 C   0  0  0  0  0  0  0  0  0  0  0  0
  119.5021   -0.0059   -0.0020 C   0  0  0  0  0  0  0  0  0  0  0  0
  118.8590   -1.2284    0.2753 C   0  0  0  0  0  0  0  0  0  0  0  0
  119.4639   -2.4770    0.5754 C   0  0  0  0  0  0  0  0  0  0  0  0
  118.4658   -3.3904    0.7809 C   0  0  0  0  0  0  0  0  0  0  0  0
  117.2215   -2.7230    0.6150 C   0  0  0  0  0  0  0  0  0  0  0  0
  117.5104   -1.4206    0.3118 N   0  0  0  0  0  0  0  0  0  0  0  0
  115.9556   -3.2851    0.7407 C   0  0  0  0  0  0  0  0  0  0  0  0
  114.7225   -2.6671    0.6008 C   0  0  0  0  0  0  0  0  0  0  0  0
  113.4621   -3.3684    0.7677 C   0  0  0  0  0  0  0  0  0  0  0  0
  112.4889   -2.4553    0.5690 C   0  0  0  0  0  0  0  0  0  0  0  0
  113.1570   -1.2004    0.2795 C   0  0  0  0  0  0  0  0  0  0  0  0
  114.4946   -1.3583    0.3059 N   0  0  0  0  0  0  0  0  0  0  0  0
  111.4502    2.6580   -0.5632 H   0  0  0  0  0  0  0  0  0  0  0  0
  113.4045    4.4500   -0.9515 H   0  0  0  0  0  0  0  0  0  0  0  0
  115.1543    0.6978   -0.1121 H   0  0  0  0  0  0  0  0  0  0  0  0
  116.0368    4.3517   -0.9376 H   0  0  0  0  0  0  0  0  0  0  0  0
  118.6079    4.4151   -1.0033 H   0  0  0  0  0  0  0  0  0  0  0  0
  120.5558    2.5853   -0.6306 H   0  0  0  0  0  0  0  0  0  0  0  0
  120.5267   -2.6459    0.6314 H   0  0  0  0  0  0  0  0  0  0  0  0
  118.5721   -4.4345    1.0285 H   0  0  0  0  0  0  0  0  0  0  0  0
  116.8245   -0.6924    0.1406 H   0  0  0  0  0  0  0  0  0  0  0  0
  115.9417   -4.3432    0.9836 H   0  0  0  0  0  0  0  0  0  0  0  0
  113.3679   -4.4161    1.0069 H   0  0  0  0  0  0  0  0  0  0  0  0
  111.4200   -2.5891    0.6153 H   0  0  0  0  0  0  0  0  0  0  0  0
  123.5329    0.0014   -0.0237 C   0  0  0  0  0  0  0  0  0  0  0  0
  124.1792    1.2503    0.0639 C   0  0  0  0  0  0  0  0  0  0  0  0
  123.5786    2.5318    0.1721 C   0  0  0  0  0  0  0  0  0  0  0  0
  124.5799    3.4624    0.2356 C   0  0  0  0  0  0  0  0  0  0  0  0
  125.8217    2.7733    0.1726 C   0  0  0  0  0  0  0  0  0  0  0  0
  125.5284    1.4413    0.0687 N   0  0  0  0  0  0  0  0  0  0  0  0
  127.0895    3.3434    0.2194 C   0  0  0  0  0  0  0  0  0  0  0  0
  128.3215    2.7092    0.1811 C   0  0  0  0  0  0  0  0  0  0  0  0
  129.5810    3.4269    0.2594 C   0  0  0  0  0  0  0  0  0  0  0  0
  130.5543    2.4944    0.2014 C   0  0  0  0  0  0  0  0  0  0  0  0
  128.5506    1.3715    0.0769 N   0  0  0  0  0  0  0  0  0  0  0  0
  129.8882    1.2114    0.0834 C   0  0  0  0  0  0  0  0  0  0  0  0
  130.5689   -0.0219   -0.0043 C   0  0  0  0  0  0  0  0  0  0  0  0
  129.9221   -1.2706   -0.0943 C   0  0  0  0  0  0  0  0  0  0  0  0
  130.5219   -2.5527   -0.1992 C   0  0  0  0  0  0  0  0  0  0  0  0
  129.5203   -3.4827   -0.2651 C   0  0  0  0  0  0  0  0  0  0  0  0
  128.2787   -2.7928   -0.2063 C   0  0  0  0  0  0  0  0  0  0  0  0
  128.5727   -1.4609   -0.1029 N   0  0  0  0  0  0  0  0  0  0  0  0
  127.0110   -3.3632   -0.2551 C   0  0  0  0  0  0  0  0  0  0  0  0
  125.7787   -2.7296   -0.2163 C   0  0  0  0  0  0  0  0  0  0  0  0
  124.5188   -3.4470   -0.2931 C   0  0  0  0  0  0  0  0  0  0  0  0
  123.5455   -2.5147   -0.2311 C   0  0  0  0  0  0  0  0  0  0  0  0
  124.2125   -1.2320   -0.1131 C   0  0  0  0  0  0  0  0  0  0  0  0
  125.5501   -1.3922   -0.1100 N   0  0  0  0  0  0  0  0  0  0  0  0
  122.5165    2.7109    0.2025 H   0  0  0  0  0  0  0  0  0  0  0  0
  124.4773    4.5324    0.3219 H   0  0  0  0  0  0  0  0  0  0  0  0
  126.2112    0.6927    0.0092 H   0  0  0  0  0  0  0  0  0  0  0  0
  127.1059    4.4258    0.3037 H   0  0  0  0  0  0  0  0  0  0  0  0
  129.6748    4.4977    0.3497 H   0  0  0  0  0  0  0  0  0  0  0  0
  131.6223    2.6340    0.2404 H   0  0  0  0  0  0  0  0  0  0  0  0
  131.5839   -2.7327   -0.2254 H   0  0  0  0  0  0  0  0  0  0  0  0
  129.6226   -4.5528   -0.3496 H   0  0  0  0  0  0  0  0  0  0  0  0
  127.8902   -0.7118   -0.0454 H   0  0  0  0  0  0  0  0  0  0  0  0
  126.9952   -4.4456   -0.3398 H   0  0  0  0  0  0  0  0  0  0  0  0
  124.4248   -4.5177   -0.3851 H   0  0  0  0  0  0  0  0  0  0  0  0
  122.4771   -2.6537   -0.2676 H   0  0  0  0  0  0  0  0  0  0  0  0
  134.6001   -0.0057   -0.0069 C   0  0  0  0  0  0  0  0  0  0  0  0
  135.2410    1.2311   -0.2205 C   0  0  0  0  0  0  0  0  0  0  0  0
  134.6341    2.4915   -0.4605 C   0  0  0  0  0  0  0  0  0  0  0  0
  135.6300    3.4178   -0.6102 C   0  0  0  0  0  0  0  0  0  0  0  0
  136.8754    2.7468   -0.4699 C   0  0  0  0  0  0  0  0  0  0  0  0
  136.5892    1.4295   -0.2371 N   0  0  0  0  0  0  0  0  0  0  0  0
  138.1396    3.3200   -0.5587 C   0  0  0  0  0  0  0  0  0  0  0  0
  139.3751    2.7014   -0.4463 C   0  0  0  0  0  0  0  0  0  0  0  0
  140.6326    3.4159   -0.5744 C   0  0  0  0  0  0  0  0  0  0  0  0
  141.6096    2.4979   -0.4212 C   0  0  0  0  0  0  0  0  0  0  0  0
  139.6084    1.3803   -0.2182 N   0  0  0  0  0  0  0  0  0  0  0  0
  140.9466    1.2271   -0.1968 C   0  0  0  0  0  0  0  0  0  0  0  0
  141.6300    0.0089   -0.0011 C   0  0  0  0  0  0  0  0  0  0  0  0
  140.9910   -1.2305    0.1976 C   0  0  0  0  0  0  0  0  0  0  0  0
  141.6002   -2.4927    0.4240 C   0  0  0  0  0  0  0  0  0  0  0  0
  140.6047   -3.4189    0.5781 C   0  0  0  0  0  0  0  0  0  0  0  0
  139.3584   -2.7464    0.4530 C   0  0  0  0  0  0  0  0  0  0  0  0
  139.6430   -1.4284    0.2232 N   0  0  0  0  0  0  0  0  0  0  0  0
  138.0937   -3.3162    0.5551 C   0  0  0  0  0  0  0  0  0  0  0  0
  136.8588   -2.6946    0.4537 C   0  0  0  0  0  0  0  0  0  0  0  0
  135.6022   -3.4071    0.5974 C   0  0  0  0  0  0  0  0  0  0  0  0
  134.6249   -2.4895    0.4447 C   0  0  0  0  0  0  0  0  0  0  0  0
  135.2859   -1.2209    0.2045 C   0  0  0  0  0  0  0  0  0  0  0  0
  136.6242   -1.3745    0.2187 N   0  0  0  0  0  0  0  0  0  0  0  0
  133.5714    2.6599   -0.5162 H   0  0  0  0  0  0  0  0  0  0  0  0
  135.5215    4.4731   -0.8035 H   0  0  0  0  0  0  0  0  0  0  0  0
  137.2762    0.6955   -0.0980 H   0  0  0  0  0  0  0  0  0  0  0  0
  138.1495    4.3895   -0.7459 H   0  0  0  0  0  0  0  0  0  0  0  0
  140.7225    4.4748   -0.7596 H   0  0  0  0  0  0  0  0  0  0  0  0
  142.6779    2.6387   -0.4585 H   0  0  0  0  0  0  0  0  0  0  0  0
  142.6638   -2.6610    0.4685 H   0  0  0  0  0  0  0  0  0  0  0  0
  140.7141   -4.4752    0.7652 H   0  0  0  0  0  0  0  0  0  0  0  0
  138.9552   -0.6932    0.0950 H   0  0  0  0  0  0  0  0  0  0  0  0
  138.0826   -4.3854    0.7438 H   0  0  0  0  0  0  0  0  0  0  0  0
  135.5128   -4.4646    0.7912 H   0  0  0  0  0  0  0  0  0  0  0  0
  133.5572   -2.6299    0.4917 H   0  0  0  0  0  0  0  0  0  0  0  0
  145.6608    0.0173    0.0006 C   0  0  0  0  0  0  0  0  0  0  0  0
  146.3045    1.2432    0.2589 C   0  0  0  0  0  0  0  0  0  0  0  0
  145.6993    2.4959    0.5419 C   0  0  0  0  0  0  0  0  0  0  0  0
  146.6977    3.4106    0.7396 C   0  0  0  0  0  0  0  0  0  0  0  0
  147.9420    2.7402    0.5851 C   0  0  0  0  0  0  0  0  0  0  0  0
  147.6530    1.4349    0.2955 N   0  0  0  0  0  0  0  0  0  0  0  0
  149.2087    3.3008    0.7094 C   0  0  0  0  0  0  0  0  0  0  0  0
  150.4404    2.6782    0.5765 C   0  0  0  0  0  0  0  0  0  0  0  0
  151.7025    3.3771    0.7398 C   0  0  0  0  0  0  0  0  0  0  0  0
  152.6735    2.4605    0.5458 C   0  0  0  0  0  0  0  0  0  0  0  0
  150.6648    1.3670    0.2898 N   0  0  0  0  0  0  0  0  0  0  0  0
  152.0021    1.2056    0.2635 C   0  0  0  0  0  0  0  0  0  0  0  0
  152.6787   -0.0070    0.0169 C   0  0  0  0  0  0  0  0  0  0  0  0
  152.0353   -1.2353   -0.2302 C   0  0  0  0  0  0  0  0  0  0  0  0
  152.6408   -2.4902   -0.5027 C   0  0  0  0  0  0  0  0  0  0  0  0
  151.6425   -3.4062   -0.6946 C   0  0  0  0  0  0  0  0  0  0  0  0
  150.3981   -2.7343   -0.5477 C   0  0  0  0  0  0  0  0  0  0  0  0
  150.6868   -1.4272   -0.2666 N   0  0  0  0  0  0  0  0  0  0  0  0
  149.1313   -3.2941   -0.6757 C   0  0  0  0  0  0  0  0  0  0  0  0
  147.8998   -2.6690   -0.5534 C   0  0  0  0  0  0  0  0  0  0  0  0
  146.6380   -3.3659   -0.7273 C   0  0  0  0  0  0  0  0  0  0  0  0
  145.6671   -2.4477   -0.5409 C   0  0  0  0  0  0  0  0  0  0  0  0
  146.3379   -1.1944   -0.2506 C   0  0  0  0  0  0  0  0  0  0  0  0
  147.6750   -1.3575   -0.2678 N   0  0  0  0  0  0  0  0  0  0  0  0
  144.6362    2.6659    0.5919 H   0  0  0  0  0  0  0  0  0  0  0  0
  146.5918    4.4577    0.9745 H   0  0  0  0  0  0  0  0  0  0  0  0
  148.3389    0.7043    0.1351 H   0  0  0  0  0  0  0  0  0  0  0  0
  149.2248    4.3608    0.9440 H   0  0  0  0  0  0  0  0  0  0  0  0
  151.7994    4.4258    0.9736 H   0  0  0  0  0  0  0  0  0  0  0  0
  153.7427    2.5920    0.5911 H   0  0  0  0  0  0  0  0  0  0  0  0
  153.7041   -2.6606   -0.5497 H   0  0  0  0  0  0  0  0  0  0  0  0
  151.7485   -4.4551   -0.9213 H   0  0  0  0  0  0  0  0  0  0  0  0
  150.0007   -0.6955   -0.1122 H   0  0  0  0  0  0  0  0  0  0  0  0
  149.1151   -4.3550   -0.9059 H   0  0  0  0  0  0  0  0  0  0  0  0
  146.5413   -4.4142   -0.9629 H   0  0  0  0  0  0  0  0  0  0  0  0
  144.5982   -2.5774   -0.5962 H   0  0  0  0  0  0  0  0  0  0  0  0
  156.7097    0.0010    0.0079 C   0  0  0  0  0  0  0  0  0  0  0  0
  157.3506    1.2305   -0.2389 C   0  0  0  0  0  0  0  0  0  0  0  0
  156.7428    2.4842   -0.5117 C   0  0  0  0  0  0  0  0  0  0  0  0
  157.7394    3.4019   -0.7047 C   0  0  0  0  0  0  0  0  0  0  0  0
  158.9851    2.7324   -0.5572 C   0  0  0  0  0  0  0  0  0  0  0  0
  158.6988    1.4247   -0.2758 N   0  0  0  0  0  0  0  0  0  0  0  0
  160.2508    3.2951   -0.6828 C   0  0  0  0  0  0  0  0  0  0  0  0
  161.4838    2.6738   -0.5567 C   0  0  0  0  0  0  0  0  0  0  0  0
  162.7439    3.3752   -0.7252 C   0  0  0  0  0  0  0  0  0  0  0  0
  163.7172    2.4602   -0.5357 C   0  0  0  0  0  0  0  0  0  0  0  0
  161.7121    1.3628   -0.2714 N   0  0  0  0  0  0  0  0  0  0  0  0
  163.0498    1.2042   -0.2496 C   0  0  0  0  0  0  0  0  0  0  0  0
  163.7299   -0.0057    0.0023 C   0  0  0  0  0  0  0  0  0  0  0  0
  163.0882   -1.2337    0.2559 C   0  0  0  0  0  0  0  0  0  0  0  0
  163.6950   -2.4859    0.5371 C   0  0  0  0  0  0  0  0  0  0  0  0
  162.6982   -3.4044    0.7250 C   0  0  0  0  0  0  0  0  0  0  0  0
  161.4530   -2.7367    0.5670 C   0  0  0  0  0  0  0  0  0  0  0  0
  161.7398   -1.4292    0.2852 N   0  0  0  0  0  0  0  0  0  0  0  0
  160.1874   -3.3019    0.6833 C   0  0  0  0  0  0  0  0  0  0  0  0
  158.9543   -2.6821    0.5518 C   0  0  0  0  0  0  0  0  0  0  0  0
  157.6939   -3.3852    0.7108 C   0  0  0  0  0  0  0  0  0  0  0  0
  156.7207   -2.4695    0.5237 C   0  0  0  0  0  0  0  0  0  0  0  0
  157.3889   -1.2114    0.2484 C   0  0  0  0  0  0  0  0  0  0  0  0
  158.7265   -1.3697    0.2729 N   0  0  0  0  0  0  0  0  0  0  0  0
  155.6792    2.6526   -0.5589 H   0  0  0  0  0  0  0  0  0  0  0  0
  157.6314    4.4504   -0.9322 H   0  0  0  0  0  0  0  0  0  0  0  0
  159.3861    0.6942   -0.1213 H   0  0  0  0  0  0  0  0  0  0  0  0
  160.2647    4.3561   -0.9130 H   0  0  0  0  0  0  0  0  0  0  0  0
  162.8379    4.4240   -0.9592 H   0  0  0  0  0  0  0  0  0  0  0  0
  164.7859    2.5938   -0.5861 H   0  0  0  0  0  0  0  0  0  0  0  0
  164.7581   -2.6534    0.5929 H   0  0  0  0  0  0  0  0  0  0  0  0
  162.8058   -4.4523    0.9556 H   0  0  0  0  0  0  0  0  0  0  0  0
  161.0529   -0.6998    0.1239 H   0  0  0  0  0  0  0  0  0  0  0  0
  160.1740   -4.3633    0.9114 H   0  0  0  0  0  0  0  0  0  0  0  0
  157.5996   -4.4356    0.9378 H   0  0  0  0  0  0  0  0  0  0  0  0
  155.6517   -2.6038    0.5688 H   0  0  0  0  0  0  0  0  0  0  0  0
  167.7611    0.0021    0.0024 C   0  0  0  0  0  0  0  0  0  0  0  0
  168.4046    1.2430    0.1751 C   0  0  0  0  0  0  0  0  0  0  0  0
  167.7997    2.5121    0.3731 C   0  0  0  0  0  0  0  0  0  0  0  0
  168.7979    3.4384    0.5057 C   0  0  0  0  0  0  0  0  0  0  0  0
  170.0423    2.7593    0.3955 C   0  0  0  0  0  0  0  0  0  0  0  0
  169.7532    1.4372    0.1959 N   0  0  0  0  0  0  0  0  0  0  0  0
  171.3087    3.3271    0.4830 C   0  0  0  0  0  0  0  0  0  0  0  0
  172.5406    2.6971    0.3937 C   0  0  0  0  0  0  0  0  0  0  0  0
  173.8023    3.4053    0.5178 C   0  0  0  0  0  0  0  0  0  0  0  0
  174.7738    2.4789    0.3840 C   0  0  0  0  0  0  0  0  0  0  0  0
  172.7658    1.3710    0.1894 N   0  0  0  0  0  0  0  0  0  0  0  0
  174.1037    1.2089    0.1756 C   0  0  0  0  0  0  0  0  0  0  0  0
  174.7802   -0.0150   -0.0029 C   0  0  0  0  0  0  0  0  0  0  0  0
  174.1368   -1.2554   -0.1787 C   0  0  0  0  0  0  0  0  0  0  0  0
  174.7423   -2.5231   -0.3827 C   0  0  0  0  0  0  0  0  0  0  0  0
  173.7444   -3.4506   -0.5124 C   0  0  0  0  0  0  0  0  0  0  0  0
  172.5001   -2.7731   -0.3947 C   0  0  0  0  0  0  0  0  0  0  0  0
  172.7883   -1.4512   -0.1940 N   0  0  0  0  0  0  0  0  0  0  0  0
  171.2333   -3.3421   -0.4756 C   0  0  0  0  0  0  0  0  0  0  0  0
  170.0018   -2.7126   -0.3821 C   0  0  0  0  0  0  0  0  0  0  0  0
  168.7403   -3.4216   -0.4994 C   0  0  0  0  0  0  0  0  0  0  0  0
  167.7689   -2.4944   -0.3685 C   0  0  0  0  0  0  0  0  0  0  0  0
  168.4391   -1.2232   -0.1683 C   0  0  0  0  0  0  0  0  0  0  0  0
  169.7763   -1.3852   -0.1828 N   0  0  0  0  0  0  0  0  0  0  0  0
  166.7367    2.6849    0.4138 H   0  0  0  0  0  0  0  0  0  0  0  0
  168.6920    4.4991    0.6684 H   0  0  0  0  0  0  0  0  0  0  0  0
  170.4393    0.6978    0.0838 H   0  0  0  0  0  0  0  0  0  0  0  0
  171.3245    4.4002    0.6470 H   0  0  0  0  0  0  0  0  0  0  0  0
  173.8982    4.4663    0.6871 H   0  0  0  0  0  0  0  0  0  0  0  0
  175.8426    2.6133    0.4257 H   0  0  0  0  0  0  0  0  0  0  0  0
  175.8055   -2.6943   -0.4294 H   0  0  0  0  0  0  0  0  0  0  0  0
  173.8509   -4.5108   -0.6783 H   0  0  0  0  0  0  0  0  0  0  0  0
  172.1021   -0.7126   -0.0782 H   0  0  0  0  0  0  0  0  0  0  0  0
  171.2175   -4.4154   -0.6384 H   0  0  0  0  0  0  0  0  0  0  0  0
  168.6441   -4.4835   -0.6627 H   0  0  0  0  0  0  0  0  0  0  0  0
  166.7000   -2.6293   -0.4070 H   0  0  0  0  0  0  0  0  0  0  0  0
  1  2  4  0  0  0  0
  2  3  4  0  0  0  0
  3  4  2  0  0  0  0
  4  5  4  0  0  0  0
  2  6  4  0  0  0  0
  5  6  4  0  0  0  0
  5  7  4  0  0  0  0
  7  8  4  0  0  0  0
  8  9  1  0  0  0  0
  9 10  2  0  0  0  0
  8 11  4  0  0  0  0
 10 12  1  0  0  0  0
 11 12  4  0  0  0  0
 12 13  4  0  0  0  0
 13 14  4  0  0  0  0
 14 15  4  0  0  0  0
 15 16  2  0  0  0  0
 16 17  4  0  0  0  0
 14 18  4  0  0  0  0
 17 18  4  0  0  0  0
 17 19  4  0  0  0  0
 19 20  4  0  0  0  0
 20 21  1  0  0  0  0
 21 22  2  0  0  0  0
  1 23  4  0  0  0  0
 22 23  1  0  0  0  0
 20 24  4  0  0  0  0
 23 24  4  0  0  0  0
  1 25  1  0  0  0  0
  3 26  1  0  0  0  0
  4 27  1  0  0  0  0
  6 28  1  0  0  0  0
  7 29  1  0  0  0  0
  9 30  1  0  0  0  0
 10 31  1  0  0  0  0
 15 32  1  0  0  0  0
 16 33  1  0  0  0  0
 18 34  1  0  0  0  0
 19 35  1  0  0  0  0
 21 36  1  0  0  0  0
 22 37  1  0  0  0  0
 38 39  4  0  0  0  0
 39 40  4  0  0  0  0
 40 41  2  0  0  0  0
 41 42  4  0  0  0  0
 39 43  4  0  0  0  0
 42 43  4  0  0  0  0
 42 44  4  0  0  0  0
 44 45  4  0  0  0  0
 45 46  1  0  0  0  0
 46 47  2  0  0  0  0
 45 48  4  0  0  0  0
 47 49  1  0  0  0  0
 48 49  4  0  0  0  0
 49 50  4  0  0  0  0
 50 51  4  0  0  0  0
 51 52  4  0  0  0  0
 52 53  2  0  0  0  0
 53 54  4  0  0  0  0
 51 55  4  0  0  0  0
 54 55  4  0  0  0  0
 54 56  4  0  0  0  0
 56 57  4  0  0  0  0
 57 58  1  0  0  0  0
 58 59  2  0  0  0  0
 38 60  4  0  0  0  0
 59 60  1  0  0  0  0
 57 61  4  0  0  0  0
 60 61  4  0  0  0  0
 38 62  1  0  0  0  0
 40 63  1  0  0  0  0
 41 64  1  0  0  0  0
 43 65  1  0  0  0  0
 44 66  1  0  0  0  0
 46 67  1  0  0  0  0
 47 68  1  0  0  0  0
 52 69  1  0  0  0  0
 53 70  1  0  0  0  0
 55 71  1  0  0  0  0
 56 72  1  0  0  0  0
 58 73  1  0  0  0  0
 59 74  1  0  0  0  0
 13 75  4  0  0  0  0
 75 76  3  0  0  0  0
 77 78  3  0  0  0  0
 79 80  3  0  0  0  0
 81 82  3  0  0  0  0
 83 84  3  0  0  0  0
 85 86  3  0  0  0  0
 87 88  3  0  0  0  0
 89 90  3  0  0  0  0
 50 92  4  0  0  0  0
 91 92  3  0  0  0  0
 76 93  4  0  0  0  0
 93 94  4  0  0  0  0
 94 95  4  0  0  0  0
 95 96  2  0  0  0  0
 96 97  4  0  0  0  0
 94 98  4  0  0  0  0
 97 98  4  0  0  0  0
 97 99  4  0  0  0  0
 99100  4  0  0  0  0
100101  1  0  0  0  0
101102  2  0  0  0  0
100103  4  0  0  0  0
102104  1  0  0  0  0
103104  4  0  0  0  0
 77105  4  0  0  0  0
104105  4  0  0  0  0
105106  4  0  0  0  0
106107  4  0  0  0  0
107108  2  0  0  0  0
108109  4  0  0  0  0
106110  4  0  0  0  0
109110  4  0  0  0  0
109111  4  0  0  0  0
111112  4  0  0  0  0
112113  1  0  0  0  0
113114  2  0  0  0  0
 93115  4  0  0  0  0
114115  1  0  0  0  0
112116  4  0  0  0  0
115116  4  0  0  0  0
 95117  1  0  0  0  0
 96118  1  0  0  0  0
 98119  1  0  0  0  0
 99120  1  0  0  0  0
101121  1  0  0  0  0
102122  1  0  0  0  0
107123  1  0  0  0  0
108124  1  0  0  0  0
110125  1  0  0  0  0
111126  1  0  0  0  0
113127  1  0  0  0  0
114128  1  0  0  0  0
 78129  4  0  0  0  0
129130  4  0  0  0  0
130131  4  0  0  0  0
131132  2  0  0  0  0
132133  4  0  0  0  0
130134  4  0  0  0  0
133134  4  0  0  0  0
133135  4  0  0  0  0
135136  4  0  0  0  0
136137  1  0  0  0  0
137138  2  0  0  0  0
136139  4  0  0  0  0
138140  1  0  0  0  0
139140  4  0  0  0  0
 79141  4  0  0  0  0
140141  4  0  0  0  0
141142  4  0  0  0  0
142143  4  0  0  0  0
143144  2  0  0  0  0
144145  4  0  0  0  0
142146  4  0  0  0  0
145146  4  0  0  0  0
145147  4  0  0  0  0
147148  4  0  0  0  0
148149  1  0  0  0  0
149150  2  0  0  0  0
129151  4  0  0  0  0
150151  1  0  0  0  0
148152  4  0  0  0  0
151152  4  0  0  0  0
131153  1  0  0  0  0
132154  1  0  0  0  0
134155  1  0  0  0  0
135156  1  0  0  0  0
137157  1  0  0  0  0
138158  1  0  0  0  0
143159  1  0  0  0  0
144160  1  0  0  0  0
146161  1  0  0  0  0
147162  1  0  0  0  0
149163  1  0  0  0  0
150164  1  0  0  0  0
 80165  4  0  0  0  0
165166  4  0  0  0  0
166167  4  0  0  0  0
167168  2  0  0  0  0
168169  4  0  0  0  0
166170  4  0  0  0  0
169170  4  0  0  0  0
169171  4  0  0  0  0
171172  4  0  0  0  0
172173  1  0  0  0  0
173174  2  0  0  0  0
172175  4  0  0  0  0
174176  1  0  0  0  0
175176  4  0  0  0  0
 81177  4  0  0  0  0
176177  4  0  0  0  0
177178  4  0  0  0  0
178179  4  0  0  0  0
179180  2  0  0  0  0
180181  4  0  0  0  0
178182  4  0  0  0  0
181182  4  0  0  0  0
181183  4  0  0  0  0
183184  4  0  0  0  0
184185  1  0  0  0  0
185186  2  0  0  0  0
165187  4  0  0  0  0
186187  1  0  0  0  0
184188  4  0  0  0  0
187188  4  0  0  0  0
167189  1  0  0  0  0
168190  1  0  0  0  0
170191  1  0  0  0  0
171192  1  0  0  0  0
173193  1  0  0  0  0
174194  1  0  0  0  0
179195  1  0  0  0  0
180196  1  0  0  0  0
182197  1  0  0  0  0
183198  1  0  0  0  0
185199  1  0  0  0  0
186200  1  0  0  0  0
 82201  4  0  0  0  0
201202  4  0  0  0  0
202203  4  0  0  0  0
203204  2  0  0  0  0
204205  4  0  0  0  0
202206  4  0  0  0  0
205206  4  0  0  0  0
205207  4  0  0  0  0
207208  4  0  0  0  0
208209  1  0  0  0  0
209210  2  0  0  0  0
208211  4  0  0  0  0
210212  1  0  0  0  0
211212  4  0  0  0  0
 83213  4  0  0  0  0
212213  4  0  0  0  0
213214  4  0  0  0  0
214215  4  0  0  0  0
215216  2  0  0  0  0
216217  4  0  0  0  0
214218  4  0  0  0  0
217218  4  0  0  0  0
217219  4  0  0  0  0
219220  4  0  0  0  0
220221  1  0  0  0  0
221222  2  0  0  0  0
201223  4  0  0  0  0
222223  1  0  0  0  0
220224  4  0  0  0  0
223224  4  0  0  0  0
203225  1  0  0  0  0
204226  1  0  0  0  0
206227  1  0  0  0  0
207228  1  0  0  0  0
209229  1  0  0  0  0
210230  1  0  0  0  0
215231  1  0  0  0  0
216232  1  0  0  0  0
218233  1  0  0  0  0
219234  1  0  0  0  0
221235  1  0  0  0  0
222236  1  0  0  0  0
 84237  4  0  0  0  0
237238  4  0  0  0  0
238239  4  0  0  0  0
239240  2  0  0  0  0
240241  4  0  0  0  0
238242  4  0  0  0  0
241242  4  0  0  0  0
241243  4  0  0  0  0
243244  4  0  0  0  0
244245  1  0  0  0  0
245246  2  0  0  0  0
244247  4  0  0  0  0
246248  1  0  0  0  0
247248  4  0  0  0  0
 85249  4  0  0  0  0
248249  4  0  0  0  0
249250  4  0  0  0  0
250251  4  0  0  0  0
251252  2  0  0  0  0
252253  4  0  0  0  0
250254  4  0  0  0  0
253254  4  0  0  0  0
253255  4  0  0  0  0
255256  4  0  0  0  0
256257  1  0  0  0  0
257258  2  0  0  0  0
237259  4  0  0  0  0
258259  1  0  0  0  0
256260  4  0  0  0  0
259260  4  0  0  0  0
239261  1  0  0  0  0
240262  1  0  0  0  0
242263  1  0  0  0  0
243264  1  0  0  0  0
245265  1  0  0  0  0
246266  1  0  0  0  0
251267  1  0  0  0  0
252268  1  0  0  0  0
254269  1  0  0  0  0
255270  1  0  0  0  0
257271  1  0  0  0  0
258272  1  0  0  0  0
 86273  4  0  0  0  0
273274  4  0  0  0  0
274275  4  0  0  0  0
275276  2  0  0  0  0
276277  4  0  0  0  0
274278  4  0  0  0  0
277278  4  0  0  0  0
277279  4  0  0  0  0
279280  4  0  0  0  0
280281  1  0  0  0  0
281282  2  0  0  0  0
280283  4  0  0  0  0
282284  1  0  0  0  0
283284  4  0  0  0  0
 87285  4  0  0  0  0
284285  4  0  0  0  0
285286  4  0  0  0  0
286287  4  0  0  0  0
287288  2  0  0  0  0
288289  4  0  0  0  0
286290  4  0  0  0  0
289290  4  0  0  0  0
289291  4  0  0  0  0
291292  4  0  0  0  0
292293  1  0  0  0  0
293294  2  0  0  0  0
273295  4  0  0  0  0
294295  1  0  0  0  0
292296  4  0  0  0  0
295296  4  0  0  0  0
275297  1  0  0  0  0
276298  1  0  0  0  0
278299  1  0  0  0  0
279300  1  0  0  0  0
281301  1  0  0  0  0
282302  1  0  0  0  0
287303  1  0  0  0  0
288304  1  0  0  0  0
290305  1  0  0  0  0
291306  1  0  0  0  0
293307  1  0  0  0  0
294308  1  0  0  0  0
 88309  4  0  0  0  0
309310  4  0  0  0  0
310311  4  0  0  0  0
311312  2  0  0  0  0
312313  4  0  0  0  0
310314  4  0  0  0  0
313314  4  0  0  0  0
313315  4  0  0  0  0
315316  4  0  0  0  0
316317  1  0  0  0  0
317318  2  0  0  0  0
316319  4  0  0  0  0
318320  1  0  0  0  0
319320  4  0  0  0  0
 89321  4  0  0  0  0
320321  4  0  0  0  0
321322  4  0  0  0  0
322323  4  0  0  0  0
323324  2  0  0  0  0
324325  4  0  0  0  0
322326  4  0  0  0  0
325326  4  0  0  0  0
325327  4  0  0  0  0
327328  4  0  0  0  0
328329  1  0  0  0  0
329330  2  0  0  0  0
309331  4  0  0  0  0
330331  1  0  0  0  0
328332  4  0  0  0  0
331332  4  0  0  0  0
311333  1  0  0  0  0
312334  1  0  0  0  0
314335  1  0  0  0  0
315336  1  0  0  0  0
317337  1  0  0  0  0
318338  1  0  0  0  0
323339  1  0  0  0  0
324340  1  0  0  0  0
326341  1  0  0  0  0
327342  1  0  0  0  0
329343  1  0  0  0  0
330344  1  0  0  0  0
 90345  4  0  0  0  0
345346  4  0  0  0  0
346347  4  0  0  0  0
347348  2  0  0  0  0
348349  4  0  0  0  0
346350  4  0  0  0  0
349350  4  0  0  0  0
349351  4  0  0  0  0
351352  4  0  0  0  0
352353  1  0  0  0  0
353354  2  0  0  0  0
352355  4  0  0  0  0
354356  1  0  0  0  0
355356  4  0  0  0  0
 91357  4  0  0  0  0
356357  4  0  0  0  0
357358  4  0  0  0  0
358359  4  0  0  0  0
359360  2  0  0  0  0
360361  4  0  0  0  0
358362  4  0  0  0  0
361362  4  0  0  0  0
361363  4  0  0  0  0
363364  4  0  0  0  0
364365  1  0  0  0  0
365366  2  0  0  0  0
345367  4  0  0  0  0
366367  1  0  0  0  0
364368  4  0  0  0  0
367368  4  0  0  0  0
347369  1  0  0  0  0
348370  1  0  0  0  0
350371  1  0  0  0  0
351372  1  0  0  0  0
353373  1  0  0  0  0
354374  1  0  0  0  0
359375  1  0  0  0  0
360376  1  0  0  0  0
362377  1  0  0  0  0
363378  1  0  0  0  0
365379  1  0  0  0  0
366380  1  0  0  0  0
M  END
