 xtb: 6.5.1 (b24c23e)
          07262213173D

114128  0     0  0            999 V2000
   14.9466   -0.0118   -0.0094 C   0  0  0  0  0  0  0  0  0  0  0  0
   15.5551   -1.2581   -0.0841 C   0  0  0  0  0  0  0  0  0  0  0  0
   14.9281   -2.5348   -0.1632 C   0  0  0  0  0  0  0  0  0  0  0  0
   15.9110   -3.4824   -0.2224 C   0  0  0  0  0  0  0  0  0  0  0  0
   17.1690   -2.8147   -0.1816 C   0  0  0  0  0  0  0  0  0  0  0  0
   16.9030   -1.4788   -0.0971 N   0  0  0  0  0  0  0  0  0  0  0  0
   18.4309   -3.3949   -0.2256 C   0  0  0  0  0  0  0  0  0  0  0  0
   19.6618   -2.7552   -0.1911 C   0  0  0  0  0  0  0  0  0  0  0  0
   20.9232   -3.4701   -0.2593 C   0  0  0  0  0  0  0  0  0  0  0  0
   21.8933   -2.5349   -0.2007 C   0  0  0  0  0  0  0  0  0  0  0  0
   19.8865   -1.4163   -0.0935 N   0  0  0  0  0  0  0  0  0  0  0  0
   21.2244   -1.2521   -0.0927 C   0  0  0  0  0  0  0  0  0  0  0  0
   21.9059   -0.0198    0.0012 C   0  0  0  0  0  0  0  0  0  0  0  0
   21.2666    1.2325    0.0938 C   0  0  0  0  0  0  0  0  0  0  0  0
   21.8811    2.5083    0.1998 C   0  0  0  0  0  0  0  0  0  0  0  0
   20.8932    3.4520    0.2584 C   0  0  0  0  0  0  0  0  0  0  0  0
   19.6422    2.7786    0.1924 C   0  0  0  0  0  0  0  0  0  0  0  0
   19.9196    1.4416    0.0953 N   0  0  0  0  0  0  0  0  0  0  0  0
   18.3827    3.3650    0.2219 C   0  0  0  0  0  0  0  0  0  0  0  0
   17.1498    2.7278    0.1701 C   0  0  0  0  0  0  0  0  0  0  0  0
   15.8790    3.4353    0.2094 C   0  0  0  0  0  0  0  0  0  0  0  0
   14.9162    2.4937    0.1452 C   0  0  0  0  0  0  0  0  0  0  0  0
   15.5999    1.2126    0.0669 C   0  0  0  0  0  0  0  0  0  0  0  0
   16.9419    1.3932    0.0830 N   0  0  0  0  0  0  0  0  0  0  0  0
   13.8619   -0.0024   -0.0110 H   0  0  0  0  0  0  0  0  0  0  0  0
   13.8613   -2.6920   -0.1730 H   0  0  0  0  0  0  0  0  0  0  0  0
   15.7896   -4.5520   -0.2891 H   0  0  0  0  0  0  0  0  0  0  0  0
   17.6031   -0.7461   -0.0517 H   0  0  0  0  0  0  0  0  0  0  0  0
   18.4473   -4.4778   -0.2989 H   0  0  0  0  0  0  0  0  0  0  0  0
   21.0203   -4.5412   -0.3425 H   0  0  0  0  0  0  0  0  0  0  0  0
   22.9612   -2.6731   -0.2297 H   0  0  0  0  0  0  0  0  0  0  0  0
   22.9449    2.6747    0.2303 H   0  0  0  0  0  0  0  0  0  0  0  0
   21.0097    4.5208    0.3411 H   0  0  0  0  0  0  0  0  0  0  0  0
   19.2239    0.7052    0.0340 H   0  0  0  0  0  0  0  0  0  0  0  0
   18.3724    4.4477    0.2970 H   0  0  0  0  0  0  0  0  0  0  0  0
   15.7745    4.5070    0.2774 H   0  0  0  0  0  0  0  0  0  0  0  0
   13.8447    2.6192    0.1488 H   0  0  0  0  0  0  0  0  0  0  0  0
   43.9710    0.0259   -0.0018 C   0  0  0  0  0  0  0  0  0  0  0  0
   43.3600    1.2521   -0.2308 C   0  0  0  0  0  0  0  0  0  0  0  0
   43.9855    2.5107   -0.4635 C   0  0  0  0  0  0  0  0  0  0  0  0
   43.0017    3.4409   -0.6486 C   0  0  0  0  0  0  0  0  0  0  0  0
   41.7445    2.7803   -0.5348 C   0  0  0  0  0  0  0  0  0  0  0  0
   42.0119    1.4663   -0.2803 N   0  0  0  0  0  0  0  0  0  0  0  0
   40.4819    3.3454   -0.6673 C   0  0  0  0  0  0  0  0  0  0  0  0
   39.2533    2.7089   -0.5624 C   0  0  0  0  0  0  0  0  0  0  0  0
   37.9885    3.3983   -0.7426 C   0  0  0  0  0  0  0  0  0  0  0  0
   37.0229    2.4732   -0.5658 C   0  0  0  0  0  0  0  0  0  0  0  0
   39.0354    1.3946   -0.2843 N   0  0  0  0  0  0  0  0  0  0  0  0
   37.6987    1.2229   -0.2727 C   0  0  0  0  0  0  0  0  0  0  0  0
   37.0230    0.0119   -0.0129 C   0  0  0  0  0  0  0  0  0  0  0  0
   37.6628   -1.2152    0.2493 C   0  0  0  0  0  0  0  0  0  0  0  0
   37.0482   -2.4641    0.5321 C   0  0  0  0  0  0  0  0  0  0  0  0
   38.0367   -3.3916    0.7134 C   0  0  0  0  0  0  0  0  0  0  0  0
   39.2874   -2.7340    0.5510 C   0  0  0  0  0  0  0  0  0  0  0  0
   39.0097   -1.4224    0.2748 N   0  0  0  0  0  0  0  0  0  0  0  0
   40.5483   -3.3094    0.6516 C   0  0  0  0  0  0  0  0  0  0  0  0
   41.7786   -2.6800    0.5134 C   0  0  0  0  0  0  0  0  0  0  0  0
   43.0524   -3.3719    0.6382 C   0  0  0  0  0  0  0  0  0  0  0  0
   44.0111   -2.4415    0.4565 C   0  0  0  0  0  0  0  0  0  0  0  0
   43.3219   -1.1827    0.2214 C   0  0  0  0  0  0  0  0  0  0  0  0
   41.9807   -1.3657    0.2601 N   0  0  0  0  0  0  0  0  0  0  0  0
   45.0557    0.0202    0.0018 H   0  0  0  0  0  0  0  0  0  0  0  0
   45.0521    2.6683   -0.4845 H   0  0  0  0  0  0  0  0  0  0  0  0
   43.1219    4.4941   -0.8476 H   0  0  0  0  0  0  0  0  0  0  0  0
   41.3120    0.7437   -0.1493 H   0  0  0  0  0  0  0  0  0  0  0  0
   40.4631    4.4092   -0.8822 H   0  0  0  0  0  0  0  0  0  0  0  0
   37.8864    4.4466   -0.9755 H   0  0  0  0  0  0  0  0  0  0  0  0
   35.9543    2.5970   -0.6286 H   0  0  0  0  0  0  0  0  0  0  0  0
   35.9842   -2.6231    0.5921 H   0  0  0  0  0  0  0  0  0  0  0  0
   37.9208   -4.4390    0.9418 H   0  0  0  0  0  0  0  0  0  0  0  0
   39.7055   -0.7018    0.1128 H   0  0  0  0  0  0  0  0  0  0  0  0
   40.5624   -4.3731    0.8671 H   0  0  0  0  0  0  0  0  0  0  0  0
   43.1616   -4.4265    0.8379 H   0  0  0  0  0  0  0  0  0  0  0  0
   45.0832   -2.5612    0.4740 H   0  0  0  0  0  0  0  0  0  0  0  0
   23.3143   -0.0237    0.0038 C   0  0  0  0  0  0  0  0  0  0  0  0
   24.5329   -0.0192    0.0074 C   0  0  0  0  0  0  0  0  0  0  0  0
   34.3968    0.0130   -0.0051 C   0  0  0  0  0  0  0  0  0  0  0  0
   35.6150    0.0136   -0.0108 C   0  0  0  0  0  0  0  0  0  0  0  0
   25.9404   -0.0118    0.0108 C   0  0  0  0  0  0  0  0  0  0  0  0
   26.5841    1.2414   -0.0339 C   0  0  0  0  0  0  0  0  0  0  0  0
   25.9821    2.5252   -0.0897 C   0  0  0  0  0  0  0  0  0  0  0  0
   26.9804    3.4609   -0.0958 C   0  0  0  0  0  0  0  0  0  0  0  0
   28.2234    2.7730   -0.0481 C   0  0  0  0  0  0  0  0  0  0  0  0
   27.9331    1.4367   -0.0170 N   0  0  0  0  0  0  0  0  0  0  0  0
   29.4876    3.3524   -0.0237 C   0  0  0  0  0  0  0  0  0  0  0  0
   30.7238    2.7263    0.0107 C   0  0  0  0  0  0  0  0  0  0  0  0
   31.9776    3.4574    0.0536 C   0  0  0  0  0  0  0  0  0  0  0  0
   32.9580    2.5309    0.0632 C   0  0  0  0  0  0  0  0  0  0  0  0
   30.9630    1.3869   -0.0017 N   0  0  0  0  0  0  0  0  0  0  0  0
   32.3022    1.2378    0.0209 C   0  0  0  0  0  0  0  0  0  0  0  0
   32.9898    0.0062   -0.0001 C   0  0  0  0  0  0  0  0  0  0  0  0
   32.3477   -1.2479   -0.0136 C   0  0  0  0  0  0  0  0  0  0  0  0
   32.9513   -2.5320   -0.0476 C   0  0  0  0  0  0  0  0  0  0  0  0
   31.9534   -3.4682   -0.0290 C   0  0  0  0  0  0  0  0  0  0  0  0
   30.7100   -2.7803    0.0118 C   0  0  0  0  0  0  0  0  0  0  0  0
   30.9992   -1.4435    0.0146 N   0  0  0  0  0  0  0  0  0  0  0  0
   29.4454   -3.3577    0.0529 C   0  0  0  0  0  0  0  0  0  0  0  0
   28.2098   -2.7299    0.0773 C   0  0  0  0  0  0  0  0  0  0  0  0
   26.9568   -3.4607    0.1357 C   0  0  0  0  0  0  0  0  0  0  0  0
   25.9760   -2.5348    0.1265 C   0  0  0  0  0  0  0  0  0  0  0  0
   26.6300   -1.2422    0.0586 C   0  0  0  0  0  0  0  0  0  0  0  0
   27.9695   -1.3909    0.0385 N   0  0  0  0  0  0  0  0  0  0  0  0
   24.9203    2.7037   -0.1226 H   0  0  0  0  0  0  0  0  0  0  0  0
   26.8749    4.5335   -0.1311 H   0  0  0  0  0  0  0  0  0  0  0  0
   28.6168    0.6873    0.0170 H   0  0  0  0  0  0  0  0  0  0  0  0
   29.4968    4.4382   -0.0323 H   0  0  0  0  0  0  0  0  0  0  0  0
   32.0627    4.5325    0.0760 H   0  0  0  0  0  0  0  0  0  0  0  0
   34.0244    2.6811    0.1016 H   0  0  0  0  0  0  0  0  0  0  0  0
   34.0134   -2.7096   -0.0857 H   0  0  0  0  0  0  0  0  0  0  0  0
   32.0594   -4.5412   -0.0438 H   0  0  0  0  0  0  0  0  0  0  0  0
   30.3151   -0.6941    0.0362 H   0  0  0  0  0  0  0  0  0  0  0  0
   29.4349   -4.4434    0.0667 H   0  0  0  0  0  0  0  0  0  0  0  0
   26.8722   -4.5353    0.1791 H   0  0  0  0  0  0  0  0  0  0  0  0
   24.9101   -2.6856    0.1654 H   0  0  0  0  0  0  0  0  0  0  0  0
  1  2  4  0  0  0  0
  2  3  4  0  0  0  0
  3  4  2  0  0  0  0
  4  5  4  0  0  0  0
  2  6  4  0  0  0  0
  5  6  4  0  0  0  0
  5  7  4  0  0  0  0
  7  8  4  0  0  0  0
  8  9  1  0  0  0  0
  9 10  2  0  0  0  0
  8 11  4  0  0  0  0
 10 12  1  0  0  0  0
 11 12  4  0  0  0  0
 12 13  4  0  0  0  0
 13 14  4  0  0  0  0
 14 15  4  0  0  0  0
 15 16  2  0  0  0  0
 16 17  4  0  0  0  0
 14 18  4  0  0  0  0
 17 18  4  0  0  0  0
 17 19  4  0  0  0  0
 19 20  4  0  0  0  0
 20 21  1  0  0  0  0
 21 22  2  0  0  0  0
  1 23  4  0  0  0  0
 22 23  1  0  0  0  0
 20 24  4  0  0  0  0
 23 24  4  0  0  0  0
  1 25  1  0  0  0  0
  3 26  1  0  0  0  0
  4 27  1  0  0  0  0
  6 28  1  0  0  0  0
  7 29  1  0  0  0  0
  9 30  1  0  0  0  0
 10 31  1  0  0  0  0
 15 32  1  0  0  0  0
 16 33  1  0  0  0  0
 18 34  1  0  0  0  0
 19 35  1  0  0  0  0
 21 36  1  0  0  0  0
 22 37  1  0  0  0  0
 38 39  4  0  0  0  0
 39 40  4  0  0  0  0
 40 41  2  0  0  0  0
 41 42  4  0  0  0  0
 39 43  4  0  0  0  0
 42 43  4  0  0  0  0
 42 44  4  0  0  0  0
 44 45  4  0  0  0  0
 45 46  1  0  0  0  0
 46 47  2  0  0  0  0
 45 48  4  0  0  0  0
 47 49  1  0  0  0  0
 48 49  4  0  0  0  0
 49 50  4  0  0  0  0
 50 51  4  0  0  0  0
 51 52  4  0  0  0  0
 52 53  2  0  0  0  0
 53 54  4  0  0  0  0
 51 55  4  0  0  0  0
 54 55  4  0  0  0  0
 54 56  4  0  0  0  0
 56 57  4  0  0  0  0
 57 58  1  0  0  0  0
 58 59  2  0  0  0  0
 38 60  4  0  0  0  0
 59 60  1  0  0  0  0
 57 61  4  0  0  0  0
 60 61  4  0  0  0  0
 38 62  1  0  0  0  0
 40 63  1  0  0  0  0
 41 64  1  0  0  0  0
 43 65  1  0  0  0  0
 44 66  1  0  0  0  0
 46 67  1  0  0  0  0
 47 68  1  0  0  0  0
 52 69  1  0  0  0  0
 53 70  1  0  0  0  0
 55 71  1  0  0  0  0
 56 72  1  0  0  0  0
 58 73  1  0  0  0  0
 59 74  1  0  0  0  0
 13 75  4  0  0  0  0
 75 76  3  0  0  0  0
 50 78  4  0  0  0  0
 77 78  3  0  0  0  0
 76 79  4  0  0  0  0
 79 80  4  0  0  0  0
 80 81  4  0  0  0  0
 81 82  2  0  0  0  0
 82 83  4  0  0  0  0
 80 84  4  0  0  0  0
 83 84  4  0  0  0  0
 83 85  4  0  0  0  0
 85 86  4  0  0  0  0
 86 87  1  0  0  0  0
 87 88  2  0  0  0  0
 86 89  4  0  0  0  0
 88 90  1  0  0  0  0
 89 90  4  0  0  0  0
 77 91  4  0  0  0  0
 90 91  4  0  0  0  0
 91 92  4  0  0  0  0
 92 93  4  0  0  0  0
 93 94  2  0  0  0  0
 94 95  4  0  0  0  0
 92 96  4  0  0  0  0
 95 96  4  0  0  0  0
 95 97  4  0  0  0  0
 97 98  4  0  0  0  0
 98 99  1  0  0  0  0
 99100  2  0  0  0  0
 79101  4  0  0  0  0
100101  1  0  0  0  0
 98102  4  0  0  0  0
101102  4  0  0  0  0
 81103  1  0  0  0  0
 82104  1  0  0  0  0
 84105  1  0  0  0  0
 85106  1  0  0  0  0
 87107  1  0  0  0  0
 88108  1  0  0  0  0
 93109  1  0  0  0  0
 94110  1  0  0  0  0
 96111  1  0  0  0  0
 97112  1  0  0  0  0
 99113  1  0  0  0  0
100114  1  0  0  0  0
M  END
