 xtb: 6.5.1 (b24c23e)
          07292219123D

254293  0     0  0            999 V2000
   40.9226   -0.1880   -0.0938 Fe  0  0  0  0  0  0  0  0  0  0  0  0
   37.5196   -0.1599   -0.1844 C   0  0  0  0  0  0  0  0  0  0  0  0
   38.1464    0.6867    0.7056 C   0  0  0  0  0  0  0  0  0  0  0  0
   37.4437    1.5477    1.6085 C   0  0  0  0  0  0  0  0  0  0  0  0
   38.3848    2.2230    2.3103 C   0  0  0  0  0  0  0  0  0  0  0  0
   39.6564    1.7732    1.8299 C   0  0  0  0  0  0  0  0  0  0  0  0
   39.5028    0.8366    0.8502 N   0  0  0  0  0  0  0  0  0  0  0  0
   40.8744    2.2658    2.3030 C   0  0  0  0  0  0  0  0  0  0  0  0
   40.8571    3.2576    3.3076 C   0  0  0  0  0  0  0  0  0  0  0  0
   40.8480    4.1115    4.1696 C   0  0  0  0  0  0  0  0  0  0  0  0
   40.8441    5.1081    5.1724 C   0  0  0  0  0  0  0  0  0  0  0  0
   42.0392    5.6587    5.6503 C   0  0  0  0  0  0  0  0  0  0  0  0
   41.9831    6.6325    6.6313 C   0  0  0  0  0  0  0  0  0  0  0  0
   40.8414    7.0773    7.1501 N   0  0  0  0  0  0  0  0  0  0  0  0
   39.7011    6.5587    6.7015 C   0  0  0  0  0  0  0  0  0  0  0  0
   39.6477    5.5816    5.7234 C   0  0  0  0  0  0  0  0  0  0  0  0
   42.1093    1.8254    1.8266 C   0  0  0  0  0  0  0  0  0  0  0  0
   43.3587    2.3309    2.3038 C   0  0  0  0  0  0  0  0  0  0  0  0
   44.3286    1.6664    1.6297 C   0  0  0  0  0  0  0  0  0  0  0  0
   42.3071    0.8704    0.8655 N   0  0  0  0  0  0  0  0  0  0  0  0
   43.6641    0.7593    0.7473 C   0  0  0  0  0  0  0  0  0  0  0  0
   44.3456   -0.1170   -0.1023 C   0  0  0  0  0  0  0  0  0  0  0  0
   43.6963   -1.0158   -0.9539 C   0  0  0  0  0  0  0  0  0  0  0  0
   44.3932   -1.9299   -1.8035 C   0  0  0  0  0  0  0  0  0  0  0  0
   43.4479   -2.6310   -2.4758 C   0  0  0  0  0  0  0  0  0  0  0  0
   42.1811   -2.1374   -2.0335 C   0  0  0  0  0  0  0  0  0  0  0  0
   42.3441   -1.1467   -1.1025 N   0  0  0  0  0  0  0  0  0  0  0  0
   40.9633   -2.6090   -2.5235 C   0  0  0  0  0  0  0  0  0  0  0  0
   40.9773   -3.6285   -3.5000 C   0  0  0  0  0  0  0  0  0  0  0  0
   40.9822   -4.5044   -4.3399 C   0  0  0  0  0  0  0  0  0  0  0  0
   40.9824   -5.5271   -5.3161 C   0  0  0  0  0  0  0  0  0  0  0  0
   42.1768   -6.0917   -5.7783 C   0  0  0  0  0  0  0  0  0  0  0  0
   42.1200   -7.0892   -6.7353 C   0  0  0  0  0  0  0  0  0  0  0  0
   40.9781   -7.5444   -7.2448 N   0  0  0  0  0  0  0  0  0  0  0  0
   39.8382   -7.0126   -6.8107 C   0  0  0  0  0  0  0  0  0  0  0  0
   39.7857   -6.0117   -5.8571 C   0  0  0  0  0  0  0  0  0  0  0  0
   39.7284   -2.1184   -2.0935 C   0  0  0  0  0  0  0  0  0  0  0  0
   38.4745   -2.5889   -2.6000 C   0  0  0  0  0  0  0  0  0  0  0  0
   37.5088   -1.8976   -1.9493 C   0  0  0  0  0  0  0  0  0  0  0  0
   38.1787   -1.0112   -1.0460 C   0  0  0  0  0  0  0  0  0  0  0  0
   39.5400   -1.1479   -1.1537 N   0  0  0  0  0  0  0  0  0  0  0  0
   36.4355   -0.1627   -0.2018 H   0  0  0  0  0  0  0  0  0  0  0  0
   36.3697    1.6105    1.6821 H   0  0  0  0  0  0  0  0  0  0  0  0
   38.2499    2.9616    3.0842 H   0  0  0  0  0  0  0  0  0  0  0  0
   42.9912    5.3251    5.2552 H   0  0  0  0  0  0  0  0  0  0  0  0
   42.8946    7.0774    7.0201 H   0  0  0  0  0  0  0  0  0  0  0  0
   38.7885    6.9444    7.1466 H   0  0  0  0  0  0  0  0  0  0  0  0
   38.6967    5.1867    5.3869 H   0  0  0  0  0  0  0  0  0  0  0  0
   43.4637    3.0934    3.0587 H   0  0  0  0  0  0  0  0  0  0  0  0
   45.3987    1.7672    1.7133 H   0  0  0  0  0  0  0  0  0  0  0  0
   45.4662   -2.0139   -1.8644 H   0  0  0  0  0  0  0  0  0  0  0  0
   43.5802   -3.4125   -3.2066 H   0  0  0  0  0  0  0  0  0  0  0  0
   43.1291   -5.7506   -5.3904 H   0  0  0  0  0  0  0  0  0  0  0  0
   43.0311   -7.5453   -7.1119 H   0  0  0  0  0  0  0  0  0  0  0  0
   38.9254   -7.4072   -7.2476 H   0  0  0  0  0  0  0  0  0  0  0  0
   38.8351   -5.6065   -5.5318 H   0  0  0  0  0  0  0  0  0  0  0  0
   38.3670   -3.3510   -3.3553 H   0  0  0  0  0  0  0  0  0  0  0  0
   36.4379   -1.9699   -2.0531 H   0  0  0  0  0  0  0  0  0  0  0  0
   96.4020   -0.2253   -0.1136 Fe  0  0  0  0  0  0  0  0  0  0  0  0
   99.8010   -0.3309   -0.2424 C   0  0  0  0  0  0  0  0  0  0  0  0
   99.1106   -1.4864   -0.5420 C   0  0  0  0  0  0  0  0  0  0  0  0
   99.7467   -2.7220   -0.8867 C   0  0  0  0  0  0  0  0  0  0  0  0
   98.7563   -3.6216   -1.0963 C   0  0  0  0  0  0  0  0  0  0  0  0
   97.5214   -2.9311   -0.8766 C   0  0  0  0  0  0  0  0  0  0  0  0
   97.7453   -1.6264   -0.5487 N   0  0  0  0  0  0  0  0  0  0  0  0
   96.2701   -3.5434   -0.9785 C   0  0  0  0  0  0  0  0  0  0  0  0
   96.2180   -4.9106   -1.3270 C   0  0  0  0  0  0  0  0  0  0  0  0
   96.1775   -6.0843   -1.6325 C   0  0  0  0  0  0  0  0  0  0  0  0
   96.1340   -7.4513   -1.9906 C   0  0  0  0  0  0  0  0  0  0  0  0
   94.9163   -8.1227   -2.1512 C   0  0  0  0  0  0  0  0  0  0  0  0
   94.9303   -9.4602   -2.5048 C   0  0  0  0  0  0  0  0  0  0  0  0
   96.0517  -10.1489   -2.7015 N   0  0  0  0  0  0  0  0  0  0  0  0
   97.2134   -9.5180   -2.5503 C   0  0  0  0  0  0  0  0  0  0  0  0
   97.3089   -8.1832   -2.1995 C   0  0  0  0  0  0  0  0  0  0  0  0
   95.0722   -2.8678   -0.7471 C   0  0  0  0  0  0  0  0  0  0  0  0
   93.7900   -3.4951   -0.8268 C   0  0  0  0  0  0  0  0  0  0  0  0
   92.8717   -2.5362   -0.5545 C   0  0  0  0  0  0  0  0  0  0  0  0
   94.9448   -1.5415   -0.4309 N   0  0  0  0  0  0  0  0  0  0  0  0
   93.6001   -1.3300   -0.3137 C   0  0  0  0  0  0  0  0  0  0  0  0
   92.9822   -0.1065   -0.0348 C   0  0  0  0  0  0  0  0  0  0  0  0
   93.6943    1.0741    0.1977 C   0  0  0  0  0  0  0  0  0  0  0  0
   93.0622    2.3231    0.4868 C   0  0  0  0  0  0  0  0  0  0  0  0
   94.0560    3.2232    0.6843 C   0  0  0  0  0  0  0  0  0  0  0  0
   95.2873    2.5168    0.5136 C   0  0  0  0  0  0  0  0  0  0  0  0
   95.0545    1.2033    0.2048 N   0  0  0  0  0  0  0  0  0  0  0  0
   96.5389    3.1144    0.6617 C   0  0  0  0  0  0  0  0  0  0  0  0
   96.5949    4.4830    1.0036 C   0  0  0  0  0  0  0  0  0  0  0  0
   96.6410    5.6583    1.3019 C   0  0  0  0  0  0  0  0  0  0  0  0
   96.6901    7.0272    1.6521 C   0  0  0  0  0  0  0  0  0  0  0  0
   95.5188    7.7589    1.8811 C   0  0  0  0  0  0  0  0  0  0  0  0
   95.6200    9.0955    2.2235 C   0  0  0  0  0  0  0  0  0  0  0  0
   96.7838    9.7284    2.3474 N   0  0  0  0  0  0  0  0  0  0  0  0
   97.9017    9.0400    2.1309 C   0  0  0  0  0  0  0  0  0  0  0  0
   97.9100    7.7005    1.7846 C   0  0  0  0  0  0  0  0  0  0  0  0
   97.7388    2.4197    0.4938 C   0  0  0  0  0  0  0  0  0  0  0  0
   99.0275    3.0240    0.6500 C   0  0  0  0  0  0  0  0  0  0  0  0
   99.9424    2.0581    0.3968 C   0  0  0  0  0  0  0  0  0  0  0  0
   99.2069    0.8690    0.0876 C   0  0  0  0  0  0  0  0  0  0  0  0
   97.8565    1.1050    0.1503 N   0  0  0  0  0  0  0  0  0  0  0  0
  100.8843   -0.3684   -0.2683 H   0  0  0  0  0  0  0  0  0  0  0  0
  100.8139   -2.8628   -0.9521 H   0  0  0  0  0  0  0  0  0  0  0  0
   98.8353   -4.6613   -1.3710 H   0  0  0  0  0  0  0  0  0  0  0  0
   93.9796   -7.5998   -2.0008 H   0  0  0  0  0  0  0  0  0  0  0  0
   94.0004  -10.0059   -2.6368 H   0  0  0  0  0  0  0  0  0  0  0  0
   98.1086  -10.1099   -2.7184 H   0  0  0  0  0  0  0  0  0  0  0  0
   98.2761   -7.7083   -2.0872 H   0  0  0  0  0  0  0  0  0  0  0  0
   93.6299   -4.5354   -1.0604 H   0  0  0  0  0  0  0  0  0  0  0  0
   91.7977   -2.6217   -0.5184 H   0  0  0  0  0  0  0  0  0  0  0  0
   91.9957    2.4741    0.5330 H   0  0  0  0  0  0  0  0  0  0  0  0
   93.9785    4.2708    0.9268 H   0  0  0  0  0  0  0  0  0  0  0  0
   94.5502    7.2823    1.7912 H   0  0  0  0  0  0  0  0  0  0  0  0
   94.7278    9.6871    2.4075 H   0  0  0  0  0  0  0  0  0  0  0  0
   98.8334    9.5875    2.2404 H   0  0  0  0  0  0  0  0  0  0  0  0
   98.8441    7.1778    1.6177 H   0  0  0  0  0  0  0  0  0  0  0  0
   99.1908    4.0554    0.9183 H   0  0  0  0  0  0  0  0  0  0  0  0
  101.0187    2.1243    0.4125 H   0  0  0  0  0  0  0  0  0  0  0  0
   45.7497   -0.1017   -0.0916 C   0  0  0  0  0  0  0  0  0  0  0  0
   46.9743   -0.0896   -0.0818 C   0  0  0  0  0  0  0  0  0  0  0  0
   48.3165   -0.0851   -0.0760 C   0  0  0  0  0  0  0  0  0  0  0  0
   49.5475   -0.0893   -0.0733 C   0  0  0  0  0  0  0  0  0  0  0  0
   50.8845   -0.1081   -0.0815 C   0  0  0  0  0  0  0  0  0  0  0  0
   52.1152   -0.1383   -0.0971 C   0  0  0  0  0  0  0  0  0  0  0  0
   53.4554   -0.1935   -0.1294 C   0  0  0  0  0  0  0  0  0  0  0  0
   54.6778   -0.2618   -0.1731 C   0  0  0  0  0  0  0  0  0  0  0  0
   64.2221    0.1801    0.1643 C   0  0  0  0  0  0  0  0  0  0  0  0
   65.4365    0.3207    0.2677 C   0  0  0  0  0  0  0  0  0  0  0  0
   66.7685    0.4252    0.3479 C   0  0  0  0  0  0  0  0  0  0  0  0
   68.0001    0.4747    0.3868 C   0  0  0  0  0  0  0  0  0  0  0  0
   69.3338    0.4768    0.3925 C   0  0  0  0  0  0  0  0  0  0  0  0
   70.5658    0.4321    0.3637 C   0  0  0  0  0  0  0  0  0  0  0  0
   71.8986    0.3306    0.2953 C   0  0  0  0  0  0  0  0  0  0  0  0
   73.1141    0.1938    0.1993 C   0  0  0  0  0  0  0  0  0  0  0  0
   82.6550   -0.1992   -0.0671 C   0  0  0  0  0  0  0  0  0  0  0  0
   83.8770   -0.1259   -0.0103 C   0  0  0  0  0  0  0  0  0  0  0  0
   85.2159   -0.0656    0.0332 C   0  0  0  0  0  0  0  0  0  0  0  0
   86.4469   -0.0318    0.0551 C   0  0  0  0  0  0  0  0  0  0  0  0
   87.7832   -0.0159    0.0648 C   0  0  0  0  0  0  0  0  0  0  0  0
   89.0147   -0.0194    0.0589 C   0  0  0  0  0  0  0  0  0  0  0  0
   90.3558   -0.0374    0.0389 C   0  0  0  0  0  0  0  0  0  0  0  0
   91.5802   -0.0633    0.0075 C   0  0  0  0  0  0  0  0  0  0  0  0
   59.4816   -0.4699   -0.3108 Fe  0  0  0  0  0  0  0  0  0  0  0  0
   56.0759   -0.3550   -0.2362 C   0  0  0  0  0  0  0  0  0  0  0  0
   56.7407    0.2695   -1.2986 C   0  0  0  0  0  0  0  0  0  0  0  0
   56.0659    0.9091   -2.3839 C   0  0  0  0  0  0  0  0  0  0  0  0
   57.0218    1.2668   -3.2776 C   0  0  0  0  0  0  0  0  0  0  0  0
   58.2755    0.8792   -2.7113 C   0  0  0  0  0  0  0  0  0  0  0  0
   58.0907    0.2646   -1.5045 N   0  0  0  0  0  0  0  0  0  0  0  0
   59.5119    1.1843   -3.2877 C   0  0  0  0  0  0  0  0  0  0  0  0
   59.5289    1.7852   -4.5644 C   0  0  0  0  0  0  0  0  0  0  0  0
   59.5447    2.2851   -5.6701 C   0  0  0  0  0  0  0  0  0  0  0  0
   59.5633    2.8694   -6.9574 C   0  0  0  0  0  0  0  0  0  0  0  0
   60.7697    3.1807   -7.5951 C   0  0  0  0  0  0  0  0  0  0  0  0
   60.7332    3.7500   -8.8557 C   0  0  0  0  0  0  0  0  0  0  0  0
   59.6002    4.0201   -9.4988 N   0  0  0  0  0  0  0  0  0  0  0  0
   58.4491    3.7277   -8.8990 C   0  0  0  0  0  0  0  0  0  0  0  0
   58.3760    3.1566   -7.6409 C   0  0  0  0  0  0  0  0  0  0  0  0
   60.7251    0.9983   -2.6224 C   0  0  0  0  0  0  0  0  0  0  0  0
   61.9746    1.5051   -3.0970 C   0  0  0  0  0  0  0  0  0  0  0  0
   62.8916    1.2395   -2.1334 C   0  0  0  0  0  0  0  0  0  0  0  0
   60.8795    0.4026   -1.4002 N   0  0  0  0  0  0  0  0  0  0  0  0
   62.2024    0.5371   -1.0967 C   0  0  0  0  0  0  0  0  0  0  0  0
   62.8461   -0.0241    0.0152 C   0  0  0  0  0  0  0  0  0  0  0  0
   62.1969   -0.8886    0.9078 C   0  0  0  0  0  0  0  0  0  0  0  0
   62.8805   -1.6387    1.9143 C   0  0  0  0  0  0  0  0  0  0  0  0
   61.9604   -2.4626    2.4752 C   0  0  0  0  0  0  0  0  0  0  0  0
   60.7145   -2.1798    1.8341 C   0  0  0  0  0  0  0  0  0  0  0  0
   60.8740   -1.2189    0.8732 N   0  0  0  0  0  0  0  0  0  0  0  0
   59.4997   -2.7516    2.2173 C   0  0  0  0  0  0  0  0  0  0  0  0
   59.5129   -3.7640    3.2003 C   0  0  0  0  0  0  0  0  0  0  0  0
   59.5273   -4.6459    4.0338 C   0  0  0  0  0  0  0  0  0  0  0  0
   59.5450   -5.6704    5.0079 C   0  0  0  0  0  0  0  0  0  0  0  0
   58.3608   -6.2695    5.4528 C   0  0  0  0  0  0  0  0  0  0  0  0
   58.4332   -7.2675    6.4083 C   0  0  0  0  0  0  0  0  0  0  0  0
   59.5809   -7.6913    6.9312 N   0  0  0  0  0  0  0  0  0  0  0  0
   60.7111   -7.1268    6.5136 C   0  0  0  0  0  0  0  0  0  0  0  0
   60.7479   -6.1221    5.5630 C   0  0  0  0  0  0  0  0  0  0  0  0
   58.2657   -2.3069    1.7343 C   0  0  0  0  0  0  0  0  0  0  0  0
   57.0093   -2.7192    2.2766 C   0  0  0  0  0  0  0  0  0  0  0  0
   56.0567   -1.9855    1.6484 C   0  0  0  0  0  0  0  0  0  0  0  0
   56.7362   -1.1615    0.6989 C   0  0  0  0  0  0  0  0  0  0  0  0
   58.0857   -1.3600    0.7650 N   0  0  0  0  0  0  0  0  0  0  0  0
   54.9981    1.0419   -2.4499 H   0  0  0  0  0  0  0  0  0  0  0  0
   56.9045    1.7659   -4.2259 H   0  0  0  0  0  0  0  0  0  0  0  0
   61.7149    2.9771   -7.1067 H   0  0  0  0  0  0  0  0  0  0  0  0
   61.6536    4.0014   -9.3747 H   0  0  0  0  0  0  0  0  0  0  0  0
   57.5443    3.9617   -9.4524 H   0  0  0  0  0  0  0  0  0  0  0  0
   57.4171    2.9343   -7.1886 H   0  0  0  0  0  0  0  0  0  0  0  0
   62.1133    2.0142   -4.0372 H   0  0  0  0  0  0  0  0  0  0  0  0
   63.9436    1.4745   -2.1214 H   0  0  0  0  0  0  0  0  0  0  0  0
   63.9314   -1.5507    2.1382 H   0  0  0  0  0  0  0  0  0  0  0  0
   62.0949   -3.1848    3.2642 H   0  0  0  0  0  0  0  0  0  0  0  0
   57.4046   -5.9541    5.0529 H   0  0  0  0  0  0  0  0  0  0  0  0
   57.5307   -7.7501    6.7719 H   0  0  0  0  0  0  0  0  0  0  0  0
   61.6288   -7.4969    6.9615 H   0  0  0  0  0  0  0  0  0  0  0  0
   61.6908   -5.6895    5.2510 H   0  0  0  0  0  0  0  0  0  0  0  0
   56.8881   -3.4589    3.0515 H   0  0  0  0  0  0  0  0  0  0  0  0
   54.9882   -2.0052    1.7903 H   0  0  0  0  0  0  0  0  0  0  0  0
   77.8570   -0.4409   -0.2575 Fe  0  0  0  0  0  0  0  0  0  0  0  0
   74.4913   -0.0059    0.0560 C   0  0  0  0  0  0  0  0  0  0  0  0
   75.1364    0.5537   -1.0563 C   0  0  0  0  0  0  0  0  0  0  0  0
   74.4485    1.2447   -2.1013 C   0  0  0  0  0  0  0  0  0  0  0  0
   75.3711    1.5182   -3.0575 C   0  0  0  0  0  0  0  0  0  0  0  0
   76.6223    1.0292   -2.5693 C   0  0  0  0  0  0  0  0  0  0  0  0
   76.4629    0.4324   -1.3484 N   0  0  0  0  0  0  0  0  0  0  0  0
   77.8419    1.2421   -3.2152 C   0  0  0  0  0  0  0  0  0  0  0  0
   77.8321    1.8436   -4.4915 C   0  0  0  0  0  0  0  0  0  0  0  0
   77.8205    2.3373   -5.6001 C   0  0  0  0  0  0  0  0  0  0  0  0
   77.8059    2.9126   -6.8914 C   0  0  0  0  0  0  0  0  0  0  0  0
   78.9921    3.1349   -7.6004 C   0  0  0  0  0  0  0  0  0  0  0  0
   78.9222    3.6973   -8.8627 C   0  0  0  0  0  0  0  0  0  0  0  0
   77.7754    4.0416   -9.4426 N   0  0  0  0  0  0  0  0  0  0  0  0
   76.6434    3.8342   -8.7749 C   0  0  0  0  0  0  0  0  0  0  0  0
   76.6038    3.2778   -7.5087 C   0  0  0  0  0  0  0  0  0  0  0  0
   79.0747    0.9636   -2.6179 C   0  0  0  0  0  0  0  0  0  0  0  0
   80.3286    1.3949   -3.1509 C   0  0  0  0  0  0  0  0  0  0  0  0
   81.2760    1.0431   -2.2457 C   0  0  0  0  0  0  0  0  0  0  0  0
   79.2518    0.3312   -1.4193 N   0  0  0  0  0  0  0  0  0  0  0  0
   80.5974    0.3606   -1.1890 C   0  0  0  0  0  0  0  0  0  0  0  0
   81.2595   -0.3022   -0.1477 C   0  0  0  0  0  0  0  0  0  0  0  0
   80.5983   -1.1580    0.7430 C   0  0  0  0  0  0  0  0  0  0  0  0
   81.2757   -2.0189    1.6606 C   0  0  0  0  0  0  0  0  0  0  0  0
   80.3205   -2.7679    2.2666 C   0  0  0  0  0  0  0  0  0  0  0  0
   79.0648   -2.3287    1.7437 C   0  0  0  0  0  0  0  0  0  0  0  0
   79.2488   -1.3536    0.8031 N   0  0  0  0  0  0  0  0  0  0  0  0
   77.8292   -2.7673    2.2277 C   0  0  0  0  0  0  0  0  0  0  0  0
   77.8111   -3.7946    3.1949 C   0  0  0  0  0  0  0  0  0  0  0  0
   77.7926   -4.6870    4.0172 C   0  0  0  0  0  0  0  0  0  0  0  0
   77.7712   -5.7227    4.9793 C   0  0  0  0  0  0  0  0  0  0  0  0
   76.5659   -6.1842    5.5212 C   0  0  0  0  0  0  0  0  0  0  0  0
   76.5995   -7.1991    6.4609 C   0  0  0  0  0  0  0  0  0  0  0  0
   77.7286   -7.7644    6.8802 N   0  0  0  0  0  0  0  0  0  0  0  0
   78.8785   -7.3314    6.3699 C   0  0  0  0  0  0  0  0  0  0  0  0
   78.9543   -6.3230    5.4256 C   0  0  0  0  0  0  0  0  0  0  0  0
   76.6182   -2.1747    1.8634 C   0  0  0  0  0  0  0  0  0  0  0  0
   75.3736   -2.4514    2.5095 C   0  0  0  0  0  0  0  0  0  0  0  0
   74.4566   -1.6177    1.9577 C   0  0  0  0  0  0  0  0  0  0  0  0
   75.1406   -0.8675    0.9515 C   0  0  0  0  0  0  0  0  0  0  0  0
   76.4618   -1.2048    0.9115 N   0  0  0  0  0  0  0  0  0  0  0  0
   73.3938    1.4677   -2.0994 H   0  0  0  0  0  0  0  0  0  0  0  0
   75.2349    2.0237   -4.0000 H   0  0  0  0  0  0  0  0  0  0  0  0
   79.9476    2.8687   -7.1650 H   0  0  0  0  0  0  0  0  0  0  0  0
   79.8263    3.8803   -9.4362 H   0  0  0  0  0  0  0  0  0  0  0  0
   75.7265    4.1271   -9.2780 H   0  0  0  0  0  0  0  0  0  0  0  0
   75.6596    3.1256   -7.0001 H   0  0  0  0  0  0  0  0  0  0  0  0
   80.4513    1.9167   -4.0863 H   0  0  0  0  0  0  0  0  0  0  0  0
   82.3412    1.2032   -2.2884 H   0  0  0  0  0  0  0  0  0  0  0  0
   82.3444   -2.0493    1.7991 H   0  0  0  0  0  0  0  0  0  0  0  0
   80.4396   -3.5339    3.0158 H   0  0  0  0  0  0  0  0  0  0  0  0
   75.6239   -5.7510    5.2074 H   0  0  0  0  0  0  0  0  0  0  0  0
   75.6800   -7.5770    6.8984 H   0  0  0  0  0  0  0  0  0  0  0  0
   79.7801   -7.8149    6.7347 H   0  0  0  0  0  0  0  0  0  0  0  0
   79.9121   -6.0002    5.0359 H   0  0  0  0  0  0  0  0  0  0  0  0
   75.2374   -3.1776    3.2946 H   0  0  0  0  0  0  0  0  0  0  0  0
   73.4073   -1.5239    2.1866 H   0  0  0  0  0  0  0  0  0  0  0  0
  2  3  4  0  0  0  0
  3  4  4  0  0  0  0
  4  5  2  0  0  0  0
  5  6  4  0  0  0  0
  1  7  1  0  0  0  0
  3  7  4  0  0  0  0
  6  7  4  0  0  0  0
  6  8  4  0  0  0  0
  8  9  1  0  0  0  0
  9 10  3  0  0  0  0
 10 11  1  0  0  0  0
 11 12  4  0  0  0  0
 12 13  4  0  0  0  0
 13 14  4  0  0  0  0
 14 15  4  0  0  0  0
 11 16  4  0  0  0  0
 15 16  4  0  0  0  0
  8 17  4  0  0  0  0
 17 18  4  0  0  0  0
 18 19  2  0  0  0  0
  1 20  1  0  0  0  0
 17 20  4  0  0  0  0
 19 21  4  0  0  0  0
 20 21  4  0  0  0  0
 21 22  4  0  0  0  0
 22 23  4  0  0  0  0
 23 24  4  0  0  0  0
 24 25  2  0  0  0  0
 25 26  4  0  0  0  0
  1 27  1  0  0  0  0
 23 27  4  0  0  0  0
 26 27  4  0  0  0  0
 26 28  4  0  0  0  0
 28 29  1  0  0  0  0
 29 30  3  0  0  0  0
 30 31  1  0  0  0  0
 31 32  4  0  0  0  0
 32 33  4  0  0  0  0
 33 34  4  0  0  0  0
 34 35  4  0  0  0  0
 31 36  4  0  0  0  0
 35 36  4  0  0  0  0
 28 37  4  0  0  0  0
 37 38  4  0  0  0  0
 38 39  2  0  0  0  0
  2 40  4  0  0  0  0
 39 40  4  0  0  0  0
  1 41  1  0  0  0  0
 37 41  4  0  0  0  0
 40 41  4  0  0  0  0
  2 42  1  0  0  0  0
  4 43  1  0  0  0  0
  5 44  1  0  0  0  0
 12 45  1  0  0  0  0
 13 46  1  0  0  0  0
 15 47  1  0  0  0  0
 16 48  1  0  0  0  0
 18 49  1  0  0  0  0
 19 50  1  0  0  0  0
 24 51  1  0  0  0  0
 25 52  1  0  0  0  0
 32 53  1  0  0  0  0
 33 54  1  0  0  0  0
 35 55  1  0  0  0  0
 36 56  1  0  0  0  0
 38 57  1  0  0  0  0
 39 58  1  0  0  0  0
 60 61  4  0  0  0  0
 61 62  4  0  0  0  0
 62 63  2  0  0  0  0
 63 64  4  0  0  0  0
 59 65  1  0  0  0  0
 61 65  4  0  0  0  0
 64 65  4  0  0  0  0
 64 66  4  0  0  0  0
 66 67  1  0  0  0  0
 67 68  3  0  0  0  0
 68 69  1  0  0  0  0
 69 70  4  0  0  0  0
 70 71  4  0  0  0  0
 71 72  4  0  0  0  0
 72 73  4  0  0  0  0
 69 74  4  0  0  0  0
 73 74  4  0  0  0  0
 66 75  4  0  0  0  0
 75 76  4  0  0  0  0
 76 77  2  0  0  0  0
 59 78  1  0  0  0  0
 75 78  4  0  0  0  0
 77 79  4  0  0  0  0
 78 79  4  0  0  0  0
 79 80  4  0  0  0  0
 80 81  4  0  0  0  0
 81 82  4  0  0  0  0
 82 83  2  0  0  0  0
 83 84  4  0  0  0  0
 59 85  1  0  0  0  0
 81 85  4  0  0  0  0
 84 85  4  0  0  0  0
 84 86  4  0  0  0  0
 86 87  1  0  0  0  0
 87 88  3  0  0  0  0
 88 89  1  0  0  0  0
 89 90  4  0  0  0  0
 90 91  4  0  0  0  0
 91 92  4  0  0  0  0
 92 93  4  0  0  0  0
 89 94  4  0  0  0  0
 93 94  4  0  0  0  0
 86 95  4  0  0  0  0
 95 96  4  0  0  0  0
 96 97  2  0  0  0  0
 60 98  4  0  0  0  0
 97 98  4  0  0  0  0
 59 99  1  0  0  0  0
 95 99  4  0  0  0  0
 98 99  4  0  0  0  0
 60100  1  0  0  0  0
 62101  1  0  0  0  0
 63102  1  0  0  0  0
 70103  1  0  0  0  0
 71104  1  0  0  0  0
 73105  1  0  0  0  0
 74106  1  0  0  0  0
 76107  1  0  0  0  0
 77108  1  0  0  0  0
 82109  1  0  0  0  0
 83110  1  0  0  0  0
 90111  1  0  0  0  0
 91112  1  0  0  0  0
 93113  1  0  0  0  0
 94114  1  0  0  0  0
 96115  1  0  0  0  0
 97116  1  0  0  0  0
 22117  4  0  0  0  0
117118  3  0  0  0  0
118119  4  0  0  0  0
119120  3  0  0  0  0
120121  4  0  0  0  0
121122  3  0  0  0  0
122123  4  0  0  0  0
123124  3  0  0  0  0
125126  3  0  0  0  0
126127  4  0  0  0  0
127128  3  0  0  0  0
128129  4  0  0  0  0
129130  3  0  0  0  0
130131  4  0  0  0  0
131132  3  0  0  0  0
133134  3  0  0  0  0
134135  4  0  0  0  0
135136  3  0  0  0  0
136137  4  0  0  0  0
137138  3  0  0  0  0
138139  4  0  0  0  0
 80140  4  0  0  0  0
139140  3  0  0  0  0
124142  4  0  0  0  0
142143  4  0  0  0  0
143144  4  0  0  0  0
144145  2  0  0  0  0
145146  4  0  0  0  0
141147  1  0  0  0  0
143147  4  0  0  0  0
146147  4  0  0  0  0
146148  4  0  0  0  0
148149  1  0  0  0  0
149150  3  0  0  0  0
150151  1  0  0  0  0
151152  4  0  0  0  0
152153  4  0  0  0  0
153154  4  0  0  0  0
154155  4  0  0  0  0
151156  4  0  0  0  0
155156  4  0  0  0  0
148157  4  0  0  0  0
157158  4  0  0  0  0
158159  2  0  0  0  0
141160  1  0  0  0  0
157160  4  0  0  0  0
159161  4  0  0  0  0
160161  4  0  0  0  0
125162  4  0  0  0  0
161162  4  0  0  0  0
162163  4  0  0  0  0
163164  4  0  0  0  0
164165  2  0  0  0  0
165166  4  0  0  0  0
141167  1  0  0  0  0
163167  4  0  0  0  0
166167  4  0  0  0  0
166168  4  0  0  0  0
168169  1  0  0  0  0
169170  3  0  0  0  0
170171  1  0  0  0  0
171172  4  0  0  0  0
172173  4  0  0  0  0
173174  4  0  0  0  0
174175  4  0  0  0  0
171176  4  0  0  0  0
175176  4  0  0  0  0
168177  4  0  0  0  0
177178  4  0  0  0  0
178179  2  0  0  0  0
142180  4  0  0  0  0
179180  4  0  0  0  0
141181  1  0  0  0  0
177181  4  0  0  0  0
180181  4  0  0  0  0
144182  1  0  0  0  0
145183  1  0  0  0  0
152184  1  0  0  0  0
153185  1  0  0  0  0
155186  1  0  0  0  0
156187  1  0  0  0  0
158188  1  0  0  0  0
159189  1  0  0  0  0
164190  1  0  0  0  0
165191  1  0  0  0  0
172192  1  0  0  0  0
173193  1  0  0  0  0
175194  1  0  0  0  0
176195  1  0  0  0  0
178196  1  0  0  0  0
179197  1  0  0  0  0
132199  4  0  0  0  0
199200  4  0  0  0  0
200201  4  0  0  0  0
201202  2  0  0  0  0
202203  4  0  0  0  0
198204  1  0  0  0  0
200204  4  0  0  0  0
203204  4  0  0  0  0
203205  4  0  0  0  0
205206  1  0  0  0  0
206207  3  0  0  0  0
207208  1  0  0  0  0
208209  4  0  0  0  0
209210  4  0  0  0  0
210211  4  0  0  0  0
211212  4  0  0  0  0
208213  4  0  0  0  0
212213  4  0  0  0  0
205214  4  0  0  0  0
214215  4  0  0  0  0
215216  2  0  0  0  0
198217  1  0  0  0  0
214217  4  0  0  0  0
216218  4  0  0  0  0
217218  4  0  0  0  0
133219  4  0  0  0  0
218219  4  0  0  0  0
219220  4  0  0  0  0
220221  4  0  0  0  0
221222  2  0  0  0  0
222223  4  0  0  0  0
198224  1  0  0  0  0
220224  4  0  0  0  0
223224  4  0  0  0  0
223225  4  0  0  0  0
225226  1  0  0  0  0
226227  3  0  0  0  0
227228  1  0  0  0  0
228229  4  0  0  0  0
229230  4  0  0  0  0
230231  4  0  0  0  0
231232  4  0  0  0  0
228233  4  0  0  0  0
232233  4  0  0  0  0
225234  4  0  0  0  0
234235  4  0  0  0  0
235236  2  0  0  0  0
199237  4  0  0  0  0
236237  4  0  0  0  0
198238  1  0  0  0  0
234238  4  0  0  0  0
237238  4  0  0  0  0
201239  1  0  0  0  0
202240  1  0  0  0  0
209241  1  0  0  0  0
210242  1  0  0  0  0
212243  1  0  0  0  0
213244  1  0  0  0  0
215245  1  0  0  0  0
216246  1  0  0  0  0
221247  1  0  0  0  0
222248  1  0  0  0  0
229249  1  0  0  0  0
230250  1  0  0  0  0
232251  1  0  0  0  0
233252  1  0  0  0  0
235253  1  0  0  0  0
236254  1  0  0  0  0
M  END
