154

C 12.439421 0.009000 -0.013928
C 13.163822 -0.079612 1.363175
C 12.543929 -0.112476 2.592165
C 13.564610 -0.230176 3.569557
C 14.775981 -0.263844 2.903549
N 14.519182 -0.149768 1.560664
C 16.207966 -0.441735 3.561034
C 16.261181 -0.713310 5.016971
C 16.459626 0.324913 5.925091
C 16.494454 0.067191 7.303539
C 16.318137 -1.227213 7.831230
N 16.357465 -1.475038 9.216357
C 16.060619 -0.357137 10.108565
C 15.944250 -2.790698 9.694509
C 16.145106 -2.257799 6.886357
C 16.109241 -2.008999 5.505764
C 17.335705 -0.372497 2.802540
C 18.647233 -0.599307 3.373660
C 19.549546 -0.496956 2.405607
N 17.527661 -0.120360 1.468498
C 18.864592 -0.180445 1.167609
C 19.537370 -0.000855 -0.000598
C 18.764964 0.390661 -1.333153
C 19.331065 0.947554 -2.464880
C 18.305377 1.095762 -3.429489
C 17.135617 0.640099 -2.857035
N 17.417509 0.250661 -1.568119
C 15.711782 0.595449 -3.558625
C 15.663084 0.743998 -5.030018
C 15.487426 1.998741 -5.611052
C 15.480463 2.140415 -7.005816
C 15.659859 1.043993 -7.872291
N 15.660112 1.209878 -9.271893
C 15.921029 0.039642 -10.104732
C 16.214460 2.468339 -9.770612
C 15.796706 -0.214703 -7.256078
C 15.809040 -0.364713 -5.861097
C 14.589539 0.428471 -2.811699
C 13.260987 0.385435 -3.397455
C 12.377298 0.228923 -2.416554
C 13.105671 0.161558 -1.173359
N 14.430288 0.275644 -1.462019
H 11.357958 -0.062347 -0.022592
H 11.479399 -0.067299 2.765026
H 13.430977 -0.294952 4.639639
H 15.223941 -0.118864 0.828081
H 16.595324 1.336727 5.549720
H 16.672164 0.921065 7.947836
H 15.078417 0.077727 9.890110
H 16.050567 -0.681337 11.155803
H 16.831197 0.418452 10.045570
H 14.896989 -2.993096 9.443781
H 16.582983 -3.582403 9.288173
H 16.042065 -2.859193 10.783988
H 16.029339 -3.292359 7.189133
H 15.968466 -2.826678 4.802422
H 18.864883 -0.826705 4.402253
H 20.607533 -0.623828 2.544604
H 20.370332 1.209217 -2.592922
H 18.409318 1.488284 -4.430163
H 16.724463 -0.051941 -0.888094
H 15.353879 2.866434 -4.968571
H 15.316410 3.140845 -7.391207
H 15.817344 0.291394 -11.166585
H 16.937096 -0.340230 -9.950222
H 15.194767 -0.757825 -9.912338
H 15.569536 3.317161 -9.522221
H 16.285825 2.458320 -10.863988
H 17.222466 2.644192 -9.378060
H 15.914729 -1.122764 -7.836340
H 15.933936 -1.348948 -5.414020
H 13.026170 0.467674 -4.443844
H 11.309780 0.162189 -2.524560
C 37.263999 0.005602 0.014670
C 36.539598 0.242135 -1.344858
C 37.159492 0.498161 -2.547334
C 36.138810 0.612756 -3.525094
C 34.927439 0.423969 -2.885517
N 35.184239 0.220208 -1.553288
C 33.495454 0.405091 -3.566380
C 33.442239 0.482226 -5.045419
C 33.243795 1.704333 -5.684984
C 33.208966 1.776780 -7.085445
C 33.385283 0.642059 -7.901747
N 33.345956 0.725693 -9.306381
C 33.642801 2.021532 -9.911807
C 33.759170 -0.441300 -10.079504
C 33.558314 -0.581235 -7.224663
C 33.594179 -0.662858 -5.824207
C 32.367716 0.294673 -2.812779
C 31.056188 0.208001 -3.421145
C 30.153874 0.080670 -2.456060
N 32.175759 0.227201 -1.456796
C 30.838829 0.098286 -1.178363
C 30.166050 -0.000855 -0.000598
C 30.938456 0.067521 1.386598
C 30.372356 0.343727 2.617308
C 31.398044 0.261785 3.589789
C 32.567804 -0.047057 2.926503
N 32.285912 -0.123638 1.582218
C 33.991639 -0.254859 3.598098
C 34.040336 -0.455217 5.063336
C 34.215994 0.628447 5.922202
C 34.222958 0.439360 7.311333
C 34.043561 -0.829568 7.896775
N 34.043309 -0.996251 9.296282
C 33.782392 -2.329057 9.831729
C 33.488960 0.110316 10.075995
C 33.906715 -1.908833 7.002783
C 33.894381 -1.727798 5.611488
C 35.113882 -0.242170 2.832842
C 36.442434 -0.421261 3.392206
C 37.326122 -0.343574 2.401939
C 36.597750 -0.117761 1.177570
N 35.273132 -0.074490 1.484926
H 38.345463 -0.065788 0.006375
H 38.224022 0.582583 -2.704797
H 36.272443 0.800522 -4.580564
H 34.479480 0.078595 -0.833858
H 33.108096 2.600024 -5.082978
H 33.031257 2.757853 -7.511728
H 34.625003 2.393101 -9.597538
H 33.652854 1.951743 -11.005856
H 32.872224 2.760768 -9.668832
H 34.806432 -0.696813 -9.883180
H 33.120437 -1.306176 -9.869989
H 33.661355 -0.252605 -11.154701
H 33.674081 -1.516048 -7.761425
H 33.734955 -1.622578 -5.332042
H 30.838537 0.227950 -4.474385
H 29.095888 -0.010100 -2.620915
H 29.333089 0.568103 2.803097
H 31.294103 0.408904 4.654579
H 32.978957 -0.258474 0.850220
H 34.349542 1.622529 5.500923
H 34.387010 1.321635 7.920412
H 33.886077 -2.333124 10.923010
H 32.766324 -2.662149 9.592509
H 34.508654 -3.059241 9.457830
H 34.133884 0.993709 10.033413
H 33.417596 -0.155620 11.136585
H 32.480954 0.373255 9.735577
H 33.788692 -2.927578 7.354117
H 33.769485 -2.579875 4.946234
H 36.677251 -0.586498 4.428733
H 38.393641 -0.433758 2.491301
C 20.347817 0.015601 0.010913
C 21.806043 -0.006236 -0.006961
C 22.939971 -0.026990 -0.008452
C 24.301353 -0.039579 -0.010643
C 25.575572 -0.029273 -0.015408
C 26.764034 -0.010475 -0.021564
C 28.116395 0.014310 -0.005696
C 29.216662 0.015601 0.010913
