 xtb: 6.5.1 (b24c23e)
          07292201133D

154167  0     0  0            999 V2000
   12.2076    0.0473    0.1155 C   0  0  0  0  0  0  0  0  0  0  0  0
   12.8131   -0.1129    1.3556 C   0  0  0  0  0  0  0  0  0  0  0  0
   12.1581   -0.2126    2.6145 C   0  0  0  0  0  0  0  0  0  0  0  0
   13.1158   -0.3784    3.5760 C   0  0  0  0  0  0  0  0  0  0  0  0
   14.3861   -0.3954    2.9339 C   0  0  0  0  0  0  0  0  0  0  0  0
   14.1534   -0.2204    1.5991 N   0  0  0  0  0  0  0  0  0  0  0  0
   15.6456   -0.5410    3.5298 C   0  0  0  0  0  0  0  0  0  0  0  0
   15.6697   -0.7670    4.9927 C   0  0  0  0  0  0  0  0  0  0  0  0
   16.3486    0.1044    5.8464 C   0  0  0  0  0  0  0  0  0  0  0  0
   16.3658   -0.1003    7.2138 C   0  0  0  0  0  0  0  0  0  0  0  0
   15.7061   -1.1977    7.7881 C   0  0  0  0  0  0  0  0  0  0  0  0
   15.7727   -1.4384    9.1572 N   0  0  0  0  0  0  0  0  0  0  0  0
   16.1003   -0.3044   10.0227 C   0  0  0  0  0  0  0  0  0  0  0  0
   14.7870   -2.3567    9.7283 C   0  0  0  0  0  0  0  0  0  0  0  0
   15.0384   -2.0810    6.9266 C   0  0  0  0  0  0  0  0  0  0  0  0
   15.0162   -1.8617    5.5612 C   0  0  0  0  0  0  0  0  0  0  0  0
   16.8609   -0.4905    2.8418 C   0  0  0  0  0  0  0  0  0  0  0  0
   18.1545   -0.7086    3.4625 C   0  0  0  0  0  0  0  0  0  0  0  0
   19.0761   -0.5699    2.4865 C   0  0  0  0  0  0  0  0  0  0  0  0
   17.0175   -0.2509    1.5098 N   0  0  0  0  0  0  0  0  0  0  0  0
   18.3433   -0.2819    1.2693 C   0  0  0  0  0  0  0  0  0  0  0  0
   18.9831   -0.0689    0.0305 C   0  0  0  0  0  0  0  0  0  0  0  0
   18.3522    0.1510   -1.2094 C   0  0  0  0  0  0  0  0  0  0  0  0
   19.0030    0.3915   -2.4479 C   0  0  0  0  0  0  0  0  0  0  0  0
   18.0407    0.5359   -3.4092 C   0  0  0  0  0  0  0  0  0  0  0  0
   16.7715    0.3785   -2.7874 C   0  0  0  0  0  0  0  0  0  0  0  0
   17.0121    0.1576   -1.4565 N   0  0  0  0  0  0  0  0  0  0  0  0
   15.5123    0.4563   -3.3941 C   0  0  0  0  0  0  0  0  0  0  0  0
   15.4860    0.6579   -4.8595 C   0  0  0  0  0  0  0  0  0  0  0  0
   14.8347    1.7566   -5.4238 C   0  0  0  0  0  0  0  0  0  0  0  0
   14.8156    1.9540   -6.7923 C   0  0  0  0  0  0  0  0  0  0  0  0
   15.4454    1.0496   -7.6610 C   0  0  0  0  0  0  0  0  0  0  0  0
   15.3793    1.2130   -9.0411 N   0  0  0  0  0  0  0  0  0  0  0  0
   16.3626    0.4929   -9.8515 C   0  0  0  0  0  0  0  0  0  0  0  0
   15.0529    2.5465   -9.5465 C   0  0  0  0  0  0  0  0  0  0  0  0
   16.0844   -0.0631   -7.0929 C   0  0  0  0  0  0  0  0  0  0  0  0
   16.1089   -0.2461   -5.7224 C   0  0  0  0  0  0  0  0  0  0  0  0
   14.2945    0.3588   -2.7098 C   0  0  0  0  0  0  0  0  0  0  0  0
   12.9900    0.3805   -3.3517 C   0  0  0  0  0  0  0  0  0  0  0  0
   12.0760    0.2745   -2.3656 C   0  0  0  0  0  0  0  0  0  0  0  0
   12.8213    0.1712   -1.1241 C   0  0  0  0  0  0  0  0  0  0  0  0
   14.1538    0.2157   -1.3706 N   0  0  0  0  0  0  0  0  0  0  0  0
   11.1224    0.0727    0.1256 H   0  0  0  0  0  0  0  0  0  0  0  0
   11.0902   -0.1561    2.7543 H   0  0  0  0  0  0  0  0  0  0  0  0
   12.9611   -0.4695    4.6389 H   0  0  0  0  0  0  0  0  0  0  0  0
   14.8815   -0.1714    0.8943 H   0  0  0  0  0  0  0  0  0  0  0  0
   16.8532    0.9712    5.4335 H   0  0  0  0  0  0  0  0  0  0  0  0
   16.9055    0.6070    7.8302 H   0  0  0  0  0  0  0  0  0  0  0  0
   15.4216    0.5389    9.8533 H   0  0  0  0  0  0  0  0  0  0  0  0
   16.0250   -0.6201   11.0626 H   0  0  0  0  0  0  0  0  0  0  0  0
   17.1272    0.0130    9.8385 H   0  0  0  0  0  0  0  0  0  0  0  0
   13.7626   -2.0358    9.5088 H   0  0  0  0  0  0  0  0  0  0  0  0
   14.9473   -3.3590    9.3299 H   0  0  0  0  0  0  0  0  0  0  0  0
   14.9257   -2.3960   10.8082 H   0  0  0  0  0  0  0  0  0  0  0  0
   14.5315   -2.9564    7.3116 H   0  0  0  0  0  0  0  0  0  0  0  0
   14.5013   -2.5690    4.9197 H   0  0  0  0  0  0  0  0  0  0  0  0
   18.3151   -0.9517    4.5004 H   0  0  0  0  0  0  0  0  0  0  0  0
   20.1484   -0.6608    2.5554 H   0  0  0  0  0  0  0  0  0  0  0  0
   20.0718    0.4515   -2.5764 H   0  0  0  0  0  0  0  0  0  0  0  0
   18.1943    0.7465   -4.4549 H   0  0  0  0  0  0  0  0  0  0  0  0
   16.2867    0.0318   -0.7581 H   0  0  0  0  0  0  0  0  0  0  0  0
   14.3564    2.4838   -4.7768 H   0  0  0  0  0  0  0  0  0  0  0  0
   14.3004    2.8251   -7.1757 H   0  0  0  0  0  0  0  0  0  0  0  0
   16.2394    0.7810  -10.8950 H   0  0  0  0  0  0  0  0  0  0  0  0
   17.3872    0.7186   -9.5350 H   0  0  0  0  0  0  0  0  0  0  0  0
   16.1864   -0.5806   -9.7737 H   0  0  0  0  0  0  0  0  0  0  0  0
   14.0323    2.8056   -9.2637 H   0  0  0  0  0  0  0  0  0  0  0  0
   15.1101    2.5358  -10.6344 H   0  0  0  0  0  0  0  0  0  0  0  0
   15.7429    3.3034   -9.1579 H   0  0  0  0  0  0  0  0  0  0  0  0
   16.5656   -0.8055   -7.7167 H   0  0  0  0  0  0  0  0  0  0  0  0
   16.6000   -1.1230   -5.3142 H   0  0  0  0  0  0  0  0  0  0  0  0
   12.8200    0.4505   -4.4141 H   0  0  0  0  0  0  0  0  0  0  0  0
   10.9999    0.2522   -2.4413 H   0  0  0  0  0  0  0  0  0  0  0  0
   37.4990    0.0397   -0.1031 C   0  0  0  0  0  0  0  0  0  0  0  0
   36.8947    0.1798   -1.3463 C   0  0  0  0  0  0  0  0  0  0  0  0
   37.5526    0.3690   -2.5935 C   0  0  0  0  0  0  0  0  0  0  0  0
   36.5961    0.4437   -3.5675 C   0  0  0  0  0  0  0  0  0  0  0  0
   35.3237    0.2916   -2.9479 C   0  0  0  0  0  0  0  0  0  0  0  0
   35.5542    0.1473   -1.6089 N   0  0  0  0  0  0  0  0  0  0  0  0
   34.0641    0.3022   -3.5611 C   0  0  0  0  0  0  0  0  0  0  0  0
   34.0398    0.4283   -5.0359 C   0  0  0  0  0  0  0  0  0  0  0  0
   33.3664    1.4808   -5.6586 C   0  0  0  0  0  0  0  0  0  0  0  0
   33.3475    1.6053   -7.0358 C   0  0  0  0  0  0  0  0  0  0  0  0
   34.0003    0.6707   -7.8539 C   0  0  0  0  0  0  0  0  0  0  0  0
   33.9344    0.7560   -9.2413 N   0  0  0  0  0  0  0  0  0  0  0  0
   33.5644    2.0475   -9.8209 C   0  0  0  0  0  0  0  0  0  0  0  0
   34.9475    0.0284  -10.0072 C   0  0  0  0  0  0  0  0  0  0  0  0
   34.6631   -0.3949   -7.2263 C   0  0  0  0  0  0  0  0  0  0  0  0
   34.6866   -0.5051   -5.8479 C   0  0  0  0  0  0  0  0  0  0  0  0
   32.8485    0.1982   -2.8795 C   0  0  0  0  0  0  0  0  0  0  0  0
   31.5542    0.1398   -3.5339 C   0  0  0  0  0  0  0  0  0  0  0  0
   30.6327    0.0473   -2.5524 C   0  0  0  0  0  0  0  0  0  0  0  0
   32.6920    0.1174   -1.5287 N   0  0  0  0  0  0  0  0  0  0  0  0
   31.3658    0.0366   -1.3018 C   0  0  0  0  0  0  0  0  0  0  0  0
   30.7254   -0.0435   -0.0476 C   0  0  0  0  0  0  0  0  0  0  0  0
   31.3556   -0.1188    1.2098 C   0  0  0  0  0  0  0  0  0  0  0  0
   30.7034   -0.1647    2.4699 C   0  0  0  0  0  0  0  0  0  0  0  0
   31.6645   -0.2502    3.4395 C   0  0  0  0  0  0  0  0  0  0  0  0
   32.9341   -0.2695    2.7994 C   0  0  0  0  0  0  0  0  0  0  0  0
   32.6951   -0.1770    1.4530 N   0  0  0  0  0  0  0  0  0  0  0  0
   34.1927   -0.3442    3.4081 C   0  0  0  0  0  0  0  0  0  0  0  0
   34.2176   -0.4901    4.8800 C   0  0  0  0  0  0  0  0  0  0  0  0
   34.8838    0.4354    5.6858 C   0  0  0  0  0  0  0  0  0  0  0  0
   34.9030    0.3060    7.0625 C   0  0  0  0  0  0  0  0  0  0  0  0
   34.2572   -0.7668    7.6956 C   0  0  0  0  0  0  0  0  0  0  0  0
   34.3219   -0.9384    9.0747 N   0  0  0  0  0  0  0  0  0  0  0  0
   33.2971   -1.7797    9.6949 C   0  0  0  0  0  0  0  0  0  0  0  0
   34.7131    0.2164    9.8828 C   0  0  0  0  0  0  0  0  0  0  0  0
   33.6012   -1.7042    6.8829 C   0  0  0  0  0  0  0  0  0  0  0  0
   33.5780   -1.5610    5.5079 C   0  0  0  0  0  0  0  0  0  0  0  0
   35.4107   -0.2917    2.7189 C   0  0  0  0  0  0  0  0  0  0  0  0
   36.7144   -0.4342    3.3473 C   0  0  0  0  0  0  0  0  0  0  0  0
   37.6288   -0.3181    2.3627 C   0  0  0  0  0  0  0  0  0  0  0  0
   36.8848   -0.1213    1.1318 C   0  0  0  0  0  0  0  0  0  0  0  0
   35.5522   -0.1209    1.3833 N   0  0  0  0  0  0  0  0  0  0  0  0
   38.5844    0.0545   -0.1082 H   0  0  0  0  0  0  0  0  0  0  0  0
   38.6215    0.4438   -2.7157 H   0  0  0  0  0  0  0  0  0  0  0  0
   36.7535    0.6013   -4.6222 H   0  0  0  0  0  0  0  0  0  0  0  0
   34.8241    0.0382   -0.9129 H   0  0  0  0  0  0  0  0  0  0  0  0
   32.8680    2.2290   -5.0518 H   0  0  0  0  0  0  0  0  0  0  0  0
   32.8137    2.4430   -7.4657 H   0  0  0  0  0  0  0  0  0  0  0  0
   34.2334    2.8469   -9.4833 H   0  0  0  0  0  0  0  0  0  0  0  0
   33.6147    1.9742  -10.9067 H   0  0  0  0  0  0  0  0  0  0  0  0
   32.5380    2.2914   -9.5453 H   0  0  0  0  0  0  0  0  0  0  0  0
   35.9611    0.3007   -9.6927 H   0  0  0  0  0  0  0  0  0  0  0  0
   34.8035   -1.0449   -9.8786 H   0  0  0  0  0  0  0  0  0  0  0  0
   34.8266    0.2617  -11.0644 H   0  0  0  0  0  0  0  0  0  0  0  0
   35.1628   -1.1581   -7.8089 H   0  0  0  0  0  0  0  0  0  0  0  0
   35.1960   -1.3478   -5.3928 H   0  0  0  0  0  0  0  0  0  0  0  0
   31.3933    0.1504   -4.5997 H   0  0  0  0  0  0  0  0  0  0  0  0
   29.5601   -0.0199   -2.6405 H   0  0  0  0  0  0  0  0  0  0  0  0
   29.6348   -0.1288    2.6079 H   0  0  0  0  0  0  0  0  0  0  0  0
   31.5095   -0.2829    4.5056 H   0  0  0  0  0  0  0  0  0  0  0  0
   33.4217   -0.1442    0.7454 H   0  0  0  0  0  0  0  0  0  0  0  0
   35.3741    1.2873    5.2271 H   0  0  0  0  0  0  0  0  0  0  0  0
   35.4296    1.0561    7.6384 H   0  0  0  0  0  0  0  0  0  0  0  0
   33.4132   -1.7386   10.7774 H   0  0  0  0  0  0  0  0  0  0  0  0
   32.2886   -1.4448    9.4286 H   0  0  0  0  0  0  0  0  0  0  0  0
   33.4311   -2.8148    9.3790 H   0  0  0  0  0  0  0  0  0  0  0  0
   35.7387    0.4990    9.6436 H   0  0  0  0  0  0  0  0  0  0  0  0
   34.6756   -0.0615   10.9357 H   0  0  0  0  0  0  0  0  0  0  0  0
   34.0491    1.0714    9.7129 H   0  0  0  0  0  0  0  0  0  0  0  0
   33.1075   -2.5644    7.3165 H   0  0  0  0  0  0  0  0  0  0  0  0
   33.0752   -2.3104    4.9060 H   0  0  0  0  0  0  0  0  0  0  0  0
   36.8835   -0.6156    4.3965 H   0  0  0  0  0  0  0  0  0  0  0  0
   38.7044   -0.3694    2.4302 H   0  0  0  0  0  0  0  0  0  0  0  0
   20.3877   -0.0772    0.0163 C   0  0  0  0  0  0  0  0  0  0  0  0
   21.6127   -0.0814    0.0062 C   0  0  0  0  0  0  0  0  0  0  0  0
   22.9546   -0.0812   -0.0040 C   0  0  0  0  0  0  0  0  0  0  0  0
   24.1857   -0.0782   -0.0135 C   0  0  0  0  0  0  0  0  0  0  0  0
   25.5229   -0.0735   -0.0208 C   0  0  0  0  0  0  0  0  0  0  0  0
   26.7539   -0.0660   -0.0241 C   0  0  0  0  0  0  0  0  0  0  0  0
   28.0958   -0.0578   -0.0308 C   0  0  0  0  0  0  0  0  0  0  0  0
   29.3208   -0.0525   -0.0376 C   0  0  0  0  0  0  0  0  0  0  0  0
  1  2  4  0  0  0  0
  2  3  4  0  0  0  0
  3  4  2  0  0  0  0
  4  5  4  0  0  0  0
  2  6  4  0  0  0  0
  5  6  4  0  0  0  0
  5  7  4  0  0  0  0
  7  8  1  0  0  0  0
  8  9  4  0  0  0  0
  9 10  4  0  0  0  0
 10 11  4  0  0  0  0
 11 12  1  0  0  0  0
 12 13  1  0  0  0  0
 12 14  1  0  0  0  0
 11 15  4  0  0  0  0
  8 16  4  0  0  0  0
 15 16  4  0  0  0  0
  7 17  4  0  0  0  0
 17 18  1  0  0  0  0
 18 19  2  0  0  0  0
 17 20  4  0  0  0  0
 19 21  1  0  0  0  0
 20 21  4  0  0  0  0
 21 22  4  0  0  0  0
 22 23  4  0  0  0  0
 23 24  4  0  0  0  0
 24 25  2  0  0  0  0
 25 26  4  0  0  0  0
 23 27  4  0  0  0  0
 26 27  4  0  0  0  0
 26 28  4  0  0  0  0
 28 29  1  0  0  0  0
 29 30  4  0  0  0  0
 30 31  4  0  0  0  0
 31 32  4  0  0  0  0
 32 33  1  0  0  0  0
 33 34  1  0  0  0  0
 33 35  1  0  0  0  0
 32 36  4  0  0  0  0
 29 37  4  0  0  0  0
 36 37  4  0  0  0  0
 28 38  4  0  0  0  0
 38 39  1  0  0  0  0
 39 40  2  0  0  0  0
  1 41  4  0  0  0  0
 40 41  1  0  0  0  0
 38 42  4  0  0  0  0
 41 42  4  0  0  0  0
  1 43  1  0  0  0  0
  3 44  1  0  0  0  0
  4 45  1  0  0  0  0
  6 46  1  0  0  0  0
  9 47  1  0  0  0  0
 10 48  1  0  0  0  0
 13 49  1  0  0  0  0
 13 50  1  0  0  0  0
 13 51  1  0  0  0  0
 14 52  1  0  0  0  0
 14 53  1  0  0  0  0
 14 54  1  0  0  0  0
 15 55  1  0  0  0  0
 16 56  1  0  0  0  0
 18 57  1  0  0  0  0
 19 58  1  0  0  0  0
 24 59  1  0  0  0  0
 25 60  1  0  0  0  0
 27 61  1  0  0  0  0
 30 62  1  0  0  0  0
 31 63  1  0  0  0  0
 34 64  1  0  0  0  0
 34 65  1  0  0  0  0
 34 66  1  0  0  0  0
 35 67  1  0  0  0  0
 35 68  1  0  0  0  0
 35 69  1  0  0  0  0
 36 70  1  0  0  0  0
 37 71  1  0  0  0  0
 39 72  1  0  0  0  0
 40 73  1  0  0  0  0
 74 75  4  0  0  0  0
 75 76  4  0  0  0  0
 76 77  2  0  0  0  0
 77 78  4  0  0  0  0
 75 79  4  0  0  0  0
 78 79  4  0  0  0  0
 78 80  4  0  0  0  0
 80 81  1  0  0  0  0
 81 82  4  0  0  0  0
 82 83  4  0  0  0  0
 83 84  4  0  0  0  0
 84 85  1  0  0  0  0
 85 86  1  0  0  0  0
 85 87  1  0  0  0  0
 84 88  4  0  0  0  0
 81 89  4  0  0  0  0
 88 89  4  0  0  0  0
 80 90  4  0  0  0  0
 90 91  1  0  0  0  0
 91 92  2  0  0  0  0
 90 93  4  0  0  0  0
 92 94  1  0  0  0  0
 93 94  4  0  0  0  0
 94 95  4  0  0  0  0
 95 96  4  0  0  0  0
 96 97  4  0  0  0  0
 97 98  2  0  0  0  0
 98 99  4  0  0  0  0
 96100  4  0  0  0  0
 99100  4  0  0  0  0
 99101  4  0  0  0  0
101102  1  0  0  0  0
102103  4  0  0  0  0
103104  4  0  0  0  0
104105  4  0  0  0  0
105106  1  0  0  0  0
106107  1  0  0  0  0
106108  1  0  0  0  0
105109  4  0  0  0  0
102110  4  0  0  0  0
109110  4  0  0  0  0
101111  4  0  0  0  0
111112  1  0  0  0  0
112113  2  0  0  0  0
 74114  4  0  0  0  0
113114  1  0  0  0  0
111115  4  0  0  0  0
114115  4  0  0  0  0
 74116  1  0  0  0  0
 76117  1  0  0  0  0
 77118  1  0  0  0  0
 79119  1  0  0  0  0
 82120  1  0  0  0  0
 83121  1  0  0  0  0
 86122  1  0  0  0  0
 86123  1  0  0  0  0
 86124  1  0  0  0  0
 87125  1  0  0  0  0
 87126  1  0  0  0  0
 87127  1  0  0  0  0
 88128  1  0  0  0  0
 89129  1  0  0  0  0
 91130  1  0  0  0  0
 92131  1  0  0  0  0
 97132  1  0  0  0  0
 98133  1  0  0  0  0
100134  1  0  0  0  0
103135  1  0  0  0  0
104136  1  0  0  0  0
107137  1  0  0  0  0
107138  1  0  0  0  0
107139  1  0  0  0  0
108140  1  0  0  0  0
108141  1  0  0  0  0
108142  1  0  0  0  0
109143  1  0  0  0  0
110144  1  0  0  0  0
112145  1  0  0  0  0
113146  1  0  0  0  0
 22147  4  0  0  0  0
147148  3  0  0  0  0
148149  4  0  0  0  0
149150  3  0  0  0  0
150151  4  0  0  0  0
151152  3  0  0  0  0
152153  4  0  0  0  0
 95154  4  0  0  0  0
153154  3  0  0  0  0
M  END
