
  xtb     07262211213D
 xtb: 6.4.1 (bd6e46d)
 77 88  0     0  0            999 V2000
   -0.0885    0.1716    0.0151 Co  0  0  0  0  0  0  0  0  0  0  0  0
   -3.4601    0.6374    0.1000 C   0  0  0  0  0  0  0  0  0  0  0  0
   -4.9222    0.8349    0.1420 C   0  0  0  0  0  0  0  0  0  0  0  0
   -5.5511    1.6577   -0.7875 C   0  0  0  0  0  0  0  0  0  0  0  0
   -6.9222    1.8350   -0.7507 C   0  0  0  0  0  0  0  0  0  0  0  0
   -7.6806    1.2000    0.2186 C   0  0  0  0  0  0  0  0  0  0  0  0
   -7.0618    0.3827    1.1498 C   0  0  0  0  0  0  0  0  0  0  0  0
   -5.6919    0.1971    1.1103 C   0  0  0  0  0  0  0  0  0  0  0  0
   -2.9584   -0.6379   -0.1192 C   0  0  0  0  0  0  0  0  0  0  0  0
   -3.7877   -1.7718   -0.3976 C   0  0  0  0  0  0  0  0  0  0  0  0
   -2.9713   -2.8486   -0.4295 C   0  0  0  0  0  0  0  0  0  0  0  0
   -1.6485   -2.3668   -0.1659 C   0  0  0  0  0  0  0  0  0  0  0  0
   -0.5541   -3.2012    0.0133 C   0  0  0  0  0  0  0  0  0  0  0  0
   -0.7562   -4.6631    0.0090 C   0  0  0  0  0  0  0  0  0  0  0  0
   -0.1234   -5.4605   -0.9400 C   0  0  0  0  0  0  0  0  0  0  0  0
   -0.3175   -6.8298   -0.9456 C   0  0  0  0  0  0  0  0  0  0  0  0
   -1.1392   -7.4204    0.0000 C   0  0  0  0  0  0  0  0  0  0  0  0
   -1.7690   -6.6344    0.9506 C   0  0  0  0  0  0  0  0  0  0  0  0
   -1.5824   -5.2642    0.9541 C   0  0  0  0  0  0  0  0  0  0  0  0
    0.7244   -2.6959    0.2047 C   0  0  0  0  0  0  0  0  0  0  0  0
    1.8622   -3.5188    0.4865 C   0  0  0  0  0  0  0  0  0  0  0  0
    2.9389   -2.7017    0.4878 C   0  0  0  0  0  0  0  0  0  0  0  0
    2.4532   -1.3847    0.2029 C   0  0  0  0  0  0  0  0  0  0  0  0
    1.0893   -1.3822    0.0878 N   0  0  0  0  0  0  0  0  0  0  0  0
    3.2843   -0.2934   -0.0074 C   0  0  0  0  0  0  0  0  0  0  0  0
    4.7469   -0.4907   -0.0111 C   0  0  0  0  0  0  0  0  0  0  0  0
    5.3439   -1.3354   -0.9423 C   0  0  0  0  0  0  0  0  0  0  0  0
    6.7153   -1.5138   -0.9476 C   0  0  0  0  0  0  0  0  0  0  0  0
    7.5065   -0.8572   -0.0197 C   0  0  0  0  0  0  0  0  0  0  0  0
    6.9198   -0.0175    0.9124 C   0  0  0  0  0  0  0  0  0  0  0  0
    5.5495    0.1684    0.9155 C   0  0  0  0  0  0  0  0  0  0  0  0
    2.7754    0.9798   -0.2238 C   0  0  0  0  0  0  0  0  0  0  0  0
    3.5940    2.1101   -0.5451 C   0  0  0  0  0  0  0  0  0  0  0  0
    2.7760    3.1858   -0.5664 C   0  0  0  0  0  0  0  0  0  0  0  0
    1.4627    1.3469   -0.1017 N   0  0  0  0  0  0  0  0  0  0  0  0
    1.4629    2.7075   -0.2525 C   0  0  0  0  0  0  0  0  0  0  0  0
    0.3746    3.5444   -0.0494 C   0  0  0  0  0  0  0  0  0  0  0  0
    0.5729    5.0062   -0.0895 C   0  0  0  0  0  0  0  0  0  0  0  0
    1.4326    5.6287    0.8107 C   0  0  0  0  0  0  0  0  0  0  0  0
    1.6154    6.9989    0.7710 C   0  0  0  0  0  0  0  0  0  0  0  0
    0.9479    7.7634   -0.1714 C   0  0  0  0  0  0  0  0  0  0  0  0
    0.0922    7.1514   -1.0721 C   0  0  0  0  0  0  0  0  0  0  0  0
   -0.0980    5.7823   -1.0301 C   0  0  0  0  0  0  0  0  0  0  0  0
   -0.8959    3.0417    0.1955 C   0  0  0  0  0  0  0  0  0  0  0  0
   -2.0233    3.8679    0.5075 C   0  0  0  0  0  0  0  0  0  0  0  0
   -3.0989    3.0507    0.5572 C   0  0  0  0  0  0  0  0  0  0  0  0
   -2.6228    1.7306    0.2714 C   0  0  0  0  0  0  0  0  0  0  0  0
   -1.2638    1.7266    0.1088 N   0  0  0  0  0  0  0  0  0  0  0  0
   -1.6425   -1.0043   -0.0352 N   0  0  0  0  0  0  0  0  0  0  0  0
   -4.9582    2.1468   -1.5467 H   0  0  0  0  0  0  0  0  0  0  0  0
   -7.4010    2.4701   -1.4817 H   0  0  0  0  0  0  0  0  0  0  0  0
   -8.7509    1.3412    0.2480 H   0  0  0  0  0  0  0  0  0  0  0  0
   -7.6488   -0.1121    1.9098 H   0  0  0  0  0  0  0  0  0  0  0  0
   -5.2062   -0.4362    1.8385 H   0  0  0  0  0  0  0  0  0  0  0  0
   -4.8476   -1.7316   -0.5554 H   0  0  0  0  0  0  0  0  0  0  0  0
   -3.2238   -3.8733   -0.6193 H   0  0  0  0  0  0  0  0  0  0  0  0
    0.5120   -4.9969   -1.6807 H   0  0  0  0  0  0  0  0  0  0  0  0
    0.1735   -7.4384   -1.6909 H   0  0  0  0  0  0  0  0  0  0  0  0
   -1.2880   -8.4901   -0.0037 H   0  0  0  0  0  0  0  0  0  0  0  0
   -2.4079   -7.0910    1.6925 H   0  0  0  0  0  0  0  0  0  0  0  0
   -2.0675   -4.6499    1.6989 H   0  0  0  0  0  0  0  0  0  0  0  0
    1.8249   -4.5752    0.6669 H   0  0  0  0  0  0  0  0  0  0  0  0
    3.9660   -2.9504    0.6693 H   0  0  0  0  0  0  0  0  0  0  0  0
    4.7257   -1.8409   -1.6700 H   0  0  0  0  0  0  0  0  0  0  0  0
    7.1687   -2.1670   -1.6790 H   0  0  0  0  0  0  0  0  0  0  0  0
    8.5771   -0.9992   -0.0232 H   0  0  0  0  0  0  0  0  0  0  0  0
    7.5326    0.4945    1.6400 H   0  0  0  0  0  0  0  0  0  0  0  0
    5.0892    0.8184    1.6454 H   0  0  0  0  0  0  0  0  0  0  0  0
    4.6482    2.0684   -0.7369 H   0  0  0  0  0  0  0  0  0  0  0  0
    3.0216    4.2076   -0.7795 H   0  0  0  0  0  0  0  0  0  0  0  0
    1.9471    5.0313    1.5494 H   0  0  0  0  0  0  0  0  0  0  0  0
    2.2810    7.4722    1.4781 H   0  0  0  0  0  0  0  0  0  0  0  0
    1.0941    8.8330   -0.2037 H   0  0  0  0  0  0  0  0  0  0  0  0
   -0.4288    7.7433   -1.8106 H   0  0  0  0  0  0  0  0  0  0  0  0
   -0.7602    5.3020   -1.7358 H   0  0  0  0  0  0  0  0  0  0  0  0
   -1.9801    4.9264    0.6738 H   0  0  0  0  0  0  0  0  0  0  0  0
   -4.1193    3.3011    0.7718 H   0  0  0  0  0  0  0  0  0  0  0  0
  2  3  1  0  0  0  0
  3  4  4  0  0  0  0
  4  5  4  0  0  0  0
  5  6  4  0  0  0  0
  6  7  4  0  0  0  0
  3  8  4  0  0  0  0
  7  8  4  0  0  0  0
  2  9  4  0  0  0  0
  9 10  4  0  0  0  0
 10 11  2  0  0  0  0
 11 12  4  0  0  0  0
 12 13  4  0  0  0  0
 13 14  1  0  0  0  0
 14 15  4  0  0  0  0
 15 16  4  0  0  0  0
 16 17  4  0  0  0  0
 17 18  4  0  0  0  0
 14 19  4  0  0  0  0
 18 19  4  0  0  0  0
 13 20  4  0  0  0  0
 20 21  4  0  0  0  0
 21 22  2  0  0  0  0
 22 23  4  0  0  0  0
  1 24  1  0  0  0  0
 20 24  4  0  0  0  0
 23 24  4  0  0  0  0
 23 25  4  0  0  0  0
 25 26  1  0  0  0  0
 26 27  4  0  0  0  0
 27 28  4  0  0  0  0
 28 29  4  0  0  0  0
 29 30  4  0  0  0  0
 26 31  4  0  0  0  0
 30 31  4  0  0  0  0
 25 32  4  0  0  0  0
 32 33  4  0  0  0  0
 33 34  2  0  0  0  0
  1 35  1  0  0  0  0
 32 35  4  0  0  0  0
 34 36  4  0  0  0  0
 35 36  4  0  0  0  0
 36 37  4  0  0  0  0
 37 38  1  0  0  0  0
 38 39  4  0  0  0  0
 39 40  4  0  0  0  0
 40 41  4  0  0  0  0
 41 42  4  0  0  0  0
 38 43  4  0  0  0  0
 42 43  4  0  0  0  0
 37 44  4  0  0  0  0
 44 45  4  0  0  0  0
 45 46  2  0  0  0  0
  2 47  4  0  0  0  0
 46 47  4  0  0  0  0
  1 48  1  0  0  0  0
 44 48  4  0  0  0  0
 47 48  4  0  0  0  0
  1 49  1  0  0  0  0
  9 49  4  0  0  0  0
 12 49  4  0  0  0  0
  4 50  1  0  0  0  0
  5 51  1  0  0  0  0
  6 52  1  0  0  0  0
  7 53  1  0  0  0  0
  8 54  1  0  0  0  0
 10 55  1  0  0  0  0
 11 56  1  0  0  0  0
 15 57  1  0  0  0  0
 16 58  1  0  0  0  0
 17 59  1  0  0  0  0
 18 60  1  0  0  0  0
 19 61  1  0  0  0  0
 21 62  1  0  0  0  0
 22 63  1  0  0  0  0
 27 64  1  0  0  0  0
 28 65  1  0  0  0  0
 29 66  1  0  0  0  0
 30 67  1  0  0  0  0
 31 68  1  0  0  0  0
 33 69  1  0  0  0  0
 34 70  1  0  0  0  0
 39 71  1  0  0  0  0
 40 72  1  0  0  0  0
 41 73  1  0  0  0  0
 42 74  1  0  0  0  0
 43 75  1  0  0  0  0
 45 76  1  0  0  0  0
 46 77  1  0  0  0  0
M  END
