540

C 97.783347 -0.610476 0.573601
C 98.473892 -1.250351 -0.670723
C 97.824799 -1.778658 -1.760611
C 98.821417 -2.253785 -2.650189
C 100.046584 -2.010975 -2.069859
N 99.823887 -1.360714 -0.880138
C 101.469830 -2.423656 -2.639449
C 101.524787 -3.303716 -3.839291
C 102.091312 -2.792876 -5.023601
C 102.152288 -3.580998 -6.164889
O 102.707673 -3.123946 -7.326574
C 101.631657 -4.866056 -6.147488
O 101.678900 -5.639126 -7.278279
C 101.044847 -5.373000 -4.990234
O 100.508509 -6.630191 -5.005655
C 100.991727 -4.604331 -3.831200
C 102.599898 -1.931436 -2.055385
C 103.920390 -2.389784 -2.435584
C 104.818550 -1.739365 -1.706176
N 102.782669 -1.004610 -1.062953
C 104.120129 -0.820643 -0.830705
C 104.782826 0.016437 0.011874
C 103.990105 1.060952 0.905222
C 104.480845 2.256855 1.391932
C 103.464535 2.853278 2.180499
C 102.372787 2.012918 2.138382
N 102.686787 0.947615 1.325293
C 100.987642 2.223886 2.876182
C 100.910132 3.254462 3.935643
C 101.383531 3.001894 5.233735
C 101.296103 3.998945 6.193012
O 101.746360 3.773795 7.463330
C 100.751484 5.236086 5.869665
O 100.672521 6.207327 6.834287
C 100.294996 5.495664 4.581858
O 99.779886 6.736670 4.325773
C 100.369606 4.511994 3.609013
C 99.896307 1.515688 2.479376
C 98.609406 1.616164 3.146885
C 97.746871 0.824258 2.517081
C 98.445178 0.204869 1.416612
N 99.738576 0.622552 1.458328
H 96.732651 -0.818986 0.739926
H 96.755175 -1.815780 -1.902600
H 98.660327 -2.732507 -3.604554
H 100.550159 -0.990550 -0.275548
H 102.473237 -1.772749 -5.011608
H 103.021630 -2.226703 -7.133924
H 102.164790 -5.076985 -7.906032
H 100.749998 -6.964887 -5.886343
H 100.529724 -4.995904 -2.928349
H 104.148445 -3.155173 -3.154417
H 105.878448 -1.894252 -1.769872
H 105.465727 2.660321 1.204605
H 103.526217 3.788929 2.716514
H 102.028496 0.222972 1.043813
H 101.812963 2.032822 5.472280
H 101.576442 4.614640 7.927827
H 100.257382 6.960599 6.358220
H 99.546407 6.752785 3.378205
H 100.014156 4.675849 2.593594
H 98.385122 2.210136 4.014295
H 96.712544 0.677326 2.773411
C 216.714691 -0.683678 0.479203
C 216.024146 0.362167 1.408713
C 216.673239 1.286215 2.191720
C 215.676621 2.029499 2.873354
C 214.451454 1.527890 2.493712
N 214.674151 0.537514 1.567736
C 213.028208 1.976807 3.035202
C 212.973251 2.919775 4.186261
C 212.406726 4.193973 3.986346
C 212.345750 5.103121 5.033784
O 211.790365 6.342016 4.880331
C 212.866381 4.766344 6.274050
O 212.819138 5.669072 7.304297
C 213.453191 3.519320 6.476928
O 213.989529 3.221270 7.698375
C 213.506311 2.588143 5.443911
C 211.898140 1.533673 2.413074
C 210.577648 1.787793 2.951643
C 209.679488 1.243276 2.140113
N 211.715369 0.803227 1.268357
C 210.377909 0.624091 1.032363
C 209.715212 0.016437 0.011874
C 210.507933 -0.588746 -1.222159
C 210.017193 -0.762404 -2.501578
C 211.033503 -1.377660 -3.275541
C 212.125251 -1.546082 -2.451155
N 211.811251 -1.023807 -1.216969
C 213.510396 -2.208130 -2.839160
C 213.587906 -2.977667 -4.101048
C 213.114507 -4.297766 -4.179599
C 213.201935 -4.978618 -5.384075
O 212.751678 -6.264993 -5.482267
C 213.746554 -4.357458 -6.501766
O 213.825517 -5.049912 -7.682576
C 214.203042 -3.045575 -6.432564
O 214.718152 -2.488597 -7.570742
C 214.128432 -2.348250 -5.237669
C 214.601731 -2.000128 -2.054472
C 215.888632 -2.621606 -2.317966
C 216.751167 -2.208782 -1.394200
C 216.052860 -1.297162 -0.520344
N 214.759462 -1.233580 -0.935261
H 217.765387 -0.896677 0.639740
H 217.742863 1.414492 2.263022
H 215.837711 2.834635 3.574597
H 213.947879 0.044114 1.058710
H 212.024801 4.436324 2.995353
H 211.476408 6.378805 3.963376
H 212.333248 6.417009 6.916137
H 213.748040 3.990905 8.241785
H 213.968314 1.616234 5.598386
H 210.349593 2.293445 3.871892
H 208.619590 1.266407 2.305980
H 209.032311 -0.480531 -2.845705
H 210.971821 -1.663864 -4.315177
H 212.469542 -0.931593 -0.445066
H 212.685075 -4.770056 -3.300425
H 212.921596 -6.505532 -6.412277
H 214.240656 -4.401303 -8.293611
H 214.951631 -1.566852 -7.350447
H 214.483882 -1.324010 -5.143571
H 216.112916 -3.313833 -3.109183
H 217.785494 -2.493620 -1.315708
C 110.851627 0.017539 0.020364
C 109.642688 0.004084 0.011916
C 108.221159 0.012904 -0.000067
C 107.009490 0.020342 0.010796
C 112.268232 0.010864 0.020897
C 113.488927 0.020342 0.010796
C 126.518706 0.017539 0.020364
C 125.309767 0.004084 0.011916
C 123.888238 0.012904 -0.000067
C 122.676568 0.020342 0.010796
C 127.935310 0.010864 0.020897
C 129.156006 0.020342 0.010796
C 142.185784 0.017539 0.020364
C 140.976845 0.004084 0.011916
C 139.555316 0.012904 -0.000067
C 138.343647 0.020342 0.010796
C 143.602389 0.010864 0.020897
C 144.823085 0.020342 0.010796
C 157.852863 0.017539 0.020364
C 156.643924 0.004084 0.011916
C 155.222395 0.012904 -0.000067
C 154.010725 0.020342 0.010796
C 159.269467 0.010864 0.020897
C 160.490163 0.020342 0.010796
C 173.519941 0.017539 0.020364
C 172.311002 0.004084 0.011916
C 170.889473 0.012904 -0.000067
C 169.677804 0.020342 0.010796
C 174.936546 0.010864 0.020897
C 176.157242 0.020342 0.010796
C 189.187020 0.017539 0.020364
C 187.978081 0.004084 0.011916
C 186.556552 0.012904 -0.000067
C 185.344882 0.020342 0.010796
C 190.603624 0.010864 0.020897
C 191.824320 0.020342 0.010796
C 204.854098 0.017539 0.020364
C 203.645159 0.004084 0.011916
C 202.223630 0.012904 -0.000067
C 201.011961 0.020342 0.010796
C 206.270703 0.010864 0.020897
C 207.491399 0.020342 0.010796
C 114.519587 -0.007864 -0.005241
C 115.304020 -1.354536 0.288245
C 114.769482 -2.523987 0.792830
C 115.806900 -3.489490 0.815421
C 116.947283 -2.877035 0.336838
N 116.648037 -1.559933 0.086812
C 118.348693 -3.569050 0.096497
C 118.356002 -5.032702 -0.131067
C 118.682670 -5.913805 0.917195
C 118.690916 -7.291695 0.692300
O 119.020161 -8.152910 1.708004
C 118.369183 -7.788805 -0.571140
O 118.369747 -9.135423 -0.825488
C 118.043707 -6.910373 -1.611734
O 117.741816 -7.446152 -2.843288
C 118.032964 -5.535247 -1.402250
C 119.484425 -2.826158 0.027193
C 120.775751 -3.421165 -0.250609
C 121.682693 -2.452833 -0.290361
N 119.692300 -1.480646 0.158692
C 121.018617 -1.191144 -0.027910
C 121.687967 -0.007864 -0.005241
C 120.905368 1.339232 0.286412
C 121.439094 2.503028 0.807501
C 120.404303 3.471734 0.823749
C 119.265095 2.865799 0.327573
N 119.565972 1.552898 0.058805
C 117.858754 3.555467 0.100669
C 117.816595 5.034916 0.046547
C 118.093036 5.727862 -1.143448
C 118.031569 7.115884 -1.150335
O 118.289334 7.805646 -2.304276
C 117.703322 7.812075 0.011705
O 117.639954 9.181586 -0.018345
C 117.438056 7.128774 1.193929
O 117.119576 7.859762 2.309245
C 117.493366 5.741945 1.220848
C 116.726503 2.807766 0.005449
C 115.428738 3.405942 -0.243891
C 114.521532 2.436892 -0.281095
C 115.191649 1.173027 -0.047091
N 116.524053 1.458655 0.102311
H 113.741178 -2.677310 1.087440
H 115.724115 -4.521658 1.126886
H 117.319397 -0.846266 -0.184699
H 118.931810 -5.491934 1.890247
H 119.275660 -7.612817 2.478945
H 118.124391 -9.187947 -1.771843
H 117.561900 -6.688824 -3.433388
H 117.786605 -4.831836 -2.195986
H 120.978394 -4.465143 -0.411276
H 122.728667 -2.601926 -0.487592
H 122.463989 2.650651 1.119851
H 120.488769 4.499374 1.145836
H 118.894631 0.842944 -0.225317
H 118.343575 5.175255 -2.046615
H 118.145595 8.739762 -2.053821
H 117.383539 9.408759 0.900842
H 116.974316 7.212199 3.024178
H 117.285192 5.173939 2.124491
H 115.224983 4.451766 -0.392866
H 113.471225 2.586592 -0.453066
C 130.186665 -0.007864 -0.005241
C 130.971098 -1.354536 0.288245
C 130.436561 -2.523987 0.792830
C 131.473978 -3.489490 0.815421
C 132.614361 -2.877035 0.336838
N 132.315116 -1.559933 0.086812
C 134.015772 -3.569050 0.096497
C 134.023081 -5.032702 -0.131067
C 134.349748 -5.913805 0.917195
C 134.357994 -7.291695 0.692300
O 134.687240 -8.152910 1.708004
C 134.036262 -7.788805 -0.571140
O 134.036826 -9.135423 -0.825488
C 133.710785 -6.910373 -1.611734
O 133.408894 -7.446152 -2.843288
C 133.700043 -5.535247 -1.402250
C 135.151504 -2.826158 0.027193
C 136.442830 -3.421165 -0.250609
C 137.349771 -2.452833 -0.290361
N 135.359379 -1.480646 0.158692
C 136.685696 -1.191144 -0.027910
C 137.355046 -0.007864 -0.005241
C 136.572446 1.339232 0.286412
C 137.106172 2.503028 0.807501
C 136.071382 3.471734 0.823749
C 134.932174 2.865799 0.327573
N 135.233051 1.552898 0.058805
C 133.525833 3.555467 0.100669
C 133.483674 5.034916 0.046547
C 133.760115 5.727862 -1.143448
C 133.698647 7.115884 -1.150335
O 133.956413 7.805646 -2.304276
C 133.370400 7.812075 0.011705
O 133.307033 9.181586 -0.018345
C 133.105134 7.128774 1.193929
O 132.786654 7.859762 2.309245
C 133.160445 5.741945 1.220848
C 132.393581 2.807766 0.005449
C 131.095817 3.405942 -0.243891
C 130.188610 2.436892 -0.281095
C 130.858727 1.173027 -0.047091
N 132.191131 1.458655 0.102311
H 129.408257 -2.677310 1.087440
H 131.391194 -4.521658 1.126886
H 132.986476 -0.846266 -0.184699
H 134.598888 -5.491934 1.890247
H 134.942739 -7.612817 2.478945
H 133.791470 -9.187947 -1.771843
H 133.228979 -6.688824 -3.433388
H 133.453684 -4.831836 -2.195986
H 136.645472 -4.465143 -0.411276
H 138.395746 -2.601926 -0.487592
H 138.131068 2.650651 1.119851
H 136.155847 4.499374 1.145836
H 134.561709 0.842944 -0.225317
H 134.010654 5.175255 -2.046615
H 133.812674 8.739762 -2.053821
H 133.050618 9.408759 0.900842
H 132.641394 7.212199 3.024178
H 132.952270 5.173939 2.124491
H 130.892062 4.451766 -0.392866
H 129.138304 2.586592 -0.453066
C 145.853744 -0.007864 -0.005241
C 146.638177 -1.354536 0.288245
C 146.103639 -2.523987 0.792830
C 147.141057 -3.489490 0.815421
C 148.281440 -2.877035 0.336838
N 147.982194 -1.559933 0.086812
C 149.682850 -3.569050 0.096497
C 149.690159 -5.032702 -0.131067
C 150.016827 -5.913805 0.917195
C 150.025073 -7.291695 0.692300
O 150.354319 -8.152910 1.708004
C 149.703340 -7.788805 -0.571140
O 149.703904 -9.135423 -0.825488
C 149.377864 -6.910373 -1.611734
O 149.075973 -7.446152 -2.843288
C 149.367121 -5.535247 -1.402250
C 150.818582 -2.826158 0.027193
C 152.109908 -3.421165 -0.250609
C 153.016850 -2.452833 -0.290361
N 151.026457 -1.480646 0.158692
C 152.352775 -1.191144 -0.027910
C 153.022124 -0.007864 -0.005241
C 152.239525 1.339232 0.286412
C 152.773251 2.503028 0.807501
C 151.738460 3.471734 0.823749
C 150.599252 2.865799 0.327573
N 150.900130 1.552898 0.058805
C 149.192912 3.555467 0.100669
C 149.150752 5.034916 0.046547
C 149.427193 5.727862 -1.143448
C 149.365726 7.115884 -1.150335
O 149.623491 7.805646 -2.304276
C 149.037479 7.812075 0.011705
O 148.974111 9.181586 -0.018345
C 148.772213 7.128774 1.193929
O 148.453733 7.859762 2.309245
C 148.827524 5.741945 1.220848
C 148.060660 2.807766 0.005449
C 146.762895 3.405942 -0.243891
C 145.855689 2.436892 -0.281095
C 146.525806 1.173027 -0.047091
N 147.858210 1.458655 0.102311
H 145.075335 -2.677310 1.087440
H 147.058272 -4.521658 1.126886
H 148.653554 -0.846266 -0.184699
H 150.265967 -5.491934 1.890247
H 150.609817 -7.612817 2.478945
H 149.458549 -9.187947 -1.771843
H 148.896057 -6.688824 -3.433388
H 149.120762 -4.831836 -2.195986
H 152.312551 -4.465143 -0.411276
H 154.062824 -2.601926 -0.487592
H 153.798146 2.650651 1.119851
H 151.822926 4.499374 1.145836
H 150.228788 0.842944 -0.225317
H 149.677732 5.175255 -2.046615
H 149.479752 8.739762 -2.053821
H 148.717696 9.408759 0.900842
H 148.308473 7.212199 3.024178
H 148.619349 5.173939 2.124491
H 146.559140 4.451766 -0.392866
H 144.805382 2.586592 -0.453066
C 161.520822 -0.007864 -0.005241
C 162.305255 -1.354536 0.288245
C 161.770718 -2.523987 0.792830
C 162.808135 -3.489490 0.815421
C 163.948518 -2.877035 0.336838
N 163.649273 -1.559933 0.086812
C 165.349929 -3.569050 0.096497
C 165.357238 -5.032702 -0.131067
C 165.683905 -5.913805 0.917195
C 165.692152 -7.291695 0.692300
O 166.021397 -8.152910 1.708004
C 165.370419 -7.788805 -0.571140
O 165.370983 -9.135423 -0.825488
C 165.044942 -6.910373 -1.611734
O 164.743051 -7.446152 -2.843288
C 165.034200 -5.535247 -1.402250
C 166.485661 -2.826158 0.027193
C 167.776987 -3.421165 -0.250609
C 168.683928 -2.452833 -0.290361
N 166.693536 -1.480646 0.158692
C 168.019853 -1.191144 -0.027910
C 168.689203 -0.007864 -0.005241
C 167.906603 1.339232 0.286412
C 168.440329 2.503028 0.807501
C 167.405539 3.471734 0.823749
C 166.266331 2.865799 0.327573
N 166.567208 1.552898 0.058805
C 164.859990 3.555467 0.100669
C 164.817831 5.034916 0.046547
C 165.094272 5.727862 -1.143448
C 165.032805 7.115884 -1.150335
O 165.290570 7.805646 -2.304276
C 164.704557 7.812075 0.011705
O 164.641190 9.181586 -0.018345
C 164.439291 7.128774 1.193929
O 164.120811 7.859762 2.309245
C 164.494602 5.741945 1.220848
C 163.727738 2.807766 0.005449
C 162.429974 3.405942 -0.243891
C 161.522767 2.436892 -0.281095
C 162.192884 1.173027 -0.047091
N 163.525288 1.458655 0.102311
H 160.742414 -2.677310 1.087440
H 162.725351 -4.521658 1.126886
H 164.320633 -0.846266 -0.184699
H 165.933045 -5.491934 1.890247
H 166.276896 -7.612817 2.478945
H 165.125627 -9.187947 -1.771843
H 164.563136 -6.688824 -3.433388
H 164.787841 -4.831836 -2.195986
H 167.979630 -4.465143 -0.411276
H 169.729903 -2.601926 -0.487592
H 169.465225 2.650651 1.119851
H 167.490004 4.499374 1.145836
H 165.895866 0.842944 -0.225317
H 165.344811 5.175255 -2.046615
H 165.146831 8.739762 -2.053821
H 164.384775 9.408759 0.900842
H 163.975551 7.212199 3.024178
H 164.286428 5.173939 2.124491
H 162.226219 4.451766 -0.392866
H 160.472461 2.586592 -0.453066
C 177.187901 -0.007864 -0.005241
C 177.972334 -1.354536 0.288245
C 177.437796 -2.523987 0.792830
C 178.475214 -3.489490 0.815421
C 179.615597 -2.877035 0.336838
N 179.316351 -1.559933 0.086812
C 181.017008 -3.569050 0.096497
C 181.024316 -5.032702 -0.131067
C 181.350984 -5.913805 0.917195
C 181.359230 -7.291695 0.692300
O 181.688476 -8.152910 1.708004
C 181.037497 -7.788805 -0.571140
O 181.038061 -9.135423 -0.825488
C 180.712021 -6.910373 -1.611734
O 180.410130 -7.446152 -2.843288
C 180.701278 -5.535247 -1.402250
C 182.152739 -2.826158 0.027193
C 183.444065 -3.421165 -0.250609
C 184.351007 -2.452833 -0.290361
N 182.360614 -1.480646 0.158692
C 183.686932 -1.191144 -0.027910
C 184.356282 -0.007864 -0.005241
C 183.573682 1.339232 0.286412
C 184.107408 2.503028 0.807501
C 183.072617 3.471734 0.823749
C 181.933409 2.865799 0.327573
N 182.234287 1.552898 0.058805
C 180.527069 3.555467 0.100669
C 180.484910 5.034916 0.046547
C 180.761351 5.727862 -1.143448
C 180.699883 7.115884 -1.150335
O 180.957648 7.805646 -2.304276
C 180.371636 7.812075 0.011705
O 180.308268 9.181586 -0.018345
C 180.106370 7.128774 1.193929
O 179.787890 7.859762 2.309245
C 180.161681 5.741945 1.220848
C 179.394817 2.807766 0.005449
C 178.097052 3.405942 -0.243891
C 177.189846 2.436892 -0.281095
C 177.859963 1.173027 -0.047091
N 179.192367 1.458655 0.102311
H 176.409492 -2.677310 1.087440
H 178.392429 -4.521658 1.126886
H 179.987711 -0.846266 -0.184699
H 181.600124 -5.491934 1.890247
H 181.943974 -7.612817 2.478945
H 180.792706 -9.187947 -1.771843
H 180.230215 -6.688824 -3.433388
H 180.454920 -4.831836 -2.195986
H 183.646708 -4.465143 -0.411276
H 185.396981 -2.601926 -0.487592
H 185.132303 2.650651 1.119851
H 183.157083 4.499374 1.145836
H 181.562945 0.842944 -0.225317
H 181.011889 5.175255 -2.046615
H 180.813909 8.739762 -2.053821
H 180.051853 9.408759 0.900842
H 179.642630 7.212199 3.024178
H 179.953506 5.173939 2.124491
H 177.893297 4.451766 -0.392866
H 176.139539 2.586592 -0.453066
C 192.854979 -0.007864 -0.005241
C 193.639412 -1.354536 0.288245
C 193.104875 -2.523987 0.792830
C 194.142292 -3.489490 0.815421
C 195.282676 -2.877035 0.336838
N 194.983430 -1.559933 0.086812
C 196.684086 -3.569050 0.096497
C 196.691395 -5.032702 -0.131067
C 197.018062 -5.913805 0.917195
C 197.026309 -7.291695 0.692300
O 197.355554 -8.152910 1.708004
C 196.704576 -7.788805 -0.571140
O 196.705140 -9.135423 -0.825488
C 196.379099 -6.910373 -1.611734
O 196.077208 -7.446152 -2.843288
C 196.368357 -5.535247 -1.402250
C 197.819818 -2.826158 0.027193
C 199.111144 -3.421165 -0.250609
C 200.018085 -2.452833 -0.290361
N 198.027693 -1.480646 0.158692
C 199.354010 -1.191144 -0.027910
C 200.023360 -0.007864 -0.005241
C 199.240760 1.339232 0.286412
C 199.774486 2.503028 0.807501
C 198.739696 3.471734 0.823749
C 197.600488 2.865799 0.327573
N 197.901365 1.552898 0.058805
C 196.194147 3.555467 0.100669
C 196.151988 5.034916 0.046547
C 196.428429 5.727862 -1.143448
C 196.366962 7.115884 -1.150335
O 196.624727 7.805646 -2.304276
C 196.038714 7.812075 0.011705
O 195.975347 9.181586 -0.018345
C 195.773448 7.128774 1.193929
O 195.454968 7.859762 2.309245
C 195.828759 5.741945 1.220848
C 195.061895 2.807766 0.005449
C 193.764131 3.405942 -0.243891
C 192.856924 2.436892 -0.281095
C 193.527041 1.173027 -0.047091
N 194.859445 1.458655 0.102311
H 192.076571 -2.677310 1.087440
H 194.059508 -4.521658 1.126886
H 195.654790 -0.846266 -0.184699
H 197.267202 -5.491934 1.890247
H 197.611053 -7.612817 2.478945
H 196.459784 -9.187947 -1.771843
H 195.897293 -6.688824 -3.433388
H 196.121998 -4.831836 -2.195986
H 199.313787 -4.465143 -0.411276
H 201.064060 -2.601926 -0.487592
H 200.799382 2.650651 1.119851
H 198.824161 4.499374 1.145836
H 197.230023 0.842944 -0.225317
H 196.678968 5.175255 -2.046615
H 196.480988 8.739762 -2.053821
H 195.718932 9.408759 0.900842
H 195.309708 7.212199 3.024178
H 195.620585 5.173939 2.124491
H 193.560376 4.451766 -0.392866
H 191.806618 2.586592 -0.453066
