130

C 11.150825 -0.626705 0.561786
C 11.841370 -1.266580 -0.682538
C 11.192277 -1.794887 -1.772425
C 12.188895 -2.270014 -2.662004
C 13.414061 -2.027204 -2.081674
N 13.191364 -1.376943 -0.891953
C 14.837308 -2.439885 -2.651264
C 14.892265 -3.319945 -3.851106
C 15.458789 -2.809106 -5.035416
C 15.519766 -3.597227 -6.176704
O 16.075150 -3.140176 -7.338389
C 14.999135 -4.882285 -6.159303
O 15.046377 -5.655356 -7.290094
C 14.412325 -5.389229 -5.002049
O 13.875986 -6.646420 -5.017470
C 14.359205 -4.620560 -3.843015
C 15.967375 -1.947665 -2.067200
C 17.287867 -2.406013 -2.447399
C 18.186028 -1.755595 -1.717991
N 16.150147 -1.020839 -1.074768
C 17.487607 -0.836872 -0.842520
C 18.150303 0.000208 0.000059
C 17.357583 1.044723 0.893407
C 17.848322 2.240626 1.380117
C 16.832013 2.837049 2.168684
C 15.740265 1.996688 2.126567
N 16.054265 0.931385 1.313478
C 14.355120 2.207657 2.864367
C 14.277610 3.238233 3.923828
C 14.751009 2.985665 5.221920
C 14.663580 3.982716 6.181197
O 15.113837 3.757565 7.451515
C 14.118962 5.219857 5.857850
O 14.039999 6.191098 6.822472
C 13.662473 5.479435 4.570043
O 13.147364 6.720440 4.313958
C 13.737083 4.495765 3.597198
C 13.263785 1.499458 2.467561
C 11.976884 1.599935 3.135070
C 11.114349 0.808029 2.505266
C 11.812655 0.188640 1.404797
N 13.106053 0.606323 1.446513
H 10.100128 -0.835215 0.728111
H 10.122652 -1.832009 -1.914415
H 12.027805 -2.748736 -3.616369
H 13.917637 -1.006779 -0.287363
H 15.840715 -1.788979 -5.023423
H 16.389107 -2.242932 -7.145739
H 15.532268 -5.093214 -7.917847
H 14.117475 -6.981117 -5.898158
H 13.897202 -5.012134 -2.940164
H 17.515923 -3.171403 -3.166232
H 19.245926 -1.910481 -1.781687
H 18.833204 2.644092 1.192790
H 16.893695 3.772700 2.704699
H 15.395973 0.206743 1.031998
H 15.180441 2.016592 5.460465
H 14.943920 4.598410 7.916012
H 13.624860 6.944370 6.346405
H 12.913884 6.736555 3.366390
H 13.381634 4.659620 2.581779
H 11.752600 2.193907 4.002480
H 10.080021 0.661096 2.761596
C 32.165321 -0.699907 0.467388
C 31.474776 0.345938 1.396898
C 32.123869 1.269985 2.179905
C 31.127251 2.013270 2.861539
C 29.902085 1.511660 2.481897
N 30.124782 0.521284 1.555921
C 28.478838 1.960578 3.023387
C 28.423881 2.903546 4.174446
C 27.857357 4.177744 3.974531
C 27.796380 5.086891 5.021969
O 27.240996 6.325786 4.868516
C 28.317011 4.750115 6.262235
O 28.269769 5.652842 7.292482
C 28.903821 3.503091 6.465113
O 29.440160 3.205041 7.686560
C 28.956941 2.571914 5.432096
C 27.348770 1.517444 2.401259
C 26.028279 1.771564 2.939828
C 25.130118 1.227047 2.128298
N 27.165999 0.786997 1.256542
C 25.828539 0.607862 1.020548
C 25.165843 0.000208 0.000059
C 25.958563 -0.604975 -1.233974
C 25.467824 -0.778634 -2.513393
C 26.484133 -1.393890 -3.287356
C 27.575881 -1.562312 -2.462970
N 27.261881 -1.040036 -1.228784
C 28.961026 -2.224360 -2.850975
C 29.038536 -2.993896 -4.112863
C 28.565137 -4.313996 -4.191414
C 28.652565 -4.994847 -5.395890
O 28.202309 -6.281222 -5.494082
C 29.197184 -4.373688 -6.513581
O 29.276147 -5.066142 -7.694391
C 29.653673 -3.061804 -6.444379
O 30.168782 -2.504826 -7.582557
C 29.579063 -2.364480 -5.249484
C 30.052361 -2.016357 -2.066287
C 31.339262 -2.637835 -2.329781
C 32.201797 -2.225011 -1.406015
C 31.503491 -1.313391 -0.532159
N 30.210093 -1.249809 -0.947076
H 33.216018 -0.912906 0.627925
H 33.193494 1.398263 2.251207
H 31.288341 2.818406 3.562782
H 29.398509 0.027885 1.046895
H 27.475431 4.420095 2.983538
H 26.927039 6.362576 3.951561
H 27.783878 6.400779 6.904322
H 29.198671 3.974676 8.229970
H 29.418944 1.600005 5.586571
H 25.800223 2.277216 3.860077
H 24.070220 1.250178 2.294165
H 24.482942 -0.496760 -2.857520
H 26.422451 -1.680093 -4.326992
H 27.920173 -0.947823 -0.456881
H 28.135705 -4.786286 -3.312240
H 28.372226 -6.521761 -6.424092
H 29.691286 -4.417533 -8.305426
H 30.402262 -1.583081 -7.362262
H 29.934512 -1.340239 -5.155386
H 31.563546 -3.330062 -3.120998
H 33.236125 -2.509850 -1.327523
C 20.920810 0.012644 0.002500
C 19.668540 -0.006537 -0.001848
C 22.234478 0.011878 0.004433
C 23.737612 -0.006537 -0.001848
