 xtb: 6.5.1 (b24c23e)
          07292214323D

130143  0     0  0            999 V2000
   11.5972   -0.4763    0.2031 C   0  0  0  0  0  0  0  0  0  0  0  0
   12.2033   -1.2049   -0.8123 C   0  0  0  0  0  0  0  0  0  0  0  0
   11.5494   -1.9987   -1.7962 C   0  0  0  0  0  0  0  0  0  0  0  0
   12.5064   -2.5258   -2.6168 C   0  0  0  0  0  0  0  0  0  0  0  0
   13.7778   -2.0861   -2.1495 C   0  0  0  0  0  0  0  0  0  0  0  0
   13.5429   -1.2851   -1.0676 N   0  0  0  0  0  0  0  0  0  0  0  0
   15.0394   -2.3874   -2.6744 C   0  0  0  0  0  0  0  0  0  0  0  0
   15.0795   -3.2776   -3.8613 C   0  0  0  0  0  0  0  0  0  0  0  0
   15.6315   -2.8062   -5.0558 C   0  0  0  0  0  0  0  0  0  0  0  0
   15.6651   -3.6300   -6.1737 C   0  0  0  0  0  0  0  0  0  0  0  0
   16.1815   -3.2337   -7.3796 O   0  0  0  0  0  0  0  0  0  0  0  0
   15.1582   -4.9252   -6.1061 C   0  0  0  0  0  0  0  0  0  0  0  0
   15.1822   -5.7592   -7.1930 O   0  0  0  0  0  0  0  0  0  0  0  0
   14.6115   -5.3988   -4.9123 C   0  0  0  0  0  0  0  0  0  0  0  0
   14.1257   -6.6629   -4.8555 O   0  0  0  0  0  0  0  0  0  0  0  0
   14.5686   -4.5738   -3.7941 C   0  0  0  0  0  0  0  0  0  0  0  0
   16.2508   -1.9155   -2.1620 C   0  0  0  0  0  0  0  0  0  0  0  0
   17.5527   -2.3318   -2.6510 C   0  0  0  0  0  0  0  0  0  0  0  0
   18.4683   -1.6868   -1.8984 C   0  0  0  0  0  0  0  0  0  0  0  0
   16.3981   -1.0418   -1.1283 N   0  0  0  0  0  0  0  0  0  0  0  0
   17.7248   -0.8763   -0.9536 C   0  0  0  0  0  0  0  0  0  0  0  0
   18.3552   -0.0297   -0.0191 C   0  0  0  0  0  0  0  0  0  0  0  0
   17.7143    0.7979    0.9227 C   0  0  0  0  0  0  0  0  0  0  0  0
   18.3490    1.7209    1.7953 C   0  0  0  0  0  0  0  0  0  0  0  0
   17.3787    2.3378    2.5358 C   0  0  0  0  0  0  0  0  0  0  0  0
   16.1214    1.7958    2.1504 C   0  0  0  0  0  0  0  0  0  0  0  0
   16.3757    0.8784    1.1646 N   0  0  0  0  0  0  0  0  0  0  0  0
   14.8581    2.1226    2.6555 C   0  0  0  0  0  0  0  0  0  0  0  0
   14.8031    3.1480    3.7260 C   0  0  0  0  0  0  0  0  0  0  0  0
   15.4762    2.9545    4.9327 C   0  0  0  0  0  0  0  0  0  0  0  0
   15.4175    3.9239    5.9274 C   0  0  0  0  0  0  0  0  0  0  0  0
   16.0621    3.7424    7.1059 O   0  0  0  0  0  0  0  0  0  0  0  0
   14.6899    5.0960    5.7152 C   0  0  0  0  0  0  0  0  0  0  0  0
   14.6538    6.0357    6.7119 O   0  0  0  0  0  0  0  0  0  0  0  0
   14.0193    5.2900    4.5102 C   0  0  0  0  0  0  0  0  0  0  0  0
   13.3290    6.4659    4.3727 O   0  0  0  0  0  0  0  0  0  0  0  0
   14.0703    4.3202    3.5172 C   0  0  0  0  0  0  0  0  0  0  0  0
   13.6550    1.5540    2.2219 C   0  0  0  0  0  0  0  0  0  0  0  0
   12.3593    1.8227    2.8260 C   0  0  0  0  0  0  0  0  0  0  0  0
   11.4593    1.0843    2.1454 C   0  0  0  0  0  0  0  0  0  0  0  0
   12.2036    0.3646    1.1273 C   0  0  0  0  0  0  0  0  0  0  0  0
   13.5235    0.6622    1.2114 N   0  0  0  0  0  0  0  0  0  0  0  0
   10.5174   -0.5677    0.2636 H   0  0  0  0  0  0  0  0  0  0  0  0
   10.4814   -2.1322   -1.8629 H   0  0  0  0  0  0  0  0  0  0  0  0
   12.3505   -3.1603   -3.4741 H   0  0  0  0  0  0  0  0  0  0  0  0
   14.2693   -0.8169   -0.5362 H   0  0  0  0  0  0  0  0  0  0  0  0
   16.0167   -1.7953   -5.1187 H   0  0  0  0  0  0  0  0  0  0  0  0
   16.5183   -2.3296   -7.3282 H   0  0  0  0  0  0  0  0  0  0  0  0
   15.5973   -5.2801   -7.9277 H   0  0  0  0  0  0  0  0  0  0  0  0
   14.2520   -7.0773   -5.7250 H   0  0  0  0  0  0  0  0  0  0  0  0
   14.1584   -4.9587   -2.8694 H   0  0  0  0  0  0  0  0  0  0  0  0
   17.7221   -3.0391   -3.4467 H   0  0  0  0  0  0  0  0  0  0  0  0
   19.5438   -1.7406   -1.9552 H   0  0  0  0  0  0  0  0  0  0  0  0
   19.4125    1.8926    1.8361 H   0  0  0  0  0  0  0  0  0  0  0  0
   17.5192    3.1050    3.2795 H   0  0  0  0  0  0  0  0  0  0  0  0
   15.6587    0.3426    0.6866 H   0  0  0  0  0  0  0  0  0  0  0  0
   16.0282    2.0419    5.1173 H   0  0  0  0  0  0  0  0  0  0  0  0
   15.8989    4.5195    7.6656 H   0  0  0  0  0  0  0  0  0  0  0  0
   14.1074    6.7763    6.4040 H   0  0  0  0  0  0  0  0  0  0  0  0
   12.8923    6.5085    3.5119 H   0  0  0  0  0  0  0  0  0  0  0  0
   13.5582    4.4846    2.5763 H   0  0  0  0  0  0  0  0  0  0  0  0
   12.1884    2.4743    3.6679 H   0  0  0  0  0  0  0  0  0  0  0  0
   10.3937    1.0102    2.2969 H   0  0  0  0  0  0  0  0  0  0  0  0
   31.7177   -0.3151    0.4114 C   0  0  0  0  0  0  0  0  0  0  0  0
   31.1114    0.4863    1.3702 C   0  0  0  0  0  0  0  0  0  0  0  0
   31.7651    1.2409    2.3846 C   0  0  0  0  0  0  0  0  0  0  0  0
   30.8080    1.9041    3.0997 C   0  0  0  0  0  0  0  0  0  0  0  0
   29.5367    1.5615    2.5569 C   0  0  0  0  0  0  0  0  0  0  0  0
   29.7717    0.7135    1.5115 N   0  0  0  0  0  0  0  0  0  0  0  0
   28.2751    1.9954    2.9789 C   0  0  0  0  0  0  0  0  0  0  0  0
   28.2353    2.9237    4.1363 C   0  0  0  0  0  0  0  0  0  0  0  0
   27.6842    4.1983    3.9767 C   0  0  0  0  0  0  0  0  0  0  0  0
   27.6513    5.0764    5.0525 C   0  0  0  0  0  0  0  0  0  0  0  0
   27.1359    6.3433    4.9683 O   0  0  0  0  0  0  0  0  0  0  0  0
   28.1583    4.6887    6.2901 C   0  0  0  0  0  0  0  0  0  0  0  0
   28.1353    5.5343    7.3680 O   0  0  0  0  0  0  0  0  0  0  0  0
   28.7041    3.4142    6.4521 C   0  0  0  0  0  0  0  0  0  0  0  0
   29.1900    3.0448    7.6623 O   0  0  0  0  0  0  0  0  0  0  0  0
   28.7461    2.5361    5.3752 C   0  0  0  0  0  0  0  0  0  0  0  0
   27.0637    1.6176    2.3937 C   0  0  0  0  0  0  0  0  0  0  0  0
   25.7618    1.9891    2.9174 C   0  0  0  0  0  0  0  0  0  0  0  0
   24.8462    1.4214    2.1048 C   0  0  0  0  0  0  0  0  0  0  0  0
   26.9164    0.8336    1.2903 N   0  0  0  0  0  0  0  0  0  0  0  0
   25.5897    0.7071    1.0854 C   0  0  0  0  0  0  0  0  0  0  0  0
   24.9598    0.0128    0.0324 C   0  0  0  0  0  0  0  0  0  0  0  0
   25.6010   -0.6944   -1.0026 C   0  0  0  0  0  0  0  0  0  0  0  0
   24.9664   -1.3100   -2.1136 C   0  0  0  0  0  0  0  0  0  0  0  0
   25.9367   -1.8742   -2.8950 C   0  0  0  0  0  0  0  0  0  0  0  0
   27.1939   -1.6364   -2.2736 C   0  0  0  0  0  0  0  0  0  0  0  0
   26.9395   -0.9098   -1.1399 N   0  0  0  0  0  0  0  0  0  0  0  0
   28.4571   -2.0441   -2.7160 C   0  0  0  0  0  0  0  0  0  0  0  0
   28.5120   -2.8252   -3.9759 C   0  0  0  0  0  0  0  0  0  0  0  0
   27.8386   -4.0419   -4.0894 C   0  0  0  0  0  0  0  0  0  0  0  0
   27.8967   -4.7632   -5.2764 C   0  0  0  0  0  0  0  0  0  0  0  0
   27.2517   -5.9494   -5.3947 O   0  0  0  0  0  0  0  0  0  0  0  0
   28.6241   -4.2653   -6.3587 C   0  0  0  0  0  0  0  0  0  0  0  0
   28.6595   -4.9958   -7.5175 O   0  0  0  0  0  0  0  0  0  0  0  0
   29.2951   -3.0503   -6.2460 C   0  0  0  0  0  0  0  0  0  0  0  0
   29.9852   -2.6238   -7.3506 O   0  0  0  0  0  0  0  0  0  0  0  0
   29.2448   -2.3307   -5.0591 C   0  0  0  0  0  0  0  0  0  0  0  0
   29.6602   -1.7655   -2.0575 C   0  0  0  0  0  0  0  0  0  0  0  0
   30.9561   -2.2830   -2.4683 C   0  0  0  0  0  0  0  0  0  0  0  0
   31.8561   -1.8072   -1.5840 C   0  0  0  0  0  0  0  0  0  0  0  0
   31.1116   -1.0008   -0.6333 C   0  0  0  0  0  0  0  0  0  0  0  0
   29.7916   -1.0088   -0.9422 N   0  0  0  0  0  0  0  0  0  0  0  0
   32.7976   -0.3958    0.4847 H   0  0  0  0  0  0  0  0  0  0  0  0
   32.8331    1.2721    2.5307 H   0  0  0  0  0  0  0  0  0  0  0  0
   30.9639    2.5758    3.9281 H   0  0  0  0  0  0  0  0  0  0  0  0
   29.0453    0.3159    0.9252 H   0  0  0  0  0  0  0  0  0  0  0  0
   27.2992    4.5107    3.0131 H   0  0  0  0  0  0  0  0  0  0  0  0
   26.7990    6.5184    4.0799 H   0  0  0  0  0  0  0  0  0  0  0  0
   27.7207    6.3654    7.0865 H   0  0  0  0  0  0  0  0  0  0  0  0
   29.0645    3.7842    8.2798 H   0  0  0  0  0  0  0  0  0  0  0  0
   29.1555    1.5444    5.5182 H   0  0  0  0  0  0  0  0  0  0  0  0
   25.5922    2.5844    3.8000 H   0  0  0  0  0  0  0  0  0  0  0  0
   23.7708    1.4643    2.1701 H   0  0  0  0  0  0  0  0  0  0  0  0
   23.9029   -1.3062   -2.2905 H   0  0  0  0  0  0  0  0  0  0  0  0
   25.7962   -2.4034   -3.8232 H   0  0  0  0  0  0  0  0  0  0  0  0
   27.6565   -0.5804   -0.5018 H   0  0  0  0  0  0  0  0  0  0  0  0
   27.2867   -4.4482   -3.2517 H   0  0  0  0  0  0  0  0  0  0  0  0
   27.4145   -6.2975   -6.2869 H   0  0  0  0  0  0  0  0  0  0  0  0
   29.2058   -4.5130   -8.1580 H   0  0  0  0  0  0  0  0  0  0  0  0
   30.4227   -1.7800   -7.1770 H   0  0  0  0  0  0  0  0  0  0  0  0
   29.7571   -1.3787   -4.9836 H   0  0  0  0  0  0  0  0  0  0  0  0
   31.1271   -2.9362   -3.3090 H   0  0  0  0  0  0  0  0  0  0  0  0
   32.9218   -1.9717   -1.5503 H   0  0  0  0  0  0  0  0  0  0  0  0
   20.9829    0.0285   -0.0246 C   0  0  0  0  0  0  0  0  0  0  0  0
   19.7606    0.0105   -0.0278 C   0  0  0  0  0  0  0  0  0  0  0  0
   22.3323    0.0331   -0.0197 C   0  0  0  0  0  0  0  0  0  0  0  0
   23.5544    0.0308   -0.0053 C   0  0  0  0  0  0  0  0  0  0  0  0
  1  2  4  0  0  0  0
  2  3  4  0  0  0  0
  3  4  2  0  0  0  0
  4  5  4  0  0  0  0
  2  6  4  0  0  0  0
  5  6  4  0  0  0  0
  5  7  4  0  0  0  0
  7  8  1  0  0  0  0
  8  9  4  0  0  0  0
  9 10  4  0  0  0  0
 10 11  1  0  0  0  0
 10 12  4  0  0  0  0
 12 13  1  0  0  0  0
 12 14  4  0  0  0  0
 14 15  1  0  0  0  0
  8 16  4  0  0  0  0
 14 16  4  0  0  0  0
  7 17  4  0  0  0  0
 17 18  1  0  0  0  0
 18 19  2  0  0  0  0
 17 20  4  0  0  0  0
 19 21  1  0  0  0  0
 20 21  4  0  0  0  0
 21 22  4  0  0  0  0
 22 23  4  0  0  0  0
 23 24  4  0  0  0  0
 24 25  2  0  0  0  0
 25 26  4  0  0  0  0
 23 27  4  0  0  0  0
 26 27  4  0  0  0  0
 26 28  4  0  0  0  0
 28 29  1  0  0  0  0
 29 30  4  0  0  0  0
 30 31  4  0  0  0  0
 31 32  1  0  0  0  0
 31 33  4  0  0  0  0
 33 34  1  0  0  0  0
 33 35  4  0  0  0  0
 35 36  1  0  0  0  0
 29 37  4  0  0  0  0
 35 37  4  0  0  0  0
 28 38  4  0  0  0  0
 38 39  1  0  0  0  0
 39 40  2  0  0  0  0
  1 41  4  0  0  0  0
 40 41  1  0  0  0  0
 38 42  4  0  0  0  0
 41 42  4  0  0  0  0
  1 43  1  0  0  0  0
  3 44  1  0  0  0  0
  4 45  1  0  0  0  0
  6 46  1  0  0  0  0
  9 47  1  0  0  0  0
 11 48  1  0  0  0  0
 13 49  1  0  0  0  0
 15 50  1  0  0  0  0
 16 51  1  0  0  0  0
 18 52  1  0  0  0  0
 19 53  1  0  0  0  0
 24 54  1  0  0  0  0
 25 55  1  0  0  0  0
 27 56  1  0  0  0  0
 30 57  1  0  0  0  0
 32 58  1  0  0  0  0
 34 59  1  0  0  0  0
 36 60  1  0  0  0  0
 37 61  1  0  0  0  0
 39 62  1  0  0  0  0
 40 63  1  0  0  0  0
 64 65  4  0  0  0  0
 65 66  4  0  0  0  0
 66 67  2  0  0  0  0
 67 68  4  0  0  0  0
 65 69  4  0  0  0  0
 68 69  4  0  0  0  0
 68 70  4  0  0  0  0
 70 71  1  0  0  0  0
 71 72  4  0  0  0  0
 72 73  4  0  0  0  0
 73 74  1  0  0  0  0
 73 75  4  0  0  0  0
 75 76  1  0  0  0  0
 75 77  4  0  0  0  0
 77 78  1  0  0  0  0
 71 79  4  0  0  0  0
 77 79  4  0  0  0  0
 70 80  4  0  0  0  0
 80 81  1  0  0  0  0
 81 82  2  0  0  0  0
 80 83  4  0  0  0  0
 82 84  1  0  0  0  0
 83 84  4  0  0  0  0
 84 85  4  0  0  0  0
 85 86  4  0  0  0  0
 86 87  4  0  0  0  0
 87 88  2  0  0  0  0
 88 89  4  0  0  0  0
 86 90  4  0  0  0  0
 89 90  4  0  0  0  0
 89 91  4  0  0  0  0
 91 92  1  0  0  0  0
 92 93  4  0  0  0  0
 93 94  4  0  0  0  0
 94 95  1  0  0  0  0
 94 96  4  0  0  0  0
 96 97  1  0  0  0  0
 96 98  4  0  0  0  0
 98 99  1  0  0  0  0
 92100  4  0  0  0  0
 98100  4  0  0  0  0
 91101  4  0  0  0  0
101102  1  0  0  0  0
102103  2  0  0  0  0
 64104  4  0  0  0  0
103104  1  0  0  0  0
101105  4  0  0  0  0
104105  4  0  0  0  0
 64106  1  0  0  0  0
 66107  1  0  0  0  0
 67108  1  0  0  0  0
 69109  1  0  0  0  0
 72110  1  0  0  0  0
 74111  1  0  0  0  0
 76112  1  0  0  0  0
 78113  1  0  0  0  0
 79114  1  0  0  0  0
 81115  1  0  0  0  0
 82116  1  0  0  0  0
 87117  1  0  0  0  0
 88118  1  0  0  0  0
 90119  1  0  0  0  0
 93120  1  0  0  0  0
 95121  1  0  0  0  0
 97122  1  0  0  0  0
 99123  1  0  0  0  0
100124  1  0  0  0  0
102125  1  0  0  0  0
103126  1  0  0  0  0
 22128  4  0  0  0  0
127128  3  0  0  0  0
127129  4  0  0  0  0
 85130  4  0  0  0  0
129130  3  0  0  0  0
M  END
