620

C 152.041663 0.059402 0.006471
C 152.766517 -0.994532 0.897755
C 152.151066 -1.981708 1.633839
C 153.172493 -2.685846 2.321633
C 154.378170 -2.098395 1.988185
N 154.121190 -1.094880 1.088301
C 155.806224 -2.483756 2.558453
C 155.855725 -3.431044 3.697208
C 156.105112 -4.789442 3.478866
C 156.157719 -5.680034 4.555302
C 156.003166 -5.219731 5.865793
N 155.964508 -6.130950 6.935861
C 155.679579 -3.875199 6.074652
C 155.628209 -2.980880 5.001127
C 156.934874 -1.926735 2.040814
C 158.244169 -2.207115 2.593555
C 159.145695 -1.510757 1.911397
N 157.127912 -1.049111 1.005445
C 158.462078 -0.759219 0.877234
C 159.131983 0.045741 0.009398
C 158.357451 0.825774 -1.137144
C 158.911831 1.318935 -2.302011
C 157.886777 1.986383 -3.016174
C 156.730078 1.870432 -2.276061
N 157.016314 1.124909 -1.156070
C 155.313028 2.473276 -2.655723
C 155.263247 3.555039 -3.664025
C 155.043431 3.255130 -5.012121
C 154.994359 4.277599 -5.963967
C 155.117496 5.614725 -5.576618
N 155.157300 6.630869 -6.547552
C 155.407485 5.905611 -4.239791
C 155.459312 4.885619 -3.284449
C 154.190859 1.998306 -2.055079
C 152.865590 2.510765 -2.355935
C 151.982012 1.840013 -1.623152
C 152.707238 0.880781 -0.826988
N 154.029698 1.021194 -1.112212
H 150.962661 0.125079 0.075734
H 151.088404 -2.165860 1.681056
H 153.040474 -3.514780 3.001819
H 154.824960 -0.516996 0.635342
H 156.252939 -5.142570 2.461608
H 156.331411 -6.731923 4.353634
H 156.192982 -5.688512 7.820414
H 156.530207 -6.954469 6.756195
H 155.473419 -3.501998 7.072590
H 155.403710 -1.929270 5.167365
H 158.460231 -2.855390 3.423627
H 160.201894 -1.524053 2.107672
H 159.943294 1.222799 -2.603864
H 157.983156 2.496877 -3.962417
H 156.327591 0.808193 -0.478539
H 154.917897 2.216629 -5.308993
H 154.850062 4.012979 -7.005917
H 154.610093 6.394307 -7.367944
H 154.906562 7.534869 -6.161460
H 155.587124 6.927287 -3.921073
H 155.657414 5.115140 -2.239651
H 152.633952 3.297214 -3.051245
H 150.916994 1.983496 -1.618917
C 253.328174 0.046022 0.023365
C 252.603319 0.672199 -1.206702
C 253.218770 1.162595 -2.336237
C 252.197343 1.670815 -3.179197
C 250.991666 1.480792 -2.530986
N 251.248646 0.834694 -1.348028
C 249.563613 1.947629 -3.036725
C 249.514111 2.839127 -4.219666
C 249.264725 2.315441 -5.491936
C 249.212118 3.159262 -6.605414
C 249.366671 4.540347 -6.457525
N 249.405329 5.373245 -7.589623
C 249.690257 5.051626 -5.196580
C 249.741627 4.211491 -4.080141
C 248.434963 1.571341 -2.375945
C 247.125668 2.045164 -2.775479
C 246.224141 1.540648 -1.941383
N 248.241924 0.764524 -1.284496
C 246.907759 0.706124 -0.972944
C 246.237853 0.045741 0.009398
C 247.012385 -0.891646 1.031314
C 246.458005 -1.912582 1.778183
C 247.483060 -2.454875 2.591469
C 248.639759 -1.760998 2.309074
N 248.353523 -0.841551 1.326832
C 250.056808 -1.992482 2.982854
C 250.106589 -2.726192 4.266814
C 250.326405 -4.107142 4.283668
C 250.375478 -4.799479 5.496978
C 250.252340 -4.116151 6.709830
N 250.212536 -4.828518 7.921357
C 249.962352 -2.748237 6.686774
C 249.910525 -2.051931 5.475074
C 251.178977 -1.516602 2.382930
C 252.504246 -1.692077 2.950678
C 253.387824 -1.132416 2.129911
C 252.662599 -0.577137 1.013815
N 251.340139 -0.822615 1.215828
H 254.407176 0.128487 0.071431
H 254.281432 1.166376 -2.526308
H 252.329362 2.143046 -4.141893
H 250.544876 0.526146 -0.681755
H 249.116898 1.244342 -5.602666
H 249.038426 2.722015 -7.583143
H 249.176855 6.335624 -7.361560
H 248.839629 5.009723 -8.350094
H 249.896417 6.108516 -5.061885
H 249.966127 4.614187 -3.094567
H 246.909606 2.704676 -3.596652
H 245.167942 1.728658 -1.999283
H 245.426543 -2.228430 1.753744
H 247.386681 -3.259029 3.305133
H 249.042245 -0.254579 0.863343
H 250.451940 -4.633996 3.340777
H 250.519775 -5.874340 5.478059
H 250.759743 -5.681284 7.879000
H 250.463275 -4.245624 8.712885
H 249.782712 -2.203972 7.608283
H 249.712423 -0.982336 5.459176
H 252.735884 -2.188759 3.875483
H 254.452842 -1.095428 2.268609
C 160.858110 0.045741 0.009398
C 162.080027 0.045741 0.009398
C 171.162072 0.045741 0.009398
C 172.383990 0.045741 0.009398
C 181.466035 0.045741 0.009398
C 182.687952 0.045741 0.009398
C 191.769997 0.045741 0.009398
C 192.991915 0.045741 0.009398
C 202.073959 0.045741 0.009398
C 203.295877 0.045741 0.009398
C 212.377922 0.045741 0.009398
C 213.599839 0.045741 0.009398
C 222.681884 0.045741 0.009398
C 223.903802 0.045741 0.009398
C 232.985847 0.045741 0.009398
C 234.207764 0.045741 0.009398
C 243.289809 0.045741 0.009398
C 244.511727 0.045741 0.009398
C 163.044836 -0.013341 -0.002741
C 163.837481 -0.599499 1.237890
C 163.328988 -1.409933 2.232721
C 164.365602 -1.622446 3.177293
C 165.476621 -0.941570 2.725824
N 165.166774 -0.386420 1.509467
C 166.866347 -0.810405 3.473605
C 166.860488 -0.903058 4.952281
C 167.320056 -2.056937 5.596051
C 167.311379 -2.139019 6.991785
C 166.881765 -1.056370 7.764286
N 166.788256 -1.177339 9.161625
C 166.352279 0.064272 7.117977
C 166.360538 0.150997 5.722269
C 168.001074 -0.573113 2.763590
C 169.288046 -0.383913 3.400956
C 170.195721 -0.164969 2.455791
N 168.209039 -0.445058 1.417927
C 169.533414 -0.203210 1.167504
C 170.197520 -0.013341 -0.002741
C 169.404862 -0.062983 -1.373937
C 169.913168 -0.416131 -2.607617
C 168.876573 -0.238950 -3.559479
C 167.765749 0.209398 -2.876215
N 168.075701 0.240379 -1.539553
C 166.376055 0.624791 -3.511667
C 166.381736 1.122111 -4.907254
C 166.879360 2.395180 -5.199622
C 166.887220 2.865190 -6.516673
C 166.359689 2.088630 -7.552341
N 166.452956 2.527924 -8.884355
C 165.932429 0.788422 -7.268844
C 165.924070 0.314181 -5.953602
C 165.241352 0.563042 -2.765578
C 163.954362 0.987952 -3.276873
C 163.046663 0.816528 -2.321968
C 163.708974 0.273675 -1.153002
N 165.033402 0.150386 -1.478366
H 162.319524 -1.788072 2.287778
H 164.303275 -2.189608 4.094017
H 165.828757 0.071908 0.889932
H 167.680597 -2.889609 4.996084
H 167.652946 -3.055015 7.462198
H 167.480680 -1.817117 9.536113
H 166.802685 -0.274277 9.623734
H 165.934845 0.887701 7.688003
H 165.971364 1.035368 5.222765
H 169.483486 -0.404231 4.458101
H 171.239961 0.012771 2.636840
H 170.922502 -0.742431 -2.807221
H 168.938752 -0.399184 -4.625490
H 167.413804 0.417796 -0.789533
H 167.266954 3.012085 -4.391981
H 167.302814 3.847372 -6.716176
H 165.761846 2.085743 -9.480925
H 166.436320 3.539962 -8.953527
H 165.592430 0.131067 -8.062124
H 165.565283 -0.688136 -5.730191
H 163.758948 1.385834 -4.256511
H 162.002391 1.051019 -2.418404
C 173.348798 -0.013341 -0.002741
C 174.141443 -0.599499 1.237890
C 173.632951 -1.409933 2.232721
C 174.669565 -1.622446 3.177293
C 175.780584 -0.941570 2.725824
N 175.470737 -0.386420 1.509467
C 177.170309 -0.810405 3.473605
C 177.164451 -0.903058 4.952281
C 177.624018 -2.056937 5.596051
C 177.615341 -2.139019 6.991785
C 177.185728 -1.056370 7.764286
N 177.092219 -1.177339 9.161625
C 176.656241 0.064272 7.117977
C 176.664500 0.150997 5.722269
C 178.305036 -0.573113 2.763590
C 179.592008 -0.383913 3.400956
C 180.499684 -0.164969 2.455791
N 178.513002 -0.445058 1.417927
C 179.837377 -0.203210 1.167504
C 180.501483 -0.013341 -0.002741
C 179.708825 -0.062983 -1.373937
C 180.217130 -0.416131 -2.607617
C 179.180535 -0.238950 -3.559479
C 178.069712 0.209398 -2.876215
N 178.379663 0.240379 -1.539553
C 176.680018 0.624791 -3.511667
C 176.685699 1.122111 -4.907254
C 177.183323 2.395180 -5.199622
C 177.191182 2.865190 -6.516673
C 176.663651 2.088630 -7.552341
N 176.756919 2.527924 -8.884355
C 176.236391 0.788422 -7.268844
C 176.228032 0.314181 -5.953602
C 175.545315 0.563042 -2.765578
C 174.258324 0.987952 -3.276873
C 173.350626 0.816528 -2.321968
C 174.012936 0.273675 -1.153002
N 175.337365 0.150386 -1.478366
H 172.623486 -1.788072 2.287778
H 174.607237 -2.189608 4.094017
H 176.132719 0.071908 0.889932
H 177.984559 -2.889609 4.996084
H 177.956908 -3.055015 7.462198
H 177.784643 -1.817117 9.536113
H 177.106647 -0.274277 9.623734
H 176.238807 0.887701 7.688003
H 176.275326 1.035368 5.222765
H 179.787448 -0.404231 4.458101
H 181.543923 0.012771 2.636840
H 181.226464 -0.742431 -2.807221
H 179.242715 -0.399184 -4.625490
H 177.717766 0.417796 -0.789533
H 177.570917 3.012085 -4.391981
H 177.606776 3.847372 -6.716176
H 176.065808 2.085743 -9.480925
H 176.740282 3.539962 -8.953527
H 175.896393 0.131067 -8.062124
H 175.869246 -0.688136 -5.730191
H 174.062910 1.385834 -4.256511
H 172.306353 1.051019 -2.418404
C 183.652761 -0.013341 -0.002741
C 184.445406 -0.599499 1.237890
C 183.936913 -1.409933 2.232721
C 184.973527 -1.622446 3.177293
C 186.084546 -0.941570 2.725824
N 185.774699 -0.386420 1.509467
C 187.474272 -0.810405 3.473605
C 187.468413 -0.903058 4.952281
C 187.927980 -2.056937 5.596051
C 187.919304 -2.139019 6.991785
C 187.489690 -1.056370 7.764286
N 187.396181 -1.177339 9.161625
C 186.960204 0.064272 7.117977
C 186.968462 0.150997 5.722269
C 188.608999 -0.573113 2.763590
C 189.895971 -0.383913 3.400956
C 190.803646 -0.164969 2.455791
N 188.816964 -0.445058 1.417927
C 190.141339 -0.203210 1.167504
C 190.805445 -0.013341 -0.002741
C 190.012787 -0.062983 -1.373937
C 190.521093 -0.416131 -2.607617
C 189.484498 -0.238950 -3.559479
C 188.373674 0.209398 -2.876215
N 188.683625 0.240379 -1.539553
C 186.983980 0.624791 -3.511667
C 186.989661 1.122111 -4.907254
C 187.487285 2.395180 -5.199622
C 187.495145 2.865190 -6.516673
C 186.967614 2.088630 -7.552341
N 187.060881 2.527924 -8.884355
C 186.540353 0.788422 -7.268844
C 186.531994 0.314181 -5.953602
C 185.849277 0.563042 -2.765578
C 184.562287 0.987952 -3.276873
C 183.654588 0.816528 -2.321968
C 184.316899 0.273675 -1.153002
N 185.641327 0.150386 -1.478366
H 182.927449 -1.788072 2.287778
H 184.911200 -2.189608 4.094017
H 186.436681 0.071908 0.889932
H 188.288521 -2.889609 4.996084
H 188.260870 -3.055015 7.462198
H 188.088605 -1.817117 9.536113
H 187.410610 -0.274277 9.623734
H 186.542770 0.887701 7.688003
H 186.579289 1.035368 5.222765
H 190.091410 -0.404231 4.458101
H 191.847886 0.012771 2.636840
H 191.530427 -0.742431 -2.807221
H 189.546677 -0.399184 -4.625490
H 188.021728 0.417796 -0.789533
H 187.874879 3.012085 -4.391981
H 187.910738 3.847372 -6.716176
H 186.369771 2.085743 -9.480925
H 187.044245 3.539962 -8.953527
H 186.200355 0.131067 -8.062124
H 186.173208 -0.688136 -5.730191
H 184.366873 1.385834 -4.256511
H 182.610316 1.051019 -2.418404
C 193.956723 -0.013341 -0.002741
C 194.749368 -0.599499 1.237890
C 194.240875 -1.409933 2.232721
C 195.277489 -1.622446 3.177293
C 196.388509 -0.941570 2.725824
N 196.078661 -0.386420 1.509467
C 197.778234 -0.810405 3.473605
C 197.772375 -0.903058 4.952281
C 198.231943 -2.056937 5.596051
C 198.223266 -2.139019 6.991785
C 197.793653 -1.056370 7.764286
N 197.700143 -1.177339 9.161625
C 197.264166 0.064272 7.117977
C 197.272425 0.150997 5.722269
C 198.912961 -0.573113 2.763590
C 200.199933 -0.383913 3.400956
C 201.107609 -0.164969 2.455791
N 199.120926 -0.445058 1.417927
C 200.445301 -0.203210 1.167504
C 201.109407 -0.013341 -0.002741
C 200.316749 -0.062983 -1.373937
C 200.825055 -0.416131 -2.607617
C 199.788460 -0.238950 -3.559479
C 198.677636 0.209398 -2.876215
N 198.987588 0.240379 -1.539553
C 197.287942 0.624791 -3.511667
C 197.293624 1.122111 -4.907254
C 197.791247 2.395180 -5.199622
C 197.799107 2.865190 -6.516673
C 197.271576 2.088630 -7.552341
N 197.364843 2.527924 -8.884355
C 196.844316 0.788422 -7.268844
C 196.835957 0.314181 -5.953602
C 196.153240 0.563042 -2.765578
C 194.866249 0.987952 -3.276873
C 193.958550 0.816528 -2.321968
C 194.620861 0.273675 -1.153002
N 195.945289 0.150386 -1.478366
H 193.231411 -1.788072 2.287778
H 195.215162 -2.189608 4.094017
H 196.740644 0.071908 0.889932
H 198.592484 -2.889609 4.996084
H 198.564833 -3.055015 7.462198
H 198.392568 -1.817117 9.536113
H 197.714572 -0.274277 9.623734
H 196.846732 0.887701 7.688003
H 196.883251 1.035368 5.222765
H 200.395373 -0.404231 4.458101
H 202.151848 0.012771 2.636840
H 201.834389 -0.742431 -2.807221
H 199.850640 -0.399184 -4.625490
H 198.325691 0.417796 -0.789533
H 198.178842 3.012085 -4.391981
H 198.214701 3.847372 -6.716176
H 196.673733 2.085743 -9.480925
H 197.348207 3.539962 -8.953527
H 196.504318 0.131067 -8.062124
H 196.477171 -0.688136 -5.730191
H 194.670835 1.385834 -4.256511
H 192.914278 1.051019 -2.418404
C 204.260685 -0.013341 -0.002741
C 205.053330 -0.599499 1.237890
C 204.544838 -1.409933 2.232721
C 205.581452 -1.622446 3.177293
C 206.692471 -0.941570 2.725824
N 206.382624 -0.386420 1.509467
C 208.082196 -0.810405 3.473605
C 208.076338 -0.903058 4.952281
C 208.535905 -2.056937 5.596051
C 208.527229 -2.139019 6.991785
C 208.097615 -1.056370 7.764286
N 208.004106 -1.177339 9.161625
C 207.568128 0.064272 7.117977
C 207.576387 0.150997 5.722269
C 209.216924 -0.573113 2.763590
C 210.503895 -0.383913 3.400956
C 211.411571 -0.164969 2.455791
N 209.424889 -0.445058 1.417927
C 210.749264 -0.203210 1.167504
C 211.413370 -0.013341 -0.002741
C 210.620712 -0.062983 -1.373937
C 211.129017 -0.416131 -2.607617
C 210.092423 -0.238950 -3.559479
C 208.981599 0.209398 -2.876215
N 209.291550 0.240379 -1.539553
C 207.591905 0.624791 -3.511667
C 207.597586 1.122111 -4.907254
C 208.095210 2.395180 -5.199622
C 208.103070 2.865190 -6.516673
C 207.575539 2.088630 -7.552341
N 207.668806 2.527924 -8.884355
C 207.148278 0.788422 -7.268844
C 207.139919 0.314181 -5.953602
C 206.457202 0.563042 -2.765578
C 205.170211 0.987952 -3.276873
C 204.262513 0.816528 -2.321968
C 204.924824 0.273675 -1.153002
N 206.249252 0.150386 -1.478366
H 203.535373 -1.788072 2.287778
H 205.519125 -2.189608 4.094017
H 207.044606 0.071908 0.889932
H 208.896446 -2.889609 4.996084
H 208.868795 -3.055015 7.462198
H 208.696530 -1.817117 9.536113
H 208.018534 -0.274277 9.623734
H 207.150694 0.887701 7.688003
H 207.187213 1.035368 5.222765
H 210.699335 -0.404231 4.458101
H 212.455810 0.012771 2.636840
H 212.138351 -0.742431 -2.807221
H 210.154602 -0.399184 -4.625490
H 208.629653 0.417796 -0.789533
H 208.482804 3.012085 -4.391981
H 208.518663 3.847372 -6.716176
H 206.977695 2.085743 -9.480925
H 207.652170 3.539962 -8.953527
H 206.808280 0.131067 -8.062124
H 206.781133 -0.688136 -5.730191
H 204.974798 1.385834 -4.256511
H 203.218241 1.051019 -2.418404
C 214.564648 -0.013341 -0.002741
C 215.357293 -0.599499 1.237890
C 214.848800 -1.409933 2.232721
C 215.885414 -1.622446 3.177293
C 216.996433 -0.941570 2.725824
N 216.686586 -0.386420 1.509467
C 218.386159 -0.810405 3.473605
C 218.380300 -0.903058 4.952281
C 218.839868 -2.056937 5.596051
C 218.831191 -2.139019 6.991785
C 218.401577 -1.056370 7.764286
N 218.308068 -1.177339 9.161625
C 217.872091 0.064272 7.117977
C 217.880350 0.150997 5.722269
C 219.520886 -0.573113 2.763590
C 220.807858 -0.383913 3.400956
C 221.715533 -0.164969 2.455791
N 219.728851 -0.445058 1.417927
C 221.053226 -0.203210 1.167504
C 221.717332 -0.013341 -0.002741
C 220.924674 -0.062983 -1.373937
C 221.432980 -0.416131 -2.607617
C 220.396385 -0.238950 -3.559479
C 219.285561 0.209398 -2.876215
N 219.595513 0.240379 -1.539553
C 217.895867 0.624791 -3.511667
C 217.901548 1.122111 -4.907254
C 218.399172 2.395180 -5.199622
C 218.407032 2.865190 -6.516673
C 217.879501 2.088630 -7.552341
N 217.972768 2.527924 -8.884355
C 217.452241 0.788422 -7.268844
C 217.443882 0.314181 -5.953602
C 216.761164 0.563042 -2.765578
C 215.474174 0.987952 -3.276873
C 214.566475 0.816528 -2.321968
C 215.228786 0.273675 -1.153002
N 216.553214 0.150386 -1.478366
H 213.839336 -1.788072 2.287778
H 215.823087 -2.189608 4.094017
H 217.348569 0.071908 0.889932
H 219.200409 -2.889609 4.996084
H 219.172758 -3.055015 7.462198
H 219.000492 -1.817117 9.536113
H 218.322497 -0.274277 9.623734
H 217.454657 0.887701 7.688003
H 217.491176 1.035368 5.222765
H 221.003298 -0.404231 4.458101
H 222.759773 0.012771 2.636840
H 222.442314 -0.742431 -2.807221
H 220.458564 -0.399184 -4.625490
H 218.933616 0.417796 -0.789533
H 218.786766 3.012085 -4.391981
H 218.822626 3.847372 -6.716176
H 217.281658 2.085743 -9.480925
H 217.956132 3.539962 -8.953527
H 217.112242 0.131067 -8.062124
H 217.085095 -0.688136 -5.730191
H 215.278760 1.385834 -4.256511
H 213.522203 1.051019 -2.418404
C 224.868610 -0.013341 -0.002741
C 225.661255 -0.599499 1.237890
C 225.152763 -1.409933 2.232721
C 226.189377 -1.622446 3.177293
C 227.300396 -0.941570 2.725824
N 226.990549 -0.386420 1.509467
C 228.690121 -0.810405 3.473605
C 228.684263 -0.903058 4.952281
C 229.143830 -2.056937 5.596051
C 229.135153 -2.139019 6.991785
C 228.705540 -1.056370 7.764286
N 228.612031 -1.177339 9.161625
C 228.176053 0.064272 7.117977
C 228.184312 0.150997 5.722269
C 229.824848 -0.573113 2.763590
C 231.111820 -0.383913 3.400956
C 232.019496 -0.164969 2.455791
N 230.032814 -0.445058 1.417927
C 231.357189 -0.203210 1.167504
C 232.021295 -0.013341 -0.002741
C 231.228637 -0.062983 -1.373937
C 231.736942 -0.416131 -2.607617
C 230.700347 -0.238950 -3.559479
C 229.589524 0.209398 -2.876215
N 229.899475 0.240379 -1.539553
C 228.199830 0.624791 -3.511667
C 228.205511 1.122111 -4.907254
C 228.703135 2.395180 -5.199622
C 228.710994 2.865190 -6.516673
C 228.183463 2.088630 -7.552341
N 228.276731 2.527924 -8.884355
C 227.756203 0.788422 -7.268844
C 227.747844 0.314181 -5.953602
C 227.065127 0.563042 -2.765578
C 225.778136 0.987952 -3.276873
C 224.870437 0.816528 -2.321968
C 225.532748 0.273675 -1.153002
N 226.857177 0.150386 -1.478366
H 224.143298 -1.788072 2.287778
H 226.127049 -2.189608 4.094017
H 227.652531 0.071908 0.889932
H 229.504371 -2.889609 4.996084
H 229.476720 -3.055015 7.462198
H 229.304455 -1.817117 9.536113
H 228.626459 -0.274277 9.623734
H 227.758619 0.887701 7.688003
H 227.795138 1.035368 5.222765
H 231.307260 -0.404231 4.458101
H 233.063735 0.012771 2.636840
H 232.746276 -0.742431 -2.807221
H 230.762527 -0.399184 -4.625490
H 229.237578 0.417796 -0.789533
H 229.090729 3.012085 -4.391981
H 229.126588 3.847372 -6.716176
H 227.585620 2.085743 -9.480925
H 228.260094 3.539962 -8.953527
H 227.416205 0.131067 -8.062124
H 227.389058 -0.688136 -5.730191
H 225.582722 1.385834 -4.256511
H 223.826165 1.051019 -2.418404
C 235.172573 -0.013341 -0.002741
C 235.965218 -0.599499 1.237890
C 235.456725 -1.409933 2.232721
C 236.493339 -1.622446 3.177293
C 237.604358 -0.941570 2.725824
N 237.294511 -0.386420 1.509467
C 238.994084 -0.810405 3.473605
C 238.988225 -0.903058 4.952281
C 239.447792 -2.056937 5.596051
C 239.439116 -2.139019 6.991785
C 239.009502 -1.056370 7.764286
N 238.915993 -1.177339 9.161625
C 238.480016 0.064272 7.117977
C 238.488274 0.150997 5.722269
C 240.128811 -0.573113 2.763590
C 241.415783 -0.383913 3.400956
C 242.323458 -0.164969 2.455791
N 240.336776 -0.445058 1.417927
C 241.661151 -0.203210 1.167504
C 242.325257 -0.013341 -0.002741
C 241.532599 -0.062983 -1.373937
C 242.040905 -0.416131 -2.607617
C 241.004310 -0.238950 -3.559479
C 239.893486 0.209398 -2.876215
N 240.203437 0.240379 -1.539553
C 238.503792 0.624791 -3.511667
C 238.509473 1.122111 -4.907254
C 239.007097 2.395180 -5.199622
C 239.014957 2.865190 -6.516673
C 238.487426 2.088630 -7.552341
N 238.580693 2.527924 -8.884355
C 238.060165 0.788422 -7.268844
C 238.051806 0.314181 -5.953602
C 237.369089 0.563042 -2.765578
C 236.082099 0.987952 -3.276873
C 235.174400 0.816528 -2.321968
C 235.836711 0.273675 -1.153002
N 237.161139 0.150386 -1.478366
H 234.447261 -1.788072 2.287778
H 236.431012 -2.189608 4.094017
H 237.956493 0.071908 0.889932
H 239.808333 -2.889609 4.996084
H 239.780682 -3.055015 7.462198
H 239.608417 -1.817117 9.536113
H 238.930422 -0.274277 9.623734
H 238.062582 0.887701 7.688003
H 238.099101 1.035368 5.222765
H 241.611222 -0.404231 4.458101
H 243.367698 0.012771 2.636840
H 243.050239 -0.742431 -2.807221
H 241.066489 -0.399184 -4.625490
H 239.541540 0.417796 -0.789533
H 239.394691 3.012085 -4.391981
H 239.430550 3.847372 -6.716176
H 237.889583 2.085743 -9.480925
H 238.564057 3.539962 -8.953527
H 237.720167 0.131067 -8.062124
H 237.693020 -0.688136 -5.730191
H 235.886685 1.385834 -4.256511
H 234.130128 1.051019 -2.418404
