 xtb: 6.5.1 (b24c23e)
          07292223493D

120139  0     0  0            999 V2000
   16.1865    0.0578    0.0229 Co  0  0  0  0  0  0  0  0  0  0  0  0
   12.8014    0.1490   -0.0008 C   0  0  0  0  0  0  0  0  0  0  0  0
   13.4663    0.8244    0.9997 C   0  0  0  0  0  0  0  0  0  0  0  0
   12.8099    1.5481    2.0456 C   0  0  0  0  0  0  0  0  0  0  0  0
   13.7786    2.2004    2.7316 C   0  0  0  0  0  0  0  0  0  0  0  0
   15.0196    1.8751    2.0978 C   0  0  0  0  0  0  0  0  0  0  0  0
   14.8275    0.9992    1.0671 N   0  0  0  0  0  0  0  0  0  0  0  0
   16.2312    2.4901    2.4142 C   0  0  0  0  0  0  0  0  0  0  0  0
   16.2526    3.4880    3.4119 C   0  0  0  0  0  0  0  0  0  0  0  0
   16.2773    4.3458    4.2698 C   0  0  0  0  0  0  0  0  0  0  0  0
   16.3052    5.3449    5.2698 C   0  0  0  0  0  0  0  0  0  0  0  0
   17.4968    5.9931    5.6150 C   0  0  0  0  0  0  0  0  0  0  0  0
   17.4704    6.9632    6.6011 C   0  0  0  0  0  0  0  0  0  0  0  0
   16.3607    7.3160    7.2448 N   0  0  0  0  0  0  0  0  0  0  0  0
   15.2237    6.7048    6.9221 C   0  0  0  0  0  0  0  0  0  0  0  0
   15.1424    5.7222    5.9515 C   0  0  0  0  0  0  0  0  0  0  0  0
   17.4203    2.1571    1.7692 C   0  0  0  0  0  0  0  0  0  0  0  0
   18.6708    2.7910    2.0453 C   0  0  0  0  0  0  0  0  0  0  0  0
   19.6140    2.1046    1.3551 C   0  0  0  0  0  0  0  0  0  0  0  0
   17.5830    1.1213    0.8851 N   0  0  0  0  0  0  0  0  0  0  0  0
   18.9320    1.0556    0.6657 C   0  0  0  0  0  0  0  0  0  0  0  0
   19.5917    0.0331   -0.0204 C   0  0  0  0  0  0  0  0  0  0  0  0
   18.8988   -0.9817   -0.6851 C   0  0  0  0  0  0  0  0  0  0  0  0
   19.5448   -2.0560   -1.3699 C   0  0  0  0  0  0  0  0  0  0  0  0
   18.5731   -2.7378   -2.0245 C   0  0  0  0  0  0  0  0  0  0  0  0
   17.3418   -2.0726   -1.7354 C   0  0  0  0  0  0  0  0  0  0  0  0
   17.5449   -1.0211   -0.8787 N   0  0  0  0  0  0  0  0  0  0  0  0
   16.1349   -2.3849   -2.3574 C   0  0  0  0  0  0  0  0  0  0  0  0
   16.1125   -3.4040   -3.3336 C   0  0  0  0  0  0  0  0  0  0  0  0
   16.0959   -4.2777   -4.1754 C   0  0  0  0  0  0  0  0  0  0  0  0
   16.0806   -5.2956   -5.1566 C   0  0  0  0  0  0  0  0  0  0  0  0
   17.2517   -5.9737   -5.5148 C   0  0  0  0  0  0  0  0  0  0  0  0
   17.1854   -6.9606   -6.4820 C   0  0  0  0  0  0  0  0  0  0  0  0
   16.0554   -7.3029   -7.0955 N   0  0  0  0  0  0  0  0  0  0  0  0
   14.9378   -6.6633   -6.7603 C   0  0  0  0  0  0  0  0  0  0  0  0
   14.8964   -5.6617   -5.8068 C   0  0  0  0  0  0  0  0  0  0  0  0
   14.9487   -1.7178   -2.0501 C   0  0  0  0  0  0  0  0  0  0  0  0
   13.6972   -1.9972   -2.6852 C   0  0  0  0  0  0  0  0  0  0  0  0
   12.7580   -1.2785   -2.0253 C   0  0  0  0  0  0  0  0  0  0  0  0
   13.4418   -0.5667   -0.9886 C   0  0  0  0  0  0  0  0  0  0  0  0
   14.7940   -0.8070   -1.0438 N   0  0  0  0  0  0  0  0  0  0  0  0
   11.7180    0.1768   -0.0069 H   0  0  0  0  0  0  0  0  0  0  0  0
   11.7441    1.5518    2.2096 H   0  0  0  0  0  0  0  0  0  0  0  0
   13.6805    2.8579    3.5806 H   0  0  0  0  0  0  0  0  0  0  0  0
   18.4234    5.7366    5.1159 H   0  0  0  0  0  0  0  0  0  0  0  0
   18.3802    7.4818    6.8892 H   0  0  0  0  0  0  0  0  0  0  0  0
   14.3373    7.0171    7.4667 H   0  0  0  0  0  0  0  0  0  0  0  0
   14.1953    5.2499    5.7201 H   0  0  0  0  0  0  0  0  0  0  0  0
   18.7951    3.6422    2.6952 H   0  0  0  0  0  0  0  0  0  0  0  0
   20.6785    2.2708    1.3175 H   0  0  0  0  0  0  0  0  0  0  0  0
   20.6065   -2.2425   -1.3519 H   0  0  0  0  0  0  0  0  0  0  0  0
   18.6660   -3.6042   -2.6594 H   0  0  0  0  0  0  0  0  0  0  0  0
   18.1936   -5.7262   -5.0403 H   0  0  0  0  0  0  0  0  0  0  0  0
   18.0786   -7.5023   -6.7798 H   0  0  0  0  0  0  0  0  0  0  0  0
   14.0340   -6.9677   -7.2803 H   0  0  0  0  0  0  0  0  0  0  0  0
   13.9638   -5.1665   -5.5646 H   0  0  0  0  0  0  0  0  0  0  0  0
   13.5725   -2.6692   -3.5191 H   0  0  0  0  0  0  0  0  0  0  0  0
   11.6946   -1.2324   -2.1983 H   0  0  0  0  0  0  0  0  0  0  0  0
   29.5954   -0.0492   -0.0353 Co  0  0  0  0  0  0  0  0  0  0  0  0
   32.9800   -0.0753   -0.1281 C   0  0  0  0  0  0  0  0  0  0  0  0
   32.3148   -1.2808   -0.1893 C   0  0  0  0  0  0  0  0  0  0  0  0
   32.9702   -2.5508   -0.2672 C   0  0  0  0  0  0  0  0  0  0  0  0
   32.0013   -3.4741   -0.4753 C   0  0  0  0  0  0  0  0  0  0  0  0
   30.7612   -2.7622   -0.5281 C   0  0  0  0  0  0  0  0  0  0  0  0
   30.9539   -1.4277   -0.3083 N   0  0  0  0  0  0  0  0  0  0  0  0
   29.5505   -3.3482   -0.8990 C   0  0  0  0  0  0  0  0  0  0  0  0
   29.5292   -4.7166   -1.2433 C   0  0  0  0  0  0  0  0  0  0  0  0
   29.5046   -5.8934   -1.5383 C   0  0  0  0  0  0  0  0  0  0  0  0
   29.4770   -7.2646   -1.8815 C   0  0  0  0  0  0  0  0  0  0  0  0
   28.2858   -7.8936   -2.2621 C   0  0  0  0  0  0  0  0  0  0  0  0
   28.3124   -9.2382   -2.5869 C   0  0  0  0  0  0  0  0  0  0  0  0
   29.4218   -9.9720   -2.5566 N   0  0  0  0  0  0  0  0  0  0  0  0
   30.5584   -9.3813   -2.1962 C   0  0  0  0  0  0  0  0  0  0  0  0
   30.6395   -8.0437   -1.8524 C   0  0  0  0  0  0  0  0  0  0  0  0
   28.3624   -2.6224   -0.9490 C   0  0  0  0  0  0  0  0  0  0  0  0
   27.1125   -3.1829   -1.3559 C   0  0  0  0  0  0  0  0  0  0  0  0
   26.1692   -2.2386   -1.1202 C   0  0  0  0  0  0  0  0  0  0  0  0
   28.1994   -1.3329   -0.5116 N   0  0  0  0  0  0  0  0  0  0  0  0
   26.8505   -1.1103   -0.5690 C   0  0  0  0  0  0  0  0  0  0  0  0
   26.1909    0.0011   -0.0387 C   0  0  0  0  0  0  0  0  0  0  0  0
   26.8843    1.0900    0.4957 C   0  0  0  0  0  0  0  0  0  0  0  0
   26.2392    2.2266    1.0722 C   0  0  0  0  0  0  0  0  0  0  0  0
   27.2110    3.1387    1.3205 C   0  0  0  0  0  0  0  0  0  0  0  0
   28.4413    2.5517    0.8918 C   0  0  0  0  0  0  0  0  0  0  0  0
   28.2377    1.2778    0.4265 N   0  0  0  0  0  0  0  0  0  0  0  0
   29.6472    3.2473    0.8357 C   0  0  0  0  0  0  0  0  0  0  0  0
   29.6693    4.6081    1.2093 C   0  0  0  0  0  0  0  0  0  0  0  0
   29.6854    5.7791    1.5270 C   0  0  0  0  0  0  0  0  0  0  0  0
   29.6999    7.1435    1.8972 C   0  0  0  0  0  0  0  0  0  0  0  0
   28.5288    7.7980    2.2968 C   0  0  0  0  0  0  0  0  0  0  0  0
   28.5945    9.1347    2.6476 C   0  0  0  0  0  0  0  0  0  0  0  0
   29.7240    9.8376    2.6254 N   0  0  0  0  0  0  0  0  0  0  0  0
   30.8416    9.2226    2.2471 C   0  0  0  0  0  0  0  0  0  0  0  0
   30.8836    7.8903    1.8766 C   0  0  0  0  0  0  0  0  0  0  0  0
   30.8325    2.6423    0.4166 C   0  0  0  0  0  0  0  0  0  0  0  0
   32.0834    3.3313    0.3259 C   0  0  0  0  0  0  0  0  0  0  0  0
   33.0226    2.3959    0.0481 C   0  0  0  0  0  0  0  0  0  0  0  0
   32.3395    1.1402   -0.0260 C   0  0  0  0  0  0  0  0  0  0  0  0
   30.9874    1.3109    0.1531 N   0  0  0  0  0  0  0  0  0  0  0  0
   34.0634   -0.0846   -0.1546 H   0  0  0  0  0  0  0  0  0  0  0  0
   34.0356   -2.6943   -0.1821 H   0  0  0  0  0  0  0  0  0  0  0  0
   32.0989   -4.5407   -0.6001 H   0  0  0  0  0  0  0  0  0  0  0  0
   27.3594   -7.3334   -2.3003 H   0  0  0  0  0  0  0  0  0  0  0  0
   27.4029   -9.7518   -2.8852 H   0  0  0  0  0  0  0  0  0  0  0  0
   31.4445  -10.0092   -2.1825 H   0  0  0  0  0  0  0  0  0  0  0  0
   31.5861   -7.6026   -1.5646 H   0  0  0  0  0  0  0  0  0  0  0  0
   26.9886   -4.1764   -1.7558 H   0  0  0  0  0  0  0  0  0  0  0  0
   25.1050   -2.2906   -1.2844 H   0  0  0  0  0  0  0  0  0  0  0  0
   25.1781    2.3053    1.2456 H   0  0  0  0  0  0  0  0  0  0  0  0
   27.1186    4.1268    1.7416 H   0  0  0  0  0  0  0  0  0  0  0  0
   27.5873    7.2630    2.3290 H   0  0  0  0  0  0  0  0  0  0  0  0
   27.7013    9.6675    2.9607 H   0  0  0  0  0  0  0  0  0  0  0  0
   31.7450    9.8258    2.2406 H   0  0  0  0  0  0  0  0  0  0  0  0
   31.8161    7.4290    1.5748 H   0  0  0  0  0  0  0  0  0  0  0  0
   32.2078    4.3924    0.4721 H   0  0  0  0  0  0  0  0  0  0  0  0
   34.0857    2.5212   -0.0825 H   0  0  0  0  0  0  0  0  0  0  0  0
   22.2171    0.0254   -0.0363 C   0  0  0  0  0  0  0  0  0  0  0  0
   20.9946    0.0217   -0.0337 C   0  0  0  0  0  0  0  0  0  0  0  0
   23.5655    0.0188   -0.0400 C   0  0  0  0  0  0  0  0  0  0  0  0
   24.7881    0.0181   -0.0354 C   0  0  0  0  0  0  0  0  0  0  0  0
  2  3  4  0  0  0  0
  3  4  4  0  0  0  0
  4  5  2  0  0  0  0
  5  6  4  0  0  0  0
  1  7  1  0  0  0  0
  3  7  4  0  0  0  0
  6  7  4  0  0  0  0
  6  8  4  0  0  0  0
  8  9  1  0  0  0  0
  9 10  3  0  0  0  0
 10 11  1  0  0  0  0
 11 12  4  0  0  0  0
 12 13  4  0  0  0  0
 13 14  4  0  0  0  0
 14 15  4  0  0  0  0
 11 16  4  0  0  0  0
 15 16  4  0  0  0  0
  8 17  4  0  0  0  0
 17 18  4  0  0  0  0
 18 19  2  0  0  0  0
  1 20  1  0  0  0  0
 17 20  4  0  0  0  0
 19 21  4  0  0  0  0
 20 21  4  0  0  0  0
 21 22  4  0  0  0  0
 22 23  4  0  0  0  0
 23 24  4  0  0  0  0
 24 25  2  0  0  0  0
 25 26  4  0  0  0  0
  1 27  1  0  0  0  0
 23 27  4  0  0  0  0
 26 27  4  0  0  0  0
 26 28  4  0  0  0  0
 28 29  1  0  0  0  0
 29 30  3  0  0  0  0
 30 31  1  0  0  0  0
 31 32  4  0  0  0  0
 32 33  4  0  0  0  0
 33 34  4  0  0  0  0
 34 35  4  0  0  0  0
 31 36  4  0  0  0  0
 35 36  4  0  0  0  0
 28 37  4  0  0  0  0
 37 38  4  0  0  0  0
 38 39  2  0  0  0  0
  2 40  4  0  0  0  0
 39 40  1  0  0  0  0
  1 41  1  0  0  0  0
 37 41  4  0  0  0  0
 40 41  4  0  0  0  0
  2 42  1  0  0  0  0
  4 43  1  0  0  0  0
  5 44  1  0  0  0  0
 12 45  1  0  0  0  0
 13 46  1  0  0  0  0
 15 47  1  0  0  0  0
 16 48  1  0  0  0  0
 18 49  1  0  0  0  0
 19 50  1  0  0  0  0
 24 51  1  0  0  0  0
 25 52  1  0  0  0  0
 32 53  1  0  0  0  0
 33 54  1  0  0  0  0
 35 55  1  0  0  0  0
 36 56  1  0  0  0  0
 38 57  1  0  0  0  0
 39 58  1  0  0  0  0
 60 61  4  0  0  0  0
 61 62  4  0  0  0  0
 62 63  2  0  0  0  0
 63 64  4  0  0  0  0
 59 65  1  0  0  0  0
 61 65  4  0  0  0  0
 64 65  4  0  0  0  0
 64 66  4  0  0  0  0
 66 67  1  0  0  0  0
 67 68  3  0  0  0  0
 68 69  1  0  0  0  0
 69 70  4  0  0  0  0
 70 71  4  0  0  0  0
 71 72  4  0  0  0  0
 72 73  4  0  0  0  0
 69 74  4  0  0  0  0
 73 74  4  0  0  0  0
 66 75  4  0  0  0  0
 75 76  4  0  0  0  0
 76 77  2  0  0  0  0
 59 78  1  0  0  0  0
 75 78  4  0  0  0  0
 77 79  4  0  0  0  0
 78 79  4  0  0  0  0
 79 80  4  0  0  0  0
 80 81  4  0  0  0  0
 81 82  4  0  0  0  0
 82 83  2  0  0  0  0
 83 84  4  0  0  0  0
 59 85  1  0  0  0  0
 81 85  4  0  0  0  0
 84 85  4  0  0  0  0
 84 86  4  0  0  0  0
 86 87  1  0  0  0  0
 87 88  3  0  0  0  0
 88 89  1  0  0  0  0
 89 90  4  0  0  0  0
 90 91  4  0  0  0  0
 91 92  4  0  0  0  0
 92 93  4  0  0  0  0
 89 94  4  0  0  0  0
 93 94  4  0  0  0  0
 86 95  4  0  0  0  0
 95 96  4  0  0  0  0
 96 97  2  0  0  0  0
 60 98  4  0  0  0  0
 97 98  1  0  0  0  0
 59 99  1  0  0  0  0
 95 99  4  0  0  0  0
 98 99  4  0  0  0  0
 60100  1  0  0  0  0
 62101  1  0  0  0  0
 63102  1  0  0  0  0
 70103  1  0  0  0  0
 71104  1  0  0  0  0
 73105  1  0  0  0  0
 74106  1  0  0  0  0
 76107  1  0  0  0  0
 77108  1  0  0  0  0
 82109  1  0  0  0  0
 83110  1  0  0  0  0
 90111  1  0  0  0  0
 91112  1  0  0  0  0
 93113  1  0  0  0  0
 94114  1  0  0  0  0
 96115  1  0  0  0  0
 97116  1  0  0  0  0
 22118  4  0  0  0  0
117118  3  0  0  0  0
117119  4  0  0  0  0
 80120  4  0  0  0  0
119120  3  0  0  0  0
M  END
