 xtb: 6.5.1 (b24c23e)
          07302209583D

122145  0     0  0            999 V2000
   17.1970   -0.0643   -0.0177 Zn  0  0  0  0  0  0  0  0  0  0  0  0
   13.7883   -0.0733   -0.1574 C   0  0  0  0  0  0  0  0  0  0  0  0
   14.4190   -1.2995   -0.3264 C   0  0  0  0  0  0  0  0  0  0  0  0
   13.7455   -2.5547   -0.5108 C   0  0  0  0  0  0  0  0  0  0  0  0
   14.7046   -3.5028   -0.6507 C   0  0  0  0  0  0  0  0  0  0  0  0
   15.9773   -2.8345   -0.5693 C   0  0  0  0  0  0  0  0  0  0  0  0
   15.7688   -1.5041   -0.3561 N   0  0  0  0  0  0  0  0  0  0  0  0
   17.2312   -3.4482   -0.6818 C   0  0  0  0  0  0  0  0  0  0  0  0
   17.2467   -4.9045   -0.9530 C   0  0  0  0  0  0  0  0  0  0  0  0
   17.8572   -5.7825   -0.0513 C   0  0  0  0  0  0  0  0  0  0  0  0
   17.8613   -7.1448   -0.2876 C   0  0  0  0  0  0  0  0  0  0  0  0
   17.2542   -7.6358   -1.4402 C   0  0  0  0  0  0  0  0  0  0  0  0
   17.2512   -9.0655   -1.6913 N   0  0  0  0  0  0  0  0  0  0  0  0
   16.7072   -9.4548   -2.6931 O   0  0  0  0  0  0  0  0  0  0  0  0
   17.7911   -9.7753   -0.8817 O   0  0  0  0  0  0  0  0  0  0  0  0
   16.6477   -6.7792   -2.3547 C   0  0  0  0  0  0  0  0  0  0  0  0
   16.6450   -5.4190   -2.1061 C   0  0  0  0  0  0  0  0  0  0  0  0
   18.4709   -2.8072   -0.5616 C   0  0  0  0  0  0  0  0  0  0  0  0
   19.7467   -3.4298   -0.7802 C   0  0  0  0  0  0  0  0  0  0  0  0
   20.6931   -2.4789   -0.5760 C   0  0  0  0  0  0  0  0  0  0  0  0
   18.6669   -1.4900   -0.2469 N   0  0  0  0  0  0  0  0  0  0  0  0
   20.0105   -1.2675   -0.2312 C   0  0  0  0  0  0  0  0  0  0  0  0
   20.6438   -0.0512    0.0978 C   0  0  0  0  0  0  0  0  0  0  0  0
   19.9776    1.1556    0.3966 C   0  0  0  0  0  0  0  0  0  0  0  0
   20.6253    2.3685    0.7981 C   0  0  0  0  0  0  0  0  0  0  0  0
   19.6597    3.3106    0.9447 C   0  0  0  0  0  0  0  0  0  0  0  0
   18.4072    2.6814    0.6313 C   0  0  0  0  0  0  0  0  0  0  0  0
   18.6344    1.3674    0.3230 N   0  0  0  0  0  0  0  0  0  0  0  0
   17.1585    3.3153    0.6600 C   0  0  0  0  0  0  0  0  0  0  0  0
   17.1473    4.7707    0.9364 C   0  0  0  0  0  0  0  0  0  0  0  0
   16.4601    5.2793    2.0432 C   0  0  0  0  0  0  0  0  0  0  0  0
   16.4433    6.6384    2.2979 C   0  0  0  0  0  0  0  0  0  0  0  0
   17.1155    7.4996    1.4351 C   0  0  0  0  0  0  0  0  0  0  0  0
   17.0948    8.9279    1.6935 N   0  0  0  0  0  0  0  0  0  0  0  0
   16.4907    9.3109    2.6626 O   0  0  0  0  0  0  0  0  0  0  0  0
   17.6821    9.6429    0.9223 O   0  0  0  0  0  0  0  0  0  0  0  0
   17.8061    7.0146    0.3279 C   0  0  0  0  0  0  0  0  0  0  0  0
   17.8213    5.6534    0.0859 C   0  0  0  0  0  0  0  0  0  0  0  0
   15.9207    2.6965    0.4461 C   0  0  0  0  0  0  0  0  0  0  0  0
   14.6421    3.3582    0.4279 C   0  0  0  0  0  0  0  0  0  0  0  0
   13.7027    2.4067    0.2023 C   0  0  0  0  0  0  0  0  0  0  0  0
   14.3957    1.1559    0.0666 C   0  0  0  0  0  0  0  0  0  0  0  0
   15.7374    1.3667    0.2082 N   0  0  0  0  0  0  0  0  0  0  0  0
   12.7038   -0.0763   -0.2035 H   0  0  0  0  0  0  0  0  0  0  0  0
   12.6746   -2.6831   -0.5203 H   0  0  0  0  0  0  0  0  0  0  0  0
   14.5661   -4.5635   -0.7846 H   0  0  0  0  0  0  0  0  0  0  0  0
   18.3138   -5.3894    0.8497 H   0  0  0  0  0  0  0  0  0  0  0  0
   18.3239   -7.8323    0.4103 H   0  0  0  0  0  0  0  0  0  0  0  0
   16.1875   -7.1856   -3.2474 H   0  0  0  0  0  0  0  0  0  0  0  0
   16.1871   -4.7414   -2.8173 H   0  0  0  0  0  0  0  0  0  0  0  0
   19.8984   -4.4564   -1.0723 H   0  0  0  0  0  0  0  0  0  0  0  0
   21.7614   -2.5827   -0.6638 H   0  0  0  0  0  0  0  0  0  0  0  0
   21.6837    2.4780    0.9644 H   0  0  0  0  0  0  0  0  0  0  0  0
   19.7826    4.3354    1.2558 H   0  0  0  0  0  0  0  0  0  0  0  0
   15.9510    4.5981    2.7150 H   0  0  0  0  0  0  0  0  0  0  0  0
   15.9177    7.0403    3.1556 H   0  0  0  0  0  0  0  0  0  0  0  0
   18.3188    7.7057   -0.3303 H   0  0  0  0  0  0  0  0  0  0  0  0
   18.3442    5.2648   -0.7802 H   0  0  0  0  0  0  0  0  0  0  0  0
   14.4875    4.4172    0.5588 H   0  0  0  0  0  0  0  0  0  0  0  0
   12.6341    2.5303    0.1245 H   0  0  0  0  0  0  0  0  0  0  0  0
   28.1311    0.0663    0.0076 Zn  0  0  0  0  0  0  0  0  0  0  0  0
   31.5398    0.1269   -0.1184 C   0  0  0  0  0  0  0  0  0  0  0  0
   30.9091    1.3271    0.1847 C   0  0  0  0  0  0  0  0  0  0  0  0
   31.5826    2.5598    0.4845 C   0  0  0  0  0  0  0  0  0  0  0  0
   30.6235    3.4912    0.7102 C   0  0  0  0  0  0  0  0  0  0  0  0
   29.3508    2.8411    0.5351 C   0  0  0  0  0  0  0  0  0  0  0  0
   29.5593    1.5279    0.2338 N   0  0  0  0  0  0  0  0  0  0  0  0
   28.0969    3.4522    0.6608 C   0  0  0  0  0  0  0  0  0  0  0  0
   28.0814    4.9040    0.9555 C   0  0  0  0  0  0  0  0  0  0  0  0
   27.4709    5.3798    2.1207 C   0  0  0  0  0  0  0  0  0  0  0  0
   27.4669    6.7313    2.4124 C   0  0  0  0  0  0  0  0  0  0  0  0
   28.0740    7.6187    1.5280 C   0  0  0  0  0  0  0  0  0  0  0  0
   28.0765    9.0383    1.8311 N   0  0  0  0  0  0  0  0  0  0  0  0
   28.6205    9.7747    1.0483 O   0  0  0  0  0  0  0  0  0  0  0  0
   27.5373    9.3928    2.8482 O   0  0  0  0  0  0  0  0  0  0  0  0
   28.6805    7.1676    0.3590 C   0  0  0  0  0  0  0  0  0  0  0  0
   28.6832    5.8133    0.0795 C   0  0  0  0  0  0  0  0  0  0  0  0
   26.8572    2.8130    0.5319 C   0  0  0  0  0  0  0  0  0  0  0  0
   25.5813    3.4722    0.5626 C   0  0  0  0  0  0  0  0  0  0  0  0
   24.6350    2.5140    0.3953 C   0  0  0  0  0  0  0  0  0  0  0  0
   26.6612    1.4739    0.3297 N   0  0  0  0  0  0  0  0  0  0  0  0
   25.3176    1.2617    0.2609 C   0  0  0  0  0  0  0  0  0  0  0  0
   24.6843    0.0108    0.1099 C   0  0  0  0  0  0  0  0  0  0  0  0
   25.3505   -1.2200   -0.0656 C   0  0  0  0  0  0  0  0  0  0  0  0
   24.7028   -2.4950   -0.1483 C   0  0  0  0  0  0  0  0  0  0  0  0
   25.6685   -3.4233   -0.3655 C   0  0  0  0  0  0  0  0  0  0  0  0
   26.9209   -2.7224   -0.4202 C   0  0  0  0  0  0  0  0  0  0  0  0
   26.6937   -1.3888   -0.2133 N   0  0  0  0  0  0  0  0  0  0  0  0
   28.1696   -3.3209   -0.6312 C   0  0  0  0  0  0  0  0  0  0  0  0
   28.1808   -4.7738   -0.9207 C   0  0  0  0  0  0  0  0  0  0  0  0
   28.8680   -5.6602   -0.0854 C   0  0  0  0  0  0  0  0  0  0  0  0
   28.8848   -7.0156   -0.3589 C   0  0  0  0  0  0  0  0  0  0  0  0
   28.2126   -7.4906   -1.4816 C   0  0  0  0  0  0  0  0  0  0  0  0
   28.2333   -8.9115   -1.7778 N   0  0  0  0  0  0  0  0  0  0  0  0
   28.8373   -9.6299   -1.0228 O   0  0  0  0  0  0  0  0  0  0  0  0
   27.6459   -9.2852   -2.7606 O   0  0  0  0  0  0  0  0  0  0  0  0
   27.5221   -6.6258   -2.3263 C   0  0  0  0  0  0  0  0  0  0  0  0
   27.5069   -5.2731   -2.0402 C   0  0  0  0  0  0  0  0  0  0  0  0
   29.4074   -2.6670   -0.5976 C   0  0  0  0  0  0  0  0  0  0  0  0
   30.6860   -3.2736   -0.8625 C   0  0  0  0  0  0  0  0  0  0  0  0
   31.6254   -2.3070   -0.7149 C   0  0  0  0  0  0  0  0  0  0  0  0
   30.9324   -1.0965   -0.3717 C   0  0  0  0  0  0  0  0  0  0  0  0
   29.5907   -1.3451   -0.3194 N   0  0  0  0  0  0  0  0  0  0  0  0
   32.6243    0.1470   -0.1599 H   0  0  0  0  0  0  0  0  0  0  0  0
   32.6535    2.6824    0.5239 H   0  0  0  0  0  0  0  0  0  0  0  0
   30.7620    4.5248    0.9838 H   0  0  0  0  0  0  0  0  0  0  0  0
   27.0143    4.6775    2.8085 H   0  0  0  0  0  0  0  0  0  0  0  0
   27.0042    7.1070    3.3172 H   0  0  0  0  0  0  0  0  0  0  0  0
   29.1406    7.8790   -0.3161 H   0  0  0  0  0  0  0  0  0  0  0  0
   29.1411    5.4519   -0.8338 H   0  0  0  0  0  0  0  0  0  0  0  0
   25.4297    4.5333    0.6768 H   0  0  0  0  0  0  0  0  0  0  0  0
   23.5667    2.6432    0.3529 H   0  0  0  0  0  0  0  0  0  0  0  0
   23.6444   -2.6588   -0.0352 H   0  0  0  0  0  0  0  0  0  0  0  0
   25.5455   -4.4900   -0.4614 H   0  0  0  0  0  0  0  0  0  0  0  0
   29.3771   -5.2806    0.7928 H   0  0  0  0  0  0  0  0  0  0  0  0
   29.4104   -7.7099    0.2856 H   0  0  0  0  0  0  0  0  0  0  0  0
   27.0094   -7.0197   -3.1955 H   0  0  0  0  0  0  0  0  0  0  0  0
   26.9840   -4.5881   -2.6974 H   0  0  0  0  0  0  0  0  0  0  0  0
   30.8406   -4.3044   -1.1382 H   0  0  0  0  0  0  0  0  0  0  0  0
   32.6940   -2.3924   -0.8333 H   0  0  0  0  0  0  0  0  0  0  0  0
   22.0551   -0.0355    0.1205 C   0  0  0  0  0  0  0  0  0  0  0  0
   23.2730   -0.0122    0.1251 C   0  0  0  0  0  0  0  0  0  0  0  0
  2  3  4  0  0  0  0
  3  4  4  0  0  0  0
  4  5  2  0  0  0  0
  5  6  4  0  0  0  0
  1  7  1  0  0  0  0
  3  7  4  0  0  0  0
  6  7  4  0  0  0  0
  6  8  4  0  0  0  0
  8  9  1  0  0  0  0
  9 10  4  0  0  0  0
 10 11  4  0  0  0  0
 11 12  4  0  0  0  0
 12 13  1  0  0  0  0
 13 14  2  0  0  0  0
 13 15  2  0  0  0  0
 14 15  1  0  0  0  0
 12 16  4  0  0  0  0
  9 17  4  0  0  0  0
 16 17  4  0  0  0  0
  8 18  4  0  0  0  0
 18 19  4  0  0  0  0
 19 20  2  0  0  0  0
  1 21  1  0  0  0  0
 18 21  4  0  0  0  0
 20 22  4  0  0  0  0
 21 22  4  0  0  0  0
 22 23  4  0  0  0  0
 23 24  4  0  0  0  0
 24 25  4  0  0  0  0
 25 26  2  0  0  0  0
 26 27  4  0  0  0  0
  1 28  1  0  0  0  0
 24 28  4  0  0  0  0
 27 28  4  0  0  0  0
 27 29  4  0  0  0  0
 29 30  1  0  0  0  0
 30 31  4  0  0  0  0
 31 32  4  0  0  0  0
 32 33  4  0  0  0  0
 33 34  1  0  0  0  0
 34 35  2  0  0  0  0
 34 36  2  0  0  0  0
 35 36  1  0  0  0  0
 33 37  4  0  0  0  0
 30 38  4  0  0  0  0
 37 38  4  0  0  0  0
 29 39  4  0  0  0  0
 39 40  4  0  0  0  0
 40 41  2  0  0  0  0
  2 42  4  0  0  0  0
 41 42  4  0  0  0  0
  1 43  1  0  0  0  0
 39 43  4  0  0  0  0
 42 43  4  0  0  0  0
  2 44  1  0  0  0  0
  4 45  1  0  0  0  0
  5 46  1  0  0  0  0
 10 47  1  0  0  0  0
 11 48  1  0  0  0  0
 16 49  1  0  0  0  0
 17 50  1  0  0  0  0
 19 51  1  0  0  0  0
 20 52  1  0  0  0  0
 25 53  1  0  0  0  0
 26 54  1  0  0  0  0
 31 55  1  0  0  0  0
 32 56  1  0  0  0  0
 37 57  1  0  0  0  0
 38 58  1  0  0  0  0
 40 59  1  0  0  0  0
 41 60  1  0  0  0  0
 62 63  4  0  0  0  0
 63 64  4  0  0  0  0
 64 65  2  0  0  0  0
 65 66  4  0  0  0  0
 61 67  1  0  0  0  0
 63 67  4  0  0  0  0
 66 67  4  0  0  0  0
 66 68  4  0  0  0  0
 68 69  1  0  0  0  0
 69 70  4  0  0  0  0
 70 71  4  0  0  0  0
 71 72  4  0  0  0  0
 72 73  1  0  0  0  0
 73 74  2  0  0  0  0
 73 75  2  0  0  0  0
 74 75  1  0  0  0  0
 72 76  4  0  0  0  0
 69 77  4  0  0  0  0
 76 77  4  0  0  0  0
 68 78  4  0  0  0  0
 78 79  4  0  0  0  0
 79 80  2  0  0  0  0
 61 81  1  0  0  0  0
 78 81  4  0  0  0  0
 80 82  4  0  0  0  0
 81 82  4  0  0  0  0
 82 83  4  0  0  0  0
 83 84  4  0  0  0  0
 84 85  4  0  0  0  0
 85 86  2  0  0  0  0
 86 87  4  0  0  0  0
 61 88  1  0  0  0  0
 84 88  4  0  0  0  0
 87 88  4  0  0  0  0
 87 89  4  0  0  0  0
 89 90  1  0  0  0  0
 90 91  4  0  0  0  0
 91 92  4  0  0  0  0
 92 93  4  0  0  0  0
 93 94  1  0  0  0  0
 94 95  2  0  0  0  0
 94 96  2  0  0  0  0
 95 96  1  0  0  0  0
 93 97  4  0  0  0  0
 90 98  4  0  0  0  0
 97 98  4  0  0  0  0
 89 99  4  0  0  0  0
 99100  4  0  0  0  0
100101  2  0  0  0  0
 62102  4  0  0  0  0
101102  4  0  0  0  0
 61103  1  0  0  0  0
 99103  4  0  0  0  0
102103  4  0  0  0  0
 62104  1  0  0  0  0
 64105  1  0  0  0  0
 65106  1  0  0  0  0
 70107  1  0  0  0  0
 71108  1  0  0  0  0
 76109  1  0  0  0  0
 77110  1  0  0  0  0
 79111  1  0  0  0  0
 80112  1  0  0  0  0
 85113  1  0  0  0  0
 86114  1  0  0  0  0
 91115  1  0  0  0  0
 92116  1  0  0  0  0
 97117  1  0  0  0  0
 98118  1  0  0  0  0
100119  1  0  0  0  0
101120  1  0  0  0  0
 23121  4  0  0  0  0
 83122  4  0  0  0  0
121122  3  0  0  0  0
M  END
