 xtb: 6.5.1 (b24c23e)
          07272222423D

324358  0     0  0            999 V2000
   51.0804    0.0780   -0.0052 C   0  0  0  0  0  0  0  0  0  0  0  0
   51.6909    1.3247   -0.0496 C   0  0  0  0  0  0  0  0  0  0  0  0
   51.0408    2.5908   -0.0565 C   0  0  0  0  0  0  0  0  0  0  0  0
   52.0036    3.5583   -0.1181 C   0  0  0  0  0  0  0  0  0  0  0  0
   53.2730    2.9136   -0.1619 C   0  0  0  0  0  0  0  0  0  0  0  0
   53.0338    1.5702   -0.1072 N   0  0  0  0  0  0  0  0  0  0  0  0
   54.5370    3.5115   -0.2268 C   0  0  0  0  0  0  0  0  0  0  0  0
   54.5703    4.9914   -0.3043 C   0  0  0  0  0  0  0  0  0  0  0  0
   55.2063    5.7376    0.6908 C   0  0  0  0  0  0  0  0  0  0  0  0
   55.2363    7.1189    0.6256 C   0  0  0  0  0  0  0  0  0  0  0  0
   54.6314    7.7834   -0.4455 C   0  0  0  0  0  0  0  0  0  0  0  0
   54.6612    9.2049   -0.5164 C   0  0  0  0  0  0  0  0  0  0  0  0
   54.6853   10.3537   -0.5776 N   0  0  0  0  0  0  0  0  0  0  0  0
   53.9959    7.0414   -1.4456 C   0  0  0  0  0  0  0  0  0  0  0  0
   53.9650    5.6604   -1.3708 C   0  0  0  0  0  0  0  0  0  0  0  0
   55.7520    2.8216   -0.2244 C   0  0  0  0  0  0  0  0  0  0  0  0
   57.0484    3.4617   -0.3599 C   0  0  0  0  0  0  0  0  0  0  0  0
   57.9681    2.4762   -0.3095 C   0  0  0  0  0  0  0  0  0  0  0  0
   55.9055    1.4733   -0.1173 N   0  0  0  0  0  0  0  0  0  0  0  0
   57.2322    1.2363   -0.1535 C   0  0  0  0  0  0  0  0  0  0  0  0
   57.8688   -0.0169   -0.0453 C   0  0  0  0  0  0  0  0  0  0  0  0
   57.2322   -1.2678    0.0640 C   0  0  0  0  0  0  0  0  0  0  0  0
   57.8757   -2.5266    0.1974 C   0  0  0  0  0  0  0  0  0  0  0  0
   56.9084   -3.4914    0.2518 C   0  0  0  0  0  0  0  0  0  0  0  0
   55.6430   -2.8502    0.1445 C   0  0  0  0  0  0  0  0  0  0  0  0
   55.8906   -1.5068    0.0436 N   0  0  0  0  0  0  0  0  0  0  0  0
   54.3800   -3.4519    0.1636 C   0  0  0  0  0  0  0  0  0  0  0  0
   54.3468   -4.9310    0.2459 C   0  0  0  0  0  0  0  0  0  0  0  0
   53.7214   -5.5671    1.3211 C   0  0  0  0  0  0  0  0  0  0  0  0
   53.6905   -6.9475    1.4026 C   0  0  0  0  0  0  0  0  0  0  0  0
   54.2832   -7.7225    0.4012 C   0  0  0  0  0  0  0  0  0  0  0  0
   54.2511   -9.1434    0.4801 C   0  0  0  0  0  0  0  0  0  0  0  0
   54.2253  -10.2921    0.5439 N   0  0  0  0  0  0  0  0  0  0  0  0
   54.9081   -7.0912   -0.6785 C   0  0  0  0  0  0  0  0  0  0  0  0
   54.9404   -5.7102   -0.7503 C   0  0  0  0  0  0  0  0  0  0  0  0
   53.1634   -2.7628    0.1107 C   0  0  0  0  0  0  0  0  0  0  0  0
   51.8584   -3.4053    0.0759 C   0  0  0  0  0  0  0  0  0  0  0  0
   50.9459   -2.4142    0.0320 C   0  0  0  0  0  0  0  0  0  0  0  0
   51.6920   -1.1680    0.0273 C   0  0  0  0  0  0  0  0  0  0  0  0
   53.0242   -1.4170    0.0651 N   0  0  0  0  0  0  0  0  0  0  0  0
   49.9951    0.0886    0.0035 H   0  0  0  0  0  0  0  0  0  0  0  0
   49.9724    2.7297   -0.0128 H   0  0  0  0  0  0  0  0  0  0  0  0
   51.8537    4.6257   -0.1237 H   0  0  0  0  0  0  0  0  0  0  0  0
   53.7582    0.8599   -0.1059 H   0  0  0  0  0  0  0  0  0  0  0  0
   55.6656    5.2266    1.5294 H   0  0  0  0  0  0  0  0  0  0  0  0
   55.7267    7.6910    1.4045 H   0  0  0  0  0  0  0  0  0  0  0  0
   53.5298    7.5527   -2.2797 H   0  0  0  0  0  0  0  0  0  0  0  0
   53.4835    5.0886   -2.1562 H   0  0  0  0  0  0  0  0  0  0  0  0
   57.2106    4.5192   -0.4911 H   0  0  0  0  0  0  0  0  0  0  0  0
   59.0414    2.5533   -0.3777 H   0  0  0  0  0  0  0  0  0  0  0  0
   58.9435   -2.6658    0.2496 H   0  0  0  0  0  0  0  0  0  0  0  0
   57.0552   -4.5528    0.3673 H   0  0  0  0  0  0  0  0  0  0  0  0
   55.1688   -0.7973   -0.0288 H   0  0  0  0  0  0  0  0  0  0  0  0
   53.2724   -4.9699    2.1066 H   0  0  0  0  0  0  0  0  0  0  0  0
   53.2087   -7.4333    2.2430 H   0  0  0  0  0  0  0  0  0  0  0  0
   55.3648   -7.6885   -1.4590 H   0  0  0  0  0  0  0  0  0  0  0  0
   55.4135   -5.2253   -1.5969 H   0  0  0  0  0  0  0  0  0  0  0  0
   51.6889   -4.4700    0.0716 H   0  0  0  0  0  0  0  0  0  0  0  0
   49.8703   -2.4873   -0.0039 H   0  0  0  0  0  0  0  0  0  0  0  0
  132.2054   -0.1117   -0.0017 C   0  0  0  0  0  0  0  0  0  0  0  0
  131.5890   -1.3153    0.3150 C   0  0  0  0  0  0  0  0  0  0  0  0
  132.2336   -2.5384    0.6531 C   0  0  0  0  0  0  0  0  0  0  0  0
  131.2658   -3.4757    0.8804 C   0  0  0  0  0  0  0  0  0  0  0  0
  129.9985   -2.8574    0.6789 C   0  0  0  0  0  0  0  0  0  0  0  0
  130.2442   -1.5549    0.3502 N   0  0  0  0  0  0  0  0  0  0  0  0
  128.7312   -3.4374    0.8084 C   0  0  0  0  0  0  0  0  0  0  0  0
  128.6911   -4.8799    1.1475 C   0  0  0  0  0  0  0  0  0  0  0  0
  128.0762   -5.3145    2.3242 C   0  0  0  0  0  0  0  0  0  0  0  0
  128.0386   -6.6596    2.6446 C   0  0  0  0  0  0  0  0  0  0  0  0
  128.6145   -7.6011    1.7863 C   0  0  0  0  0  0  0  0  0  0  0  0
  128.5744   -8.9866    2.1106 C   0  0  0  0  0  0  0  0  0  0  0  0
  128.5449  -10.1066    2.3735 N   0  0  0  0  0  0  0  0  0  0  0  0
  129.2294   -7.1718    0.6065 C   0  0  0  0  0  0  0  0  0  0  0  0
  129.2682   -5.8245    0.2953 C   0  0  0  0  0  0  0  0  0  0  0  0
  127.5191   -2.7632    0.6403 C   0  0  0  0  0  0  0  0  0  0  0  0
  126.2176   -3.4022    0.7205 C   0  0  0  0  0  0  0  0  0  0  0  0
  125.3031   -2.4347    0.5038 C   0  0  0  0  0  0  0  0  0  0  0  0
  127.3732   -1.4392    0.3591 N   0  0  0  0  0  0  0  0  0  0  0  0
  126.0470   -1.2099    0.2807 C   0  0  0  0  0  0  0  0  0  0  0  0
  125.4173    0.0252    0.0236 C   0  0  0  0  0  0  0  0  0  0  0  0
  126.0606    1.2474   -0.2492 C   0  0  0  0  0  0  0  0  0  0  0  0
  125.4240    2.4951   -0.4827 C   0  0  0  0  0  0  0  0  0  0  0  0
  126.3963    3.4270   -0.7192 C   0  0  0  0  0  0  0  0  0  0  0  0
  127.6576    2.7731   -0.6460 C   0  0  0  0  0  0  0  0  0  0  0  0
  127.4029    1.4601   -0.3505 N   0  0  0  0  0  0  0  0  0  0  0  0
  128.9235    3.3456   -0.8112 C   0  0  0  0  0  0  0  0  0  0  0  0
  128.9649    4.7858   -1.1571 C   0  0  0  0  0  0  0  0  0  0  0  0
  129.6028    5.6988   -0.3137 C   0  0  0  0  0  0  0  0  0  0  0  0
  129.6421    7.0443   -0.6321 C   0  0  0  0  0  0  0  0  0  0  0  0
  129.0452    7.5039   -1.8099 C   0  0  0  0  0  0  0  0  0  0  0  0
  129.0866    8.8874   -2.1423 C   0  0  0  0  0  0  0  0  0  0  0  0
  129.1185   10.0061   -2.4103 N   0  0  0  0  0  0  0  0  0  0  0  0
  128.4077    6.5943   -2.6588 C   0  0  0  0  0  0  0  0  0  0  0  0
  128.3672    5.2510   -2.3311 C   0  0  0  0  0  0  0  0  0  0  0  0
  130.1364    2.6613   -0.6745 C   0  0  0  0  0  0  0  0  0  0  0  0
  131.4437    3.2576   -0.9034 C   0  0  0  0  0  0  0  0  0  0  0  0
  132.3513    2.2880   -0.6725 C   0  0  0  0  0  0  0  0  0  0  0  0
  131.5996    1.0977   -0.3152 C   0  0  0  0  0  0  0  0  0  0  0  0
  130.2691    1.3574   -0.3358 N   0  0  0  0  0  0  0  0  0  0  0  0
  133.2906   -0.1284   -0.0049 H   0  0  0  0  0  0  0  0  0  0  0  0
  133.3020   -2.6692    0.7166 H   0  0  0  0  0  0  0  0  0  0  0  0
  131.4109   -4.5033    1.1716 H   0  0  0  0  0  0  0  0  0  0  0  0
  129.5230   -0.8663    0.1635 H   0  0  0  0  0  0  0  0  0  0  0  0
  127.6394   -4.5865    2.9982 H   0  0  0  0  0  0  0  0  0  0  0  0
  127.5643   -6.9884    3.5618 H   0  0  0  0  0  0  0  0  0  0  0  0
  129.6730   -7.8990   -0.0635 H   0  0  0  0  0  0  0  0  0  0  0  0
  129.7333   -5.4975   -0.6279 H   0  0  0  0  0  0  0  0  0  0  0  0
  126.0483   -4.4510    0.9026 H   0  0  0  0  0  0  0  0  0  0  0  0
  124.2283   -2.5176    0.4822 H   0  0  0  0  0  0  0  0  0  0  0  0
  124.3575    2.6512   -0.4637 H   0  0  0  0  0  0  0  0  0  0  0  0
  126.2554    4.4772   -0.9161 H   0  0  0  0  0  0  0  0  0  0  0  0
  128.1207    0.7549   -0.2199 H   0  0  0  0  0  0  0  0  0  0  0  0
  130.0553    5.3486    0.6070 H   0  0  0  0  0  0  0  0  0  0  0  0
  130.1338    7.7470    0.0304 H   0  0  0  0  0  0  0  0  0  0  0  0
  127.9477    6.9460   -3.5749 H   0  0  0  0  0  0  0  0  0  0  0  0
  127.8842    4.5473   -2.9998 H   0  0  0  0  0  0  0  0  0  0  0  0
  131.6180    4.2757   -1.2122 H   0  0  0  0  0  0  0  0  0  0  0  0
  133.4267    2.3397   -0.7385 H   0  0  0  0  0  0  0  0  0  0  0  0
   59.2742   -0.0335   -0.0444 C   0  0  0  0  0  0  0  0  0  0  0  0
   60.4988   -0.0498   -0.0408 C   0  0  0  0  0  0  0  0  0  0  0  0
   61.8411   -0.0623   -0.0411 C   0  0  0  0  0  0  0  0  0  0  0  0
   63.0720   -0.0726   -0.0397 C   0  0  0  0  0  0  0  0  0  0  0  0
   64.4095   -0.0822   -0.0379 C   0  0  0  0  0  0  0  0  0  0  0  0
   65.6404   -0.0844   -0.0319 C   0  0  0  0  0  0  0  0  0  0  0  0
   66.9825   -0.0872   -0.0351 C   0  0  0  0  0  0  0  0  0  0  0  0
   68.2074   -0.0903   -0.0355 C   0  0  0  0  0  0  0  0  0  0  0  0
   77.8755    0.0007    0.0052 C   0  0  0  0  0  0  0  0  0  0  0  0
   79.1006    0.0150    0.0147 C   0  0  0  0  0  0  0  0  0  0  0  0
   80.4421    0.0278    0.0201 C   0  0  0  0  0  0  0  0  0  0  0  0
   81.6734    0.0365    0.0220 C   0  0  0  0  0  0  0  0  0  0  0  0
   83.0103    0.0408    0.0206 C   0  0  0  0  0  0  0  0  0  0  0  0
   84.2416    0.0402    0.0168 C   0  0  0  0  0  0  0  0  0  0  0  0
   85.5831    0.0355    0.0103 C   0  0  0  0  0  0  0  0  0  0  0  0
   86.8083    0.0247    0.0037 C   0  0  0  0  0  0  0  0  0  0  0  0
   96.4775   -0.0134   -0.0030 C   0  0  0  0  0  0  0  0  0  0  0  0
   97.7028   -0.0088    0.0044 C   0  0  0  0  0  0  0  0  0  0  0  0
   99.0443   -0.0033    0.0076 C   0  0  0  0  0  0  0  0  0  0  0  0
  100.2756   -0.0001    0.0082 C   0  0  0  0  0  0  0  0  0  0  0  0
  101.6125    0.0010    0.0065 C   0  0  0  0  0  0  0  0  0  0  0  0
  102.8438    0.0007    0.0023 C   0  0  0  0  0  0  0  0  0  0  0  0
  104.1853   -0.0015   -0.0039 C   0  0  0  0  0  0  0  0  0  0  0  0
  105.4106   -0.0080   -0.0091 C   0  0  0  0  0  0  0  0  0  0  0  0
  115.0792    0.0325    0.0293 C   0  0  0  0  0  0  0  0  0  0  0  0
  116.3040    0.0472    0.0418 C   0  0  0  0  0  0  0  0  0  0  0  0
  117.6460    0.0608    0.0497 C   0  0  0  0  0  0  0  0  0  0  0  0
  118.8769    0.0713    0.0530 C   0  0  0  0  0  0  0  0  0  0  0  0
  120.2144    0.0768    0.0524 C   0  0  0  0  0  0  0  0  0  0  0  0
  121.4453    0.0757    0.0489 C   0  0  0  0  0  0  0  0  0  0  0  0
  122.7876    0.0668    0.0420 C   0  0  0  0  0  0  0  0  0  0  0  0
  124.0121    0.0504    0.0334 C   0  0  0  0  0  0  0  0  0  0  0  0
   69.6118   -0.0859   -0.0379 C   0  0  0  0  0  0  0  0  0  0  0  0
   70.2328    0.8209   -0.9187 C   0  0  0  0  0  0  0  0  0  0  0  0
   69.5778    1.7383   -1.7802 C   0  0  0  0  0  0  0  0  0  0  0  0
   70.5375    2.4114   -2.4857 C   0  0  0  0  0  0  0  0  0  0  0  0
   71.8071    1.9171   -2.0799 C   0  0  0  0  0  0  0  0  0  0  0  0
   71.5724    0.9663   -1.1234 N   0  0  0  0  0  0  0  0  0  0  0  0
   73.0640    2.3251   -2.5440 C   0  0  0  0  0  0  0  0  0  0  0  0
   73.0687    3.3431   -3.6225 C   0  0  0  0  0  0  0  0  0  0  0  0
   72.4699    3.0717   -4.8550 C   0  0  0  0  0  0  0  0  0  0  0  0
   72.4742    4.0177   -5.8643 C   0  0  0  0  0  0  0  0  0  0  0  0
   73.0753    5.2625   -5.6554 C   0  0  0  0  0  0  0  0  0  0  0  0
   73.0775    6.2400   -6.6903 C   0  0  0  0  0  0  0  0  0  0  0  0
   73.0795    7.0289   -7.5279 N   0  0  0  0  0  0  0  0  0  0  0  0
   73.6732    5.5403   -4.4225 C   0  0  0  0  0  0  0  0  0  0  0  0
   73.6705    4.5873   -3.4199 C   0  0  0  0  0  0  0  0  0  0  0  0
   74.2931    1.8554   -2.0784 C   0  0  0  0  0  0  0  0  0  0  0  0
   75.5755    2.2612   -2.6257 C   0  0  0  0  0  0  0  0  0  0  0  0
   76.5181    1.6093   -1.9142 C   0  0  0  0  0  0  0  0  0  0  0  0
   74.4774    0.9568   -1.0720 N   0  0  0  0  0  0  0  0  0  0  0  0
   75.8099    0.7989   -0.9431 C   0  0  0  0  0  0  0  0  0  0  0  0
   76.4719   -0.0193   -0.0050 C   0  0  0  0  0  0  0  0  0  0  0  0
   75.8502   -0.8693    0.9306 C   0  0  0  0  0  0  0  0  0  0  0  0
   76.5036   -1.6785    1.8955 C   0  0  0  0  0  0  0  0  0  0  0  0
   75.5440   -2.3651    2.5879 C   0  0  0  0  0  0  0  0  0  0  0  0
   74.2761   -2.0004    2.0583 C   0  0  0  0  0  0  0  0  0  0  0  0
   74.5117   -1.0858    1.0670 N   0  0  0  0  0  0  0  0  0  0  0  0
   73.0200   -2.4624    2.4701 C   0  0  0  0  0  0  0  0  0  0  0  0
   73.0133   -3.4877    3.5417 C   0  0  0  0  0  0  0  0  0  0  0  0
   73.6311   -4.7248    3.3438 C   0  0  0  0  0  0  0  0  0  0  0  0
   73.6234   -5.6839    4.3407 C   0  0  0  0  0  0  0  0  0  0  0  0
   72.9998   -5.4188    5.5634 C   0  0  0  0  0  0  0  0  0  0  0  0
   72.9929   -6.4020    6.5929 C   0  0  0  0  0  0  0  0  0  0  0  0
   72.9875   -7.1970    7.4248 N   0  0  0  0  0  0  0  0  0  0  0  0
   72.3830   -4.1808    5.7678 C   0  0  0  0  0  0  0  0  0  0  0  0
   72.3892   -3.2289    4.7643 C   0  0  0  0  0  0  0  0  0  0  0  0
   71.7914   -2.0391    1.9596 C   0  0  0  0  0  0  0  0  0  0  0  0
   70.5112   -2.5872    2.3712 C   0  0  0  0  0  0  0  0  0  0  0  0
   69.5683   -1.9221    1.6724 C   0  0  0  0  0  0  0  0  0  0  0  0
   70.2744   -0.9783    0.8287 C   0  0  0  0  0  0  0  0  0  0  0  0
   71.6065   -1.0792    1.0122 N   0  0  0  0  0  0  0  0  0  0  0  0
   68.5091    1.8642   -1.8428 H   0  0  0  0  0  0  0  0  0  0  0  0
   70.3814    3.1888   -3.2155 H   0  0  0  0  0  0  0  0  0  0  0  0
   72.2969    0.4497   -0.6361 H   0  0  0  0  0  0  0  0  0  0  0  0
   72.0140    2.1029   -5.0257 H   0  0  0  0  0  0  0  0  0  0  0  0
   72.0133    3.7972   -6.8200 H   0  0  0  0  0  0  0  0  0  0  0  0
   74.1369    6.5054   -4.2559 H   0  0  0  0  0  0  0  0  0  0  0  0
   74.1244    4.8107   -2.4611 H   0  0  0  0  0  0  0  0  0  0  0  0
   75.7140    2.9408   -3.4508 H   0  0  0  0  0  0  0  0  0  0  0  0
   77.5902    1.6483   -2.0219 H   0  0  0  0  0  0  0  0  0  0  0  0
   77.5712   -1.7202    2.0385 H   0  0  0  0  0  0  0  0  0  0  0  0
   75.6988   -3.0558    3.4005 H   0  0  0  0  0  0  0  0  0  0  0  0
   73.7880   -0.6330    0.5188 H   0  0  0  0  0  0  0  0  0  0  0  0
   74.1043   -4.9396    2.3922 H   0  0  0  0  0  0  0  0  0  0  0  0
   74.0988   -6.6439    4.1770 H   0  0  0  0  0  0  0  0  0  0  0  0
   71.9018   -3.9705    6.7157 H   0  0  0  0  0  0  0  0  0  0  0  0
   71.9201   -2.2658    4.9304 H   0  0  0  0  0  0  0  0  0  0  0  0
   70.3746   -3.3819    3.0865 H   0  0  0  0  0  0  0  0  0  0  0  0
   68.4975   -2.0448    1.7000 H   0  0  0  0  0  0  0  0  0  0  0  0
   88.2120    0.0125   -0.0059 C   0  0  0  0  0  0  0  0  0  0  0  0
   88.8410    0.8997   -0.9012 C   0  0  0  0  0  0  0  0  0  0  0  0
   88.1946    1.8166   -1.7695 C   0  0  0  0  0  0  0  0  0  0  0  0
   89.1603    2.4699   -2.4856 C   0  0  0  0  0  0  0  0  0  0  0  0
   90.4248    1.9634   -2.0795 C   0  0  0  0  0  0  0  0  0  0  0  0
   90.1814    1.0251   -1.1127 N   0  0  0  0  0  0  0  0  0  0  0  0
   91.6851    2.3519   -2.5509 C   0  0  0  0  0  0  0  0  0  0  0  0
   91.6994    3.3617   -3.6370 C   0  0  0  0  0  0  0  0  0  0  0  0
   91.0960    3.0879   -4.8668 C   0  0  0  0  0  0  0  0  0  0  0  0
   91.1106    4.0260   -5.8834 C   0  0  0  0  0  0  0  0  0  0  0  0
   91.7268    5.2650   -5.6848 C   0  0  0  0  0  0  0  0  0  0  0  0
   91.7409    6.2340   -6.7276 C   0  0  0  0  0  0  0  0  0  0  0  0
   91.7518    7.0170   -7.5708 N   0  0  0  0  0  0  0  0  0  0  0  0
   92.3289    5.5454   -4.4545 C   0  0  0  0  0  0  0  0  0  0  0  0
   92.3158    4.6003   -3.4446 C   0  0  0  0  0  0  0  0  0  0  0  0
   92.9102    1.8709   -2.0858 C   0  0  0  0  0  0  0  0  0  0  0  0
   94.1955    2.2583   -2.6397 C   0  0  0  0  0  0  0  0  0  0  0  0
   95.1328    1.6001   -1.9270 C   0  0  0  0  0  0  0  0  0  0  0  0
   93.0873    0.9767   -1.0743 N   0  0  0  0  0  0  0  0  0  0  0  0
   94.4183    0.8039   -0.9488 C   0  0  0  0  0  0  0  0  0  0  0  0
   95.0738   -0.0180   -0.0093 C   0  0  0  0  0  0  0  0  0  0  0  0
   94.4450   -0.8575    0.9309 C   0  0  0  0  0  0  0  0  0  0  0  0
   95.0919   -1.6749    1.8932 C   0  0  0  0  0  0  0  0  0  0  0  0
   94.1262   -2.3469    2.5916 C   0  0  0  0  0  0  0  0  0  0  0  0
   92.8610   -1.9639    2.0690 C   0  0  0  0  0  0  0  0  0  0  0  0
   93.1042   -1.0544    1.0750 N   0  0  0  0  0  0  0  0  0  0  0  0
   91.6004   -2.4048    2.4909 C   0  0  0  0  0  0  0  0  0  0  0  0
   91.5860   -3.4303    3.5622 C   0  0  0  0  0  0  0  0  0  0  0  0
   92.1808   -4.6775    3.3570 C   0  0  0  0  0  0  0  0  0  0  0  0
   92.1658   -5.6378    4.3526 C   0  0  0  0  0  0  0  0  0  0  0  0
   91.5579   -5.3639    5.5814 C   0  0  0  0  0  0  0  0  0  0  0  0
   91.5429   -6.3490    6.6090 C   0  0  0  0  0  0  0  0  0  0  0  0
   91.5341   -7.1453    7.4396 N   0  0  0  0  0  0  0  0  0  0  0  0
   90.9646   -4.1159    5.7931 C   0  0  0  0  0  0  0  0  0  0  0  0
   90.9779   -3.1625    4.7909 C   0  0  0  0  0  0  0  0  0  0  0  0
   90.3752   -1.9616    1.9902 C   0  0  0  0  0  0  0  0  0  0  0  0
   89.0892   -2.4851    2.4157 C   0  0  0  0  0  0  0  0  0  0  0  0
   88.1520   -1.8071    1.7217 C   0  0  0  0  0  0  0  0  0  0  0  0
   88.8671   -0.8807    0.8662 C   0  0  0  0  0  0  0  0  0  0  0  0
   90.1984   -1.0029    1.0395 N   0  0  0  0  0  0  0  0  0  0  0  0
   87.1273    1.9559   -1.8291 H   0  0  0  0  0  0  0  0  0  0  0  0
   89.0114    3.2419   -3.2227 H   0  0  0  0  0  0  0  0  0  0  0  0
   90.9010    0.5038   -0.6232 H   0  0  0  0  0  0  0  0  0  0  0  0
   90.6286    2.1233   -5.0295 H   0  0  0  0  0  0  0  0  0  0  0  0
   90.6465    3.8034   -6.8370 H   0  0  0  0  0  0  0  0  0  0  0  0
   92.8043    6.5063   -4.2958 H   0  0  0  0  0  0  0  0  0  0  0  0
   92.7734    4.8257   -2.4879 H   0  0  0  0  0  0  0  0  0  0  0  0
   94.3392    2.9310   -3.4696 H   0  0  0  0  0  0  0  0  0  0  0  0
   96.2048    1.6259   -2.0384 H   0  0  0  0  0  0  0  0  0  0  0  0
   96.1596   -1.7321    2.0302 H   0  0  0  0  0  0  0  0  0  0  0  0
   94.2754   -3.0390    3.4041 H   0  0  0  0  0  0  0  0  0  0  0  0
   92.3843   -0.5918    0.5300 H   0  0  0  0  0  0  0  0  0  0  0  0
   92.6416   -4.8988    2.4009 H   0  0  0  0  0  0  0  0  0  0  0  0
   92.6231   -6.6056    4.1832 H   0  0  0  0  0  0  0  0  0  0  0  0
   90.4957   -3.8988    6.7457 H   0  0  0  0  0  0  0  0  0  0  0  0
   90.5271   -2.1918    4.9628 H   0  0  0  0  0  0  0  0  0  0  0  0
   88.9449   -3.2735    3.1364 H   0  0  0  0  0  0  0  0  0  0  0  0
   87.0795   -1.9111    1.7594 H   0  0  0  0  0  0  0  0  0  0  0  0
  106.8143   -0.0127   -0.0158 C   0  0  0  0  0  0  0  0  0  0  0  0
  107.4402    0.8787   -0.9090 C   0  0  0  0  0  0  0  0  0  0  0  0
  106.7902    1.7889   -1.7819 C   0  0  0  0  0  0  0  0  0  0  0  0
  107.7537    2.4496   -2.4940 C   0  0  0  0  0  0  0  0  0  0  0  0
  109.0207    1.9554   -2.0801 C   0  0  0  0  0  0  0  0  0  0  0  0
  108.7805    1.0157   -1.1138 N   0  0  0  0  0  0  0  0  0  0  0  0
  110.2798    2.3572   -2.5429 C   0  0  0  0  0  0  0  0  0  0  0  0
  110.2911    3.3657   -3.6303 C   0  0  0  0  0  0  0  0  0  0  0  0
  109.7022    3.0820   -4.8648 C   0  0  0  0  0  0  0  0  0  0  0  0
  109.7159    4.0175   -5.8838 C   0  0  0  0  0  0  0  0  0  0  0  0
  110.3163    5.2639   -5.6828 C   0  0  0  0  0  0  0  0  0  0  0  0
  110.3301    6.2298   -6.7285 C   0  0  0  0  0  0  0  0  0  0  0  0
  110.3411    7.0103   -7.5740 N   0  0  0  0  0  0  0  0  0  0  0  0
  110.9031    5.5544   -4.4475 C   0  0  0  0  0  0  0  0  0  0  0  0
  110.8912    4.6119   -3.4352 C   0  0  0  0  0  0  0  0  0  0  0  0
  111.5068    1.8899   -2.0685 C   0  0  0  0  0  0  0  0  0  0  0  0
  112.7919    2.2939   -2.6109 C   0  0  0  0  0  0  0  0  0  0  0  0
  113.7309    1.6446   -1.8924 C   0  0  0  0  0  0  0  0  0  0  0  0
  111.6858    0.9952   -1.0582 N   0  0  0  0  0  0  0  0  0  0  0  0
  113.0179    0.8366   -0.9228 C   0  0  0  0  0  0  0  0  0  0  0  0
  113.6751    0.0149    0.0151 C   0  0  0  0  0  0  0  0  0  0  0  0
  113.0491   -0.8378    0.9450 C   0  0  0  0  0  0  0  0  0  0  0  0
  113.6984   -1.6563    1.9047 C   0  0  0  0  0  0  0  0  0  0  0  0
  112.7352   -2.3409    2.5942 C   0  0  0  0  0  0  0  0  0  0  0  0
  111.4691   -1.9645    2.0686 C   0  0  0  0  0  0  0  0  0  0  0  0
  111.7092   -1.0468    1.0816 N   0  0  0  0  0  0  0  0  0  0  0  0
  110.2102   -2.4170    2.4835 C   0  0  0  0  0  0  0  0  0  0  0  0
  110.2000   -3.4487    3.5490 C   0  0  0  0  0  0  0  0  0  0  0  0
  110.8048   -4.6901    3.3384 C   0  0  0  0  0  0  0  0  0  0  0  0
  110.7950   -5.6560    4.3286 C   0  0  0  0  0  0  0  0  0  0  0  0
  110.1820   -5.3936    5.5574 C   0  0  0  0  0  0  0  0  0  0  0  0
  110.1733   -6.3838    6.5801 C   0  0  0  0  0  0  0  0  0  0  0  0
  110.1671   -7.1846    7.4065 N   0  0  0  0  0  0  0  0  0  0  0  0
  109.5782   -4.1515    5.7744 C   0  0  0  0  0  0  0  0  0  0  0  0
  109.5867   -3.1925    4.7775 C   0  0  0  0  0  0  0  0  0  0  0  0
  108.9837   -1.9792    1.9813 C   0  0  0  0  0  0  0  0  0  0  0  0
  107.6997   -2.5120    2.4012 C   0  0  0  0  0  0  0  0  0  0  0  0
  106.7604   -1.8367    1.7073 C   0  0  0  0  0  0  0  0  0  0  0  0
  107.4724   -0.9033    0.8569 C   0  0  0  0  0  0  0  0  0  0  0  0
  108.8039   -1.0180    1.0336 N   0  0  0  0  0  0  0  0  0  0  0  0
  105.7221    1.9184   -1.8474 H   0  0  0  0  0  0  0  0  0  0  0  0
  107.6020    3.2191   -3.2332 H   0  0  0  0  0  0  0  0  0  0  0  0
  109.5022    0.5014   -0.6199 H   0  0  0  0  0  0  0  0  0  0  0  0
  109.2473    2.1117   -5.0293 H   0  0  0  0  0  0  0  0  0  0  0  0
  109.2634    3.7872   -6.8412 H   0  0  0  0  0  0  0  0  0  0  0  0
  111.3659    6.5210   -4.2868 H   0  0  0  0  0  0  0  0  0  0  0  0
  111.3370    4.8449   -2.4749 H   0  0  0  0  0  0  0  0  0  0  0  0
  112.9346    2.9708   -3.4374 H   0  0  0  0  0  0  0  0  0  0  0  0
  114.8035    1.6832   -1.9950 H   0  0  0  0  0  0  0  0  0  0  0  0
  114.7659   -1.7056    2.0462 H   0  0  0  0  0  0  0  0  0  0  0  0
  112.8865   -3.0371    3.4028 H   0  0  0  0  0  0  0  0  0  0  0  0
  110.9879   -0.5866    0.5366 H   0  0  0  0  0  0  0  0  0  0  0  0
  111.2699   -4.9024    2.3823 H   0  0  0  0  0  0  0  0  0  0  0  0
  111.2604   -6.6192    4.1551 H   0  0  0  0  0  0  0  0  0  0  0  0
  109.1054   -3.9433    6.7270 H   0  0  0  0  0  0  0  0  0  0  0  0
  109.1280   -2.2262    4.9537 H   0  0  0  0  0  0  0  0  0  0  0  0
  107.5581   -3.3039    3.1186 H   0  0  0  0  0  0  0  0  0  0  0  0
  105.6885   -1.9471    1.7416 H   0  0  0  0  0  0  0  0  0  0  0  0
  1  2  4  0  0  0  0
  2  3  4  0  0  0  0
  3  4  2  0  0  0  0
  4  5  4  0  0  0  0
  2  6  4  0  0  0  0
  5  6  4  0  0  0  0
  5  7  4  0  0  0  0
  7  8  1  0  0  0  0
  8  9  4  0  0  0  0
  9 10  4  0  0  0  0
 10 11  4  0  0  0  0
 11 12  1  0  0  0  0
 12 13  3  0  0  0  0
 11 14  4  0  0  0  0
  8 15  4  0  0  0  0
 14 15  4  0  0  0  0
  7 16  4  0  0  0  0
 16 17  1  0  0  0  0
 17 18  2  0  0  0  0
 16 19  4  0  0  0  0
 18 20  1  0  0  0  0
 19 20  4  0  0  0  0
 20 21  4  0  0  0  0
 21 22  4  0  0  0  0
 22 23  4  0  0  0  0
 23 24  2  0  0  0  0
 24 25  4  0  0  0  0
 22 26  4  0  0  0  0
 25 26  4  0  0  0  0
 25 27  4  0  0  0  0
 27 28  1  0  0  0  0
 28 29  4  0  0  0  0
 29 30  4  0  0  0  0
 30 31  4  0  0  0  0
 31 32  1  0  0  0  0
 32 33  3  0  0  0  0
 31 34  4  0  0  0  0
 28 35  4  0  0  0  0
 34 35  4  0  0  0  0
 27 36  4  0  0  0  0
 36 37  1  0  0  0  0
 37 38  2  0  0  0  0
  1 39  4  0  0  0  0
 38 39  1  0  0  0  0
 36 40  4  0  0  0  0
 39 40  4  0  0  0  0
  1 41  1  0  0  0  0
  3 42  1  0  0  0  0
  4 43  1  0  0  0  0
  6 44  1  0  0  0  0
  9 45  1  0  0  0  0
 10 46  1  0  0  0  0
 14 47  1  0  0  0  0
 15 48  1  0  0  0  0
 17 49  1  0  0  0  0
 18 50  1  0  0  0  0
 23 51  1  0  0  0  0
 24 52  1  0  0  0  0
 26 53  1  0  0  0  0
 29 54  1  0  0  0  0
 30 55  1  0  0  0  0
 34 56  1  0  0  0  0
 35 57  1  0  0  0  0
 37 58  1  0  0  0  0
 38 59  1  0  0  0  0
 60 61  4  0  0  0  0
 61 62  4  0  0  0  0
 62 63  2  0  0  0  0
 63 64  4  0  0  0  0
 61 65  4  0  0  0  0
 64 65  4  0  0  0  0
 64 66  4  0  0  0  0
 66 67  1  0  0  0  0
 67 68  4  0  0  0  0
 68 69  4  0  0  0  0
 69 70  4  0  0  0  0
 70 71  1  0  0  0  0
 71 72  3  0  0  0  0
 70 73  4  0  0  0  0
 67 74  4  0  0  0  0
 73 74  4  0  0  0  0
 66 75  4  0  0  0  0
 75 76  1  0  0  0  0
 76 77  2  0  0  0  0
 75 78  4  0  0  0  0
 77 79  1  0  0  0  0
 78 79  4  0  0  0  0
 79 80  4  0  0  0  0
 80 81  4  0  0  0  0
 81 82  4  0  0  0  0
 82 83  2  0  0  0  0
 83 84  4  0  0  0  0
 81 85  4  0  0  0  0
 84 85  4  0  0  0  0
 84 86  4  0  0  0  0
 86 87  1  0  0  0  0
 87 88  4  0  0  0  0
 88 89  4  0  0  0  0
 89 90  4  0  0  0  0
 90 91  1  0  0  0  0
 91 92  3  0  0  0  0
 90 93  4  0  0  0  0
 87 94  4  0  0  0  0
 93 94  4  0  0  0  0
 86 95  4  0  0  0  0
 95 96  1  0  0  0  0
 96 97  2  0  0  0  0
 60 98  4  0  0  0  0
 97 98  1  0  0  0  0
 95 99  4  0  0  0  0
 98 99  4  0  0  0  0
 60100  1  0  0  0  0
 62101  1  0  0  0  0
 63102  1  0  0  0  0
 65103  1  0  0  0  0
 68104  1  0  0  0  0
 69105  1  0  0  0  0
 73106  1  0  0  0  0
 74107  1  0  0  0  0
 76108  1  0  0  0  0
 77109  1  0  0  0  0
 82110  1  0  0  0  0
 83111  1  0  0  0  0
 85112  1  0  0  0  0
 88113  1  0  0  0  0
 89114  1  0  0  0  0
 93115  1  0  0  0  0
 94116  1  0  0  0  0
 96117  1  0  0  0  0
 97118  1  0  0  0  0
 21119  4  0  0  0  0
119120  3  0  0  0  0
120121  4  0  0  0  0
121122  3  0  0  0  0
122123  4  0  0  0  0
123124  3  0  0  0  0
124125  4  0  0  0  0
125126  3  0  0  0  0
127128  3  0  0  0  0
128129  4  0  0  0  0
129130  3  0  0  0  0
130131  4  0  0  0  0
131132  3  0  0  0  0
132133  4  0  0  0  0
133134  3  0  0  0  0
135136  3  0  0  0  0
136137  4  0  0  0  0
137138  3  0  0  0  0
138139  4  0  0  0  0
139140  3  0  0  0  0
140141  4  0  0  0  0
141142  3  0  0  0  0
143144  3  0  0  0  0
144145  4  0  0  0  0
145146  3  0  0  0  0
146147  4  0  0  0  0
147148  3  0  0  0  0
148149  4  0  0  0  0
 80150  4  0  0  0  0
149150  3  0  0  0  0
126151  4  0  0  0  0
151152  4  0  0  0  0
152153  4  0  0  0  0
153154  2  0  0  0  0
154155  4  0  0  0  0
152156  4  0  0  0  0
155156  4  0  0  0  0
155157  4  0  0  0  0
157158  1  0  0  0  0
158159  4  0  0  0  0
159160  4  0  0  0  0
160161  4  0  0  0  0
161162  1  0  0  0  0
162163  3  0  0  0  0
161164  4  0  0  0  0
158165  4  0  0  0  0
164165  4  0  0  0  0
157166  4  0  0  0  0
166167  1  0  0  0  0
167168  2  0  0  0  0
166169  4  0  0  0  0
168170  1  0  0  0  0
169170  4  0  0  0  0
127171  4  0  0  0  0
170171  4  0  0  0  0
171172  4  0  0  0  0
172173  4  0  0  0  0
173174  2  0  0  0  0
174175  4  0  0  0  0
172176  4  0  0  0  0
175176  4  0  0  0  0
175177  4  0  0  0  0
177178  1  0  0  0  0
178179  4  0  0  0  0
179180  4  0  0  0  0
180181  4  0  0  0  0
181182  1  0  0  0  0
182183  3  0  0  0  0
181184  4  0  0  0  0
178185  4  0  0  0  0
184185  4  0  0  0  0
177186  4  0  0  0  0
186187  1  0  0  0  0
187188  2  0  0  0  0
151189  4  0  0  0  0
188189  1  0  0  0  0
186190  4  0  0  0  0
189190  4  0  0  0  0
153191  1  0  0  0  0
154192  1  0  0  0  0
156193  1  0  0  0  0
159194  1  0  0  0  0
160195  1  0  0  0  0
164196  1  0  0  0  0
165197  1  0  0  0  0
167198  1  0  0  0  0
168199  1  0  0  0  0
173200  1  0  0  0  0
174201  1  0  0  0  0
176202  1  0  0  0  0
179203  1  0  0  0  0
180204  1  0  0  0  0
184205  1  0  0  0  0
185206  1  0  0  0  0
187207  1  0  0  0  0
188208  1  0  0  0  0
134209  4  0  0  0  0
209210  4  0  0  0  0
210211  4  0  0  0  0
211212  2  0  0  0  0
212213  4  0  0  0  0
210214  4  0  0  0  0
213214  4  0  0  0  0
213215  4  0  0  0  0
215216  1  0  0  0  0
216217  4  0  0  0  0
217218  4  0  0  0  0
218219  4  0  0  0  0
219220  1  0  0  0  0
220221  3  0  0  0  0
219222  4  0  0  0  0
216223  4  0  0  0  0
222223  4  0  0  0  0
215224  4  0  0  0  0
224225  1  0  0  0  0
225226  2  0  0  0  0
224227  4  0  0  0  0
226228  1  0  0  0  0
227228  4  0  0  0  0
135229  4  0  0  0  0
228229  4  0  0  0  0
229230  4  0  0  0  0
230231  4  0  0  0  0
231232  2  0  0  0  0
232233  4  0  0  0  0
230234  4  0  0  0  0
233234  4  0  0  0  0
233235  4  0  0  0  0
235236  1  0  0  0  0
236237  4  0  0  0  0
237238  4  0  0  0  0
238239  4  0  0  0  0
239240  1  0  0  0  0
240241  3  0  0  0  0
239242  4  0  0  0  0
236243  4  0  0  0  0
242243  4  0  0  0  0
235244  4  0  0  0  0
244245  1  0  0  0  0
245246  2  0  0  0  0
209247  4  0  0  0  0
246247  1  0  0  0  0
244248  4  0  0  0  0
247248  4  0  0  0  0
211249  1  0  0  0  0
212250  1  0  0  0  0
214251  1  0  0  0  0
217252  1  0  0  0  0
218253  1  0  0  0  0
222254  1  0  0  0  0
223255  1  0  0  0  0
225256  1  0  0  0  0
226257  1  0  0  0  0
231258  1  0  0  0  0
232259  1  0  0  0  0
234260  1  0  0  0  0
237261  1  0  0  0  0
238262  1  0  0  0  0
242263  1  0  0  0  0
243264  1  0  0  0  0
245265  1  0  0  0  0
246266  1  0  0  0  0
142267  4  0  0  0  0
267268  4  0  0  0  0
268269  4  0  0  0  0
269270  2  0  0  0  0
270271  4  0  0  0  0
268272  4  0  0  0  0
271272  4  0  0  0  0
271273  4  0  0  0  0
273274  1  0  0  0  0
274275  4  0  0  0  0
275276  4  0  0  0  0
276277  4  0  0  0  0
277278  1  0  0  0  0
278279  3  0  0  0  0
277280  4  0  0  0  0
274281  4  0  0  0  0
280281  4  0  0  0  0
273282  4  0  0  0  0
282283  1  0  0  0  0
283284  2  0  0  0  0
282285  4  0  0  0  0
284286  1  0  0  0  0
285286  4  0  0  0  0
143287  4  0  0  0  0
286287  4  0  0  0  0
287288  4  0  0  0  0
288289  4  0  0  0  0
289290  2  0  0  0  0
290291  4  0  0  0  0
288292  4  0  0  0  0
291292  4  0  0  0  0
291293  4  0  0  0  0
293294  1  0  0  0  0
294295  4  0  0  0  0
295296  4  0  0  0  0
296297  4  0  0  0  0
297298  1  0  0  0  0
298299  3  0  0  0  0
297300  4  0  0  0  0
294301  4  0  0  0  0
300301  4  0  0  0  0
293302  4  0  0  0  0
302303  1  0  0  0  0
303304  2  0  0  0  0
267305  4  0  0  0  0
304305  1  0  0  0  0
302306  4  0  0  0  0
305306  4  0  0  0  0
269307  1  0  0  0  0
270308  1  0  0  0  0
272309  1  0  0  0  0
275310  1  0  0  0  0
276311  1  0  0  0  0
280312  1  0  0  0  0
281313  1  0  0  0  0
283314  1  0  0  0  0
284315  1  0  0  0  0
289316  1  0  0  0  0
290317  1  0  0  0  0
292318  1  0  0  0  0
295319  1  0  0  0  0
296320  1  0  0  0  0
300321  1  0  0  0  0
301322  1  0  0  0  0
303323  1  0  0  0  0
304324  1  0  0  0  0
M  END
