378

C 67.640259 0.082563 -0.013491
C 68.364660 -0.006049 1.363612
C 67.744767 -0.038912 2.592603
C 68.765448 -0.156613 3.569994
C 69.976819 -0.190281 2.903987
N 69.720020 -0.076205 1.561102
C 71.408804 -0.368171 3.561471
C 71.462019 -0.639747 5.017408
C 71.660464 0.398476 5.925528
C 71.695292 0.140754 7.303976
C 71.518975 -1.153650 7.831668
N 71.558303 -1.401475 9.216794
C 71.261457 -0.283574 10.109002
C 71.145088 -2.717135 9.694947
C 71.345944 -2.184236 6.886795
C 71.310079 -1.935436 5.506201
C 72.536543 -0.298934 2.802977
C 73.848071 -0.525743 3.374097
C 74.750384 -0.423393 2.406044
N 72.728499 -0.046797 1.468935
C 74.065430 -0.106881 1.168046
C 74.738208 0.072708 -0.000161
C 73.965802 0.464225 -1.332716
C 74.531903 1.021117 -2.464443
C 73.506215 1.169325 -3.429051
C 72.336455 0.713662 -2.856598
N 72.618347 0.324224 -1.567681
C 70.912620 0.669012 -3.558187
C 70.863922 0.817562 -5.029581
C 70.688264 2.072304 -5.610615
C 70.681301 2.213978 -7.005379
C 70.860697 1.117556 -7.871854
N 70.860950 1.283441 -9.271456
C 71.121867 0.113205 -10.104295
C 71.415298 2.541902 -9.770175
C 70.997544 -0.141140 -7.255641
C 71.009878 -0.291150 -5.860660
C 69.790377 0.502035 -2.811262
C 68.461825 0.458998 -3.397018
C 67.578136 0.302486 -2.416117
C 68.306509 0.235121 -1.172922
N 69.631126 0.349207 -1.461582
H 66.558796 0.011216 -0.022155
H 66.680237 0.006264 2.765463
H 68.631815 -0.221389 4.640076
H 70.424779 -0.045301 0.828518
H 71.796162 1.410291 5.550157
H 71.873001 0.994628 7.948273
H 70.279255 0.151290 9.890547
H 71.251405 -0.607774 11.156241
H 72.032035 0.492016 10.046007
H 70.097827 -2.919533 9.444218
H 71.783821 -3.508839 9.288610
H 71.242903 -2.785630 10.784425
H 71.230177 -3.218796 7.189571
H 71.169304 -2.753115 4.802859
H 74.065721 -0.753141 4.402690
H 75.808371 -0.550264 2.545041
H 75.571170 1.282780 -2.592485
H 73.610156 1.561847 -4.429725
H 71.925301 0.021623 -0.887657
H 70.554717 2.939998 -4.968134
H 70.517248 3.214408 -7.390770
H 71.018182 0.364957 -11.166148
H 72.137934 -0.266667 -9.949785
H 70.395605 -0.684262 -9.911901
H 70.770374 3.390724 -9.521784
H 71.486663 2.531884 -10.863551
H 72.423304 2.717755 -9.377623
H 71.115567 -1.049200 -7.835903
H 71.134774 -1.275385 -5.413583
H 68.227008 0.541237 -4.443407
H 66.510618 0.235752 -2.524123
C 133.434269 0.079165 0.015108
C 132.709868 0.315699 -1.344420
C 133.329762 0.571724 -2.546897
C 132.309080 0.686319 -3.524657
C 131.097709 0.497532 -2.885080
N 131.354509 0.293771 -1.552851
C 129.665724 0.478654 -3.565943
C 129.612509 0.555789 -5.044982
C 129.414065 1.777897 -5.684547
C 129.379236 1.850344 -7.085008
C 129.555553 0.715623 -7.901309
N 129.516226 0.799256 -9.305944
C 129.813071 2.095095 -9.911370
C 129.929440 -0.367737 -10.079066
C 129.728584 -0.507672 -7.224226
C 129.764449 -0.589295 -5.823769
C 128.537986 0.368236 -2.812342
C 127.226458 0.281564 -3.420707
C 126.324144 0.154233 -2.455622
N 128.346029 0.300765 -1.456359
C 127.009099 0.171849 -1.177926
C 126.336320 0.072708 -0.000161
C 127.108726 0.141084 1.387035
C 126.542626 0.417290 2.617745
C 127.568313 0.335348 3.590226
C 128.738074 0.026506 2.926940
N 128.456182 -0.050075 1.582655
C 130.161909 -0.181295 3.598535
C 130.210606 -0.381654 5.063773
C 130.386264 0.702010 5.922639
C 130.393228 0.512923 7.311770
C 130.213831 -0.756004 7.897212
N 130.213579 -0.922688 9.296719
C 129.952661 -2.255494 9.832166
C 129.659230 0.183879 10.076433
C 130.076985 -1.835270 7.003220
C 130.064651 -1.654235 5.611925
C 131.284152 -0.168607 2.833279
C 132.612704 -0.347698 3.392643
C 133.496392 -0.270011 2.402376
C 132.768020 -0.044198 1.178007
N 131.443402 -0.000927 1.485363
H 134.515733 0.007775 0.006812
H 134.394292 0.656147 -2.704359
H 132.442713 0.874085 -4.580127
H 130.649749 0.152158 -0.833421
H 129.278366 2.673587 -5.082541
H 129.201527 2.831416 -7.511290
H 130.795273 2.466664 -9.597100
H 129.823124 2.025306 -11.005419
H 129.042494 2.834331 -9.668395
H 130.976702 -0.623250 -9.882743
H 129.290707 -1.232612 -9.869552
H 129.831625 -0.179042 -11.154263
H 129.844351 -1.442485 -7.760987
H 129.905225 -1.549015 -5.331604
H 127.008807 0.301513 -4.473948
H 125.266158 0.063463 -2.620478
H 125.503358 0.641666 2.803534
H 127.464373 0.482467 4.655017
H 129.149227 -0.184911 0.850657
H 130.519812 1.696092 5.501360
H 130.557280 1.395198 7.920850
H 130.056347 -2.259560 10.923447
H 128.936594 -2.588586 9.592947
H 130.678924 -2.985678 9.458267
H 130.304154 1.067272 10.033850
H 129.587866 -0.082057 11.137022
H 128.651224 0.446818 9.736014
H 129.958962 -2.854015 7.354554
H 129.939755 -2.506311 4.946672
H 132.847521 -0.512935 4.429170
H 134.563911 -0.360194 2.491739
C 78.503093 0.085145 0.002281
C 77.250822 0.065964 -0.002068
C 79.816761 0.084379 0.004213
C 81.319894 0.065964 -0.002068
C 92.701032 0.085145 0.002281
C 91.448761 0.065964 -0.002068
C 94.014700 0.084379 0.004213
C 95.517834 0.065964 -0.002068
C 106.898971 0.085145 0.002281
C 105.646701 0.065964 -0.002068
C 108.212639 0.084379 0.004213
C 109.715773 0.065964 -0.002068
C 121.096911 0.085145 0.002281
C 119.844640 0.065964 -0.002068
C 122.410579 0.084379 0.004213
C 123.913712 0.065964 -0.002068
C 82.766020 -0.054032 0.000262
C 83.559806 -0.404003 1.326622
C 83.052054 -1.019074 2.453327
C 84.089271 -1.055048 3.420160
C 85.199925 -0.467729 2.851294
N 84.889171 -0.144908 1.554034
C 86.590065 -0.200650 3.562866
C 86.579551 -0.019479 5.032531
C 86.129601 1.174327 5.593097
C 86.091487 1.338414 6.985875
C 86.481420 0.314683 7.868821
N 86.443369 0.458991 9.271158
C 85.968107 1.726167 9.817340
C 86.026663 -0.731484 10.012787
C 86.957074 -0.870109 7.274387
C 86.999756 -1.041122 5.883343
C 87.724685 -0.098903 2.821716
C 89.011294 0.201560 3.414964
C 89.919210 0.244564 2.445880
N 87.932802 -0.219479 1.475496
C 89.257068 -0.027506 1.185753
C 89.920658 -0.054032 0.000262
C 89.126859 -0.353140 -1.338501
C 89.634265 -0.926984 -2.487147
C 88.597353 -0.925816 -3.454970
C 87.487185 -0.358648 -2.864582
N 87.797828 -0.085248 -1.556019
C 86.097418 -0.063710 -3.565824
C 86.108391 0.170000 -5.028039
C 86.567757 1.378349 -5.547001
C 86.605189 1.589924 -6.933696
C 86.204983 0.602751 -7.854440
N 86.242066 0.807612 -9.247690
C 86.420507 -0.379844 -10.081182
C 86.869020 2.026459 -9.750219
C 85.721184 -0.597787 -7.298756
C 85.680047 -0.817481 -5.914002
C 84.962680 0.010592 -2.821185
C 83.675871 0.333367 -3.402265
C 82.767851 0.338965 -2.432105
C 83.430027 0.018876 -1.183377
N 84.754713 -0.160749 -1.480301
H 82.042737 -1.380816 2.577215
H 84.028084 -1.444741 4.425240
H 85.550568 0.195527 0.861838
H 85.806278 1.979613 4.936878
H 85.727863 2.293835 7.347126
H 86.087286 1.741897 10.907251
H 86.555808 2.569776 9.437494
H 84.906338 1.884637 9.595732
H 86.773736 -1.529020 9.951857
H 85.061140 -1.106743 9.653605
H 85.917311 -0.506308 11.080455
H 87.329505 -1.689327 7.879861
H 87.369697 -1.969924 5.454119
H 89.205399 0.372964 4.458965
H 90.963352 0.451703 2.592141
H 90.643343 -1.285240 -2.623736
H 88.658038 -1.277735 -4.473989
H 87.137283 0.231085 -0.851125
H 86.898005 2.158180 -4.863890
H 86.972859 2.556245 -7.260246
H 87.313779 -0.943219 -9.787778
H 85.542179 -1.032741 -10.040824
H 86.539776 -0.105339 -11.135989
H 87.936078 2.057202 -9.502732
H 86.780361 2.087009 -10.841117
H 86.371969 2.921470 -9.359504
H 85.347874 -1.398837 -7.926873
H 85.306065 -1.759006 -5.517449
H 83.481205 0.544375 -4.438712
H 81.723482 0.551476 -2.570026
C 96.963959 -0.054032 0.000262
C 97.757745 -0.404003 1.326622
C 97.249994 -1.019074 2.453327
C 98.287210 -1.055048 3.420160
C 99.397864 -0.467729 2.851294
N 99.087110 -0.144908 1.554034
C 100.788005 -0.200650 3.562866
C 100.777490 -0.019479 5.032531
C 100.327540 1.174327 5.593097
C 100.289427 1.338414 6.985875
C 100.679360 0.314683 7.868821
N 100.641308 0.458991 9.271158
C 100.166047 1.726167 9.817340
C 100.224602 -0.731484 10.012787
C 101.155013 -0.870109 7.274387
C 101.197695 -1.041122 5.883343
C 101.922624 -0.098903 2.821716
C 103.209234 0.201560 3.414964
C 104.117149 0.244564 2.445880
N 102.130741 -0.219479 1.475496
C 103.455007 -0.027506 1.185753
C 104.118597 -0.054032 0.000262
C 103.324799 -0.353140 -1.338501
C 103.832205 -0.926984 -2.487147
C 102.795293 -0.925816 -3.454970
C 101.685124 -0.358648 -2.864582
N 101.995768 -0.085248 -1.556019
C 100.295357 -0.063710 -3.565824
C 100.306330 0.170000 -5.028039
C 100.765696 1.378349 -5.547001
C 100.803129 1.589924 -6.933696
C 100.402922 0.602751 -7.854440
N 100.440005 0.807612 -9.247690
C 100.618447 -0.379844 -10.081182
C 101.066959 2.026459 -9.750219
C 99.919123 -0.597787 -7.298756
C 99.877986 -0.817481 -5.914002
C 99.160619 0.010592 -2.821185
C 97.873811 0.333367 -3.402265
C 96.965790 0.338965 -2.432105
C 97.627966 0.018876 -1.183377
N 98.952652 -0.160749 -1.480301
H 96.240676 -1.380816 2.577215
H 98.226023 -1.444741 4.425240
H 99.748507 0.195527 0.861838
H 100.004217 1.979613 4.936878
H 99.925803 2.293835 7.347126
H 100.285225 1.741897 10.907251
H 100.753747 2.569776 9.437494
H 99.104277 1.884637 9.595732
H 100.971675 -1.529020 9.951857
H 99.259080 -1.106743 9.653605
H 100.115250 -0.506308 11.080455
H 101.527445 -1.689327 7.879861
H 101.567636 -1.969924 5.454119
H 103.403339 0.372964 4.458965
H 105.161291 0.451703 2.592141
H 104.841282 -1.285240 -2.623736
H 102.855977 -1.277735 -4.473989
H 101.335223 0.231085 -0.851125
H 101.095944 2.158180 -4.863890
H 101.170798 2.556245 -7.260246
H 101.511719 -0.943219 -9.787778
H 99.740119 -1.032741 -10.040824
H 100.737715 -0.105339 -11.135989
H 102.134017 2.057202 -9.502732
H 100.978301 2.087009 -10.841117
H 100.569909 2.921470 -9.359504
H 99.545813 -1.398837 -7.926873
H 99.504004 -1.759006 -5.517449
H 97.679145 0.544375 -4.438712
H 95.921421 0.551476 -2.570026
C 111.161898 -0.054032 0.000262
C 111.955685 -0.404003 1.326622
C 111.447933 -1.019074 2.453327
C 112.485150 -1.055048 3.420160
C 113.595804 -0.467729 2.851294
N 113.285049 -0.144908 1.554034
C 114.985944 -0.200650 3.562866
C 114.975430 -0.019479 5.032531
C 114.525480 1.174327 5.593097
C 114.487366 1.338414 6.985875
C 114.877299 0.314683 7.868821
N 114.839248 0.458991 9.271158
C 114.363986 1.726167 9.817340
C 114.422541 -0.731484 10.012787
C 115.352952 -0.870109 7.274387
C 115.395635 -1.041122 5.883343
C 116.120563 -0.098903 2.821716
C 117.407173 0.201560 3.414964
C 118.315089 0.244564 2.445880
N 116.328681 -0.219479 1.475496
C 117.652947 -0.027506 1.185753
C 118.316537 -0.054032 0.000262
C 117.522738 -0.353140 -1.338501
C 118.030144 -0.926984 -2.487147
C 116.993232 -0.925816 -3.454970
C 115.883064 -0.358648 -2.864582
N 116.193707 -0.085248 -1.556019
C 114.493297 -0.063710 -3.565824
C 114.504270 0.170000 -5.028039
C 114.963635 1.378349 -5.547001
C 115.001068 1.589924 -6.933696
C 114.600861 0.602751 -7.854440
N 114.637944 0.807612 -9.247690
C 114.816386 -0.379844 -10.081182
C 115.264898 2.026459 -9.750219
C 114.117062 -0.597787 -7.298756
C 114.075926 -0.817481 -5.914002
C 113.358558 0.010592 -2.821185
C 112.071750 0.333367 -3.402265
C 111.163730 0.338965 -2.432105
C 111.825906 0.018876 -1.183377
N 113.150591 -0.160749 -1.480301
H 110.438616 -1.380816 2.577215
H 112.423962 -1.444741 4.425240
H 113.946447 0.195527 0.861838
H 114.202157 1.979613 4.936878
H 114.123742 2.293835 7.347126
H 114.483164 1.741897 10.907251
H 114.951687 2.569776 9.437494
H 113.302216 1.884637 9.595732
H 115.169614 -1.529020 9.951857
H 113.457019 -1.106743 9.653605
H 114.313190 -0.506308 11.080455
H 115.725384 -1.689327 7.879861
H 115.765575 -1.969924 5.454119
H 117.601278 0.372964 4.458965
H 119.359230 0.451703 2.592141
H 119.039222 -1.285240 -2.623736
H 117.053917 -1.277735 -4.473989
H 115.533162 0.231085 -0.851125
H 115.293884 2.158180 -4.863890
H 115.368738 2.556245 -7.260246
H 115.709658 -0.943219 -9.787778
H 113.938058 -1.032741 -10.040824
H 114.935655 -0.105339 -11.135989
H 116.331957 2.057202 -9.502732
H 115.176240 2.087009 -10.841117
H 114.767848 2.921470 -9.359504
H 113.743753 -1.398837 -7.926873
H 113.701944 -1.759006 -5.517449
H 111.877084 0.544375 -4.438712
H 110.119361 0.551476 -2.570026
