 xtb: 6.5.1 (b24c23e)
          07282211423D

378412  0     0  0            999 V2000
   70.2541   -0.1268    0.0586 C   0  0  0  0  0  0  0  0  0  0  0  0
   70.8607   -0.2456    1.3028 C   0  0  0  0  0  0  0  0  0  0  0  0
   70.2051   -0.3569    2.5603 C   0  0  0  0  0  0  0  0  0  0  0  0
   71.1651   -0.4606    3.5281 C   0  0  0  0  0  0  0  0  0  0  0  0
   72.4380   -0.4293    2.8915 C   0  0  0  0  0  0  0  0  0  0  0  0
   72.2034   -0.2865    1.5530 N   0  0  0  0  0  0  0  0  0  0  0  0
   73.7002   -0.5110    3.4938 C   0  0  0  0  0  0  0  0  0  0  0  0
   73.7253   -0.7034    4.9615 C   0  0  0  0  0  0  0  0  0  0  0  0
   74.3652    0.2132    5.7976 C   0  0  0  0  0  0  0  0  0  0  0  0
   74.3756    0.0461    7.1705 C   0  0  0  0  0  0  0  0  0  0  0  0
   73.7468   -1.0566    7.7680 C   0  0  0  0  0  0  0  0  0  0  0  0
   73.8007   -1.2608    9.1440 N   0  0  0  0  0  0  0  0  0  0  0  0
   74.1297   -0.1083    9.9833 C   0  0  0  0  0  0  0  0  0  0  0  0
   72.7991   -2.1541    9.7282 C   0  0  0  0  0  0  0  0  0  0  0  0
   73.1209   -1.9867    6.9243 C   0  0  0  0  0  0  0  0  0  0  0  0
   73.1062   -1.8059    5.5533 C   0  0  0  0  0  0  0  0  0  0  0  0
   74.9158   -0.4271    2.8090 C   0  0  0  0  0  0  0  0  0  0  0  0
   76.2134   -0.5909    3.4383 C   0  0  0  0  0  0  0  0  0  0  0  0
   77.1340   -0.4404    2.4629 C   0  0  0  0  0  0  0  0  0  0  0  0
   75.0702   -0.2047    1.4740 N   0  0  0  0  0  0  0  0  0  0  0  0
   76.3977   -0.1961    1.2384 C   0  0  0  0  0  0  0  0  0  0  0  0
   77.0353    0.0222   -0.0006 C   0  0  0  0  0  0  0  0  0  0  0  0
   76.4003    0.2168   -1.2430 C   0  0  0  0  0  0  0  0  0  0  0  0
   77.0455    0.4803   -2.4795 C   0  0  0  0  0  0  0  0  0  0  0  0
   76.0807    0.5997   -3.4421 C   0  0  0  0  0  0  0  0  0  0  0  0
   74.8161    0.4005   -2.8236 C   0  0  0  0  0  0  0  0  0  0  0  0
   75.0610    0.1825   -1.4929 N   0  0  0  0  0  0  0  0  0  0  0  0
   73.5558    0.4377   -3.4324 C   0  0  0  0  0  0  0  0  0  0  0  0
   73.5219    0.6553   -4.8955 C   0  0  0  0  0  0  0  0  0  0  0  0
   72.8265    1.7346   -5.4444 C   0  0  0  0  0  0  0  0  0  0  0  0
   72.7946    1.9478   -6.8102 C   0  0  0  0  0  0  0  0  0  0  0  0
   73.4558    1.0791   -7.6918 C   0  0  0  0  0  0  0  0  0  0  0  0
   73.3750    1.2554   -9.0698 N   0  0  0  0  0  0  0  0  0  0  0  0
   74.3731    0.5750   -9.8954 C   0  0  0  0  0  0  0  0  0  0  0  0
   73.0045    2.5845   -9.5575 C   0  0  0  0  0  0  0  0  0  0  0  0
   74.1409   -0.0137   -7.1392 C   0  0  0  0  0  0  0  0  0  0  0  0
   74.1772   -0.2126   -5.7711 C   0  0  0  0  0  0  0  0  0  0  0  0
   72.3406    0.2847   -2.7538 C   0  0  0  0  0  0  0  0  0  0  0  0
   71.0399    0.2492   -3.4035 C   0  0  0  0  0  0  0  0  0  0  0  0
   70.1263    0.0939   -2.4236 C   0  0  0  0  0  0  0  0  0  0  0  0
   70.8682    0.0221   -1.1779 C   0  0  0  0  0  0  0  0  0  0  0  0
   72.1989    0.1291   -1.4162 N   0  0  0  0  0  0  0  0  0  0  0  0
   69.1689   -0.1535    0.0634 H   0  0  0  0  0  0  0  0  0  0  0  0
   69.1351   -0.3488    2.6951 H   0  0  0  0  0  0  0  0  0  0  0  0
   71.0091   -0.5407    4.5917 H   0  0  0  0  0  0  0  0  0  0  0  0
   72.9315   -0.2145    0.8502 H   0  0  0  0  0  0  0  0  0  0  0  0
   74.8427    1.0863    5.3663 H   0  0  0  0  0  0  0  0  0  0  0  0
   74.8823    0.7900    7.7717 H   0  0  0  0  0  0  0  0  0  0  0  0
   73.4399    0.7255    9.8113 H   0  0  0  0  0  0  0  0  0  0  0  0
   74.0752   -0.4071   11.0296 H   0  0  0  0  0  0  0  0  0  0  0  0
   75.1502    0.2151    9.7764 H   0  0  0  0  0  0  0  0  0  0  0  0
   71.7819   -1.8455    9.4623 H   0  0  0  0  0  0  0  0  0  0  0  0
   72.9711   -3.1739    9.3825 H   0  0  0  0  0  0  0  0  0  0  0  0
   72.9042   -2.1423   10.8124 H   0  0  0  0  0  0  0  0  0  0  0  0
   72.6428   -2.8695    7.3290 H   0  0  0  0  0  0  0  0  0  0  0  0
   72.6247   -2.5490    4.9265 H   0  0  0  0  0  0  0  0  0  0  0  0
   76.3771   -0.8102    4.4810 H   0  0  0  0  0  0  0  0  0  0  0  0
   78.2084   -0.4956    2.5377 H   0  0  0  0  0  0  0  0  0  0  0  0
   78.1121    0.5734   -2.6061 H   0  0  0  0  0  0  0  0  0  0  0  0
   76.2300    0.8192   -4.4867 H   0  0  0  0  0  0  0  0  0  0  0  0
   74.3377    0.0313   -0.7974 H   0  0  0  0  0  0  0  0  0  0  0  0
   72.3211    2.4338   -4.7870 H   0  0  0  0  0  0  0  0  0  0  0  0
   72.2432    2.8020   -7.1815 H   0  0  0  0  0  0  0  0  0  0  0  0
   74.2266    0.8632  -10.9358 H   0  0  0  0  0  0  0  0  0  0  0  0
   75.3928    0.8352   -9.5905 H   0  0  0  0  0  0  0  0  0  0  0  0
   74.2357   -0.5042   -9.8207 H   0  0  0  0  0  0  0  0  0  0  0  0
   71.9764    2.8068   -9.2699 H   0  0  0  0  0  0  0  0  0  0  0  0
   73.0601    2.5897  -10.6455 H   0  0  0  0  0  0  0  0  0  0  0  0
   73.6704    3.3585   -9.1601 H   0  0  0  0  0  0  0  0  0  0  0  0
   74.6495   -0.7285   -7.7732 H   0  0  0  0  0  0  0  0  0  0  0  0
   74.7035   -1.0746   -5.3753 H   0  0  0  0  0  0  0  0  0  0  0  0
   70.8726    0.3165   -4.4665 H   0  0  0  0  0  0  0  0  0  0  0  0
   69.0530    0.0211   -2.5060 H   0  0  0  0  0  0  0  0  0  0  0  0
  130.8167   -0.1139   -0.1136 C   0  0  0  0  0  0  0  0  0  0  0  0
  130.2109    0.0541   -1.3525 C   0  0  0  0  0  0  0  0  0  0  0  0
  130.8673    0.2290   -2.6023 C   0  0  0  0  0  0  0  0  0  0  0  0
  129.9079    0.3485   -3.5689 C   0  0  0  0  0  0  0  0  0  0  0  0
  128.6345    0.2372   -2.9422 C   0  0  0  0  0  0  0  0  0  0  0  0
  128.8683    0.0732   -1.6060 N   0  0  0  0  0  0  0  0  0  0  0  0
  127.3727    0.2954   -3.5480 C   0  0  0  0  0  0  0  0  0  0  0  0
  127.3495    0.4424   -5.0211 C   0  0  0  0  0  0  0  0  0  0  0  0
  126.7152    1.5286   -5.6265 C   0  0  0  0  0  0  0  0  0  0  0  0
  126.7112    1.6817   -7.0010 C   0  0  0  0  0  0  0  0  0  0  0  0
  127.3406    0.7440   -7.8336 C   0  0  0  0  0  0  0  0  0  0  0  0
  127.2940    0.8666   -9.2197 N   0  0  0  0  0  0  0  0  0  0  0  0
  127.0068    2.1936   -9.7661 C   0  0  0  0  0  0  0  0  0  0  0  0
  128.2771    0.1072   -9.9935 C   0  0  0  0  0  0  0  0  0  0  0  0
  127.9582   -0.3585   -7.2241 C   0  0  0  0  0  0  0  0  0  0  0  0
  127.9671   -0.4976   -5.8481 C   0  0  0  0  0  0  0  0  0  0  0  0
  126.1566    0.2232   -2.8629 C   0  0  0  0  0  0  0  0  0  0  0  0
  124.8596    0.2062   -3.5138 C   0  0  0  0  0  0  0  0  0  0  0  0
  123.9382    0.1328   -2.5303 C   0  0  0  0  0  0  0  0  0  0  0  0
  126.0012    0.1391   -1.5122 N   0  0  0  0  0  0  0  0  0  0  0  0
  124.6735    0.0953   -1.2817 C   0  0  0  0  0  0  0  0  0  0  0  0
  124.0353    0.0352   -0.0254 C   0  0  0  0  0  0  0  0  0  0  0  0
  124.6700   -0.0484    1.2296 C   0  0  0  0  0  0  0  0  0  0  0  0
  124.0248   -0.0627    2.4937 C   0  0  0  0  0  0  0  0  0  0  0  0
  124.9891   -0.1658    3.4587 C   0  0  0  0  0  0  0  0  0  0  0  0
  126.2533   -0.2300    2.8114 C   0  0  0  0  0  0  0  0  0  0  0  0
  126.0089   -0.1440    1.4655 N   0  0  0  0  0  0  0  0  0  0  0  0
  127.5128   -0.3398    3.4131 C   0  0  0  0  0  0  0  0  0  0  0  0
  127.5450   -0.4594    4.8874 C   0  0  0  0  0  0  0  0  0  0  0  0
  128.2471    0.4619    5.6672 C   0  0  0  0  0  0  0  0  0  0  0  0
  128.2761    0.3606    7.0459 C   0  0  0  0  0  0  0  0  0  0  0  0
  127.6046   -0.6789    7.7072 C   0  0  0  0  0  0  0  0  0  0  0  0
  127.6786   -0.8209    9.0895 N   0  0  0  0  0  0  0  0  0  0  0  0
  126.6511   -1.6382    9.7361 C   0  0  0  0  0  0  0  0  0  0  0  0
  128.0841    0.3505    9.8668 C   0  0  0  0  0  0  0  0  0  0  0  0
  126.9136   -1.6133    6.9207 C   0  0  0  0  0  0  0  0  0  0  0  0
  126.8805   -1.4977    5.5430 C   0  0  0  0  0  0  0  0  0  0  0  0
  128.7282   -0.3431    2.7178 C   0  0  0  0  0  0  0  0  0  0  0  0
  130.0276   -0.5326    3.3429 C   0  0  0  0  0  0  0  0  0  0  0  0
  130.9420   -0.4650    2.3537 C   0  0  0  0  0  0  0  0  0  0  0  0
  130.2016   -0.2479    1.1241 C   0  0  0  0  0  0  0  0  0  0  0  0
  128.8711   -0.1915    1.3799 N   0  0  0  0  0  0  0  0  0  0  0  0
  131.9018   -0.1418   -0.1239 H   0  0  0  0  0  0  0  0  0  0  0  0
  131.9374    0.2655   -2.7314 H   0  0  0  0  0  0  0  0  0  0  0  0
  130.0646    0.5105   -4.6231 H   0  0  0  0  0  0  0  0  0  0  0  0
  128.1399   -0.0142   -0.9053 H   0  0  0  0  0  0  0  0  0  0  0  0
  126.2373    2.2805   -5.0079 H   0  0  0  0  0  0  0  0  0  0  0  0
  126.2082    2.5448   -7.4176 H   0  0  0  0  0  0  0  0  0  0  0  0
  127.7073    2.9453   -9.3854 H   0  0  0  0  0  0  0  0  0  0  0  0
  127.0826    2.1523  -10.8521 H   0  0  0  0  0  0  0  0  0  0  0  0
  125.9876    2.4830   -9.5086 H   0  0  0  0  0  0  0  0  0  0  0  0
  129.3009    0.3305   -9.6731 H   0  0  0  0  0  0  0  0  0  0  0  0
  128.0859   -0.9604   -9.8811 H   0  0  0  0  0  0  0  0  0  0  0  0
  128.1691    0.3609  -11.0475 H   0  0  0  0  0  0  0  0  0  0  0  0
  128.4362   -1.1265   -7.8184 H   0  0  0  0  0  0  0  0  0  0  0  0
  128.4436   -1.3666   -5.4070 H   0  0  0  0  0  0  0  0  0  0  0  0
  124.6969    0.2284   -4.5793 H   0  0  0  0  0  0  0  0  0  0  0  0
  122.8638    0.0967   -2.6163 H   0  0  0  0  0  0  0  0  0  0  0  0
  122.9586    0.0059    2.6380 H   0  0  0  0  0  0  0  0  0  0  0  0
  124.8398   -0.1834    4.5260 H   0  0  0  0  0  0  0  0  0  0  0  0
  126.7321   -0.1412    0.7538 H   0  0  0  0  0  0  0  0  0  0  0  0
  128.7597    1.2877    5.1857 H   0  0  0  0  0  0  0  0  0  0  0  0
  128.8320    1.1050    7.6013 H   0  0  0  0  0  0  0  0  0  0  0  0
  126.7815   -1.5810   10.8161 H   0  0  0  0  0  0  0  0  0  0  0  0
  125.6433   -1.2952    9.4770 H   0  0  0  0  0  0  0  0  0  0  0  0
  126.7685   -2.6800    9.4355 H   0  0  0  0  0  0  0  0  0  0  0  0
  129.1158    0.6095    9.6266 H   0  0  0  0  0  0  0  0  0  0  0  0
  128.0353    0.1046   10.9270 H   0  0  0  0  0  0  0  0  0  0  0  0
  127.4354    1.2106    9.6671 H   0  0  0  0  0  0  0  0  0  0  0  0
  126.3989   -2.4495    7.3763 H   0  0  0  0  0  0  0  0  0  0  0  0
  126.3495   -2.2439    4.9617 H   0  0  0  0  0  0  0  0  0  0  0  0
  130.1935   -0.7102    4.3933 H   0  0  0  0  0  0  0  0  0  0  0  0
  132.0148   -0.5602    2.4179 H   0  0  0  0  0  0  0  0  0  0  0  0
   79.6628    0.0843   -0.0279 C   0  0  0  0  0  0  0  0  0  0  0  0
   78.4405    0.0534   -0.0122 C   0  0  0  0  0  0  0  0  0  0  0  0
   81.0113    0.1157   -0.0352 C   0  0  0  0  0  0  0  0  0  0  0  0
   82.2340    0.1422   -0.0422 C   0  0  0  0  0  0  0  0  0  0  0  0
   93.1257    0.2242   -0.0128 C   0  0  0  0  0  0  0  0  0  0  0  0
   91.9024    0.2286   -0.0104 C   0  0  0  0  0  0  0  0  0  0  0  0
   94.4742    0.2197   -0.0075 C   0  0  0  0  0  0  0  0  0  0  0  0
   95.6976    0.2165   -0.0074 C   0  0  0  0  0  0  0  0  0  0  0  0
  106.5954    0.2099    0.0228 C   0  0  0  0  0  0  0  0  0  0  0  0
  105.3720    0.2116    0.0210 C   0  0  0  0  0  0  0  0  0  0  0  0
  107.9438    0.2055    0.0294 C   0  0  0  0  0  0  0  0  0  0  0  0
  109.1672    0.2030    0.0320 C   0  0  0  0  0  0  0  0  0  0  0  0
  120.0592    0.1066    0.0344 C   0  0  0  0  0  0  0  0  0  0  0  0
  118.8365    0.1243    0.0512 C   0  0  0  0  0  0  0  0  0  0  0  0
  121.4078    0.0839    0.0185 C   0  0  0  0  0  0  0  0  0  0  0  0
  122.6302    0.0616   -0.0072 C   0  0  0  0  0  0  0  0  0  0  0  0
   83.6382    0.1694   -0.0386 C   0  0  0  0  0  0  0  0  0  0  0  0
   84.2614    0.0844    1.2223 C   0  0  0  0  0  0  0  0  0  0  0  0
   83.6096   -0.0596    2.4733 C   0  0  0  0  0  0  0  0  0  0  0  0
   84.5700   -0.0736    3.4487 C   0  0  0  0  0  0  0  0  0  0  0  0
   85.8360    0.0719    2.8206 C   0  0  0  0  0  0  0  0  0  0  0  0
   85.5994    0.1503    1.4738 N   0  0  0  0  0  0  0  0  0  0  0  0
   87.0912    0.1163    3.4432 C   0  0  0  0  0  0  0  0  0  0  0  0
   87.0939    0.0750    4.9233 C   0  0  0  0  0  0  0  0  0  0  0  0
   86.4234    1.0446    5.6713 C   0  0  0  0  0  0  0  0  0  0  0  0
   86.4205    1.0087    7.0537 C   0  0  0  0  0  0  0  0  0  0  0  0
   87.0788   -0.0160    7.7502 C   0  0  0  0  0  0  0  0  0  0  0  0
   87.1144   -0.0300    9.1417 N   0  0  0  0  0  0  0  0  0  0  0  0
   86.0821    0.7314    9.8464 C   0  0  0  0  0  0  0  0  0  0  0  0
   87.4697   -1.2918    9.7921 C   0  0  0  0  0  0  0  0  0  0  0  0
   87.7583   -0.9850    6.9965 C   0  0  0  0  0  0  0  0  0  0  0  0
   87.7660   -0.9346    5.6146 C   0  0  0  0  0  0  0  0  0  0  0  0
   88.3181    0.1935    2.7803 C   0  0  0  0  0  0  0  0  0  0  0  0
   89.5972    0.3089    3.4565 C   0  0  0  0  0  0  0  0  0  0  0  0
   90.5403    0.3343    2.4911 C   0  0  0  0  0  0  0  0  0  0  0  0
   88.5039    0.1795    1.4308 N   0  0  0  0  0  0  0  0  0  0  0  0
   89.8351    0.2488    1.2285 C   0  0  0  0  0  0  0  0  0  0  0  0
   90.4982    0.2306   -0.0160 C   0  0  0  0  0  0  0  0  0  0  0  0
   89.8758    0.2143   -1.2804 C   0  0  0  0  0  0  0  0  0  0  0  0
   90.5294    0.1557   -2.5374 C   0  0  0  0  0  0  0  0  0  0  0  0
   89.5689    0.1792   -3.5126 C   0  0  0  0  0  0  0  0  0  0  0  0
   88.3006    0.2640   -2.8780 C   0  0  0  0  0  0  0  0  0  0  0  0
   88.5367    0.2699   -1.5286 N   0  0  0  0  0  0  0  0  0  0  0  0
   87.0441    0.3192   -3.4971 C   0  0  0  0  0  0  0  0  0  0  0  0
   87.0362    0.3535   -4.9772 C   0  0  0  0  0  0  0  0  0  0  0  0
   87.6905    1.3670   -5.6802 C   0  0  0  0  0  0  0  0  0  0  0  0
   87.6818    1.4011   -7.0626 C   0  0  0  0  0  0  0  0  0  0  0  0
   87.0271    0.4068   -7.8054 C   0  0  0  0  0  0  0  0  0  0  0  0
   86.9784    0.4680   -9.1950 N   0  0  0  0  0  0  0  0  0  0  0  0
   86.5950   -0.7487   -9.9111 C   0  0  0  0  0  0  0  0  0  0  0  0
   88.0167    1.2511   -9.8671 C   0  0  0  0  0  0  0  0  0  0  0  0
   86.3656   -0.6076   -7.0968 C   0  0  0  0  0  0  0  0  0  0  0  0
   86.3700   -0.6276   -5.7141 C   0  0  0  0  0  0  0  0  0  0  0  0
   85.8164    0.3394   -2.8304 C   0  0  0  0  0  0  0  0  0  0  0  0
   84.5350    0.4749   -3.4989 C   0  0  0  0  0  0  0  0  0  0  0  0
   83.5923    0.4284   -2.5340 C   0  0  0  0  0  0  0  0  0  0  0  0
   84.2996    0.2782   -1.2789 C   0  0  0  0  0  0  0  0  0  0  0  0
   85.6320    0.2431   -1.4846 N   0  0  0  0  0  0  0  0  0  0  0  0
   82.5428   -0.1469    2.6024 H   0  0  0  0  0  0  0  0  0  0  0  0
   84.4153   -0.1873    4.5093 H   0  0  0  0  0  0  0  0  0  0  0  0
   86.3224    0.2358    0.7673 H   0  0  0  0  0  0  0  0  0  0  0  0
   85.9145    1.8556    5.1614 H   0  0  0  0  0  0  0  0  0  0  0  0
   85.9017    1.7967    7.5845 H   0  0  0  0  0  0  0  0  0  0  0  0
   86.1843    0.5583   10.9171 H   0  0  0  0  0  0  0  0  0  0  0  0
   86.2219    1.7968    9.6609 H   0  0  0  0  0  0  0  0  0  0  0  0
   85.0764    0.4345    9.5287 H   0  0  0  0  0  0  0  0  0  0  0  0
   88.5047   -1.5444    9.5599 H   0  0  0  0  0  0  0  0  0  0  0  0
   86.8135   -2.1085    9.4715 H   0  0  0  0  0  0  0  0  0  0  0  0
   87.3856   -1.1685   10.8713 H   0  0  0  0  0  0  0  0  0  0  0  0
   88.2919   -1.7924    7.4812 H   0  0  0  0  0  0  0  0  0  0  0  0
   88.2838   -1.7087    5.0585 H   0  0  0  0  0  0  0  0  0  0  0  0
   89.7343    0.3783    4.5234 H   0  0  0  0  0  0  0  0  0  0  0  0
   91.6105    0.4144    2.5973 H   0  0  0  0  0  0  0  0  0  0  0  0
   91.5976    0.0963   -2.6707 H   0  0  0  0  0  0  0  0  0  0  0  0
   89.7253    0.1293   -4.5778 H   0  0  0  0  0  0  0  0  0  0  0  0
   87.8125    0.2994   -0.8188 H   0  0  0  0  0  0  0  0  0  0  0  0
   88.1939    2.1575   -5.1340 H   0  0  0  0  0  0  0  0  0  0  0  0
   88.1864    2.2210   -7.5574 H   0  0  0  0  0  0  0  0  0  0  0  0
   87.2540   -1.5880   -9.6622 H   0  0  0  0  0  0  0  0  0  0  0  0
   85.5653   -1.0088   -9.6642 H   0  0  0  0  0  0  0  0  0  0  0  0
   86.6479   -0.5584  -10.9826 H   0  0  0  0  0  0  0  0  0  0  0  0
   89.0195    0.9343   -9.5601 H   0  0  0  0  0  0  0  0  0  0  0  0
   87.9153    1.1225  -10.9441 H   0  0  0  0  0  0  0  0  0  0  0  0
   87.8843    2.3091   -9.6382 H   0  0  0  0  0  0  0  0  0  0  0  0
   85.8377   -1.3962   -7.6171 H   0  0  0  0  0  0  0  0  0  0  0  0
   85.8661   -1.4351   -5.1941 H   0  0  0  0  0  0  0  0  0  0  0  0
   84.3958    0.6064   -4.5597 H   0  0  0  0  0  0  0  0  0  0  0  0
   82.5209    0.4979   -2.6353 H   0  0  0  0  0  0  0  0  0  0  0  0
   97.1017    0.2161   -0.0029 C   0  0  0  0  0  0  0  0  0  0  0  0
   97.7252    0.1442    1.2590 C   0  0  0  0  0  0  0  0  0  0  0  0
   97.0732    0.0266    2.5125 C   0  0  0  0  0  0  0  0  0  0  0  0
   98.0351    0.0061    3.4865 C   0  0  0  0  0  0  0  0  0  0  0  0
   99.3024    0.1227    2.8548 C   0  0  0  0  0  0  0  0  0  0  0  0
   99.0645    0.1902    1.5076 N   0  0  0  0  0  0  0  0  0  0  0  0
  100.5592    0.1527    3.4752 C   0  0  0  0  0  0  0  0  0  0  0  0
  100.5651    0.1199    4.9555 C   0  0  0  0  0  0  0  0  0  0  0  0
   99.9094    1.1015    5.7010 C   0  0  0  0  0  0  0  0  0  0  0  0
   99.9117    1.0725    7.0835 C   0  0  0  0  0  0  0  0  0  0  0  0
  100.5610    0.0438    7.7828 C   0  0  0  0  0  0  0  0  0  0  0  0
  100.6002    0.0393    9.1741 N   0  0  0  0  0  0  0  0  0  0  0  0
   99.5592    0.7932    9.8747 C   0  0  0  0  0  0  0  0  0  0  0  0
  100.9736   -1.2121    9.8337 C   0  0  0  0  0  0  0  0  0  0  0  0
  101.2262   -0.9369    7.0317 C   0  0  0  0  0  0  0  0  0  0  0  0
  101.2283   -0.8938    5.6494 C   0  0  0  0  0  0  0  0  0  0  0  0
  101.7868    0.2101    2.8112 C   0  0  0  0  0  0  0  0  0  0  0  0
  103.0668    0.3188    3.4869 C   0  0  0  0  0  0  0  0  0  0  0  0
  104.0102    0.3318    2.5217 C   0  0  0  0  0  0  0  0  0  0  0  0
  101.9727    0.1855    1.4620 N   0  0  0  0  0  0  0  0  0  0  0  0
  103.3046    0.2436    1.2596 C   0  0  0  0  0  0  0  0  0  0  0  0
  103.9679    0.2138    0.0155 C   0  0  0  0  0  0  0  0  0  0  0  0
  103.3446    0.1858   -1.2483 C   0  0  0  0  0  0  0  0  0  0  0  0
  103.9965    0.1117   -2.5052 C   0  0  0  0  0  0  0  0  0  0  0  0
  103.0345    0.1252   -3.4792 C   0  0  0  0  0  0  0  0  0  0  0  0
  101.7673    0.2197   -2.8437 C   0  0  0  0  0  0  0  0  0  0  0  0
  102.0053    0.2407   -1.4950 N   0  0  0  0  0  0  0  0  0  0  0  0
  100.5104    0.2702   -3.4626 C   0  0  0  0  0  0  0  0  0  0  0  0
  100.5047    0.2880   -4.9433 C   0  0  0  0  0  0  0  0  0  0  0  0
  101.1555    1.2978   -5.6545 C   0  0  0  0  0  0  0  0  0  0  0  0
  101.1528    1.3169   -7.0372 C   0  0  0  0  0  0  0  0  0  0  0  0
  100.5085    0.3097   -7.7716 C   0  0  0  0  0  0  0  0  0  0  0  0
  100.4668    0.3515   -9.1623 N   0  0  0  0  0  0  0  0  0  0  0  0
  100.1214   -0.8862   -9.8622 C   0  0  0  0  0  0  0  0  0  0  0  0
  101.4880    1.1519   -9.8396 C   0  0  0  0  0  0  0  0  0  0  0  0
   99.8489   -0.7000   -7.0546 C   0  0  0  0  0  0  0  0  0  0  0  0
   99.8466   -0.7046   -5.6718 C   0  0  0  0  0  0  0  0  0  0  0  0
   99.2828    0.3043   -2.7972 C   0  0  0  0  0  0  0  0  0  0  0  0
   98.0027    0.4341   -3.4692 C   0  0  0  0  0  0  0  0  0  0  0  0
   97.0592    0.4154   -2.5041 C   0  0  0  0  0  0  0  0  0  0  0  0
   97.7648    0.2865   -1.2455 C   0  0  0  0  0  0  0  0  0  0  0  0
   99.0967    0.2351   -1.4496 N   0  0  0  0  0  0  0  0  0  0  0  0
   96.0053   -0.0408    2.6443 H   0  0  0  0  0  0  0  0  0  0  0  0
   97.8802   -0.0935    4.5484 H   0  0  0  0  0  0  0  0  0  0  0  0
   99.7873    0.2551    0.7986 H   0  0  0  0  0  0  0  0  0  0  0  0
   99.4091    1.9166    5.1890 H   0  0  0  0  0  0  0  0  0  0  0  0
   99.4059    1.8697    7.6129 H   0  0  0  0  0  0  0  0  0  0  0  0
   99.6511    0.6127   10.9450 H   0  0  0  0  0  0  0  0  0  0  0  0
   99.6973    1.8604    9.6980 H   0  0  0  0  0  0  0  0  0  0  0  0
   98.5578    0.4956    9.5447 H   0  0  0  0  0  0  0  0  0  0  0  0
  102.0058   -1.4616    9.5862 H   0  0  0  0  0  0  0  0  0  0  0  0
  100.3164   -2.0367    9.5358 H   0  0  0  0  0  0  0  0  0  0  0  0
  100.9083   -1.0750   10.9126 H   0  0  0  0  0  0  0  0  0  0  0  0
  101.7518   -1.7486    7.5180 H   0  0  0  0  0  0  0  0  0  0  0  0
  101.7344   -1.6769    5.0953 H   0  0  0  0  0  0  0  0  0  0  0  0
  103.2046    0.3938    4.5534 H   0  0  0  0  0  0  0  0  0  0  0  0
  105.0810    0.4043    2.6276 H   0  0  0  0  0  0  0  0  0  0  0  0
  105.0643    0.0488   -2.6393 H   0  0  0  0  0  0  0  0  0  0  0  0
  103.1891    0.0629   -4.5440 H   0  0  0  0  0  0  0  0  0  0  0  0
  101.2825    0.2809   -0.7841 H   0  0  0  0  0  0  0  0  0  0  0  0
  101.6524    2.0968   -5.1146 H   0  0  0  0  0  0  0  0  0  0  0  0
  101.6553    2.1342   -7.5383 H   0  0  0  0  0  0  0  0  0  0  0  0
  100.7903   -1.7075   -9.5819 H   0  0  0  0  0  0  0  0  0  0  0  0
   99.0916   -1.1612   -9.6323 H   0  0  0  0  0  0  0  0  0  0  0  0
  100.1945   -0.7165  -10.9359 H   0  0  0  0  0  0  0  0  0  0  0  0
  102.4979    0.8556   -9.5350 H   0  0  0  0  0  0  0  0  0  0  0  0
  101.3856    1.0181  -10.9159 H   0  0  0  0  0  0  0  0  0  0  0  0
  101.3356    2.2077   -9.6137 H   0  0  0  0  0  0  0  0  0  0  0  0
   99.3269   -1.4965   -7.5689 H   0  0  0  0  0  0  0  0  0  0  0  0
   99.3441   -1.5086   -5.1450 H   0  0  0  0  0  0  0  0  0  0  0  0
   97.8651    0.5431   -4.5328 H   0  0  0  0  0  0  0  0  0  0  0  0
   95.9885    0.4907   -2.6076 H   0  0  0  0  0  0  0  0  0  0  0  0
  110.5714    0.1988    0.0365 C   0  0  0  0  0  0  0  0  0  0  0  0
  111.1947    0.1277    1.2986 C   0  0  0  0  0  0  0  0  0  0  0  0
  110.5418    0.0185    2.5525 C   0  0  0  0  0  0  0  0  0  0  0  0
  111.5033   -0.0049    3.5268 C   0  0  0  0  0  0  0  0  0  0  0  0
  112.7715    0.1007    2.8950 C   0  0  0  0  0  0  0  0  0  0  0  0
  112.5342    0.1660    1.5474 N   0  0  0  0  0  0  0  0  0  0  0  0
  114.0284    0.1217    3.5152 C   0  0  0  0  0  0  0  0  0  0  0  0
  114.0355    0.0941    4.9957 C   0  0  0  0  0  0  0  0  0  0  0  0
  113.3918    1.0858    5.7381 C   0  0  0  0  0  0  0  0  0  0  0  0
  113.3986    1.0646    7.1208 C   0  0  0  0  0  0  0  0  0  0  0  0
  114.0404    0.0336    7.8236 C   0  0  0  0  0  0  0  0  0  0  0  0
  114.0880    0.0358    9.2147 N   0  0  0  0  0  0  0  0  0  0  0  0
  113.0729    0.8209    9.9187 C   0  0  0  0  0  0  0  0  0  0  0  0
  114.4319   -1.2222    9.8783 C   0  0  0  0  0  0  0  0  0  0  0  0
  114.6918   -0.9587    7.0754 C   0  0  0  0  0  0  0  0  0  0  0  0
  114.6897   -0.9232    5.6930 C   0  0  0  0  0  0  0  0  0  0  0  0
  115.2561    0.1659    2.8499 C   0  0  0  0  0  0  0  0  0  0  0  0
  116.5383    0.2621    3.5236 C   0  0  0  0  0  0  0  0  0  0  0  0
  117.4803    0.2632    2.5569 C   0  0  0  0  0  0  0  0  0  0  0  0
  115.4395    0.1375    1.5008 N   0  0  0  0  0  0  0  0  0  0  0  0
  116.7718    0.1810    1.2961 C   0  0  0  0  0  0  0  0  0  0  0  0
  117.4321    0.1437    0.0512 C   0  0  0  0  0  0  0  0  0  0  0  0
  116.8081    0.1239   -1.2121 C   0  0  0  0  0  0  0  0  0  0  0  0
  117.4599    0.0466   -2.4690 C   0  0  0  0  0  0  0  0  0  0  0  0
  116.4987    0.0713   -3.4433 C   0  0  0  0  0  0  0  0  0  0  0  0
  115.2321    0.1756   -2.8081 C   0  0  0  0  0  0  0  0  0  0  0  0
  115.4695    0.1916   -1.4593 N   0  0  0  0  0  0  0  0  0  0  0  0
  113.9759    0.2367   -3.4273 C   0  0  0  0  0  0  0  0  0  0  0  0
  113.9724    0.2580   -4.9078 C   0  0  0  0  0  0  0  0  0  0  0  0
  114.6347    1.2637   -5.6146 C   0  0  0  0  0  0  0  0  0  0  0  0
  114.6398    1.2838   -6.9972 C   0  0  0  0  0  0  0  0  0  0  0  0
  113.9922    0.2819   -7.7359 C   0  0  0  0  0  0  0  0  0  0  0  0
  113.9624    0.3253   -9.1270 N   0  0  0  0  0  0  0  0  0  0  0  0
  113.5966   -0.9040   -9.8311 C   0  0  0  0  0  0  0  0  0  0  0  0
  115.0090    1.1020   -9.7937 C   0  0  0  0  0  0  0  0  0  0  0  0
  113.3193   -0.7222   -7.0236 C   0  0  0  0  0  0  0  0  0  0  0  0
  113.3096   -0.7280   -5.6406 C   0  0  0  0  0  0  0  0  0  0  0  0
  112.7491    0.2766   -2.7609 C   0  0  0  0  0  0  0  0  0  0  0  0
  111.4688    0.4123   -3.4312 C   0  0  0  0  0  0  0  0  0  0  0  0
  110.5266    0.3972   -2.4648 C   0  0  0  0  0  0  0  0  0  0  0  0
  111.2334    0.2651   -1.2070 C   0  0  0  0  0  0  0  0  0  0  0  0
  112.5646    0.2080   -1.4130 N   0  0  0  0  0  0  0  0  0  0  0  0
  109.4734   -0.0414    2.6842 H   0  0  0  0  0  0  0  0  0  0  0  0
  111.3477   -0.0999    4.5890 H   0  0  0  0  0  0  0  0  0  0  0  0
  113.2580    0.2236    0.8388 H   0  0  0  0  0  0  0  0  0  0  0  0
  112.8976    1.9029    5.2233 H   0  0  0  0  0  0  0  0  0  0  0  0
  112.9019    1.8695    7.6470 H   0  0  0  0  0  0  0  0  0  0  0  0
  113.1787    0.6556   10.9903 H   0  0  0  0  0  0  0  0  0  0  0  0
  113.2294    1.8821    9.7228 H   0  0  0  0  0  0  0  0  0  0  0  0
  112.0606    0.5381    9.6096 H   0  0  0  0  0  0  0  0  0  0  0  0
  115.4594   -1.4947    9.6355 H   0  0  0  0  0  0  0  0  0  0  0  0
  113.7582   -2.0328    9.5787 H   0  0  0  0  0  0  0  0  0  0  0  0
  114.3649   -1.0820   10.9566 H   0  0  0  0  0  0  0  0  0  0  0  0
  115.2109   -1.7727    7.5647 H   0  0  0  0  0  0  0  0  0  0  0  0
  115.1861   -1.7144    5.1416 H   0  0  0  0  0  0  0  0  0  0  0  0
  116.6785    0.3371    4.5898 H   0  0  0  0  0  0  0  0  0  0  0  0
  118.5520    0.3241    2.6608 H   0  0  0  0  0  0  0  0  0  0  0  0
  118.5272   -0.0256   -2.6029 H   0  0  0  0  0  0  0  0  0  0  0  0
  116.6535    0.0099   -4.5081 H   0  0  0  0  0  0  0  0  0  0  0  0
  114.7464    0.2369   -0.7491 H   0  0  0  0  0  0  0  0  0  0  0  0
  115.1350    2.0581   -5.0712 H   0  0  0  0  0  0  0  0  0  0  0  0
  115.1510    2.0977   -7.4952 H   0  0  0  0  0  0  0  0  0  0  0  0
  114.2528   -1.7370   -9.5552 H   0  0  0  0  0  0  0  0  0  0  0  0
  112.5629   -1.1633   -9.6005 H   0  0  0  0  0  0  0  0  0  0  0  0
  113.6705   -0.7309  -10.9042 H   0  0  0  0  0  0  0  0  0  0  0  0
  116.0079    0.7906   -9.4689 H   0  0  0  0  0  0  0  0  0  0  0  0
  114.9230    0.9605  -10.8704 H   0  0  0  0  0  0  0  0  0  0  0  0
  114.8717    2.1624   -9.5794 H   0  0  0  0  0  0  0  0  0  0  0  0
  112.7940   -1.5143   -7.5412 H   0  0  0  0  0  0  0  0  0  0  0  0
  112.7982   -1.5287   -5.1174 H   0  0  0  0  0  0  0  0  0  0  0  0
  111.3304    0.5220   -4.4946 H   0  0  0  0  0  0  0  0  0  0  0  0
  109.4561    0.4770   -2.5669 H   0  0  0  0  0  0  0  0  0  0  0  0
  1  2  4  0  0  0  0
  2  3  4  0  0  0  0
  3  4  2  0  0  0  0
  4  5  4  0  0  0  0
  2  6  4  0  0  0  0
  5  6  4  0  0  0  0
  5  7  4  0  0  0  0
  7  8  1  0  0  0  0
  8  9  4  0  0  0  0
  9 10  4  0  0  0  0
 10 11  4  0  0  0  0
 11 12  1  0  0  0  0
 12 13  1  0  0  0  0
 12 14  1  0  0  0  0
 11 15  4  0  0  0  0
  8 16  4  0  0  0  0
 15 16  4  0  0  0  0
  7 17  4  0  0  0  0
 17 18  1  0  0  0  0
 18 19  2  0  0  0  0
 17 20  4  0  0  0  0
 19 21  1  0  0  0  0
 20 21  4  0  0  0  0
 21 22  4  0  0  0  0
 22 23  4  0  0  0  0
 23 24  4  0  0  0  0
 24 25  2  0  0  0  0
 25 26  4  0  0  0  0
 23 27  4  0  0  0  0
 26 27  4  0  0  0  0
 26 28  4  0  0  0  0
 28 29  1  0  0  0  0
 29 30  4  0  0  0  0
 30 31  4  0  0  0  0
 31 32  4  0  0  0  0
 32 33  1  0  0  0  0
 33 34  1  0  0  0  0
 33 35  1  0  0  0  0
 32 36  4  0  0  0  0
 29 37  4  0  0  0  0
 36 37  4  0  0  0  0
 28 38  4  0  0  0  0
 38 39  1  0  0  0  0
 39 40  2  0  0  0  0
  1 41  4  0  0  0  0
 40 41  1  0  0  0  0
 38 42  4  0  0  0  0
 41 42  4  0  0  0  0
  1 43  1  0  0  0  0
  3 44  1  0  0  0  0
  4 45  1  0  0  0  0
  6 46  1  0  0  0  0
  9 47  1  0  0  0  0
 10 48  1  0  0  0  0
 13 49  1  0  0  0  0
 13 50  1  0  0  0  0
 13 51  1  0  0  0  0
 14 52  1  0  0  0  0
 14 53  1  0  0  0  0
 14 54  1  0  0  0  0
 15 55  1  0  0  0  0
 16 56  1  0  0  0  0
 18 57  1  0  0  0  0
 19 58  1  0  0  0  0
 24 59  1  0  0  0  0
 25 60  1  0  0  0  0
 27 61  1  0  0  0  0
 30 62  1  0  0  0  0
 31 63  1  0  0  0  0
 34 64  1  0  0  0  0
 34 65  1  0  0  0  0
 34 66  1  0  0  0  0
 35 67  1  0  0  0  0
 35 68  1  0  0  0  0
 35 69  1  0  0  0  0
 36 70  1  0  0  0  0
 37 71  1  0  0  0  0
 39 72  1  0  0  0  0
 40 73  1  0  0  0  0
 74 75  4  0  0  0  0
 75 76  4  0  0  0  0
 76 77  2  0  0  0  0
 77 78  4  0  0  0  0
 75 79  4  0  0  0  0
 78 79  4  0  0  0  0
 78 80  4  0  0  0  0
 80 81  1  0  0  0  0
 81 82  4  0  0  0  0
 82 83  4  0  0  0  0
 83 84  4  0  0  0  0
 84 85  1  0  0  0  0
 85 86  1  0  0  0  0
 85 87  1  0  0  0  0
 84 88  4  0  0  0  0
 81 89  4  0  0  0  0
 88 89  4  0  0  0  0
 80 90  4  0  0  0  0
 90 91  1  0  0  0  0
 91 92  2  0  0  0  0
 90 93  4  0  0  0  0
 92 94  1  0  0  0  0
 93 94  4  0  0  0  0
 94 95  4  0  0  0  0
 95 96  4  0  0  0  0
 96 97  4  0  0  0  0
 97 98  2  0  0  0  0
 98 99  4  0  0  0  0
 96100  4  0  0  0  0
 99100  4  0  0  0  0
 99101  4  0  0  0  0
101102  1  0  0  0  0
102103  4  0  0  0  0
103104  4  0  0  0  0
104105  4  0  0  0  0
105106  1  0  0  0  0
106107  1  0  0  0  0
106108  1  0  0  0  0
105109  4  0  0  0  0
102110  4  0  0  0  0
109110  4  0  0  0  0
101111  4  0  0  0  0
111112  1  0  0  0  0
112113  2  0  0  0  0
 74114  4  0  0  0  0
113114  1  0  0  0  0
111115  4  0  0  0  0
114115  4  0  0  0  0
 74116  1  0  0  0  0
 76117  1  0  0  0  0
 77118  1  0  0  0  0
 79119  1  0  0  0  0
 82120  1  0  0  0  0
 83121  1  0  0  0  0
 86122  1  0  0  0  0
 86123  1  0  0  0  0
 86124  1  0  0  0  0
 87125  1  0  0  0  0
 87126  1  0  0  0  0
 87127  1  0  0  0  0
 88128  1  0  0  0  0
 89129  1  0  0  0  0
 91130  1  0  0  0  0
 92131  1  0  0  0  0
 97132  1  0  0  0  0
 98133  1  0  0  0  0
100134  1  0  0  0  0
103135  1  0  0  0  0
104136  1  0  0  0  0
107137  1  0  0  0  0
107138  1  0  0  0  0
107139  1  0  0  0  0
108140  1  0  0  0  0
108141  1  0  0  0  0
108142  1  0  0  0  0
109143  1  0  0  0  0
110144  1  0  0  0  0
112145  1  0  0  0  0
113146  1  0  0  0  0
 22148  4  0  0  0  0
147148  3  0  0  0  0
147149  4  0  0  0  0
149150  3  0  0  0  0
151152  3  0  0  0  0
151153  4  0  0  0  0
153154  3  0  0  0  0
155156  3  0  0  0  0
155157  4  0  0  0  0
157158  3  0  0  0  0
159160  3  0  0  0  0
159161  4  0  0  0  0
 95162  4  0  0  0  0
161162  3  0  0  0  0
150163  4  0  0  0  0
163164  4  0  0  0  0
164165  4  0  0  0  0
165166  2  0  0  0  0
166167  4  0  0  0  0
164168  4  0  0  0  0
167168  4  0  0  0  0
167169  4  0  0  0  0
169170  1  0  0  0  0
170171  4  0  0  0  0
171172  4  0  0  0  0
172173  4  0  0  0  0
173174  1  0  0  0  0
174175  1  0  0  0  0
174176  1  0  0  0  0
173177  4  0  0  0  0
170178  4  0  0  0  0
177178  4  0  0  0  0
169179  4  0  0  0  0
179180  1  0  0  0  0
180181  2  0  0  0  0
179182  4  0  0  0  0
181183  1  0  0  0  0
182183  4  0  0  0  0
152184  4  0  0  0  0
183184  4  0  0  0  0
184185  4  0  0  0  0
185186  4  0  0  0  0
186187  2  0  0  0  0
187188  4  0  0  0  0
185189  4  0  0  0  0
188189  4  0  0  0  0
188190  4  0  0  0  0
190191  1  0  0  0  0
191192  4  0  0  0  0
192193  4  0  0  0  0
193194  4  0  0  0  0
194195  1  0  0  0  0
195196  1  0  0  0  0
195197  1  0  0  0  0
194198  4  0  0  0  0
191199  4  0  0  0  0
198199  4  0  0  0  0
190200  4  0  0  0  0
200201  1  0  0  0  0
201202  2  0  0  0  0
163203  4  0  0  0  0
202203  1  0  0  0  0
200204  4  0  0  0  0
203204  4  0  0  0  0
165205  1  0  0  0  0
166206  1  0  0  0  0
168207  1  0  0  0  0
171208  1  0  0  0  0
172209  1  0  0  0  0
175210  1  0  0  0  0
175211  1  0  0  0  0
175212  1  0  0  0  0
176213  1  0  0  0  0
176214  1  0  0  0  0
176215  1  0  0  0  0
177216  1  0  0  0  0
178217  1  0  0  0  0
180218  1  0  0  0  0
181219  1  0  0  0  0
186220  1  0  0  0  0
187221  1  0  0  0  0
189222  1  0  0  0  0
192223  1  0  0  0  0
193224  1  0  0  0  0
196225  1  0  0  0  0
196226  1  0  0  0  0
196227  1  0  0  0  0
197228  1  0  0  0  0
197229  1  0  0  0  0
197230  1  0  0  0  0
198231  1  0  0  0  0
199232  1  0  0  0  0
201233  1  0  0  0  0
202234  1  0  0  0  0
154235  4  0  0  0  0
235236  4  0  0  0  0
236237  4  0  0  0  0
237238  2  0  0  0  0
238239  4  0  0  0  0
236240  4  0  0  0  0
239240  4  0  0  0  0
239241  4  0  0  0  0
241242  1  0  0  0  0
242243  4  0  0  0  0
243244  4  0  0  0  0
244245  4  0  0  0  0
245246  1  0  0  0  0
246247  1  0  0  0  0
246248  1  0  0  0  0
245249  4  0  0  0  0
242250  4  0  0  0  0
249250  4  0  0  0  0
241251  4  0  0  0  0
251252  1  0  0  0  0
252253  2  0  0  0  0
251254  4  0  0  0  0
253255  1  0  0  0  0
254255  4  0  0  0  0
156256  4  0  0  0  0
255256  4  0  0  0  0
256257  4  0  0  0  0
257258  4  0  0  0  0
258259  2  0  0  0  0
259260  4  0  0  0  0
257261  4  0  0  0  0
260261  4  0  0  0  0
260262  4  0  0  0  0
262263  1  0  0  0  0
263264  4  0  0  0  0
264265  4  0  0  0  0
265266  4  0  0  0  0
266267  1  0  0  0  0
267268  1  0  0  0  0
267269  1  0  0  0  0
266270  4  0  0  0  0
263271  4  0  0  0  0
270271  4  0  0  0  0
262272  4  0  0  0  0
272273  1  0  0  0  0
273274  2  0  0  0  0
235275  4  0  0  0  0
274275  1  0  0  0  0
272276  4  0  0  0  0
275276  4  0  0  0  0
237277  1  0  0  0  0
238278  1  0  0  0  0
240279  1  0  0  0  0
243280  1  0  0  0  0
244281  1  0  0  0  0
247282  1  0  0  0  0
247283  1  0  0  0  0
247284  1  0  0  0  0
248285  1  0  0  0  0
248286  1  0  0  0  0
248287  1  0  0  0  0
249288  1  0  0  0  0
250289  1  0  0  0  0
252290  1  0  0  0  0
253291  1  0  0  0  0
258292  1  0  0  0  0
259293  1  0  0  0  0
261294  1  0  0  0  0
264295  1  0  0  0  0
265296  1  0  0  0  0
268297  1  0  0  0  0
268298  1  0  0  0  0
268299  1  0  0  0  0
269300  1  0  0  0  0
269301  1  0  0  0  0
269302  1  0  0  0  0
270303  1  0  0  0  0
271304  1  0  0  0  0
273305  1  0  0  0  0
274306  1  0  0  0  0
158307  4  0  0  0  0
307308  4  0  0  0  0
308309  4  0  0  0  0
309310  2  0  0  0  0
310311  4  0  0  0  0
308312  4  0  0  0  0
311312  4  0  0  0  0
311313  4  0  0  0  0
313314  1  0  0  0  0
314315  4  0  0  0  0
315316  4  0  0  0  0
316317  4  0  0  0  0
317318  1  0  0  0  0
318319  1  0  0  0  0
318320  1  0  0  0  0
317321  4  0  0  0  0
314322  4  0  0  0  0
321322  4  0  0  0  0
313323  4  0  0  0  0
323324  1  0  0  0  0
324325  2  0  0  0  0
323326  4  0  0  0  0
325327  1  0  0  0  0
326327  4  0  0  0  0
160328  4  0  0  0  0
327328  4  0  0  0  0
328329  4  0  0  0  0
329330  4  0  0  0  0
330331  2  0  0  0  0
331332  4  0  0  0  0
329333  4  0  0  0  0
332333  4  0  0  0  0
332334  4  0  0  0  0
334335  1  0  0  0  0
335336  4  0  0  0  0
336337  4  0  0  0  0
337338  4  0  0  0  0
338339  1  0  0  0  0
339340  1  0  0  0  0
339341  1  0  0  0  0
338342  4  0  0  0  0
335343  4  0  0  0  0
342343  4  0  0  0  0
334344  4  0  0  0  0
344345  1  0  0  0  0
345346  2  0  0  0  0
307347  4  0  0  0  0
346347  1  0  0  0  0
344348  4  0  0  0  0
347348  4  0  0  0  0
309349  1  0  0  0  0
310350  1  0  0  0  0
312351  1  0  0  0  0
315352  1  0  0  0  0
316353  1  0  0  0  0
319354  1  0  0  0  0
319355  1  0  0  0  0
319356  1  0  0  0  0
320357  1  0  0  0  0
320358  1  0  0  0  0
320359  1  0  0  0  0
321360  1  0  0  0  0
322361  1  0  0  0  0
324362  1  0  0  0  0
325363  1  0  0  0  0
330364  1  0  0  0  0
331365  1  0  0  0  0
333366  1  0  0  0  0
336367  1  0  0  0  0
337368  1  0  0  0  0
340369  1  0  0  0  0
340370  1  0  0  0  0
340371  1  0  0  0  0
341372  1  0  0  0  0
341373  1  0  0  0  0
341374  1  0  0  0  0
342375  1  0  0  0  0
343376  1  0  0  0  0
345377  1  0  0  0  0
346378  1  0  0  0  0
M  END
