181

Zn 32.896898 -0.017112 -0.006306
C 29.558902 0.106043 0.065772
C 30.220876 1.255487 0.226694
C 29.570006 2.552794 0.363869
C 30.509975 3.463452 0.536556
C 31.815052 2.788036 0.530560
N 31.638266 1.386018 0.323475
C 33.006986 3.393890 0.712213
C 33.056196 4.852355 0.964484
C 32.573517 5.381497 2.172191
C 32.636471 6.757344 2.412676
C 33.187306 7.613888 1.451015
C 33.253318 9.030111 1.699728
N 33.306377 10.168686 1.899775
C 33.676414 7.088885 0.248081
C 33.613097 5.713229 0.006288
C 34.298419 2.658165 0.680697
C 35.581761 3.243245 1.087991
C 36.516562 2.333351 0.903181
N 34.441448 1.436320 0.267106
C 35.836778 1.155616 0.377997
C 36.431338 0.013582 -0.003775
C 35.668125 -1.146510 -0.515202
C 36.199043 -2.139029 -1.218059
C 35.156427 -3.124826 -1.427553
C 34.058519 -2.670932 -0.834038
N 34.291915 -1.397608 -0.230133
C 32.780026 -3.422269 -0.747917
C 32.803284 -4.887808 -0.975459
C 32.119114 -5.451851 -2.064904
C 32.160996 -6.831848 -2.285268
C 32.892650 -7.658723 -1.423662
C 32.936666 -9.079287 -1.651698
N 32.972089 -10.221369 -1.834954
C 33.584381 -7.099774 -0.341745
C 33.542464 -5.719947 -0.120027
C 31.617704 -2.803135 -0.465233
C 30.310416 -3.440902 -0.318255
C 29.448435 -2.465950 -0.102859
C 30.196645 -1.209971 -0.097949
N 31.461670 -1.394292 -0.308202
H 28.475541 0.133869 0.056415
H 28.506655 2.751935 0.326662
H 30.321940 4.522207 0.657816
H 32.151212 4.727719 2.925463
H 32.258387 7.152399 3.347977
H 34.107244 7.742031 -0.501260
H 33.996144 5.317999 -0.926592
H 35.752428 4.239347 1.474774
H 37.570340 2.465348 1.109404
H 37.224812 -2.219428 -1.552092
H 35.265541 -4.067283 -1.948424
H 31.557760 -4.821801 -2.743936
H 31.626271 -7.253082 -3.128125
H 34.156302 -7.729770 0.328928
H 34.082833 -5.299380 0.719287
H 30.068820 -4.494369 -0.369385
H 28.383817 -2.588827 0.046991
Zn 61.553410 0.044095 -0.007964
C 64.891407 -0.074978 0.070676
C 64.229433 -1.214025 0.293588
C 64.880303 -2.502003 0.500793
C 63.940334 -3.401977 0.722527
C 62.635257 -2.727876 0.679975
N 62.812043 -1.339124 0.397294
C 61.443323 -3.323007 0.894161
C 61.394113 -4.765676 1.225017
C 61.876791 -5.228662 2.459600
C 61.813838 -6.589472 2.774215
C 61.263002 -7.496821 1.860335
C 61.196990 -8.897503 2.185353
N 61.143931 -10.023579 2.446744
C 60.773894 -7.037711 0.630743
C 60.837211 -5.677162 0.314832
C 60.151890 -2.590068 0.822862
C 58.868548 -3.152240 1.261232
C 57.933746 -2.253685 1.027435
N 60.008861 -1.392405 0.343731
C 58.613530 -1.106109 0.439262
C 58.018970 0.013582 -0.003775
C 58.782183 1.144286 -0.577256
C 58.251265 2.097299 -1.332813
C 59.293882 3.070309 -1.595368
C 60.391789 2.649213 -0.978151
N 60.158394 1.410449 -0.306198
C 61.670283 3.404110 -0.932830
C 61.647025 4.855181 -1.239378
C 62.331195 5.359418 -2.357760
C 62.289313 6.725462 -2.652509
C 61.557659 7.597769 -1.836931
C 61.513643 9.003904 -2.141537
N 61.478219 10.134391 -2.386352
C 60.865927 7.098211 -0.726341
C 60.907844 5.732410 -0.430249
C 62.832604 2.801187 -0.617043
C 64.139893 3.445976 -0.504807
C 65.001874 2.484114 -0.236946
C 64.253664 1.230243 -0.164050
N 62.988638 1.402911 -0.383973
H 65.974767 -0.103270 0.062839
H 65.943653 -2.702866 0.474422
H 64.128369 -4.452615 0.900927
H 62.299097 -4.535063 3.176373
H 62.191921 -6.933314 3.729532
H 60.343065 -7.730465 -0.082140
H 60.454165 -5.333014 -0.638077
H 58.697881 -4.125943 1.701373
H 56.879968 -2.374324 1.240501
H 57.225496 2.159497 -1.670708
H 59.184768 3.983187 -2.166496
H 62.892549 4.693532 -3.001688
H 62.824038 7.100449 -3.516935
H 60.294007 7.763590 -0.090757
H 60.367476 5.357897 0.430602
H 64.381489 4.495130 -0.612893
H 66.066492 2.614923 -0.093968
C 39.818626 0.026019 -0.001333
C 38.566355 0.006838 -0.005682
C 41.132294 0.025253 0.000599
C 42.635428 0.006838 -0.005682
C 53.157158 0.026019 -0.001333
C 51.904887 0.006838 -0.005682
C 54.470826 0.025253 0.000599
C 55.973959 0.006838 -0.005682
Zn 47.208443 0.018119 -0.015083
C 43.771899 -0.028601 0.008480
C 44.427468 -1.138037 -0.379420
C 43.786745 -2.409084 -0.723206
C 44.723243 -3.256247 -1.101239
C 46.020388 -2.576425 -1.025544
N 45.842453 -1.236423 -0.559717
C 47.204815 -3.132255 -1.358833
C 47.240418 -4.515607 -1.887418
C 46.719184 -4.803816 -3.158890
C 46.767956 -6.107979 -3.660335
C 47.342514 -7.132629 -2.897570
C 47.393867 -8.474927 -3.414759
N 47.435281 -9.554077 -3.830561
C 47.869316 -6.847747 -1.631391
C 47.820252 -5.544042 -1.128679
C 48.501767 -2.422974 -1.215407
C 49.770385 -2.919475 -1.763910
C 50.722598 -2.085856 -1.397157
N 48.669544 -1.326053 -0.544568
C 50.067704 -1.045818 -0.614403
C 50.682715 -0.028601 0.008480
C 49.931756 0.999162 0.759319
C 50.464498 1.803483 1.670289
C 49.432226 2.740680 2.071384
C 48.340800 2.446676 1.374010
N 48.566146 1.331432 0.513557
C 47.087614 3.238629 1.400527
C 47.149776 4.646126 1.865550
C 46.440546 5.052153 3.008109
C 46.517311 6.375658 3.451972
C 47.308773 7.302788 2.762639
C 47.387626 8.665271 3.220169
N 47.450993 9.760671 3.587981
C 48.025717 6.900490 1.628863
C 47.949197 5.577295 1.183801
C 45.916131 2.711491 0.994979
C 44.640847 3.415774 0.909442
C 43.752760 2.520400 0.528177
C 44.449890 1.240417 0.360849
N 45.714423 1.346235 0.628679
H 42.732061 -2.645956 -0.681763
H 44.537006 -4.278467 -1.403849
H 46.277824 -4.018072 -3.759713
H 46.360222 -6.316720 -4.642118
H 48.318091 -7.632282 -1.034039
H 48.231954 -5.334930 -0.148857
H 49.919983 -3.808925 -2.361759
H 51.771900 -2.182608 -1.642437
H 51.486353 1.792096 2.025159
H 49.546627 3.553580 2.776777
H 45.832468 4.342407 3.555536
H 45.962434 6.674870 4.333129
H 48.643600 7.608726 1.089999
H 48.509084 5.278324 0.306063
H 44.437250 4.460619 1.103833
H 42.702659 2.721606 0.364773
