 xtb: 6.5.1 (b24c23e)
          07302207353D

126145  0     0  0            999 V2000
   14.0906    0.0292   -0.0090 Cu  0  0  0  0  0  0  0  0  0  0  0  0
   10.6875    0.1169    0.0912 C   0  0  0  0  0  0  0  0  0  0  0  0
   11.3245    1.2229   -0.4517 C   0  0  0  0  0  0  0  0  0  0  0  0
   10.6514    2.3563   -1.0176 C   0  0  0  0  0  0  0  0  0  0  0  0
   11.6123    3.2162   -1.4388 C   0  0  0  0  0  0  0  0  0  0  0  0
   12.8818    2.6216   -1.1207 C   0  0  0  0  0  0  0  0  0  0  0  0
   12.6757    1.4085   -0.5297 N   0  0  0  0  0  0  0  0  0  0  0  0
   14.1280    3.1945   -1.3923 C   0  0  0  0  0  0  0  0  0  0  0  0
   14.1452    4.5545   -1.9817 C   0  0  0  0  0  0  0  0  0  0  0  0
   14.7469    4.7876   -3.2210 C   0  0  0  0  0  0  0  0  0  0  0  0
   14.7659    6.0558   -3.7737 C   0  0  0  0  0  0  0  0  0  0  0  0
   14.1926    7.1288   -3.0865 C   0  0  0  0  0  0  0  0  0  0  0  0
   14.1764    8.3917   -3.6529 N   0  0  0  0  0  0  0  0  0  0  0  0
   13.5836    6.9035   -1.8493 C   0  0  0  0  0  0  0  0  0  0  0  0
   13.5611    5.6302   -1.3082 C   0  0  0  0  0  0  0  0  0  0  0  0
   15.3588    2.5808   -1.1464 C   0  0  0  0  0  0  0  0  0  0  0  0
   16.6388    3.1967   -1.3526 C   0  0  0  0  0  0  0  0  0  0  0  0
   17.5815    2.2879   -0.9944 C   0  0  0  0  0  0  0  0  0  0  0  0
   15.5429    1.3152   -0.6545 N   0  0  0  0  0  0  0  0  0  0  0  0
   16.8854    1.1156   -0.5580 C   0  0  0  0  0  0  0  0  0  0  0  0
   17.5169   -0.0565   -0.1038 C   0  0  0  0  0  0  0  0  0  0  0  0
   16.8538   -1.1976    0.3824 C   0  0  0  0  0  0  0  0  0  0  0  0
   17.5135   -2.4038    0.7811 C   0  0  0  0  0  0  0  0  0  0  0  0
   16.5477   -3.2649    1.1919 C   0  0  0  0  0  0  0  0  0  0  0  0
   15.2907   -2.5853    1.0569 C   0  0  0  0  0  0  0  0  0  0  0  0
   15.5103   -1.3301    0.5529 N   0  0  0  0  0  0  0  0  0  0  0  0
   14.0464   -3.1357    1.3747 C   0  0  0  0  0  0  0  0  0  0  0  0
   14.0265   -4.4958    1.9638 C   0  0  0  0  0  0  0  0  0  0  0  0
   14.6836   -4.7633    3.1674 C   0  0  0  0  0  0  0  0  0  0  0  0
   14.6650   -6.0319    3.7195 C   0  0  0  0  0  0  0  0  0  0  0  0
   13.9969   -7.0711    3.0670 C   0  0  0  0  0  0  0  0  0  0  0  0
   13.9443   -8.3325    3.6348 N   0  0  0  0  0  0  0  0  0  0  0  0
   13.3323   -6.8109    1.8657 C   0  0  0  0  0  0  0  0  0  0  0  0
   13.3482   -5.5373    1.3255 C   0  0  0  0  0  0  0  0  0  0  0  0
   12.8174   -2.4991    1.1759 C   0  0  0  0  0  0  0  0  0  0  0  0
   11.5399   -3.0280    1.5695 C   0  0  0  0  0  0  0  0  0  0  0  0
   10.6013   -2.1193    1.2041 C   0  0  0  0  0  0  0  0  0  0  0  0
   11.2972   -1.0214    0.5975 C   0  0  0  0  0  0  0  0  0  0  0  0
   12.6393   -1.2763    0.5960 N   0  0  0  0  0  0  0  0  0  0  0  0
    9.6030    0.1451    0.1230 H   0  0  0  0  0  0  0  0  0  0  0  0
    9.5803    2.4618   -1.0896 H   0  0  0  0  0  0  0  0  0  0  0  0
   11.4792    4.1638   -1.9355 H   0  0  0  0  0  0  0  0  0  0  0  0
   15.1862    3.9584   -3.7649 H   0  0  0  0  0  0  0  0  0  0  0  0
   15.2270    6.2218   -4.7413 H   0  0  0  0  0  0  0  0  0  0  0  0
   14.8899    8.5577   -4.3445 H   0  0  0  0  0  0  0  0  0  0  0  0
   14.0572    9.1499   -3.0003 H   0  0  0  0  0  0  0  0  0  0  0  0
   13.1332    7.7316   -1.3129 H   0  0  0  0  0  0  0  0  0  0  0  0
   13.1037    5.4674   -0.3383 H   0  0  0  0  0  0  0  0  0  0  0  0
   16.7939    4.2026   -1.7077 H   0  0  0  0  0  0  0  0  0  0  0  0
   18.6541    2.3971   -1.0118 H   0  0  0  0  0  0  0  0  0  0  0  0
   18.5787   -2.5662    0.7384 H   0  0  0  0  0  0  0  0  0  0  0  0
   16.6715   -4.2778    1.5396 H   0  0  0  0  0  0  0  0  0  0  0  0
   15.1965   -3.9602    3.6852 H   0  0  0  0  0  0  0  0  0  0  0  0
   15.1700   -6.2244    4.6599 H   0  0  0  0  0  0  0  0  0  0  0  0
   14.6879   -8.5388    4.2827 H   0  0  0  0  0  0  0  0  0  0  0  0
   13.7470   -9.0813    2.9901 H   0  0  0  0  0  0  0  0  0  0  0  0
   12.8083   -7.6125    1.3565 H   0  0  0  0  0  0  0  0  0  0  0  0
   12.8462   -5.3479    0.3829 H   0  0  0  0  0  0  0  0  0  0  0  0
   11.3876   -3.9680    2.0751 H   0  0  0  0  0  0  0  0  0  0  0  0
    9.5323   -2.1699    1.3395 H   0  0  0  0  0  0  0  0  0  0  0  0
   30.1186   -0.0242    0.0196 Cu  0  0  0  0  0  0  0  0  0  0  0  0
   33.5217    0.0122    0.1505 C   0  0  0  0  0  0  0  0  0  0  0  0
   32.8847   -1.0506    0.7737 C   0  0  0  0  0  0  0  0  0  0  0  0
   33.5577   -2.1468    1.4087 C   0  0  0  0  0  0  0  0  0  0  0  0
   32.5968   -2.9735    1.8918 C   0  0  0  0  0  0  0  0  0  0  0  0
   31.3273   -2.3818    1.5682 C   0  0  0  0  0  0  0  0  0  0  0  0
   31.5335   -1.2194    0.8829 N   0  0  0  0  0  0  0  0  0  0  0  0
   30.0811   -2.9265    1.8928 C   0  0  0  0  0  0  0  0  0  0  0  0
   30.0639   -4.1693    2.7006 C   0  0  0  0  0  0  0  0  0  0  0  0
   29.4675   -5.3327    2.2080 C   0  0  0  0  0  0  0  0  0  0  0  0
   29.4486   -6.4940    2.9598 C   0  0  0  0  0  0  0  0  0  0  0  0
   30.0164   -6.5121    4.2363 C   0  0  0  0  0  0  0  0  0  0  0  0
   30.0326   -7.6817    4.9765 N   0  0  0  0  0  0  0  0  0  0  0  0
   30.6201   -5.3546    4.7344 C   0  0  0  0  0  0  0  0  0  0  0  0
   30.6427   -4.2003    3.9718 C   0  0  0  0  0  0  0  0  0  0  0  0
   28.8504   -2.3839    1.5149 C   0  0  0  0  0  0  0  0  0  0  0  0
   27.5703   -2.8982    1.9113 C   0  0  0  0  0  0  0  0  0  0  0  0
   26.6276   -2.0972    1.3523 C   0  0  0  0  0  0  0  0  0  0  0  0
   28.6663   -1.2733    0.7337 N   0  0  0  0  0  0  0  0  0  0  0  0
   27.3238   -1.0834    0.6194 C   0  0  0  0  0  0  0  0  0  0  0  0
   26.6923   -0.0557   -0.1042 C   0  0  0  0  0  0  0  0  0  0  0  0
   27.3553    0.9813   -0.7849 C   0  0  0  0  0  0  0  0  0  0  0  0
   26.6954    1.9819   -1.5675 C   0  0  0  0  0  0  0  0  0  0  0  0
   27.6614    2.7997   -2.0588 C   0  0  0  0  0  0  0  0  0  0  0  0
   28.9186    2.3095   -1.5696 C   0  0  0  0  0  0  0  0  0  0  0  0
   28.6990    1.1954   -0.8027 N   0  0  0  0  0  0  0  0  0  0  0  0
   30.1631    2.8770   -1.8548 C   0  0  0  0  0  0  0  0  0  0  0  0
   30.1830    4.1195   -2.6630 C   0  0  0  0  0  0  0  0  0  0  0  0
   29.5303    5.2719   -2.2183 C   0  0  0  0  0  0  0  0  0  0  0  0
   29.5489    6.4333   -2.9702 C   0  0  0  0  0  0  0  0  0  0  0  0
   30.2126    6.4622   -4.1994 C   0  0  0  0  0  0  0  0  0  0  0  0
   30.2652    7.6327   -4.9369 N   0  0  0  0  0  0  0  0  0  0  0  0
   30.8727    5.3158   -4.6491 C   0  0  0  0  0  0  0  0  0  0  0  0
   30.8569    4.1616   -3.8862 C   0  0  0  0  0  0  0  0  0  0  0  0
   31.3922    2.3588   -1.4354 C   0  0  0  0  0  0  0  0  0  0  0  0
   32.6699    2.9778   -1.6610 C   0  0  0  0  0  0  0  0  0  0  0  0
   33.6083    2.1721   -1.1040 C   0  0  0  0  0  0  0  0  0  0  0  0
   32.9122    1.0614   -0.5213 C   0  0  0  0  0  0  0  0  0  0  0  0
   31.5701    1.2010   -0.7346 N   0  0  0  0  0  0  0  0  0  0  0  0
   34.6061    0.0237    0.1926 H   0  0  0  0  0  0  0  0  0  0  0  0
   34.6289   -2.2637    1.4594 H   0  0  0  0  0  0  0  0  0  0  0  0
   32.7299   -3.9101    2.4088 H   0  0  0  0  0  0  0  0  0  0  0  0
   29.0324   -5.3293    1.2145 H   0  0  0  0  0  0  0  0  0  0  0  0
   28.9918   -7.3936    2.5618 H   0  0  0  0  0  0  0  0  0  0  0  0
   29.3217   -8.3517    4.7298 H   0  0  0  0  0  0  0  0  0  0  0  0
   30.1464   -7.5556    5.9696 H   0  0  0  0  0  0  0  0  0  0  0  0
   31.0663   -5.3636    5.7229 H   0  0  0  0  0  0  0  0  0  0  0  0
   31.0960   -3.3006    4.3737 H   0  0  0  0  0  0  0  0  0  0  0  0
   27.4151   -3.7519    2.5511 H   0  0  0  0  0  0  0  0  0  0  0  0
   25.5550   -2.1732    1.4320 H   0  0  0  0  0  0  0  0  0  0  0  0
   25.6300    2.0374   -1.7246 H   0  0  0  0  0  0  0  0  0  0  0  0
   27.5375    3.6502   -2.7095 H   0  0  0  0  0  0  0  0  0  0  0  0
   29.0208    5.2606   -1.2609 H   0  0  0  0  0  0  0  0  0  0  0  0
   29.0475    7.3246   -2.6090 H   0  0  0  0  0  0  0  0  0  0  0  0
   29.5238    8.2883   -4.7477 H   0  0  0  0  0  0  0  0  0  0  0  0
   30.4581    7.5087   -5.9181 H   0  0  0  0  0  0  0  0  0  0  0  0
   31.3932    5.3333   -5.6005 H   0  0  0  0  0  0  0  0  0  0  0  0
   31.3557    3.2702   -4.2512 H   0  0  0  0  0  0  0  0  0  0  0  0
   32.8224    3.9173   -2.1676 H   0  0  0  0  0  0  0  0  0  0  0  0
   34.6775    2.3125   -1.0722 H   0  0  0  0  0  0  0  0  0  0  0  0
   22.7187   -0.0860   -0.1716 C   0  0  0  0  0  0  0  0  0  0  0  0
   21.4904   -0.0952   -0.1670 C   0  0  0  0  0  0  0  0  0  0  0  0
   20.1458   -0.0924   -0.1543 C   0  0  0  0  0  0  0  0  0  0  0  0
   18.9220   -0.0840   -0.1333 C   0  0  0  0  0  0  0  0  0  0  0  0
   24.0634   -0.0771   -0.1618 C   0  0  0  0  0  0  0  0  0  0  0  0
   25.2872   -0.0646   -0.1430 C   0  0  0  0  0  0  0  0  0  0  0  0
  2  3  4  0  0  0  0
  3  4  4  0  0  0  0
  4  5  2  0  0  0  0
  5  6  4  0  0  0  0
  1  7  1  0  0  0  0
  3  7  4  0  0  0  0
  6  7  4  0  0  0  0
  6  8  4  0  0  0  0
  8  9  1  0  0  0  0
  9 10  4  0  0  0  0
 10 11  4  0  0  0  0
 11 12  4  0  0  0  0
 12 13  1  0  0  0  0
 12 14  4  0  0  0  0
  9 15  4  0  0  0  0
 14 15  4  0  0  0  0
  8 16  4  0  0  0  0
 16 17  4  0  0  0  0
 17 18  2  0  0  0  0
  1 19  1  0  0  0  0
 16 19  4  0  0  0  0
 18 20  4  0  0  0  0
 19 20  4  0  0  0  0
 20 21  4  0  0  0  0
 21 22  4  0  0  0  0
 22 23  4  0  0  0  0
 23 24  2  0  0  0  0
 24 25  4  0  0  0  0
  1 26  1  0  0  0  0
 22 26  4  0  0  0  0
 25 26  4  0  0  0  0
 25 27  4  0  0  0  0
 27 28  1  0  0  0  0
 28 29  4  0  0  0  0
 29 30  4  0  0  0  0
 30 31  4  0  0  0  0
 31 32  1  0  0  0  0
 31 33  4  0  0  0  0
 28 34  4  0  0  0  0
 33 34  4  0  0  0  0
 27 35  4  0  0  0  0
 35 36  4  0  0  0  0
 36 37  2  0  0  0  0
  2 38  4  0  0  0  0
 37 38  4  0  0  0  0
  1 39  1  0  0  0  0
 35 39  4  0  0  0  0
 38 39  4  0  0  0  0
  2 40  1  0  0  0  0
  4 41  1  0  0  0  0
  5 42  1  0  0  0  0
 10 43  1  0  0  0  0
 11 44  1  0  0  0  0
 13 45  1  0  0  0  0
 13 46  1  0  0  0  0
 14 47  1  0  0  0  0
 15 48  1  0  0  0  0
 17 49  1  0  0  0  0
 18 50  1  0  0  0  0
 23 51  1  0  0  0  0
 24 52  1  0  0  0  0
 29 53  1  0  0  0  0
 30 54  1  0  0  0  0
 32 55  1  0  0  0  0
 32 56  1  0  0  0  0
 33 57  1  0  0  0  0
 34 58  1  0  0  0  0
 36 59  1  0  0  0  0
 37 60  1  0  0  0  0
 62 63  4  0  0  0  0
 63 64  4  0  0  0  0
 64 65  2  0  0  0  0
 65 66  4  0  0  0  0
 61 67  1  0  0  0  0
 63 67  4  0  0  0  0
 66 67  4  0  0  0  0
 66 68  4  0  0  0  0
 68 69  1  0  0  0  0
 69 70  4  0  0  0  0
 70 71  4  0  0  0  0
 71 72  4  0  0  0  0
 72 73  1  0  0  0  0
 72 74  4  0  0  0  0
 69 75  4  0  0  0  0
 74 75  4  0  0  0  0
 68 76  4  0  0  0  0
 76 77  4  0  0  0  0
 77 78  2  0  0  0  0
 61 79  1  0  0  0  0
 76 79  4  0  0  0  0
 78 80  4  0  0  0  0
 79 80  4  0  0  0  0
 80 81  4  0  0  0  0
 81 82  4  0  0  0  0
 82 83  4  0  0  0  0
 83 84  2  0  0  0  0
 84 85  4  0  0  0  0
 61 86  1  0  0  0  0
 82 86  4  0  0  0  0
 85 86  4  0  0  0  0
 85 87  4  0  0  0  0
 87 88  1  0  0  0  0
 88 89  4  0  0  0  0
 89 90  4  0  0  0  0
 90 91  4  0  0  0  0
 91 92  1  0  0  0  0
 91 93  4  0  0  0  0
 88 94  4  0  0  0  0
 93 94  4  0  0  0  0
 87 95  4  0  0  0  0
 95 96  4  0  0  0  0
 96 97  2  0  0  0  0
 62 98  4  0  0  0  0
 97 98  1  0  0  0  0
 61 99  1  0  0  0  0
 95 99  4  0  0  0  0
 98 99  4  0  0  0  0
 62100  1  0  0  0  0
 64101  1  0  0  0  0
 65102  1  0  0  0  0
 70103  1  0  0  0  0
 71104  1  0  0  0  0
 73105  1  0  0  0  0
 73106  1  0  0  0  0
 74107  1  0  0  0  0
 75108  1  0  0  0  0
 77109  1  0  0  0  0
 78110  1  0  0  0  0
 83111  1  0  0  0  0
 84112  1  0  0  0  0
 89113  1  0  0  0  0
 90114  1  0  0  0  0
 92115  1  0  0  0  0
 92116  1  0  0  0  0
 93117  1  0  0  0  0
 94118  1  0  0  0  0
 96119  1  0  0  0  0
 97120  1  0  0  0  0
121122  3  0  0  0  0
122123  4  0  0  0  0
 21124  4  0  0  0  0
123124  3  0  0  0  0
121125  4  0  0  0  0
 81126  4  0  0  0  0
125126  3  0  0  0  0
M  END
