 xtb: 6.5.1 (b24c23e)
          07302204413D

120139  0     0  0            999 V2000
   16.1640    0.0807    0.0123 Ni  0  0  0  0  0  0  0  0  0  0  0  0
   12.7610    0.1465    0.0146 C   0  0  0  0  0  0  0  0  0  0  0  0
   13.4233    0.9446    0.9233 C   0  0  0  0  0  0  0  0  0  0  0  0
   12.7574    1.7875    1.8685 C   0  0  0  0  0  0  0  0  0  0  0  0
   13.7256    2.4447    2.5504 C   0  0  0  0  0  0  0  0  0  0  0  0
   14.9769    2.0032    2.0152 C   0  0  0  0  0  0  0  0  0  0  0  0
   14.7878    1.0732    1.0310 N   0  0  0  0  0  0  0  0  0  0  0  0
   16.2091    2.5127    2.4264 C   0  0  0  0  0  0  0  0  0  0  0  0
   16.2284    3.5110    3.4248 C   0  0  0  0  0  0  0  0  0  0  0  0
   16.2446    4.3678    4.2837 C   0  0  0  0  0  0  0  0  0  0  0  0
   16.2644    5.3689    5.2818 C   0  0  0  0  0  0  0  0  0  0  0  0
   17.4645    5.9642    5.6877 C   0  0  0  0  0  0  0  0  0  0  0  0
   17.4301    6.9405    6.6672 C   0  0  0  0  0  0  0  0  0  0  0  0
   16.3049    7.3467    7.2500 N   0  0  0  0  0  0  0  0  0  0  0  0
   15.1600    6.7852    6.8700 C   0  0  0  0  0  0  0  0  0  0  0  0
   15.0854    5.8019    5.8996 C   0  0  0  0  0  0  0  0  0  0  0  0
   17.4220    2.0848    1.8861 C   0  0  0  0  0  0  0  0  0  0  0  0
   18.6861    2.6196    2.2814 C   0  0  0  0  0  0  0  0  0  0  0  0
   19.6302    1.9360    1.5896 C   0  0  0  0  0  0  0  0  0  0  0  0
   17.5810    1.0927    0.9525 N   0  0  0  0  0  0  0  0  0  0  0  0
   18.9362    0.9865    0.7796 C   0  0  0  0  0  0  0  0  0  0  0  0
   19.5876    0.0480   -0.0246 C   0  0  0  0  0  0  0  0  0  0  0  0
   18.9017   -0.8855   -0.8053 C   0  0  0  0  0  0  0  0  0  0  0  0
   19.5602   -1.8601   -1.6152 C   0  0  0  0  0  0  0  0  0  0  0  0
   18.5880   -2.5434   -2.2674 C   0  0  0  0  0  0  0  0  0  0  0  0
   17.3428   -1.9796   -1.8525 C   0  0  0  0  0  0  0  0  0  0  0  0
   17.5412   -0.9728   -0.9423 N   0  0  0  0  0  0  0  0  0  0  0  0
   16.1110   -2.3889   -2.3638 C   0  0  0  0  0  0  0  0  0  0  0  0
   16.0908   -3.4094   -3.3396 C   0  0  0  0  0  0  0  0  0  0  0  0
   16.0764   -4.2868   -4.1774 C   0  0  0  0  0  0  0  0  0  0  0  0
   16.0658   -5.3067   -5.1567 C   0  0  0  0  0  0  0  0  0  0  0  0
   17.2489   -5.9381   -5.5578 C   0  0  0  0  0  0  0  0  0  0  0  0
   17.1859   -6.9295   -6.5208 C   0  0  0  0  0  0  0  0  0  0  0  0
   16.0484   -7.3174   -7.0919 N   0  0  0  0  0  0  0  0  0  0  0  0
   14.9194   -6.7220   -6.7159 C   0  0  0  0  0  0  0  0  0  0  0  0
   14.8736   -5.7213   -5.7616 C   0  0  0  0  0  0  0  0  0  0  0  0
   14.8996   -1.8296   -1.9552 C   0  0  0  0  0  0  0  0  0  0  0  0
   13.6311   -2.2303   -2.4823 C   0  0  0  0  0  0  0  0  0  0  0  0
   12.6911   -1.5166   -1.8181 C   0  0  0  0  0  0  0  0  0  0  0  0
   13.3907   -0.6853   -0.8871 C   0  0  0  0  0  0  0  0  0  0  0  0
   14.7488   -0.8734   -0.9899 N   0  0  0  0  0  0  0  0  0  0  0  0
   11.6774    0.1697    0.0129 H   0  0  0  0  0  0  0  0  0  0  0  0
   11.6869    1.8549    1.9787 H   0  0  0  0  0  0  0  0  0  0  0  0
   13.6218    3.1701    3.3414 H   0  0  0  0  0  0  0  0  0  0  0  0
   18.4033    5.6627    5.2388 H   0  0  0  0  0  0  0  0  0  0  0  0
   18.3457    7.4200    7.0013 H   0  0  0  0  0  0  0  0  0  0  0  0
   14.2614    7.1402    7.3664 H   0  0  0  0  0  0  0  0  0  0  0  0
   14.1315    5.3713    5.6198 H   0  0  0  0  0  0  0  0  0  0  0  0
   18.8177    3.4135    2.9988 H   0  0  0  0  0  0  0  0  0  0  0  0
   20.7019    2.0483    1.6190 H   0  0  0  0  0  0  0  0  0  0  0  0
   20.6290   -1.9894   -1.6697 H   0  0  0  0  0  0  0  0  0  0  0  0
   18.6892   -3.3532   -2.9718 H   0  0  0  0  0  0  0  0  0  0  0  0
   18.1969   -5.6524   -5.1183 H   0  0  0  0  0  0  0  0  0  0  0  0
   18.0880   -7.4364   -6.8510 H   0  0  0  0  0  0  0  0  0  0  0  0
   14.0101   -7.0630   -7.2024 H   0  0  0  0  0  0  0  0  0  0  0  0
   13.9319   -5.2628   -5.4848 H   0  0  0  0  0  0  0  0  0  0  0  0
   13.4972   -2.9670   -3.2581 H   0  0  0  0  0  0  0  0  0  0  0  0
   11.6187   -1.5403   -1.9293 H   0  0  0  0  0  0  0  0  0  0  0  0
   29.6177   -0.0520   -0.0623 Ni  0  0  0  0  0  0  0  0  0  0  0  0
   33.0207   -0.0869   -0.1150 C   0  0  0  0  0  0  0  0  0  0  0  0
   32.3588   -1.2763   -0.3349 C   0  0  0  0  0  0  0  0  0  0  0  0
   33.0250   -2.5198   -0.5739 C   0  0  0  0  0  0  0  0  0  0  0  0
   32.0573   -3.4422   -0.7903 C   0  0  0  0  0  0  0  0  0  0  0  0
   30.8057   -2.7567   -0.6862 C   0  0  0  0  0  0  0  0  0  0  0  0
   30.9943   -1.4350   -0.3915 N   0  0  0  0  0  0  0  0  0  0  0  0
   29.5737   -3.3714   -0.9128 C   0  0  0  0  0  0  0  0  0  0  0  0
   29.5551   -4.7408   -1.2569 C   0  0  0  0  0  0  0  0  0  0  0  0
   29.5384   -5.9175   -1.5519 C   0  0  0  0  0  0  0  0  0  0  0  0
   29.5187   -7.2884   -1.8975 C   0  0  0  0  0  0  0  0  0  0  0  0
   28.3186   -7.9428   -2.1985 C   0  0  0  0  0  0  0  0  0  0  0  0
   28.3529   -9.2853   -2.5309 C   0  0  0  0  0  0  0  0  0  0  0  0
   29.4781   -9.9941   -2.5791 N   0  0  0  0  0  0  0  0  0  0  0  0
   30.6231   -9.3791   -2.2939 C   0  0  0  0  0  0  0  0  0  0  0  0
   30.6977   -8.0409   -1.9508 C   0  0  0  0  0  0  0  0  0  0  0  0
   28.3605   -2.6888   -0.8216 C   0  0  0  0  0  0  0  0  0  0  0  0
   27.0965   -3.3030   -1.0768 C   0  0  0  0  0  0  0  0  0  0  0  0
   26.1522   -2.3586   -0.8446 C   0  0  0  0  0  0  0  0  0  0  0  0
   28.2013   -1.3784   -0.4489 N   0  0  0  0  0  0  0  0  0  0  0  0
   26.8461   -1.1759   -0.4459 C   0  0  0  0  0  0  0  0  0  0  0  0
   26.1941   -0.0045   -0.0532 C   0  0  0  0  0  0  0  0  0  0  0  0
   26.8795    1.1449    0.3475 C   0  0  0  0  0  0  0  0  0  0  0  0
   26.2207    2.3398    0.7691 C   0  0  0  0  0  0  0  0  0  0  0  0
   27.1927    3.2505    1.0207 C   0  0  0  0  0  0  0  0  0  0  0  0
   28.4379    2.6057    0.7486 C   0  0  0  0  0  0  0  0  0  0  0  0
   28.2399    1.3078    0.3517 N   0  0  0  0  0  0  0  0  0  0  0  0
   29.6695    3.2554    0.8362 C   0  0  0  0  0  0  0  0  0  0  0  0
   29.6892    4.6168    1.2106 C   0  0  0  0  0  0  0  0  0  0  0  0
   29.7031    5.7863    1.5331 C   0  0  0  0  0  0  0  0  0  0  0  0
   29.7141    7.1501    1.9062 C   0  0  0  0  0  0  0  0  0  0  0  0
   28.5313    7.8189    2.2422 C   0  0  0  0  0  0  0  0  0  0  0  0
   28.5949    9.1538    2.5998 C   0  0  0  0  0  0  0  0  0  0  0  0
   29.7328    9.8424    2.6408 N   0  0  0  0  0  0  0  0  0  0  0  0
   30.8615    9.2137    2.3226 C   0  0  0  0  0  0  0  0  0  0  0  0
   30.9067    7.8814    1.9525 C   0  0  0  0  0  0  0  0  0  0  0  0
   30.8811    2.6181    0.5658 C   0  0  0  0  0  0  0  0  0  0  0  0
   32.1493    3.2766    0.6388 C   0  0  0  0  0  0  0  0  0  0  0  0
   33.0898    2.3402    0.3692 C   0  0  0  0  0  0  0  0  0  0  0  0
   32.3906    1.1140    0.1347 C   0  0  0  0  0  0  0  0  0  0  0  0
   31.0325    1.2985    0.2422 N   0  0  0  0  0  0  0  0  0  0  0  0
   34.1043   -0.0973   -0.1345 H   0  0  0  0  0  0  0  0  0  0  0  0
   34.0956   -2.6487   -0.5744 H   0  0  0  0  0  0  0  0  0  0  0  0
   32.1614   -4.4930   -1.0083 H   0  0  0  0  0  0  0  0  0  0  0  0
   27.3798   -7.4028   -2.1709 H   0  0  0  0  0  0  0  0  0  0  0  0
   27.4373   -9.8186   -2.7698 H   0  0  0  0  0  0  0  0  0  0  0  0
   31.5217   -9.9874   -2.3428 H   0  0  0  0  0  0  0  0  0  0  0  0
   31.6516   -7.5794   -1.7260 H   0  0  0  0  0  0  0  0  0  0  0  0
   26.9650   -4.3263   -1.3895 H   0  0  0  0  0  0  0  0  0  0  0  0
   25.0805   -2.4418   -0.9252 H   0  0  0  0  0  0  0  0  0  0  0  0
   25.1519    2.4528    0.8530 H   0  0  0  0  0  0  0  0  0  0  0  0
   27.0913    4.2705    1.3547 H   0  0  0  0  0  0  0  0  0  0  0  0
   27.5829    7.2956    2.2217 H   0  0  0  0  0  0  0  0  0  0  0  0
   27.6930    9.6977    2.8656 H   0  0  0  0  0  0  0  0  0  0  0  0
   31.7712    9.8058    2.3664 H   0  0  0  0  0  0  0  0  0  0  0  0
   31.8482    7.4082    1.7010 H   0  0  0  0  0  0  0  0  0  0  0  0
   32.2827    4.3209    0.8714 H   0  0  0  0  0  0  0  0  0  0  0  0
   34.1621    2.4481    0.3329 H   0  0  0  0  0  0  0  0  0  0  0  0
   22.2152    0.0403   -0.0463 C   0  0  0  0  0  0  0  0  0  0  0  0
   20.9940    0.0374   -0.0408 C   0  0  0  0  0  0  0  0  0  0  0  0
   23.5663    0.0275   -0.0510 C   0  0  0  0  0  0  0  0  0  0  0  0
   24.7875    0.0152   -0.0536 C   0  0  0  0  0  0  0  0  0  0  0  0
  2  3  4  0  0  0  0
  3  4  4  0  0  0  0
  4  5  2  0  0  0  0
  5  6  4  0  0  0  0
  1  7  1  0  0  0  0
  3  7  4  0  0  0  0
  6  7  4  0  0  0  0
  6  8  4  0  0  0  0
  8  9  1  0  0  0  0
  9 10  3  0  0  0  0
 10 11  1  0  0  0  0
 11 12  4  0  0  0  0
 12 13  4  0  0  0  0
 13 14  4  0  0  0  0
 14 15  4  0  0  0  0
 11 16  4  0  0  0  0
 15 16  4  0  0  0  0
  8 17  4  0  0  0  0
 17 18  4  0  0  0  0
 18 19  2  0  0  0  0
  1 20  1  0  0  0  0
 17 20  4  0  0  0  0
 19 21  4  0  0  0  0
 20 21  4  0  0  0  0
 21 22  4  0  0  0  0
 22 23  4  0  0  0  0
 23 24  4  0  0  0  0
 24 25  2  0  0  0  0
 25 26  4  0  0  0  0
  1 27  1  0  0  0  0
 23 27  4  0  0  0  0
 26 27  4  0  0  0  0
 26 28  4  0  0  0  0
 28 29  1  0  0  0  0
 29 30  3  0  0  0  0
 30 31  1  0  0  0  0
 31 32  4  0  0  0  0
 32 33  4  0  0  0  0
 33 34  4  0  0  0  0
 34 35  4  0  0  0  0
 31 36  4  0  0  0  0
 35 36  4  0  0  0  0
 28 37  4  0  0  0  0
 37 38  4  0  0  0  0
 38 39  2  0  0  0  0
  2 40  4  0  0  0  0
 39 40  4  0  0  0  0
  1 41  1  0  0  0  0
 37 41  4  0  0  0  0
 40 41  4  0  0  0  0
  2 42  1  0  0  0  0
  4 43  1  0  0  0  0
  5 44  1  0  0  0  0
 12 45  1  0  0  0  0
 13 46  1  0  0  0  0
 15 47  1  0  0  0  0
 16 48  1  0  0  0  0
 18 49  1  0  0  0  0
 19 50  1  0  0  0  0
 24 51  1  0  0  0  0
 25 52  1  0  0  0  0
 32 53  1  0  0  0  0
 33 54  1  0  0  0  0
 35 55  1  0  0  0  0
 36 56  1  0  0  0  0
 38 57  1  0  0  0  0
 39 58  1  0  0  0  0
 60 61  4  0  0  0  0
 61 62  4  0  0  0  0
 62 63  2  0  0  0  0
 63 64  4  0  0  0  0
 59 65  1  0  0  0  0
 61 65  4  0  0  0  0
 64 65  4  0  0  0  0
 64 66  4  0  0  0  0
 66 67  1  0  0  0  0
 67 68  3  0  0  0  0
 68 69  1  0  0  0  0
 69 70  4  0  0  0  0
 70 71  4  0  0  0  0
 71 72  4  0  0  0  0
 72 73  4  0  0  0  0
 69 74  4  0  0  0  0
 73 74  4  0  0  0  0
 66 75  4  0  0  0  0
 75 76  4  0  0  0  0
 76 77  2  0  0  0  0
 59 78  1  0  0  0  0
 75 78  4  0  0  0  0
 77 79  4  0  0  0  0
 78 79  4  0  0  0  0
 79 80  4  0  0  0  0
 80 81  4  0  0  0  0
 81 82  4  0  0  0  0
 82 83  2  0  0  0  0
 83 84  4  0  0  0  0
 59 85  1  0  0  0  0
 81 85  4  0  0  0  0
 84 85  4  0  0  0  0
 84 86  4  0  0  0  0
 86 87  1  0  0  0  0
 87 88  3  0  0  0  0
 88 89  1  0  0  0  0
 89 90  4  0  0  0  0
 90 91  4  0  0  0  0
 91 92  4  0  0  0  0
 92 93  4  0  0  0  0
 89 94  4  0  0  0  0
 93 94  4  0  0  0  0
 86 95  4  0  0  0  0
 95 96  4  0  0  0  0
 96 97  2  0  0  0  0
 60 98  4  0  0  0  0
 97 98  4  0  0  0  0
 59 99  1  0  0  0  0
 95 99  4  0  0  0  0
 98 99  4  0  0  0  0
 60100  1  0  0  0  0
 62101  1  0  0  0  0
 63102  1  0  0  0  0
 70103  1  0  0  0  0
 71104  1  0  0  0  0
 73105  1  0  0  0  0
 74106  1  0  0  0  0
 76107  1  0  0  0  0
 77108  1  0  0  0  0
 82109  1  0  0  0  0
 83110  1  0  0  0  0
 90111  1  0  0  0  0
 91112  1  0  0  0  0
 93113  1  0  0  0  0
 94114  1  0  0  0  0
 96115  1  0  0  0  0
 97116  1  0  0  0  0
 22118  4  0  0  0  0
117118  3  0  0  0  0
117119  4  0  0  0  0
 80120  4  0  0  0  0
119120  3  0  0  0  0
M  END
