 xtb: 6.5.1 (b24c23e)
          07302204103D

254293  0     0  0            999 V2000
   34.1282    0.3669    0.3444 Ni  0  0  0  0  0  0  0  0  0  0  0  0
   30.7432    0.1838    0.4201 C   0  0  0  0  0  0  0  0  0  0  0  0
   31.4582   -0.9950    0.4663 C   0  0  0  0  0  0  0  0  0  0  0  0
   30.8500   -2.2866    0.5618 C   0  0  0  0  0  0  0  0  0  0  0  0
   31.8471   -3.1946    0.4421 C   0  0  0  0  0  0  0  0  0  0  0  0
   33.0646   -2.4565    0.2749 C   0  0  0  0  0  0  0  0  0  0  0  0
   32.8194   -1.1072    0.3277 N   0  0  0  0  0  0  0  0  0  0  0  0
   34.3055   -3.0445    0.0626 C   0  0  0  0  0  0  0  0  0  0  0  0
   34.3799   -4.5170   -0.0926 C   0  0  0  0  0  0  0  0  0  0  0  0
   33.7616   -5.1472   -1.1024 C   0  0  0  0  0  0  0  0  0  0  0  0
   33.8087   -6.6432   -1.2733 C   0  0  0  0  0  0  0  0  0  0  0  0
   34.8751   -7.2369   -0.4622 N   0  0  0  0  0  0  0  0  0  0  0  0
   35.3358   -6.6015    0.6610 C   0  0  0  0  0  0  0  0  0  0  0  0
   35.1557   -5.2853    0.8704 C   0  0  0  0  0  0  0  0  0  0  0  0
   35.4811   -2.3074    0.0129 C   0  0  0  0  0  0  0  0  0  0  0  0
   36.7744   -2.8854   -0.1916 C   0  0  0  0  0  0  0  0  0  0  0  0
   37.6774   -1.8851   -0.0515 C   0  0  0  0  0  0  0  0  0  0  0  0
   35.5898   -0.9506    0.2243 N   0  0  0  0  0  0  0  0  0  0  0  0
   36.9333   -0.6960    0.2158 C   0  0  0  0  0  0  0  0  0  0  0  0
   37.5319    0.5406    0.4754 C   0  0  0  0  0  0  0  0  0  0  0  0
   36.7925    1.7162    0.6323 C   0  0  0  0  0  0  0  0  0  0  0  0
   37.3920    2.9913    0.8654 C   0  0  0  0  0  0  0  0  0  0  0  0
   36.3919    3.9043    0.8213 C   0  0  0  0  0  0  0  0  0  0  0  0
   35.1826    3.1826    0.5661 C   0  0  0  0  0  0  0  0  0  0  0  0
   35.4374    1.8323    0.4835 N   0  0  0  0  0  0  0  0  0  0  0  0
   33.9430    3.7892    0.4086 C   0  0  0  0  0  0  0  0  0  0  0  0
   33.8764    5.2701    0.4186 C   0  0  0  0  0  0  0  0  0  0  0  0
   33.1842    5.9401    1.3519 C   0  0  0  0  0  0  0  0  0  0  0  0
   33.0937    7.4438    1.3682 C   0  0  0  0  0  0  0  0  0  0  0  0
   34.1252    8.0465    0.5197 N   0  0  0  0  0  0  0  0  0  0  0  0
   34.6685    7.3461   -0.5252 C   0  0  0  0  0  0  0  0  0  0  0  0
   34.6067    6.0050   -0.6042 C   0  0  0  0  0  0  0  0  0  0  0  0
   32.7687    3.0610    0.2663 C   0  0  0  0  0  0  0  0  0  0  0  0
   31.4718    3.6516    0.1094 C   0  0  0  0  0  0  0  0  0  0  0  0
   30.5725    2.6400    0.1452 C   0  0  0  0  0  0  0  0  0  0  0  0
   31.3214    1.4305    0.2956 C   0  0  0  0  0  0  0  0  0  0  0  0
   32.6676    1.6933    0.3361 N   0  0  0  0  0  0  0  0  0  0  0  0
   29.6616    0.1253    0.4576 H   0  0  0  0  0  0  0  0  0  0  0  0
   29.7935   -2.4563    0.6963 H   0  0  0  0  0  0  0  0  0  0  0  0
   31.7792   -4.2700    0.4713 H   0  0  0  0  0  0  0  0  0  0  0  0
   33.1808   -4.6076   -1.8414 H   0  0  0  0  0  0  0  0  0  0  0  0
   34.0000   -6.8980   -2.3246 H   0  0  0  0  0  0  0  0  0  0  0  0
   32.8332   -7.0889   -1.0022 H   0  0  0  0  0  0  0  0  0  0  0  0
   34.8465   -8.2455   -0.4252 H   0  0  0  0  0  0  0  0  0  0  0  0
   35.9275   -7.2237    1.3249 H   0  0  0  0  0  0  0  0  0  0  0  0
   35.5686   -4.7906    1.7379 H   0  0  0  0  0  0  0  0  0  0  0  0
   36.9576   -3.9250   -0.4085 H   0  0  0  0  0  0  0  0  0  0  0  0
   38.7520   -1.9315   -0.1250 H   0  0  0  0  0  0  0  0  0  0  0  0
   38.4452    3.1514    1.0311 H   0  0  0  0  0  0  0  0  0  0  0  0
   36.4553    4.9721    0.9534 H   0  0  0  0  0  0  0  0  0  0  0  0
   32.6404    5.4281    2.1373 H   0  0  0  0  0  0  0  0  0  0  0  0
   33.2329    7.8201    2.3908 H   0  0  0  0  0  0  0  0  0  0  0  0
   32.0904    7.7693    1.0347 H   0  0  0  0  0  0  0  0  0  0  0  0
   34.0114    9.0402    0.3813 H   0  0  0  0  0  0  0  0  0  0  0  0
   35.2230    7.9491   -1.2372 H   0  0  0  0  0  0  0  0  0  0  0  0
   35.0860    5.4645   -1.4080 H   0  0  0  0  0  0  0  0  0  0  0  0
   31.2859    4.7065   -0.0105 H   0  0  0  0  0  0  0  0  0  0  0  0
   29.4977    2.6881    0.0689 H   0  0  0  0  0  0  0  0  0  0  0  0
   89.7042    0.2199    0.0858 Ni  0  0  0  0  0  0  0  0  0  0  0  0
   93.0560    0.4928   -0.3225 C   0  0  0  0  0  0  0  0  0  0  0  0
   92.3637    1.6095    0.1003 C   0  0  0  0  0  0  0  0  0  0  0  0
   92.9890    2.8510    0.4380 C   0  0  0  0  0  0  0  0  0  0  0  0
   91.9968    3.7033    0.7883 C   0  0  0  0  0  0  0  0  0  0  0  0
   90.7620    2.9934    0.6257 C   0  0  0  0  0  0  0  0  0  0  0  0
   91.0023    1.6954    0.2463 N   0  0  0  0  0  0  0  0  0  0  0  0
   89.5062    3.5760    0.7394 C   0  0  0  0  0  0  0  0  0  0  0  0
   89.4006    5.0177    1.0670 C   0  0  0  0  0  0  0  0  0  0  0  0
   89.9207    5.9670    0.2748 C   0  0  0  0  0  0  0  0  0  0  0  0
   89.8290    7.4341    0.6055 C   0  0  0  0  0  0  0  0  0  0  0  0
   88.8026    7.6848    1.6207 N   0  0  0  0  0  0  0  0  0  0  0  0
   88.4431    6.7030    2.5065 C   0  0  0  0  0  0  0  0  0  0  0  0
   88.6791    5.3999    2.2726 C   0  0  0  0  0  0  0  0  0  0  0  0
   88.3329    2.8651    0.5189 C   0  0  0  0  0  0  0  0  0  0  0  0
   87.0368    3.4700    0.4746 C   0  0  0  0  0  0  0  0  0  0  0  0
   86.1452    2.4726    0.2602 C   0  0  0  0  0  0  0  0  0  0  0  0
   88.2365    1.5079    0.3126 N   0  0  0  0  0  0  0  0  0  0  0  0
   86.8966    1.2600    0.1894 C   0  0  0  0  0  0  0  0  0  0  0  0
   86.3046   -0.0055    0.1340 C   0  0  0  0  0  0  0  0  0  0  0  0
   87.0530   -1.1862    0.1462 C   0  0  0  0  0  0  0  0  0  0  0  0
   86.4676   -2.4852    0.2402 C   0  0  0  0  0  0  0  0  0  0  0  0
   87.4875   -3.3758    0.1883 C   0  0  0  0  0  0  0  0  0  0  0  0
   88.6918   -2.6182    0.0312 C   0  0  0  0  0  0  0  0  0  0  0  0
   88.4141   -1.2691    0.0468 N   0  0  0  0  0  0  0  0  0  0  0  0
   89.9394   -3.1847   -0.1944 C   0  0  0  0  0  0  0  0  0  0  0  0
   90.0553   -4.6609   -0.2634 C   0  0  0  0  0  0  0  0  0  0  0  0
   90.8259   -5.3416    0.5980 C   0  0  0  0  0  0  0  0  0  0  0  0
   90.9776   -6.8393    0.5402 C   0  0  0  0  0  0  0  0  0  0  0  0
   89.9308   -7.4473   -0.2858 N   0  0  0  0  0  0  0  0  0  0  0  0
   89.3087   -6.7240   -1.2697 C   0  0  0  0  0  0  0  0  0  0  0  0
   89.3072   -5.3793   -1.2850 C   0  0  0  0  0  0  0  0  0  0  0  0
   91.0807   -2.4176   -0.3976 C   0  0  0  0  0  0  0  0  0  0  0  0
   92.3501   -2.9590   -0.7854 C   0  0  0  0  0  0  0  0  0  0  0  0
   93.2152   -1.9201   -0.8594 C   0  0  0  0  0  0  0  0  0  0  0  0
   92.4777   -0.7464   -0.5045 C   0  0  0  0  0  0  0  0  0  0  0  0
   91.1625   -1.0550   -0.2590 N   0  0  0  0  0  0  0  0  0  0  0  0
   94.1250    0.5837   -0.4762 H   0  0  0  0  0  0  0  0  0  0  0  0
   94.0534    3.0245    0.4191 H   0  0  0  0  0  0  0  0  0  0  0  0
   92.0810    4.7243    1.1231 H   0  0  0  0  0  0  0  0  0  0  0  0
   90.4468    5.7230   -0.6406 H   0  0  0  0  0  0  0  0  0  0  0  0
   89.5650    8.0085   -0.2927 H   0  0  0  0  0  0  0  0  0  0  0  0
   90.8092    7.8086    0.9560 H   0  0  0  0  0  0  0  0  0  0  0  0
   88.8013    8.6300    1.9757 H   0  0  0  0  0  0  0  0  0  0  0  0
   87.8802    7.0504    3.3669 H   0  0  0  0  0  0  0  0  0  0  0  0
   88.3412    4.6337    2.9557 H   0  0  0  0  0  0  0  0  0  0  0  0
   86.8457    4.5250    0.5842 H   0  0  0  0  0  0  0  0  0  0  0  0
   85.0728    2.5354    0.1695 H   0  0  0  0  0  0  0  0  0  0  0  0
   85.4110   -2.6739    0.3426 H   0  0  0  0  0  0  0  0  0  0  0  0
   87.4382   -4.4512    0.2415 H   0  0  0  0  0  0  0  0  0  0  0  0
   91.3941   -4.8410    1.3733 H   0  0  0  0  0  0  0  0  0  0  0  0
   90.9042   -7.2664    1.5495 H   0  0  0  0  0  0  0  0  0  0  0  0
   91.9757   -7.1064    0.1449 H   0  0  0  0  0  0  0  0  0  0  0  0
   90.0812   -8.4269   -0.4792 H   0  0  0  0  0  0  0  0  0  0  0  0
   88.7490   -7.3177   -1.9854 H   0  0  0  0  0  0  0  0  0  0  0  0
   88.7711   -4.8247   -2.0419 H   0  0  0  0  0  0  0  0  0  0  0  0
   92.5385   -4.0013   -0.9855 H   0  0  0  0  0  0  0  0  0  0  0  0
   94.2625   -1.9294   -1.1168 H   0  0  0  0  0  0  0  0  0  0  0  0
   38.9334    0.6075    0.5469 C   0  0  0  0  0  0  0  0  0  0  0  0
   40.1554    0.6584    0.6002 C   0  0  0  0  0  0  0  0  0  0  0  0
   41.4971    0.7091    0.6496 C   0  0  0  0  0  0  0  0  0  0  0  0
   42.7264    0.7490    0.6826 C   0  0  0  0  0  0  0  0  0  0  0  0
   44.0643    0.7883    0.7096 C   0  0  0  0  0  0  0  0  0  0  0  0
   45.2943    0.8187    0.7236 C   0  0  0  0  0  0  0  0  0  0  0  0
   46.6373    0.8466    0.7304 C   0  0  0  0  0  0  0  0  0  0  0  0
   47.8616    0.8654    0.7277 C   0  0  0  0  0  0  0  0  0  0  0  0
   57.4874    1.1570    0.7771 C   0  0  0  0  0  0  0  0  0  0  0  0
   58.7115    1.1915    0.7927 C   0  0  0  0  0  0  0  0  0  0  0  0
   60.0540    1.2179    0.8068 C   0  0  0  0  0  0  0  0  0  0  0  0
   61.2848    1.2285    0.8174 C   0  0  0  0  0  0  0  0  0  0  0  0
   62.6228    1.2279    0.8269 C   0  0  0  0  0  0  0  0  0  0  0  0
   63.8536    1.2185    0.8330 C   0  0  0  0  0  0  0  0  0  0  0  0
   65.1962    1.1952    0.8401 C   0  0  0  0  0  0  0  0  0  0  0  0
   66.4206    1.1687    0.8483 C   0  0  0  0  0  0  0  0  0  0  0  0
   75.9915    0.2972    0.4257 C   0  0  0  0  0  0  0  0  0  0  0  0
   77.2060    0.1632    0.3470 C   0  0  0  0  0  0  0  0  0  0  0  0
   78.5420    0.0436    0.2728 C   0  0  0  0  0  0  0  0  0  0  0  0
   79.7683   -0.0397    0.2174 C   0  0  0  0  0  0  0  0  0  0  0  0
   81.1050   -0.0987    0.1701 C   0  0  0  0  0  0  0  0  0  0  0  0
   82.3347   -0.1271    0.1410 C   0  0  0  0  0  0  0  0  0  0  0  0
   83.6782   -0.1170    0.1256 C   0  0  0  0  0  0  0  0  0  0  0  0
   84.9019   -0.0857    0.1233 C   0  0  0  0  0  0  0  0  0  0  0  0
   52.6770    0.9385    0.6957 Ni  0  0  0  0  0  0  0  0  0  0  0  0
   49.2655    0.8833    0.7160 C   0  0  0  0  0  0  0  0  0  0  0  0
   49.9209    1.7696   -0.1451 C   0  0  0  0  0  0  0  0  0  0  0  0
   49.2370    2.6814   -1.0046 C   0  0  0  0  0  0  0  0  0  0  0  0
   50.1774    3.2417   -1.8043 C   0  0  0  0  0  0  0  0  0  0  0  0
   51.4334    2.6680   -1.4301 C   0  0  0  0  0  0  0  0  0  0  0  0
   51.2686    1.7972   -0.3769 N   0  0  0  0  0  0  0  0  0  0  0  0
   52.6292    2.9152   -2.0922 C   0  0  0  0  0  0  0  0  0  0  0  0
   52.6054    3.7463   -3.3188 C   0  0  0  0  0  0  0  0  0  0  0  0
   51.9174    3.3657   -4.4060 C   0  0  0  0  0  0  0  0  0  0  0  0
   51.9222    4.1628   -5.6835 C   0  0  0  0  0  0  0  0  0  0  0  0
   52.3929    5.5303   -5.4505 N   0  0  0  0  0  0  0  0  0  0  0  0
   53.2187    5.8163   -4.3955 C   0  0  0  0  0  0  0  0  0  0  0  0
   53.3406    5.0022   -3.3318 C   0  0  0  0  0  0  0  0  0  0  0  0
   53.8479    2.4219   -1.6452 C   0  0  0  0  0  0  0  0  0  0  0  0
   55.0944    2.6447   -2.3110 C   0  0  0  0  0  0  0  0  0  0  0  0
   56.0640    2.1497   -1.5031 C   0  0  0  0  0  0  0  0  0  0  0  0
   54.0493    1.7419   -0.4649 N   0  0  0  0  0  0  0  0  0  0  0  0
   55.4058    1.6106   -0.3566 C   0  0  0  0  0  0  0  0  0  0  0  0
   56.0854    1.0969    0.7531 C   0  0  0  0  0  0  0  0  0  0  0  0
   55.4183    0.4960    1.8260 C   0  0  0  0  0  0  0  0  0  0  0  0
   56.0870   -0.0305    2.9719 C   0  0  0  0  0  0  0  0  0  0  0  0
   55.1494   -0.6808    3.7043 C   0  0  0  0  0  0  0  0  0  0  0  0
   53.9108   -0.5513    3.0002 C   0  0  0  0  0  0  0  0  0  0  0  0
   54.0798    0.2179    1.8712 N   0  0  0  0  0  0  0  0  0  0  0  0
   52.7304   -1.1795    3.3786 C   0  0  0  0  0  0  0  0  0  0  0  0
   52.7638   -2.1290    4.5154 C   0  0  0  0  0  0  0  0  0  0  0  0
   53.5354   -3.2261    4.4844 C   0  0  0  0  0  0  0  0  0  0  0  0
   53.5991   -4.2029    5.6291 C   0  0  0  0  0  0  0  0  0  0  0  0
   52.4724   -4.0165    6.5471 N   0  0  0  0  0  0  0  0  0  0  0  0
   51.8455   -2.8017    6.6437 C   0  0  0  0  0  0  0  0  0  0  0  0
   51.9249   -1.8704    5.6767 C   0  0  0  0  0  0  0  0  0  0  0  0
   51.5210   -0.9459    2.7366 C   0  0  0  0  0  0  0  0  0  0  0  0
   50.2885   -1.5789    3.0938 C   0  0  0  0  0  0  0  0  0  0  0  0
   49.3157   -0.9851    2.3600 C   0  0  0  0  0  0  0  0  0  0  0  0
   49.9586   -0.0065    1.5430 C   0  0  0  0  0  0  0  0  0  0  0  0
   51.3108   -0.0126    1.7459 N   0  0  0  0  0  0  0  0  0  0  0  0
   48.1729    2.8541   -0.9918 H   0  0  0  0  0  0  0  0  0  0  0  0
   50.0440    3.9801   -2.5779 H   0  0  0  0  0  0  0  0  0  0  0  0
   51.3818    2.4242   -4.4407 H   0  0  0  0  0  0  0  0  0  0  0  0
   52.5565    3.6662   -6.4418 H   0  0  0  0  0  0  0  0  0  0  0  0
   50.9065    4.2189   -6.0977 H   0  0  0  0  0  0  0  0  0  0  0  0
   52.5454    6.0607   -6.2960 H   0  0  0  0  0  0  0  0  0  0  0  0
   53.7000    6.7877   -4.4460 H   0  0  0  0  0  0  0  0  0  0  0  0
   53.9361    5.2814   -2.4743 H   0  0  0  0  0  0  0  0  0  0  0  0
   55.2038    3.1225   -3.2711 H   0  0  0  0  0  0  0  0  0  0  0  0
   57.1312    2.1426   -1.6561 H   0  0  0  0  0  0  0  0  0  0  0  0
   57.1397    0.0851    3.1738 H   0  0  0  0  0  0  0  0  0  0  0  0
   55.2748   -1.1979    4.6415 H   0  0  0  0  0  0  0  0  0  0  0  0
   54.1652   -3.4566    3.6331 H   0  0  0  0  0  0  0  0  0  0  0  0
   54.5553   -4.0902    6.1737 H   0  0  0  0  0  0  0  0  0  0  0  0
   53.5613   -5.2330    5.2503 H   0  0  0  0  0  0  0  0  0  0  0  0
   52.5509   -4.5477    7.4022 H   0  0  0  0  0  0  0  0  0  0  0  0
   51.2139   -2.6840    7.5184 H   0  0  0  0  0  0  0  0  0  0  0  0
   51.3847   -0.9371    5.7470 H   0  0  0  0  0  0  0  0  0  0  0  0
   50.1890   -2.3700    3.8188 H   0  0  0  0  0  0  0  0  0  0  0  0
   48.2557   -1.1817    2.3601 H   0  0  0  0  0  0  0  0  0  0  0  0
   71.2270    0.9098    0.7660 Ni  0  0  0  0  0  0  0  0  0  0  0  0
   67.8232    1.1200    0.8476 C   0  0  0  0  0  0  0  0  0  0  0  0
   68.5269    1.9461   -0.0362 C   0  0  0  0  0  0  0  0  0  0  0  0
   67.9022    2.9281   -0.8623 C   0  0  0  0  0  0  0  0  0  0  0  0
   68.8801    3.4718   -1.6280 C   0  0  0  0  0  0  0  0  0  0  0  0
   70.0946    2.7955   -1.2888 C   0  0  0  0  0  0  0  0  0  0  0  0
   69.8726    1.8957   -0.2692 N   0  0  0  0  0  0  0  0  0  0  0  0
   71.2896    2.9452   -1.9798 C   0  0  0  0  0  0  0  0  0  0  0  0
   71.3368    3.8468   -3.1543 C   0  0  0  0  0  0  0  0  0  0  0  0
   70.5557    3.6481   -4.2271 C   0  0  0  0  0  0  0  0  0  0  0  0
   70.6266    4.5183   -5.4539 C   0  0  0  0  0  0  0  0  0  0  0  0
   71.3502    5.7632   -5.1830 N   0  0  0  0  0  0  0  0  0  0  0  0
   72.2482    5.8463   -4.1524 C   0  0  0  0  0  0  0  0  0  0  0  0
   72.2660    4.9668   -3.1351 C   0  0  0  0  0  0  0  0  0  0  0  0
   72.4450    2.2545   -1.6336 C   0  0  0  0  0  0  0  0  0  0  0  0
   73.6520    2.2825   -2.4008 C   0  0  0  0  0  0  0  0  0  0  0  0
   74.5727    1.5662   -1.7100 C   0  0  0  0  0  0  0  0  0  0  0  0
   72.6139    1.4924   -0.5007 N   0  0  0  0  0  0  0  0  0  0  0  0
   73.9267    1.1080   -0.5220 C   0  0  0  0  0  0  0  0  0  0  0  0
   74.6024    0.4764    0.5268 C   0  0  0  0  0  0  0  0  0  0  0  0
   73.9529    0.0646    1.6953 C   0  0  0  0  0  0  0  0  0  0  0  0
   74.6365   -0.4695    2.8286 C   0  0  0  0  0  0  0  0  0  0  0  0
   73.6840   -0.8267    3.7248 C   0  0  0  0  0  0  0  0  0  0  0  0
   72.4193   -0.5331    3.1234 C   0  0  0  0  0  0  0  0  0  0  0  0
   72.6001    0.0610    1.8940 N   0  0  0  0  0  0  0  0  0  0  0  0
   71.1945   -0.8997    3.6661 C   0  0  0  0  0  0  0  0  0  0  0  0
   71.1690   -1.6664    4.9341 C   0  0  0  0  0  0  0  0  0  0  0  0
   71.7464   -2.8725    5.0403 C   0  0  0  0  0  0  0  0  0  0  0  0
   71.7392   -3.6646    6.3215 C   0  0  0  0  0  0  0  0  0  0  0  0
   70.7497   -3.1390    7.2660 N   0  0  0  0  0  0  0  0  0  0  0  0
   70.3286   -1.8378    7.1904 C   0  0  0  0  0  0  0  0  0  0  0  0
   70.4734   -1.0954    6.0783 C   0  0  0  0  0  0  0  0  0  0  0  0
   69.9846   -0.6037    3.0505 C   0  0  0  0  0  0  0  0  0  0  0  0
   68.7167   -1.0746    3.5164 C   0  0  0  0  0  0  0  0  0  0  0  0
   67.7750   -0.5348    2.7047 C   0  0  0  0  0  0  0  0  0  0  0  0
   68.4694    0.2717    1.7525 C   0  0  0  0  0  0  0  0  0  0  0  0
   69.8220    0.1960    1.9424 N   0  0  0  0  0  0  0  0  0  0  0  0
   66.8511    3.1671   -0.8411 H   0  0  0  0  0  0  0  0  0  0  0  0
   68.7950    4.2565   -2.3618 H   0  0  0  0  0  0  0  0  0  0  0  0
   69.8827    2.8011   -4.2931 H   0  0  0  0  0  0  0  0  0  0  0  0
   71.1122    3.9702   -6.2829 H   0  0  0  0  0  0  0  0  0  0  0  0
   69.6134    4.7796   -5.7894 H   0  0  0  0  0  0  0  0  0  0  0  0
   71.5640    6.3020   -6.0096 H   0  0  0  0  0  0  0  0  0  0  0  0
   72.8887    6.7220   -4.1789 H   0  0  0  0  0  0  0  0  0  0  0  0
   72.9323    5.0927   -2.2936 H   0  0  0  0  0  0  0  0  0  0  0  0
   73.7682    2.7826   -3.3486 H   0  0  0  0  0  0  0  0  0  0  0  0
   75.6013    1.3667   -1.9638 H   0  0  0  0  0  0  0  0  0  0  0  0
   75.7081   -0.5490    2.9162 H   0  0  0  0  0  0  0  0  0  0  0  0
   73.8171   -1.2527    4.7057 H   0  0  0  0  0  0  0  0  0  0  0  0
   72.2606   -3.3347    4.2057 H   0  0  0  0  0  0  0  0  0  0  0  0
   72.7449   -3.6543    6.7816 H   0  0  0  0  0  0  0  0  0  0  0  0
   71.4882   -4.7141    6.1155 H   0  0  0  0  0  0  0  0  0  0  0  0
   70.8158   -3.5362    8.1918 H   0  0  0  0  0  0  0  0  0  0  0  0
   69.7966   -1.4809    8.0665 H   0  0  0  0  0  0  0  0  0  0  0  0
   70.0883   -0.0875    6.0187 H   0  0  0  0  0  0  0  0  0  0  0  0
   68.5763   -1.7370    4.3550 H   0  0  0  0  0  0  0  0  0  0  0  0
   66.7040   -0.6516    2.7431 H   0  0  0  0  0  0  0  0  0  0  0  0
  2  3  4  0  0  0  0
  3  4  4  0  0  0  0
  4  5  2  0  0  0  0
  5  6  4  0  0  0  0
  1  7  1  0  0  0  0
  3  7  4  0  0  0  0
  6  7  4  0  0  0  0
  6  8  4  0  0  0  0
  8  9  1  0  0  0  0
  9 10  2  0  0  0  0
 10 11  1  0  0  0  0
 11 12  1  0  0  0  0
 12 13  1  0  0  0  0
  9 14  1  0  0  0  0
 13 14  2  0  0  0  0
  8 15  4  0  0  0  0
 15 16  4  0  0  0  0
 16 17  2  0  0  0  0
  1 18  1  0  0  0  0
 15 18  4  0  0  0  0
 17 19  4  0  0  0  0
 18 19  4  0  0  0  0
 19 20  4  0  0  0  0
 20 21  4  0  0  0  0
 21 22  4  0  0  0  0
 22 23  2  0  0  0  0
 23 24  4  0  0  0  0
  1 25  1  0  0  0  0
 21 25  4  0  0  0  0
 24 25  4  0  0  0  0
 24 26  4  0  0  0  0
 26 27  1  0  0  0  0
 27 28  2  0  0  0  0
 28 29  1  0  0  0  0
 29 30  1  0  0  0  0
 30 31  1  0  0  0  0
 27 32  1  0  0  0  0
 31 32  2  0  0  0  0
 26 33  4  0  0  0  0
 33 34  4  0  0  0  0
 34 35  2  0  0  0  0
  2 36  4  0  0  0  0
 35 36  4  0  0  0  0
  1 37  1  0  0  0  0
 33 37  4  0  0  0  0
 36 37  4  0  0  0  0
  2 38  1  0  0  0  0
  4 39  1  0  0  0  0
  5 40  1  0  0  0  0
 10 41  1  0  0  0  0
 11 42  1  0  0  0  0
 11 43  1  0  0  0  0
 12 44  1  0  0  0  0
 13 45  1  0  0  0  0
 14 46  1  0  0  0  0
 16 47  1  0  0  0  0
 17 48  1  0  0  0  0
 22 49  1  0  0  0  0
 23 50  1  0  0  0  0
 28 51  1  0  0  0  0
 29 52  1  0  0  0  0
 29 53  1  0  0  0  0
 30 54  1  0  0  0  0
 31 55  1  0  0  0  0
 32 56  1  0  0  0  0
 34 57  1  0  0  0  0
 35 58  1  0  0  0  0
 60 61  4  0  0  0  0
 61 62  4  0  0  0  0
 62 63  2  0  0  0  0
 63 64  4  0  0  0  0
 59 65  1  0  0  0  0
 61 65  4  0  0  0  0
 64 65  4  0  0  0  0
 64 66  4  0  0  0  0
 66 67  1  0  0  0  0
 67 68  2  0  0  0  0
 68 69  1  0  0  0  0
 69 70  1  0  0  0  0
 70 71  1  0  0  0  0
 67 72  1  0  0  0  0
 71 72  2  0  0  0  0
 66 73  4  0  0  0  0
 73 74  4  0  0  0  0
 74 75  2  0  0  0  0
 59 76  1  0  0  0  0
 73 76  4  0  0  0  0
 75 77  4  0  0  0  0
 76 77  4  0  0  0  0
 77 78  4  0  0  0  0
 78 79  4  0  0  0  0
 79 80  4  0  0  0  0
 80 81  2  0  0  0  0
 81 82  4  0  0  0  0
 59 83  1  0  0  0  0
 79 83  4  0  0  0  0
 82 83  4  0  0  0  0
 82 84  4  0  0  0  0
 84 85  1  0  0  0  0
 85 86  2  0  0  0  0
 86 87  1  0  0  0  0
 87 88  1  0  0  0  0
 88 89  1  0  0  0  0
 85 90  1  0  0  0  0
 89 90  2  0  0  0  0
 84 91  4  0  0  0  0
 91 92  4  0  0  0  0
 92 93  2  0  0  0  0
 60 94  4  0  0  0  0
 93 94  4  0  0  0  0
 59 95  1  0  0  0  0
 91 95  4  0  0  0  0
 94 95  4  0  0  0  0
 60 96  1  0  0  0  0
 62 97  1  0  0  0  0
 63 98  1  0  0  0  0
 68 99  1  0  0  0  0
 69100  1  0  0  0  0
 69101  1  0  0  0  0
 70102  1  0  0  0  0
 71103  1  0  0  0  0
 72104  1  0  0  0  0
 74105  1  0  0  0  0
 75106  1  0  0  0  0
 80107  1  0  0  0  0
 81108  1  0  0  0  0
 86109  1  0  0  0  0
 87110  1  0  0  0  0
 87111  1  0  0  0  0
 88112  1  0  0  0  0
 89113  1  0  0  0  0
 90114  1  0  0  0  0
 92115  1  0  0  0  0
 93116  1  0  0  0  0
 20117  4  0  0  0  0
117118  3  0  0  0  0
118119  4  0  0  0  0
119120  3  0  0  0  0
120121  4  0  0  0  0
121122  3  0  0  0  0
122123  4  0  0  0  0
123124  3  0  0  0  0
125126  3  0  0  0  0
126127  4  0  0  0  0
127128  3  0  0  0  0
128129  4  0  0  0  0
129130  3  0  0  0  0
130131  4  0  0  0  0
131132  3  0  0  0  0
133134  3  0  0  0  0
134135  4  0  0  0  0
135136  3  0  0  0  0
136137  4  0  0  0  0
137138  3  0  0  0  0
138139  4  0  0  0  0
 78140  4  0  0  0  0
139140  3  0  0  0  0
124142  4  0  0  0  0
142143  4  0  0  0  0
143144  4  0  0  0  0
144145  2  0  0  0  0
145146  4  0  0  0  0
141147  1  0  0  0  0
143147  4  0  0  0  0
146147  4  0  0  0  0
146148  4  0  0  0  0
148149  1  0  0  0  0
149150  2  0  0  0  0
150151  1  0  0  0  0
151152  1  0  0  0  0
152153  1  0  0  0  0
149154  1  0  0  0  0
153154  2  0  0  0  0
148155  4  0  0  0  0
155156  4  0  0  0  0
156157  2  0  0  0  0
141158  1  0  0  0  0
155158  4  0  0  0  0
157159  4  0  0  0  0
158159  4  0  0  0  0
125160  4  0  0  0  0
159160  4  0  0  0  0
160161  4  0  0  0  0
161162  4  0  0  0  0
162163  2  0  0  0  0
163164  4  0  0  0  0
141165  1  0  0  0  0
161165  4  0  0  0  0
164165  4  0  0  0  0
164166  4  0  0  0  0
166167  1  0  0  0  0
167168  2  0  0  0  0
168169  1  0  0  0  0
169170  1  0  0  0  0
170171  1  0  0  0  0
167172  1  0  0  0  0
171172  2  0  0  0  0
166173  4  0  0  0  0
173174  4  0  0  0  0
174175  2  0  0  0  0
142176  4  0  0  0  0
175176  4  0  0  0  0
141177  1  0  0  0  0
173177  4  0  0  0  0
176177  4  0  0  0  0
144178  1  0  0  0  0
145179  1  0  0  0  0
150180  1  0  0  0  0
151181  1  0  0  0  0
151182  1  0  0  0  0
152183  1  0  0  0  0
153184  1  0  0  0  0
154185  1  0  0  0  0
156186  1  0  0  0  0
157187  1  0  0  0  0
162188  1  0  0  0  0
163189  1  0  0  0  0
168190  1  0  0  0  0
169191  1  0  0  0  0
169192  1  0  0  0  0
170193  1  0  0  0  0
171194  1  0  0  0  0
172195  1  0  0  0  0
174196  1  0  0  0  0
175197  1  0  0  0  0
132199  4  0  0  0  0
199200  4  0  0  0  0
200201  4  0  0  0  0
201202  2  0  0  0  0
202203  4  0  0  0  0
198204  1  0  0  0  0
200204  4  0  0  0  0
203204  4  0  0  0  0
203205  4  0  0  0  0
205206  1  0  0  0  0
206207  2  0  0  0  0
207208  1  0  0  0  0
208209  1  0  0  0  0
209210  1  0  0  0  0
206211  1  0  0  0  0
210211  2  0  0  0  0
205212  4  0  0  0  0
212213  4  0  0  0  0
213214  2  0  0  0  0
198215  1  0  0  0  0
212215  4  0  0  0  0
214216  4  0  0  0  0
215216  4  0  0  0  0
133217  4  0  0  0  0
216217  4  0  0  0  0
217218  4  0  0  0  0
218219  4  0  0  0  0
219220  2  0  0  0  0
220221  4  0  0  0  0
198222  1  0  0  0  0
218222  4  0  0  0  0
221222  4  0  0  0  0
221223  4  0  0  0  0
223224  1  0  0  0  0
224225  2  0  0  0  0
225226  1  0  0  0  0
226227  1  0  0  0  0
227228  1  0  0  0  0
224229  1  0  0  0  0
228229  2  0  0  0  0
223230  4  0  0  0  0
230231  4  0  0  0  0
231232  2  0  0  0  0
199233  4  0  0  0  0
232233  4  0  0  0  0
198234  1  0  0  0  0
230234  4  0  0  0  0
233234  4  0  0  0  0
201235  1  0  0  0  0
202236  1  0  0  0  0
207237  1  0  0  0  0
208238  1  0  0  0  0
208239  1  0  0  0  0
209240  1  0  0  0  0
210241  1  0  0  0  0
211242  1  0  0  0  0
213243  1  0  0  0  0
214244  1  0  0  0  0
219245  1  0  0  0  0
220246  1  0  0  0  0
225247  1  0  0  0  0
226248  1  0  0  0  0
226249  1  0  0  0  0
227250  1  0  0  0  0
228251  1  0  0  0  0
229252  1  0  0  0  0
231253  1  0  0  0  0
232254  1  0  0  0  0
M  END
