177

Fe 31.040599 0.367471 0.273306
C 27.706056 0.241306 0.231647
C 28.366948 -0.920094 0.232415
C 27.715063 -2.222775 0.282811
C 28.653757 -3.149665 0.227956
C 29.958642 -2.481657 0.128703
N 29.783043 -1.064271 0.143081
C 31.149080 -3.107863 0.013840
C 31.200322 -4.588511 -0.035440
C 30.729620 -5.249166 -1.104253
C 30.718760 -6.754806 -1.178445
N 31.522422 -7.372268 -0.120319
C 31.969175 -6.643985 1.028009
C 31.819992 -5.322635 1.084640
C 32.439471 -2.373318 -0.063347
C 33.719751 -3.002852 -0.410822
C 34.654255 -2.075384 -0.350544
N 32.585240 -1.110213 0.195902
C 33.978257 -0.843182 0.035267
C 34.574268 0.336497 0.274859
C 33.810245 1.545777 0.650198
C 34.334377 2.607384 1.250128
C 33.292269 3.613234 1.333455
C 32.202338 3.099496 0.773702
N 32.440484 1.767653 0.316139
C 30.931212 3.840255 0.573088
C 30.970433 5.324149 0.578419
C 30.293766 6.022588 1.505433
C 30.269337 7.529644 1.516711
N 31.276126 8.112769 0.626121
C 31.952409 7.344378 -0.374936
C 31.813849 6.021049 -0.412828
C 29.769869 3.191859 0.359536
C 28.468430 3.804851 0.098072
C 27.605123 2.810600 0.013680
C 28.347023 1.565666 0.205779
N 29.609035 1.775742 0.408050
H 26.622830 0.216315 0.246461
H 26.652167 -2.413805 0.355937
H 28.464426 -4.214408 0.250758
H 30.282593 -4.699091 -1.924493
H 31.116063 -7.070894 -2.166701
H 29.670243 -7.108842 -1.089846
H 31.673237 -8.405162 -0.147075
H 32.450918 -7.168795 1.843536
H 32.179189 -4.780614 1.951685
H 33.887153 -4.039471 -0.672966
H 35.705403 -2.230443 -0.551876
H 35.355808 2.720905 1.588432
H 33.396257 4.608462 1.746599
H 29.694156 5.500500 2.242079
H 30.454287 7.883031 2.552804
H 29.261677 7.873194 1.201203
H 31.418804 9.146573 0.642281
H 32.593226 7.841515 -1.092459
H 32.342279 5.450403 -1.167105
H 28.230280 4.854712 -0.009596
H 26.542699 2.913002 -0.167845
Fe 51.530858 0.306578 0.266693
C 54.865401 0.438744 0.253086
C 54.204509 1.572910 0.503118
C 54.856394 2.834414 0.831948
C 53.917700 3.751474 0.977319
C 52.612815 3.120339 0.736998
N 52.788414 1.732902 0.446813
C 51.422377 3.756604 0.759221
C 51.371134 5.213321 1.028896
C 51.841836 6.087988 0.126796
C 51.852697 7.574461 0.377504
N 51.049035 7.950416 1.543501
C 50.602282 6.992630 2.508747
C 50.751465 5.689921 2.280443
C 50.131986 3.055748 0.526170
C 48.851706 3.745191 0.321917
C 47.917201 2.826400 0.181718
N 49.986216 1.766436 0.508264
C 48.593200 1.540107 0.294057
C 47.997189 0.336497 0.274859
C 48.761212 -0.925162 0.381890
C 48.237079 -2.090795 0.739974
C 49.279188 -3.091088 0.605464
C 50.369119 -2.469178 0.169025
N 50.130973 -1.070164 0.007994
C 51.640244 -3.149612 -0.185910
C 51.601024 -4.600066 -0.499206
C 52.277691 -5.481200 0.256290
C 52.302120 -6.955553 -0.056170
N 51.295331 -7.333930 -1.051165
C 50.619048 -6.368581 -1.863963
C 50.757608 -5.067962 -1.616933
C 52.801588 -2.470491 -0.255313
C 54.103027 -3.013076 -0.642256
C 54.966334 -2.023883 -0.511274
C 54.224434 -0.849197 -0.056440
N 52.962422 -1.097792 0.096026
H 55.948627 0.459973 0.272919
H 55.919290 3.005295 0.944372
H 54.107031 4.786507 1.228127
H 52.288864 5.726790 -0.792394
H 51.455394 8.095302 -0.519874
H 52.901214 7.901229 0.540029
H 50.898220 8.964979 1.739069
H 50.120539 7.330163 3.417911
H 50.392268 4.974430 3.010940
H 48.684304 4.813916 0.288382
H 46.866053 3.021060 0.018360
H 47.215649 -2.274284 1.046028
H 49.175200 -4.151797 0.795362
H 52.877301 -5.129395 1.087828
H 52.117170 -7.523090 0.879924
H 53.309780 -7.223375 -0.438064
H 51.152653 -8.347108 -1.257277
H 49.978230 -6.700123 -2.671469
H 50.229178 -4.348718 -2.231147
H 54.341177 -4.015358 -0.972757
H 56.028758 -2.084936 -0.710548
C 35.951812 0.336497 0.274859
C 37.173730 0.336497 0.274859
C 45.397727 0.336497 0.274859
C 46.619644 0.336497 0.274859
Fe 40.997094 -0.148594 -0.413240
C 38.163444 -0.708414 -0.578651
C 38.482672 0.336907 -1.343648
C 38.278511 1.737410 -0.969048
C 39.087664 2.489152 -1.696797
C 39.952638 1.598716 -2.474463
N 39.537863 0.247315 -2.293742
C 41.185174 1.936529 -2.892372
C 41.529840 3.352531 -3.190506
C 40.736287 4.085209 -3.990160
C 41.044834 5.515356 -4.351811
N 42.173188 6.055938 -3.587848
C 43.031355 5.235117 -2.793698
C 42.741343 3.953970 -2.596952
C 42.285836 0.969716 -2.699451
C 43.415791 0.770248 -3.608666
C 44.312816 0.032230 -2.971427
N 42.496526 0.415351 -1.548399
C 43.773410 -0.203029 -1.633940
C 44.436898 -0.708414 -0.578651
C 43.834632 -0.756998 0.776811
C 44.512871 -0.762578 1.921072
C 43.538658 -0.819566 3.003098
C 42.330661 -0.855344 2.445846
N 42.433421 -0.814009 1.020970
C 41.042208 -0.999172 3.185579
C 41.056486 -1.431527 4.606090
C 41.635417 -2.592591 4.950519
C 41.705513 -3.054664 6.382794
N 40.763233 -2.336475 7.239479
C 40.236368 -1.056247 6.874398
C 40.377253 -0.610011 5.625957
C 39.867418 -0.832432 2.545882
C 38.536845 -1.228796 3.013223
C 37.736424 -1.155874 1.958048
C 38.532929 -0.662421 0.836060
N 39.765734 -0.486750 1.175904
H 37.599187 2.106137 -0.212624
H 39.188764 3.559816 -1.589107
H 39.860478 3.633538 -4.438684
H 41.278787 5.567844 -5.438181
H 40.144209 6.136691 -4.154119
H 42.414655 7.061192 -3.703905
H 43.911224 5.663009 -2.336888
H 43.394047 3.357532 -1.973002
H 43.521236 1.169363 -4.609743
H 45.270988 -0.273610 -3.369861
H 45.587155 -0.717631 2.033609
H 43.760728 -0.850508 4.063011
H 42.121863 -3.197085 4.199696
H 42.735010 -2.895568 6.761971
H 41.475311 -4.140328 6.421044
H 40.602338 -2.686587 8.210746
H 39.693973 -0.472077 7.599534
H 39.959009 0.355383 5.359439
H 38.258016 -1.596593 3.990716
H 36.696094 -1.440942 1.935949
