 xtb: 6.5.1 (b24c23e)
          07302209123D

248287  0     0  0            999 V2000
   42.8153   -0.0179   -0.0418 Cu  0  0  0  0  0  0  0  0  0  0  0  0
   39.4101   -0.0701   -0.0976 C   0  0  0  0  0  0  0  0  0  0  0  0
   40.0515   -1.2975   -0.0254 C   0  0  0  0  0  0  0  0  0  0  0  0
   39.3827   -2.5630    0.0724 C   0  0  0  0  0  0  0  0  0  0  0  0
   40.3465   -3.5145    0.1453 C   0  0  0  0  0  0  0  0  0  0  0  0
   41.6139   -2.8391    0.0803 C   0  0  0  0  0  0  0  0  0  0  0  0
   41.4033   -1.4934   -0.0142 N   0  0  0  0  0  0  0  0  0  0  0  0
   42.8621   -3.4651    0.1304 C   0  0  0  0  0  0  0  0  0  0  0  0
   42.8848   -4.9466    0.2203 C   0  0  0  0  0  0  0  0  0  0  0  0
   42.3413   -5.7301   -0.7978 C   0  0  0  0  0  0  0  0  0  0  0  0
   42.3645   -7.1140   -0.7160 C   0  0  0  0  0  0  0  0  0  0  0  0
   42.9299   -7.7313    0.3972 C   0  0  0  0  0  0  0  0  0  0  0  0
   42.9707   -9.0834    0.5195 O   0  0  0  0  0  0  0  0  0  0  0  0
   43.4734   -6.9603    1.4230 C   0  0  0  0  0  0  0  0  0  0  0  0
   43.4517   -5.5801    1.3290 C   0  0  0  0  0  0  0  0  0  0  0  0
   44.0909   -2.8026    0.1051 C   0  0  0  0  0  0  0  0  0  0  0  0
   45.3720   -3.4503    0.0959 C   0  0  0  0  0  0  0  0  0  0  0  0
   46.3128   -2.4728    0.0574 C   0  0  0  0  0  0  0  0  0  0  0  0
   44.2722   -1.4454    0.0580 N   0  0  0  0  0  0  0  0  0  0  0  0
   45.6147   -1.2228    0.0355 C   0  0  0  0  0  0  0  0  0  0  0  0
   46.2441    0.0337   -0.0085 C   0  0  0  0  0  0  0  0  0  0  0  0
   45.5792    1.2715   -0.0550 C   0  0  0  0  0  0  0  0  0  0  0  0
   46.2407    2.5395   -0.1264 C   0  0  0  0  0  0  0  0  0  0  0  0
   45.2718    3.4886   -0.1764 C   0  0  0  0  0  0  0  0  0  0  0  0
   44.0099    2.8059   -0.1282 C   0  0  0  0  0  0  0  0  0  0  0  0
   44.2308    1.4554   -0.0610 N   0  0  0  0  0  0  0  0  0  0  0  0
   42.7621    3.4304   -0.1771 C   0  0  0  0  0  0  0  0  0  0  0  0
   42.7389    4.9142   -0.2239 C   0  0  0  0  0  0  0  0  0  0  0  0
   43.2573    5.6650    0.8339 C   0  0  0  0  0  0  0  0  0  0  0  0
   43.2323    7.0480    0.8007 C   0  0  0  0  0  0  0  0  0  0  0  0
   42.6906    7.7030   -0.3037 C   0  0  0  0  0  0  0  0  0  0  0  0
   42.6842    9.0612   -0.3053 O   0  0  0  0  0  0  0  0  0  0  0  0
   42.1743    6.9677   -1.3680 C   0  0  0  0  0  0  0  0  0  0  0  0
   42.1971    5.5822   -1.3221 C   0  0  0  0  0  0  0  0  0  0  0  0
   41.5333    2.7655   -0.1826 C   0  0  0  0  0  0  0  0  0  0  0  0
   40.2466    3.4069   -0.1925 C   0  0  0  0  0  0  0  0  0  0  0  0
   39.3109    2.4253   -0.1777 C   0  0  0  0  0  0  0  0  0  0  0  0
   40.0162    1.1763   -0.1474 C   0  0  0  0  0  0  0  0  0  0  0  0
   41.3617    1.4114   -0.1490 N   0  0  0  0  0  0  0  0  0  0  0  0
   38.3250   -0.0856   -0.0994 H   0  0  0  0  0  0  0  0  0  0  0  0
   38.3119   -2.6921    0.0915 H   0  0  0  0  0  0  0  0  0  0  0  0
   40.2169   -4.5799    0.2474 H   0  0  0  0  0  0  0  0  0  0  0  0
   41.9124   -5.2514   -1.6712 H   0  0  0  0  0  0  0  0  0  0  0  0
   41.9467   -7.7183   -1.5142 H   0  0  0  0  0  0  0  0  0  0  0  0
   42.5671   -9.5180   -0.2438 H   0  0  0  0  0  0  0  0  0  0  0  0
   43.9064   -7.4534    2.2845 H   0  0  0  0  0  0  0  0  0  0  0  0
   43.8640   -4.9800    2.1325 H   0  0  0  0  0  0  0  0  0  0  0  0
   45.5282   -4.5169    0.1024 H   0  0  0  0  0  0  0  0  0  0  0  0
   47.3856   -2.5794    0.0393 H   0  0  0  0  0  0  0  0  0  0  0  0
   47.3103    2.6756   -0.1431 H   0  0  0  0  0  0  0  0  0  0  0  0
   45.3966    4.5565   -0.2540 H   0  0  0  0  0  0  0  0  0  0  0  0
   43.6681    5.1552    1.6982 H   0  0  0  0  0  0  0  0  0  0  0  0
   43.6268    7.6323    1.6228 H   0  0  0  0  0  0  0  0  0  0  0  0
   42.2856    9.4103   -1.1137 H   0  0  0  0  0  0  0  0  0  0  0  0
   41.7579    7.4819   -2.2277 H   0  0  0  0  0  0  0  0  0  0  0  0
   41.8054    5.0110   -2.1565 H   0  0  0  0  0  0  0  0  0  0  0  0
   40.0863    4.4731   -0.1964 H   0  0  0  0  0  0  0  0  0  0  0  0
   38.2367    2.5244   -0.1778 H   0  0  0  0  0  0  0  0  0  0  0  0
   90.9384    0.0003   -0.0159 Cu  0  0  0  0  0  0  0  0  0  0  0  0
   94.3424    0.0493   -0.1291 C   0  0  0  0  0  0  0  0  0  0  0  0
   93.6974    1.2734   -0.2221 C   0  0  0  0  0  0  0  0  0  0  0  0
   94.3628    2.5407   -0.3192 C   0  0  0  0  0  0  0  0  0  0  0  0
   93.3968    3.4916   -0.3630 C   0  0  0  0  0  0  0  0  0  0  0  0
   92.1312    2.8124   -0.3041 C   0  0  0  0  0  0  0  0  0  0  0  0
   92.3453    1.4670   -0.2121 N   0  0  0  0  0  0  0  0  0  0  0  0
   90.8823    3.4387   -0.3112 C   0  0  0  0  0  0  0  0  0  0  0  0
   90.8569    4.9179   -0.4350 C   0  0  0  0  0  0  0  0  0  0  0  0
   91.3661    5.5427   -1.5736 C   0  0  0  0  0  0  0  0  0  0  0  0
   91.3396    6.9235   -1.6958 C   0  0  0  0  0  0  0  0  0  0  0  0
   90.8057    7.6980   -0.6687 C   0  0  0  0  0  0  0  0  0  0  0  0
   90.7626    9.0534   -0.7458 O   0  0  0  0  0  0  0  0  0  0  0  0
   90.2976    7.0866    0.4759 C   0  0  0  0  0  0  0  0  0  0  0  0
   90.3219    5.7075    0.5855 C   0  0  0  0  0  0  0  0  0  0  0  0
   89.6559    2.7787   -0.2138 C   0  0  0  0  0  0  0  0  0  0  0  0
   88.3726    3.4189   -0.2768 C   0  0  0  0  0  0  0  0  0  0  0  0
   87.4348    2.4438   -0.1695 C   0  0  0  0  0  0  0  0  0  0  0  0
   89.4786    1.4266   -0.0798 N   0  0  0  0  0  0  0  0  0  0  0  0
   88.1367    1.2017   -0.0475 C   0  0  0  0  0  0  0  0  0  0  0  0
   87.5105   -0.0522    0.0650 C   0  0  0  0  0  0  0  0  0  0  0  0
   88.1789   -1.2851    0.1620 C   0  0  0  0  0  0  0  0  0  0  0  0
   87.5208   -2.5532    0.2580 C   0  0  0  0  0  0  0  0  0  0  0  0
   88.4923   -3.4983    0.3292 C   0  0  0  0  0  0  0  0  0  0  0  0
   89.7523   -2.8122    0.2825 C   0  0  0  0  0  0  0  0  0  0  0  0
   89.5279   -1.4649    0.1728 N   0  0  0  0  0  0  0  0  0  0  0  0
   91.0016   -3.4347    0.3128 C   0  0  0  0  0  0  0  0  0  0  0  0
   91.0290   -4.9112    0.4663 C   0  0  0  0  0  0  0  0  0  0  0  0
   90.5198   -5.5139    1.6190 C   0  0  0  0  0  0  0  0  0  0  0  0
   90.5496   -6.8888    1.7722 C   0  0  0  0  0  0  0  0  0  0  0  0
   91.0861   -7.6851    0.7623 C   0  0  0  0  0  0  0  0  0  0  0  0
   91.0972   -9.0312    0.9434 O   0  0  0  0  0  0  0  0  0  0  0  0
   91.5930   -7.0986   -0.3949 C   0  0  0  0  0  0  0  0  0  0  0  0
   91.5660   -5.7196   -0.5357 C   0  0  0  0  0  0  0  0  0  0  0  0
   92.2280   -2.7738    0.2097 C   0  0  0  0  0  0  0  0  0  0  0  0
   93.5166   -3.4078    0.2763 C   0  0  0  0  0  0  0  0  0  0  0  0
   94.4491   -2.4320    0.1442 C   0  0  0  0  0  0  0  0  0  0  0  0
   93.7401   -1.1923    0.0074 C   0  0  0  0  0  0  0  0  0  0  0  0
   92.3953   -1.4276    0.0543 N   0  0  0  0  0  0  0  0  0  0  0  0
   95.4273    0.0660   -0.1504 H   0  0  0  0  0  0  0  0  0  0  0  0
   95.4333    2.6724   -0.3408 H   0  0  0  0  0  0  0  0  0  0  0  0
   93.5237    4.5609   -0.4166 H   0  0  0  0  0  0  0  0  0  0  0  0
   91.7704    4.9403   -2.3795 H   0  0  0  0  0  0  0  0  0  0  0  0
   91.7302    7.4034   -2.5868 H   0  0  0  0  0  0  0  0  0  0  0  0
   91.1391    9.3706   -1.5776 H   0  0  0  0  0  0  0  0  0  0  0  0
   89.8892    7.7015    1.2684 H   0  0  0  0  0  0  0  0  0  0  0  0
   89.9369    5.2326    1.4810 H   0  0  0  0  0  0  0  0  0  0  0  0
   88.2129    4.4775   -0.4026 H   0  0  0  0  0  0  0  0  0  0  0  0
   86.3615    2.5463   -0.1780 H   0  0  0  0  0  0  0  0  0  0  0  0
   86.4516   -2.6928    0.2641 H   0  0  0  0  0  0  0  0  0  0  0  0
   88.3706   -4.5675    0.3932 H   0  0  0  0  0  0  0  0  0  0  0  0
   90.1127   -4.8935    2.4096 H   0  0  0  0  0  0  0  0  0  0  0  0
   90.1625   -7.3582    2.6681 H   0  0  0  0  0  0  0  0  0  0  0  0
   91.4909   -9.4850    0.1863 H   0  0  0  0  0  0  0  0  0  0  0  0
   92.0053   -7.7227   -1.1805 H   0  0  0  0  0  0  0  0  0  0  0  0
   91.9504   -5.2648   -1.4419 H   0  0  0  0  0  0  0  0  0  0  0  0
   93.6803   -4.4638    0.4191 H   0  0  0  0  0  0  0  0  0  0  0  0
   95.5236   -2.5281    0.1462 H   0  0  0  0  0  0  0  0  0  0  0  0
   51.4470    0.0643   -0.0389 C   0  0  0  0  0  0  0  0  0  0  0  0
   50.2189    0.0658   -0.0310 C   0  0  0  0  0  0  0  0  0  0  0  0
   48.8739    0.0607   -0.0219 C   0  0  0  0  0  0  0  0  0  0  0  0
   47.6504    0.0513   -0.0143 C   0  0  0  0  0  0  0  0  0  0  0  0
   52.7918    0.0600   -0.0482 C   0  0  0  0  0  0  0  0  0  0  0  0
   54.0157    0.0551   -0.0543 C   0  0  0  0  0  0  0  0  0  0  0  0
   67.4921   -0.0227   -0.0309 C   0  0  0  0  0  0  0  0  0  0  0  0
   66.2635   -0.0181   -0.0367 C   0  0  0  0  0  0  0  0  0  0  0  0
   64.9196   -0.0111   -0.0432 C   0  0  0  0  0  0  0  0  0  0  0  0
   63.6954   -0.0028   -0.0496 C   0  0  0  0  0  0  0  0  0  0  0  0
   68.8361   -0.0266   -0.0271 C   0  0  0  0  0  0  0  0  0  0  0  0
   70.0603   -0.0301   -0.0250 C   0  0  0  0  0  0  0  0  0  0  0  0
   83.5358   -0.0877    0.0554 C   0  0  0  0  0  0  0  0  0  0  0  0
   82.3078   -0.0865    0.0404 C   0  0  0  0  0  0  0  0  0  0  0  0
   80.9631   -0.0802    0.0236 C   0  0  0  0  0  0  0  0  0  0  0  0
   79.7393   -0.0704    0.0068 C   0  0  0  0  0  0  0  0  0  0  0  0
   84.8808   -0.0817    0.0645 C   0  0  0  0  0  0  0  0  0  0  0  0
   86.1044   -0.0730    0.0690 C   0  0  0  0  0  0  0  0  0  0  0  0
   58.8558    0.0305   -0.0600 Cu  0  0  0  0  0  0  0  0  0  0  0  0
   55.4212    0.0491   -0.0580 C   0  0  0  0  0  0  0  0  0  0  0  0
   56.0754    1.0984    0.6122 C   0  0  0  0  0  0  0  0  0  0  0  0
   55.4043    2.1322    1.3405 C   0  0  0  0  0  0  0  0  0  0  0  0
   56.3652    2.9518    1.8385 C   0  0  0  0  0  0  0  0  0  0  0  0
   57.6299    2.4280    1.4081 C   0  0  0  0  0  0  0  0  0  0  0  0
   57.4206    1.2943    0.6684 N   0  0  0  0  0  0  0  0  0  0  0  0
   58.8730    2.9858    1.7153 C   0  0  0  0  0  0  0  0  0  0  0  0
   58.8814    4.2560    2.4828 C   0  0  0  0  0  0  0  0  0  0  0  0
   59.4865    4.3216    3.7404 C   0  0  0  0  0  0  0  0  0  0  0  0
   59.4943    5.5016    4.4626 C   0  0  0  0  0  0  0  0  0  0  0  0
   58.8996    6.6431    3.9279 C   0  0  0  0  0  0  0  0  0  0  0  0
   58.9293    7.7858    4.6611 O   0  0  0  0  0  0  0  0  0  0  0  0
   58.2959    6.5940    2.6736 C   0  0  0  0  0  0  0  0  0  0  0  0
   58.2856    5.4047    1.9613 C   0  0  0  0  0  0  0  0  0  0  0  0
   60.1094    2.4422    1.3598 C   0  0  0  0  0  0  0  0  0  0  0  0
   61.3808    3.0567    1.6147 C   0  0  0  0  0  0  0  0  0  0  0  0
   62.3321    2.2234    1.1210 C   0  0  0  0  0  0  0  0  0  0  0  0
   60.3052    1.2551    0.7049 N   0  0  0  0  0  0  0  0  0  0  0  0
   61.6482    1.1007    0.5542 C   0  0  0  0  0  0  0  0  0  0  0  0
   62.2909    0.0069   -0.0541 C   0  0  0  0  0  0  0  0  0  0  0  0
   61.6359   -1.0771   -0.6665 C   0  0  0  0  0  0  0  0  0  0  0  0
   62.3062   -2.2085   -1.2321 C   0  0  0  0  0  0  0  0  0  0  0  0
   61.3455   -3.0274   -1.7315 C   0  0  0  0  0  0  0  0  0  0  0  0
   60.0817   -2.3955   -1.4808 C   0  0  0  0  0  0  0  0  0  0  0  0
   60.2914   -1.2124   -0.8231 N   0  0  0  0  0  0  0  0  0  0  0  0
   58.8390   -2.9215   -1.8416 C   0  0  0  0  0  0  0  0  0  0  0  0
   58.8338   -4.1888   -2.6137 C   0  0  0  0  0  0  0  0  0  0  0  0
   58.2192   -5.3314   -2.1007 C   0  0  0  0  0  0  0  0  0  0  0  0
   58.2186   -6.5181   -2.8174 C   0  0  0  0  0  0  0  0  0  0  0  0
   58.8307   -6.5709   -4.0675 C   0  0  0  0  0  0  0  0  0  0  0  0
   58.8509   -7.7115   -4.8045 O   0  0  0  0  0  0  0  0  0  0  0  0
   59.4441   -5.4355   -4.5938 C   0  0  0  0  0  0  0  0  0  0  0  0
   59.4466   -4.2581   -3.8674 C   0  0  0  0  0  0  0  0  0  0  0  0
   57.6025   -2.3490   -1.5342 C   0  0  0  0  0  0  0  0  0  0  0  0
   56.3317   -2.8568   -1.9659 C   0  0  0  0  0  0  0  0  0  0  0  0
   55.3803   -2.0287   -1.4634 C   0  0  0  0  0  0  0  0  0  0  0  0
   56.0635   -1.0053   -0.7319 C   0  0  0  0  0  0  0  0  0  0  0  0
   57.4065   -1.2155   -0.7906 N   0  0  0  0  0  0  0  0  0  0  0  0
   54.3352    2.2074    1.4594 H   0  0  0  0  0  0  0  0  0  0  0  0
   56.2329    3.8253    2.4563 H   0  0  0  0  0  0  0  0  0  0  0  0
   59.9390    3.4307    4.1613 H   0  0  0  0  0  0  0  0  0  0  0  0
   59.9559    5.5532    5.4409 H   0  0  0  0  0  0  0  0  0  0  0  0
   58.4881    8.5117    4.2000 H   0  0  0  0  0  0  0  0  0  0  0  0
   57.8381    7.4859    2.2595 H   0  0  0  0  0  0  0  0  0  0  0  0
   57.8258    5.3709    0.9798 H   0  0  0  0  0  0  0  0  0  0  0  0
   61.5239    4.0111    2.0951 H   0  0  0  0  0  0  0  0  0  0  0  0
   63.4024    2.3537    1.1273 H   0  0  0  0  0  0  0  0  0  0  0  0
   63.3747   -2.3538   -1.2341 H   0  0  0  0  0  0  0  0  0  0  0  0
   61.4773   -3.9832   -2.2123 H   0  0  0  0  0  0  0  0  0  0  0  0
   57.7534   -5.2955   -1.1221 H   0  0  0  0  0  0  0  0  0  0  0  0
   57.7462   -7.4055   -2.4098 H   0  0  0  0  0  0  0  0  0  0  0  0
   58.3981   -8.4334   -4.3482 H   0  0  0  0  0  0  0  0  0  0  0  0
   59.9123   -5.4897   -5.5689 H   0  0  0  0  0  0  0  0  0  0  0  0
   59.9139   -3.3718   -4.2820 H   0  0  0  0  0  0  0  0  0  0  0  0
   56.1890   -3.7259   -2.5874 H   0  0  0  0  0  0  0  0  0  0  0  0
   54.3103   -2.0916   -1.5814 H   0  0  0  0  0  0  0  0  0  0  0  0
   74.8997   -0.0397   -0.0277 Cu  0  0  0  0  0  0  0  0  0  0  0  0
   71.4648   -0.0324   -0.0258 C   0  0  0  0  0  0  0  0  0  0  0  0
   72.1163    1.0123    0.6549 C   0  0  0  0  0  0  0  0  0  0  0  0
   71.4427    2.0382    1.3917 C   0  0  0  0  0  0  0  0  0  0  0  0
   72.4009    2.8656    1.8824 C   0  0  0  0  0  0  0  0  0  0  0  0
   73.6662    2.3530    1.4406 C   0  0  0  0  0  0  0  0  0  0  0  0
   73.4602    1.2174    0.7028 N   0  0  0  0  0  0  0  0  0  0  0  0
   74.9067    2.9247    1.7319 C   0  0  0  0  0  0  0  0  0  0  0  0
   74.9091    4.2036    2.4845 C   0  0  0  0  0  0  0  0  0  0  0  0
   75.5272    4.2931    3.7342 C   0  0  0  0  0  0  0  0  0  0  0  0
   75.5274    5.4822    4.4413 C   0  0  0  0  0  0  0  0  0  0  0  0
   74.9117    6.6089    3.8992 C   0  0  0  0  0  0  0  0  0  0  0  0
   74.9338    7.7609    4.6179 O   0  0  0  0  0  0  0  0  0  0  0  0
   74.2951    6.5362    2.6523 C   0  0  0  0  0  0  0  0  0  0  0  0
   74.2926    5.3379    1.9552 C   0  0  0  0  0  0  0  0  0  0  0  0
   76.1446    2.3875    1.3715 C   0  0  0  0  0  0  0  0  0  0  0  0
   77.4134    3.0132    1.6117 C   0  0  0  0  0  0  0  0  0  0  0  0
   78.3676    2.1774    1.1279 C   0  0  0  0  0  0  0  0  0  0  0  0
   76.3443    1.1930    0.7315 N   0  0  0  0  0  0  0  0  0  0  0  0
   77.6881    1.0429    0.5798 C   0  0  0  0  0  0  0  0  0  0  0  0
   78.3340   -0.0598   -0.0078 C   0  0  0  0  0  0  0  0  0  0  0  0
   77.6827   -1.1503   -0.6115 C   0  0  0  0  0  0  0  0  0  0  0  0
   78.3552   -2.2860   -1.1659 C   0  0  0  0  0  0  0  0  0  0  0  0
   77.3973   -3.1022   -1.6752 C   0  0  0  0  0  0  0  0  0  0  0  0
   76.1331   -2.4652   -1.4404 C   0  0  0  0  0  0  0  0  0  0  0  0
   76.3391   -1.2822   -0.7819 N   0  0  0  0  0  0  0  0  0  0  0  0
   74.8930   -2.9858   -1.8179 C   0  0  0  0  0  0  0  0  0  0  0  0
   74.8914   -4.2464   -2.6006 C   0  0  0  0  0  0  0  0  0  0  0  0
   74.2634   -5.3902   -2.1067 C   0  0  0  0  0  0  0  0  0  0  0  0
   74.2611   -6.5685   -2.8371 C   0  0  0  0  0  0  0  0  0  0  0  0
   74.8848   -6.6115   -4.0818 C   0  0  0  0  0  0  0  0  0  0  0  0
   74.9020   -7.7430   -4.8325 O   0  0  0  0  0  0  0  0  0  0  0  0
   75.5133   -5.4753   -4.5882 C   0  0  0  0  0  0  0  0  0  0  0  0
   75.5176   -4.3064   -3.8482 C   0  0  0  0  0  0  0  0  0  0  0  0
   73.6551   -2.4125   -1.5184 C   0  0  0  0  0  0  0  0  0  0  0  0
   72.3868   -2.9155   -1.9627 C   0  0  0  0  0  0  0  0  0  0  0  0
   71.4326   -2.0927   -1.4571 C   0  0  0  0  0  0  0  0  0  0  0  0
   72.1116   -1.0766   -0.7118 C   0  0  0  0  0  0  0  0  0  0  0  0
   73.4548   -1.2854   -0.7659 N   0  0  0  0  0  0  0  0  0  0  0  0
   70.3740    2.1043    1.5195 H   0  0  0  0  0  0  0  0  0  0  0  0
   72.2665    3.7368    2.5029 H   0  0  0  0  0  0  0  0  0  0  0  0
   75.9958    3.4135    4.1614 H   0  0  0  0  0  0  0  0  0  0  0  0
   75.9989    5.5522    5.4138 H   0  0  0  0  0  0  0  0  0  0  0  0
   74.4779    8.4751    4.1526 H   0  0  0  0  0  0  0  0  0  0  0  0
   73.8212    7.4168    2.2320 H   0  0  0  0  0  0  0  0  0  0  0  0
   73.8224    5.2855    0.9795 H   0  0  0  0  0  0  0  0  0  0  0  0
   77.5527    3.9755    2.0772 H   0  0  0  0  0  0  0  0  0  0  0  0
   79.4372    2.3135    1.1285 H   0  0  0  0  0  0  0  0  0  0  0  0
   79.4231   -2.4351   -1.1553 H   0  0  0  0  0  0  0  0  0  0  0  0
   77.5307   -4.0592   -2.1532 H   0  0  0  0  0  0  0  0  0  0  0  0
   73.7880   -5.3617   -1.1326 H   0  0  0  0  0  0  0  0  0  0  0  0
   73.7774   -7.4567   -2.4447 H   0  0  0  0  0  0  0  0  0  0  0  0
   74.4355   -8.4654   -4.3912 H   0  0  0  0  0  0  0  0  0  0  0  0
   75.9908   -5.5219   -5.5591 H   0  0  0  0  0  0  0  0  0  0  0  0
   75.9960   -3.4191   -4.2476 H   0  0  0  0  0  0  0  0  0  0  0  0
   72.2473   -3.7782   -2.5939 H   0  0  0  0  0  0  0  0  0  0  0  0
   70.3632   -2.1547   -1.5811 H   0  0  0  0  0  0  0  0  0  0  0  0
  2  3  4  0  0  0  0
  3  4  1  0  0  0  0
  4  5  2  0  0  0  0
  5  6  4  0  0  0  0
  1  7  1  0  0  0  0
  3  7  4  0  0  0  0
  6  7  4  0  0  0  0
  6  8  4  0  0  0  0
  8  9  1  0  0  0  0
  9 10  4  0  0  0  0
 10 11  4  0  0  0  0
 11 12  4  0  0  0  0
 12 13  1  0  0  0  0
 12 14  4  0  0  0  0
  9 15  4  0  0  0  0
 14 15  4  0  0  0  0
  8 16  4  0  0  0  0
 16 17  4  0  0  0  0
 17 18  2  0  0  0  0
  1 19  1  0  0  0  0
 16 19  4  0  0  0  0
 18 20  4  0  0  0  0
 19 20  4  0  0  0  0
 20 21  4  0  0  0  0
 21 22  4  0  0  0  0
 22 23  4  0  0  0  0
 23 24  2  0  0  0  0
 24 25  4  0  0  0  0
  1 26  1  0  0  0  0
 22 26  4  0  0  0  0
 25 26  4  0  0  0  0
 25 27  4  0  0  0  0
 27 28  1  0  0  0  0
 28 29  4  0  0  0  0
 29 30  4  0  0  0  0
 30 31  4  0  0  0  0
 31 32  1  0  0  0  0
 31 33  4  0  0  0  0
 28 34  4  0  0  0  0
 33 34  4  0  0  0  0
 27 35  4  0  0  0  0
 35 36  4  0  0  0  0
 36 37  2  0  0  0  0
  2 38  4  0  0  0  0
 37 38  1  0  0  0  0
  1 39  1  0  0  0  0
 35 39  4  0  0  0  0
 38 39  4  0  0  0  0
  2 40  1  0  0  0  0
  4 41  1  0  0  0  0
  5 42  1  0  0  0  0
 10 43  1  0  0  0  0
 11 44  1  0  0  0  0
 13 45  1  0  0  0  0
 14 46  1  0  0  0  0
 15 47  1  0  0  0  0
 17 48  1  0  0  0  0
 18 49  1  0  0  0  0
 23 50  1  0  0  0  0
 24 51  1  0  0  0  0
 29 52  1  0  0  0  0
 30 53  1  0  0  0  0
 32 54  1  0  0  0  0
 33 55  1  0  0  0  0
 34 56  1  0  0  0  0
 36 57  1  0  0  0  0
 37 58  1  0  0  0  0
 60 61  4  0  0  0  0
 61 62  1  0  0  0  0
 62 63  2  0  0  0  0
 63 64  4  0  0  0  0
 59 65  1  0  0  0  0
 61 65  4  0  0  0  0
 64 65  4  0  0  0  0
 64 66  4  0  0  0  0
 66 67  1  0  0  0  0
 67 68  4  0  0  0  0
 68 69  4  0  0  0  0
 69 70  4  0  0  0  0
 70 71  1  0  0  0  0
 70 72  4  0  0  0  0
 67 73  4  0  0  0  0
 72 73  4  0  0  0  0
 66 74  4  0  0  0  0
 74 75  4  0  0  0  0
 75 76  2  0  0  0  0
 59 77  1  0  0  0  0
 74 77  4  0  0  0  0
 76 78  4  0  0  0  0
 77 78  4  0  0  0  0
 78 79  4  0  0  0  0
 79 80  4  0  0  0  0
 80 81  4  0  0  0  0
 81 82  2  0  0  0  0
 82 83  4  0  0  0  0
 59 84  1  0  0  0  0
 80 84  4  0  0  0  0
 83 84  4  0  0  0  0
 83 85  4  0  0  0  0
 85 86  1  0  0  0  0
 86 87  4  0  0  0  0
 87 88  4  0  0  0  0
 88 89  4  0  0  0  0
 89 90  1  0  0  0  0
 89 91  4  0  0  0  0
 86 92  4  0  0  0  0
 91 92  4  0  0  0  0
 85 93  4  0  0  0  0
 93 94  4  0  0  0  0
 94 95  2  0  0  0  0
 60 96  4  0  0  0  0
 95 96  1  0  0  0  0
 59 97  1  0  0  0  0
 93 97  4  0  0  0  0
 96 97  4  0  0  0  0
 60 98  1  0  0  0  0
 62 99  1  0  0  0  0
 63100  1  0  0  0  0
 68101  1  0  0  0  0
 69102  1  0  0  0  0
 71103  1  0  0  0  0
 72104  1  0  0  0  0
 73105  1  0  0  0  0
 75106  1  0  0  0  0
 76107  1  0  0  0  0
 81108  1  0  0  0  0
 82109  1  0  0  0  0
 87110  1  0  0  0  0
 88111  1  0  0  0  0
 90112  1  0  0  0  0
 91113  1  0  0  0  0
 92114  1  0  0  0  0
 94115  1  0  0  0  0
 95116  1  0  0  0  0
117118  3  0  0  0  0
118119  4  0  0  0  0
 21120  4  0  0  0  0
119120  3  0  0  0  0
117121  4  0  0  0  0
121122  3  0  0  0  0
123124  3  0  0  0  0
124125  4  0  0  0  0
125126  3  0  0  0  0
123127  4  0  0  0  0
127128  3  0  0  0  0
129130  3  0  0  0  0
130131  4  0  0  0  0
131132  3  0  0  0  0
129133  4  0  0  0  0
 79134  4  0  0  0  0
133134  3  0  0  0  0
122136  4  0  0  0  0
136137  4  0  0  0  0
137138  4  0  0  0  0
138139  2  0  0  0  0
139140  4  0  0  0  0
135141  1  0  0  0  0
137141  4  0  0  0  0
140141  4  0  0  0  0
140142  4  0  0  0  0
142143  1  0  0  0  0
143144  4  0  0  0  0
144145  4  0  0  0  0
145146  4  0  0  0  0
146147  1  0  0  0  0
146148  4  0  0  0  0
143149  4  0  0  0  0
148149  4  0  0  0  0
142150  4  0  0  0  0
150151  4  0  0  0  0
151152  2  0  0  0  0
135153  1  0  0  0  0
150153  4  0  0  0  0
152154  4  0  0  0  0
153154  4  0  0  0  0
126155  4  0  0  0  0
154155  4  0  0  0  0
155156  4  0  0  0  0
156157  4  0  0  0  0
157158  2  0  0  0  0
158159  4  0  0  0  0
135160  1  0  0  0  0
156160  4  0  0  0  0
159160  4  0  0  0  0
159161  4  0  0  0  0
161162  1  0  0  0  0
162163  4  0  0  0  0
163164  4  0  0  0  0
164165  4  0  0  0  0
165166  1  0  0  0  0
165167  4  0  0  0  0
162168  4  0  0  0  0
167168  4  0  0  0  0
161169  4  0  0  0  0
169170  4  0  0  0  0
170171  2  0  0  0  0
136172  4  0  0  0  0
171172  4  0  0  0  0
135173  1  0  0  0  0
169173  4  0  0  0  0
172173  4  0  0  0  0
138174  1  0  0  0  0
139175  1  0  0  0  0
144176  1  0  0  0  0
145177  1  0  0  0  0
147178  1  0  0  0  0
148179  1  0  0  0  0
149180  1  0  0  0  0
151181  1  0  0  0  0
152182  1  0  0  0  0
157183  1  0  0  0  0
158184  1  0  0  0  0
163185  1  0  0  0  0
164186  1  0  0  0  0
166187  1  0  0  0  0
167188  1  0  0  0  0
168189  1  0  0  0  0
170190  1  0  0  0  0
171191  1  0  0  0  0
128193  4  0  0  0  0
193194  4  0  0  0  0
194195  4  0  0  0  0
195196  2  0  0  0  0
196197  4  0  0  0  0
192198  1  0  0  0  0
194198  4  0  0  0  0
197198  4  0  0  0  0
197199  4  0  0  0  0
199200  1  0  0  0  0
200201  4  0  0  0  0
201202  4  0  0  0  0
202203  4  0  0  0  0
203204  1  0  0  0  0
203205  4  0  0  0  0
200206  4  0  0  0  0
205206  4  0  0  0  0
199207  4  0  0  0  0
207208  4  0  0  0  0
208209  2  0  0  0  0
192210  1  0  0  0  0
207210  4  0  0  0  0
209211  4  0  0  0  0
210211  4  0  0  0  0
132212  4  0  0  0  0
211212  4  0  0  0  0
212213  4  0  0  0  0
213214  4  0  0  0  0
214215  2  0  0  0  0
215216  4  0  0  0  0
192217  1  0  0  0  0
213217  4  0  0  0  0
216217  4  0  0  0  0
216218  4  0  0  0  0
218219  1  0  0  0  0
219220  4  0  0  0  0
220221  4  0  0  0  0
221222  4  0  0  0  0
222223  1  0  0  0  0
222224  4  0  0  0  0
219225  4  0  0  0  0
224225  4  0  0  0  0
218226  4  0  0  0  0
226227  4  0  0  0  0
227228  2  0  0  0  0
193229  4  0  0  0  0
228229  4  0  0  0  0
192230  1  0  0  0  0
226230  4  0  0  0  0
229230  4  0  0  0  0
195231  1  0  0  0  0
196232  1  0  0  0  0
201233  1  0  0  0  0
202234  1  0  0  0  0
204235  1  0  0  0  0
205236  1  0  0  0  0
206237  1  0  0  0  0
208238  1  0  0  0  0
209239  1  0  0  0  0
214240  1  0  0  0  0
215241  1  0  0  0  0
220242  1  0  0  0  0
221243  1  0  0  0  0
223244  1  0  0  0  0
224245  1  0  0  0  0
225246  1  0  0  0  0
227247  1  0  0  0  0
228248  1  0  0  0  0
M  END
