 xtb: 6.5.1 (b24c23e)
          07302208403D

262309  0     0  0            999 V2000
   40.7304   -0.0004   -0.0539 Cu  0  0  0  0  0  0  0  0  0  0  0  0
   37.3255   -0.0351   -0.1332 C   0  0  0  0  0  0  0  0  0  0  0  0
   37.9662   -1.2505   -0.3181 C   0  0  0  0  0  0  0  0  0  0  0  0
   37.2964   -2.5073   -0.4953 C   0  0  0  0  0  0  0  0  0  0  0  0
   38.2590   -3.4507   -0.6396 C   0  0  0  0  0  0  0  0  0  0  0  0
   39.5267   -2.7755   -0.5652 C   0  0  0  0  0  0  0  0  0  0  0  0
   39.3182   -1.4423   -0.3613 N   0  0  0  0  0  0  0  0  0  0  0  0
   40.7756   -3.3946   -0.6603 C   0  0  0  0  0  0  0  0  0  0  0  0
   40.7966   -4.8550   -0.9128 C   0  0  0  0  0  0  0  0  0  0  0  0
   41.3723   -5.7235    0.0196 C   0  0  0  0  0  0  0  0  0  0  0  0
   41.3913   -7.0874   -0.2077 C   0  0  0  0  0  0  0  0  0  0  0  0
   40.8347   -7.5878   -1.3814 C   0  0  0  0  0  0  0  0  0  0  0  0
   40.8541   -9.0188   -1.6265 N   0  0  0  0  0  0  0  0  0  0  0  0
   40.3598   -9.4160   -2.6505 O   0  0  0  0  0  0  0  0  0  0  0  0
   41.3632   -9.7210   -0.7908 O   0  0  0  0  0  0  0  0  0  0  0  0
   40.2597   -6.7402   -2.3241 C   0  0  0  0  0  0  0  0  0  0  0  0
   40.2407   -5.3784   -2.0842 C   0  0  0  0  0  0  0  0  0  0  0  0
   42.0067   -2.7463   -0.5363 C   0  0  0  0  0  0  0  0  0  0  0  0
   43.2868   -3.3735   -0.7068 C   0  0  0  0  0  0  0  0  0  0  0  0
   44.2275   -2.4123   -0.5263 C   0  0  0  0  0  0  0  0  0  0  0  0
   42.1871   -1.4157   -0.2679 N   0  0  0  0  0  0  0  0  0  0  0  0
   43.5298   -1.1924   -0.2515 C   0  0  0  0  0  0  0  0  0  0  0  0
   44.1598    0.0386    0.0029 C   0  0  0  0  0  0  0  0  0  0  0  0
   43.4942    1.2532    0.2444 C   0  0  0  0  0  0  0  0  0  0  0  0
   44.1546    2.4855    0.5536 C   0  0  0  0  0  0  0  0  0  0  0  0
   43.1867    3.4229    0.7148 C   0  0  0  0  0  0  0  0  0  0  0  0
   41.9275    2.7695    0.4939 C   0  0  0  0  0  0  0  0  0  0  0  0
   42.1470    1.4461    0.2191 N   0  0  0  0  0  0  0  0  0  0  0  0
   40.6784    3.3897    0.5751 C   0  0  0  0  0  0  0  0  0  0  0  0
   40.6548    4.8463    0.8477 C   0  0  0  0  0  0  0  0  0  0  0  0
   40.0310    5.3385    1.9983 C   0  0  0  0  0  0  0  0  0  0  0  0
   40.0056    6.6965    2.2586 C   0  0  0  0  0  0  0  0  0  0  0  0
   40.6051    7.5717    1.3572 C   0  0  0  0  0  0  0  0  0  0  0  0
   40.5781    8.9988    1.6236 N   0  0  0  0  0  0  0  0  0  0  0  0
   40.0215    9.3688    2.6256 O   0  0  0  0  0  0  0  0  0  0  0  0
   41.1137    9.7253    0.8261 O   0  0  0  0  0  0  0  0  0  0  0  0
   41.2293    7.1027    0.2048 C   0  0  0  0  0  0  0  0  0  0  0  0
   41.2534    5.7424   -0.0432 C   0  0  0  0  0  0  0  0  0  0  0  0
   39.4483    2.7457    0.4176 C   0  0  0  0  0  0  0  0  0  0  0  0
   38.1651    3.3952    0.4346 C   0  0  0  0  0  0  0  0  0  0  0  0
   37.2298    2.4343    0.2360 C   0  0  0  0  0  0  0  0  0  0  0  0
   37.9324    1.1922    0.0849 C   0  0  0  0  0  0  0  0  0  0  0  0
   39.2766    1.4103    0.1948 N   0  0  0  0  0  0  0  0  0  0  0  0
   36.2408   -0.0457   -0.1598 H   0  0  0  0  0  0  0  0  0  0  0  0
   36.2259   -2.6378   -0.4960 H   0  0  0  0  0  0  0  0  0  0  0  0
   38.1292   -4.5127   -0.7724 H   0  0  0  0  0  0  0  0  0  0  0  0
   41.7920   -5.3224    0.9348 H   0  0  0  0  0  0  0  0  0  0  0  0
   41.8292   -7.7686    0.5120 H   0  0  0  0  0  0  0  0  0  0  0  0
   39.8373   -7.1544   -3.2318 H   0  0  0  0  0  0  0  0  0  0  0  0
   39.8070   -4.7069   -2.8160 H   0  0  0  0  0  0  0  0  0  0  0  0
   43.4425   -4.4120   -0.9499 H   0  0  0  0  0  0  0  0  0  0  0  0
   45.2999   -2.5099   -0.5793 H   0  0  0  0  0  0  0  0  0  0  0  0
   45.2222    2.6062    0.6430 H   0  0  0  0  0  0  0  0  0  0  0  0
   43.3107    4.4615    0.9750 H   0  0  0  0  0  0  0  0  0  0  0  0
   39.5785    4.6459    2.6984 H   0  0  0  0  0  0  0  0  0  0  0  0
   39.5300    7.0865    3.1504 H   0  0  0  0  0  0  0  0  0  0  0  0
   41.6848    7.8050   -0.4829 H   0  0  0  0  0  0  0  0  0  0  0  0
   41.7252    5.3658   -0.9433 H   0  0  0  0  0  0  0  0  0  0  0  0
   38.0077    4.4533    0.5676 H   0  0  0  0  0  0  0  0  0  0  0  0
   36.1582    2.5438    0.1845 H   0  0  0  0  0  0  0  0  0  0  0  0
   96.5611    0.0392   -0.0214 Cu  0  0  0  0  0  0  0  0  0  0  0  0
   99.9650    0.1022   -0.1233 C   0  0  0  0  0  0  0  0  0  0  0  0
   99.3272    1.2984    0.1675 C   0  0  0  0  0  0  0  0  0  0  0  0
  100.0001    2.5308    0.4639 C   0  0  0  0  0  0  0  0  0  0  0  0
   99.0397    3.4603    0.6906 C   0  0  0  0  0  0  0  0  0  0  0  0
   97.7703    2.8056    0.5220 C   0  0  0  0  0  0  0  0  0  0  0  0
   97.9757    1.4922    0.2136 N   0  0  0  0  0  0  0  0  0  0  0  0
   96.5230    3.4160    0.6762 C   0  0  0  0  0  0  0  0  0  0  0  0
   96.5055    4.8666    0.9799 C   0  0  0  0  0  0  0  0  0  0  0  0
   95.9428    5.3312    2.1726 C   0  0  0  0  0  0  0  0  0  0  0  0
   95.9270    6.6832    2.4632 C   0  0  0  0  0  0  0  0  0  0  0  0
   96.4740    7.5801    1.5499 C   0  0  0  0  0  0  0  0  0  0  0  0
   96.4579    9.0010    1.8485 N   0  0  0  0  0  0  0  0  0  0  0  0
   96.9445    9.7469    1.0377 O   0  0  0  0  0  0  0  0  0  0  0  0
   95.9593    9.3466    2.8890 O   0  0  0  0  0  0  0  0  0  0  0  0
   97.0361    7.1387    0.3553 C   0  0  0  0  0  0  0  0  0  0  0  0
   97.0518    5.7841    0.0773 C   0  0  0  0  0  0  0  0  0  0  0  0
   95.2907    2.7675    0.5657 C   0  0  0  0  0  0  0  0  0  0  0  0
   94.0112    3.4126    0.6548 C   0  0  0  0  0  0  0  0  0  0  0  0
   93.0688    2.4523    0.4791 C   0  0  0  0  0  0  0  0  0  0  0  0
   95.1080    1.4319    0.3253 N   0  0  0  0  0  0  0  0  0  0  0  0
   93.7647    1.2176    0.2746 C   0  0  0  0  0  0  0  0  0  0  0  0
   93.1326   -0.0207    0.0646 C   0  0  0  0  0  0  0  0  0  0  0  0
   93.7960   -1.2378   -0.1705 C   0  0  0  0  0  0  0  0  0  0  0  0
   93.1345   -2.4972   -0.3337 C   0  0  0  0  0  0  0  0  0  0  0  0
   94.1001   -3.4253   -0.5519 C   0  0  0  0  0  0  0  0  0  0  0  0
   95.3589   -2.7352   -0.5330 C   0  0  0  0  0  0  0  0  0  0  0  0
   95.1418   -1.4056   -0.2878 N   0  0  0  0  0  0  0  0  0  0  0  0
   96.6058   -3.3389   -0.7125 C   0  0  0  0  0  0  0  0  0  0  0  0
   96.6256   -4.7896   -1.0152 C   0  0  0  0  0  0  0  0  0  0  0  0
   97.2656   -5.6834   -0.1511 C   0  0  0  0  0  0  0  0  0  0  0  0
   97.2890   -7.0375   -0.4308 C   0  0  0  0  0  0  0  0  0  0  0  0
   96.6709   -7.5025   -1.5881 C   0  0  0  0  0  0  0  0  0  0  0  0
   96.6968   -8.9226   -1.8894 N   0  0  0  0  0  0  0  0  0  0  0  0
   97.2693   -9.6467   -1.1156 O   0  0  0  0  0  0  0  0  0  0  0  0
   96.1449   -9.2897   -2.8950 O   0  0  0  0  0  0  0  0  0  0  0  0
   96.0293   -6.6296   -2.4623 C   0  0  0  0  0  0  0  0  0  0  0  0
   96.0074   -5.2780   -2.1705 C   0  0  0  0  0  0  0  0  0  0  0  0
   97.8367   -2.6822   -0.6336 C   0  0  0  0  0  0  0  0  0  0  0  0
   99.1171   -3.2892   -0.8805 C   0  0  0  0  0  0  0  0  0  0  0  0
  100.0542   -2.3241   -0.7132 C   0  0  0  0  0  0  0  0  0  0  0  0
   99.3553   -1.1172   -0.3752 C   0  0  0  0  0  0  0  0  0  0  0  0
   98.0116   -1.3614   -0.3382 N   0  0  0  0  0  0  0  0  0  0  0  0
  101.0493    0.1223   -0.1568 H   0  0  0  0  0  0  0  0  0  0  0  0
  101.0711    2.6523    0.5005 H   0  0  0  0  0  0  0  0  0  0  0  0
   99.1722    4.4955    0.9607 H   0  0  0  0  0  0  0  0  0  0  0  0
   95.5306    4.6216    2.8806 H   0  0  0  0  0  0  0  0  0  0  0  0
   95.4991    7.0519    3.3876 H   0  0  0  0  0  0  0  0  0  0  0  0
   97.4511    7.8577   -0.3408 H   0  0  0  0  0  0  0  0  0  0  0  0
   97.4756    5.4289   -0.8548 H   0  0  0  0  0  0  0  0  0  0  0  0
   93.8570    4.4674    0.8148 H   0  0  0  0  0  0  0  0  0  0  0  0
   91.9963    2.5620    0.4794 H   0  0  0  0  0  0  0  0  0  0  0  0
   92.0678   -2.6439   -0.2781 H   0  0  0  0  0  0  0  0  0  0  0  0
   93.9751   -4.4860   -0.6975 H   0  0  0  0  0  0  0  0  0  0  0  0
   97.7327   -5.3105    0.7530 H   0  0  0  0  0  0  0  0  0  0  0  0
   97.7777   -7.7381    0.2356 H   0  0  0  0  0  0  0  0  0  0  0  0
   95.5591   -7.0162   -3.3584 H   0  0  0  0  0  0  0  0  0  0  0  0
   95.5224   -4.5866   -2.8497 H   0  0  0  0  0  0  0  0  0  0  0  0
   99.2716   -4.3190   -1.1593 H   0  0  0  0  0  0  0  0  0  0  0  0
  101.1246   -2.4055   -0.8162 H   0  0  0  0  0  0  0  0  0  0  0  0
   45.5653    0.0541    0.0161 C   0  0  0  0  0  0  0  0  0  0  0  0
   46.7897    0.0615    0.0188 C   0  0  0  0  0  0  0  0  0  0  0  0
   48.1324    0.0648    0.0196 C   0  0  0  0  0  0  0  0  0  0  0  0
   49.3630    0.0639    0.0147 C   0  0  0  0  0  0  0  0  0  0  0  0
   50.7008    0.0594    0.0105 C   0  0  0  0  0  0  0  0  0  0  0  0
   51.9314    0.0537    0.0020 C   0  0  0  0  0  0  0  0  0  0  0  0
   53.2739    0.0493   -0.0060 C   0  0  0  0  0  0  0  0  0  0  0  0
   54.4985    0.0437   -0.0151 C   0  0  0  0  0  0  0  0  0  0  0  0
   64.1804    0.0351    0.0021 C   0  0  0  0  0  0  0  0  0  0  0  0
   65.4052    0.0341    0.0012 C   0  0  0  0  0  0  0  0  0  0  0  0
   66.7474    0.0336   -0.0021 C   0  0  0  0  0  0  0  0  0  0  0  0
   67.9782    0.0324   -0.0079 C   0  0  0  0  0  0  0  0  0  0  0  0
   69.3158    0.0302   -0.0162 C   0  0  0  0  0  0  0  0  0  0  0  0
   70.5466    0.0288   -0.0243 C   0  0  0  0  0  0  0  0  0  0  0  0
   71.8888    0.0254   -0.0293 C   0  0  0  0  0  0  0  0  0  0  0  0
   73.1136    0.0220   -0.0354 C   0  0  0  0  0  0  0  0  0  0  0  0
   82.7946   -0.0037    0.0653 C   0  0  0  0  0  0  0  0  0  0  0  0
   84.0191   -0.0130    0.0819 C   0  0  0  0  0  0  0  0  0  0  0  0
   85.3615   -0.0237    0.0967 C   0  0  0  0  0  0  0  0  0  0  0  0
   86.5921   -0.0344    0.1054 C   0  0  0  0  0  0  0  0  0  0  0  0
   87.9298   -0.0430    0.1085 C   0  0  0  0  0  0  0  0  0  0  0  0
   89.1604   -0.0494    0.1068 C   0  0  0  0  0  0  0  0  0  0  0  0
   90.5031   -0.0452    0.1011 C   0  0  0  0  0  0  0  0  0  0  0  0
   91.7274   -0.0405    0.0875 C   0  0  0  0  0  0  0  0  0  0  0  0
   59.3395    0.0381   -0.0193 Cu  0  0  0  0  0  0  0  0  0  0  0  0
   55.9034    0.0409   -0.0211 C   0  0  0  0  0  0  0  0  0  0  0  0
   56.5509   -1.2055    0.0536 C   0  0  0  0  0  0  0  0  0  0  0  0
   55.8718   -2.4605    0.1741 C   0  0  0  0  0  0  0  0  0  0  0  0
   56.8265   -3.4248    0.2022 C   0  0  0  0  0  0  0  0  0  0  0  0
   58.0954   -2.7628    0.0911 C   0  0  0  0  0  0  0  0  0  0  0  0
   57.8951   -1.4110    0.0111 N   0  0  0  0  0  0  0  0  0  0  0  0
   59.3366   -3.4039    0.0925 C   0  0  0  0  0  0  0  0  0  0  0  0
   59.3349   -4.8857    0.1348 C   0  0  0  0  0  0  0  0  0  0  0  0
   59.9242   -5.5631    1.2066 C   0  0  0  0  0  0  0  0  0  0  0  0
   59.9234   -6.9453    1.2508 C   0  0  0  0  0  0  0  0  0  0  0  0
   59.3331   -7.6574    0.2106 C   0  0  0  0  0  0  0  0  0  0  0  0
   59.3331   -9.1090    0.2497 N   0  0  0  0  0  0  0  0  0  0  0  0
   58.8093   -9.6916   -0.6651 O   0  0  0  0  0  0  0  0  0  0  0  0
   59.8538   -9.6414    1.1963 O   0  0  0  0  0  0  0  0  0  0  0  0
   58.7430   -7.0025   -0.8668 C   0  0  0  0  0  0  0  0  0  0  0  0
   58.7440   -5.6199   -0.8981 C   0  0  0  0  0  0  0  0  0  0  0  0
   60.5790   -2.7663    0.0572 C   0  0  0  0  0  0  0  0  0  0  0  0
   61.8473   -3.4357   -0.0059 C   0  0  0  0  0  0  0  0  0  0  0  0
   62.8036   -2.4730   -0.0322 C   0  0  0  0  0  0  0  0  0  0  0  0
   60.7814   -1.4123    0.0529 N   0  0  0  0  0  0  0  0  0  0  0  0
   62.1262   -1.2119    0.0044 C   0  0  0  0  0  0  0  0  0  0  0  0
   62.7757    0.0358   -0.0015 C   0  0  0  0  0  0  0  0  0  0  0  0
   62.1276    1.2842   -0.0161 C   0  0  0  0  0  0  0  0  0  0  0  0
   62.8060    2.5447    0.0224 C   0  0  0  0  0  0  0  0  0  0  0  0
   61.8514    3.5083   -0.0238 C   0  0  0  0  0  0  0  0  0  0  0  0
   60.5833    2.8400   -0.0995 C   0  0  0  0  0  0  0  0  0  0  0  0
   60.7838    1.4859   -0.0825 N   0  0  0  0  0  0  0  0  0  0  0  0
   59.3424    3.4793   -0.1567 C   0  0  0  0  0  0  0  0  0  0  0  0
   59.3445    4.9599   -0.2260 C   0  0  0  0  0  0  0  0  0  0  0  0
   59.9529    5.6139   -1.3018 C   0  0  0  0  0  0  0  0  0  0  0  0
   59.9540    6.9947   -1.3762 C   0  0  0  0  0  0  0  0  0  0  0  0
   59.3455    7.7295   -0.3624 C   0  0  0  0  0  0  0  0  0  0  0  0
   59.3439    9.1797   -0.4352 N   0  0  0  0  0  0  0  0  0  0  0  0
   59.8874    9.6913   -1.3804 O   0  0  0  0  0  0  0  0  0  0  0  0
   58.8020    9.7822    0.4558 O   0  0  0  0  0  0  0  0  0  0  0  0
   58.7377    7.0983    0.7192 C   0  0  0  0  0  0  0  0  0  0  0  0
   58.7378    5.7167    0.7811 C   0  0  0  0  0  0  0  0  0  0  0  0
   58.1002    2.8403   -0.1564 C   0  0  0  0  0  0  0  0  0  0  0  0
   56.8324    3.5025   -0.2793 C   0  0  0  0  0  0  0  0  0  0  0  0
   55.8762    2.5403   -0.2388 C   0  0  0  0  0  0  0  0  0  0  0  0
   56.5532    1.2858   -0.1032 C   0  0  0  0  0  0  0  0  0  0  0  0
   57.8977    1.4896   -0.0611 N   0  0  0  0  0  0  0  0  0  0  0  0
   54.8020   -2.5784    0.2362 H   0  0  0  0  0  0  0  0  0  0  0  0
   56.6872   -4.4887    0.3046 H   0  0  0  0  0  0  0  0  0  0  0  0
   60.3706   -4.9969    2.0158 H   0  0  0  0  0  0  0  0  0  0  0  0
   60.3720   -7.4789    2.0801 H   0  0  0  0  0  0  0  0  0  0  0  0
   58.2938   -7.5800   -1.6657 H   0  0  0  0  0  0  0  0  0  0  0  0
   58.2982   -5.0981   -1.7369 H   0  0  0  0  0  0  0  0  0  0  0  0
   61.9855   -4.5041   -0.0410 H   0  0  0  0  0  0  0  0  0  0  0  0
   63.8735   -2.5963   -0.0807 H   0  0  0  0  0  0  0  0  0  0  0  0
   63.8753    2.6670    0.0853 H   0  0  0  0  0  0  0  0  0  0  0  0
   61.9903    4.5768    0.0069 H   0  0  0  0  0  0  0  0  0  0  0  0
   60.4124    5.0300   -2.0908 H   0  0  0  0  0  0  0  0  0  0  0  0
   60.4169    7.5099   -2.2092 H   0  0  0  0  0  0  0  0  0  0  0  0
   58.2750    7.6932    1.4974 H   0  0  0  0  0  0  0  0  0  0  0  0
   58.2784    5.2137    1.6240 H   0  0  0  0  0  0  0  0  0  0  0  0
   56.6944    4.5650   -0.3968 H   0  0  0  0  0  0  0  0  0  0  0  0
   54.8067    2.6592   -0.3043 H   0  0  0  0  0  0  0  0  0  0  0  0
   77.9542    0.0091   -0.0106 Cu  0  0  0  0  0  0  0  0  0  0  0  0
   74.5183    0.0179   -0.0358 C   0  0  0  0  0  0  0  0  0  0  0  0
   75.1632   -1.2297    0.0424 C   0  0  0  0  0  0  0  0  0  0  0  0
   74.4813   -2.4836    0.1572 C   0  0  0  0  0  0  0  0  0  0  0  0
   75.4340   -3.4497    0.1882 C   0  0  0  0  0  0  0  0  0  0  0  0
   76.7047   -2.7899    0.0852 C   0  0  0  0  0  0  0  0  0  0  0  0
   76.5073   -1.4375    0.0067 N   0  0  0  0  0  0  0  0  0  0  0  0
   77.9446   -3.4332    0.0921 C   0  0  0  0  0  0  0  0  0  0  0  0
   77.9407   -4.9151    0.1311 C   0  0  0  0  0  0  0  0  0  0  0  0
   78.5238   -5.5950    1.2047 C   0  0  0  0  0  0  0  0  0  0  0  0
   78.5221   -6.9773    1.2459 C   0  0  0  0  0  0  0  0  0  0  0  0
   77.9369   -7.6869    0.2010 C   0  0  0  0  0  0  0  0  0  0  0  0
   77.9360   -9.1385    0.2371 N   0  0  0  0  0  0  0  0  0  0  0  0
   77.4186   -9.7190   -0.6826 O   0  0  0  0  0  0  0  0  0  0  0  0
   78.4531   -9.6731    1.1844 O   0  0  0  0  0  0  0  0  0  0  0  0
   77.3529   -7.0293   -0.8780 C   0  0  0  0  0  0  0  0  0  0  0  0
   77.3547   -5.6467   -0.9064 C   0  0  0  0  0  0  0  0  0  0  0  0
   79.1883   -2.7975    0.0667 C   0  0  0  0  0  0  0  0  0  0  0  0
   80.4559   -3.4688    0.0102 C   0  0  0  0  0  0  0  0  0  0  0  0
   81.4139   -2.5077   -0.0028 C   0  0  0  0  0  0  0  0  0  0  0  0
   79.3929   -1.4439    0.0702 N   0  0  0  0  0  0  0  0  0  0  0  0
   80.7384   -1.2457    0.0346 C   0  0  0  0  0  0  0  0  0  0  0  0
   81.3900    0.0010    0.0428 C   0  0  0  0  0  0  0  0  0  0  0  0
   80.7443    1.2504    0.0248 C   0  0  0  0  0  0  0  0  0  0  0  0
   81.4242    2.5097    0.0731 C   0  0  0  0  0  0  0  0  0  0  0  0
   80.4718    3.4750    0.0153 C   0  0  0  0  0  0  0  0  0  0  0  0
   79.2035    2.8087   -0.0764 C   0  0  0  0  0  0  0  0  0  0  0  0
   79.4016    1.4543   -0.0578 N   0  0  0  0  0  0  0  0  0  0  0  0
   77.9644    3.4502   -0.1481 C   0  0  0  0  0  0  0  0  0  0  0  0
   77.9707    4.9307   -0.2200 C   0  0  0  0  0  0  0  0  0  0  0  0
   78.5928    5.5806   -1.2905 C   0  0  0  0  0  0  0  0  0  0  0  0
   78.5990    6.9613   -1.3677 C   0  0  0  0  0  0  0  0  0  0  0  0
   77.9820    7.7000   -0.3621 C   0  0  0  0  0  0  0  0  0  0  0  0
   77.9871    9.1501   -0.4370 N   0  0  0  0  0  0  0  0  0  0  0  0
   78.5423    9.6579   -1.3775 O   0  0  0  0  0  0  0  0  0  0  0  0
   77.4361    9.7562    0.4459 O   0  0  0  0  0  0  0  0  0  0  0  0
   77.3602    7.0729    0.7140 C   0  0  0  0  0  0  0  0  0  0  0  0
   77.3553    5.6914    0.7787 C   0  0  0  0  0  0  0  0  0  0  0  0
   76.7210    2.8134   -0.1593 C   0  0  0  0  0  0  0  0  0  0  0  0
   75.4555    3.4776   -0.2933 C   0  0  0  0  0  0  0  0  0  0  0  0
   74.4973    2.5171   -0.2584 C   0  0  0  0  0  0  0  0  0  0  0  0
   75.1709    1.2616   -0.1159 C   0  0  0  0  0  0  0  0  0  0  0  0
   76.5154    1.4631   -0.0641 N   0  0  0  0  0  0  0  0  0  0  0  0
   73.4109   -2.5998    0.2133 H   0  0  0  0  0  0  0  0  0  0  0  0
   75.2922   -4.5136    0.2876 H   0  0  0  0  0  0  0  0  0  0  0  0
   78.9661   -5.0307    2.0174 H   0  0  0  0  0  0  0  0  0  0  0  0
   78.9660   -7.5129    2.0765 H   0  0  0  0  0  0  0  0  0  0  0  0
   76.9075   -7.6049   -1.6805 H   0  0  0  0  0  0  0  0  0  0  0  0
   76.9136   -5.1228   -1.7464 H   0  0  0  0  0  0  0  0  0  0  0  0
   80.5925   -4.5373   -0.0297 H   0  0  0  0  0  0  0  0  0  0  0  0
   82.4840   -2.6326   -0.0433 H   0  0  0  0  0  0  0  0  0  0  0  0
   82.4928    2.6302    0.1492 H   0  0  0  0  0  0  0  0  0  0  0  0
   80.6119    4.5432    0.0481 H   0  0  0  0  0  0  0  0  0  0  0  0
   79.0592    4.9936   -2.0732 H   0  0  0  0  0  0  0  0  0  0  0  0
   79.0728    7.4732   -2.1966 H   0  0  0  0  0  0  0  0  0  0  0  0
   76.8910    7.6708    1.4860 H   0  0  0  0  0  0  0  0  0  0  0  0
   76.8852    5.1917    1.6177 H   0  0  0  0  0  0  0  0  0  0  0  0
   75.3203    4.5401   -0.4135 H   0  0  0  0  0  0  0  0  0  0  0  0
   73.4284    2.6377   -0.3321 H   0  0  0  0  0  0  0  0  0  0  0  0
  2  3  4  0  0  0  0
  3  4  1  0  0  0  0
  4  5  2  0  0  0  0
  5  6  4  0  0  0  0
  1  7  1  0  0  0  0
  3  7  4  0  0  0  0
  6  7  4  0  0  0  0
  6  8  4  0  0  0  0
  8  9  1  0  0  0  0
  9 10  4  0  0  0  0
 10 11  4  0  0  0  0
 11 12  4  0  0  0  0
 12 13  1  0  0  0  0
 13 14  2  0  0  0  0
 13 15  2  0  0  0  0
 14 15  1  0  0  0  0
 12 16  4  0  0  0  0
  9 17  4  0  0  0  0
 16 17  4  0  0  0  0
  8 18  4  0  0  0  0
 18 19  4  0  0  0  0
 19 20  2  0  0  0  0
  1 21  1  0  0  0  0
 18 21  4  0  0  0  0
 20 22  4  0  0  0  0
 21 22  4  0  0  0  0
 22 23  4  0  0  0  0
 23 24  4  0  0  0  0
 24 25  4  0  0  0  0
 25 26  2  0  0  0  0
 26 27  4  0  0  0  0
  1 28  1  0  0  0  0
 24 28  4  0  0  0  0
 27 28  4  0  0  0  0
 27 29  4  0  0  0  0
 29 30  1  0  0  0  0
 30 31  4  0  0  0  0
 31 32  4  0  0  0  0
 32 33  4  0  0  0  0
 33 34  1  0  0  0  0
 34 35  2  0  0  0  0
 34 36  2  0  0  0  0
 35 36  1  0  0  0  0
 33 37  4  0  0  0  0
 30 38  4  0  0  0  0
 37 38  4  0  0  0  0
 29 39  4  0  0  0  0
 39 40  4  0  0  0  0
 40 41  2  0  0  0  0
  2 42  4  0  0  0  0
 41 42  1  0  0  0  0
  1 43  1  0  0  0  0
 39 43  4  0  0  0  0
 42 43  4  0  0  0  0
  2 44  1  0  0  0  0
  4 45  1  0  0  0  0
  5 46  1  0  0  0  0
 10 47  1  0  0  0  0
 11 48  1  0  0  0  0
 16 49  1  0  0  0  0
 17 50  1  0  0  0  0
 19 51  1  0  0  0  0
 20 52  1  0  0  0  0
 25 53  1  0  0  0  0
 26 54  1  0  0  0  0
 31 55  1  0  0  0  0
 32 56  1  0  0  0  0
 37 57  1  0  0  0  0
 38 58  1  0  0  0  0
 40 59  1  0  0  0  0
 41 60  1  0  0  0  0
 62 63  4  0  0  0  0
 63 64  1  0  0  0  0
 64 65  2  0  0  0  0
 65 66  4  0  0  0  0
 61 67  1  0  0  0  0
 63 67  4  0  0  0  0
 66 67  4  0  0  0  0
 66 68  4  0  0  0  0
 68 69  1  0  0  0  0
 69 70  4  0  0  0  0
 70 71  4  0  0  0  0
 71 72  4  0  0  0  0
 72 73  1  0  0  0  0
 73 74  2  0  0  0  0
 73 75  2  0  0  0  0
 74 75  1  0  0  0  0
 72 76  4  0  0  0  0
 69 77  4  0  0  0  0
 76 77  4  0  0  0  0
 68 78  4  0  0  0  0
 78 79  4  0  0  0  0
 79 80  2  0  0  0  0
 61 81  1  0  0  0  0
 78 81  4  0  0  0  0
 80 82  4  0  0  0  0
 81 82  4  0  0  0  0
 82 83  4  0  0  0  0
 83 84  4  0  0  0  0
 84 85  4  0  0  0  0
 85 86  2  0  0  0  0
 86 87  4  0  0  0  0
 61 88  1  0  0  0  0
 84 88  4  0  0  0  0
 87 88  4  0  0  0  0
 87 89  4  0  0  0  0
 89 90  1  0  0  0  0
 90 91  4  0  0  0  0
 91 92  4  0  0  0  0
 92 93  4  0  0  0  0
 93 94  1  0  0  0  0
 94 95  2  0  0  0  0
 94 96  2  0  0  0  0
 95 96  1  0  0  0  0
 93 97  4  0  0  0  0
 90 98  4  0  0  0  0
 97 98  4  0  0  0  0
 89 99  4  0  0  0  0
 99100  4  0  0  0  0
100101  2  0  0  0  0
 62102  4  0  0  0  0
101102  1  0  0  0  0
 61103  1  0  0  0  0
 99103  4  0  0  0  0
102103  4  0  0  0  0
 62104  1  0  0  0  0
 64105  1  0  0  0  0
 65106  1  0  0  0  0
 70107  1  0  0  0  0
 71108  1  0  0  0  0
 76109  1  0  0  0  0
 77110  1  0  0  0  0
 79111  1  0  0  0  0
 80112  1  0  0  0  0
 85113  1  0  0  0  0
 86114  1  0  0  0  0
 91115  1  0  0  0  0
 92116  1  0  0  0  0
 97117  1  0  0  0  0
 98118  1  0  0  0  0
100119  1  0  0  0  0
101120  1  0  0  0  0
 23121  4  0  0  0  0
121122  3  0  0  0  0
122123  4  0  0  0  0
123124  3  0  0  0  0
124125  4  0  0  0  0
125126  3  0  0  0  0
126127  4  0  0  0  0
127128  3  0  0  0  0
129130  3  0  0  0  0
130131  4  0  0  0  0
131132  3  0  0  0  0
132133  4  0  0  0  0
133134  3  0  0  0  0
134135  4  0  0  0  0
135136  3  0  0  0  0
137138  3  0  0  0  0
138139  4  0  0  0  0
139140  3  0  0  0  0
140141  4  0  0  0  0
141142  3  0  0  0  0
142143  4  0  0  0  0
 83144  4  0  0  0  0
143144  3  0  0  0  0
128146  4  0  0  0  0
146147  4  0  0  0  0
147148  4  0  0  0  0
148149  2  0  0  0  0
149150  4  0  0  0  0
145151  1  0  0  0  0
147151  4  0  0  0  0
150151  4  0  0  0  0
150152  4  0  0  0  0
152153  1  0  0  0  0
153154  4  0  0  0  0
154155  4  0  0  0  0
155156  4  0  0  0  0
156157  1  0  0  0  0
157158  2  0  0  0  0
157159  2  0  0  0  0
158159  1  0  0  0  0
156160  4  0  0  0  0
153161  4  0  0  0  0
160161  4  0  0  0  0
152162  4  0  0  0  0
162163  4  0  0  0  0
163164  2  0  0  0  0
145165  1  0  0  0  0
162165  4  0  0  0  0
164166  4  0  0  0  0
165166  4  0  0  0  0
129167  4  0  0  0  0
166167  4  0  0  0  0
167168  4  0  0  0  0
168169  4  0  0  0  0
169170  2  0  0  0  0
170171  4  0  0  0  0
145172  1  0  0  0  0
168172  4  0  0  0  0
171172  4  0  0  0  0
171173  4  0  0  0  0
173174  1  0  0  0  0
174175  4  0  0  0  0
175176  4  0  0  0  0
176177  4  0  0  0  0
177178  1  0  0  0  0
178179  2  0  0  0  0
178180  2  0  0  0  0
179180  1  0  0  0  0
177181  4  0  0  0  0
174182  4  0  0  0  0
181182  4  0  0  0  0
173183  4  0  0  0  0
183184  4  0  0  0  0
184185  2  0  0  0  0
146186  4  0  0  0  0
185186  4  0  0  0  0
145187  1  0  0  0  0
183187  4  0  0  0  0
186187  4  0  0  0  0
148188  1  0  0  0  0
149189  1  0  0  0  0
154190  1  0  0  0  0
155191  1  0  0  0  0
160192  1  0  0  0  0
161193  1  0  0  0  0
163194  1  0  0  0  0
164195  1  0  0  0  0
169196  1  0  0  0  0
170197  1  0  0  0  0
175198  1  0  0  0  0
176199  1  0  0  0  0
181200  1  0  0  0  0
182201  1  0  0  0  0
184202  1  0  0  0  0
185203  1  0  0  0  0
136205  4  0  0  0  0
205206  4  0  0  0  0
206207  4  0  0  0  0
207208  2  0  0  0  0
208209  4  0  0  0  0
204210  1  0  0  0  0
206210  4  0  0  0  0
209210  4  0  0  0  0
209211  4  0  0  0  0
211212  1  0  0  0  0
212213  4  0  0  0  0
213214  4  0  0  0  0
214215  4  0  0  0  0
215216  1  0  0  0  0
216217  2  0  0  0  0
216218  2  0  0  0  0
217218  1  0  0  0  0
215219  4  0  0  0  0
212220  4  0  0  0  0
219220  4  0  0  0  0
211221  4  0  0  0  0
221222  4  0  0  0  0
222223  2  0  0  0  0
204224  1  0  0  0  0
221224  4  0  0  0  0
223225  4  0  0  0  0
224225  4  0  0  0  0
137226  4  0  0  0  0
225226  4  0  0  0  0
226227  4  0  0  0  0
227228  4  0  0  0  0
228229  2  0  0  0  0
229230  4  0  0  0  0
204231  1  0  0  0  0
227231  4  0  0  0  0
230231  4  0  0  0  0
230232  4  0  0  0  0
232233  1  0  0  0  0
233234  4  0  0  0  0
234235  4  0  0  0  0
235236  4  0  0  0  0
236237  1  0  0  0  0
237238  2  0  0  0  0
237239  2  0  0  0  0
238239  1  0  0  0  0
236240  4  0  0  0  0
233241  4  0  0  0  0
240241  4  0  0  0  0
232242  4  0  0  0  0
242243  4  0  0  0  0
243244  2  0  0  0  0
205245  4  0  0  0  0
244245  4  0  0  0  0
204246  1  0  0  0  0
242246  4  0  0  0  0
245246  4  0  0  0  0
207247  1  0  0  0  0
208248  1  0  0  0  0
213249  1  0  0  0  0
214250  1  0  0  0  0
219251  1  0  0  0  0
220252  1  0  0  0  0
222253  1  0  0  0  0
223254  1  0  0  0  0
228255  1  0  0  0  0
229256  1  0  0  0  0
234257  1  0  0  0  0
235258  1  0  0  0  0
240259  1  0  0  0  0
241260  1  0  0  0  0
243261  1  0  0  0  0
244262  1  0  0  0  0
M  END
