132

C 10.358325 -0.627100 0.561779
C 11.048870 -1.266975 -0.682545
C 10.399777 -1.795282 -1.772433
C 11.396395 -2.270409 -2.662011
C 12.621561 -2.027599 -2.081681
N 12.398864 -1.377338 -0.891960
C 14.044808 -2.440279 -2.651271
C 14.099765 -3.320340 -3.851113
C 14.666289 -2.809500 -5.035423
C 14.727266 -3.597621 -6.176711
O 15.282650 -3.140570 -7.338397
C 14.206635 -4.882680 -6.159310
O 14.253877 -5.655750 -7.290101
C 13.619825 -5.389624 -5.002056
O 13.083486 -6.646815 -5.017477
C 13.566705 -4.620955 -3.843022
C 15.174876 -1.948060 -2.067207
C 16.495367 -2.406408 -2.447406
C 17.393528 -1.755989 -1.717998
N 15.357647 -1.021234 -1.074775
C 16.695107 -0.837267 -0.842527
C 17.357803 -0.000187 0.000052
C 16.565083 1.044328 0.893400
C 17.055822 2.240231 1.380110
C 16.039513 2.836654 2.168677
C 14.947765 1.996294 2.126560
N 15.261765 0.930991 1.313471
C 13.562620 2.207263 2.864360
C 13.485110 3.237838 3.923821
C 13.958509 2.985270 5.221913
C 13.871081 3.982321 6.181190
O 14.321337 3.757171 7.451508
C 13.326462 5.219463 5.857843
O 13.247499 6.190704 6.822464
C 12.869973 5.479041 4.570036
O 12.354864 6.720046 4.313951
C 12.944583 4.495370 3.597191
C 12.471285 1.499064 2.467554
C 11.184384 1.599541 3.135062
C 10.321849 0.807634 2.505259
C 11.020156 0.188245 1.404790
N 12.313553 0.605928 1.446506
H 9.307628 -0.835610 0.728104
H 9.330152 -1.832404 -1.914422
H 11.235305 -2.749131 -3.616376
H 13.125137 -1.007174 -0.287370
H 15.048215 -1.789373 -5.023430
H 15.596607 -2.243327 -7.145747
H 14.739768 -5.093608 -7.917854
H 13.324975 -6.981511 -5.898165
H 13.104702 -5.012528 -2.940171
H 16.723423 -3.171797 -3.166239
H 18.453426 -1.910876 -1.781694
H 18.040704 2.643697 1.192783
H 16.101195 3.772305 2.704692
H 14.603473 0.206348 1.031991
H 14.387941 2.016198 5.460458
H 14.151420 4.598016 7.916005
H 12.832360 6.943975 6.346398
H 12.121384 6.736161 3.366383
H 12.589134 4.659225 2.581772
H 10.960100 2.193512 4.002473
H 9.287521 0.660702 2.761588
C 32.960454 -0.700302 0.467381
C 32.269909 0.345543 1.396891
C 32.919002 1.269591 2.179898
C 31.922384 2.012875 2.861532
C 30.697217 1.511266 2.481889
N 30.919915 0.520890 1.555914
C 29.273971 1.960183 3.023380
C 29.219014 2.903151 4.174439
C 28.652490 4.177349 3.974524
C 28.591513 5.086497 5.021962
O 28.036129 6.325392 4.868509
C 29.112144 4.749720 6.262228
O 29.064901 5.652448 7.292475
C 29.698954 3.502696 6.465105
O 30.235293 3.204647 7.686553
C 29.752074 2.571519 5.432089
C 28.143903 1.517049 2.401252
C 26.823411 1.771169 2.939821
C 25.925251 1.226652 2.128291
N 27.961132 0.786603 1.256535
C 26.623672 0.607467 1.020541
C 25.960976 -0.000187 0.000052
C 26.753696 -0.605370 -1.233981
C 26.262957 -0.779028 -2.513400
C 27.279266 -1.394284 -3.287363
C 28.371014 -1.562706 -2.462977
N 28.057014 -1.040431 -1.228792
C 29.756159 -2.224754 -2.850983
C 29.833669 -2.994290 -4.112870
C 29.360270 -4.314390 -4.191421
C 29.447698 -4.995242 -5.395898
O 28.997441 -6.281616 -5.494089
C 29.992317 -4.374082 -6.513588
O 30.071280 -5.066536 -7.694398
C 30.448806 -3.062199 -6.444386
O 30.963915 -2.505221 -7.582564
C 30.374196 -2.364874 -5.249491
C 30.847494 -2.016752 -2.066294
C 32.134395 -2.638230 -2.329788
C 32.996930 -2.225405 -1.406022
C 32.298623 -1.313785 -0.532166
N 31.005226 -1.250204 -0.947083
H 34.011151 -0.913300 0.627918
H 33.988626 1.397868 2.251200
H 32.083474 2.818011 3.562775
H 30.193642 0.027490 1.046888
H 28.270564 4.419700 2.983530
H 27.722171 6.362181 3.951554
H 28.579011 6.400385 6.904315
H 29.993804 3.974281 8.229963
H 30.214077 1.599610 5.586564
H 26.595356 2.276821 3.860070
H 24.865353 1.249783 2.294158
H 25.278075 -0.497155 -2.857527
H 27.217584 -1.680487 -4.326999
H 28.715306 -0.948217 -0.456889
H 28.930838 -4.786680 -3.312248
H 29.167359 -6.522155 -6.424099
H 30.486419 -4.417927 -8.305433
H 31.197394 -1.583475 -7.362269
H 30.729645 -1.340634 -5.155393
H 32.358679 -3.330457 -3.121005
H 34.031257 -2.510244 -1.327530
C 22.263310 0.001125 0.008484
C 21.054370 -0.012330 0.000037
C 19.632841 -0.003511 -0.011946
C 18.421172 0.003928 -0.001083
C 23.679914 -0.005550 0.009017
C 24.900610 0.003928 -0.001083
