 xtb: 6.5.1 (b24c23e)
          07292219003D

132145  0     0  0            999 V2000
   10.3101   -0.4371    0.1854 C   0  0  0  0  0  0  0  0  0  0  0  0
   10.9216   -1.1657   -0.8267 C   0  0  0  0  0  0  0  0  0  0  0  0
   10.2741   -1.9646   -1.8104 C   0  0  0  0  0  0  0  0  0  0  0  0
   11.2368   -2.4997   -2.6191 C   0  0  0  0  0  0  0  0  0  0  0  0
   12.5053   -2.0581   -2.1453 C   0  0  0  0  0  0  0  0  0  0  0  0
   12.2631   -1.2483   -1.0719 N   0  0  0  0  0  0  0  0  0  0  0  0
   13.7699   -2.3662   -2.6594 C   0  0  0  0  0  0  0  0  0  0  0  0
   13.8141   -3.2753   -3.8316 C   0  0  0  0  0  0  0  0  0  0  0  0
   14.3775   -2.8283   -5.0302 C   0  0  0  0  0  0  0  0  0  0  0  0
   14.4137   -3.6717   -6.1332 C   0  0  0  0  0  0  0  0  0  0  0  0
   14.9420   -3.3002   -7.3417 O   0  0  0  0  0  0  0  0  0  0  0  0
   13.8964   -4.9618   -6.0472 C   0  0  0  0  0  0  0  0  0  0  0  0
   13.9217   -5.8142   -7.1196 O   0  0  0  0  0  0  0  0  0  0  0  0
   13.3377   -5.4109   -4.8495 C   0  0  0  0  0  0  0  0  0  0  0  0
   12.8410   -6.6698   -4.7748 O   0  0  0  0  0  0  0  0  0  0  0  0
   13.2938   -4.5668   -3.7459 C   0  0  0  0  0  0  0  0  0  0  0  0
   14.9788   -1.8851   -2.1500 C   0  0  0  0  0  0  0  0  0  0  0  0
   16.2831   -2.3007   -2.6334 C   0  0  0  0  0  0  0  0  0  0  0  0
   17.1950   -1.6377   -1.8922 C   0  0  0  0  0  0  0  0  0  0  0  0
   15.1214   -0.9970   -1.1277 N   0  0  0  0  0  0  0  0  0  0  0  0
   16.4470   -0.8197   -0.9574 C   0  0  0  0  0  0  0  0  0  0  0  0
   17.0726    0.0420   -0.0328 C   0  0  0  0  0  0  0  0  0  0  0  0
   16.4259    0.8630    0.9107 C   0  0  0  0  0  0  0  0  0  0  0  0
   17.0539    1.7885    1.7854 C   0  0  0  0  0  0  0  0  0  0  0  0
   16.0800    2.3885    2.5349 C   0  0  0  0  0  0  0  0  0  0  0  0
   14.8272    1.8343    2.1519 C   0  0  0  0  0  0  0  0  0  0  0  0
   15.0875    0.9264    1.1589 N   0  0  0  0  0  0  0  0  0  0  0  0
   13.5632    2.1452    2.6649 C   0  0  0  0  0  0  0  0  0  0  0  0
   13.5048    3.1553    3.7496 C   0  0  0  0  0  0  0  0  0  0  0  0
   14.1857    2.9489    4.9499 C   0  0  0  0  0  0  0  0  0  0  0  0
   14.1223    3.9012    5.9605 C   0  0  0  0  0  0  0  0  0  0  0  0
   14.7740    3.7068    7.1328 O   0  0  0  0  0  0  0  0  0  0  0  0
   13.3817    5.0691    5.7709 C   0  0  0  0  0  0  0  0  0  0  0  0
   13.3401    5.9914    6.7834 O   0  0  0  0  0  0  0  0  0  0  0  0
   12.7042    5.2764    4.5721 C   0  0  0  0  0  0  0  0  0  0  0  0
   12.0017    6.4474    4.4571 O   0  0  0  0  0  0  0  0  0  0  0  0
   12.7602    4.3238    3.5629 C   0  0  0  0  0  0  0  0  0  0  0  0
   12.3621    1.5748    2.2277 C   0  0  0  0  0  0  0  0  0  0  0  0
   11.0657    1.8326    2.8353 C   0  0  0  0  0  0  0  0  0  0  0  0
   10.1670    1.1030    2.1437 C   0  0  0  0  0  0  0  0  0  0  0  0
   10.9132    0.3970    1.1176 C   0  0  0  0  0  0  0  0  0  0  0  0
   12.2328    0.6954    1.2063 N   0  0  0  0  0  0  0  0  0  0  0  0
    9.2298   -0.5278    0.2399 H   0  0  0  0  0  0  0  0  0  0  0  0
    9.2065   -2.0972   -1.8844 H   0  0  0  0  0  0  0  0  0  0  0  0
   11.0865   -3.1403   -3.4727 H   0  0  0  0  0  0  0  0  0  0  0  0
   12.9849   -0.7762   -0.5376 H   0  0  0  0  0  0  0  0  0  0  0  0
   14.7692   -1.8209   -5.1081 H   0  0  0  0  0  0  0  0  0  0  0  0
   15.2856   -2.3980   -7.3032 H   0  0  0  0  0  0  0  0  0  0  0  0
   14.3451   -5.3506   -7.8596 H   0  0  0  0  0  0  0  0  0  0  0  0
   12.9686   -7.0995   -5.6367 H   0  0  0  0  0  0  0  0  0  0  0  0
   12.8749   -4.9329   -2.8175 H   0  0  0  0  0  0  0  0  0  0  0  0
   16.4567   -3.0187   -3.4185 H   0  0  0  0  0  0  0  0  0  0  0  0
   18.2706   -1.6847   -1.9497 H   0  0  0  0  0  0  0  0  0  0  0  0
   18.1156    1.9722    1.8222 H   0  0  0  0  0  0  0  0  0  0  0  0
   16.2150    3.1524    3.2830 H   0  0  0  0  0  0  0  0  0  0  0  0
   14.3754    0.3847    0.6802 H   0  0  0  0  0  0  0  0  0  0  0  0
   14.7471    2.0387    5.1168 H   0  0  0  0  0  0  0  0  0  0  0  0
   14.6061    4.4729    7.7061 H   0  0  0  0  0  0  0  0  0  0  0  0
   12.7838    6.7308    6.4909 H   0  0  0  0  0  0  0  0  0  0  0  0
   11.5593    6.4992    3.5997 H   0  0  0  0  0  0  0  0  0  0  0  0
   12.2426    4.4986    2.6270 H   0  0  0  0  0  0  0  0  0  0  0  0
   10.8934    2.4716    3.6865 H   0  0  0  0  0  0  0  0  0  0  0  0
    9.1015    1.0247    2.2936 H   0  0  0  0  0  0  0  0  0  0  0  0
   33.0113   -0.2807    0.3704 C   0  0  0  0  0  0  0  0  0  0  0  0
   32.3999    0.5176    1.3284 C   0  0  0  0  0  0  0  0  0  0  0  0
   33.0472    1.2744    2.3451 C   0  0  0  0  0  0  0  0  0  0  0  0
   32.0839    1.9211    3.0668 C   0  0  0  0  0  0  0  0  0  0  0  0
   30.8154    1.5674    2.5243 C   0  0  0  0  0  0  0  0  0  0  0  0
   31.0580    0.7299    1.4725 N   0  0  0  0  0  0  0  0  0  0  0  0
   29.5505    1.9840    2.9541 C   0  0  0  0  0  0  0  0  0  0  0  0
   29.5060    2.8928    4.1266 C   0  0  0  0  0  0  0  0  0  0  0  0
   28.9415    4.1644    3.9922 C   0  0  0  0  0  0  0  0  0  0  0  0
   28.9043    5.0223    5.0839 C   0  0  0  0  0  0  0  0  0  0  0  0
   28.3751    6.2850    5.0252 O   0  0  0  0  0  0  0  0  0  0  0  0
   29.4211    4.6177    6.3121 C   0  0  0  0  0  0  0  0  0  0  0  0
   29.3942    5.4435    7.4051 O   0  0  0  0  0  0  0  0  0  0  0  0
   29.9810    3.3464    6.4487 C   0  0  0  0  0  0  0  0  0  0  0  0
   30.4771    2.9605    7.6495 O   0  0  0  0  0  0  0  0  0  0  0  0
   30.0265    2.4882    5.3560 C   0  0  0  0  0  0  0  0  0  0  0  0
   28.3412    1.6068    2.3646 C   0  0  0  0  0  0  0  0  0  0  0  0
   27.0373    1.9675    2.8914 C   0  0  0  0  0  0  0  0  0  0  0  0
   26.1246    1.4140    2.0661 C   0  0  0  0  0  0  0  0  0  0  0  0
   28.1976    0.8390    1.2492 N   0  0  0  0  0  0  0  0  0  0  0  0
   26.8717    0.7159    1.0381 C   0  0  0  0  0  0  0  0  0  0  0  0
   26.2453    0.0366   -0.0273 C   0  0  0  0  0  0  0  0  0  0  0  0
   26.8918   -0.6715   -1.0583 C   0  0  0  0  0  0  0  0  0  0  0  0
   26.2637   -1.2884   -2.1724 C   0  0  0  0  0  0  0  0  0  0  0  0
   27.2376   -1.8641   -2.9406 C   0  0  0  0  0  0  0  0  0  0  0  0
   28.4906   -1.6303   -2.3091 C   0  0  0  0  0  0  0  0  0  0  0  0
   28.2303   -0.8952   -1.1822 N   0  0  0  0  0  0  0  0  0  0  0  0
   29.7546   -2.0486   -2.7389 C   0  0  0  0  0  0  0  0  0  0  0  0
   29.8126   -2.8478   -3.9872 C   0  0  0  0  0  0  0  0  0  0  0  0
   29.1344   -4.0632   -4.0846 C   0  0  0  0  0  0  0  0  0  0  0  0
   29.1982   -4.8054   -5.2583 C   0  0  0  0  0  0  0  0  0  0  0  0
   28.5494   -5.9910   -5.3603 O   0  0  0  0  0  0  0  0  0  0  0  0
   29.9362   -4.3298   -6.3434 C   0  0  0  0  0  0  0  0  0  0  0  0
   29.9784   -5.0814   -7.4883 O   0  0  0  0  0  0  0  0  0  0  0  0
   30.6108   -3.1154   -6.2472 C   0  0  0  0  0  0  0  0  0  0  0  0
   31.3108   -2.7112   -7.3539 O   0  0  0  0  0  0  0  0  0  0  0  0
   30.5547   -2.3747   -5.0736 C   0  0  0  0  0  0  0  0  0  0  0  0
   30.9563   -1.7654   -2.0795 C   0  0  0  0  0  0  0  0  0  0  0  0
   32.2526   -2.2886   -2.4823 C   0  0  0  0  0  0  0  0  0  0  0  0
   33.1524   -1.7978   -1.6061 C   0  0  0  0  0  0  0  0  0  0  0  0
   32.4071   -0.9792   -0.6667 C   0  0  0  0  0  0  0  0  0  0  0  0
   31.0867   -0.9935   -0.9749 N   0  0  0  0  0  0  0  0  0  0  0  0
   34.0920   -0.3533    0.4419 H   0  0  0  0  0  0  0  0  0  0  0  0
   34.1150    1.3170    2.4893 H   0  0  0  0  0  0  0  0  0  0  0  0
   32.2337    2.5890    3.8993 H   0  0  0  0  0  0  0  0  0  0  0  0
   30.3363    0.3271    0.8840 H   0  0  0  0  0  0  0  0  0  0  0  0
   28.5495    4.4904    3.0359 H   0  0  0  0  0  0  0  0  0  0  0  0
   28.0326    6.4726    4.1415 H   0  0  0  0  0  0  0  0  0  0  0  0
   28.9702    6.2753    7.1404 H   0  0  0  0  0  0  0  0  0  0  0  0
   30.3479    3.6876    8.2806 H   0  0  0  0  0  0  0  0  0  0  0  0
   30.4467    1.4984    5.4790 H   0  0  0  0  0  0  0  0  0  0  0  0
   26.8648    2.5472    3.7837 H   0  0  0  0  0  0  0  0  0  0  0  0
   25.0490    1.4551    2.1289 H   0  0  0  0  0  0  0  0  0  0  0  0
   25.2019   -1.2788   -2.3590 H   0  0  0  0  0  0  0  0  0  0  0  0
   27.1027   -2.3986   -3.8666 H   0  0  0  0  0  0  0  0  0  0  0  0
   28.9423   -0.5656   -0.5387 H   0  0  0  0  0  0  0  0  0  0  0  0
   28.5749   -4.4524   -3.2438 H   0  0  0  0  0  0  0  0  0  0  0  0
   28.7174   -6.3556   -6.2450 H   0  0  0  0  0  0  0  0  0  0  0  0
   30.5328   -4.6130   -8.1325 H   0  0  0  0  0  0  0  0  0  0  0  0
   31.7510   -1.8666   -7.1917 H   0  0  0  0  0  0  0  0  0  0  0  0
   31.0702   -1.4236   -5.0110 H   0  0  0  0  0  0  0  0  0  0  0  0
   32.4241   -2.9551   -3.3123 H   0  0  0  0  0  0  0  0  0  0  0  0
   34.2182   -1.9610   -1.5696 H   0  0  0  0  0  0  0  0  0  0  0  0
   22.2733    0.1167   -0.0992 C   0  0  0  0  0  0  0  0  0  0  0  0
   21.0448    0.1273   -0.0881 C   0  0  0  0  0  0  0  0  0  0  0  0
   19.7008    0.1194   -0.0730 C   0  0  0  0  0  0  0  0  0  0  0  0
   18.4769    0.0977   -0.0502 C   0  0  0  0  0  0  0  0  0  0  0  0
   23.6172    0.0966   -0.0926 C   0  0  0  0  0  0  0  0  0  0  0  0
   24.8410    0.0679   -0.0764 C   0  0  0  0  0  0  0  0  0  0  0  0
  1  2  4  0  0  0  0
  2  3  4  0  0  0  0
  3  4  2  0  0  0  0
  4  5  4  0  0  0  0
  2  6  4  0  0  0  0
  5  6  4  0  0  0  0
  5  7  4  0  0  0  0
  7  8  1  0  0  0  0
  8  9  4  0  0  0  0
  9 10  4  0  0  0  0
 10 11  1  0  0  0  0
 10 12  4  0  0  0  0
 12 13  1  0  0  0  0
 12 14  4  0  0  0  0
 14 15  1  0  0  0  0
  8 16  4  0  0  0  0
 14 16  4  0  0  0  0
  7 17  4  0  0  0  0
 17 18  1  0  0  0  0
 18 19  2  0  0  0  0
 17 20  4  0  0  0  0
 19 21  1  0  0  0  0
 20 21  4  0  0  0  0
 21 22  4  0  0  0  0
 22 23  4  0  0  0  0
 23 24  4  0  0  0  0
 24 25  2  0  0  0  0
 25 26  4  0  0  0  0
 23 27  4  0  0  0  0
 26 27  4  0  0  0  0
 26 28  4  0  0  0  0
 28 29  1  0  0  0  0
 29 30  4  0  0  0  0
 30 31  4  0  0  0  0
 31 32  1  0  0  0  0
 31 33  4  0  0  0  0
 33 34  1  0  0  0  0
 33 35  4  0  0  0  0
 35 36  1  0  0  0  0
 29 37  4  0  0  0  0
 35 37  4  0  0  0  0
 28 38  4  0  0  0  0
 38 39  1  0  0  0  0
 39 40  2  0  0  0  0
  1 41  4  0  0  0  0
 40 41  1  0  0  0  0
 38 42  4  0  0  0  0
 41 42  4  0  0  0  0
  1 43  1  0  0  0  0
  3 44  1  0  0  0  0
  4 45  1  0  0  0  0
  6 46  1  0  0  0  0
  9 47  1  0  0  0  0
 11 48  1  0  0  0  0
 13 49  1  0  0  0  0
 15 50  1  0  0  0  0
 16 51  1  0  0  0  0
 18 52  1  0  0  0  0
 19 53  1  0  0  0  0
 24 54  1  0  0  0  0
 25 55  1  0  0  0  0
 27 56  1  0  0  0  0
 30 57  1  0  0  0  0
 32 58  1  0  0  0  0
 34 59  1  0  0  0  0
 36 60  1  0  0  0  0
 37 61  1  0  0  0  0
 39 62  1  0  0  0  0
 40 63  1  0  0  0  0
 64 65  4  0  0  0  0
 65 66  4  0  0  0  0
 66 67  2  0  0  0  0
 67 68  4  0  0  0  0
 65 69  4  0  0  0  0
 68 69  4  0  0  0  0
 68 70  4  0  0  0  0
 70 71  1  0  0  0  0
 71 72  4  0  0  0  0
 72 73  4  0  0  0  0
 73 74  1  0  0  0  0
 73 75  4  0  0  0  0
 75 76  1  0  0  0  0
 75 77  4  0  0  0  0
 77 78  1  0  0  0  0
 71 79  4  0  0  0  0
 77 79  4  0  0  0  0
 70 80  4  0  0  0  0
 80 81  1  0  0  0  0
 81 82  2  0  0  0  0
 80 83  4  0  0  0  0
 82 84  1  0  0  0  0
 83 84  4  0  0  0  0
 84 85  4  0  0  0  0
 85 86  4  0  0  0  0
 86 87  4  0  0  0  0
 87 88  2  0  0  0  0
 88 89  4  0  0  0  0
 86 90  4  0  0  0  0
 89 90  4  0  0  0  0
 89 91  4  0  0  0  0
 91 92  1  0  0  0  0
 92 93  4  0  0  0  0
 93 94  4  0  0  0  0
 94 95  1  0  0  0  0
 94 96  4  0  0  0  0
 96 97  1  0  0  0  0
 96 98  4  0  0  0  0
 98 99  1  0  0  0  0
 92100  4  0  0  0  0
 98100  4  0  0  0  0
 91101  4  0  0  0  0
101102  1  0  0  0  0
102103  2  0  0  0  0
 64104  4  0  0  0  0
103104  1  0  0  0  0
101105  4  0  0  0  0
104105  4  0  0  0  0
 64106  1  0  0  0  0
 66107  1  0  0  0  0
 67108  1  0  0  0  0
 69109  1  0  0  0  0
 72110  1  0  0  0  0
 74111  1  0  0  0  0
 76112  1  0  0  0  0
 78113  1  0  0  0  0
 79114  1  0  0  0  0
 81115  1  0  0  0  0
 82116  1  0  0  0  0
 87117  1  0  0  0  0
 88118  1  0  0  0  0
 90119  1  0  0  0  0
 93120  1  0  0  0  0
 95121  1  0  0  0  0
 97122  1  0  0  0  0
 99123  1  0  0  0  0
100124  1  0  0  0  0
102125  1  0  0  0  0
103126  1  0  0  0  0
127128  3  0  0  0  0
128129  4  0  0  0  0
 22130  4  0  0  0  0
129130  3  0  0  0  0
127131  4  0  0  0  0
 85132  4  0  0  0  0
131132  3  0  0  0  0
M  END
