124

C 13.396255 0.013661 -0.002927
C 14.121109 -1.040273 0.888357
C 13.505658 -2.027450 1.624442
C 14.527086 -2.731588 2.312235
C 15.732762 -2.144136 1.978787
N 15.475783 -1.140622 1.078903
C 17.160816 -2.529497 2.549055
C 17.210317 -3.476785 3.687810
C 17.459704 -4.835183 3.469468
C 17.512311 -5.725775 4.545904
C 17.357758 -5.265472 5.856396
N 17.319100 -6.176691 6.926464
C 17.034172 -3.920940 6.065254
C 16.982801 -3.026622 4.991729
C 18.289466 -1.972476 2.031416
C 19.598761 -2.252857 2.584158
C 20.500287 -1.556498 1.901999
N 18.482504 -1.094852 0.996047
C 19.816670 -0.804960 0.867837
C 20.486575 -0.000000 0.000000
C 19.712043 0.780033 -1.146541
C 20.266424 1.273194 -2.311409
C 19.241369 1.940641 -3.025572
C 18.084670 1.824691 -2.285458
N 18.370906 1.079168 -1.165468
C 16.667621 2.427535 -2.665121
C 16.617839 3.509298 -3.673423
C 16.398023 3.209389 -5.021518
C 16.348951 4.231858 -5.973364
C 16.472089 5.568984 -5.586015
N 16.511892 6.585128 -6.556949
C 16.762077 5.859869 -4.249188
C 16.813904 4.839878 -3.293847
C 15.545452 1.952564 -2.064477
C 14.220182 2.465024 -2.365333
C 13.336604 1.794272 -1.632550
C 14.061830 0.835039 -0.836386
N 15.384290 0.975453 -1.121609
H 12.317253 0.079338 0.066337
H 12.442997 -2.211601 1.671659
H 14.395066 -3.560521 2.992422
H 16.179552 -0.562737 0.625945
H 17.607531 -5.188311 2.452211
H 17.686003 -6.777664 4.344236
H 17.547574 -5.734253 7.811017
H 17.884799 -7.000210 6.746797
H 16.828012 -3.547739 7.063193
H 16.758302 -1.975011 5.157968
H 19.814823 -2.901131 3.414229
H 21.556486 -1.569795 2.098274
H 21.297886 1.177058 -2.613261
H 19.337748 2.451135 -3.971815
H 17.682184 0.762452 -0.487937
H 16.272489 2.170888 -5.318391
H 16.204654 3.967238 -7.015315
H 15.964685 6.348566 -7.377341
H 16.261154 7.489127 -6.170857
H 16.941716 6.881546 -3.930471
H 17.012006 5.069399 -2.249048
H 13.988544 3.251473 -3.060642
H 12.271586 1.937755 -1.628315
C 30.900398 0.000280 0.013968
C 30.175543 0.626458 -1.216099
C 30.790994 1.116854 -2.345634
C 29.769567 1.625074 -3.188595
C 28.563890 1.435050 -2.540384
N 28.820870 0.788953 -1.357426
C 27.135837 1.901888 -3.046122
C 27.086335 2.793385 -4.229063
C 26.836948 2.269699 -5.501334
C 26.784342 3.113521 -6.614812
C 26.938894 4.494606 -6.466923
N 26.977552 5.327504 -7.599021
C 27.262481 5.005884 -5.205977
C 27.313851 4.165750 -4.089539
C 26.007187 1.525600 -2.385343
C 24.697892 1.999423 -2.784877
C 23.796365 1.494906 -1.950780
N 25.814148 0.718783 -1.293894
C 24.479983 0.660383 -0.982342
C 23.810077 0.000000 -0.000000
C 24.584609 -0.937387 1.021916
C 24.030229 -1.958323 1.768786
C 25.055284 -2.500616 2.582071
C 26.211983 -1.806739 2.299676
N 25.925747 -0.887292 1.317434
C 27.629032 -2.038223 2.973457
C 27.678813 -2.771933 4.257416
C 27.898629 -4.152883 4.274270
C 27.947702 -4.845220 5.487581
C 27.824564 -4.161893 6.700433
N 27.784760 -4.874259 7.911959
C 27.534576 -2.793978 6.677376
C 27.482748 -2.097672 5.465676
C 28.751201 -1.562343 2.373533
C 30.076470 -1.737818 2.941281
C 30.960048 -1.178157 2.120513
C 30.234823 -0.622878 1.004417
N 28.912362 -0.868356 1.206430
H 31.979399 0.082746 0.062033
H 31.853656 1.120634 -2.535705
H 29.901586 2.097304 -4.151291
H 28.117100 0.480404 -0.691152
H 26.689121 1.198601 -5.612064
H 26.610650 2.676273 -7.592541
H 26.749079 6.289883 -7.370957
H 26.411853 4.963982 -8.359491
H 27.468641 6.062775 -5.071283
H 27.538351 4.568446 -3.103965
H 24.481829 2.658935 -3.606049
H 22.740166 1.682917 -2.008681
H 22.998767 -2.274171 1.744347
H 24.958905 -3.304770 3.295735
H 26.614469 -0.300320 0.853946
H 28.024164 -4.679737 3.331380
H 28.091999 -5.920081 5.468661
H 28.331967 -5.727025 7.869602
H 28.035499 -4.291365 8.703487
H 27.354936 -2.249713 7.598886
H 27.284647 -1.028077 5.449778
H 30.308108 -2.234501 3.866085
H 32.025066 -1.141169 2.259211
C 21.537367 -0.000000 0.000000
C 22.759285 -0.000000 0.000000
