 xtb: 6.5.1 (b24c23e)
          07292211223D

124137  0     0  0            999 V2000
   13.2881   -0.1183    0.1218 C   0  0  0  0  0  0  0  0  0  0  0  0
   13.9114   -0.9973    0.9980 C   0  0  0  0  0  0  0  0  0  0  0  0
   13.2780   -1.9246    1.8712 C   0  0  0  0  0  0  0  0  0  0  0  0
   14.2548   -2.5931    2.5546 C   0  0  0  0  0  0  0  0  0  0  0  0
   15.5161   -2.0875    2.1287 C   0  0  0  0  0  0  0  0  0  0  0  0
   15.2581   -1.1340    1.1850 N   0  0  0  0  0  0  0  0  0  0  0  0
   16.7858   -2.4920    2.5562 C   0  0  0  0  0  0  0  0  0  0  0  0
   16.8271   -3.5320    3.6128 C   0  0  0  0  0  0  0  0  0  0  0  0
   17.4454   -4.7628    3.3797 C   0  0  0  0  0  0  0  0  0  0  0  0
   17.4807   -5.7364    4.3621 C   0  0  0  0  0  0  0  0  0  0  0  0
   16.9062   -5.4927    5.6122 C   0  0  0  0  0  0  0  0  0  0  0  0
   16.9051   -6.4786    6.5842 N   0  0  0  0  0  0  0  0  0  0  0  0
   16.2804   -4.2668    5.8514 C   0  0  0  0  0  0  0  0  0  0  0  0
   16.2422   -3.3019    4.8603 C   0  0  0  0  0  0  0  0  0  0  0  0
   17.9973   -1.9946    2.0678 C   0  0  0  0  0  0  0  0  0  0  0  0
   19.2928   -2.4106    2.5715 C   0  0  0  0  0  0  0  0  0  0  0  0
   20.2143   -1.7238    1.8657 C   0  0  0  0  0  0  0  0  0  0  0  0
   18.1562   -1.0579    1.0913 N   0  0  0  0  0  0  0  0  0  0  0  0
   19.4862   -0.8765    0.9446 C   0  0  0  0  0  0  0  0  0  0  0  0
   20.1271   -0.0014    0.0419 C   0  0  0  0  0  0  0  0  0  0  0  0
   19.4707    0.8635   -0.8565 C   0  0  0  0  0  0  0  0  0  0  0  0
   20.0880    1.7370   -1.7881 C   0  0  0  0  0  0  0  0  0  0  0  0
   19.1049    2.3921   -2.4759 C   0  0  0  0  0  0  0  0  0  0  0  0
   17.8506    1.9505   -1.9735 C   0  0  0  0  0  0  0  0  0  0  0  0
   18.1229    1.0235   -1.0009 N   0  0  0  0  0  0  0  0  0  0  0  0
   16.5833    2.3614   -2.4027 C   0  0  0  0  0  0  0  0  0  0  0  0
   16.5405    3.3879   -3.4716 C   0  0  0  0  0  0  0  0  0  0  0  0
   15.9299    3.1094   -4.6971 C   0  0  0  0  0  0  0  0  0  0  0  0
   15.8888    4.0596   -5.7019 C   0  0  0  0  0  0  0  0  0  0  0  0
   16.4475    5.3233   -5.4949 C   0  0  0  0  0  0  0  0  0  0  0  0
   16.4428    6.2636   -6.5115 N   0  0  0  0  0  0  0  0  0  0  0  0
   17.0630    5.6089   -4.2737 C   0  0  0  0  0  0  0  0  0  0  0  0
   17.1083    4.6493   -3.2776 C   0  0  0  0  0  0  0  0  0  0  0  0
   15.3692    1.8791   -1.9028 C   0  0  0  0  0  0  0  0  0  0  0  0
   14.0642    2.3692   -2.3189 C   0  0  0  0  0  0  0  0  0  0  0  0
   13.1506    1.6736   -1.6117 C   0  0  0  0  0  0  0  0  0  0  0  0
   13.8966    0.7676   -0.7574 C   0  0  0  0  0  0  0  0  0  0  0  0
   15.2289    0.9239   -0.9537 N   0  0  0  0  0  0  0  0  0  0  0  0
   12.2030   -0.1331    0.1314 H   0  0  0  0  0  0  0  0  0  0  0  0
   12.2110   -2.0593    1.9504 H   0  0  0  0  0  0  0  0  0  0  0  0
   14.1189   -3.3763    3.2826 H   0  0  0  0  0  0  0  0  0  0  0  0
   15.9705   -0.6103    0.6878 H   0  0  0  0  0  0  0  0  0  0  0  0
   17.8853   -4.9632    2.4090 H   0  0  0  0  0  0  0  0  0  0  0  0
   17.9552   -6.6916    4.1658 H   0  0  0  0  0  0  0  0  0  0  0  0
   16.7837   -6.1455    7.5272 H   0  0  0  0  0  0  0  0  0  0  0  0
   17.6310   -7.1708    6.4885 H   0  0  0  0  0  0  0  0  0  0  0  0
   15.8290   -4.0729    6.8183 H   0  0  0  0  0  0  0  0  0  0  0  0
   15.7715   -2.3455    5.0609 H   0  0  0  0  0  0  0  0  0  0  0  0
   19.4564   -3.1208    3.3657 H   0  0  0  0  0  0  0  0  0  0  0  0
   21.2867   -1.7690    1.9482 H   0  0  0  0  0  0  0  0  0  0  0  0
   21.1510    1.8460   -1.9156 H   0  0  0  0  0  0  0  0  0  0  0  0
   19.2361    3.1105   -3.2683 H   0  0  0  0  0  0  0  0  0  0  0  0
   17.4160    0.5214   -0.4740 H   0  0  0  0  0  0  0  0  0  0  0  0
   15.5013    2.1280   -4.8682 H   0  0  0  0  0  0  0  0  0  0  0  0
   15.4219    3.8274   -6.6529 H   0  0  0  0  0  0  0  0  0  0  0  0
   15.7228    6.1354   -7.2046 H   0  0  0  0  0  0  0  0  0  0  0  0
   16.5474    7.2184   -6.2070 H   0  0  0  0  0  0  0  0  0  0  0  0
   17.5008    6.5873   -4.1080 H   0  0  0  0  0  0  0  0  0  0  0  0
   17.5705    4.8862   -2.3255 H   0  0  0  0  0  0  0  0  0  0  0  0
   13.8946    3.1505   -3.0424 H   0  0  0  0  0  0  0  0  0  0  0  0
   12.0748    1.7507   -1.6369 H   0  0  0  0  0  0  0  0  0  0  0  0
   31.0085    0.0913   -0.1432 C   0  0  0  0  0  0  0  0  0  0  0  0
   30.3853    0.7429   -1.1994 C   0  0  0  0  0  0  0  0  0  0  0  0
   31.0186    1.3804   -2.3021 C   0  0  0  0  0  0  0  0  0  0  0  0
   30.0418    1.8927   -3.1093 C   0  0  0  0  0  0  0  0  0  0  0  0
   28.7806    1.5940   -2.5196 C   0  0  0  0  0  0  0  0  0  0  0  0
   29.0386    0.8936   -1.3753 N   0  0  0  0  0  0  0  0  0  0  0  0
   27.5108    1.9174   -3.0112 C   0  0  0  0  0  0  0  0  0  0  0  0
   27.4696    2.7077   -4.2656 C   0  0  0  0  0  0  0  0  0  0  0  0
   26.8515    2.1988   -5.4104 C   0  0  0  0  0  0  0  0  0  0  0  0
   26.8161    2.9321   -6.5831 C   0  0  0  0  0  0  0  0  0  0  0  0
   27.3904    4.2048   -6.6322 C   0  0  0  0  0  0  0  0  0  0  0  0
   27.3915    4.9251   -7.8145 N   0  0  0  0  0  0  0  0  0  0  0  0
   28.0160    4.7186   -5.4936 C   0  0  0  0  0  0  0  0  0  0  0  0
   28.0543    3.9748   -4.3273 C   0  0  0  0  0  0  0  0  0  0  0  0
   26.2993    1.5560   -2.4152 C   0  0  0  0  0  0  0  0  0  0  0  0
   25.0039    1.9510   -2.9355 C   0  0  0  0  0  0  0  0  0  0  0  0
   24.0824    1.4214   -2.1052 C   0  0  0  0  0  0  0  0  0  0  0  0
   26.1405    0.8200   -1.2797 N   0  0  0  0  0  0  0  0  0  0  0  0
   24.8105    0.7188   -1.0695 C   0  0  0  0  0  0  0  0  0  0  0  0
   24.1695    0.0406   -0.0109 C   0  0  0  0  0  0  0  0  0  0  0  0
   24.8260   -0.6359    1.0368 C   0  0  0  0  0  0  0  0  0  0  0  0
   24.2087   -1.3426    2.1005 C   0  0  0  0  0  0  0  0  0  0  0  0
   25.1917   -1.8621    2.8956 C   0  0  0  0  0  0  0  0  0  0  0  0
   26.4460   -1.4742    2.3507 C   0  0  0  0  0  0  0  0  0  0  0  0
   26.1737   -0.7398    1.2256 N   0  0  0  0  0  0  0  0  0  0  0  0
   27.7134   -1.7979    2.8489 C   0  0  0  0  0  0  0  0  0  0  0  0
   27.7562   -2.6033    4.0930 C   0  0  0  0  0  0  0  0  0  0  0  0
   28.3670   -3.8598    4.1027 C   0  0  0  0  0  0  0  0  0  0  0  0
   28.4081   -4.6203    5.2578 C   0  0  0  0  0  0  0  0  0  0  0  0
   27.8491   -4.1295    6.4405 C   0  0  0  0  0  0  0  0  0  0  0  0
   27.8538   -4.9037    7.5886 N   0  0  0  0  0  0  0  0  0  0  0  0
   27.2334   -2.8754    6.4386 C   0  0  0  0  0  0  0  0  0  0  0  0
   27.1881   -2.1257    5.2764 C   0  0  0  0  0  0  0  0  0  0  0  0
   28.9275   -1.4218    2.2650 C   0  0  0  0  0  0  0  0  0  0  0  0
   30.2325   -1.7145    2.8374 C   0  0  0  0  0  0  0  0  0  0  0  0
   31.1461   -1.1856    1.9982 C   0  0  0  0  0  0  0  0  0  0  0  0
   30.4000   -0.5615    0.9206 C   0  0  0  0  0  0  0  0  0  0  0  0
   29.0677   -0.7168    1.1178 N   0  0  0  0  0  0  0  0  0  0  0  0
   32.0937    0.0971   -0.1598 H   0  0  0  0  0  0  0  0  0  0  0  0
   32.0857    1.4268   -2.4514 H   0  0  0  0  0  0  0  0  0  0  0  0
   30.1778    2.4220   -4.0385 H   0  0  0  0  0  0  0  0  0  0  0  0
   28.3262    0.5296   -0.7517 H   0  0  0  0  0  0  0  0  0  0  0  0
   26.4117    1.2080   -5.3831 H   0  0  0  0  0  0  0  0  0  0  0  0
   26.3418    2.5221   -7.4680 H   0  0  0  0  0  0  0  0  0  0  0  0
   27.5127    5.9195   -7.7063 H   0  0  0  0  0  0  0  0  0  0  0  0
   26.6657    4.6733   -8.4664 H   0  0  0  0  0  0  0  0  0  0  0  0
   28.4672    5.7043   -5.5263 H   0  0  0  0  0  0  0  0  0  0  0  0
   28.5248    4.3893   -3.4423 H   0  0  0  0  0  0  0  0  0  0  0  0
   24.8403    2.5614   -3.8087 H   0  0  0  0  0  0  0  0  0  0  0  0
   23.0100    1.4914   -2.1681 H   0  0  0  0  0  0  0  0  0  0  0  0
   23.1456   -1.4417    2.2358 H   0  0  0  0  0  0  0  0  0  0  0  0
   25.0606   -2.4689    3.7765 H   0  0  0  0  0  0  0  0  0  0  0  0
   26.8807   -0.3420    0.6161 H   0  0  0  0  0  0  0  0  0  0  0  0
   28.7958   -4.2511    3.1867 H   0  0  0  0  0  0  0  0  0  0  0  0
   28.8751   -5.5991    5.2496 H   0  0  0  0  0  0  0  0  0  0  0  0
   28.5739   -5.6077    7.6227 H   0  0  0  0  0  0  0  0  0  0  0  0
   27.7489   -4.3887    8.4482 H   0  0  0  0  0  0  0  0  0  0  0  0
   26.7953   -2.4902    7.3530 H   0  0  0  0  0  0  0  0  0  0  0  0
   26.7257   -1.1446    5.2888 H   0  0  0  0  0  0  0  0  0  0  0  0
   30.4021   -2.2398    3.7636 H   0  0  0  0  0  0  0  0  0  0  0  0
   32.2219   -1.1925    2.0789 H   0  0  0  0  0  0  0  0  0  0  0  0
   21.5389    0.0169    0.0251 C   0  0  0  0  0  0  0  0  0  0  0  0
   22.7578    0.0289    0.0110 C   0  0  0  0  0  0  0  0  0  0  0  0
  1  2  4  0  0  0  0
  2  3  4  0  0  0  0
  3  4  2  0  0  0  0
  4  5  4  0  0  0  0
  2  6  4  0  0  0  0
  5  6  4  0  0  0  0
  5  7  4  0  0  0  0
  7  8  1  0  0  0  0
  8  9  4  0  0  0  0
  9 10  4  0  0  0  0
 10 11  4  0  0  0  0
 11 12  1  0  0  0  0
 11 13  4  0  0  0  0
  8 14  4  0  0  0  0
 13 14  4  0  0  0  0
  7 15  4  0  0  0  0
 15 16  1  0  0  0  0
 16 17  2  0  0  0  0
 15 18  4  0  0  0  0
 17 19  1  0  0  0  0
 18 19  4  0  0  0  0
 19 20  4  0  0  0  0
 20 21  4  0  0  0  0
 21 22  4  0  0  0  0
 22 23  2  0  0  0  0
 23 24  4  0  0  0  0
 21 25  4  0  0  0  0
 24 25  4  0  0  0  0
 24 26  4  0  0  0  0
 26 27  1  0  0  0  0
 27 28  4  0  0  0  0
 28 29  4  0  0  0  0
 29 30  4  0  0  0  0
 30 31  1  0  0  0  0
 30 32  4  0  0  0  0
 27 33  4  0  0  0  0
 32 33  4  0  0  0  0
 26 34  4  0  0  0  0
 34 35  1  0  0  0  0
 35 36  2  0  0  0  0
  1 37  4  0  0  0  0
 36 37  1  0  0  0  0
 34 38  4  0  0  0  0
 37 38  4  0  0  0  0
  1 39  1  0  0  0  0
  3 40  1  0  0  0  0
  4 41  1  0  0  0  0
  6 42  1  0  0  0  0
  9 43  1  0  0  0  0
 10 44  1  0  0  0  0
 12 45  1  0  0  0  0
 12 46  1  0  0  0  0
 13 47  1  0  0  0  0
 14 48  1  0  0  0  0
 16 49  1  0  0  0  0
 17 50  1  0  0  0  0
 22 51  1  0  0  0  0
 23 52  1  0  0  0  0
 25 53  1  0  0  0  0
 28 54  1  0  0  0  0
 29 55  1  0  0  0  0
 31 56  1  0  0  0  0
 31 57  1  0  0  0  0
 32 58  1  0  0  0  0
 33 59  1  0  0  0  0
 35 60  1  0  0  0  0
 36 61  1  0  0  0  0
 62 63  4  0  0  0  0
 63 64  4  0  0  0  0
 64 65  2  0  0  0  0
 65 66  4  0  0  0  0
 63 67  4  0  0  0  0
 66 67  4  0  0  0  0
 66 68  4  0  0  0  0
 68 69  1  0  0  0  0
 69 70  4  0  0  0  0
 70 71  4  0  0  0  0
 71 72  4  0  0  0  0
 72 73  1  0  0  0  0
 72 74  4  0  0  0  0
 69 75  4  0  0  0  0
 74 75  4  0  0  0  0
 68 76  4  0  0  0  0
 76 77  1  0  0  0  0
 77 78  2  0  0  0  0
 76 79  4  0  0  0  0
 78 80  1  0  0  0  0
 79 80  4  0  0  0  0
 80 81  4  0  0  0  0
 81 82  4  0  0  0  0
 82 83  4  0  0  0  0
 83 84  2  0  0  0  0
 84 85  4  0  0  0  0
 82 86  4  0  0  0  0
 85 86  4  0  0  0  0
 85 87  4  0  0  0  0
 87 88  1  0  0  0  0
 88 89  4  0  0  0  0
 89 90  4  0  0  0  0
 90 91  4  0  0  0  0
 91 92  1  0  0  0  0
 91 93  4  0  0  0  0
 88 94  4  0  0  0  0
 93 94  4  0  0  0  0
 87 95  4  0  0  0  0
 95 96  1  0  0  0  0
 96 97  2  0  0  0  0
 62 98  4  0  0  0  0
 97 98  1  0  0  0  0
 95 99  4  0  0  0  0
 98 99  4  0  0  0  0
 62100  1  0  0  0  0
 64101  1  0  0  0  0
 65102  1  0  0  0  0
 67103  1  0  0  0  0
 70104  1  0  0  0  0
 71105  1  0  0  0  0
 73106  1  0  0  0  0
 73107  1  0  0  0  0
 74108  1  0  0  0  0
 75109  1  0  0  0  0
 77110  1  0  0  0  0
 78111  1  0  0  0  0
 83112  1  0  0  0  0
 84113  1  0  0  0  0
 86114  1  0  0  0  0
 89115  1  0  0  0  0
 90116  1  0  0  0  0
 92117  1  0  0  0  0
 92118  1  0  0  0  0
 93119  1  0  0  0  0
 94120  1  0  0  0  0
 96121  1  0  0  0  0
 97122  1  0  0  0  0
 20123  4  0  0  0  0
 81124  4  0  0  0  0
123124  3  0  0  0  0
M  END
