 xtb: 6.5.1 (b24c23e)
          07262217153D

302336  0     0  0            999 V2000
   28.8502   -0.0719   -0.0035 C   0  0  0  0  0  0  0  0  0  0  0  0
   29.4773   -1.3097   -0.0677 C   0  0  0  0  0  0  0  0  0  0  0  0
   28.8653   -2.5945   -0.1335 C   0  0  0  0  0  0  0  0  0  0  0  0
   29.8589   -3.5315   -0.1824 C   0  0  0  0  0  0  0  0  0  0  0  0
   31.1088   -2.8490   -0.1480 C   0  0  0  0  0  0  0  0  0  0  0  0
   30.8276   -1.5151   -0.0792 N   0  0  0  0  0  0  0  0  0  0  0  0
   32.3788   -3.4135   -0.1777 C   0  0  0  0  0  0  0  0  0  0  0  0
   33.5961   -2.7492   -0.1440 C   0  0  0  0  0  0  0  0  0  0  0  0
   34.8773   -3.4320   -0.1795 C   0  0  0  0  0  0  0  0  0  0  0  0
   35.8228   -2.4710   -0.1306 C   0  0  0  0  0  0  0  0  0  0  0  0
   33.7837   -1.4028   -0.0747 N   0  0  0  0  0  0  0  0  0  0  0  0
   35.1152   -1.2047   -0.0654 C   0  0  0  0  0  0  0  0  0  0  0  0
   35.7659    0.0455   -0.0023 C   0  0  0  0  0  0  0  0  0  0  0  0
   35.1135    1.2914    0.0615 C   0  0  0  0  0  0  0  0  0  0  0  0
   35.7204    2.5748    0.1263 C   0  0  0  0  0  0  0  0  0  0  0  0
   34.7232    3.5095    0.1749 C   0  0  0  0  0  0  0  0  0  0  0  0
   33.4773    2.8229    0.1410 C   0  0  0  0  0  0  0  0  0  0  0  0
   33.7658    1.4864    0.0726 N   0  0  0  0  0  0  0  0  0  0  0  0
   32.2087    3.3877    0.1711 C   0  0  0  0  0  0  0  0  0  0  0  0
   30.9903    2.7206    0.1382 C   0  0  0  0  0  0  0  0  0  0  0  0
   29.7030    3.3973    0.1742 C   0  0  0  0  0  0  0  0  0  0  0  0
   28.7633    2.4319    0.1255 C   0  0  0  0  0  0  0  0  0  0  0  0
   29.4774    1.1667    0.0598 C   0  0  0  0  0  0  0  0  0  0  0  0
   30.8149    1.3801    0.0695 N   0  0  0  0  0  0  0  0  0  0  0  0
   27.7654   -0.0823   -0.0031 H   0  0  0  0  0  0  0  0  0  0  0  0
   27.8004   -2.7642   -0.1416 H   0  0  0  0  0  0  0  0  0  0  0  0
   29.7499   -4.6030   -0.2376 H   0  0  0  0  0  0  0  0  0  0  0  0
   31.5215   -0.7760   -0.0416 H   0  0  0  0  0  0  0  0  0  0  0  0
   32.4127   -4.4969   -0.2334 H   0  0  0  0  0  0  0  0  0  0  0  0
   35.0024   -4.5021   -0.2345 H   0  0  0  0  0  0  0  0  0  0  0  0
   36.8959   -2.5777   -0.1366 H   0  0  0  0  0  0  0  0  0  0  0  0
   36.7847    2.7477    0.1342 H   0  0  0  0  0  0  0  0  0  0  0  0
   34.8294    4.5812    0.2294 H   0  0  0  0  0  0  0  0  0  0  0  0
   33.0745    0.7446    0.0354 H   0  0  0  0  0  0  0  0  0  0  0  0
   32.1758    4.4711    0.2266 H   0  0  0  0  0  0  0  0  0  0  0  0
   29.5727    4.4669    0.2292 H   0  0  0  0  0  0  0  0  0  0  0  0
   27.6890    2.5314    0.1316 H   0  0  0  0  0  0  0  0  0  0  0  0
  147.9588    0.0667   -0.0110 C   0  0  0  0  0  0  0  0  0  0  0  0
  147.3316    1.2863   -0.2325 C   0  0  0  0  0  0  0  0  0  0  0  0
  147.9434    2.5524   -0.4608 C   0  0  0  0  0  0  0  0  0  0  0  0
  146.9498    3.4754   -0.6288 C   0  0  0  0  0  0  0  0  0  0  0  0
  145.6999    2.8026   -0.5083 C   0  0  0  0  0  0  0  0  0  0  0  0
  145.9812    1.4883   -0.2705 N   0  0  0  0  0  0  0  0  0  0  0  0
  144.4299    3.3586   -0.6095 C   0  0  0  0  0  0  0  0  0  0  0  0
  143.2127    2.7037   -0.4919 C   0  0  0  0  0  0  0  0  0  0  0  0
  141.9314    3.3765   -0.6134 C   0  0  0  0  0  0  0  0  0  0  0  0
  140.9860    2.4293   -0.4431 C   0  0  0  0  0  0  0  0  0  0  0  0
  143.0252    1.3769   -0.2530 N   0  0  0  0  0  0  0  0  0  0  0  0
  141.6937    1.1814   -0.2186 C   0  0  0  0  0  0  0  0  0  0  0  0
  141.0432   -0.0510    0.0012 C   0  0  0  0  0  0  0  0  0  0  0  0
  141.6956   -1.2788    0.2219 C   0  0  0  0  0  0  0  0  0  0  0  0
  141.0888   -2.5438    0.4485 C   0  0  0  0  0  0  0  0  0  0  0  0
  142.0861   -3.4646    0.6156 C   0  0  0  0  0  0  0  0  0  0  0  0
  143.3319   -2.7874    0.4961 C   0  0  0  0  0  0  0  0  0  0  0  0
  143.0433   -1.4705    0.2587 N   0  0  0  0  0  0  0  0  0  0  0  0
  144.6006   -3.3436    0.5986 C   0  0  0  0  0  0  0  0  0  0  0  0
  145.8190   -2.6857    0.4824 C   0  0  0  0  0  0  0  0  0  0  0  0
  147.1063   -3.3520    0.6051 C   0  0  0  0  0  0  0  0  0  0  0  0
  148.0459   -2.4003    0.4351 C   0  0  0  0  0  0  0  0  0  0  0  0
  147.3316   -1.1539    0.2087 C   0  0  0  0  0  0  0  0  0  0  0  0
  145.9942   -1.3647    0.2444 N   0  0  0  0  0  0  0  0  0  0  0  0
  149.0436    0.0773   -0.0114 H   0  0  0  0  0  0  0  0  0  0  0  0
  149.0083    2.7198   -0.4901 H   0  0  0  0  0  0  0  0  0  0  0  0
  147.0587    4.5312   -0.8196 H   0  0  0  0  0  0  0  0  0  0  0  0
  145.2874    0.7599   -0.1394 H   0  0  0  0  0  0  0  0  0  0  0  0
  144.3958    4.4261   -0.8023 H   0  0  0  0  0  0  0  0  0  0  0  0
  141.8062    4.4309   -0.8034 H   0  0  0  0  0  0  0  0  0  0  0  0
  139.9128    2.5342   -0.4624 H   0  0  0  0  0  0  0  0  0  0  0  0
  140.0246   -2.7145    0.4776 H   0  0  0  0  0  0  0  0  0  0  0  0
  141.9800   -4.5208    0.8053 H   0  0  0  0  0  0  0  0  0  0  0  0
  143.7346   -0.7392    0.1285 H   0  0  0  0  0  0  0  0  0  0  0  0
  144.6336   -4.4111    0.7909 H   0  0  0  0  0  0  0  0  0  0  0  0
  147.2367   -4.4059    0.7957 H   0  0  0  0  0  0  0  0  0  0  0  0
  149.1202   -2.4980    0.4547 H   0  0  0  0  0  0  0  0  0  0  0  0
   37.1692    0.0620   -0.0052 C   0  0  0  0  0  0  0  0  0  0  0  0
   38.3941    0.0728   -0.0016 C   0  0  0  0  0  0  0  0  0  0  0  0
   39.7358    0.0806   -0.0000 C   0  0  0  0  0  0  0  0  0  0  0  0
   40.9666    0.0808    0.0004 C   0  0  0  0  0  0  0  0  0  0  0  0
   42.3036    0.0789   -0.0001 C   0  0  0  0  0  0  0  0  0  0  0  0
   43.5347    0.0748    0.0005 C   0  0  0  0  0  0  0  0  0  0  0  0
   44.8762    0.0703   -0.0012 C   0  0  0  0  0  0  0  0  0  0  0  0
   46.1013    0.0572   -0.0015 C   0  0  0  0  0  0  0  0  0  0  0  0
   55.8817   -0.0153   -0.0052 C   0  0  0  0  0  0  0  0  0  0  0  0
   57.1069   -0.0171   -0.0055 C   0  0  0  0  0  0  0  0  0  0  0  0
   58.4479   -0.0157   -0.0047 C   0  0  0  0  0  0  0  0  0  0  0  0
   59.6792   -0.0120   -0.0057 C   0  0  0  0  0  0  0  0  0  0  0  0
   61.0156   -0.0074   -0.0065 C   0  0  0  0  0  0  0  0  0  0  0  0
   62.2468   -0.0024   -0.0058 C   0  0  0  0  0  0  0  0  0  0  0  0
   63.5878    0.0020   -0.0045 C   0  0  0  0  0  0  0  0  0  0  0  0
   64.8130    0.0038   -0.0046 C   0  0  0  0  0  0  0  0  0  0  0  0
   74.5878   -0.0222   -0.0041 C   0  0  0  0  0  0  0  0  0  0  0  0
   75.8129   -0.0199   -0.0056 C   0  0  0  0  0  0  0  0  0  0  0  0
   77.1538   -0.0136   -0.0065 C   0  0  0  0  0  0  0  0  0  0  0  0
   78.3849   -0.0047   -0.0069 C   0  0  0  0  0  0  0  0  0  0  0  0
   79.7212    0.0034   -0.0073 C   0  0  0  0  0  0  0  0  0  0  0  0
   80.9523    0.0114   -0.0074 C   0  0  0  0  0  0  0  0  0  0  0  0
   82.2933    0.0165   -0.0087 C   0  0  0  0  0  0  0  0  0  0  0  0
   83.5184    0.0169   -0.0082 C   0  0  0  0  0  0  0  0  0  0  0  0
   93.2907   -0.0279   -0.0007 C   0  0  0  0  0  0  0  0  0  0  0  0
   94.5158   -0.0262   -0.0009 C   0  0  0  0  0  0  0  0  0  0  0  0
   95.8567   -0.0202   -0.0016 C   0  0  0  0  0  0  0  0  0  0  0  0
   97.0878   -0.0125   -0.0021 C   0  0  0  0  0  0  0  0  0  0  0  0
   98.4241   -0.0044   -0.0030 C   0  0  0  0  0  0  0  0  0  0  0  0
   99.6553    0.0038   -0.0023 C   0  0  0  0  0  0  0  0  0  0  0  0
  100.9962    0.0106   -0.0049 C   0  0  0  0  0  0  0  0  0  0  0  0
  102.2213    0.0144   -0.0037 C   0  0  0  0  0  0  0  0  0  0  0  0
  111.9960   -0.0131   -0.0030 C   0  0  0  0  0  0  0  0  0  0  0  0
  113.2212   -0.0122   -0.0021 C   0  0  0  0  0  0  0  0  0  0  0  0
  114.5622   -0.0082   -0.0038 C   0  0  0  0  0  0  0  0  0  0  0  0
  115.7934    0.0003   -0.0067 C   0  0  0  0  0  0  0  0  0  0  0  0
  117.1299    0.0049   -0.0062 C   0  0  0  0  0  0  0  0  0  0  0  0
  118.3610    0.0094   -0.0039 C   0  0  0  0  0  0  0  0  0  0  0  0
  119.7021    0.0121   -0.0034 C   0  0  0  0  0  0  0  0  0  0  0  0
  120.9273    0.0093   -0.0035 C   0  0  0  0  0  0  0  0  0  0  0  0
  130.7076   -0.0659    0.0047 C   0  0  0  0  0  0  0  0  0  0  0  0
  131.9326   -0.0761    0.0048 C   0  0  0  0  0  0  0  0  0  0  0  0
  133.2741   -0.0818    0.0064 C   0  0  0  0  0  0  0  0  0  0  0  0
  134.5052   -0.0866    0.0073 C   0  0  0  0  0  0  0  0  0  0  0  0
  135.8422   -0.0890    0.0057 C   0  0  0  0  0  0  0  0  0  0  0  0
  137.0733   -0.0861    0.0051 C   0  0  0  0  0  0  0  0  0  0  0  0
  138.4150   -0.0782    0.0069 C   0  0  0  0  0  0  0  0  0  0  0  0
  139.6399   -0.0672    0.0040 C   0  0  0  0  0  0  0  0  0  0  0  0
   47.5037    0.0511   -0.0016 C   0  0  0  0  0  0  0  0  0  0  0  0
   48.1501    1.3026   -0.0154 C   0  0  0  0  0  0  0  0  0  0  0  0
   47.5408    2.5852   -0.0295 C   0  0  0  0  0  0  0  0  0  0  0  0
   48.5375    3.5229   -0.0406 C   0  0  0  0  0  0  0  0  0  0  0  0
   49.7830    2.8374   -0.0336 C   0  0  0  0  0  0  0  0  0  0  0  0
   49.4975    1.4995   -0.0183 N   0  0  0  0  0  0  0  0  0  0  0  0
   51.0512    3.4085   -0.0411 C   0  0  0  0  0  0  0  0  0  0  0  0
   52.2760    2.7596   -0.0346 C   0  0  0  0  0  0  0  0  0  0  0  0
   53.5479    3.4604   -0.0438 C   0  0  0  0  0  0  0  0  0  0  0  0
   54.5063    2.5109   -0.0336 C   0  0  0  0  0  0  0  0  0  0  0  0
   52.4816    1.4140   -0.0192 N   0  0  0  0  0  0  0  0  0  0  0  0
   53.8156    1.2343   -0.0181 C   0  0  0  0  0  0  0  0  0  0  0  0
   54.4798   -0.0102   -0.0039 C   0  0  0  0  0  0  0  0  0  0  0  0
   53.8338   -1.2618    0.0112 C   0  0  0  0  0  0  0  0  0  0  0  0
   54.4433   -2.5443    0.0260 C   0  0  0  0  0  0  0  0  0  0  0  0
   53.4467   -3.4821    0.0376 C   0  0  0  0  0  0  0  0  0  0  0  0
   52.2010   -2.7966    0.0300 C   0  0  0  0  0  0  0  0  0  0  0  0
   52.4865   -1.4586    0.0141 N   0  0  0  0  0  0  0  0  0  0  0  0
   50.9329   -3.3673    0.0370 C   0  0  0  0  0  0  0  0  0  0  0  0
   49.7079   -2.7182    0.0296 C   0  0  0  0  0  0  0  0  0  0  0  0
   48.4362   -3.4191    0.0378 C   0  0  0  0  0  0  0  0  0  0  0  0
   47.4776   -2.4698    0.0269 C   0  0  0  0  0  0  0  0  0  0  0  0
   48.1679   -1.1932    0.0122 C   0  0  0  0  0  0  0  0  0  0  0  0
   49.5023   -1.3728    0.0142 N   0  0  0  0  0  0  0  0  0  0  0  0
   46.4764    2.7568   -0.0308 H   0  0  0  0  0  0  0  0  0  0  0  0
   48.4299    4.5958   -0.0526 H   0  0  0  0  0  0  0  0  0  0  0  0
   50.1874    0.7555   -0.0104 H   0  0  0  0  0  0  0  0  0  0  0  0
   51.0741    4.4937   -0.0535 H   0  0  0  0  0  0  0  0  0  0  0  0
   53.6585    4.5333   -0.0563 H   0  0  0  0  0  0  0  0  0  0  0  0
   55.5779    2.6317   -0.0358 H   0  0  0  0  0  0  0  0  0  0  0  0
   55.5077   -2.7157    0.0276 H   0  0  0  0  0  0  0  0  0  0  0  0
   53.5545   -4.5549    0.0503 H   0  0  0  0  0  0  0  0  0  0  0  0
   51.7966   -0.7146    0.0056 H   0  0  0  0  0  0  0  0  0  0  0  0
   50.9098   -4.4525    0.0497 H   0  0  0  0  0  0  0  0  0  0  0  0
   48.3259   -4.4921    0.0502 H   0  0  0  0  0  0  0  0  0  0  0  0
   46.4060   -2.5907    0.0285 H   0  0  0  0  0  0  0  0  0  0  0  0
   66.2150    0.0047   -0.0029 C   0  0  0  0  0  0  0  0  0  0  0  0
   66.8545    1.2596   -0.0182 C   0  0  0  0  0  0  0  0  0  0  0  0
   66.2377    2.5386   -0.0344 C   0  0  0  0  0  0  0  0  0  0  0  0
   67.2290    3.4821   -0.0452 C   0  0  0  0  0  0  0  0  0  0  0  0
   68.4784    2.8037   -0.0361 C   0  0  0  0  0  0  0  0  0  0  0  0
   68.2007    1.4642   -0.0199 N   0  0  0  0  0  0  0  0  0  0  0  0
   69.7434    3.3814   -0.0426 C   0  0  0  0  0  0  0  0  0  0  0  0
   70.9710    2.7377   -0.0347 C   0  0  0  0  0  0  0  0  0  0  0  0
   72.2400    3.4435   -0.0435 C   0  0  0  0  0  0  0  0  0  0  0  0
   73.2021    2.4978   -0.0325 C   0  0  0  0  0  0  0  0  0  0  0  0
   71.1817    1.3930   -0.0185 N   0  0  0  0  0  0  0  0  0  0  0  0
   72.5164    1.2185   -0.0168 C   0  0  0  0  0  0  0  0  0  0  0  0
   73.1859   -0.0232   -0.0018 C   0  0  0  0  0  0  0  0  0  0  0  0
   72.5466   -1.2781    0.0144 C   0  0  0  0  0  0  0  0  0  0  0  0
   73.1635   -2.5570    0.0307 C   0  0  0  0  0  0  0  0  0  0  0  0
   72.1723   -3.5006    0.0433 C   0  0  0  0  0  0  0  0  0  0  0  0
   70.9228   -2.8222    0.0349 C   0  0  0  0  0  0  0  0  0  0  0  0
   71.2005   -1.4827    0.0175 N   0  0  0  0  0  0  0  0  0  0  0  0
   69.6578   -3.3997    0.0424 C   0  0  0  0  0  0  0  0  0  0  0  0
   68.4302   -2.7559    0.0337 C   0  0  0  0  0  0  0  0  0  0  0  0
   67.1613   -3.4618    0.0421 C   0  0  0  0  0  0  0  0  0  0  0  0
   66.1990   -2.5162    0.0292 C   0  0  0  0  0  0  0  0  0  0  0  0
   66.8845   -1.2368    0.0132 C   0  0  0  0  0  0  0  0  0  0  0  0
   68.2194   -1.4112    0.0161 N   0  0  0  0  0  0  0  0  0  0  0  0
   65.1723    2.7040   -0.0371 H   0  0  0  0  0  0  0  0  0  0  0  0
   67.1151    4.5543   -0.0583 H   0  0  0  0  0  0  0  0  0  0  0  0
   68.8951    0.7245   -0.0105 H   0  0  0  0  0  0  0  0  0  0  0  0
   69.7612    4.4666   -0.0557 H   0  0  0  0  0  0  0  0  0  0  0  0
   72.3463    4.5169   -0.0563 H   0  0  0  0  0  0  0  0  0  0  0  0
   74.2733    2.6228   -0.0343 H   0  0  0  0  0  0  0  0  0  0  0  0
   74.2289   -2.7223    0.0324 H   0  0  0  0  0  0  0  0  0  0  0  0
   72.2863   -4.5727    0.0572 H   0  0  0  0  0  0  0  0  0  0  0  0
   70.5060   -0.7430    0.0082 H   0  0  0  0  0  0  0  0  0  0  0  0
   69.6398   -4.4849    0.0565 H   0  0  0  0  0  0  0  0  0  0  0  0
   67.0551   -4.5352    0.0560 H   0  0  0  0  0  0  0  0  0  0  0  0
   65.1279   -2.6412    0.0301 H   0  0  0  0  0  0  0  0  0  0  0  0
   84.9203    0.0156   -0.0064 C   0  0  0  0  0  0  0  0  0  0  0  0
   85.5619    1.2693   -0.0213 C   0  0  0  0  0  0  0  0  0  0  0  0
   84.9471    2.5493   -0.0376 C   0  0  0  0  0  0  0  0  0  0  0  0
   85.9397    3.4913   -0.0482 C   0  0  0  0  0  0  0  0  0  0  0  0
   87.1881    2.8109   -0.0387 C   0  0  0  0  0  0  0  0  0  0  0  0
   86.9083    1.4718   -0.0224 N   0  0  0  0  0  0  0  0  0  0  0  0
   88.4541    3.3861   -0.0446 C   0  0  0  0  0  0  0  0  0  0  0  0
   89.6802    2.7396   -0.0358 C   0  0  0  0  0  0  0  0  0  0  0  0
   90.9509    3.4424   -0.0437 C   0  0  0  0  0  0  0  0  0  0  0  0
   91.9107    2.4945   -0.0318 C   0  0  0  0  0  0  0  0  0  0  0  0
   89.8877    1.3944   -0.0193 N   0  0  0  0  0  0  0  0  0  0  0  0
   91.2220    1.2168   -0.0167 C   0  0  0  0  0  0  0  0  0  0  0  0
   91.8888   -0.0264   -0.0014 C   0  0  0  0  0  0  0  0  0  0  0  0
   91.2472   -1.2801    0.0143 C   0  0  0  0  0  0  0  0  0  0  0  0
   91.8620   -2.5601    0.0309 C   0  0  0  0  0  0  0  0  0  0  0  0
   90.8693   -3.5020    0.0424 C   0  0  0  0  0  0  0  0  0  0  0  0
   89.6210   -2.8217    0.0333 C   0  0  0  0  0  0  0  0  0  0  0  0
   89.9008   -1.4825    0.0165 N   0  0  0  0  0  0  0  0  0  0  0  0
   88.3549   -3.3968    0.0397 C   0  0  0  0  0  0  0  0  0  0  0  0
   87.1288   -2.7504    0.0305 C   0  0  0  0  0  0  0  0  0  0  0  0
   85.8582   -3.4532    0.0382 C   0  0  0  0  0  0  0  0  0  0  0  0
   84.8983   -2.5052    0.0253 C   0  0  0  0  0  0  0  0  0  0  0  0
   85.5870   -1.2275    0.0098 C   0  0  0  0  0  0  0  0  0  0  0  0
   86.9213   -1.4051    0.0134 N   0  0  0  0  0  0  0  0  0  0  0  0
   83.8819    2.7163   -0.0407 H   0  0  0  0  0  0  0  0  0  0  0  0
   85.8275    4.5637   -0.0615 H   0  0  0  0  0  0  0  0  0  0  0  0
   87.6017    0.7312   -0.0127 H   0  0  0  0  0  0  0  0  0  0  0  0
   88.4743    4.4713   -0.0579 H   0  0  0  0  0  0  0  0  0  0  0  0
   91.0597    4.5155   -0.0568 H   0  0  0  0  0  0  0  0  0  0  0  0
   92.9822    2.6169   -0.0328 H   0  0  0  0  0  0  0  0  0  0  0  0
   92.9272   -2.7270    0.0335 H   0  0  0  0  0  0  0  0  0  0  0  0
   90.9815   -4.5744    0.0560 H   0  0  0  0  0  0  0  0  0  0  0  0
   89.2073   -0.7419    0.0067 H   0  0  0  0  0  0  0  0  0  0  0  0
   88.3348   -4.4820    0.0533 H   0  0  0  0  0  0  0  0  0  0  0  0
   85.7493   -4.5263    0.0516 H   0  0  0  0  0  0  0  0  0  0  0  0
   83.8269   -2.6276    0.0258 H   0  0  0  0  0  0  0  0  0  0  0  0
  103.6232    0.0156   -0.0042 C   0  0  0  0  0  0  0  0  0  0  0  0
  104.2626    1.2705   -0.0198 C   0  0  0  0  0  0  0  0  0  0  0  0
  103.6459    2.5496   -0.0357 C   0  0  0  0  0  0  0  0  0  0  0  0
  104.6372    3.4929   -0.0475 C   0  0  0  0  0  0  0  0  0  0  0  0
  105.8866    2.8145   -0.0389 C   0  0  0  0  0  0  0  0  0  0  0  0
  105.6087    1.4749   -0.0223 N   0  0  0  0  0  0  0  0  0  0  0  0
  107.1517    3.3917   -0.0460 C   0  0  0  0  0  0  0  0  0  0  0  0
  108.3792    2.7477   -0.0381 C   0  0  0  0  0  0  0  0  0  0  0  0
  109.6483    3.4534   -0.0468 C   0  0  0  0  0  0  0  0  0  0  0  0
  110.6104    2.5076   -0.0353 C   0  0  0  0  0  0  0  0  0  0  0  0
  108.5898    1.4030   -0.0215 N   0  0  0  0  0  0  0  0  0  0  0  0
  109.9247    1.2284   -0.0193 C   0  0  0  0  0  0  0  0  0  0  0  0
  110.5940   -0.0133   -0.0037 C   0  0  0  0  0  0  0  0  0  0  0  0
  109.9543   -1.2681    0.0120 C   0  0  0  0  0  0  0  0  0  0  0  0
  110.5709   -2.5472    0.0281 C   0  0  0  0  0  0  0  0  0  0  0  0
  109.5795   -3.4905    0.0402 C   0  0  0  0  0  0  0  0  0  0  0  0
  108.3302   -2.8119    0.0316 C   0  0  0  0  0  0  0  0  0  0  0  0
  108.6081   -1.4725    0.0146 N   0  0  0  0  0  0  0  0  0  0  0  0
  107.0651   -3.3894    0.0389 C   0  0  0  0  0  0  0  0  0  0  0  0
  105.8377   -2.7455    0.0308 C   0  0  0  0  0  0  0  0  0  0  0  0
  104.5686   -3.4511    0.0395 C   0  0  0  0  0  0  0  0  0  0  0  0
  103.6066   -2.5053    0.0276 C   0  0  0  0  0  0  0  0  0  0  0  0
  104.2925   -1.2261    0.0114 C   0  0  0  0  0  0  0  0  0  0  0  0
  105.6272   -1.4007    0.0138 N   0  0  0  0  0  0  0  0  0  0  0  0
  102.5805    2.7149   -0.0379 H   0  0  0  0  0  0  0  0  0  0  0  0
  104.5234    4.5651   -0.0609 H   0  0  0  0  0  0  0  0  0  0  0  0
  106.3031    0.7351   -0.0130 H   0  0  0  0  0  0  0  0  0  0  0  0
  107.1698    4.4769   -0.0595 H   0  0  0  0  0  0  0  0  0  0  0  0
  109.7546    4.5268   -0.0600 H   0  0  0  0  0  0  0  0  0  0  0  0
  111.6815    2.6325   -0.0368 H   0  0  0  0  0  0  0  0  0  0  0  0
  111.6363   -2.7127    0.0302 H   0  0  0  0  0  0  0  0  0  0  0  0
  109.6932   -4.5627    0.0538 H   0  0  0  0  0  0  0  0  0  0  0  0
  107.9138   -0.7326    0.0053 H   0  0  0  0  0  0  0  0  0  0  0  0
  107.0471   -4.4746    0.0527 H   0  0  0  0  0  0  0  0  0  0  0  0
  104.4620   -4.5245    0.0530 H   0  0  0  0  0  0  0  0  0  0  0  0
  102.5354   -2.6301    0.0291 H   0  0  0  0  0  0  0  0  0  0  0  0
  122.3292    0.0033   -0.0037 C   0  0  0  0  0  0  0  0  0  0  0  0
  122.9756    1.2546   -0.0210 C   0  0  0  0  0  0  0  0  0  0  0  0
  122.3664    2.5372   -0.0394 C   0  0  0  0  0  0  0  0  0  0  0  0
  123.3632    3.4747   -0.0526 C   0  0  0  0  0  0  0  0  0  0  0  0
  124.6087    2.7890   -0.0424 C   0  0  0  0  0  0  0  0  0  0  0  0
  124.3229    1.4511   -0.0232 N   0  0  0  0  0  0  0  0  0  0  0  0
  125.8769    3.3593   -0.0507 C   0  0  0  0  0  0  0  0  0  0  0  0
  127.1017    2.7098   -0.0410 C   0  0  0  0  0  0  0  0  0  0  0  0
  128.3735    3.4105   -0.0516 C   0  0  0  0  0  0  0  0  0  0  0  0
  129.3319    2.4610   -0.0371 C   0  0  0  0  0  0  0  0  0  0  0  0
  127.3069    1.3645   -0.0207 N   0  0  0  0  0  0  0  0  0  0  0  0
  128.6413    1.1845   -0.0177 C   0  0  0  0  0  0  0  0  0  0  0  0
  129.3052   -0.0598    0.0026 C   0  0  0  0  0  0  0  0  0  0  0  0
  128.6586   -1.3111    0.0225 C   0  0  0  0  0  0  0  0  0  0  0  0
  129.2675   -2.5937    0.0432 C   0  0  0  0  0  0  0  0  0  0  0  0
  128.2706   -3.5312    0.0562 C   0  0  0  0  0  0  0  0  0  0  0  0
  127.0252   -2.8454    0.0440 C   0  0  0  0  0  0  0  0  0  0  0  0
  127.3111   -1.5077    0.0239 N   0  0  0  0  0  0  0  0  0  0  0  0
  125.7570   -3.4161    0.0505 C   0  0  0  0  0  0  0  0  0  0  0  0
  124.5323   -2.7670    0.0389 C   0  0  0  0  0  0  0  0  0  0  0  0
  123.2602   -3.4675    0.0474 C   0  0  0  0  0  0  0  0  0  0  0  0
  122.3020   -2.5178    0.0325 C   0  0  0  0  0  0  0  0  0  0  0  0
  122.9931   -1.2414    0.0148 C   0  0  0  0  0  0  0  0  0  0  0  0
  124.3270   -1.4215    0.0191 N   0  0  0  0  0  0  0  0  0  0  0  0
  121.3019    2.7089   -0.0421 H   0  0  0  0  0  0  0  0  0  0  0  0
  123.2556    4.5475   -0.0680 H   0  0  0  0  0  0  0  0  0  0  0  0
  125.0126    0.7069   -0.0123 H   0  0  0  0  0  0  0  0  0  0  0  0
  125.9004    4.4444   -0.0667 H   0  0  0  0  0  0  0  0  0  0  0  0
  128.4842    4.4834   -0.0679 H   0  0  0  0  0  0  0  0  0  0  0  0
  130.4036    2.5816   -0.0388 H   0  0  0  0  0  0  0  0  0  0  0  0
  130.3319   -2.7655    0.0471 H   0  0  0  0  0  0  0  0  0  0  0  0
  128.3779   -4.6040    0.0727 H   0  0  0  0  0  0  0  0  0  0  0  0
  126.6214   -0.7635    0.0114 H   0  0  0  0  0  0  0  0  0  0  0  0
  125.7338   -4.5013    0.0665 H   0  0  0  0  0  0  0  0  0  0  0  0
  123.1494   -4.5404    0.0627 H   0  0  0  0  0  0  0  0  0  0  0  0
  121.2304   -2.6383    0.0328 H   0  0  0  0  0  0  0  0  0  0  0  0
  1  2  4  0  0  0  0
  2  3  4  0  0  0  0
  3  4  2  0  0  0  0
  4  5  4  0  0  0  0
  2  6  4  0  0  0  0
  5  6  4  0  0  0  0
  5  7  4  0  0  0  0
  7  8  4  0  0  0  0
  8  9  1  0  0  0  0
  9 10  2  0  0  0  0
  8 11  4  0  0  0  0
 10 12  1  0  0  0  0
 11 12  4  0  0  0  0
 12 13  4  0  0  0  0
 13 14  4  0  0  0  0
 14 15  4  0  0  0  0
 15 16  2  0  0  0  0
 16 17  4  0  0  0  0
 14 18  4  0  0  0  0
 17 18  4  0  0  0  0
 17 19  4  0  0  0  0
 19 20  4  0  0  0  0
 20 21  1  0  0  0  0
 21 22  2  0  0  0  0
  1 23  4  0  0  0  0
 22 23  1  0  0  0  0
 20 24  4  0  0  0  0
 23 24  4  0  0  0  0
  1 25  1  0  0  0  0
  3 26  1  0  0  0  0
  4 27  1  0  0  0  0
  6 28  1  0  0  0  0
  7 29  1  0  0  0  0
  9 30  1  0  0  0  0
 10 31  1  0  0  0  0
 15 32  1  0  0  0  0
 16 33  1  0  0  0  0
 18 34  1  0  0  0  0
 19 35  1  0  0  0  0
 21 36  1  0  0  0  0
 22 37  1  0  0  0  0
 38 39  4  0  0  0  0
 39 40  4  0  0  0  0
 40 41  2  0  0  0  0
 41 42  4  0  0  0  0
 39 43  4  0  0  0  0
 42 43  4  0  0  0  0
 42 44  4  0  0  0  0
 44 45  4  0  0  0  0
 45 46  1  0  0  0  0
 46 47  2  0  0  0  0
 45 48  4  0  0  0  0
 47 49  1  0  0  0  0
 48 49  4  0  0  0  0
 49 50  4  0  0  0  0
 50 51  4  0  0  0  0
 51 52  4  0  0  0  0
 52 53  2  0  0  0  0
 53 54  4  0  0  0  0
 51 55  4  0  0  0  0
 54 55  4  0  0  0  0
 54 56  4  0  0  0  0
 56 57  4  0  0  0  0
 57 58  1  0  0  0  0
 58 59  2  0  0  0  0
 38 60  4  0  0  0  0
 59 60  1  0  0  0  0
 57 61  4  0  0  0  0
 60 61  4  0  0  0  0
 38 62  1  0  0  0  0
 40 63  1  0  0  0  0
 41 64  1  0  0  0  0
 43 65  1  0  0  0  0
 44 66  1  0  0  0  0
 46 67  1  0  0  0  0
 47 68  1  0  0  0  0
 52 69  1  0  0  0  0
 53 70  1  0  0  0  0
 55 71  1  0  0  0  0
 56 72  1  0  0  0  0
 58 73  1  0  0  0  0
 59 74  1  0  0  0  0
 13 75  4  0  0  0  0
 75 76  3  0  0  0  0
 76 77  4  0  0  0  0
 77 78  3  0  0  0  0
 78 79  4  0  0  0  0
 79 80  3  0  0  0  0
 80 81  4  0  0  0  0
 81 82  3  0  0  0  0
 83 84  3  0  0  0  0
 84 85  4  0  0  0  0
 85 86  3  0  0  0  0
 86 87  4  0  0  0  0
 87 88  3  0  0  0  0
 88 89  4  0  0  0  0
 89 90  3  0  0  0  0
 91 92  3  0  0  0  0
 92 93  4  0  0  0  0
 93 94  3  0  0  0  0
 94 95  4  0  0  0  0
 95 96  3  0  0  0  0
 96 97  4  0  0  0  0
 97 98  3  0  0  0  0
 99100  3  0  0  0  0
100101  4  0  0  0  0
101102  3  0  0  0  0
102103  4  0  0  0  0
103104  3  0  0  0  0
104105  4  0  0  0  0
105106  3  0  0  0  0
107108  3  0  0  0  0
108109  4  0  0  0  0
109110  3  0  0  0  0
110111  4  0  0  0  0
111112  3  0  0  0  0
112113  4  0  0  0  0
113114  3  0  0  0  0
115116  3  0  0  0  0
116117  4  0  0  0  0
117118  3  0  0  0  0
118119  4  0  0  0  0
119120  3  0  0  0  0
120121  4  0  0  0  0
 50122  4  0  0  0  0
121122  3  0  0  0  0
 82123  4  0  0  0  0
123124  4  0  0  0  0
124125  4  0  0  0  0
125126  2  0  0  0  0
126127  4  0  0  0  0
124128  4  0  0  0  0
127128  4  0  0  0  0
127129  4  0  0  0  0
129130  4  0  0  0  0
130131  1  0  0  0  0
131132  2  0  0  0  0
130133  4  0  0  0  0
132134  1  0  0  0  0
133134  4  0  0  0  0
 83135  4  0  0  0  0
134135  4  0  0  0  0
135136  4  0  0  0  0
136137  4  0  0  0  0
137138  2  0  0  0  0
138139  4  0  0  0  0
136140  4  0  0  0  0
139140  4  0  0  0  0
139141  4  0  0  0  0
141142  4  0  0  0  0
142143  1  0  0  0  0
143144  2  0  0  0  0
123145  4  0  0  0  0
144145  1  0  0  0  0
142146  4  0  0  0  0
145146  4  0  0  0  0
125147  1  0  0  0  0
126148  1  0  0  0  0
128149  1  0  0  0  0
129150  1  0  0  0  0
131151  1  0  0  0  0
132152  1  0  0  0  0
137153  1  0  0  0  0
138154  1  0  0  0  0
140155  1  0  0  0  0
141156  1  0  0  0  0
143157  1  0  0  0  0
144158  1  0  0  0  0
 90159  4  0  0  0  0
159160  4  0  0  0  0
160161  4  0  0  0  0
161162  2  0  0  0  0
162163  4  0  0  0  0
160164  4  0  0  0  0
163164  4  0  0  0  0
163165  4  0  0  0  0
165166  4  0  0  0  0
166167  1  0  0  0  0
167168  2  0  0  0  0
166169  4  0  0  0  0
168170  1  0  0  0  0
169170  4  0  0  0  0
 91171  4  0  0  0  0
170171  4  0  0  0  0
171172  4  0  0  0  0
172173  4  0  0  0  0
173174  2  0  0  0  0
174175  4  0  0  0  0
172176  4  0  0  0  0
175176  4  0  0  0  0
175177  4  0  0  0  0
177178  4  0  0  0  0
178179  1  0  0  0  0
179180  2  0  0  0  0
159181  4  0  0  0  0
180181  1  0  0  0  0
178182  4  0  0  0  0
181182  4  0  0  0  0
161183  1  0  0  0  0
162184  1  0  0  0  0
164185  1  0  0  0  0
165186  1  0  0  0  0
167187  1  0  0  0  0
168188  1  0  0  0  0
173189  1  0  0  0  0
174190  1  0  0  0  0
176191  1  0  0  0  0
177192  1  0  0  0  0
179193  1  0  0  0  0
180194  1  0  0  0  0
 98195  4  0  0  0  0
195196  4  0  0  0  0
196197  4  0  0  0  0
197198  2  0  0  0  0
198199  4  0  0  0  0
196200  4  0  0  0  0
199200  4  0  0  0  0
199201  4  0  0  0  0
201202  4  0  0  0  0
202203  1  0  0  0  0
203204  2  0  0  0  0
202205  4  0  0  0  0
204206  1  0  0  0  0
205206  4  0  0  0  0
 99207  4  0  0  0  0
206207  4  0  0  0  0
207208  4  0  0  0  0
208209  4  0  0  0  0
209210  2  0  0  0  0
210211  4  0  0  0  0
208212  4  0  0  0  0
211212  4  0  0  0  0
211213  4  0  0  0  0
213214  4  0  0  0  0
214215  1  0  0  0  0
215216  2  0  0  0  0
195217  4  0  0  0  0
216217  1  0  0  0  0
214218  4  0  0  0  0
217218  4  0  0  0  0
197219  1  0  0  0  0
198220  1  0  0  0  0
200221  1  0  0  0  0
201222  1  0  0  0  0
203223  1  0  0  0  0
204224  1  0  0  0  0
209225  1  0  0  0  0
210226  1  0  0  0  0
212227  1  0  0  0  0
213228  1  0  0  0  0
215229  1  0  0  0  0
216230  1  0  0  0  0
106231  4  0  0  0  0
231232  4  0  0  0  0
232233  4  0  0  0  0
233234  2  0  0  0  0
234235  4  0  0  0  0
232236  4  0  0  0  0
235236  4  0  0  0  0
235237  4  0  0  0  0
237238  4  0  0  0  0
238239  1  0  0  0  0
239240  2  0  0  0  0
238241  4  0  0  0  0
240242  1  0  0  0  0
241242  4  0  0  0  0
107243  4  0  0  0  0
242243  4  0  0  0  0
243244  4  0  0  0  0
244245  4  0  0  0  0
245246  2  0  0  0  0
246247  4  0  0  0  0
244248  4  0  0  0  0
247248  4  0  0  0  0
247249  4  0  0  0  0
249250  4  0  0  0  0
250251  1  0  0  0  0
251252  2  0  0  0  0
231253  4  0  0  0  0
252253  1  0  0  0  0
250254  4  0  0  0  0
253254  4  0  0  0  0
233255  1  0  0  0  0
234256  1  0  0  0  0
236257  1  0  0  0  0
237258  1  0  0  0  0
239259  1  0  0  0  0
240260  1  0  0  0  0
245261  1  0  0  0  0
246262  1  0  0  0  0
248263  1  0  0  0  0
249264  1  0  0  0  0
251265  1  0  0  0  0
252266  1  0  0  0  0
114267  4  0  0  0  0
267268  4  0  0  0  0
268269  4  0  0  0  0
269270  2  0  0  0  0
270271  4  0  0  0  0
268272  4  0  0  0  0
271272  4  0  0  0  0
271273  4  0  0  0  0
273274  4  0  0  0  0
274275  1  0  0  0  0
275276  2  0  0  0  0
274277  4  0  0  0  0
276278  1  0  0  0  0
277278  4  0  0  0  0
115279  4  0  0  0  0
278279  4  0  0  0  0
279280  4  0  0  0  0
280281  4  0  0  0  0
281282  2  0  0  0  0
282283  4  0  0  0  0
280284  4  0  0  0  0
283284  4  0  0  0  0
283285  4  0  0  0  0
285286  4  0  0  0  0
286287  1  0  0  0  0
287288  2  0  0  0  0
267289  4  0  0  0  0
288289  1  0  0  0  0
286290  4  0  0  0  0
289290  4  0  0  0  0
269291  1  0  0  0  0
270292  1  0  0  0  0
272293  1  0  0  0  0
273294  1  0  0  0  0
275295  1  0  0  0  0
276296  1  0  0  0  0
281297  1  0  0  0  0
282298  1  0  0  0  0
284299  1  0  0  0  0
285300  1  0  0  0  0
287301  1  0  0  0  0
288302  1  0  0  0  0
M  END
