176

C 19.627896 -0.016790 -0.014279
C 20.355851 1.358817 0.081697
C 19.748096 2.593343 0.063247
C 20.770455 3.562375 0.235486
C 21.967666 2.884698 0.361432
N 21.708393 1.545379 0.212070
C 23.389223 3.521311 0.653407
C 23.425997 4.935827 1.085949
C 23.713372 5.947602 0.171294
C 23.724915 7.255087 0.625012
N 23.470863 7.619587 1.903897
C 23.196659 6.611077 2.764913
C 23.161243 5.273304 2.411638
C 24.520433 2.772832 0.554393
C 25.824773 3.309963 0.885101
C 26.727639 2.350566 0.719259
N 24.717289 1.469296 0.183198
C 26.048963 1.153997 0.262358
C 26.716886 -0.000823 -0.000354
C 25.937422 -1.279341 -0.524479
C 26.471973 -2.312370 -1.269145
C 25.446507 -3.269857 -1.469690
C 24.312302 -2.789627 -0.850376
N 24.606074 -1.553068 -0.326145
C 22.906398 -3.518449 -0.773023
C 22.881887 -4.989093 -0.917323
C 23.278505 -5.804173 0.140465
C 23.253217 -7.175683 -0.045451
N 22.868897 -7.782406 -1.193409
C 22.490961 -6.960431 -2.200335
C 22.481948 -5.579000 -2.115506
C 21.779989 -2.790974 -0.557710
C 20.460775 -3.390707 -0.458745
C 19.574347 -2.419416 -0.261190
C 20.293114 -1.169978 -0.213386
N 21.613188 -1.445264 -0.387588
H 18.551187 -0.030859 0.105682
H 18.689846 2.775217 -0.044575
H 20.641597 4.633017 0.287559
H 22.408647 0.807784 0.203299
H 23.925600 5.704573 -0.864285
H 23.947381 8.071161 -0.054586
H 22.997749 6.915010 3.787390
H 22.936745 4.500614 3.138996
H 26.038374 4.308591 1.222147
H 27.781256 2.466018 0.896945
H 27.490516 -2.379341 -1.620327
H 25.529049 -4.206023 -2.001075
H 23.926364 -0.921817 0.090055
H 23.595774 -5.366300 1.080727
H 23.553438 -7.844262 0.754743
H 22.183072 -7.457440 -3.114369
H 22.169320 -4.961708 -2.950962
H 20.231997 -4.438835 -0.528245
H 18.512287 -2.538260 -0.145242
C 60.295965 0.019750 -0.005420
C 59.568009 -1.247053 -0.550138
C 60.175764 -2.336033 -1.131959
C 59.153405 -3.276340 -1.422670
C 57.956194 -2.731604 -1.000331
N 58.215468 -1.472608 -0.519689
C 56.534637 -3.431247 -1.032352
C 56.497864 -4.886786 -1.295701
C 56.210489 -5.367286 -2.572181
C 56.198945 -6.737378 -2.767685
N 56.452998 -7.647138 -1.797764
C 56.727202 -7.144973 -0.570461
C 56.762617 -5.793959 -0.271797
C 55.403428 -2.720538 -0.777562
C 54.099087 -3.349486 -0.729589
C 53.196222 -2.420674 -0.437605
N 55.206572 -1.391751 -0.510509
C 53.874897 -1.147723 -0.295730
C 53.206974 -0.000823 -0.000354
C 53.986439 1.375767 0.119295
C 53.451887 2.635139 -0.069542
C 54.477353 3.578147 0.190718
C 55.611559 2.867598 0.521308
N 55.317787 1.528259 0.420972
C 57.017463 3.480055 0.923876
C 57.041974 4.853474 1.469165
C 56.645355 5.093564 2.782796
C 56.670643 6.397918 3.245686
N 57.054963 7.463036 2.503092
C 57.432899 7.193520 1.231516
C 57.441913 5.926646 0.674222
C 58.143872 2.734752 0.782090
C 59.463085 3.222558 1.144747
C 60.349513 2.268648 0.875506
C 59.630746 1.136068 0.345751
N 58.310673 1.460568 0.316977
H 61.372674 -0.022687 0.107663
H 61.234015 -2.448327 -1.311107
H 59.282264 -4.251936 -1.866740
H 57.515214 -0.812907 -0.189664
H 55.998260 -4.676944 -3.381450
H 55.976480 -7.151567 -3.745580
H 56.926112 -7.883455 0.199265
H 56.987116 -5.440211 0.728684
H 53.885487 -4.391585 -0.887349
H 52.142604 -2.604687 -0.332529
H 52.433344 2.855516 -0.351052
H 54.394812 4.653729 0.147114
H 55.997497 0.776487 0.501836
H 56.328087 4.273673 3.418093
H 56.370423 6.625757 4.263230
H 57.740789 8.053969 0.646620
H 57.754541 5.760548 -0.351180
H 59.691863 4.186122 1.563014
H 61.411574 2.321190 1.033009
C 32.824684 0.000047 0.008200
C 31.615745 -0.013408 -0.000247
C 30.194216 -0.004588 -0.012230
C 28.982546 0.002850 -0.001367
C 34.241288 -0.006628 0.008734
C 35.461984 0.002850 -0.001367
C 48.306695 0.000047 0.008200
C 47.097756 -0.013408 -0.000247
C 45.676227 -0.004588 -0.012230
C 44.464557 0.002850 -0.001367
C 49.723299 -0.006628 0.008734
C 50.943995 0.002850 -0.001367
C 36.381977 0.001043 0.001024
C 37.177758 -1.244456 0.572135
C 36.677364 -2.239815 1.384655
C 37.715565 -3.185658 1.585399
C 38.819049 -2.734955 0.891821
N 38.503823 -1.517390 0.344510
C 40.207620 -3.480457 0.745836
C 40.200264 -4.957132 0.823936
C 40.617916 -5.608020 1.984082
C 40.576622 -6.991419 2.010012
N 40.152109 -7.759702 0.979413
C 39.752727 -7.094788 -0.130509
C 39.756053 -5.715972 -0.256407
C 41.343205 -2.771162 0.516608
C 42.630221 -3.407247 0.322710
C 43.538805 -2.459412 0.118724
N 41.551422 -1.425058 0.404929
C 42.876572 -1.172050 0.171590
C 43.540285 0.001043 0.001024
C 42.743165 1.367521 0.070035
C 43.236166 2.590892 0.473629
C 42.198328 3.542918 0.304056
C 41.102256 2.868609 -0.190758
N 41.420662 1.535570 -0.257404
C 39.717073 3.505590 -0.610853
C 39.728834 4.899144 -1.104143
C 39.332900 5.948387 -0.276935
C 39.375849 7.234869 -0.785396
N 39.781819 7.544918 -2.038501
C 40.160703 6.501779 -2.813858
C 40.154638 5.180914 -2.400203
C 38.580394 2.764023 -0.555411
C 37.294229 3.282577 -0.973516
C 36.384963 2.328280 -0.807324
C 37.046090 1.153331 -0.276598
N 38.370690 1.475014 -0.152488
H 35.673958 -2.292075 1.774473
H 37.658265 -4.099196 2.154853
H 39.162716 -0.892494 -0.112923
H 40.967684 -5.035461 2.836754
H 40.894168 -7.534388 2.893434
H 39.415454 -7.721074 -0.950313
H 39.425027 -5.230862 -1.167839
H 42.827409 -4.464497 0.330070
H 44.583811 -2.637680 -0.057640
H 44.235853 2.782928 0.831270
H 42.251084 4.602506 0.503570
H 40.766647 0.786482 -0.464591
H 38.998096 5.749903 0.735328
H 39.073763 8.078610 -0.173930
H 40.482770 6.762134 -3.816322
H 40.468840 4.379865 -3.060359
H 37.097988 4.266403 -1.361213
H 35.339877 2.429038 -1.036584
