 xtb: 6.5.1 (b24c23e)
          07272208023D

176196  0     0  0            999 V2000
   20.5712    0.0796    0.0015 C   0  0  0  0  0  0  0  0  0  0  0  0
   21.1863    1.3016    0.2413 C   0  0  0  0  0  0  0  0  0  0  0  0
   20.5409    2.5531    0.4485 C   0  0  0  0  0  0  0  0  0  0  0  0
   21.5074    3.4963    0.6565 C   0  0  0  0  0  0  0  0  0  0  0  0
   22.7746    2.8493    0.5923 C   0  0  0  0  0  0  0  0  0  0  0  0
   22.5302    1.5310    0.3316 N   0  0  0  0  0  0  0  0  0  0  0  0
   24.0407    3.4273    0.7374 C   0  0  0  0  0  0  0  0  0  0  0  0
   24.0794    4.8786    1.0351 C   0  0  0  0  0  0  0  0  0  0  0  0
   24.6980    5.7788    0.1680 C   0  0  0  0  0  0  0  0  0  0  0  0
   24.7058    7.1275    0.4861 C   0  0  0  0  0  0  0  0  0  0  0  0
   24.1503    7.6144    1.5913 N   0  0  0  0  0  0  0  0  0  0  0  0
   23.5610    6.7632    2.4246 C   0  0  0  0  0  0  0  0  0  0  0  0
   23.4973    5.3985    2.1907 C   0  0  0  0  0  0  0  0  0  0  0  0
   25.2532    2.7434    0.6224 C   0  0  0  0  0  0  0  0  0  0  0  0
   26.5527    3.3555    0.8337 C   0  0  0  0  0  0  0  0  0  0  0  0
   27.4688    2.3855    0.6346 C   0  0  0  0  0  0  0  0  0  0  0  0
   25.4014    1.4235    0.3227 N   0  0  0  0  0  0  0  0  0  0  0  0
   26.7275    1.1813    0.3128 C   0  0  0  0  0  0  0  0  0  0  0  0
   27.3590   -0.0482    0.0351 C   0  0  0  0  0  0  0  0  0  0  0  0
   26.7180   -1.2715   -0.2375 C   0  0  0  0  0  0  0  0  0  0  0  0
   27.3571   -2.5046   -0.5333 C   0  0  0  0  0  0  0  0  0  0  0  0
   26.3860   -3.4477   -0.7258 C   0  0  0  0  0  0  0  0  0  0  0  0
   25.1227   -2.8192   -0.5457 C   0  0  0  0  0  0  0  0  0  0  0  0
   25.3754   -1.5035   -0.2600 N   0  0  0  0  0  0  0  0  0  0  0  0
   23.8574   -3.4037   -0.6651 C   0  0  0  0  0  0  0  0  0  0  0  0
   23.8204   -4.8554   -0.9583 C   0  0  0  0  0  0  0  0  0  0  0  0
   24.3828   -5.7855   -0.0843 C   0  0  0  0  0  0  0  0  0  0  0  0
   24.3238   -7.1333   -0.4014 C   0  0  0  0  0  0  0  0  0  0  0  0
   23.7568   -7.5919   -1.5127 N   0  0  0  0  0  0  0  0  0  0  0  0
   23.2200   -6.7122   -2.3522 C   0  0  0  0  0  0  0  0  0  0  0  0
   23.2246   -5.3459   -2.1199 C   0  0  0  0  0  0  0  0  0  0  0  0
   22.6436   -2.7220   -0.5288 C   0  0  0  0  0  0  0  0  0  0  0  0
   21.3357   -3.3539   -0.6106 C   0  0  0  0  0  0  0  0  0  0  0  0
   20.4268   -2.3755   -0.4265 C   0  0  0  0  0  0  0  0  0  0  0  0
   21.1780   -1.1494   -0.2210 C   0  0  0  0  0  0  0  0  0  0  0  0
   22.5094   -1.3976   -0.2817 N   0  0  0  0  0  0  0  0  0  0  0  0
   19.4860    0.0963   -0.0091 H   0  0  0  0  0  0  0  0  0  0  0  0
   19.4728    2.7002    0.4322 H   0  0  0  0  0  0  0  0  0  0  0  0
   21.3617    4.5500    0.8309 H   0  0  0  0  0  0  0  0  0  0  0  0
   23.2521    0.8274    0.2172 H   0  0  0  0  0  0  0  0  0  0  0  0
   25.1528    5.4286   -0.7509 H   0  0  0  0  0  0  0  0  0  0  0  0
   25.1776    7.8478   -0.1757 H   0  0  0  0  0  0  0  0  0  0  0  0
   23.1198    7.1903    3.3205 H   0  0  0  0  0  0  0  0  0  0  0  0
   23.0178    4.7413    2.9064 H   0  0  0  0  0  0  0  0  0  0  0  0
   26.7193    4.3838    1.1106 H   0  0  0  0  0  0  0  0  0  0  0  0
   28.5429    2.4502    0.7022 H   0  0  0  0  0  0  0  0  0  0  0  0
   28.4247   -2.6414   -0.5943 H   0  0  0  0  0  0  0  0  0  0  0  0
   26.5287   -4.4851   -0.9806 H   0  0  0  0  0  0  0  0  0  0  0  0
   24.6562   -0.8062   -0.0982 H   0  0  0  0  0  0  0  0  0  0  0  0
   24.8441   -5.4592    0.8403 H   0  0  0  0  0  0  0  0  0  0  0  0
   24.7505   -7.8762    0.2662 H   0  0  0  0  0  0  0  0  0  0  0  0
   22.7667   -7.1170   -3.2523 H   0  0  0  0  0  0  0  0  0  0  0  0
   22.7867   -4.6651   -2.8401 H   0  0  0  0  0  0  0  0  0  0  0  0
   21.1622   -4.4053   -0.7741 H   0  0  0  0  0  0  0  0  0  0  0  0
   19.3504   -2.4464   -0.4166 H   0  0  0  0  0  0  0  0  0  0  0  0
   59.3525   -0.0709   -0.0308 C   0  0  0  0  0  0  0  0  0  0  0  0
   58.7338   -1.2656   -0.3756 C   0  0  0  0  0  0  0  0  0  0  0  0
   59.3754   -2.4756   -0.7631 C   0  0  0  0  0  0  0  0  0  0  0  0
   58.4062   -3.4075   -1.0059 C   0  0  0  0  0  0  0  0  0  0  0  0
   57.1410   -2.7996   -0.7646 C   0  0  0  0  0  0  0  0  0  0  0  0
   57.3892   -1.5076   -0.3974 N   0  0  0  0  0  0  0  0  0  0  0  0
   55.8731   -3.3785   -0.8901 C   0  0  0  0  0  0  0  0  0  0  0  0
   55.8291   -4.8069   -1.2827 C   0  0  0  0  0  0  0  0  0  0  0  0
   55.1970   -5.2145   -2.4571 C   0  0  0  0  0  0  0  0  0  0  0  0
   55.1845   -6.5606   -2.7862 C   0  0  0  0  0  0  0  0  0  0  0  0
   55.7478   -7.4967   -2.0291 N   0  0  0  0  0  0  0  0  0  0  0  0
   56.3497   -7.1174   -0.9067 C   0  0  0  0  0  0  0  0  0  0  0  0
   56.4189   -5.7955   -0.4958 C   0  0  0  0  0  0  0  0  0  0  0  0
   54.6631   -2.7143   -0.6759 C   0  0  0  0  0  0  0  0  0  0  0  0
   53.3623   -3.3549   -0.7506 C   0  0  0  0  0  0  0  0  0  0  0  0
   52.4492   -2.3967   -0.4902 C   0  0  0  0  0  0  0  0  0  0  0  0
   54.5189   -1.3993   -0.3540 N   0  0  0  0  0  0  0  0  0  0  0  0
   53.1937   -1.1760   -0.2475 C   0  0  0  0  0  0  0  0  0  0  0  0
   52.5651    0.0523    0.0421 C   0  0  0  0  0  0  0  0  0  0  0  0
   53.2094    1.2691    0.3350 C   0  0  0  0  0  0  0  0  0  0  0  0
   52.5745    2.5085    0.6136 C   0  0  0  0  0  0  0  0  0  0  0  0
   53.5486    3.4329    0.8714 C   0  0  0  0  0  0  0  0  0  0  0  0
   54.8093    2.7829    0.7640 C   0  0  0  0  0  0  0  0  0  0  0  0
   54.5525    1.4799    0.4285 N   0  0  0  0  0  0  0  0  0  0  0  0
   56.0762    3.3510    0.9350 C   0  0  0  0  0  0  0  0  0  0  0  0
   56.1168    4.7772    1.3341 C   0  0  0  0  0  0  0  0  0  0  0  0
   55.5424    5.2102    2.5291 C   0  0  0  0  0  0  0  0  0  0  0  0
   55.6056    6.5539    2.8620 C   0  0  0  0  0  0  0  0  0  0  0  0
   56.1877    7.4651    2.0889 N   0  0  0  0  0  0  0  0  0  0  0  0
   56.7357    7.0614    0.9473 C   0  0  0  0  0  0  0  0  0  0  0  0
   56.7281    5.7395    0.5310 C   0  0  0  0  0  0  0  0  0  0  0  0
   57.2881    2.6748    0.7598 C   0  0  0  0  0  0  0  0  0  0  0  0
   58.5974    3.2679    0.9844 C   0  0  0  0  0  0  0  0  0  0  0  0
   59.5035    2.3085    0.7093 C   0  0  0  0  0  0  0  0  0  0  0  0
   58.7490    1.1269    0.3291 C   0  0  0  0  0  0  0  0  0  0  0  0
   57.4186    1.3819    0.3792 N   0  0  0  0  0  0  0  0  0  0  0  0
   60.4376   -0.0849   -0.0452 H   0  0  0  0  0  0  0  0  0  0  0  0
   60.4431   -2.6015   -0.8471 H   0  0  0  0  0  0  0  0  0  0  0  0
   58.5487   -4.4251   -1.3318 H   0  0  0  0  0  0  0  0  0  0  0  0
   56.6694   -0.8275   -0.1771 H   0  0  0  0  0  0  0  0  0  0  0  0
   54.7355   -4.4848   -3.1116 H   0  0  0  0  0  0  0  0  0  0  0  0
   54.7022   -6.9012   -3.6977 H   0  0  0  0  0  0  0  0  0  0  0  0
   56.7970   -7.9052   -0.3075 H   0  0  0  0  0  0  0  0  0  0  0  0
   56.9086   -5.5356    0.4352 H   0  0  0  0  0  0  0  0  0  0  0  0
   53.1930   -4.3987   -0.9593 H   0  0  0  0  0  0  0  0  0  0  0  0
   51.3753   -2.4834   -0.4512 H   0  0  0  0  0  0  0  0  0  0  0  0
   51.5078    2.6639    0.6107 H   0  0  0  0  0  0  0  0  0  0  0  0
   53.4097    4.4757    1.1053 H   0  0  0  0  0  0  0  0  0  0  0  0
   55.2692    0.7794    0.2698 H   0  0  0  0  0  0  0  0  0  0  0  0
   55.0686    4.5010    3.1975 H   0  0  0  0  0  0  0  0  0  0  0  0
   55.1698    6.9135    3.7896 H   0  0  0  0  0  0  0  0  0  0  0  0
   57.2013    7.8293    0.3363 H   0  0  0  0  0  0  0  0  0  0  0  0
   57.1758    5.4593   -0.4150 H   0  0  0  0  0  0  0  0  0  0  0  0
   58.7736    4.2776    1.3185 H   0  0  0  0  0  0  0  0  0  0  0  0
   60.5798    2.3618    0.7580 H   0  0  0  0  0  0  0  0  0  0  0  0
   32.5606   -0.0893   -0.0061 C   0  0  0  0  0  0  0  0  0  0  0  0
   31.3321   -0.0894    0.0053 C   0  0  0  0  0  0  0  0  0  0  0  0
   29.9883   -0.0825    0.0176 C   0  0  0  0  0  0  0  0  0  0  0  0
   28.7644   -0.0684    0.0280 C   0  0  0  0  0  0  0  0  0  0  0  0
   33.9043   -0.0832   -0.0196 C   0  0  0  0  0  0  0  0  0  0  0  0
   35.1283   -0.0685   -0.0312 C   0  0  0  0  0  0  0  0  0  0  0  0
   48.5921    0.1025    0.0296 C   0  0  0  0  0  0  0  0  0  0  0  0
   47.3637    0.1026    0.0147 C   0  0  0  0  0  0  0  0  0  0  0  0
   46.0201    0.0944    0.0027 C   0  0  0  0  0  0  0  0  0  0  0  0
   44.7961    0.0757   -0.0125 C   0  0  0  0  0  0  0  0  0  0  0  0
   49.9359    0.0938    0.0385 C   0  0  0  0  0  0  0  0  0  0  0  0
   51.1598    0.0759    0.0420 C   0  0  0  0  0  0  0  0  0  0  0  0
   36.5327   -0.0519   -0.0405 C   0  0  0  0  0  0  0  0  0  0  0  0
   37.1756   -1.2794    0.2105 C   0  0  0  0  0  0  0  0  0  0  0  0
   36.5433   -2.5184    0.4902 C   0  0  0  0  0  0  0  0  0  0  0  0
   37.5207   -3.4604    0.6608 C   0  0  0  0  0  0  0  0  0  0  0  0
   38.7789   -2.8235    0.4818 C   0  0  0  0  0  0  0  0  0  0  0  0
   38.5195   -1.5050    0.2199 N   0  0  0  0  0  0  0  0  0  0  0  0
   40.0469   -3.4095    0.5759 C   0  0  0  0  0  0  0  0  0  0  0  0
   40.0794   -4.8671    0.8462 C   0  0  0  0  0  0  0  0  0  0  0  0
   40.6672   -5.3751    2.0041 C   0  0  0  0  0  0  0  0  0  0  0  0
   40.6675   -6.7446    2.2167 C   0  0  0  0  0  0  0  0  0  0  0  0
   40.1340   -7.6106    1.3611 N   0  0  0  0  0  0  0  0  0  0  0  0
   39.5753   -7.1350    0.2529 C   0  0  0  0  0  0  0  0  0  0  0  0
   39.5207   -5.7825   -0.0449 C   0  0  0  0  0  0  0  0  0  0  0  0
   41.2637   -2.7399    0.4392 C   0  0  0  0  0  0  0  0  0  0  0  0
   42.5583   -3.3956    0.4900 C   0  0  0  0  0  0  0  0  0  0  0  0
   43.4833   -2.4284    0.3221 C   0  0  0  0  0  0  0  0  0  0  0  0
   41.4235   -1.4048    0.2243 N   0  0  0  0  0  0  0  0  0  0  0  0
   42.7524   -1.1869    0.1600 C   0  0  0  0  0  0  0  0  0  0  0  0
   43.3919    0.0553   -0.0267 C   0  0  0  0  0  0  0  0  0  0  0  0
   42.7486    1.2909   -0.2325 C   0  0  0  0  0  0  0  0  0  0  0  0
   43.3802    2.5487   -0.4119 C   0  0  0  0  0  0  0  0  0  0  0  0
   42.4029    3.4864   -0.6052 C   0  0  0  0  0  0  0  0  0  0  0  0
   41.1455    2.8252   -0.5560 C   0  0  0  0  0  0  0  0  0  0  0  0
   41.4050    1.5019   -0.3190 N   0  0  0  0  0  0  0  0  0  0  0  0
   39.8779    3.4027   -0.6968 C   0  0  0  0  0  0  0  0  0  0  0  0
   39.8470    4.8574   -0.9835 C   0  0  0  0  0  0  0  0  0  0  0  0
   39.2498    5.7577   -0.1022 C   0  0  0  0  0  0  0  0  0  0  0  0
   39.2509    7.1085   -0.4127 C   0  0  0  0  0  0  0  0  0  0  0  0
   39.7945    7.5960   -1.5233 N   0  0  0  0  0  0  0  0  0  0  0  0
   40.3627    6.7441   -2.3706 C   0  0  0  0  0  0  0  0  0  0  0  0
   40.4167    5.3777   -2.1450 C   0  0  0  0  0  0  0  0  0  0  0  0
   38.6611    2.7278   -0.5915 C   0  0  0  0  0  0  0  0  0  0  0  0
   37.3671    3.3556   -0.7910 C   0  0  0  0  0  0  0  0  0  0  0  0
   36.4419    2.3921   -0.6028 C   0  0  0  0  0  0  0  0  0  0  0  0
   37.1725    1.1768   -0.3007 C   0  0  0  0  0  0  0  0  0  0  0  0
   38.5010    1.4052   -0.3095 N   0  0  0  0  0  0  0  0  0  0  0  0
   35.4768   -2.6610    0.5558 H   0  0  0  0  0  0  0  0  0  0  0  0
   37.3842   -4.5027    0.8986 H   0  0  0  0  0  0  0  0  0  0  0  0
   39.2313   -0.7990    0.0636 H   0  0  0  0  0  0  0  0  0  0  0  0
   41.1037   -4.7053    2.7353 H   0  0  0  0  0  0  0  0  0  0  0  0
   41.1146   -7.1636    3.1134 H   0  0  0  0  0  0  0  0  0  0  0  0
   39.1516   -7.8673   -0.4281 H   0  0  0  0  0  0  0  0  0  0  0  0
   39.0652   -5.4413   -0.9670 H   0  0  0  0  0  0  0  0  0  0  0  0
   42.7153   -4.4537    0.6226 H   0  0  0  0  0  0  0  0  0  0  0  0
   44.5573   -2.5203    0.2983 H   0  0  0  0  0  0  0  0  0  0  0  0
   44.4463    2.7075   -0.3907 H   0  0  0  0  0  0  0  0  0  0  0  0
   42.5388    4.5444   -0.7594 H   0  0  0  0  0  0  0  0  0  0  0  0
   40.6937    0.7853   -0.2198 H   0  0  0  0  0  0  0  0  0  0  0  0
   38.8050    5.4065    0.8211 H   0  0  0  0  0  0  0  0  0  0  0  0
   38.7964    7.8296    0.2602 H   0  0  0  0  0  0  0  0  0  0  0  0
   40.7947    7.1722   -3.2704 H   0  0  0  0  0  0  0  0  0  0  0  0
   40.8802    4.7194   -2.8702 H   0  0  0  0  0  0  0  0  0  0  0  0
   37.2103    4.3896   -1.0517 H   0  0  0  0  0  0  0  0  0  0  0  0
   35.3682    2.4677   -0.6656 H   0  0  0  0  0  0  0  0  0  0  0  0
  1  2  4  0  0  0  0
  2  3  4  0  0  0  0
  3  4  2  0  0  0  0
  4  5  4  0  0  0  0
  2  6  4  0  0  0  0
  5  6  4  0  0  0  0
  5  7  4  0  0  0  0
  7  8  1  0  0  0  0
  8  9  4  0  0  0  0
  9 10  4  0  0  0  0
 10 11  4  0  0  0  0
 11 12  4  0  0  0  0
  8 13  4  0  0  0  0
 12 13  4  0  0  0  0
  7 14  4  0  0  0  0
 14 15  1  0  0  0  0
 15 16  2  0  0  0  0
 14 17  4  0  0  0  0
 16 18  1  0  0  0  0
 17 18  4  0  0  0  0
 18 19  4  0  0  0  0
 19 20  4  0  0  0  0
 20 21  4  0  0  0  0
 21 22  2  0  0  0  0
 22 23  4  0  0  0  0
 20 24  4  0  0  0  0
 23 24  4  0  0  0  0
 23 25  4  0  0  0  0
 25 26  1  0  0  0  0
 26 27  4  0  0  0  0
 27 28  4  0  0  0  0
 28 29  4  0  0  0  0
 29 30  4  0  0  0  0
 26 31  4  0  0  0  0
 30 31  4  0  0  0  0
 25 32  4  0  0  0  0
 32 33  1  0  0  0  0
 33 34  2  0  0  0  0
  1 35  4  0  0  0  0
 34 35  1  0  0  0  0
 32 36  4  0  0  0  0
 35 36  4  0  0  0  0
  1 37  1  0  0  0  0
  3 38  1  0  0  0  0
  4 39  1  0  0  0  0
  6 40  1  0  0  0  0
  9 41  1  0  0  0  0
 10 42  1  0  0  0  0
 12 43  1  0  0  0  0
 13 44  1  0  0  0  0
 15 45  1  0  0  0  0
 16 46  1  0  0  0  0
 21 47  1  0  0  0  0
 22 48  1  0  0  0  0
 24 49  1  0  0  0  0
 27 50  1  0  0  0  0
 28 51  1  0  0  0  0
 30 52  1  0  0  0  0
 31 53  1  0  0  0  0
 33 54  1  0  0  0  0
 34 55  1  0  0  0  0
 56 57  4  0  0  0  0
 57 58  4  0  0  0  0
 58 59  2  0  0  0  0
 59 60  4  0  0  0  0
 57 61  4  0  0  0  0
 60 61  4  0  0  0  0
 60 62  4  0  0  0  0
 62 63  1  0  0  0  0
 63 64  4  0  0  0  0
 64 65  4  0  0  0  0
 65 66  4  0  0  0  0
 66 67  4  0  0  0  0
 63 68  4  0  0  0  0
 67 68  4  0  0  0  0
 62 69  4  0  0  0  0
 69 70  1  0  0  0  0
 70 71  2  0  0  0  0
 69 72  4  0  0  0  0
 71 73  1  0  0  0  0
 72 73  4  0  0  0  0
 73 74  4  0  0  0  0
 74 75  4  0  0  0  0
 75 76  4  0  0  0  0
 76 77  2  0  0  0  0
 77 78  4  0  0  0  0
 75 79  4  0  0  0  0
 78 79  4  0  0  0  0
 78 80  4  0  0  0  0
 80 81  1  0  0  0  0
 81 82  4  0  0  0  0
 82 83  4  0  0  0  0
 83 84  4  0  0  0  0
 84 85  4  0  0  0  0
 81 86  4  0  0  0  0
 85 86  4  0  0  0  0
 80 87  4  0  0  0  0
 87 88  1  0  0  0  0
 88 89  2  0  0  0  0
 56 90  4  0  0  0  0
 89 90  1  0  0  0  0
 87 91  4  0  0  0  0
 90 91  4  0  0  0  0
 56 92  1  0  0  0  0
 58 93  1  0  0  0  0
 59 94  1  0  0  0  0
 61 95  1  0  0  0  0
 64 96  1  0  0  0  0
 65 97  1  0  0  0  0
 67 98  1  0  0  0  0
 68 99  1  0  0  0  0
 70100  1  0  0  0  0
 71101  1  0  0  0  0
 76102  1  0  0  0  0
 77103  1  0  0  0  0
 79104  1  0  0  0  0
 82105  1  0  0  0  0
 83106  1  0  0  0  0
 85107  1  0  0  0  0
 86108  1  0  0  0  0
 88109  1  0  0  0  0
 89110  1  0  0  0  0
111112  3  0  0  0  0
112113  4  0  0  0  0
 19114  4  0  0  0  0
113114  3  0  0  0  0
111115  4  0  0  0  0
115116  3  0  0  0  0
117118  3  0  0  0  0
118119  4  0  0  0  0
119120  3  0  0  0  0
117121  4  0  0  0  0
 74122  4  0  0  0  0
121122  3  0  0  0  0
116123  4  0  0  0  0
123124  4  0  0  0  0
124125  4  0  0  0  0
125126  2  0  0  0  0
126127  4  0  0  0  0
124128  4  0  0  0  0
127128  4  0  0  0  0
127129  4  0  0  0  0
129130  1  0  0  0  0
130131  4  0  0  0  0
131132  4  0  0  0  0
132133  4  0  0  0  0
133134  4  0  0  0  0
130135  4  0  0  0  0
134135  4  0  0  0  0
129136  4  0  0  0  0
136137  1  0  0  0  0
137138  2  0  0  0  0
136139  4  0  0  0  0
138140  1  0  0  0  0
139140  4  0  0  0  0
120141  4  0  0  0  0
140141  4  0  0  0  0
141142  4  0  0  0  0
142143  4  0  0  0  0
143144  2  0  0  0  0
144145  4  0  0  0  0
142146  4  0  0  0  0
145146  4  0  0  0  0
145147  4  0  0  0  0
147148  1  0  0  0  0
148149  4  0  0  0  0
149150  4  0  0  0  0
150151  4  0  0  0  0
151152  4  0  0  0  0
148153  4  0  0  0  0
152153  4  0  0  0  0
147154  4  0  0  0  0
154155  1  0  0  0  0
155156  2  0  0  0  0
123157  4  0  0  0  0
156157  1  0  0  0  0
154158  4  0  0  0  0
157158  4  0  0  0  0
125159  1  0  0  0  0
126160  1  0  0  0  0
128161  1  0  0  0  0
131162  1  0  0  0  0
132163  1  0  0  0  0
134164  1  0  0  0  0
135165  1  0  0  0  0
137166  1  0  0  0  0
138167  1  0  0  0  0
143168  1  0  0  0  0
144169  1  0  0  0  0
146170  1  0  0  0  0
149171  1  0  0  0  0
150172  1  0  0  0  0
152173  1  0  0  0  0
153174  1  0  0  0  0
155175  1  0  0  0  0
156176  1  0  0  0  0
M  END
