294

Fe 38.116903 -0.023178 -0.024177
C 34.758215 0.180082 -0.259488
C 35.422534 1.280919 0.101988
C 34.772885 2.524407 0.499433
C 35.715599 3.400247 0.789586
C 37.021321 2.759480 0.582274
N 36.842155 1.410923 0.149201
C 38.216493 3.354987 0.768547
C 39.511810 2.663526 0.540726
C 40.808580 3.350168 0.541623
C 41.741763 2.447201 0.324555
N 39.644680 1.389278 0.328780
C 41.048137 1.172197 0.181263
C 41.639726 -0.017914 -0.017725
C 40.881158 -1.284389 -0.158833
C 41.438346 -2.488913 -0.142518
C 40.391110 -3.454497 -0.402494
C 39.256942 -2.780165 -0.557296
C 37.954989 -3.404714 -0.915929
C 37.929923 -4.846508 -1.250495
C 37.863446 -5.259560 -2.588755
C 37.858804 -6.625470 -2.908259
C 37.753023 -7.065340 -4.338585
C 37.886610 -7.577507 -1.877304
C 37.943674 -7.172415 -0.535463
C 38.010419 -8.203002 0.553067
C 37.975211 -5.804019 -0.226993
C 36.801845 -2.710315 -0.929787
C 35.481174 -3.250756 -1.248310
C 34.625920 -2.266251 -1.058872
C 35.389603 -1.098312 -0.623267
N 36.659822 -1.345304 -0.544099
N 39.477161 -1.374951 -0.410314
C 38.266025 4.765252 1.213248
C 37.950542 5.800743 0.321467
C 37.993528 7.137019 0.744755
C 37.673383 8.246035 -0.213787
C 38.394164 7.435130 2.055782
C 38.735192 6.406572 2.946828
C 39.117523 6.727343 4.361489
C 38.654076 5.071686 2.524810
H 33.675264 0.217062 -0.277766
H 33.708271 2.710960 0.558810
H 35.529666 4.412932 1.122216
H 40.988505 4.407078 0.688086
H 42.804001 2.644714 0.269814
H 42.483985 -2.720376 0.007666
H 40.526673 -4.524182 -0.488938
H 37.819362 -4.518152 -3.378561
H 38.255521 -8.045103 -4.486142
H 36.682701 -7.161795 -4.616111
H 38.237546 -6.326685 -5.012717
H 37.865474 -8.633972 -2.118799
H 37.841855 -7.747782 1.553384
H 37.231649 -8.977938 0.389591
H 39.009597 -8.687042 0.543892
H 38.031978 -5.480304 0.806429
H 35.227324 -4.254110 -1.563408
H 33.554321 -2.327763 -1.196041
H 37.666516 5.565240 -0.697566
H 37.184480 9.089888 0.318246
H 36.982192 7.894146 -1.008730
H 38.610664 8.609701 -0.683723
H 38.439980 8.467945 2.381860
H 38.208062 6.734574 4.996502
H 39.607652 7.722230 4.420039
H 39.828846 5.970137 4.756302
H 38.896139 4.270742 3.213724
Fe 95.108217 -0.010251 -0.014464
C 98.466905 0.159179 -0.275193
C 97.802586 -0.494442 -1.231898
C 98.452235 -1.222320 -2.315605
C 97.509521 -1.744806 -3.076060
C 96.203799 -1.367322 -2.518327
N 96.382965 -0.575978 -1.343622
C 95.008627 -1.712000 -3.038446
C 93.713310 -1.300706 -2.437731
C 92.416540 -1.492703 -3.096985
C 91.483357 -1.032863 -2.290129
N 93.580440 -0.742434 -1.272844
C 92.176983 -0.540320 -1.105407
C 91.585394 -0.017914 -0.017725
C 92.343962 0.470158 1.159415
C 91.786774 0.789783 2.320873
C 92.834010 1.308266 3.175925
C 93.968178 1.269241 2.485154
C 95.270131 1.787551 2.985189
C 95.295197 2.510235 4.276866
C 95.361674 3.910580 4.301070
C 95.366316 4.597675 5.524055
C 95.472097 6.093913 5.548390
C 95.338510 3.872480 6.725444
C 95.281446 2.470911 6.709882
C 95.214701 1.712281 8.002743
C 95.249908 1.793722 5.481438
C 96.423275 1.607566 2.314377
C 97.743946 2.063938 2.744793
C 98.599200 1.607938 1.851932
C 97.835517 0.864438 0.851412
N 96.565298 0.857153 1.110679
N 93.747959 0.736907 1.176394
C 94.959094 -2.531690 -4.269183
C 95.274578 -1.963399 -5.511986
C 95.231592 -2.741927 -6.677619
C 95.551737 -2.129980 -8.009625
C 94.830956 -4.084120 -6.599005
C 94.489928 -4.653636 -5.363066
C 94.107596 -6.101674 -5.277369
C 94.571043 -3.876714 -4.198415
H 99.549856 0.166442 -0.315799
H 99.516849 -1.331279 -2.478257
H 97.695454 -2.346183 -3.956128
H 92.236615 -1.927582 -4.071351
H 90.421119 -1.035265 -2.495075
H 90.741134 0.709966 2.584993
H 92.698447 1.689054 4.179269
H 95.405758 4.462789 3.369113
H 94.969599 6.508367 6.448354
H 96.542418 6.387319 5.563780
H 94.987574 6.535785 4.651277
H 95.359646 4.398511 7.672930
H 95.383265 0.624785 7.843967
H 95.993471 2.085010 8.701544
H 94.215523 1.855833 8.465097
H 95.193141 0.711035 5.458183
H 97.997796 2.645879 3.620779
H 99.670799 1.756808 1.872830
H 95.558604 -0.919087 -5.569452
H 96.040639 -2.875882 -8.672027
H 96.242928 -1.268503 -7.892927
H 94.614456 -1.779849 -8.489730
H 94.785140 -4.684808 -7.500232
H 95.017058 -6.713601 -5.107550
H 93.617468 -6.434850 -6.216637
H 93.396274 -6.270104 -4.440190
H 94.328981 -4.315446 -3.237359
C 44.056416 -0.003688 -0.007774
C 45.514642 -0.025525 -0.025647
C 46.648570 -0.046278 -0.027138
C 48.009952 -0.058868 -0.029329
C 49.284171 -0.048562 -0.034094
C 50.472633 -0.029764 -0.040250
C 51.824994 -0.004979 -0.024382
C 52.925261 -0.003688 -0.007774
C 62.118080 -0.003688 -0.007774
C 63.576306 -0.025525 -0.025647
C 64.710234 -0.046278 -0.027138
C 66.071616 -0.058868 -0.029329
C 67.345835 -0.048562 -0.034094
C 68.534297 -0.029764 -0.040250
C 69.886658 -0.004979 -0.024382
C 70.986925 -0.003688 -0.007774
C 80.179744 -0.003688 -0.007774
C 81.637970 -0.025525 -0.025647
C 82.771899 -0.046278 -0.027138
C 84.133280 -0.058868 -0.029329
C 85.407499 -0.048562 -0.034094
C 86.595962 -0.029764 -0.040250
C 87.948322 -0.004979 -0.024382
C 89.048590 -0.003688 -0.007774
Fe 57.479364 -0.075064 -0.035808
C 54.110002 0.018842 0.019381
C 54.766270 1.189763 -0.079284
C 54.126305 2.506806 -0.094184
C 55.062468 3.420393 -0.255764
C 56.358908 2.741963 -0.355837
N 56.180728 1.328718 -0.234730
C 57.542958 3.361880 -0.546222
C 58.840280 2.639259 -0.581409
C 60.109256 3.256449 -0.988603
C 61.061993 2.359955 -0.833807
N 59.008246 1.411652 -0.199618
C 60.406881 1.158511 -0.332874
C 61.021812 0.018842 0.019381
C 60.270632 -1.165111 0.487204
C 60.805132 -2.177525 1.158031
C 59.772717 -3.185292 1.307982
C 58.679089 -2.720684 0.714383
C 57.426112 -3.493279 0.537933
C 57.489446 -4.972847 0.623934
C 56.791772 -5.657492 1.631070
C 56.867451 -7.054595 1.723470
C 56.157372 -7.773997 2.831499
C 57.672833 -7.765067 0.820717
C 58.368042 -7.091064 -0.194182
C 59.252590 -7.855519 -1.134019
C 58.285169 -5.693542 -0.278719
C 56.254207 -2.880894 0.281576
C 54.979396 -3.540757 0.019293
C 54.091133 -2.578244 -0.123607
C 54.787702 -1.297809 0.040135
N 56.051993 -1.467795 0.273988
N 58.903120 -1.421490 0.170260
C 57.577355 4.832800 -0.719219
C 58.164729 5.641582 0.264437
C 58.213182 7.033800 0.102646
C 58.884940 7.888913 1.136211
C 57.694439 7.612863 -1.065529
C 57.093904 6.813240 -2.049655
C 56.572053 7.435895 -3.310022
C 57.051839 5.421766 -1.879230
H 53.072307 2.726435 0.010551
H 54.877173 4.486125 -0.294923
H 60.258567 4.265067 -1.351168
H 62.111596 2.515140 -1.045465
H 61.829021 -2.260678 1.497592
H 59.889198 -4.153262 1.777589
H 56.197880 -5.100923 2.346788
H 55.918513 -8.818058 2.534732
H 56.805379 -7.793130 3.732483
H 55.204481 -7.261312 3.081865
H 57.760206 -8.841921 0.908255
H 59.401435 -7.295938 -2.082713
H 58.795633 -8.837305 -1.382930
H 60.240611 -8.024504 -0.655791
H 58.838353 -5.164675 -1.046040
H 54.776766 -4.600803 -0.057589
H 53.041712 -2.731720 -0.335658
H 58.585553 5.185248 1.153102
H 58.451544 8.911723 1.142487
H 59.969648 7.956896 0.910513
H 58.751603 7.454288 2.149627
H 57.757829 8.685101 -1.209218
H 56.145811 8.439763 -3.099626
H 55.770873 6.809410 -3.757995
H 57.401003 7.539477 -4.041288
H 56.616154 4.794752 -2.648769
Fe 75.541028 -0.075064 -0.035808
C 72.171666 0.018842 0.019381
C 72.827935 1.189763 -0.079284
C 72.187970 2.506806 -0.094184
C 73.124132 3.420393 -0.255764
C 74.420573 2.741963 -0.355837
N 74.242392 1.328718 -0.234730
C 75.604622 3.361880 -0.546222
C 76.901944 2.639259 -0.581409
C 78.170920 3.256449 -0.988603
C 79.123657 2.359955 -0.833807
N 77.069910 1.411652 -0.199618
C 78.468545 1.158511 -0.332874
C 79.083476 0.018842 0.019381
C 78.332297 -1.165111 0.487204
C 78.866796 -2.177525 1.158031
C 77.834381 -3.185292 1.307982
C 76.740753 -2.720684 0.714383
C 75.487776 -3.493279 0.537933
C 75.551110 -4.972847 0.623934
C 74.853436 -5.657492 1.631070
C 74.929115 -7.054595 1.723470
C 74.219036 -7.773997 2.831499
C 75.734497 -7.765067 0.820717
C 76.429706 -7.091064 -0.194182
C 77.314254 -7.855519 -1.134019
C 76.346833 -5.693542 -0.278719
C 74.315871 -2.880894 0.281576
C 73.041060 -3.540757 0.019293
C 72.152798 -2.578244 -0.123607
C 72.849366 -1.297809 0.040135
N 74.113657 -1.467795 0.273988
N 76.964784 -1.421490 0.170260
C 75.639019 4.832800 -0.719219
C 76.226393 5.641582 0.264437
C 76.274846 7.033800 0.102646
C 76.946605 7.888913 1.136211
C 75.756103 7.612863 -1.065529
C 75.155569 6.813240 -2.049655
C 74.633718 7.435895 -3.310022
C 75.113503 5.421766 -1.879230
H 71.133971 2.726435 0.010551
H 72.938837 4.486125 -0.294923
H 78.320231 4.265067 -1.351168
H 80.173260 2.515140 -1.045465
H 79.890686 -2.260678 1.497592
H 77.950862 -4.153262 1.777589
H 74.259544 -5.100923 2.346788
H 73.980177 -8.818058 2.534732
H 74.867043 -7.793130 3.732483
H 73.266145 -7.261312 3.081865
H 75.821870 -8.841921 0.908255
H 77.463099 -7.295938 -2.082713
H 76.857297 -8.837305 -1.382930
H 78.302275 -8.024504 -0.655791
H 76.900017 -5.164675 -1.046040
H 72.838430 -4.600803 -0.057589
H 71.103376 -2.731720 -0.335658
H 76.647218 5.185248 1.153102
H 76.513208 8.911723 1.142487
H 78.031312 7.956896 0.910513
H 76.813267 7.454288 2.149627
H 75.819493 8.685101 -1.209218
H 74.207475 8.439763 -3.099626
H 73.832537 6.809410 -3.757995
H 75.462667 7.539477 -4.041288
H 74.677819 4.794752 -2.648769
