230

C 34.329669 -0.016579 -0.014523
C 35.057624 1.359028 0.081453
C 34.449870 2.593554 0.063003
C 35.472229 3.562586 0.235242
C 36.669440 2.884909 0.361188
N 36.410166 1.545590 0.211826
C 38.090997 3.521522 0.653163
C 38.127770 4.936038 1.085705
C 38.415145 5.947813 0.171050
C 38.426689 7.255297 0.624768
N 38.172636 7.619798 1.903653
C 37.898432 6.611288 2.764669
C 37.863017 5.273515 2.411394
C 39.222206 2.773043 0.554150
C 40.526547 3.310174 0.884857
C 41.429412 2.350777 0.719015
N 39.419062 1.469507 0.182954
C 40.750737 1.154208 0.262115
C 41.418660 -0.000612 -0.000597
C 40.639195 -1.279130 -0.524723
C 41.173747 -2.312159 -1.269389
C 40.148280 -3.269646 -1.469934
C 39.014075 -2.789416 -0.850620
N 39.307847 -1.552857 -0.326389
C 37.608171 -3.518238 -0.773267
C 37.583660 -4.988882 -0.917567
C 37.980279 -5.803962 0.140221
C 37.954990 -7.175472 -0.045694
N 37.570670 -7.782195 -1.193653
C 37.192735 -6.960220 -2.200579
C 37.183721 -5.578790 -2.115750
C 36.481762 -2.790763 -0.557954
C 35.162549 -3.390496 -0.458989
C 34.276121 -2.419205 -0.261434
C 34.994888 -1.169768 -0.213630
N 36.314961 -1.445054 -0.387832
H 33.252960 -0.030648 0.105438
H 33.391619 2.775427 -0.044819
H 35.343370 4.633228 0.287315
H 37.110420 0.807995 0.203055
H 38.627374 5.704784 -0.864529
H 38.649154 8.071371 -0.054830
H 37.699522 6.915221 3.787146
H 37.638518 4.500825 3.138752
H 40.740147 4.308802 1.221903
H 42.483030 2.466229 0.896701
H 42.192290 -2.379130 -1.620571
H 40.230822 -4.205813 -2.001319
H 38.628137 -0.921606 0.089811
H 38.297547 -5.366089 1.080483
H 38.255211 -7.844051 0.754499
H 36.884845 -7.457229 -3.114613
H 36.871093 -4.961497 -2.951206
H 34.933771 -4.438624 -0.528489
H 33.214060 -2.538049 -0.145486
C 85.552196 0.019960 -0.005664
C 84.824241 -1.246842 -0.550382
C 85.431995 -2.335822 -1.132203
C 84.409636 -3.276129 -1.422914
C 83.212425 -2.731393 -1.000574
N 83.471699 -1.472397 -0.519933
C 81.790868 -3.431036 -1.032596
C 81.754095 -4.886576 -1.295945
C 81.466720 -5.367075 -2.572425
C 81.455176 -6.737167 -2.767929
N 81.709229 -7.646927 -1.798008
C 81.983433 -7.144763 -0.570705
C 82.018848 -5.793749 -0.272041
C 80.659659 -2.720327 -0.777806
C 79.355318 -3.349275 -0.729833
C 78.452453 -2.420463 -0.437848
N 80.462803 -1.391540 -0.510753
C 79.131128 -1.147512 -0.295974
C 78.463205 -0.000612 -0.000597
C 79.242670 1.375978 0.119051
C 78.708118 2.635350 -0.069786
C 79.733584 3.578358 0.190474
C 80.867790 2.867809 0.521065
N 80.574018 1.528470 0.420728
C 82.273694 3.480266 0.923632
C 82.298205 4.853684 1.468921
C 81.901586 5.093775 2.782552
C 81.926874 6.398129 3.245442
N 82.311195 7.463247 2.502848
C 82.689130 7.193731 1.231272
C 82.698144 5.926857 0.673978
C 83.400103 2.734963 0.781846
C 84.719316 3.222769 1.144503
C 85.605744 2.268859 0.875262
C 84.886977 1.136278 0.345507
N 83.566904 1.460779 0.316734
H 86.628905 -0.022476 0.107419
H 86.490246 -2.448116 -1.311351
H 84.538495 -4.251725 -1.866984
H 82.771445 -0.812696 -0.189907
H 81.254491 -4.676733 -3.381694
H 81.232711 -7.151356 -3.745824
H 82.182343 -7.883245 0.199021
H 82.243347 -5.440001 0.728440
H 79.141718 -4.391374 -0.887593
H 77.398835 -2.604476 -0.332773
H 77.689575 2.855727 -0.351296
H 79.651043 4.653940 0.146870
H 81.253728 0.776697 0.501592
H 81.584318 4.273884 3.417849
H 81.626654 6.625968 4.262986
H 82.997020 8.054179 0.646376
H 83.010772 5.760759 -0.351424
H 84.948094 4.186333 1.562770
H 86.667805 2.321401 1.032765
C 45.265705 0.012447 0.002020
C 44.013435 -0.006734 -0.002328
C 46.579373 0.011681 0.003953
C 48.082507 -0.006734 -0.002328
C 59.199515 0.012447 0.002020
C 57.947244 -0.006734 -0.002328
C 60.513183 0.011681 0.003953
C 62.016317 -0.006734 -0.002328
C 73.133325 0.012447 0.002020
C 71.881054 -0.006734 -0.002328
C 74.446993 0.011681 0.003953
C 75.950127 -0.006734 -0.002328
C 49.394024 0.001371 0.000867
C 50.189805 -1.244127 0.571979
C 49.689410 -2.239486 1.384498
C 50.727612 -3.185329 1.585243
C 51.831096 -2.734626 0.891665
N 51.515870 -1.517061 0.344353
C 53.219667 -3.480128 0.745679
C 53.212311 -4.956803 0.823780
C 53.629963 -5.607691 1.983926
C 53.588668 -6.991090 2.009856
N 53.164156 -7.759373 0.979256
C 52.764774 -7.094459 -0.130665
C 52.768099 -5.715644 -0.256564
C 54.355252 -2.770833 0.516451
C 55.642268 -3.406919 0.322553
C 56.550852 -2.459083 0.118568
N 54.563469 -1.424729 0.404772
C 55.888619 -1.171721 0.171433
C 56.552332 0.001371 0.000867
C 55.755212 1.367850 0.069879
C 56.248213 2.591221 0.473472
C 55.210375 3.543246 0.303899
C 54.114303 2.868938 -0.190914
N 54.432708 1.535899 -0.257560
C 52.729119 3.505919 -0.611010
C 52.740881 4.899473 -1.104299
C 52.344947 5.948716 -0.277092
C 52.387896 7.235198 -0.785553
N 52.793866 7.545247 -2.038657
C 53.172750 6.502108 -2.814015
C 53.166684 5.181243 -2.400359
C 51.592441 2.764351 -0.555568
C 50.306275 3.282906 -0.973673
C 49.397010 2.328609 -0.807481
C 50.058136 1.153659 -0.276755
N 51.382737 1.475343 -0.152644
H 48.686005 -2.291746 1.774316
H 50.670312 -4.098867 2.154696
H 52.174762 -0.892165 -0.113080
H 53.979731 -5.035132 2.836597
H 53.906215 -7.534059 2.893277
H 52.427501 -7.720745 -0.950470
H 52.437074 -5.230533 -1.167995
H 55.839456 -4.464168 0.329913
H 57.595858 -2.637351 -0.057797
H 57.247899 2.783257 0.831114
H 55.263130 4.602834 0.503413
H 53.778693 0.786810 -0.464748
H 52.010142 5.750232 0.735172
H 52.085809 8.078939 -0.174087
H 53.494817 6.762463 -3.816478
H 53.480887 4.380194 -3.060516
H 50.110034 4.266732 -1.361370
H 48.351924 2.429367 -1.036741
C 63.327834 0.001371 0.000867
C 64.123615 -1.244127 0.571979
C 63.623220 -2.239486 1.384498
C 64.661422 -3.185329 1.585243
C 65.764906 -2.734626 0.891665
N 65.449680 -1.517061 0.344353
C 67.153477 -3.480128 0.745679
C 67.146121 -4.956803 0.823780
C 67.563773 -5.607691 1.983926
C 67.522478 -6.991090 2.009856
N 67.097966 -7.759373 0.979256
C 66.698584 -7.094459 -0.130665
C 66.701909 -5.715644 -0.256564
C 68.289062 -2.770833 0.516451
C 69.576078 -3.406919 0.322553
C 70.484662 -2.459083 0.118568
N 68.497279 -1.424729 0.404772
C 69.822429 -1.171721 0.171433
C 70.486141 0.001371 0.000867
C 69.689022 1.367850 0.069879
C 70.182022 2.591221 0.473472
C 69.144185 3.543246 0.303899
C 68.048113 2.868938 -0.190914
N 68.366518 1.535899 -0.257560
C 66.662929 3.505919 -0.611010
C 66.674690 4.899473 -1.104299
C 66.278757 5.948716 -0.277092
C 66.321706 7.235198 -0.785553
N 66.727676 7.545247 -2.038657
C 67.106560 6.502108 -2.814015
C 67.100494 5.181243 -2.400359
C 65.526251 2.764351 -0.555568
C 64.240085 3.282906 -0.973673
C 63.330820 2.328609 -0.807481
C 63.991946 1.153659 -0.276755
N 65.316547 1.475343 -0.152644
H 62.619815 -2.291746 1.774316
H 64.604122 -4.098867 2.154696
H 66.108572 -0.892165 -0.113080
H 67.913541 -5.035132 2.836597
H 67.840025 -7.534059 2.893277
H 66.361311 -7.720745 -0.950470
H 66.370884 -5.230533 -1.167995
H 69.773266 -4.464168 0.329913
H 71.529668 -2.637351 -0.057797
H 71.181709 2.783257 0.831114
H 69.196940 4.602834 0.503413
H 67.712503 0.786810 -0.464748
H 65.943952 5.750232 0.735172
H 66.019619 8.078939 -0.174087
H 67.428627 6.762463 -3.816478
H 67.414697 4.380194 -3.060516
H 64.043844 4.266732 -1.361370
H 62.285734 2.429367 -1.036741
