 xtb: 6.5.1 (b24c23e)
          07302208323D

254293  0     0  0            999 V2000
   40.7258   -0.2592   -0.1759 Cu  0  0  0  0  0  0  0  0  0  0  0  0
   37.3103   -0.2148   -0.1503 C   0  0  0  0  0  0  0  0  0  0  0  0
   37.9526    0.6595    0.7131 C   0  0  0  0  0  0  0  0  0  0  0  0
   37.2895    1.5685    1.6035 C   0  0  0  0  0  0  0  0  0  0  0  0
   38.2586    2.2420    2.2735 C   0  0  0  0  0  0  0  0  0  0  0  0
   39.5180    1.7479    1.7958 C   0  0  0  0  0  0  0  0  0  0  0  0
   39.3074    0.7914    0.8520 N   0  0  0  0  0  0  0  0  0  0  0  0
   40.7726    2.1911    2.2435 C   0  0  0  0  0  0  0  0  0  0  0  0
   40.7911    3.1965    3.2363 C   0  0  0  0  0  0  0  0  0  0  0  0
   40.8046    4.0612    4.0875 C   0  0  0  0  0  0  0  0  0  0  0  0
   40.8208    5.0675    5.0804 C   0  0  0  0  0  0  0  0  0  0  0  0
   42.0258    5.5699    5.5854 C   0  0  0  0  0  0  0  0  0  0  0  0
   41.9869    6.5549    6.5560 C   0  0  0  0  0  0  0  0  0  0  0  0
   40.8528    7.0552    7.0400 N   0  0  0  0  0  0  0  0  0  0  0  0
   39.7030    6.5828    6.5651 C   0  0  0  0  0  0  0  0  0  0  0  0
   39.6324    5.5991    5.5949 C   0  0  0  0  0  0  0  0  0  0  0  0
   42.0086    1.7131    1.7823 C   0  0  0  0  0  0  0  0  0  0  0  0
   43.2822    2.1731    2.2491 C   0  0  0  0  0  0  0  0  0  0  0  0
   44.2281    1.4764    1.5675 C   0  0  0  0  0  0  0  0  0  0  0  0
   42.1893    0.7507    0.8314 N   0  0  0  0  0  0  0  0  0  0  0  0
   43.5349    0.5892    0.6829 C   0  0  0  0  0  0  0  0  0  0  0  0
   44.1639   -0.3051   -0.2003 C   0  0  0  0  0  0  0  0  0  0  0  0
   43.4982   -1.1817   -1.0748 C   0  0  0  0  0  0  0  0  0  0  0  0
   44.1548   -2.0869   -1.9691 C   0  0  0  0  0  0  0  0  0  0  0  0
   43.1809   -2.7582   -2.6367 C   0  0  0  0  0  0  0  0  0  0  0  0
   41.9269   -2.2644   -2.1518 C   0  0  0  0  0  0  0  0  0  0  0  0
   42.1469   -1.3069   -1.2041 N   0  0  0  0  0  0  0  0  0  0  0  0
   40.6723   -2.7105   -2.5943 C   0  0  0  0  0  0  0  0  0  0  0  0
   40.6510   -3.7178   -3.5850 C   0  0  0  0  0  0  0  0  0  0  0  0
   40.6331   -4.5844   -4.4341 C   0  0  0  0  0  0  0  0  0  0  0  0
   40.6138   -5.5949   -5.4226 C   0  0  0  0  0  0  0  0  0  0  0  0
   41.8009   -6.1301   -5.9365 C   0  0  0  0  0  0  0  0  0  0  0  0
   41.7279   -7.1178   -6.9023 C   0  0  0  0  0  0  0  0  0  0  0  0
   40.5769   -7.5909   -7.3737 N   0  0  0  0  0  0  0  0  0  0  0  0
   39.4441   -7.0871   -6.8905 C   0  0  0  0  0  0  0  0  0  0  0  0
   39.4076   -6.0979   -5.9240 C   0  0  0  0  0  0  0  0  0  0  0  0
   39.4364   -2.2343   -2.1287 C   0  0  0  0  0  0  0  0  0  0  0  0
   38.1576   -2.6958   -2.5870 C   0  0  0  0  0  0  0  0  0  0  0  0
   37.2166   -1.9971   -1.9029 C   0  0  0  0  0  0  0  0  0  0  0  0
   37.9164   -1.1053   -1.0232 C   0  0  0  0  0  0  0  0  0  0  0  0
   39.2650   -1.2723   -1.1826 N   0  0  0  0  0  0  0  0  0  0  0  0
   36.2252   -0.2007   -0.1420 H   0  0  0  0  0  0  0  0  0  0  0  0
   36.2193    1.6679    1.6940 H   0  0  0  0  0  0  0  0  0  0  0  0
   38.1444    3.0066    3.0255 H   0  0  0  0  0  0  0  0  0  0  0  0
   42.9723    5.1908    5.2193 H   0  0  0  0  0  0  0  0  0  0  0  0
   42.9067    6.9628    6.9654 H   0  0  0  0  0  0  0  0  0  0  0  0
   38.7968    7.0130    6.9817 H   0  0  0  0  0  0  0  0  0  0  0  0
   38.6740    5.2433    5.2364 H   0  0  0  0  0  0  0  0  0  0  0  0
   43.4240    2.9321    3.0019 H   0  0  0  0  0  0  0  0  0  0  0  0
   45.3008    1.5494    1.6493 H   0  0  0  0  0  0  0  0  0  0  0  0
   45.2237   -2.1888   -2.0665 H   0  0  0  0  0  0  0  0  0  0  0  0
   43.2917   -3.5206   -3.3912 H   0  0  0  0  0  0  0  0  0  0  0  0
   42.7602   -5.7738   -5.5807 H   0  0  0  0  0  0  0  0  0  0  0  0
   42.6331   -7.5509   -7.3182 H   0  0  0  0  0  0  0  0  0  0  0  0
   38.5233   -7.4957   -7.2970 H   0  0  0  0  0  0  0  0  0  0  0  0
   38.4620   -5.7161   -5.5584 H   0  0  0  0  0  0  0  0  0  0  0  0
   38.0124   -3.4573   -3.3367 H   0  0  0  0  0  0  0  0  0  0  0  0
   36.1429   -2.0688   -1.9771 H   0  0  0  0  0  0  0  0  0  0  0  0
   96.6067   -0.3216   -0.2062 Cu  0  0  0  0  0  0  0  0  0  0  0  0
  100.0224   -0.3466   -0.2367 C   0  0  0  0  0  0  0  0  0  0  0  0
   99.3868   -1.5408   -0.5407 C   0  0  0  0  0  0  0  0  0  0  0  0
  100.0566   -2.7682   -0.8631 C   0  0  0  0  0  0  0  0  0  0  0  0
   99.0926   -3.6952   -1.0930 C   0  0  0  0  0  0  0  0  0  0  0  0
   97.8297   -3.0389   -0.9123 C   0  0  0  0  0  0  0  0  0  0  0  0
   98.0332   -1.7360   -0.5790 N   0  0  0  0  0  0  0  0  0  0  0  0
   96.5784   -3.6581   -1.0588 C   0  0  0  0  0  0  0  0  0  0  0  0
   96.5650   -5.0267   -1.4101 C   0  0  0  0  0  0  0  0  0  0  0  0
   96.5516   -6.2016   -1.7131 C   0  0  0  0  0  0  0  0  0  0  0  0
   96.5326   -7.5702   -2.0668 C   0  0  0  0  0  0  0  0  0  0  0  0
   95.3255   -8.2578   -2.2395 C   0  0  0  0  0  0  0  0  0  0  0  0
   95.3604   -9.5966   -2.5863 C   0  0  0  0  0  0  0  0  0  0  0  0
   96.4926  -10.2723   -2.7661 N   0  0  0  0  0  0  0  0  0  0  0  0
   97.6443   -9.6258   -2.6036 C   0  0  0  0  0  0  0  0  0  0  0  0
   97.7188   -8.2884   -2.2577 C   0  0  0  0  0  0  0  0  0  0  0  0
   95.3392   -3.0233   -0.8851 C   0  0  0  0  0  0  0  0  0  0  0  0
   94.0692   -3.6676   -1.0380 C   0  0  0  0  0  0  0  0  0  0  0  0
   93.1181   -2.7290   -0.7944 C   0  0  0  0  0  0  0  0  0  0  0  0
   95.1513   -1.7129   -0.5518 N   0  0  0  0  0  0  0  0  0  0  0  0
   93.8046   -1.5094   -0.4916 C   0  0  0  0  0  0  0  0  0  0  0  0
   93.1683   -0.2939   -0.1848 C   0  0  0  0  0  0  0  0  0  0  0  0
   93.8269    0.9103    0.1178 C   0  0  0  0  0  0  0  0  0  0  0  0
   93.1637    2.1396    0.4325 C   0  0  0  0  0  0  0  0  0  0  0  0
   94.1326    3.0620    0.6679 C   0  0  0  0  0  0  0  0  0  0  0  0
   95.3902    2.3983    0.4964 C   0  0  0  0  0  0  0  0  0  0  0  0
   95.1773    1.0920    0.1622 N   0  0  0  0  0  0  0  0  0  0  0  0
   96.6418    3.0133    0.6524 C   0  0  0  0  0  0  0  0  0  0  0  0
   96.6579    4.3808    1.0075 C   0  0  0  0  0  0  0  0  0  0  0  0
   96.6765    5.5549    1.3134 C   0  0  0  0  0  0  0  0  0  0  0  0
   96.6996    6.9225    1.6708 C   0  0  0  0  0  0  0  0  0  0  0  0
   95.5153    7.6438    1.8625 C   0  0  0  0  0  0  0  0  0  0  0  0
   95.5935    8.9800    2.2123 C   0  0  0  0  0  0  0  0  0  0  0  0
   96.7470    9.6225    2.3778 N   0  0  0  0  0  0  0  0  0  0  0  0
   97.8773    8.9439    2.1973 C   0  0  0  0  0  0  0  0  0  0  0  0
   97.9085    7.6060    1.8468 C   0  0  0  0  0  0  0  0  0  0  0  0
   97.8811    2.3756    0.4827 C   0  0  0  0  0  0  0  0  0  0  0  0
   99.1565    3.0133    0.6412 C   0  0  0  0  0  0  0  0  0  0  0  0
  100.1027    2.0731    0.3914 C   0  0  0  0  0  0  0  0  0  0  0  0
   99.4095    0.8561    0.0797 C   0  0  0  0  0  0  0  0  0  0  0  0
   98.0596    1.0706    0.1435 N   0  0  0  0  0  0  0  0  0  0  0  0
  101.1075   -0.3542   -0.2469 H   0  0  0  0  0  0  0  0  0  0  0  0
  101.1275   -2.8904   -0.9044 H   0  0  0  0  0  0  0  0  0  0  0  0
   99.2122   -4.7329   -1.3613 H   0  0  0  0  0  0  0  0  0  0  0  0
   94.3805   -7.7460   -2.1031 H   0  0  0  0  0  0  0  0  0  0  0  0
   94.4390  -10.1545   -2.7270 H   0  0  0  0  0  0  0  0  0  0  0  0
   98.5489  -10.2071   -2.7580 H   0  0  0  0  0  0  0  0  0  0  0  0
   98.6786   -7.8010   -2.1357 H   0  0  0  0  0  0  0  0  0  0  0  0
   93.9329   -4.7050   -1.2987 H   0  0  0  0  0  0  0  0  0  0  0  0
   92.0462   -2.8431   -0.8151 H   0  0  0  0  0  0  0  0  0  0  0  0
   92.0938    2.2698    0.4671 H   0  0  0  0  0  0  0  0  0  0  0  0
   94.0163    4.1005    0.9339 H   0  0  0  0  0  0  0  0  0  0  0  0
   94.5542    7.1597    1.7381 H   0  0  0  0  0  0  0  0  0  0  0  0
   94.6906    9.5635    2.3674 H   0  0  0  0  0  0  0  0  0  0  0  0
   98.8002    9.4986    2.3404 H   0  0  0  0  0  0  0  0  0  0  0  0
   98.8522    7.0917    1.7099 H   0  0  0  0  0  0  0  0  0  0  0  0
   99.2962    4.0486    0.9091 H   0  0  0  0  0  0  0  0  0  0  0  0
  101.1757    2.1800    0.4128 H   0  0  0  0  0  0  0  0  0  0  0  0
   45.5702   -0.3264   -0.2109 C   0  0  0  0  0  0  0  0  0  0  0  0
   46.7940   -0.3508   -0.2255 C   0  0  0  0  0  0  0  0  0  0  0  0
   48.1370   -0.3819   -0.2424 C   0  0  0  0  0  0  0  0  0  0  0  0
   49.3667   -0.4131   -0.2635 C   0  0  0  0  0  0  0  0  0  0  0  0
   50.7046   -0.4500   -0.2863 C   0  0  0  0  0  0  0  0  0  0  0  0
   51.9341   -0.4861   -0.3094 C   0  0  0  0  0  0  0  0  0  0  0  0
   53.2766   -0.5250   -0.3359 C   0  0  0  0  0  0  0  0  0  0  0  0
   54.5001   -0.5610   -0.3611 C   0  0  0  0  0  0  0  0  0  0  0  0
   64.1995   -0.5928   -0.3875 C   0  0  0  0  0  0  0  0  0  0  0  0
   65.4240   -0.5764   -0.3752 C   0  0  0  0  0  0  0  0  0  0  0  0
   66.7664   -0.5630   -0.3659 C   0  0  0  0  0  0  0  0  0  0  0  0
   67.9971   -0.5558   -0.3598 C   0  0  0  0  0  0  0  0  0  0  0  0
   69.3348   -0.5529   -0.3575 C   0  0  0  0  0  0  0  0  0  0  0  0
   70.5656   -0.5562   -0.3588 C   0  0  0  0  0  0  0  0  0  0  0  0
   71.9081   -0.5638   -0.3659 C   0  0  0  0  0  0  0  0  0  0  0  0
   73.1328   -0.5758   -0.3749 C   0  0  0  0  0  0  0  0  0  0  0  0
   82.8316   -0.4901   -0.3249 C   0  0  0  0  0  0  0  0  0  0  0  0
   84.0548   -0.4479   -0.2966 C   0  0  0  0  0  0  0  0  0  0  0  0
   85.3972   -0.4071   -0.2704 C   0  0  0  0  0  0  0  0  0  0  0  0
   86.6267   -0.3685   -0.2447 C   0  0  0  0  0  0  0  0  0  0  0  0
   87.9646   -0.3354   -0.2210 C   0  0  0  0  0  0  0  0  0  0  0  0
   89.1946   -0.3105   -0.2011 C   0  0  0  0  0  0  0  0  0  0  0  0
   90.5379   -0.2924   -0.1905 C   0  0  0  0  0  0  0  0  0  0  0  0
   91.7620   -0.2852   -0.1843 C   0  0  0  0  0  0  0  0  0  0  0  0
   59.3498   -0.6393   -0.4188 Cu  0  0  0  0  0  0  0  0  0  0  0  0
   55.9054   -0.5949   -0.3855 C   0  0  0  0  0  0  0  0  0  0  0  0
   56.5528    0.1107   -1.4151 C   0  0  0  0  0  0  0  0  0  0  0  0
   55.8781    0.8367   -2.4484 C   0  0  0  0  0  0  0  0  0  0  0  0
   56.8384    1.3617   -3.2531 C   0  0  0  0  0  0  0  0  0  0  0  0
   58.1014    0.9625   -2.7088 C   0  0  0  0  0  0  0  0  0  0  0  0
   57.9008    0.2030   -1.5932 N   0  0  0  0  0  0  0  0  0  0  0  0
   59.3482    1.3150   -3.2484 C   0  0  0  0  0  0  0  0  0  0  0  0
   59.3459    2.0914   -4.4293 C   0  0  0  0  0  0  0  0  0  0  0  0
   59.3399    2.7448   -5.4517 C   0  0  0  0  0  0  0  0  0  0  0  0
   59.3286    3.5008   -6.6464 C   0  0  0  0  0  0  0  0  0  0  0  0
   60.5186    3.8931   -7.2703 C   0  0  0  0  0  0  0  0  0  0  0  0
   60.4508    4.6266   -8.4415 C   0  0  0  0  0  0  0  0  0  0  0  0
   59.3025    4.9823   -9.0118 N   0  0  0  0  0  0  0  0  0  0  0  0
   58.1668    4.6137   -8.4245 C   0  0  0  0  0  0  0  0  0  0  0  0
   58.1250    3.8798   -7.2525 C   0  0  0  0  0  0  0  0  0  0  0  0
   60.5955    0.9598   -2.7123 C   0  0  0  0  0  0  0  0  0  0  0  0
   61.8579    1.3558   -3.2602 C   0  0  0  0  0  0  0  0  0  0  0  0
   62.8192    0.8255   -2.4600 C   0  0  0  0  0  0  0  0  0  0  0  0
   60.7976    0.1980   -1.5982 N   0  0  0  0  0  0  0  0  0  0  0  0
   62.1456    0.1001   -1.4255 C   0  0  0  0  0  0  0  0  0  0  0  0
   62.7947   -0.6120   -0.4008 C   0  0  0  0  0  0  0  0  0  0  0  0
   62.1465   -1.3527    0.6041 C   0  0  0  0  0  0  0  0  0  0  0  0
   62.8210   -2.0978    1.6238 C   0  0  0  0  0  0  0  0  0  0  0  0
   61.8604   -2.6833    2.3855 C   0  0  0  0  0  0  0  0  0  0  0  0
   60.5975   -2.2919    1.8354 C   0  0  0  0  0  0  0  0  0  0  0  0
   60.7986   -1.4842    0.7540 N   0  0  0  0  0  0  0  0  0  0  0  0
   59.3507   -2.6829    2.3472 C   0  0  0  0  0  0  0  0  0  0  0  0
   59.3495   -3.5464    3.4659 C   0  0  0  0  0  0  0  0  0  0  0  0
   59.3444   -4.2984    4.4182 C   0  0  0  0  0  0  0  0  0  0  0  0
   59.3344   -5.1782    5.5248 C   0  0  0  0  0  0  0  0  0  0  0  0
   58.1316   -5.6250    6.0844 C   0  0  0  0  0  0  0  0  0  0  0  0
   58.1748   -6.4896    7.1635 C   0  0  0  0  0  0  0  0  0  0  0  0
   59.3112   -6.9232    7.7032 N   0  0  0  0  0  0  0  0  0  0  0  0
   60.4589   -6.5027    7.1772 C   0  0  0  0  0  0  0  0  0  0  0  0
   60.5252   -5.6388    6.0987 C   0  0  0  0  0  0  0  0  0  0  0  0
   58.1034   -2.2863    1.8401 C   0  0  0  0  0  0  0  0  0  0  0  0
   56.8409   -2.6714    2.3957 C   0  0  0  0  0  0  0  0  0  0  0  0
   55.8799   -2.0805    1.6389 C   0  0  0  0  0  0  0  0  0  0  0  0
   56.5537   -1.3387    0.6162 C   0  0  0  0  0  0  0  0  0  0  0  0
   57.9018   -1.4775    0.7600 N   0  0  0  0  0  0  0  0  0  0  0  0
   54.8074    0.9248   -2.5402 H   0  0  0  0  0  0  0  0  0  0  0  0
   56.7122    1.9683   -4.1356 H   0  0  0  0  0  0  0  0  0  0  0  0
   61.4759    3.6241   -6.8405 H   0  0  0  0  0  0  0  0  0  0  0  0
   61.3584    4.9436   -8.9473 H   0  0  0  0  0  0  0  0  0  0  0  0
   57.2482    4.9206   -8.9165 H   0  0  0  0  0  0  0  0  0  0  0  0
   57.1774    3.6001   -6.8082 H   0  0  0  0  0  0  0  0  0  0  0  0
   61.9829    1.9638   -4.1419 H   0  0  0  0  0  0  0  0  0  0  0  0
   63.8899    0.9102   -2.5553 H   0  0  0  0  0  0  0  0  0  0  0  0
   63.8918   -2.1613    1.7333 H   0  0  0  0  0  0  0  0  0  0  0  0
   61.9862   -3.3214    3.2455 H   0  0  0  0  0  0  0  0  0  0  0  0
   57.1835   -5.2972    5.6756 H   0  0  0  0  0  0  0  0  0  0  0  0
   57.2569   -6.8524    7.6171 H   0  0  0  0  0  0  0  0  0  0  0  0
   61.3670   -6.8761    7.6418 H   0  0  0  0  0  0  0  0  0  0  0  0
   61.4820   -5.3220    5.7014 H   0  0  0  0  0  0  0  0  0  0  0  0
   56.7155   -3.3095    3.2558 H   0  0  0  0  0  0  0  0  0  0  0  0
   54.8093   -2.1386    1.7530 H   0  0  0  0  0  0  0  0  0  0  0  0
   77.9827   -0.5970   -0.3961 Cu  0  0  0  0  0  0  0  0  0  0  0  0
   74.5376   -0.5886   -0.3857 C   0  0  0  0  0  0  0  0  0  0  0  0
   75.1851    0.1301   -1.4069 C   0  0  0  0  0  0  0  0  0  0  0  0
   74.5098    0.8547   -2.4408 C   0  0  0  0  0  0  0  0  0  0  0  0
   75.4700    1.3939   -3.2364 C   0  0  0  0  0  0  0  0  0  0  0  0
   76.7333    1.0043   -2.6862 C   0  0  0  0  0  0  0  0  0  0  0  0
   76.5329    0.2369   -1.5756 N   0  0  0  0  0  0  0  0  0  0  0  0
   77.9798    1.3713   -3.2161 C   0  0  0  0  0  0  0  0  0  0  0  0
   77.9805    2.1539   -4.3929 C   0  0  0  0  0  0  0  0  0  0  0  0
   77.9855    2.8132   -5.4115 C   0  0  0  0  0  0  0  0  0  0  0  0
   77.9943    3.5762   -6.6017 C   0  0  0  0  0  0  0  0  0  0  0  0
   79.1965    3.9705   -7.2008 C   0  0  0  0  0  0  0  0  0  0  0  0
   79.1521    4.7119   -8.3680 C   0  0  0  0  0  0  0  0  0  0  0  0
   78.0151    5.0735   -8.9572 N   0  0  0  0  0  0  0  0  0  0  0  0
   76.8681    4.7030   -8.3937 C   0  0  0  0  0  0  0  0  0  0  0  0
   76.8030    3.9613   -7.2275 C   0  0  0  0  0  0  0  0  0  0  0  0
   79.2273    1.0260   -2.6733 C   0  0  0  0  0  0  0  0  0  0  0  0
   80.4892    1.4384   -3.2103 C   0  0  0  0  0  0  0  0  0  0  0  0
   81.4505    0.9158   -2.4053 C   0  0  0  0  0  0  0  0  0  0  0  0
   79.4297    0.2613   -1.5616 N   0  0  0  0  0  0  0  0  0  0  0  0
   80.7776    0.1781   -1.3791 C   0  0  0  0  0  0  0  0  0  0  0  0
   81.4267   -0.5319   -0.3536 C   0  0  0  0  0  0  0  0  0  0  0  0
   80.7803   -1.2879    0.6403 C   0  0  0  0  0  0  0  0  0  0  0  0
   81.4559   -2.0328    1.6595 C   0  0  0  0  0  0  0  0  0  0  0  0
   80.4965   -2.6322    2.4116 C   0  0  0  0  0  0  0  0  0  0  0  0
   79.2331   -2.2496    1.8564 C   0  0  0  0  0  0  0  0  0  0  0  0
   79.4327   -1.4340    0.7808 N   0  0  0  0  0  0  0  0  0  0  0  0
   77.9868   -2.6533    2.3602 C   0  0  0  0  0  0  0  0  0  0  0  0
   77.9901   -3.5199    3.4766 C   0  0  0  0  0  0  0  0  0  0  0  0
   77.9976   -4.2728    4.4281 C   0  0  0  0  0  0  0  0  0  0  0  0
   78.0081   -5.1534    5.5341 C   0  0  0  0  0  0  0  0  0  0  0  0
   76.8174   -5.6183    6.1047 C   0  0  0  0  0  0  0  0  0  0  0  0
   76.8838   -6.4820    7.1834 C   0  0  0  0  0  0  0  0  0  0  0  0
   78.0316   -6.8983    7.7126 N   0  0  0  0  0  0  0  0  0  0  0  0
   79.1679   -6.4607    7.1760 C   0  0  0  0  0  0  0  0  0  0  0  0
   79.2110   -5.5960    6.0969 C   0  0  0  0  0  0  0  0  0  0  0  0
   76.7390   -2.2658    1.8483 C   0  0  0  0  0  0  0  0  0  0  0  0
   75.4771   -2.6649    2.3950 C   0  0  0  0  0  0  0  0  0  0  0  0
   74.5150   -2.0812    1.6339 C   0  0  0  0  0  0  0  0  0  0  0  0
   75.1876   -1.3293    0.6179 C   0  0  0  0  0  0  0  0  0  0  0  0
   76.5359   -1.4549    0.7696 N   0  0  0  0  0  0  0  0  0  0  0  0
   73.4389    0.9329   -2.5389 H   0  0  0  0  0  0  0  0  0  0  0  0
   75.3436    2.0041   -4.1164 H   0  0  0  0  0  0  0  0  0  0  0  0
   80.1451    3.6966   -6.7549 H   0  0  0  0  0  0  0  0  0  0  0  0
   80.0695    5.0303   -8.8548 H   0  0  0  0  0  0  0  0  0  0  0  0
   75.9595    5.0152   -8.9005 H   0  0  0  0  0  0  0  0  0  0  0  0
   75.8467    3.6806   -6.8029 H   0  0  0  0  0  0  0  0  0  0  0  0
   80.6140    2.0515   -4.0886 H   0  0  0  0  0  0  0  0  0  0  0  0
   82.5209    1.0127   -2.4925 H   0  0  0  0  0  0  0  0  0  0  0  0
   82.5266   -2.0867    1.7749 H   0  0  0  0  0  0  0  0  0  0  0  0
   80.6235   -3.2745    3.2684 H   0  0  0  0  0  0  0  0  0  0  0  0
   75.8606   -5.3049    5.7047 H   0  0  0  0  0  0  0  0  0  0  0  0
   75.9758   -6.8585    7.6456 H   0  0  0  0  0  0  0  0  0  0  0  0
   80.0859   -6.8201    7.6321 H   0  0  0  0  0  0  0  0  0  0  0  0
   80.1591   -5.2648    5.6906 H   0  0  0  0  0  0  0  0  0  0  0  0
   75.3529   -3.3068    3.2525 H   0  0  0  0  0  0  0  0  0  0  0  0
   73.4443   -2.1501    1.7414 H   0  0  0  0  0  0  0  0  0  0  0  0
  2  3  4  0  0  0  0
  3  4  4  0  0  0  0
  4  5  2  0  0  0  0
  5  6  4  0  0  0  0
  1  7  1  0  0  0  0
  3  7  4  0  0  0  0
  6  7  4  0  0  0  0
  6  8  4  0  0  0  0
  8  9  1  0  0  0  0
  9 10  3  0  0  0  0
 10 11  1  0  0  0  0
 11 12  4  0  0  0  0
 12 13  4  0  0  0  0
 13 14  4  0  0  0  0
 14 15  4  0  0  0  0
 11 16  4  0  0  0  0
 15 16  4  0  0  0  0
  8 17  4  0  0  0  0
 17 18  4  0  0  0  0
 18 19  2  0  0  0  0
  1 20  1  0  0  0  0
 17 20  4  0  0  0  0
 19 21  4  0  0  0  0
 20 21  4  0  0  0  0
 21 22  4  0  0  0  0
 22 23  4  0  0  0  0
 23 24  4  0  0  0  0
 24 25  2  0  0  0  0
 25 26  4  0  0  0  0
  1 27  1  0  0  0  0
 23 27  4  0  0  0  0
 26 27  4  0  0  0  0
 26 28  4  0  0  0  0
 28 29  1  0  0  0  0
 29 30  3  0  0  0  0
 30 31  1  0  0  0  0
 31 32  4  0  0  0  0
 32 33  4  0  0  0  0
 33 34  4  0  0  0  0
 34 35  4  0  0  0  0
 31 36  4  0  0  0  0
 35 36  4  0  0  0  0
 28 37  4  0  0  0  0
 37 38  4  0  0  0  0
 38 39  2  0  0  0  0
  2 40  4  0  0  0  0
 39 40  4  0  0  0  0
  1 41  1  0  0  0  0
 37 41  4  0  0  0  0
 40 41  4  0  0  0  0
  2 42  1  0  0  0  0
  4 43  1  0  0  0  0
  5 44  1  0  0  0  0
 12 45  1  0  0  0  0
 13 46  1  0  0  0  0
 15 47  1  0  0  0  0
 16 48  1  0  0  0  0
 18 49  1  0  0  0  0
 19 50  1  0  0  0  0
 24 51  1  0  0  0  0
 25 52  1  0  0  0  0
 32 53  1  0  0  0  0
 33 54  1  0  0  0  0
 35 55  1  0  0  0  0
 36 56  1  0  0  0  0
 38 57  1  0  0  0  0
 39 58  1  0  0  0  0
 60 61  4  0  0  0  0
 61 62  4  0  0  0  0
 62 63  2  0  0  0  0
 63 64  4  0  0  0  0
 59 65  1  0  0  0  0
 61 65  4  0  0  0  0
 64 65  4  0  0  0  0
 64 66  4  0  0  0  0
 66 67  1  0  0  0  0
 67 68  3  0  0  0  0
 68 69  1  0  0  0  0
 69 70  4  0  0  0  0
 70 71  4  0  0  0  0
 71 72  4  0  0  0  0
 72 73  4  0  0  0  0
 69 74  4  0  0  0  0
 73 74  4  0  0  0  0
 66 75  4  0  0  0  0
 75 76  4  0  0  0  0
 76 77  2  0  0  0  0
 59 78  1  0  0  0  0
 75 78  4  0  0  0  0
 77 79  4  0  0  0  0
 78 79  4  0  0  0  0
 79 80  4  0  0  0  0
 80 81  4  0  0  0  0
 81 82  4  0  0  0  0
 82 83  2  0  0  0  0
 83 84  4  0  0  0  0
 59 85  1  0  0  0  0
 81 85  4  0  0  0  0
 84 85  4  0  0  0  0
 84 86  4  0  0  0  0
 86 87  1  0  0  0  0
 87 88  3  0  0  0  0
 88 89  1  0  0  0  0
 89 90  4  0  0  0  0
 90 91  4  0  0  0  0
 91 92  4  0  0  0  0
 92 93  4  0  0  0  0
 89 94  4  0  0  0  0
 93 94  4  0  0  0  0
 86 95  4  0  0  0  0
 95 96  4  0  0  0  0
 96 97  2  0  0  0  0
 60 98  4  0  0  0  0
 97 98  4  0  0  0  0
 59 99  1  0  0  0  0
 95 99  4  0  0  0  0
 98 99  4  0  0  0  0
 60100  1  0  0  0  0
 62101  1  0  0  0  0
 63102  1  0  0  0  0
 70103  1  0  0  0  0
 71104  1  0  0  0  0
 73105  1  0  0  0  0
 74106  1  0  0  0  0
 76107  1  0  0  0  0
 77108  1  0  0  0  0
 82109  1  0  0  0  0
 83110  1  0  0  0  0
 90111  1  0  0  0  0
 91112  1  0  0  0  0
 93113  1  0  0  0  0
 94114  1  0  0  0  0
 96115  1  0  0  0  0
 97116  1  0  0  0  0
 22117  4  0  0  0  0
117118  3  0  0  0  0
118119  4  0  0  0  0
119120  3  0  0  0  0
120121  4  0  0  0  0
121122  3  0  0  0  0
122123  4  0  0  0  0
123124  3  0  0  0  0
125126  3  0  0  0  0
126127  4  0  0  0  0
127128  3  0  0  0  0
128129  4  0  0  0  0
129130  3  0  0  0  0
130131  4  0  0  0  0
131132  3  0  0  0  0
133134  3  0  0  0  0
134135  4  0  0  0  0
135136  3  0  0  0  0
136137  4  0  0  0  0
137138  3  0  0  0  0
138139  4  0  0  0  0
 80140  4  0  0  0  0
139140  3  0  0  0  0
124142  4  0  0  0  0
142143  4  0  0  0  0
143144  4  0  0  0  0
144145  2  0  0  0  0
145146  4  0  0  0  0
141147  1  0  0  0  0
143147  4  0  0  0  0
146147  4  0  0  0  0
146148  4  0  0  0  0
148149  1  0  0  0  0
149150  3  0  0  0  0
150151  1  0  0  0  0
151152  4  0  0  0  0
152153  4  0  0  0  0
153154  4  0  0  0  0
154155  4  0  0  0  0
151156  4  0  0  0  0
155156  4  0  0  0  0
148157  4  0  0  0  0
157158  4  0  0  0  0
158159  2  0  0  0  0
141160  1  0  0  0  0
157160  4  0  0  0  0
159161  4  0  0  0  0
160161  4  0  0  0  0
125162  4  0  0  0  0
161162  4  0  0  0  0
162163  4  0  0  0  0
163164  4  0  0  0  0
164165  2  0  0  0  0
165166  4  0  0  0  0
141167  1  0  0  0  0
163167  4  0  0  0  0
166167  4  0  0  0  0
166168  4  0  0  0  0
168169  1  0  0  0  0
169170  3  0  0  0  0
170171  1  0  0  0  0
171172  4  0  0  0  0
172173  4  0  0  0  0
173174  4  0  0  0  0
174175  4  0  0  0  0
171176  4  0  0  0  0
175176  4  0  0  0  0
168177  4  0  0  0  0
177178  4  0  0  0  0
178179  2  0  0  0  0
142180  4  0  0  0  0
179180  4  0  0  0  0
141181  1  0  0  0  0
177181  4  0  0  0  0
180181  4  0  0  0  0
144182  1  0  0  0  0
145183  1  0  0  0  0
152184  1  0  0  0  0
153185  1  0  0  0  0
155186  1  0  0  0  0
156187  1  0  0  0  0
158188  1  0  0  0  0
159189  1  0  0  0  0
164190  1  0  0  0  0
165191  1  0  0  0  0
172192  1  0  0  0  0
173193  1  0  0  0  0
175194  1  0  0  0  0
176195  1  0  0  0  0
178196  1  0  0  0  0
179197  1  0  0  0  0
132199  4  0  0  0  0
199200  4  0  0  0  0
200201  4  0  0  0  0
201202  2  0  0  0  0
202203  4  0  0  0  0
198204  1  0  0  0  0
200204  4  0  0  0  0
203204  4  0  0  0  0
203205  4  0  0  0  0
205206  1  0  0  0  0
206207  3  0  0  0  0
207208  1  0  0  0  0
208209  4  0  0  0  0
209210  4  0  0  0  0
210211  4  0  0  0  0
211212  4  0  0  0  0
208213  4  0  0  0  0
212213  4  0  0  0  0
205214  4  0  0  0  0
214215  4  0  0  0  0
215216  2  0  0  0  0
198217  1  0  0  0  0
214217  4  0  0  0  0
216218  4  0  0  0  0
217218  4  0  0  0  0
133219  4  0  0  0  0
218219  4  0  0  0  0
219220  4  0  0  0  0
220221  4  0  0  0  0
221222  2  0  0  0  0
222223  4  0  0  0  0
198224  1  0  0  0  0
220224  4  0  0  0  0
223224  4  0  0  0  0
223225  4  0  0  0  0
225226  1  0  0  0  0
226227  3  0  0  0  0
227228  1  0  0  0  0
228229  4  0  0  0  0
229230  4  0  0  0  0
230231  4  0  0  0  0
231232  4  0  0  0  0
228233  4  0  0  0  0
232233  4  0  0  0  0
225234  4  0  0  0  0
234235  4  0  0  0  0
235236  2  0  0  0  0
199237  4  0  0  0  0
236237  4  0  0  0  0
198238  1  0  0  0  0
234238  4  0  0  0  0
237238  4  0  0  0  0
201239  1  0  0  0  0
202240  1  0  0  0  0
209241  1  0  0  0  0
210242  1  0  0  0  0
212243  1  0  0  0  0
213244  1  0  0  0  0
215245  1  0  0  0  0
216246  1  0  0  0  0
221247  1  0  0  0  0
222248  1  0  0  0  0
229249  1  0  0  0  0
230250  1  0  0  0  0
232251  1  0  0  0  0
233252  1  0  0  0  0
235253  1  0  0  0  0
236254  1  0  0  0  0
M  END
