 xtb: 6.5.1 (b24c23e)
          07292222583D

126145  0     0  0            999 V2000
   17.0632    0.0132    0.0539 Co  0  0  0  0  0  0  0  0  0  0  0  0
   13.6929    0.0053    0.2166 C   0  0  0  0  0  0  0  0  0  0  0  0
   14.3414    1.2142    0.0790 C   0  0  0  0  0  0  0  0  0  0  0  0
   13.6731    2.4730   -0.0531 C   0  0  0  0  0  0  0  0  0  0  0  0
   14.6294    3.4290    0.0100 C   0  0  0  0  0  0  0  0  0  0  0  0
   15.8791    2.7526    0.2025 C   0  0  0  0  0  0  0  0  0  0  0  0
   15.6981    1.3932    0.1770 N   0  0  0  0  0  0  0  0  0  0  0  0
   17.0734    3.3882    0.5133 C   0  0  0  0  0  0  0  0  0  0  0  0
   17.0849    4.8589    0.6890 C   0  0  0  0  0  0  0  0  0  0  0  0
   16.2893    5.4639    1.6578 C   0  0  0  0  0  0  0  0  0  0  0  0
   16.3062    6.8483    1.8224 C   0  0  0  0  0  0  0  0  0  0  0  0
   15.4395    7.4336    2.8767 C   0  0  0  0  0  0  0  0  0  0  0  0
   15.5364    8.7675    2.9700 O   0  0  0  0  0  0  0  0  0  0  0  0
   14.7112    6.7931    3.5905 O   0  0  0  0  0  0  0  0  0  0  0  0
   17.1195    7.6393    1.0112 C   0  0  0  0  0  0  0  0  0  0  0  0
   17.9110    7.0392    0.0443 C   0  0  0  0  0  0  0  0  0  0  0  0
   17.8981    5.6609   -0.1156 C   0  0  0  0  0  0  0  0  0  0  0  0
   18.2570    2.6836    0.6796 C   0  0  0  0  0  0  0  0  0  0  0  0
   19.4945    3.2751    1.0904 C   0  0  0  0  0  0  0  0  0  0  0  0
   20.4432    2.3145    0.9764 C   0  0  0  0  0  0  0  0  0  0  0  0
   18.4366    1.3525    0.3834 N   0  0  0  0  0  0  0  0  0  0  0  0
   19.7830    1.1411    0.4985 C   0  0  0  0  0  0  0  0  0  0  0  0
   20.4565   -0.0053    0.0737 C   0  0  0  0  0  0  0  0  0  0  0  0
   19.7734   -1.1366   -0.3778 C   0  0  0  0  0  0  0  0  0  0  0  0
   20.4189   -2.2921   -0.9143 C   0  0  0  0  0  0  0  0  0  0  0  0
   19.4563   -3.2302   -1.0884 C   0  0  0  0  0  0  0  0  0  0  0  0
   18.2273   -2.6478   -0.6405 C   0  0  0  0  0  0  0  0  0  0  0  0
   18.4260   -1.3381   -0.2680 N   0  0  0  0  0  0  0  0  0  0  0  0
   17.0429   -3.3512   -0.4764 C   0  0  0  0  0  0  0  0  0  0  0  0
   17.0275   -4.8092   -0.7373 C   0  0  0  0  0  0  0  0  0  0  0  0
   17.8695   -5.6663   -0.0250 C   0  0  0  0  0  0  0  0  0  0  0  0
   17.8546   -7.0331   -0.2656 C   0  0  0  0  0  0  0  0  0  0  0  0
   17.0028   -7.5608   -1.2214 C   0  0  0  0  0  0  0  0  0  0  0  0
   16.1568   -6.7147   -1.9401 C   0  0  0  0  0  0  0  0  0  0  0  0
   15.2592   -7.3194   -2.9566 C   0  0  0  0  0  0  0  0  0  0  0  0
   14.4739   -6.4280   -3.5778 O   0  0  0  0  0  0  0  0  0  0  0  0
   15.2210   -8.4952   -3.2146 O   0  0  0  0  0  0  0  0  0  0  0  0
   16.1687   -5.3430   -1.6961 C   0  0  0  0  0  0  0  0  0  0  0  0
   15.8722   -2.7291   -0.0631 C   0  0  0  0  0  0  0  0  0  0  0  0
   14.6416   -3.4168    0.1992 C   0  0  0  0  0  0  0  0  0  0  0  0
   13.6989   -2.4675    0.4053 C   0  0  0  0  0  0  0  0  0  0  0  0
   14.3548   -1.2021    0.2727 C   0  0  0  0  0  0  0  0  0  0  0  0
   15.6992   -1.3738    0.0532 N   0  0  0  0  0  0  0  0  0  0  0  0
   12.6106    0.0032    0.2678 H   0  0  0  0  0  0  0  0  0  0  0  0
   12.6080    2.5893   -0.1745 H   0  0  0  0  0  0  0  0  0  0  0  0
   14.5124    4.4984   -0.0579 H   0  0  0  0  0  0  0  0  0  0  0  0
   15.6612    4.8639    2.3072 H   0  0  0  0  0  0  0  0  0  0  0  0
   14.9449    9.0716    3.6775 H   0  0  0  0  0  0  0  0  0  0  0  0
   17.1289    8.7150    1.1386 H   0  0  0  0  0  0  0  0  0  0  0  0
   18.5431    7.6482   -0.5919 H   0  0  0  0  0  0  0  0  0  0  0  0
   18.5117    5.1985   -0.8806 H   0  0  0  0  0  0  0  0  0  0  0  0
   19.6104    4.2936    1.4236 H   0  0  0  0  0  0  0  0  0  0  0  0
   21.4985    2.3813    1.1862 H   0  0  0  0  0  0  0  0  0  0  0  0
   21.4736   -2.3620   -1.1265 H   0  0  0  0  0  0  0  0  0  0  0  0
   19.5589   -4.2278   -1.4833 H   0  0  0  0  0  0  0  0  0  0  0  0
   18.5272   -5.2569    0.7336 H   0  0  0  0  0  0  0  0  0  0  0  0
   18.5103   -7.6865    0.2985 H   0  0  0  0  0  0  0  0  0  0  0  0
   16.9790   -8.6258   -1.4227 H   0  0  0  0  0  0  0  0  0  0  0  0
   13.9217   -6.8999   -4.2223 H   0  0  0  0  0  0  0  0  0  0  0  0
   15.5203   -4.6869   -2.2647 H   0  0  0  0  0  0  0  0  0  0  0  0
   14.5281   -4.4886    0.2195 H   0  0  0  0  0  0  0  0  0  0  0  0
   12.6486   -2.5918    0.6156 H   0  0  0  0  0  0  0  0  0  0  0  0
   27.8797   -0.0301    0.0468 Co  0  0  0  0  0  0  0  0  0  0  0  0
   31.2500   -0.0757    0.2027 C   0  0  0  0  0  0  0  0  0  0  0  0
   30.6014   -1.1735   -0.3217 C   0  0  0  0  0  0  0  0  0  0  0  0
   31.2697   -2.3203   -0.8574 C   0  0  0  0  0  0  0  0  0  0  0  0
   30.3134   -3.2447   -1.1094 C   0  0  0  0  0  0  0  0  0  0  0  0
   29.0637   -2.6681   -0.7066 C   0  0  0  0  0  0  0  0  0  0  0  0
   29.2448   -1.3746   -0.2874 N   0  0  0  0  0  0  0  0  0  0  0  0
   27.8695   -3.3703   -0.6199 C   0  0  0  0  0  0  0  0  0  0  0  0
   27.8579   -4.8179   -0.9334 C   0  0  0  0  0  0  0  0  0  0  0  0
   28.6535   -5.7058   -0.2150 C   0  0  0  0  0  0  0  0  0  0  0  0
   28.6366   -7.0682   -0.5109 C   0  0  0  0  0  0  0  0  0  0  0  0
   29.5032   -7.9653    0.2948 C   0  0  0  0  0  0  0  0  0  0  0  0
   29.4068   -9.2567   -0.0524 O   0  0  0  0  0  0  0  0  0  0  0  0
   30.2313   -7.5928    1.1787 O   0  0  0  0  0  0  0  0  0  0  0  0
   27.8233   -7.5514   -1.5358 C   0  0  0  0  0  0  0  0  0  0  0  0
   27.0317   -6.6687   -2.2540 C   0  0  0  0  0  0  0  0  0  0  0  0
   27.0447   -5.3137   -1.9556 C   0  0  0  0  0  0  0  0  0  0  0  0
   26.6860   -2.7585   -0.2327 C   0  0  0  0  0  0  0  0  0  0  0  0
   25.4484   -3.4517   -0.0372 C   0  0  0  0  0  0  0  0  0  0  0  0
   24.4998   -2.5064    0.1684 C   0  0  0  0  0  0  0  0  0  0  0  0
   26.5063   -1.4036   -0.0788 N   0  0  0  0  0  0  0  0  0  0  0  0
   25.1599   -1.2412    0.0992 C   0  0  0  0  0  0  0  0  0  0  0  0
   24.4864   -0.0190    0.0714 C   0  0  0  0  0  0  0  0  0  0  0  0
   25.1695    1.1977    0.0136 C   0  0  0  0  0  0  0  0  0  0  0  0
   24.5240    2.4650   -0.1168 C   0  0  0  0  0  0  0  0  0  0  0  0
   25.4866    3.4085    0.0246 C   0  0  0  0  0  0  0  0  0  0  0  0
   26.7156    2.7120    0.2582 C   0  0  0  0  0  0  0  0  0  0  0  0
   26.5169    1.3524    0.1830 N   0  0  0  0  0  0  0  0  0  0  0  0
   27.9000    3.3233    0.6429 C   0  0  0  0  0  0  0  0  0  0  0  0
   27.9154    4.7866    0.8718 C   0  0  0  0  0  0  0  0  0  0  0  0
   27.0733    5.3646    1.8247 C   0  0  0  0  0  0  0  0  0  0  0  0
   27.0883    6.7351    2.0430 C   0  0  0  0  0  0  0  0  0  0  0  0
   27.9401    7.5457    1.3116 C   0  0  0  0  0  0  0  0  0  0  0  0
   28.7862    6.9803    0.3563 C   0  0  0  0  0  0  0  0  0  0  0  0
   29.6839    7.8834   -0.4072 C   0  0  0  0  0  0  0  0  0  0  0  0
   30.4692    7.2434   -1.2853 O   0  0  0  0  0  0  0  0  0  0  0  0
   29.7220    9.0791   -0.2676 O   0  0  0  0  0  0  0  0  0  0  0  0
   28.7743    5.6040    0.1397 C   0  0  0  0  0  0  0  0  0  0  0  0
   29.0707    2.6004    0.8307 C   0  0  0  0  0  0  0  0  0  0  0  0
   30.3013    3.1648    1.3031 C   0  0  0  0  0  0  0  0  0  0  0  0
   31.2440    2.2003    1.1880 C   0  0  0  0  0  0  0  0  0  0  0  0
   30.5881    1.0473    0.6499 C   0  0  0  0  0  0  0  0  0  0  0  0
   29.2437    1.2813    0.4982 N   0  0  0  0  0  0  0  0  0  0  0  0
   32.3323   -0.0903    0.2517 H   0  0  0  0  0  0  0  0  0  0  0  0
   32.3348   -2.3906   -1.0102 H   0  0  0  0  0  0  0  0  0  0  0  0
   30.4303   -4.2334   -1.5224 H   0  0  0  0  0  0  0  0  0  0  0  0
   29.2816   -5.3504    0.5946 H   0  0  0  0  0  0  0  0  0  0  0  0
   29.9985   -9.7748    0.5172 H   0  0  0  0  0  0  0  0  0  0  0  0
   27.8139   -8.6098   -1.7661 H   0  0  0  0  0  0  0  0  0  0  0  0
   26.3996   -7.0369   -3.0541 H   0  0  0  0  0  0  0  0  0  0  0  0
   26.4311   -4.6270   -2.5280 H   0  0  0  0  0  0  0  0  0  0  0  0
   25.3325   -4.5232   -0.0543 H   0  0  0  0  0  0  0  0  0  0  0  0
   23.4445   -2.6379    0.3451 H   0  0  0  0  0  0  0  0  0  0  0  0
   23.4694    2.6003   -0.2947 H   0  0  0  0  0  0  0  0  0  0  0  0
   25.3841    4.4804   -0.0232 H   0  0  0  0  0  0  0  0  0  0  0  0
   26.4156    4.7301    2.4081 H   0  0  0  0  0  0  0  0  0  0  0  0
   26.4325    7.1687    2.7893 H   0  0  0  0  0  0  0  0  0  0  0  0
   27.9639    8.6181    1.4687 H   0  0  0  0  0  0  0  0  0  0  0  0
   31.0213    7.8997   -1.7406 H   0  0  0  0  0  0  0  0  0  0  0  0
   29.4227    5.1692   -0.6118 H   0  0  0  0  0  0  0  0  0  0  0  0
   30.4148    4.1713    1.6720 H   0  0  0  0  0  0  0  0  0  0  0  0
   32.2943    2.2492    1.4273 H   0  0  0  0  0  0  0  0  0  0  0  0
   21.8632   -0.0120    0.0782 C   0  0  0  0  0  0  0  0  0  0  0  0
   23.0797   -0.0141    0.0780 C   0  0  0  0  0  0  0  0  0  0  0  0
  2  3  4  0  0  0  0
  3  4  1  0  0  0  0
  4  5  2  0  0  0  0
  5  6  4  0  0  0  0
  1  7  1  0  0  0  0
  3  7  4  0  0  0  0
  6  7  4  0  0  0  0
  6  8  4  0  0  0  0
  8  9  1  0  0  0  0
  9 10  4  0  0  0  0
 10 11  4  0  0  0  0
 11 12  1  0  0  0  0
 12 13  4  0  0  0  0
 12 14  2  0  0  0  0
 11 15  4  0  0  0  0
 15 16  4  0  0  0  0
  9 17  4  0  0  0  0
 16 17  4  0  0  0  0
  8 18  4  0  0  0  0
 18 19  4  0  0  0  0
 19 20  2  0  0  0  0
  1 21  1  0  0  0  0
 18 21  4  0  0  0  0
 20 22  4  0  0  0  0
 21 22  4  0  0  0  0
 22 23  4  0  0  0  0
 23 24  4  0  0  0  0
 24 25  4  0  0  0  0
 25 26  2  0  0  0  0
 26 27  4  0  0  0  0
  1 28  1  0  0  0  0
 24 28  4  0  0  0  0
 27 28  4  0  0  0  0
 27 29  4  0  0  0  0
 29 30  1  0  0  0  0
 30 31  4  0  0  0  0
 31 32  4  0  0  0  0
 32 33  4  0  0  0  0
 33 34  4  0  0  0  0
 34 35  1  0  0  0  0
 35 36  4  0  0  0  0
 35 37  2  0  0  0  0
 30 38  4  0  0  0  0
 34 38  4  0  0  0  0
 29 39  4  0  0  0  0
 39 40  4  0  0  0  0
 40 41  2  0  0  0  0
  2 42  4  0  0  0  0
 41 42  1  0  0  0  0
  1 43  1  0  0  0  0
 39 43  4  0  0  0  0
 42 43  4  0  0  0  0
  2 44  1  0  0  0  0
  4 45  1  0  0  0  0
  5 46  1  0  0  0  0
 10 47  1  0  0  0  0
 13 48  1  0  0  0  0
 15 49  1  0  0  0  0
 16 50  1  0  0  0  0
 17 51  1  0  0  0  0
 19 52  1  0  0  0  0
 20 53  1  0  0  0  0
 25 54  1  0  0  0  0
 26 55  1  0  0  0  0
 31 56  1  0  0  0  0
 32 57  1  0  0  0  0
 33 58  1  0  0  0  0
 36 59  1  0  0  0  0
 38 60  1  0  0  0  0
 40 61  1  0  0  0  0
 41 62  1  0  0  0  0
 64 65  4  0  0  0  0
 65 66  1  0  0  0  0
 66 67  2  0  0  0  0
 67 68  4  0  0  0  0
 63 69  1  0  0  0  0
 65 69  4  0  0  0  0
 68 69  4  0  0  0  0
 68 70  4  0  0  0  0
 70 71  1  0  0  0  0
 71 72  4  0  0  0  0
 72 73  4  0  0  0  0
 73 74  1  0  0  0  0
 74 75  4  0  0  0  0
 74 76  2  0  0  0  0
 73 77  4  0  0  0  0
 77 78  4  0  0  0  0
 71 79  4  0  0  0  0
 78 79  4  0  0  0  0
 70 80  4  0  0  0  0
 80 81  4  0  0  0  0
 81 82  2  0  0  0  0
 63 83  1  0  0  0  0
 80 83  4  0  0  0  0
 82 84  4  0  0  0  0
 83 84  4  0  0  0  0
 84 85  4  0  0  0  0
 85 86  4  0  0  0  0
 86 87  4  0  0  0  0
 87 88  2  0  0  0  0
 88 89  4  0  0  0  0
 63 90  1  0  0  0  0
 86 90  4  0  0  0  0
 89 90  4  0  0  0  0
 89 91  4  0  0  0  0
 91 92  1  0  0  0  0
 92 93  4  0  0  0  0
 93 94  4  0  0  0  0
 94 95  4  0  0  0  0
 95 96  4  0  0  0  0
 96 97  1  0  0  0  0
 97 98  4  0  0  0  0
 97 99  2  0  0  0  0
 92100  4  0  0  0  0
 96100  4  0  0  0  0
 91101  4  0  0  0  0
101102  4  0  0  0  0
102103  2  0  0  0  0
 64104  4  0  0  0  0
103104  1  0  0  0  0
 63105  1  0  0  0  0
101105  4  0  0  0  0
104105  4  0  0  0  0
 64106  1  0  0  0  0
 66107  1  0  0  0  0
 67108  1  0  0  0  0
 72109  1  0  0  0  0
 75110  1  0  0  0  0
 77111  1  0  0  0  0
 78112  1  0  0  0  0
 79113  1  0  0  0  0
 81114  1  0  0  0  0
 82115  1  0  0  0  0
 87116  1  0  0  0  0
 88117  1  0  0  0  0
 93118  1  0  0  0  0
 94119  1  0  0  0  0
 95120  1  0  0  0  0
 98121  1  0  0  0  0
100122  1  0  0  0  0
102123  1  0  0  0  0
103124  1  0  0  0  0
 23125  1  0  0  0  0
 85126  1  0  0  0  0
125126  3  0  0  0  0
M  END
