 xtb: 6.5.1 (b24c23e)
          07302214243D

120139  0     0  0            999 V2000
   16.8821    0.0339    0.0014 Cu  0  0  0  0  0  0  0  0  0  0  0  0
   13.4785    0.0476    0.1417 C   0  0  0  0  0  0  0  0  0  0  0  0
   14.1153    1.2652    0.3287 C   0  0  0  0  0  0  0  0  0  0  0  0
   13.4421    2.5161    0.5326 C   0  0  0  0  0  0  0  0  0  0  0  0
   14.4025    3.4629    0.6728 C   0  0  0  0  0  0  0  0  0  0  0  0
   15.6723    2.7961    0.5668 C   0  0  0  0  0  0  0  0  0  0  0  0
   15.4664    1.4645    0.3503 N   0  0  0  0  0  0  0  0  0  0  0  0
   16.9187    3.4225    0.6480 C   0  0  0  0  0  0  0  0  0  0  0  0
   16.9342    4.8765    0.9397 C   0  0  0  0  0  0  0  0  0  0  0  0
   16.4009    5.3614    2.1364 C   0  0  0  0  0  0  0  0  0  0  0  0
   16.4177    6.7154    2.4185 C   0  0  0  0  0  0  0  0  0  0  0  0
   16.9669    7.6156    1.5005 C   0  0  0  0  0  0  0  0  0  0  0  0
   16.9843    9.0096    1.7883 C   0  0  0  0  0  0  0  0  0  0  0  0
   16.9978   10.1362    2.0226 N   0  0  0  0  0  0  0  0  0  0  0  0
   17.4982    7.1362    0.2995 C   0  0  0  0  0  0  0  0  0  0  0  0
   17.4825    5.7801    0.0266 C   0  0  0  0  0  0  0  0  0  0  0  0
   18.1504    2.7850    0.4833 C   0  0  0  0  0  0  0  0  0  0  0  0
   19.4306    3.4193    0.6258 C   0  0  0  0  0  0  0  0  0  0  0  0
   20.3730    2.4676    0.4075 C   0  0  0  0  0  0  0  0  0  0  0  0
   18.3338    1.4593    0.1927 N   0  0  0  0  0  0  0  0  0  0  0  0
   19.6769    1.2449    0.1401 C   0  0  0  0  0  0  0  0  0  0  0  0
   20.3082    0.0175   -0.1255 C   0  0  0  0  0  0  0  0  0  0  0  0
   19.6474   -1.2024   -0.3510 C   0  0  0  0  0  0  0  0  0  0  0  0
   20.3101   -2.4307   -0.6723 C   0  0  0  0  0  0  0  0  0  0  0  0
   19.3450   -3.3728   -0.8229 C   0  0  0  0  0  0  0  0  0  0  0  0
   18.0851   -2.7271   -0.5830 C   0  0  0  0  0  0  0  0  0  0  0  0
   18.3022   -1.4038   -0.3054 N   0  0  0  0  0  0  0  0  0  0  0  0
   16.8386   -3.3535   -0.6503 C   0  0  0  0  0  0  0  0  0  0  0  0
   16.8175   -4.8075   -0.9417 C   0  0  0  0  0  0  0  0  0  0  0  0
   16.1856   -5.2872   -2.0915 C   0  0  0  0  0  0  0  0  0  0  0  0
   16.1645   -6.6415   -2.3717 C   0  0  0  0  0  0  0  0  0  0  0  0
   16.7745   -7.5472   -1.4987 C   0  0  0  0  0  0  0  0  0  0  0  0
   16.7508   -8.9418   -1.7828 C   0  0  0  0  0  0  0  0  0  0  0  0
   16.7297  -10.0689   -2.0133 N   0  0  0  0  0  0  0  0  0  0  0  0
   17.4062   -7.0728   -0.3452 C   0  0  0  0  0  0  0  0  0  0  0  0
   17.4276   -5.7164   -0.0742 C   0  0  0  0  0  0  0  0  0  0  0  0
   15.6082   -2.7169   -0.4678 C   0  0  0  0  0  0  0  0  0  0  0  0
   14.3285   -3.3731   -0.4715 C   0  0  0  0  0  0  0  0  0  0  0  0
   13.3907   -2.4192   -0.2499 C   0  0  0  0  0  0  0  0  0  0  0  0
   14.0885   -1.1744   -0.0987 C   0  0  0  0  0  0  0  0  0  0  0  0
   15.4316   -1.3843   -0.2317 N   0  0  0  0  0  0  0  0  0  0  0  0
   12.3943    0.0515    0.1869 H   0  0  0  0  0  0  0  0  0  0  0  0
   12.3710    2.6410    0.5528 H   0  0  0  0  0  0  0  0  0  0  0  0
   14.2698    4.5226    0.8210 H   0  0  0  0  0  0  0  0  0  0  0  0
   15.9858    4.6651    2.8564 H   0  0  0  0  0  0  0  0  0  0  0  0
   16.0077    7.0831    3.3518 H   0  0  0  0  0  0  0  0  0  0  0  0
   17.9210    7.8315   -0.4163 H   0  0  0  0  0  0  0  0  0  0  0  0
   17.8847    5.4135   -0.9112 H   0  0  0  0  0  0  0  0  0  0  0  0
   19.5855    4.4563    0.8761 H   0  0  0  0  0  0  0  0  0  0  0  0
   21.4458    2.5728    0.4316 H   0  0  0  0  0  0  0  0  0  0  0  0
   21.3771   -2.5455   -0.7771 H   0  0  0  0  0  0  0  0  0  0  0  0
   19.4708   -4.4102   -1.0871 H   0  0  0  0  0  0  0  0  0  0  0  0
   15.7223   -4.5867   -2.7772 H   0  0  0  0  0  0  0  0  0  0  0  0
   15.6770   -7.0053   -3.2686 H   0  0  0  0  0  0  0  0  0  0  0  0
   17.8769   -7.7724    0.3357 H   0  0  0  0  0  0  0  0  0  0  0  0
   17.9073   -5.3537    0.8280 H   0  0  0  0  0  0  0  0  0  0  0  0
   14.1754   -4.4310   -0.6121 H   0  0  0  0  0  0  0  0  0  0  0  0
   12.3205   -2.5355   -0.1828 H   0  0  0  0  0  0  0  0  0  0  0  0
   30.3415   -0.0330    0.0038 Cu  0  0  0  0  0  0  0  0  0  0  0  0
   33.7453   -0.0392    0.1439 C   0  0  0  0  0  0  0  0  0  0  0  0
   33.1084   -1.2449    0.3965 C   0  0  0  0  0  0  0  0  0  0  0  0
   33.7815   -2.4831    0.6673 C   0  0  0  0  0  0  0  0  0  0  0  0
   32.8211   -3.4208    0.8587 C   0  0  0  0  0  0  0  0  0  0  0  0
   31.5513   -2.7605    0.7173 C   0  0  0  0  0  0  0  0  0  0  0  0
   31.7573   -1.4426    0.4293 N   0  0  0  0  0  0  0  0  0  0  0  0
   30.3050   -3.3816    0.8326 C   0  0  0  0  0  0  0  0  0  0  0  0
   30.2897   -4.8177    1.2025 C   0  0  0  0  0  0  0  0  0  0  0  0
   30.8219   -5.2368    2.4242 C   0  0  0  0  0  0  0  0  0  0  0  0
   30.8054   -6.5736    2.7793 C   0  0  0  0  0  0  0  0  0  0  0  0
   30.2577   -7.5224    1.9109 C   0  0  0  0  0  0  0  0  0  0  0  0
   30.2396   -8.8989    2.2731 C   0  0  0  0  0  0  0  0  0  0  0  0
   30.2253  -10.0113    2.5673 N   0  0  0  0  0  0  0  0  0  0  0  0
   29.7275   -7.1090    0.6851 C   0  0  0  0  0  0  0  0  0  0  0  0
   29.7428   -5.7697    0.3391 C   0  0  0  0  0  0  0  0  0  0  0  0
   29.0732   -2.7541    0.6338 C   0  0  0  0  0  0  0  0  0  0  0  0
   27.7930   -3.3799    0.8100 C   0  0  0  0  0  0  0  0  0  0  0  0
   26.8506   -2.4413    0.5409 C   0  0  0  0  0  0  0  0  0  0  0  0
   28.8897   -1.4459    0.2723 N   0  0  0  0  0  0  0  0  0  0  0  0
   27.5467   -1.2347    0.2081 C   0  0  0  0  0  0  0  0  0  0  0  0
   26.9154   -0.0235   -0.1237 C   0  0  0  0  0  0  0  0  0  0  0  0
   27.5762    1.1823   -0.4152 C   0  0  0  0  0  0  0  0  0  0  0  0
   26.9136    2.3912   -0.8032 C   0  0  0  0  0  0  0  0  0  0  0  0
   27.8788    3.3237   -1.0047 C   0  0  0  0  0  0  0  0  0  0  0  0
   29.1386    2.6921   -0.7297 C   0  0  0  0  0  0  0  0  0  0  0  0
   28.9215    1.3858   -0.3805 N   0  0  0  0  0  0  0  0  0  0  0  0
   30.3851    3.3139   -0.8306 C   0  0  0  0  0  0  0  0  0  0  0  0
   30.4061    4.7500   -1.2005 C   0  0  0  0  0  0  0  0  0  0  0  0
   31.0366    5.1666   -2.3752 C   0  0  0  0  0  0  0  0  0  0  0  0
   31.0575    6.5038   -2.7284 C   0  0  0  0  0  0  0  0  0  0  0  0
   30.4486    7.4555   -1.9050 C   0  0  0  0  0  0  0  0  0  0  0  0
   30.4714    8.8327   -2.2643 C   0  0  0  0  0  0  0  0  0  0  0  0
   30.4908    9.9459   -2.5554 N   0  0  0  0  0  0  0  0  0  0  0  0
   29.8185    7.0444   -0.7266 C   0  0  0  0  0  0  0  0  0  0  0  0
   29.7972    5.7046   -0.3826 C   0  0  0  0  0  0  0  0  0  0  0  0
   31.6155    2.6883   -0.6137 C   0  0  0  0  0  0  0  0  0  0  0  0
   32.8952    3.3434   -0.6532 C   0  0  0  0  0  0  0  0  0  0  0  0
   33.8330    2.4029   -0.3805 C   0  0  0  0  0  0  0  0  0  0  0  0
   33.1353    1.1680   -0.1619 C   0  0  0  0  0  0  0  0  0  0  0  0
   31.7922    1.3705   -0.3058 N   0  0  0  0  0  0  0  0  0  0  0  0
   34.8295   -0.0408    0.1890 H   0  0  0  0  0  0  0  0  0  0  0  0
   34.8526   -2.6069    0.6937 H   0  0  0  0  0  0  0  0  0  0  0  0
   32.9536   -4.4710    1.0639 H   0  0  0  0  0  0  0  0  0  0  0  0
   31.2361   -4.5023    3.1058 H   0  0  0  0  0  0  0  0  0  0  0  0
   31.2146   -6.8898    3.7317 H   0  0  0  0  0  0  0  0  0  0  0  0
   29.3059   -7.8424    0.0076 H   0  0  0  0  0  0  0  0  0  0  0  0
   29.3415   -5.4546   -0.6176 H   0  0  0  0  0  0  0  0  0  0  0  0
   27.6382   -4.4020    1.1155 H   0  0  0  0  0  0  0  0  0  0  0  0
   25.7778   -2.5451    0.5704 H   0  0  0  0  0  0  0  0  0  0  0  0
   25.8467    2.5001   -0.9145 H   0  0  0  0  0  0  0  0  0  0  0  0
   27.7531    4.3452   -1.3250 H   0  0  0  0  0  0  0  0  0  0  0  0
   31.4991    4.4299   -3.0225 H   0  0  0  0  0  0  0  0  0  0  0  0
   31.5437    6.8183   -3.6445 H   0  0  0  0  0  0  0  0  0  0  0  0
   29.3487    7.7799   -0.0841 H   0  0  0  0  0  0  0  0  0  0  0  0
   29.3186    5.3914    0.5384 H   0  0  0  0  0  0  0  0  0  0  0  0
   33.0482    4.3921   -0.8510 H   0  0  0  0  0  0  0  0  0  0  0  0
   34.9032    2.5226   -0.3200 H   0  0  0  0  0  0  0  0  0  0  0  0
   22.9365    0.0001   -0.1735 C   0  0  0  0  0  0  0  0  0  0  0  0
   21.7151    0.0081   -0.1596 C   0  0  0  0  0  0  0  0  0  0  0  0
   24.2872   -0.0088   -0.1733 C   0  0  0  0  0  0  0  0  0  0  0  0
   25.5085   -0.0158   -0.1579 C   0  0  0  0  0  0  0  0  0  0  0  0
  2  3  4  0  0  0  0
  3  4  1  0  0  0  0
  4  5  2  0  0  0  0
  5  6  4  0  0  0  0
  1  7  1  0  0  0  0
  3  7  4  0  0  0  0
  6  7  4  0  0  0  0
  6  8  4  0  0  0  0
  8  9  1  0  0  0  0
  9 10  4  0  0  0  0
 10 11  4  0  0  0  0
 11 12  4  0  0  0  0
 12 13  1  0  0  0  0
 13 14  3  0  0  0  0
 12 15  4  0  0  0  0
  9 16  4  0  0  0  0
 15 16  4  0  0  0  0
  8 17  4  0  0  0  0
 17 18  4  0  0  0  0
 18 19  2  0  0  0  0
  1 20  1  0  0  0  0
 17 20  4  0  0  0  0
 19 21  4  0  0  0  0
 20 21  4  0  0  0  0
 21 22  4  0  0  0  0
 22 23  4  0  0  0  0
 23 24  4  0  0  0  0
 24 25  2  0  0  0  0
 25 26  4  0  0  0  0
  1 27  1  0  0  0  0
 23 27  4  0  0  0  0
 26 27  4  0  0  0  0
 26 28  4  0  0  0  0
 28 29  1  0  0  0  0
 29 30  4  0  0  0  0
 30 31  4  0  0  0  0
 31 32  4  0  0  0  0
 32 33  1  0  0  0  0
 33 34  3  0  0  0  0
 32 35  4  0  0  0  0
 29 36  4  0  0  0  0
 35 36  4  0  0  0  0
 28 37  4  0  0  0  0
 37 38  4  0  0  0  0
 38 39  2  0  0  0  0
  2 40  4  0  0  0  0
 39 40  1  0  0  0  0
  1 41  1  0  0  0  0
 37 41  4  0  0  0  0
 40 41  4  0  0  0  0
  2 42  1  0  0  0  0
  4 43  1  0  0  0  0
  5 44  1  0  0  0  0
 10 45  1  0  0  0  0
 11 46  1  0  0  0  0
 15 47  1  0  0  0  0
 16 48  1  0  0  0  0
 18 49  1  0  0  0  0
 19 50  1  0  0  0  0
 24 51  1  0  0  0  0
 25 52  1  0  0  0  0
 30 53  1  0  0  0  0
 31 54  1  0  0  0  0
 35 55  1  0  0  0  0
 36 56  1  0  0  0  0
 38 57  1  0  0  0  0
 39 58  1  0  0  0  0
 60 61  4  0  0  0  0
 61 62  1  0  0  0  0
 62 63  2  0  0  0  0
 63 64  4  0  0  0  0
 59 65  1  0  0  0  0
 61 65  4  0  0  0  0
 64 65  4  0  0  0  0
 64 66  4  0  0  0  0
 66 67  1  0  0  0  0
 67 68  4  0  0  0  0
 68 69  4  0  0  0  0
 69 70  4  0  0  0  0
 70 71  1  0  0  0  0
 71 72  3  0  0  0  0
 70 73  4  0  0  0  0
 67 74  4  0  0  0  0
 73 74  4  0  0  0  0
 66 75  4  0  0  0  0
 75 76  4  0  0  0  0
 76 77  2  0  0  0  0
 59 78  1  0  0  0  0
 75 78  4  0  0  0  0
 77 79  4  0  0  0  0
 78 79  4  0  0  0  0
 79 80  4  0  0  0  0
 80 81  4  0  0  0  0
 81 82  4  0  0  0  0
 82 83  2  0  0  0  0
 83 84  4  0  0  0  0
 59 85  1  0  0  0  0
 81 85  4  0  0  0  0
 84 85  4  0  0  0  0
 84 86  4  0  0  0  0
 86 87  1  0  0  0  0
 87 88  4  0  0  0  0
 88 89  4  0  0  0  0
 89 90  4  0  0  0  0
 90 91  1  0  0  0  0
 91 92  3  0  0  0  0
 90 93  4  0  0  0  0
 87 94  4  0  0  0  0
 93 94  4  0  0  0  0
 86 95  4  0  0  0  0
 95 96  4  0  0  0  0
 96 97  2  0  0  0  0
 60 98  4  0  0  0  0
 97 98  1  0  0  0  0
 59 99  1  0  0  0  0
 95 99  4  0  0  0  0
 98 99  4  0  0  0  0
 60100  1  0  0  0  0
 62101  1  0  0  0  0
 63102  1  0  0  0  0
 68103  1  0  0  0  0
 69104  1  0  0  0  0
 73105  1  0  0  0  0
 74106  1  0  0  0  0
 76107  1  0  0  0  0
 77108  1  0  0  0  0
 82109  1  0  0  0  0
 83110  1  0  0  0  0
 88111  1  0  0  0  0
 89112  1  0  0  0  0
 93113  1  0  0  0  0
 94114  1  0  0  0  0
 96115  1  0  0  0  0
 97116  1  0  0  0  0
 22118  4  0  0  0  0
117118  3  0  0  0  0
117119  4  0  0  0  0
 80120  4  0  0  0  0
119120  3  0  0  0  0
M  END
