 xtb: 6.5.1 (b24c23e)
          07302205363D

236275  0     0  0            999 V2000
   45.5814    0.6421    0.4382 Cu  0  0  0  0  0  0  0  0  0  0  0  0
   42.1767    0.6016    0.3510 C   0  0  0  0  0  0  0  0  0  0  0  0
   42.8111   -0.6200    0.5221 C   0  0  0  0  0  0  0  0  0  0  0  0
   42.1344   -1.8720    0.7038 C   0  0  0  0  0  0  0  0  0  0  0  0
   43.0922   -2.8204    0.8539 C   0  0  0  0  0  0  0  0  0  0  0  0
   44.3643   -2.1578    0.7538 C   0  0  0  0  0  0  0  0  0  0  0  0
   44.1613   -0.8218    0.5554 N   0  0  0  0  0  0  0  0  0  0  0  0
   45.6076   -2.7830    0.8717 C   0  0  0  0  0  0  0  0  0  0  0  0
   45.6245   -4.2574    1.0426 C   0  0  0  0  0  0  0  0  0  0  0  0
   45.1412   -5.0796    0.0997 C   0  0  0  0  0  0  0  0  0  0  0  0
   45.1331   -6.5779    0.2575 C   0  0  0  0  0  0  0  0  0  0  0  0
   46.0285   -7.0028    1.3370 N   0  0  0  0  0  0  0  0  0  0  0  0
   46.3405   -6.1481    2.3626 C   0  0  0  0  0  0  0  0  0  0  0  0
   46.1988   -4.8149    2.2589 C   0  0  0  0  0  0  0  0  0  0  0  0
   46.8397   -2.1259    0.8379 C   0  0  0  0  0  0  0  0  0  0  0  0
   48.1172   -2.7764    0.9093 C   0  0  0  0  0  0  0  0  0  0  0  0
   49.0636   -1.8089    0.8083 C   0  0  0  0  0  0  0  0  0  0  0  0
   47.0284   -0.7772    0.6932 N   0  0  0  0  0  0  0  0  0  0  0  0
   48.3729   -0.5619    0.6690 C   0  0  0  0  0  0  0  0  0  0  0  0
   49.0067    0.6803    0.5056 C   0  0  0  0  0  0  0  0  0  0  0  0
   48.3519    1.9091    0.3238 C   0  0  0  0  0  0  0  0  0  0  0  0
   49.0196    3.1723    0.2239 C   0  0  0  0  0  0  0  0  0  0  0  0
   48.0565    4.1202    0.0982 C   0  0  0  0  0  0  0  0  0  0  0  0
   46.7920    3.4412    0.1112 C   0  0  0  0  0  0  0  0  0  0  0  0
   47.0050    2.0953    0.2492 N   0  0  0  0  0  0  0  0  0  0  0  0
   45.5476    4.0705    0.0305 C   0  0  0  0  0  0  0  0  0  0  0  0
   45.5366    5.5477   -0.1134 C   0  0  0  0  0  0  0  0  0  0  0  0
   44.9858    6.3380    0.8198 C   0  0  0  0  0  0  0  0  0  0  0  0
   44.9501    7.8387    0.6929 C   0  0  0  0  0  0  0  0  0  0  0  0
   45.8912    8.3073   -0.3282 N   0  0  0  0  0  0  0  0  0  0  0  0
   46.2738    7.4828   -1.3549 C   0  0  0  0  0  0  0  0  0  0  0  0
   46.1579    6.1449   -1.2870 C   0  0  0  0  0  0  0  0  0  0  0  0
   44.3154    3.4147    0.0795 C   0  0  0  0  0  0  0  0  0  0  0  0
   43.0348    4.0479   -0.0828 C   0  0  0  0  0  0  0  0  0  0  0  0
   42.0936    3.0755    0.0072 C   0  0  0  0  0  0  0  0  0  0  0  0
   42.7897    1.8385    0.2164 C   0  0  0  0  0  0  0  0  0  0  0  0
   44.1346    2.0726    0.2560 N   0  0  0  0  0  0  0  0  0  0  0  0
   41.0919    0.5885    0.3221 H   0  0  0  0  0  0  0  0  0  0  0  0
   41.0626   -1.9939    0.7241 H   0  0  0  0  0  0  0  0  0  0  0  0
   42.9566   -3.8753    1.0307 H   0  0  0  0  0  0  0  0  0  0  0  0
   44.7146   -4.7022   -0.8224 H   0  0  0  0  0  0  0  0  0  0  0  0
   45.4701   -7.0580   -0.6713 H   0  0  0  0  0  0  0  0  0  0  0  0
   44.1049   -6.9355    0.4547 H   0  0  0  0  0  0  0  0  0  0  0  0
   45.9384   -7.9784    1.5813 H   0  0  0  0  0  0  0  0  0  0  0  0
   46.7881   -6.6235    3.2296 H   0  0  0  0  0  0  0  0  0  0  0  0
   46.4978   -4.1524    3.0588 H   0  0  0  0  0  0  0  0  0  0  0  0
   48.2664   -3.8391    1.0117 H   0  0  0  0  0  0  0  0  0  0  0  0
   50.1360   -1.9218    0.8156 H   0  0  0  0  0  0  0  0  0  0  0  0
   50.0887    3.3088    0.2598 H   0  0  0  0  0  0  0  0  0  0  0  0
   48.1862    5.1871    0.0144 H   0  0  0  0  0  0  0  0  0  0  0  0
   44.5220    5.9308    1.7108 H   0  0  0  0  0  0  0  0  0  0  0  0
   45.2261    8.3056    1.6481 H   0  0  0  0  0  0  0  0  0  0  0  0
   43.9256    8.1772    0.4486 H   0  0  0  0  0  0  0  0  0  0  0  0
   45.7895    9.2855   -0.5571 H   0  0  0  0  0  0  0  0  0  0  0  0
   46.7535    7.9873   -2.1875 H   0  0  0  0  0  0  0  0  0  0  0  0
   46.5115    5.5073   -2.0849 H   0  0  0  0  0  0  0  0  0  0  0  0
   42.8835    5.1009   -0.2583 H   0  0  0  0  0  0  0  0  0  0  0  0
   41.0218    3.1720   -0.0699 H   0  0  0  0  0  0  0  0  0  0  0  0
   78.2840    0.5307    0.4721 Cu  0  0  0  0  0  0  0  0  0  0  0  0
   81.6880    0.4759    0.4204 C   0  0  0  0  0  0  0  0  0  0  0  0
   81.0852    1.7231    0.4945 C   0  0  0  0  0  0  0  0  0  0  0  0
   81.7924    2.9671    0.6002 C   0  0  0  0  0  0  0  0  0  0  0  0
   80.8585    3.9497    0.6462 C   0  0  0  0  0  0  0  0  0  0  0  0
   79.5714    3.3159    0.5530 C   0  0  0  0  0  0  0  0  0  0  0  0
   79.7411    1.9629    0.4741 N   0  0  0  0  0  0  0  0  0  0  0  0
   78.3437    3.9817    0.5489 C   0  0  0  0  0  0  0  0  0  0  0  0
   78.3585    5.4648    0.6018 C   0  0  0  0  0  0  0  0  0  0  0  0
   78.9191    6.2032   -0.3672 C   0  0  0  0  0  0  0  0  0  0  0  0
   78.9563    7.7088   -0.3196 C   0  0  0  0  0  0  0  0  0  0  0  0
   78.0092    8.2331    0.6683 N   0  0  0  0  0  0  0  0  0  0  0  0
   77.6135    7.4645    1.7325 C   0  0  0  0  0  0  0  0  0  0  0  0
   77.7265    6.1248    1.7358 C   0  0  0  0  0  0  0  0  0  0  0  0
   77.0954    3.3560    0.5044 C   0  0  0  0  0  0  0  0  0  0  0  0
   75.8370    4.0424    0.4309 C   0  0  0  0  0  0  0  0  0  0  0  0
   74.8662    3.0942    0.4059 C   0  0  0  0  0  0  0  0  0  0  0  0
   76.8718    2.0053    0.5098 N   0  0  0  0  0  0  0  0  0  0  0  0
   75.5232    1.8226    0.4599 C   0  0  0  0  0  0  0  0  0  0  0  0
   74.8579    0.5866    0.5033 C   0  0  0  0  0  0  0  0  0  0  0  0
   75.4826   -0.6707    0.5397 C   0  0  0  0  0  0  0  0  0  0  0  0
   74.7855   -1.9195    0.6166 C   0  0  0  0  0  0  0  0  0  0  0  0
   75.7245   -2.8993    0.5877 C   0  0  0  0  0  0  0  0  0  0  0  0
   77.0032   -2.2553    0.4855 C   0  0  0  0  0  0  0  0  0  0  0  0
   76.8234   -0.8979    0.4688 N   0  0  0  0  0  0  0  0  0  0  0  0
   78.2298   -2.9209    0.4238 C   0  0  0  0  0  0  0  0  0  0  0  0
   78.2014   -4.4045    0.4015 C   0  0  0  0  0  0  0  0  0  0  0  0
   78.7726   -5.1354    1.3702 C   0  0  0  0  0  0  0  0  0  0  0  0
   78.7736   -6.6420    1.3558 C   0  0  0  0  0  0  0  0  0  0  0  0
   77.7898   -7.1657    0.4040 N   0  0  0  0  0  0  0  0  0  0  0  0
   77.3800   -6.4099   -0.6640 C   0  0  0  0  0  0  0  0  0  0  0  0
   77.5210   -5.0732   -0.6986 C   0  0  0  0  0  0  0  0  0  0  0  0
   79.4774   -2.2944    0.3768 C   0  0  0  0  0  0  0  0  0  0  0  0
   80.7399   -2.9704    0.2485 C   0  0  0  0  0  0  0  0  0  0  0  0
   81.7058   -2.0181    0.2528 C   0  0  0  0  0  0  0  0  0  0  0  0
   81.0429   -0.7511    0.3705 C   0  0  0  0  0  0  0  0  0  0  0  0
   79.6929   -0.9470    0.4362 N   0  0  0  0  0  0  0  0  0  0  0  0
   82.7730    0.4581    0.4026 H   0  0  0  0  0  0  0  0  0  0  0  0
   82.8662    3.0616    0.6445 H   0  0  0  0  0  0  0  0  0  0  0  0
   81.0197    5.0112    0.7444 H   0  0  0  0  0  0  0  0  0  0  0  0
   79.3900    5.7490   -1.2313 H   0  0  0  0  0  0  0  0  0  0  0  0
   78.6878    8.1246   -1.3004 H   0  0  0  0  0  0  0  0  0  0  0  0
   79.9796    8.0583   -0.0865 H   0  0  0  0  0  0  0  0  0  0  0  0
   78.1118    9.2217    0.8464 H   0  0  0  0  0  0  0  0  0  0  0  0
   77.1268    8.0129    2.5328 H   0  0  0  0  0  0  0  0  0  0  0  0
   77.3617    5.5304    2.5614 H   0  0  0  0  0  0  0  0  0  0  0  0
   75.7168    5.1132    0.3946 H   0  0  0  0  0  0  0  0  0  0  0  0
   73.7982    3.2346    0.3547 H   0  0  0  0  0  0  0  0  0  0  0  0
   73.7145   -2.0244    0.6857 H   0  0  0  0  0  0  0  0  0  0  0  0
   75.5699   -3.9650    0.6382 H   0  0  0  0  0  0  0  0  0  0  0  0
   79.2804   -4.6739    2.2092 H   0  0  0  0  0  0  0  0  0  0  0  0
   78.5216   -7.0301    2.3521 H   0  0  0  0  0  0  0  0  0  0  0  0
   79.7825   -7.0201    1.1046 H   0  0  0  0  0  0  0  0  0  0  0  0
   77.8679   -8.1594    0.2428 H   0  0  0  0  0  0  0  0  0  0  0  0
   76.8592   -6.9637   -1.4387 H   0  0  0  0  0  0  0  0  0  0  0  0
   77.1456   -4.4884   -1.5264 H   0  0  0  0  0  0  0  0  0  0  0  0
   80.8637   -4.0374    0.1553 H   0  0  0  0  0  0  0  0  0  0  0  0
   82.7738   -2.1479    0.1736 H   0  0  0  0  0  0  0  0  0  0  0  0
   50.4184    0.6962    0.5283 C   0  0  0  0  0  0  0  0  0  0  0  0
   51.6340    0.7117    0.5456 C   0  0  0  0  0  0  0  0  0  0  0  0
   61.3227    0.7736    0.6470 C   0  0  0  0  0  0  0  0  0  0  0  0
   62.5401    0.7658    0.6497 C   0  0  0  0  0  0  0  0  0  0  0  0
   72.2311    0.6277    0.5311 C   0  0  0  0  0  0  0  0  0  0  0  0
   73.4467    0.6104    0.5167 C   0  0  0  0  0  0  0  0  0  0  0  0
   56.4780    0.7648    0.6129 Cu  0  0  0  0  0  0  0  0  0  0  0  0
   53.0450    0.7292    0.5664 C   0  0  0  0  0  0  0  0  0  0  0  0
   53.6956    1.5703   -0.3515 C   0  0  0  0  0  0  0  0  0  0  0  0
   53.0261    2.4453   -1.2659 C   0  0  0  0  0  0  0  0  0  0  0  0
   53.9865    3.0414   -2.0182 C   0  0  0  0  0  0  0  0  0  0  0  0
   55.2495    2.5256   -1.5738 C   0  0  0  0  0  0  0  0  0  0  0  0
   55.0409    1.6432   -0.5476 N   0  0  0  0  0  0  0  0  0  0  0  0
   56.4902    2.8619   -2.1187 C   0  0  0  0  0  0  0  0  0  0  0  0
   56.5025    3.7497   -3.3072 C   0  0  0  0  0  0  0  0  0  0  0  0
   55.9114    3.3904   -4.4568 C   0  0  0  0  0  0  0  0  0  0  0  0
   55.9600    4.2484   -5.6935 C   0  0  0  0  0  0  0  0  0  0  0  0
   56.3476    5.6235   -5.3687 N   0  0  0  0  0  0  0  0  0  0  0  0
   57.0867    5.8949   -4.2464 C   0  0  0  0  0  0  0  0  0  0  0  0
   57.1740    5.0379   -3.2139 C   0  0  0  0  0  0  0  0  0  0  0  0
   57.7249    2.4187   -1.6398 C   0  0  0  0  0  0  0  0  0  0  0  0
   58.9893    2.6879   -2.2611 C   0  0  0  0  0  0  0  0  0  0  0  0
   59.9425    2.0992   -1.4941 C   0  0  0  0  0  0  0  0  0  0  0  0
   57.9262    1.6611   -0.5165 N   0  0  0  0  0  0  0  0  0  0  0  0
   59.2686    1.4668   -0.4011 C   0  0  0  0  0  0  0  0  0  0  0  0
   59.9141    0.7773    0.6411 C   0  0  0  0  0  0  0  0  0  0  0  0
   59.2563    0.0901    1.6775 C   0  0  0  0  0  0  0  0  0  0  0  0
   59.9172   -0.5255    2.7874 C   0  0  0  0  0  0  0  0  0  0  0  0
   58.9560   -1.1113    3.5469 C   0  0  0  0  0  0  0  0  0  0  0  0
   57.6998   -0.8629    2.9006 C   0  0  0  0  0  0  0  0  0  0  0  0
   57.9136   -0.1126    1.7741 N   0  0  0  0  0  0  0  0  0  0  0  0
   56.4610   -1.3239    3.3521 C   0  0  0  0  0  0  0  0  0  0  0  0
   56.4493   -2.2162    4.5369 C   0  0  0  0  0  0  0  0  0  0  0  0
   57.0857   -3.3971    4.5368 C   0  0  0  0  0  0  0  0  0  0  0  0
   57.1011   -4.3090    5.7358 C   0  0  0  0  0  0  0  0  0  0  0  0
   56.0595   -3.9393    6.6982 N   0  0  0  0  0  0  0  0  0  0  0  0
   55.5813   -2.6548    6.7474 C   0  0  0  0  0  0  0  0  0  0  0  0
   55.7104   -1.7975    5.7199 C   0  0  0  0  0  0  0  0  0  0  0  0
   55.2285   -1.0077    2.7757 C   0  0  0  0  0  0  0  0  0  0  0  0
   53.9648   -1.5471    3.1893 C   0  0  0  0  0  0  0  0  0  0  0  0
   53.0132   -0.9791    2.4052 C   0  0  0  0  0  0  0  0  0  0  0  0
   53.6889   -0.0945    1.5041 C   0  0  0  0  0  0  0  0  0  0  0  0
   55.0295   -0.1357    1.7392 N   0  0  0  0  0  0  0  0  0  0  0  0
   51.9579    2.5844   -1.3163 H   0  0  0  0  0  0  0  0  0  0  0  0
   53.8567    3.7743   -2.7980 H   0  0  0  0  0  0  0  0  0  0  0  0
   55.4306    2.4260   -4.5731 H   0  0  0  0  0  0  0  0  0  0  0  0
   56.6653    3.8183   -6.4296 H   0  0  0  0  0  0  0  0  0  0  0  0
   54.9715    4.2780   -6.1718 H   0  0  0  0  0  0  0  0  0  0  0  0
   56.5382    6.1962   -6.1783 H   0  0  0  0  0  0  0  0  0  0  0  0
   57.5244    6.8878   -4.2210 H   0  0  0  0  0  0  0  0  0  0  0  0
   57.6977    5.3019   -2.3061 H   0  0  0  0  0  0  0  0  0  0  0  0
   59.1254    3.2421   -3.1760 H   0  0  0  0  0  0  0  0  0  0  0  0
   61.0080    2.0795   -1.6564 H   0  0  0  0  0  0  0  0  0  0  0  0
   60.9796   -0.4946    2.9674 H   0  0  0  0  0  0  0  0  0  0  0  0
   59.0824   -1.6485    4.4729 H   0  0  0  0  0  0  0  0  0  0  0  0
   57.6374   -3.7480    3.6724 H   0  0  0  0  0  0  0  0  0  0  0  0
   58.0942   -4.2818    6.2224 H   0  0  0  0  0  0  0  0  0  0  0  0
   56.9216   -5.3470    5.4242 H   0  0  0  0  0  0  0  0  0  0  0  0
   56.1357   -4.4191    7.5836 H   0  0  0  0  0  0  0  0  0  0  0  0
   55.0185   -2.4138    7.6436 H   0  0  0  0  0  0  0  0  0  0  0  0
   55.2822   -0.8058    5.7564 H   0  0  0  0  0  0  0  0  0  0  0  0
   53.8281   -2.2743    3.9733 H   0  0  0  0  0  0  0  0  0  0  0  0
   51.9473   -1.1412    2.4265 H   0  0  0  0  0  0  0  0  0  0  0  0
   67.3870    0.7097    0.6067 Cu  0  0  0  0  0  0  0  0  0  0  0  0
   63.9489    0.7540    0.6440 C   0  0  0  0  0  0  0  0  0  0  0  0
   64.6036    1.7349   -0.1231 C   0  0  0  0  0  0  0  0  0  0  0  0
   63.9370    2.7888   -0.8259 C   0  0  0  0  0  0  0  0  0  0  0  0
   64.8965    3.5190   -1.4498 C   0  0  0  0  0  0  0  0  0  0  0  0
   66.1577    2.9135   -1.1327 C   0  0  0  0  0  0  0  0  0  0  0  0
   65.9471    1.8334   -0.3164 N   0  0  0  0  0  0  0  0  0  0  0  0
   67.3979    3.3742   -1.5783 C   0  0  0  0  0  0  0  0  0  0  0  0
   67.4045    4.5063   -2.5375 C   0  0  0  0  0  0  0  0  0  0  0  0
   66.8329    4.4003   -3.7467 C   0  0  0  0  0  0  0  0  0  0  0  0
   66.8738    5.5118   -4.7619 C   0  0  0  0  0  0  0  0  0  0  0  0
   67.2384    6.7865   -4.1380 N   0  0  0  0  0  0  0  0  0  0  0  0
   67.9571    6.8152   -2.9710 C   0  0  0  0  0  0  0  0  0  0  0  0
   68.0472    5.7535   -2.1507 C   0  0  0  0  0  0  0  0  0  0  0  0
   68.6356    2.8492   -1.2001 C   0  0  0  0  0  0  0  0  0  0  0  0
   69.9027    3.2826   -1.7153 C   0  0  0  0  0  0  0  0  0  0  0  0
   70.8564    2.5255   -1.1149 C   0  0  0  0  0  0  0  0  0  0  0  0
   68.8355    1.8340   -0.3035 N   0  0  0  0  0  0  0  0  0  0  0  0
   70.1782    1.6201   -0.2368 C   0  0  0  0  0  0  0  0  0  0  0  0
   70.8204    0.6525    0.5531 C   0  0  0  0  0  0  0  0  0  0  0  0
   70.1710   -0.2921    1.3650 C   0  0  0  0  0  0  0  0  0  0  0  0
   70.8465   -1.2166    2.2245 C   0  0  0  0  0  0  0  0  0  0  0  0
   69.8881   -1.9384    2.8599 C   0  0  0  0  0  0  0  0  0  0  0  0
   68.6197   -1.4666    2.3825 C   0  0  0  0  0  0  0  0  0  0  0  0
   68.8247   -0.4602    1.4767 N   0  0  0  0  0  0  0  0  0  0  0  0
   67.3770   -1.9541    2.7937 C   0  0  0  0  0  0  0  0  0  0  0  0
   67.3656   -3.0958    3.7415 C   0  0  0  0  0  0  0  0  0  0  0  0
   67.9029   -4.2830    3.4240 C   0  0  0  0  0  0  0  0  0  0  0  0
   67.9190   -5.4475    4.3797 C   0  0  0  0  0  0  0  0  0  0  0  0
   66.9824   -5.2401    5.4877 N   0  0  0  0  0  0  0  0  0  0  0  0
   66.6098   -3.9742    5.8602 C   0  0  0  0  0  0  0  0  0  0  0  0
   66.7381   -2.9143    5.0430 C   0  0  0  0  0  0  0  0  0  0  0  0
   66.1399   -1.4518    2.3844 C   0  0  0  0  0  0  0  0  0  0  0  0
   64.8706   -2.0189    2.7379 C   0  0  0  0  0  0  0  0  0  0  0  0
   63.9167   -1.2690    2.1295 C   0  0  0  0  0  0  0  0  0  0  0  0
   64.5947   -0.2385    1.4028 C   0  0  0  0  0  0  0  0  0  0  0  0
   65.9394   -0.3705    1.5676 N   0  0  0  0  0  0  0  0  0  0  0  0
   62.8719    2.9542   -0.8242 H   0  0  0  0  0  0  0  0  0  0  0  0
   64.7673    4.4012   -2.0557 H   0  0  0  0  0  0  0  0  0  0  0  0
   66.3737    3.4770   -4.0805 H   0  0  0  0  0  0  0  0  0  0  0  0
   67.5890    5.2659   -5.5694 H   0  0  0  0  0  0  0  0  0  0  0  0
   65.8871    5.6323   -5.2297 H   0  0  0  0  0  0  0  0  0  0  0  0
   67.4311    7.5248   -4.7994 H   0  0  0  0  0  0  0  0  0  0  0  0
   68.3758    7.7848   -2.7208 H   0  0  0  0  0  0  0  0  0  0  0  0
   68.5529    5.8201   -1.1979 H   0  0  0  0  0  0  0  0  0  0  0  0
   70.0404    4.0568   -2.4530 H   0  0  0  0  0  0  0  0  0  0  0  0
   71.9246    2.5612   -1.2587 H   0  0  0  0  0  0  0  0  0  0  0  0
   71.9169   -1.2871    2.3350 H   0  0  0  0  0  0  0  0  0  0  0  0
   70.0250   -2.7106    3.5994 H   0  0  0  0  0  0  0  0  0  0  0  0
   68.3703   -4.4589    2.4621 H   0  0  0  0  0  0  0  0  0  0  0  0
   68.9414   -5.6039    4.7721 H   0  0  0  0  0  0  0  0  0  0  0  0
   67.6283   -6.3694    3.8578 H   0  0  0  0  0  0  0  0  0  0  0  0
   67.0781   -5.9141    6.2335 H   0  0  0  0  0  0  0  0  0  0  0  0
   66.1279   -3.9101    6.8306 H   0  0  0  0  0  0  0  0  0  0  0  0
   66.3911   -1.9331    5.3341 H   0  0  0  0  0  0  0  0  0  0  0  0
   64.7316   -2.8893    3.3586 H   0  0  0  0  0  0  0  0  0  0  0  0
   62.8475   -1.4041    2.1556 H   0  0  0  0  0  0  0  0  0  0  0  0
  2  3  4  0  0  0  0
  3  4  1  0  0  0  0
  4  5  2  0  0  0  0
  5  6  4  0  0  0  0
  1  7  1  0  0  0  0
  3  7  4  0  0  0  0
  6  7  4  0  0  0  0
  6  8  4  0  0  0  0
  8  9  1  0  0  0  0
  9 10  2  0  0  0  0
 10 11  1  0  0  0  0
 11 12  1  0  0  0  0
 12 13  1  0  0  0  0
  9 14  1  0  0  0  0
 13 14  2  0  0  0  0
  8 15  4  0  0  0  0
 15 16  4  0  0  0  0
 16 17  2  0  0  0  0
  1 18  1  0  0  0  0
 15 18  4  0  0  0  0
 17 19  4  0  0  0  0
 18 19  4  0  0  0  0
 19 20  4  0  0  0  0
 20 21  4  0  0  0  0
 21 22  4  0  0  0  0
 22 23  2  0  0  0  0
 23 24  4  0  0  0  0
  1 25  1  0  0  0  0
 21 25  4  0  0  0  0
 24 25  4  0  0  0  0
 24 26  4  0  0  0  0
 26 27  1  0  0  0  0
 27 28  2  0  0  0  0
 28 29  1  0  0  0  0
 29 30  1  0  0  0  0
 30 31  1  0  0  0  0
 27 32  1  0  0  0  0
 31 32  2  0  0  0  0
 26 33  4  0  0  0  0
 33 34  4  0  0  0  0
 34 35  2  0  0  0  0
  2 36  4  0  0  0  0
 35 36  1  0  0  0  0
  1 37  1  0  0  0  0
 33 37  4  0  0  0  0
 36 37  4  0  0  0  0
  2 38  1  0  0  0  0
  4 39  1  0  0  0  0
  5 40  1  0  0  0  0
 10 41  1  0  0  0  0
 11 42  1  0  0  0  0
 11 43  1  0  0  0  0
 12 44  1  0  0  0  0
 13 45  1  0  0  0  0
 14 46  1  0  0  0  0
 16 47  1  0  0  0  0
 17 48  1  0  0  0  0
 22 49  1  0  0  0  0
 23 50  1  0  0  0  0
 28 51  1  0  0  0  0
 29 52  1  0  0  0  0
 29 53  1  0  0  0  0
 30 54  1  0  0  0  0
 31 55  1  0  0  0  0
 32 56  1  0  0  0  0
 34 57  1  0  0  0  0
 35 58  1  0  0  0  0
 60 61  4  0  0  0  0
 61 62  1  0  0  0  0
 62 63  2  0  0  0  0
 63 64  4  0  0  0  0
 59 65  1  0  0  0  0
 61 65  4  0  0  0  0
 64 65  4  0  0  0  0
 64 66  4  0  0  0  0
 66 67  1  0  0  0  0
 67 68  2  0  0  0  0
 68 69  1  0  0  0  0
 69 70  1  0  0  0  0
 70 71  1  0  0  0  0
 67 72  1  0  0  0  0
 71 72  2  0  0  0  0
 66 73  4  0  0  0  0
 73 74  4  0  0  0  0
 74 75  2  0  0  0  0
 59 76  1  0  0  0  0
 73 76  4  0  0  0  0
 75 77  4  0  0  0  0
 76 77  4  0  0  0  0
 77 78  4  0  0  0  0
 78 79  4  0  0  0  0
 79 80  4  0  0  0  0
 80 81  2  0  0  0  0
 81 82  4  0  0  0  0
 59 83  1  0  0  0  0
 79 83  4  0  0  0  0
 82 83  4  0  0  0  0
 82 84  4  0  0  0  0
 84 85  1  0  0  0  0
 85 86  2  0  0  0  0
 86 87  1  0  0  0  0
 87 88  1  0  0  0  0
 88 89  1  0  0  0  0
 85 90  1  0  0  0  0
 89 90  2  0  0  0  0
 84 91  4  0  0  0  0
 91 92  4  0  0  0  0
 92 93  2  0  0  0  0
 60 94  4  0  0  0  0
 93 94  1  0  0  0  0
 59 95  1  0  0  0  0
 91 95  4  0  0  0  0
 94 95  4  0  0  0  0
 60 96  1  0  0  0  0
 62 97  1  0  0  0  0
 63 98  1  0  0  0  0
 68 99  1  0  0  0  0
 69100  1  0  0  0  0
 69101  1  0  0  0  0
 70102  1  0  0  0  0
 71103  1  0  0  0  0
 72104  1  0  0  0  0
 74105  1  0  0  0  0
 75106  1  0  0  0  0
 80107  1  0  0  0  0
 81108  1  0  0  0  0
 86109  1  0  0  0  0
 87110  1  0  0  0  0
 87111  1  0  0  0  0
 88112  1  0  0  0  0
 89113  1  0  0  0  0
 90114  1  0  0  0  0
 92115  1  0  0  0  0
 93116  1  0  0  0  0
 20117  4  0  0  0  0
117118  3  0  0  0  0
119120  3  0  0  0  0
 78122  4  0  0  0  0
121122  3  0  0  0  0
118124  4  0  0  0  0
124125  4  0  0  0  0
125126  4  0  0  0  0
126127  2  0  0  0  0
127128  4  0  0  0  0
123129  1  0  0  0  0
125129  4  0  0  0  0
128129  4  0  0  0  0
128130  4  0  0  0  0
130131  1  0  0  0  0
131132  2  0  0  0  0
132133  1  0  0  0  0
133134  1  0  0  0  0
134135  1  0  0  0  0
131136  1  0  0  0  0
135136  2  0  0  0  0
130137  4  0  0  0  0
137138  4  0  0  0  0
138139  2  0  0  0  0
123140  1  0  0  0  0
137140  4  0  0  0  0
139141  4  0  0  0  0
140141  4  0  0  0  0
119142  4  0  0  0  0
141142  4  0  0  0  0
142143  4  0  0  0  0
143144  4  0  0  0  0
144145  2  0  0  0  0
145146  4  0  0  0  0
123147  1  0  0  0  0
143147  4  0  0  0  0
146147  4  0  0  0  0
146148  4  0  0  0  0
148149  1  0  0  0  0
149150  2  0  0  0  0
150151  1  0  0  0  0
151152  1  0  0  0  0
152153  1  0  0  0  0
149154  1  0  0  0  0
153154  2  0  0  0  0
148155  4  0  0  0  0
155156  4  0  0  0  0
156157  2  0  0  0  0
124158  4  0  0  0  0
157158  4  0  0  0  0
123159  1  0  0  0  0
155159  4  0  0  0  0
158159  4  0  0  0  0
126160  1  0  0  0  0
127161  1  0  0  0  0
132162  1  0  0  0  0
133163  1  0  0  0  0
133164  1  0  0  0  0
134165  1  0  0  0  0
135166  1  0  0  0  0
136167  1  0  0  0  0
138168  1  0  0  0  0
139169  1  0  0  0  0
144170  1  0  0  0  0
145171  1  0  0  0  0
150172  1  0  0  0  0
151173  1  0  0  0  0
151174  1  0  0  0  0
152175  1  0  0  0  0
153176  1  0  0  0  0
154177  1  0  0  0  0
156178  1  0  0  0  0
157179  1  0  0  0  0
120181  4  0  0  0  0
181182  4  0  0  0  0
182183  4  0  0  0  0
183184  2  0  0  0  0
184185  4  0  0  0  0
180186  1  0  0  0  0
182186  4  0  0  0  0
185186  4  0  0  0  0
185187  4  0  0  0  0
187188  1  0  0  0  0
188189  2  0  0  0  0
189190  1  0  0  0  0
190191  1  0  0  0  0
191192  1  0  0  0  0
188193  1  0  0  0  0
192193  2  0  0  0  0
187194  4  0  0  0  0
194195  4  0  0  0  0
195196  2  0  0  0  0
180197  1  0  0  0  0
194197  4  0  0  0  0
196198  4  0  0  0  0
197198  4  0  0  0  0
121199  4  0  0  0  0
198199  4  0  0  0  0
199200  4  0  0  0  0
200201  4  0  0  0  0
201202  2  0  0  0  0
202203  4  0  0  0  0
180204  1  0  0  0  0
200204  4  0  0  0  0
203204  4  0  0  0  0
203205  4  0  0  0  0
205206  1  0  0  0  0
206207  2  0  0  0  0
207208  1  0  0  0  0
208209  1  0  0  0  0
209210  1  0  0  0  0
206211  1  0  0  0  0
210211  2  0  0  0  0
205212  4  0  0  0  0
212213  4  0  0  0  0
213214  2  0  0  0  0
181215  4  0  0  0  0
214215  4  0  0  0  0
180216  1  0  0  0  0
212216  4  0  0  0  0
215216  4  0  0  0  0
183217  1  0  0  0  0
184218  1  0  0  0  0
189219  1  0  0  0  0
190220  1  0  0  0  0
190221  1  0  0  0  0
191222  1  0  0  0  0
192223  1  0  0  0  0
193224  1  0  0  0  0
195225  1  0  0  0  0
196226  1  0  0  0  0
201227  1  0  0  0  0
202228  1  0  0  0  0
207229  1  0  0  0  0
208230  1  0  0  0  0
208231  1  0  0  0  0
209232  1  0  0  0  0
210233  1  0  0  0  0
211234  1  0  0  0  0
213235  1  0  0  0  0
214236  1  0  0  0  0
M  END
