778

C 146.600159 -0.038865 -0.037148
C 147.325347 -1.417636 0.006035
C 146.707703 -2.643533 0.099663
C 147.729627 -3.626435 0.070807
C 148.938008 -2.966642 -0.039686
N 148.680963 -1.619101 -0.047410
C 150.371730 -3.636725 -0.161412
C 150.423809 -5.122608 -0.308899
C 150.353168 -5.714864 -1.591056
C 150.242999 -4.868945 -2.832845
C 150.391537 -7.114066 -1.710365
C 150.506067 -7.933109 -0.582030
C 150.510217 -9.424530 -0.724437
C 150.559610 -7.342337 0.684851
C 150.525104 -5.946331 0.836527
C 150.594746 -5.349650 2.218120
C 151.497993 -2.872142 -0.158407
C 152.810902 -3.461573 -0.319163
C 153.712381 -2.487605 -0.303410
N 151.687569 -1.519725 -0.032903
C 153.024676 -1.224525 -0.114946
C 153.696353 -0.043464 -0.048214
C 152.924347 1.324477 0.201206
C 153.494753 2.514781 0.610457
C 152.467295 3.486772 0.668773
C 151.292658 2.863074 0.306953
N 151.573600 1.539293 0.056859
C 149.865235 3.554770 0.202256
C 149.807786 5.045908 0.196342
C 149.942960 5.755768 -1.018812
C 150.139144 5.029632 -2.324067
C 149.883488 7.159401 -1.011478
C 149.702048 7.868996 0.180237
C 149.598208 9.363670 0.168713
C 149.558091 7.160944 1.378173
C 149.618674 5.757774 1.403947
C 149.452779 5.035344 2.715330
C 148.745845 2.789549 0.110239
C 147.416512 3.365376 0.005967
C 146.534708 2.372760 -0.052716
C 147.265363 1.130449 0.003867
N 148.589186 1.431161 0.092975
H 145.519100 -0.038034 -0.111936
H 145.644397 -2.811692 0.169470
H 147.598848 -4.697078 0.111660
H 149.386425 -0.886016 -0.082360
H 149.341631 -4.249445 -2.801368
H 150.174716 -5.490667 -3.732324
H 151.126253 -4.233101 -2.945509
H 150.333005 -7.564453 -2.698099
H 149.485608 -9.807160 -0.690765
H 150.968880 -9.725826 -1.671992
H 151.089159 -9.893039 0.078389
H 150.630924 -7.971264 1.568665
H 149.693535 -4.767224 2.432850
H 150.665424 -6.129519 2.984264
H 151.479610 -4.714236 2.321564
H 153.027388 -4.508030 -0.440275
H 154.771411 -2.637941 -0.405105
H 154.537998 2.676949 0.834424
H 152.572555 4.526540 0.940900
H 150.878992 0.830059 -0.165460
H 150.222987 5.732195 -3.160513
H 151.061485 4.440999 -2.304863
H 149.286292 4.376718 -2.534411
H 149.976333 7.699378 -1.950392
H 150.041433 9.790785 1.073815
H 148.547988 9.665343 0.113250
H 150.131654 9.789763 -0.686919
H 149.394205 7.702957 2.306112
H 149.435155 5.738868 3.555155
H 148.509558 4.481144 2.732303
H 150.287380 4.350698 2.893072
H 147.182954 4.414744 -0.017152
H 145.467574 2.472264 -0.131381
C 274.469116 -0.047495 -0.036928
C 273.743928 1.331688 -0.063882
C 274.361572 2.560759 -0.032685
C 273.339648 3.540924 -0.111463
C 272.131267 2.876368 -0.188277
N 272.388312 1.530176 -0.127498
C 270.697545 3.539397 -0.343905
C 270.645466 5.015863 -0.566727
C 270.716107 5.542184 -1.877330
C 270.826276 4.634240 -3.074517
C 270.677738 6.933513 -2.067604
C 270.563208 7.808849 -0.982358
C 270.559058 9.291104 -1.200388
C 270.509665 7.283234 0.312913
C 270.544171 5.896742 0.535350
C 270.474529 5.371056 1.945486
C 269.571282 2.775956 -0.302041
C 268.258373 3.356453 -0.492550
C 267.356894 2.384545 -0.427312
N 269.381706 1.431667 -0.107959
C 268.044599 1.132677 -0.174891
C 267.372922 -0.043464 -0.048214
C 268.144928 -1.396960 0.270414
C 267.574522 -2.564924 0.739637
C 268.601980 -3.532694 0.847283
C 269.776617 -2.928194 0.454228
N 269.495675 -1.618835 0.137172
C 271.204040 -3.624316 0.384824
C 271.261489 -5.113828 0.454711
C 271.126315 -5.884535 -0.722792
C 270.930131 -5.225681 -2.063267
C 271.185787 -7.285980 -0.644122
C 271.367227 -7.934085 0.582119
C 271.471067 -9.427413 0.646582
C 271.511184 -7.166060 1.742518
C 271.450601 -5.763394 1.696938
C 271.616496 -4.975242 2.969905
C 272.323430 -2.864762 0.254032
C 273.652763 -3.445145 0.179162
C 274.534567 -2.456794 0.070103
C 273.803911 -1.213213 0.063468
N 272.480089 -1.509007 0.167746
H 275.550175 -0.052127 -0.111577
H 275.424877 2.732249 0.028484
H 273.470427 4.612260 -0.125083
H 271.682850 0.796263 -0.125142
H 271.727644 4.017141 -3.011593
H 270.894558 5.209440 -4.004435
H 269.943022 3.993492 -3.154717
H 270.736270 7.333113 -3.076954
H 271.583667 9.674951 -1.186207
H 270.100395 9.543848 -2.162032
H 269.980116 9.799813 -0.422412
H 270.438351 7.956271 1.163617
H 271.375739 4.800297 2.189542
H 270.403851 6.188859 2.670999
H 269.589665 4.741722 2.081093
H 268.041887 4.395402 -0.666695
H 266.297864 2.529518 -0.536517
H 266.531277 -2.715498 0.971557
H 268.496720 -4.557287 1.171908
H 270.190283 -0.921818 -0.120909
H 270.846288 -5.969852 -2.862922
H 270.007790 -4.636833 -2.074008
H 271.782983 -4.584302 -2.306527
H 271.092942 -7.872983 -1.554377
H 271.027842 -9.807971 1.572224
H 272.521287 -9.731515 0.606524
H 270.937621 -9.896446 -0.186286
H 271.675070 -7.660206 2.696807
H 271.634120 -5.635169 3.844404
H 272.559717 -4.420895 2.958688
H 270.781895 -4.282446 3.112618
H 273.886321 -4.494331 0.209412
H 275.601701 -2.560168 -0.003403
C 156.944277 -0.031028 -0.045772
C 155.692007 -0.050209 -0.050121
C 158.257946 -0.031794 -0.043840
C 159.761079 -0.050209 -0.050121
C 170.157552 -0.031028 -0.045772
C 168.905281 -0.050209 -0.050121
C 171.471220 -0.031794 -0.043840
C 172.974354 -0.050209 -0.050121
C 183.370826 -0.031028 -0.045772
C 182.118556 -0.050209 -0.050121
C 184.684494 -0.031794 -0.043840
C 186.187628 -0.050209 -0.050121
C 196.584100 -0.031028 -0.045772
C 195.331830 -0.050209 -0.050121
C 197.897769 -0.031794 -0.043840
C 199.400902 -0.050209 -0.050121
C 209.797375 -0.031028 -0.045772
C 208.545104 -0.050209 -0.050121
C 211.111043 -0.031794 -0.043840
C 212.614177 -0.050209 -0.050121
C 223.010649 -0.031028 -0.045772
C 221.758379 -0.050209 -0.050121
C 224.324317 -0.031794 -0.043840
C 225.827451 -0.050209 -0.050121
C 236.223924 -0.031028 -0.045772
C 234.971653 -0.050209 -0.050121
C 237.537592 -0.031794 -0.043840
C 239.040725 -0.050209 -0.050121
C 249.437198 -0.031028 -0.045772
C 248.184927 -0.050209 -0.050121
C 250.750866 -0.031794 -0.043840
C 252.254000 -0.050209 -0.050121
C 262.650472 -0.031028 -0.045772
C 261.398202 -0.050209 -0.050121
C 263.964140 -0.031794 -0.043840
C 265.467274 -0.050209 -0.050121
C 160.698453 0.014066 0.015264
C 161.486841 -0.770932 1.145274
C 160.959334 -1.268640 2.319568
C 161.994846 -1.971659 2.985208
C 163.126376 -1.870826 2.204719
N 162.824874 -1.081412 1.122373
C 164.525442 -2.562220 2.484928
C 164.532812 -3.794261 3.328401
C 164.273025 -5.055229 2.743041
C 163.990523 -5.184045 1.268717
C 164.292584 -6.209089 3.544605
C 164.555627 -6.132724 4.916246
C 164.617034 -7.377353 5.747549
C 164.822618 -4.884345 5.488182
C 164.804153 -3.711565 4.714354
C 165.103802 -2.389569 5.372127
C 165.658026 -2.063667 1.921159
C 166.949836 -2.690528 2.112775
C 167.858641 -1.991452 1.442661
N 165.864171 -0.980423 1.111315
C 167.191890 -0.883907 0.787122
C 167.858790 0.014066 0.015264
C 167.070350 1.202631 -0.676420
C 167.594848 2.417105 -1.069792
C 166.559695 3.135266 -1.719997
C 165.430441 2.343980 -1.691691
N 165.733946 1.200139 -0.995617
C 164.031468 2.677112 -2.360553
C 164.025678 3.624539 -3.514628
C 164.295206 3.153106 -4.820315
C 164.577351 1.695573 -5.079234
C 164.298412 4.056349 -5.896282
C 164.028352 5.415185 -5.700722
C 164.068386 6.369935 -6.855053
C 163.775894 5.878838 -4.405319
C 163.767196 5.000380 -3.308765
C 163.480767 5.540392 -1.931798
C 162.899426 2.072706 -1.910851
C 161.607710 2.315478 -2.518709
C 160.699397 1.591424 -1.874872
C 161.366082 0.850192 -0.822772
N 162.694379 1.176862 -0.897591
H 159.938040 -1.161992 2.651505
H 161.919220 -2.509840 3.918126
H 163.494672 -0.756185 0.430801
H 163.099702 -4.612524 0.993717
H 164.846687 -4.840687 0.681547
H 163.801918 -6.225671 0.990619
H 164.103751 -7.176671 3.086463
H 164.288831 -7.178625 6.772882
H 163.959182 -8.152147 5.341138
H 165.641418 -7.760098 5.772426
H 165.051322 -4.816963 6.548839
H 164.305301 -1.666621 5.178604
H 165.179246 -2.497250 6.460231
H 166.058033 -1.990132 5.015160
H 167.146377 -3.573752 2.694585
H 168.907061 -2.225172 1.405495
H 168.614856 2.743458 -0.930716
H 166.635224 4.110714 -2.176850
H 165.066139 0.481189 -0.731488
H 164.749260 1.508438 -6.143897
H 163.725788 1.078521 -4.777766
H 165.476655 1.374923 -4.545617
H 164.511739 3.688783 -6.897132
H 163.739804 5.880652 -7.778108
H 165.086659 6.744506 -6.994505
H 163.399909 7.220239 -6.683860
H 163.581601 6.935876 -4.241070
H 164.318858 5.344626 -1.254774
H 163.333745 6.626884 -1.954929
H 162.564995 5.099710 -1.526683
H 161.411528 2.968086 -3.350768
H 159.651238 1.574256 -2.110511
C 173.911727 0.014066 0.015264
C 174.700116 -0.770932 1.145274
C 174.172608 -1.268640 2.319568
C 175.208120 -1.971659 2.985208
C 176.339650 -1.870826 2.204719
N 176.038148 -1.081412 1.122373
C 177.738716 -2.562220 2.484928
C 177.746086 -3.794261 3.328401
C 177.486300 -5.055229 2.743041
C 177.203797 -5.184045 1.268717
C 177.505859 -6.209089 3.544605
C 177.768902 -6.132724 4.916246
C 177.830308 -7.377353 5.747549
C 178.035892 -4.884345 5.488182
C 178.017428 -3.711565 4.714354
C 178.317076 -2.389569 5.372127
C 178.871301 -2.063667 1.921159
C 180.163111 -2.690528 2.112775
C 181.071915 -1.991452 1.442661
N 179.077445 -0.980423 1.111315
C 180.405165 -0.883907 0.787122
C 181.072064 0.014066 0.015264
C 180.283624 1.202631 -0.676420
C 180.808122 2.417105 -1.069792
C 179.772970 3.135266 -1.719997
C 178.643715 2.343980 -1.691691
N 178.947221 1.200139 -0.995617
C 177.244742 2.677112 -2.360553
C 177.238953 3.624539 -3.514628
C 177.508481 3.153106 -4.820315
C 177.790625 1.695573 -5.079234
C 177.511686 4.056349 -5.896282
C 177.241627 5.415185 -5.700722
C 177.281660 6.369935 -6.855053
C 176.989169 5.878838 -4.405319
C 176.980471 5.000380 -3.308765
C 176.694042 5.540392 -1.931798
C 176.112700 2.072706 -1.910851
C 174.820984 2.315478 -2.518709
C 173.912672 1.591424 -1.874872
C 174.579357 0.850192 -0.822772
N 175.907653 1.176862 -0.897591
H 173.151314 -1.161992 2.651505
H 175.132494 -2.509840 3.918126
H 176.707946 -0.756185 0.430801
H 176.312977 -4.612524 0.993717
H 178.059961 -4.840687 0.681547
H 177.015192 -6.225671 0.990619
H 177.317026 -7.176671 3.086463
H 177.502105 -7.178625 6.772882
H 177.172456 -8.152147 5.341138
H 178.854692 -7.760098 5.772426
H 178.264597 -4.816963 6.548839
H 177.518576 -1.666621 5.178604
H 178.392520 -2.497250 6.460231
H 179.271307 -1.990132 5.015160
H 180.359652 -3.573752 2.694585
H 182.120335 -2.225172 1.405495
H 181.828130 2.743458 -0.930716
H 179.848499 4.110714 -2.176850
H 178.279413 0.481189 -0.731488
H 177.962535 1.508438 -6.143897
H 176.939062 1.078521 -4.777766
H 178.689929 1.374923 -4.545617
H 177.725013 3.688783 -6.897132
H 176.953078 5.880652 -7.778108
H 178.299933 6.744506 -6.994505
H 176.613184 7.220239 -6.683860
H 176.794875 6.935876 -4.241070
H 177.532132 5.344626 -1.254774
H 176.547020 6.626884 -1.954929
H 175.778269 5.099710 -1.526683
H 174.624802 2.968086 -3.350768
H 172.864512 1.574256 -2.110511
C 187.125002 0.014066 0.015264
C 187.913390 -0.770932 1.145274
C 187.385882 -1.268640 2.319568
C 188.421395 -1.971659 2.985208
C 189.552925 -1.870826 2.204719
N 189.251423 -1.081412 1.122373
C 190.951990 -2.562220 2.484928
C 190.959360 -3.794261 3.328401
C 190.699574 -5.055229 2.743041
C 190.417072 -5.184045 1.268717
C 190.719133 -6.209089 3.544605
C 190.982176 -6.132724 4.916246
C 191.043582 -7.377353 5.747549
C 191.249166 -4.884345 5.488182
C 191.230702 -3.711565 4.714354
C 191.530350 -2.389569 5.372127
C 192.084575 -2.063667 1.921159
C 193.376385 -2.690528 2.112775
C 194.285190 -1.991452 1.442661
N 192.290720 -0.980423 1.111315
C 193.618439 -0.883907 0.787122
C 194.285338 0.014066 0.015264
C 193.496899 1.202631 -0.676420
C 194.021396 2.417105 -1.069792
C 192.986244 3.135266 -1.719997
C 191.856990 2.343980 -1.691691
N 192.160495 1.200139 -0.995617
C 190.458016 2.677112 -2.360553
C 190.452227 3.624539 -3.514628
C 190.721755 3.153106 -4.820315
C 191.003899 1.695573 -5.079234
C 190.724960 4.056349 -5.896282
C 190.454901 5.415185 -5.700722
C 190.494934 6.369935 -6.855053
C 190.202443 5.878838 -4.405319
C 190.193745 5.000380 -3.308765
C 189.907316 5.540392 -1.931798
C 189.325975 2.072706 -1.910851
C 188.034259 2.315478 -2.518709
C 187.125946 1.591424 -1.874872
C 187.792631 0.850192 -0.822772
N 189.120927 1.176862 -0.897591
H 186.364589 -1.161992 2.651505
H 188.345768 -2.509840 3.918126
H 189.921220 -0.756185 0.430801
H 189.526251 -4.612524 0.993717
H 191.273236 -4.840687 0.681547
H 190.228466 -6.225671 0.990619
H 190.530300 -7.176671 3.086463
H 190.715380 -7.178625 6.772882
H 190.385731 -8.152147 5.341138
H 192.067967 -7.760098 5.772426
H 191.477871 -4.816963 6.548839
H 190.731850 -1.666621 5.178604
H 191.605795 -2.497250 6.460231
H 192.484581 -1.990132 5.015160
H 193.572926 -3.573752 2.694585
H 195.333609 -2.225172 1.405495
H 195.041404 2.743458 -0.930716
H 193.061773 4.110714 -2.176850
H 191.492688 0.481189 -0.731488
H 191.175809 1.508438 -6.143897
H 190.152337 1.078521 -4.777766
H 191.903203 1.374923 -4.545617
H 190.938287 3.688783 -6.897132
H 190.166352 5.880652 -7.778108
H 191.513207 6.744506 -6.994505
H 189.826458 7.220239 -6.683860
H 190.008149 6.935876 -4.241070
H 190.745406 5.344626 -1.254774
H 189.760294 6.626884 -1.954929
H 188.991544 5.099710 -1.526683
H 187.838077 2.968086 -3.350768
H 186.077786 1.574256 -2.110511
C 200.338276 0.014066 0.015264
C 201.126664 -0.770932 1.145274
C 200.599157 -1.268640 2.319568
C 201.634669 -1.971659 2.985208
C 202.766199 -1.870826 2.204719
N 202.464697 -1.081412 1.122373
C 204.165265 -2.562220 2.484928
C 204.172635 -3.794261 3.328401
C 203.912848 -5.055229 2.743041
C 203.630346 -5.184045 1.268717
C 203.932408 -6.209089 3.544605
C 204.195451 -6.132724 4.916246
C 204.256857 -7.377353 5.747549
C 204.462441 -4.884345 5.488182
C 204.443976 -3.711565 4.714354
C 204.743625 -2.389569 5.372127
C 205.297849 -2.063667 1.921159
C 206.589659 -2.690528 2.112775
C 207.498464 -1.991452 1.442661
N 205.503994 -0.980423 1.111315
C 206.831713 -0.883907 0.787122
C 207.498613 0.014066 0.015264
C 206.710173 1.202631 -0.676420
C 207.234671 2.417105 -1.069792
C 206.199518 3.135266 -1.719997
C 205.070264 2.343980 -1.691691
N 205.373769 1.200139 -0.995617
C 203.671291 2.677112 -2.360553
C 203.665501 3.624539 -3.514628
C 203.935029 3.153106 -4.820315
C 204.217174 1.695573 -5.079234
C 203.938235 4.056349 -5.896282
C 203.668175 5.415185 -5.700722
C 203.708209 6.369935 -6.855053
C 203.415717 5.878838 -4.405319
C 203.407019 5.000380 -3.308765
C 203.120590 5.540392 -1.931798
C 202.539249 2.072706 -1.910851
C 201.247533 2.315478 -2.518709
C 200.339220 1.591424 -1.874872
C 201.005906 0.850192 -0.822772
N 202.334202 1.176862 -0.897591
H 199.577863 -1.161992 2.651505
H 201.559043 -2.509840 3.918126
H 203.134495 -0.756185 0.430801
H 202.739525 -4.612524 0.993717
H 204.486510 -4.840687 0.681547
H 203.441741 -6.225671 0.990619
H 203.743574 -7.176671 3.086463
H 203.928654 -7.178625 6.772882
H 203.599005 -8.152147 5.341138
H 205.281241 -7.760098 5.772426
H 204.691146 -4.816963 6.548839
H 203.945124 -1.666621 5.178604
H 204.819069 -2.497250 6.460231
H 205.697856 -1.990132 5.015160
H 206.786200 -3.573752 2.694585
H 208.546884 -2.225172 1.405495
H 208.254679 2.743458 -0.930716
H 206.275047 4.110714 -2.176850
H 204.705962 0.481189 -0.731488
H 204.389083 1.508438 -6.143897
H 203.365611 1.078521 -4.777766
H 205.116478 1.374923 -4.545617
H 204.151562 3.688783 -6.897132
H 203.379627 5.880652 -7.778108
H 204.726482 6.744506 -6.994505
H 203.039732 7.220239 -6.683860
H 203.221424 6.935876 -4.241070
H 203.958681 5.344626 -1.254774
H 202.973568 6.626884 -1.954929
H 202.204818 5.099710 -1.526683
H 201.051351 2.968086 -3.350768
H 199.291061 1.574256 -2.110511
C 213.551550 0.014066 0.015264
C 214.339939 -0.770932 1.145274
C 213.812431 -1.268640 2.319568
C 214.847944 -1.971659 2.985208
C 215.979473 -1.870826 2.204719
N 215.677971 -1.081412 1.122373
C 217.378539 -2.562220 2.484928
C 217.385909 -3.794261 3.328401
C 217.126123 -5.055229 2.743041
C 216.843620 -5.184045 1.268717
C 217.145682 -6.209089 3.544605
C 217.408725 -6.132724 4.916246
C 217.470131 -7.377353 5.747549
C 217.675715 -4.884345 5.488182
C 217.657251 -3.711565 4.714354
C 217.956899 -2.389569 5.372127
C 218.511124 -2.063667 1.921159
C 219.802934 -2.690528 2.112775
C 220.711739 -1.991452 1.442661
N 218.717268 -0.980423 1.111315
C 220.044988 -0.883907 0.787122
C 220.711887 0.014066 0.015264
C 219.923447 1.202631 -0.676420
C 220.447945 2.417105 -1.069792
C 219.412793 3.135266 -1.719997
C 218.283539 2.343980 -1.691691
N 218.587044 1.200139 -0.995617
C 216.884565 2.677112 -2.360553
C 216.878776 3.624539 -3.514628
C 217.148304 3.153106 -4.820315
C 217.430448 1.695573 -5.079234
C 217.151509 4.056349 -5.896282
C 216.881450 5.415185 -5.700722
C 216.921483 6.369935 -6.855053
C 216.628992 5.878838 -4.405319
C 216.620294 5.000380 -3.308765
C 216.333865 5.540392 -1.931798
C 215.752523 2.072706 -1.910851
C 214.460807 2.315478 -2.518709
C 213.552495 1.591424 -1.874872
C 214.219180 0.850192 -0.822772
N 215.547476 1.176862 -0.897591
H 212.791138 -1.161992 2.651505
H 214.772317 -2.509840 3.918126
H 216.347769 -0.756185 0.430801
H 215.952800 -4.612524 0.993717
H 217.699784 -4.840687 0.681547
H 216.655015 -6.225671 0.990619
H 216.956849 -7.176671 3.086463
H 217.141928 -7.178625 6.772882
H 216.812279 -8.152147 5.341138
H 218.494515 -7.760098 5.772426
H 217.904420 -4.816963 6.548839
H 217.158399 -1.666621 5.178604
H 218.032344 -2.497250 6.460231
H 218.911130 -1.990132 5.015160
H 219.999475 -3.573752 2.694585
H 221.760158 -2.225172 1.405495
H 221.467953 2.743458 -0.930716
H 219.488322 4.110714 -2.176850
H 217.919236 0.481189 -0.731488
H 217.602358 1.508438 -6.143897
H 216.578885 1.078521 -4.777766
H 218.329752 1.374923 -4.545617
H 217.364836 3.688783 -6.897132
H 216.592901 5.880652 -7.778108
H 217.939756 6.744506 -6.994505
H 216.253007 7.220239 -6.683860
H 216.434698 6.935876 -4.241070
H 217.171955 5.344626 -1.254774
H 216.186843 6.626884 -1.954929
H 215.418092 5.099710 -1.526683
H 214.264625 2.968086 -3.350768
H 212.504335 1.574256 -2.110511
C 226.764825 0.014066 0.015264
C 227.553213 -0.770932 1.145274
C 227.025705 -1.268640 2.319568
C 228.061218 -1.971659 2.985208
C 229.192748 -1.870826 2.204719
N 228.891246 -1.081412 1.122373
C 230.591814 -2.562220 2.484928
C 230.599184 -3.794261 3.328401
C 230.339397 -5.055229 2.743041
C 230.056895 -5.184045 1.268717
C 230.358956 -6.209089 3.544605
C 230.621999 -6.132724 4.916246
C 230.683405 -7.377353 5.747549
C 230.888989 -4.884345 5.488182
C 230.870525 -3.711565 4.714354
C 231.170173 -2.389569 5.372127
C 231.724398 -2.063667 1.921159
C 233.016208 -2.690528 2.112775
C 233.925013 -1.991452 1.442661
N 231.930543 -0.980423 1.111315
C 233.258262 -0.883907 0.787122
C 233.925162 0.014066 0.015264
C 233.136722 1.202631 -0.676420
C 233.661219 2.417105 -1.069792
C 232.626067 3.135266 -1.719997
C 231.496813 2.343980 -1.691691
N 231.800318 1.200139 -0.995617
C 230.097839 2.677112 -2.360553
C 230.092050 3.624539 -3.514628
C 230.361578 3.153106 -4.820315
C 230.643722 1.695573 -5.079234
C 230.364783 4.056349 -5.896282
C 230.094724 5.415185 -5.700722
C 230.134757 6.369935 -6.855053
C 229.842266 5.878838 -4.405319
C 229.833568 5.000380 -3.308765
C 229.547139 5.540392 -1.931798
C 228.965798 2.072706 -1.910851
C 227.674082 2.315478 -2.518709
C 226.765769 1.591424 -1.874872
C 227.432454 0.850192 -0.822772
N 228.760750 1.176862 -0.897591
H 226.004412 -1.161992 2.651505
H 227.985591 -2.509840 3.918126
H 229.561044 -0.756185 0.430801
H 229.166074 -4.612524 0.993717
H 230.913059 -4.840687 0.681547
H 229.868290 -6.225671 0.990619
H 230.170123 -7.176671 3.086463
H 230.355203 -7.178625 6.772882
H 230.025554 -8.152147 5.341138
H 231.707790 -7.760098 5.772426
H 231.117694 -4.816963 6.548839
H 230.371673 -1.666621 5.178604
H 231.245618 -2.497250 6.460231
H 232.124404 -1.990132 5.015160
H 233.212749 -3.573752 2.694585
H 234.973432 -2.225172 1.405495
H 234.681227 2.743458 -0.930716
H 232.701596 4.110714 -2.176850
H 231.132511 0.481189 -0.731488
H 230.815632 1.508438 -6.143897
H 229.792160 1.078521 -4.777766
H 231.543026 1.374923 -4.545617
H 230.578110 3.688783 -6.897132
H 229.806175 5.880652 -7.778108
H 231.153030 6.744506 -6.994505
H 229.466281 7.220239 -6.683860
H 229.647972 6.935876 -4.241070
H 230.385229 5.344626 -1.254774
H 229.400117 6.626884 -1.954929
H 228.631367 5.099710 -1.526683
H 227.477900 2.968086 -3.350768
H 225.717609 1.574256 -2.110511
C 239.978099 0.014066 0.015264
C 240.766487 -0.770932 1.145274
C 240.238980 -1.268640 2.319568
C 241.274492 -1.971659 2.985208
C 242.406022 -1.870826 2.204719
N 242.104520 -1.081412 1.122373
C 243.805088 -2.562220 2.484928
C 243.812458 -3.794261 3.328401
C 243.552671 -5.055229 2.743041
C 243.270169 -5.184045 1.268717
C 243.572231 -6.209089 3.544605
C 243.835274 -6.132724 4.916246
C 243.896680 -7.377353 5.747549
C 244.102264 -4.884345 5.488182
C 244.083799 -3.711565 4.714354
C 244.383448 -2.389569 5.372127
C 244.937672 -2.063667 1.921159
C 246.229483 -2.690528 2.112775
C 247.138287 -1.991452 1.442661
N 245.143817 -0.980423 1.111315
C 246.471536 -0.883907 0.787122
C 247.138436 0.014066 0.015264
C 246.349996 1.202631 -0.676420
C 246.874494 2.417105 -1.069792
C 245.839342 3.135266 -1.719997
C 244.710087 2.343980 -1.691691
N 245.013592 1.200139 -0.995617
C 243.311114 2.677112 -2.360553
C 243.305324 3.624539 -3.514628
C 243.574852 3.153106 -4.820315
C 243.856997 1.695573 -5.079234
C 243.578058 4.056349 -5.896282
C 243.307998 5.415185 -5.700722
C 243.348032 6.369935 -6.855053
C 243.055540 5.878838 -4.405319
C 243.046842 5.000380 -3.308765
C 242.760414 5.540392 -1.931798
C 242.179072 2.072706 -1.910851
C 240.887356 2.315478 -2.518709
C 239.979043 1.591424 -1.874872
C 240.645729 0.850192 -0.822772
N 241.974025 1.176862 -0.897591
H 239.217686 -1.161992 2.651505
H 241.198866 -2.509840 3.918126
H 242.774318 -0.756185 0.430801
H 242.379348 -4.612524 0.993717
H 244.126333 -4.840687 0.681547
H 243.081564 -6.225671 0.990619
H 243.383398 -7.176671 3.086463
H 243.568477 -7.178625 6.772882
H 243.238828 -8.152147 5.341138
H 244.921064 -7.760098 5.772426
H 244.330969 -4.816963 6.548839
H 243.584947 -1.666621 5.178604
H 244.458892 -2.497250 6.460231
H 245.337679 -1.990132 5.015160
H 246.426023 -3.573752 2.694585
H 248.186707 -2.225172 1.405495
H 247.894502 2.743458 -0.930716
H 245.914870 4.110714 -2.176850
H 244.345785 0.481189 -0.731488
H 244.028906 1.508438 -6.143897
H 243.005434 1.078521 -4.777766
H 244.756301 1.374923 -4.545617
H 243.791385 3.688783 -6.897132
H 243.019450 5.880652 -7.778108
H 244.366305 6.744506 -6.994505
H 242.679555 7.220239 -6.683860
H 242.861247 6.935876 -4.241070
H 243.598504 5.344626 -1.254774
H 242.613391 6.626884 -1.954929
H 241.844641 5.099710 -1.526683
H 240.691174 2.968086 -3.350768
H 238.930884 1.574256 -2.110511
C 253.191373 0.014066 0.015264
C 253.979762 -0.770932 1.145274
C 253.452254 -1.268640 2.319568
C 254.487767 -1.971659 2.985208
C 255.619296 -1.870826 2.204719
N 255.317794 -1.081412 1.122373
C 257.018362 -2.562220 2.484928
C 257.025732 -3.794261 3.328401
C 256.765946 -5.055229 2.743041
C 256.483443 -5.184045 1.268717
C 256.785505 -6.209089 3.544605
C 257.048548 -6.132724 4.916246
C 257.109954 -7.377353 5.747549
C 257.315538 -4.884345 5.488182
C 257.297074 -3.711565 4.714354
C 257.596722 -2.389569 5.372127
C 258.150947 -2.063667 1.921159
C 259.442757 -2.690528 2.112775
C 260.351562 -1.991452 1.442661
N 258.357091 -0.980423 1.111315
C 259.684811 -0.883907 0.787122
C 260.351710 0.014066 0.015264
C 259.563270 1.202631 -0.676420
C 260.087768 2.417105 -1.069792
C 259.052616 3.135266 -1.719997
C 257.923362 2.343980 -1.691691
N 258.226867 1.200139 -0.995617
C 256.524388 2.677112 -2.360553
C 256.518599 3.624539 -3.514628
C 256.788127 3.153106 -4.820315
C 257.070271 1.695573 -5.079234
C 256.791332 4.056349 -5.896282
C 256.521273 5.415185 -5.700722
C 256.561306 6.369935 -6.855053
C 256.268815 5.878838 -4.405319
C 256.260117 5.000380 -3.308765
C 255.973688 5.540392 -1.931798
C 255.392346 2.072706 -1.910851
C 254.100630 2.315478 -2.518709
C 253.192318 1.591424 -1.874872
C 253.859003 0.850192 -0.822772
N 255.187299 1.176862 -0.897591
H 252.430961 -1.161992 2.651505
H 254.412140 -2.509840 3.918126
H 255.987592 -0.756185 0.430801
H 255.592623 -4.612524 0.993717
H 257.339608 -4.840687 0.681547
H 256.294838 -6.225671 0.990619
H 256.596672 -7.176671 3.086463
H 256.781751 -7.178625 6.772882
H 256.452103 -8.152147 5.341138
H 258.134338 -7.760098 5.772426
H 257.544243 -4.816963 6.548839
H 256.798222 -1.666621 5.178604
H 257.672167 -2.497250 6.460231
H 258.550953 -1.990132 5.015160
H 259.639298 -3.573752 2.694585
H 261.399981 -2.225172 1.405495
H 261.107776 2.743458 -0.930716
H 259.128145 4.110714 -2.176850
H 257.559059 0.481189 -0.731488
H 257.242181 1.508438 -6.143897
H 256.218708 1.078521 -4.777766
H 257.969575 1.374923 -4.545617
H 257.004659 3.688783 -6.897132
H 256.232724 5.880652 -7.778108
H 257.579579 6.744506 -6.994505
H 255.892830 7.220239 -6.683860
H 256.074521 6.935876 -4.241070
H 256.811778 5.344626 -1.254774
H 255.826666 6.626884 -1.954929
H 255.057915 5.099710 -1.526683
H 253.904448 2.968086 -3.350768
H 252.144158 1.574256 -2.110511
