 xtb: 6.5.1 (b24c23e)
          07302211343D

181210  0     0  0            999 V2000
   33.7886    0.0350    0.0352 Ni  0  0  0  0  0  0  0  0  0  0  0  0
   30.3971    0.0474    0.1528 C   0  0  0  0  0  0  0  0  0  0  0  0
   31.0521    1.2592    0.2234 C   0  0  0  0  0  0  0  0  0  0  0  0
   30.3791    2.5194    0.3068 C   0  0  0  0  0  0  0  0  0  0  0  0
   31.3391    3.4635    0.4440 C   0  0  0  0  0  0  0  0  0  0  0  0
   32.5976    2.7764    0.4605 C   0  0  0  0  0  0  0  0  0  0  0  0
   32.4129    1.4280    0.2857 N   0  0  0  0  0  0  0  0  0  0  0  0
   33.8191    3.4001    0.6799 C   0  0  0  0  0  0  0  0  0  0  0  0
   33.8345    4.8569    0.9510 C   0  0  0  0  0  0  0  0  0  0  0  0
   33.1890    5.3753    2.0757 C   0  0  0  0  0  0  0  0  0  0  0  0
   33.2012    6.7350    2.3303 C   0  0  0  0  0  0  0  0  0  0  0  0
   33.8576    7.6057    1.4554 C   0  0  0  0  0  0  0  0  0  0  0  0
   33.8669    9.0063    1.7108 C   0  0  0  0  0  0  0  0  0  0  0  0
   33.8732   10.1384    1.9162 N   0  0  0  0  0  0  0  0  0  0  0  0
   34.5042    7.0915    0.3275 C   0  0  0  0  0  0  0  0  0  0  0  0
   34.4938    5.7300    0.0830 C   0  0  0  0  0  0  0  0  0  0  0  0
   35.0263    2.7140    0.6632 C   0  0  0  0  0  0  0  0  0  0  0  0
   36.2895    3.3192    0.9590 C   0  0  0  0  0  0  0  0  0  0  0  0
   37.2335    2.3663    0.7694 C   0  0  0  0  0  0  0  0  0  0  0  0
   35.1930    1.3883    0.3330 N   0  0  0  0  0  0  0  0  0  0  0  0
   36.5450    1.1824    0.3641 C   0  0  0  0  0  0  0  0  0  0  0  0
   37.2013    0.0108   -0.0229 C   0  0  0  0  0  0  0  0  0  0  0  0
   36.5159   -1.1463   -0.4027 C   0  0  0  0  0  0  0  0  0  0  0  0
   37.1726   -2.3309   -0.8556 C   0  0  0  0  0  0  0  0  0  0  0  0
   36.2075   -3.2629   -1.0430 C   0  0  0  0  0  0  0  0  0  0  0  0
   34.9642   -2.6473   -0.6898 C   0  0  0  0  0  0  0  0  0  0  0  0
   35.1622   -1.3321   -0.3348 N   0  0  0  0  0  0  0  0  0  0  0  0
   33.7487   -3.3187   -0.6660 C   0  0  0  0  0  0  0  0  0  0  0  0
   33.7311   -4.7686   -0.9702 C   0  0  0  0  0  0  0  0  0  0  0  0
   33.0076   -5.2551   -2.0614 C   0  0  0  0  0  0  0  0  0  0  0  0
   32.9887   -6.6085   -2.3468 C   0  0  0  0  0  0  0  0  0  0  0  0
   33.6923   -7.5054   -1.5375 C   0  0  0  0  0  0  0  0  0  0  0  0
   33.6716   -8.8994   -1.8258 C   0  0  0  0  0  0  0  0  0  0  0  0
   33.6550  -10.0262   -2.0581 N   0  0  0  0  0  0  0  0  0  0  0  0
   34.4158   -7.0236   -0.4426 C   0  0  0  0  0  0  0  0  0  0  0  0
   34.4352   -5.6683   -0.1666 C   0  0  0  0  0  0  0  0  0  0  0  0
   32.5488   -2.6890   -0.3598 C   0  0  0  0  0  0  0  0  0  0  0  0
   31.2891   -3.3678   -0.2674 C   0  0  0  0  0  0  0  0  0  0  0  0
   30.3501   -2.4213   -0.0346 C   0  0  0  0  0  0  0  0  0  0  0  0
   31.0372   -1.1674    0.0238 C   0  0  0  0  0  0  0  0  0  0  0  0
   32.3884   -1.3437   -0.1430 N   0  0  0  0  0  0  0  0  0  0  0  0
   29.3142    0.0506    0.1944 H   0  0  0  0  0  0  0  0  0  0  0  0
   29.3091    2.6447    0.2617 H   0  0  0  0  0  0  0  0  0  0  0  0
   31.2194    4.5316    0.5252 H   0  0  0  0  0  0  0  0  0  0  0  0
   32.6878    4.7016    2.7616 H   0  0  0  0  0  0  0  0  0  0  0  0
   32.7032    7.1299    3.2080 H   0  0  0  0  0  0  0  0  0  0  0  0
   35.0114    7.7641   -0.3542 H   0  0  0  0  0  0  0  0  0  0  0  0
   34.9873    5.3353   -0.7979 H   0  0  0  0  0  0  0  0  0  0  0  0
   36.4251    4.3400    1.2770 H   0  0  0  0  0  0  0  0  0  0  0  0
   38.3023    2.4435    0.8865 H   0  0  0  0  0  0  0  0  0  0  0  0
   38.2359   -2.4215   -1.0077 H   0  0  0  0  0  0  0  0  0  0  0  0
   36.3173   -4.2763   -1.3928 H   0  0  0  0  0  0  0  0  0  0  0  0
   32.4696   -4.5613   -2.6974 H   0  0  0  0  0  0  0  0  0  0  0  0
   32.4297   -6.9783   -3.1984 H   0  0  0  0  0  0  0  0  0  0  0  0
   34.9593   -7.7164    0.1891 H   0  0  0  0  0  0  0  0  0  0  0  0
   34.9875   -5.2993    0.6902 H   0  0  0  0  0  0  0  0  0  0  0  0
   31.1546   -4.4328   -0.3644 H   0  0  0  0  0  0  0  0  0  0  0  0
   29.2854   -2.5408    0.0879 H   0  0  0  0  0  0  0  0  0  0  0  0
   60.6628    0.0036    0.0619 Ni  0  0  0  0  0  0  0  0  0  0  0  0
   64.0553   -0.0026    0.1765 C   0  0  0  0  0  0  0  0  0  0  0  0
   63.4005   -1.2076    0.3223 C   0  0  0  0  0  0  0  0  0  0  0  0
   64.0754   -2.4591    0.4845 C   0  0  0  0  0  0  0  0  0  0  0  0
   63.1163   -3.3964    0.6660 C   0  0  0  0  0  0  0  0  0  0  0  0
   61.8562   -2.7129    0.6301 C   0  0  0  0  0  0  0  0  0  0  0  0
   62.0396   -1.3753    0.3842 N   0  0  0  0  0  0  0  0  0  0  0  0
   60.6336   -3.3307    0.8586 C   0  0  0  0  0  0  0  0  0  0  0  0
   60.6175   -4.7734    1.1974 C   0  0  0  0  0  0  0  0  0  0  0  0
   61.2385   -5.2355    2.3598 C   0  0  0  0  0  0  0  0  0  0  0  0
   61.2207   -6.5812    2.6802 C   0  0  0  0  0  0  0  0  0  0  0  0
   60.5832   -7.4943    1.8351 C   0  0  0  0  0  0  0  0  0  0  0  0
   60.5652   -8.8802    2.1600 C   0  0  0  0  0  0  0  0  0  0  0  0
   60.5493  -10.0004    2.4225 N   0  0  0  0  0  0  0  0  0  0  0  0
   59.9628   -7.0368    0.6688 C   0  0  0  0  0  0  0  0  0  0  0  0
   59.9788   -5.6889    0.3581 C   0  0  0  0  0  0  0  0  0  0  0  0
   59.4243   -2.6514    0.7919 C   0  0  0  0  0  0  0  0  0  0  0  0
   58.1594   -3.2508    1.0932 C   0  0  0  0  0  0  0  0  0  0  0  0
   57.2151   -2.3076    0.8630 C   0  0  0  0  0  0  0  0  0  0  0  0
   59.2580   -1.3389    0.4134 N   0  0  0  0  0  0  0  0  0  0  0  0
   57.9049   -1.1349    0.4279 C   0  0  0  0  0  0  0  0  0  0  0  0
   57.2490    0.0276    0.0175 C   0  0  0  0  0  0  0  0  0  0  0  0
   57.9313    1.1746   -0.3931 C   0  0  0  0  0  0  0  0  0  0  0  0
   57.2700    2.3450   -0.8760 C   0  0  0  0  0  0  0  0  0  0  0  0
   58.2348    3.2637   -1.1201 C   0  0  0  0  0  0  0  0  0  0  0  0
   59.4827    2.6556   -0.7693 C   0  0  0  0  0  0  0  0  0  0  0  0
   59.2869    1.3575   -0.3560 N   0  0  0  0  0  0  0  0  0  0  0  0
   60.7017    3.3196   -0.8076 C   0  0  0  0  0  0  0  0  0  0  0  0
   60.7201    4.7500   -1.1945 C   0  0  0  0  0  0  0  0  0  0  0  0
   61.4138    5.1655   -2.3332 C   0  0  0  0  0  0  0  0  0  0  0  0
   61.4299    6.4992   -2.7004 C   0  0  0  0  0  0  0  0  0  0  0  0
   60.7537    7.4472   -1.9267 C   0  0  0  0  0  0  0  0  0  0  0  0
   60.7707    8.8208   -2.3007 C   0  0  0  0  0  0  0  0  0  0  0  0
   60.7857    9.9307   -2.6035 N   0  0  0  0  0  0  0  0  0  0  0  0
   60.0617    7.0368   -0.7835 C   0  0  0  0  0  0  0  0  0  0  0  0
   60.0450    5.7006   -0.4257 C   0  0  0  0  0  0  0  0  0  0  0  0
   61.9044    2.7011   -0.4908 C   0  0  0  0  0  0  0  0  0  0  0  0
   63.1669    3.3803   -0.4551 C   0  0  0  0  0  0  0  0  0  0  0  0
   64.1057    2.4476   -0.1723 C   0  0  0  0  0  0  0  0  0  0  0  0
   63.4160    1.2018   -0.0292 C   0  0  0  0  0  0  0  0  0  0  0  0
   62.0639    1.3707   -0.1958 N   0  0  0  0  0  0  0  0  0  0  0  0
   65.1382   -0.0036    0.2175 H   0  0  0  0  0  0  0  0  0  0  0  0
   65.1461   -2.5839    0.4561 H   0  0  0  0  0  0  0  0  0  0  0  0
   63.2372   -4.4578    0.8092 H   0  0  0  0  0  0  0  0  0  0  0  0
   61.7241   -4.5285    3.0230 H   0  0  0  0  0  0  0  0  0  0  0  0
   61.6990   -6.9321    3.5871 H   0  0  0  0  0  0  0  0  0  0  0  0
   59.4707   -7.7424    0.0098 H   0  0  0  0  0  0  0  0  0  0  0  0
   59.5051   -5.3382   -0.5518 H   0  0  0  0  0  0  0  0  0  0  0  0
   58.0230   -4.2608    1.4434 H   0  0  0  0  0  0  0  0  0  0  0  0
   56.1454   -2.3837    0.9725 H   0  0  0  0  0  0  0  0  0  0  0  0
   56.2041    2.4348   -1.0098 H   0  0  0  0  0  0  0  0  0  0  0  0
   58.1217    4.2630   -1.5073 H   0  0  0  0  0  0  0  0  0  0  0  0
   61.9301    4.4314   -2.9414 H   0  0  0  0  0  0  0  0  0  0  0  0
   61.9649    6.8137   -3.5888 H   0  0  0  0  0  0  0  0  0  0  0  0
   59.5400    7.7695   -0.1791 H   0  0  0  0  0  0  0  0  0  0  0  0
   59.5168    5.3872    0.4677 H   0  0  0  0  0  0  0  0  0  0  0  0
   63.3025    4.4368   -0.6199 H   0  0  0  0  0  0  0  0  0  0  0  0
   65.1717    2.5712   -0.0672 H   0  0  0  0  0  0  0  0  0  0  0  0
   39.8286   -0.0102   -0.0456 C   0  0  0  0  0  0  0  0  0  0  0  0
   38.6071   -0.0003   -0.0376 C   0  0  0  0  0  0  0  0  0  0  0  0
   41.1791   -0.0113   -0.0525 C   0  0  0  0  0  0  0  0  0  0  0  0
   42.4007   -0.0060   -0.0552 C   0  0  0  0  0  0  0  0  0  0  0  0
   53.2683    0.0470   -0.0115 C   0  0  0  0  0  0  0  0  0  0  0  0
   52.0474    0.0436   -0.0190 C   0  0  0  0  0  0  0  0  0  0  0  0
   54.6203    0.0448   -0.0015 C   0  0  0  0  0  0  0  0  0  0  0  0
   55.8411    0.0385    0.0067 C   0  0  0  0  0  0  0  0  0  0  0  0
   47.2234    0.0217   -0.0467 Ni  0  0  0  0  0  0  0  0  0  0  0  0
   43.8061    0.0018   -0.0556 C   0  0  0  0  0  0  0  0  0  0  0  0
   44.4862   -1.1826   -0.3524 C   0  0  0  0  0  0  0  0  0  0  0  0
   43.8236   -2.4179   -0.6248 C   0  0  0  0  0  0  0  0  0  0  0  0
   44.7847   -3.3040   -0.9813 C   0  0  0  0  0  0  0  0  0  0  0  0
   46.0311   -2.6024   -0.9334 C   0  0  0  0  0  0  0  0  0  0  0  0
   45.8396   -1.3080   -0.5067 N   0  0  0  0  0  0  0  0  0  0  0  0
   47.2452   -3.1541   -1.3204 C   0  0  0  0  0  0  0  0  0  0  0  0
   47.2542   -4.5284   -1.8746 C   0  0  0  0  0  0  0  0  0  0  0  0
   46.5621   -4.8206   -3.0520 C   0  0  0  0  0  0  0  0  0  0  0  0
   46.5717   -6.1013   -3.5748 C   0  0  0  0  0  0  0  0  0  0  0  0
   47.2717   -7.1197   -2.9211 C   0  0  0  0  0  0  0  0  0  0  0  0
   47.2810   -8.4397   -3.4544 C   0  0  0  0  0  0  0  0  0  0  0  0
   47.2888   -9.5065   -3.8857 N   0  0  0  0  0  0  0  0  0  0  0  0
   47.9627   -6.8328   -1.7401 C   0  0  0  0  0  0  0  0  0  0  0  0
   47.9548   -5.5482   -1.2268 C   0  0  0  0  0  0  0  0  0  0  0  0
   48.4514   -2.4750   -1.2093 C   0  0  0  0  0  0  0  0  0  0  0  0
   49.7073   -3.0029   -1.6480 C   0  0  0  0  0  0  0  0  0  0  0  0
   50.6565   -2.1085   -1.2811 C   0  0  0  0  0  0  0  0  0  0  0  0
   48.6252   -1.2438   -0.6200 N   0  0  0  0  0  0  0  0  0  0  0  0
   49.9771   -1.0338   -0.6306 C   0  0  0  0  0  0  0  0  0  0  0  0
   50.6400    0.0381   -0.0284 C   0  0  0  0  0  0  0  0  0  0  0  0
   49.9601    1.1040    0.5656 C   0  0  0  0  0  0  0  0  0  0  0  0
   50.6219    2.1846    1.2241 C   0  0  0  0  0  0  0  0  0  0  0  0
   49.6604    3.0706    1.5792 C   0  0  0  0  0  0  0  0  0  0  0  0
   48.4146    2.5318    1.1249 C   0  0  0  0  0  0  0  0  0  0  0  0
   48.6066    1.3017    0.5388 N   0  0  0  0  0  0  0  0  0  0  0  0
   47.2011    3.2006    1.2199 C   0  0  0  0  0  0  0  0  0  0  0  0
   47.1915    4.5754    1.7719 C   0  0  0  0  0  0  0  0  0  0  0  0
   46.4737    4.8656    2.9344 C   0  0  0  0  0  0  0  0  0  0  0  0
   46.4666    6.1467    3.4562 C   0  0  0  0  0  0  0  0  0  0  0  0
   47.1761    7.1677    2.8170 C   0  0  0  0  0  0  0  0  0  0  0  0
   47.1683    8.4877    3.3501 C   0  0  0  0  0  0  0  0  0  0  0  0
   47.1614    9.5558    3.7784 N   0  0  0  0  0  0  0  0  0  0  0  0
   47.8930    6.8829    1.6511 C   0  0  0  0  0  0  0  0  0  0  0  0
   47.9010    5.5981    1.1383 C   0  0  0  0  0  0  0  0  0  0  0  0
   45.9966    2.6357    0.8219 C   0  0  0  0  0  0  0  0  0  0  0  0
   44.7423    3.3240    0.8564 C   0  0  0  0  0  0  0  0  0  0  0  0
   43.7932    2.4246    0.5010 C   0  0  0  0  0  0  0  0  0  0  0  0
   44.4711    1.1952    0.2402 C   0  0  0  0  0  0  0  0  0  0  0  0
   45.8220    1.3370    0.4009 N   0  0  0  0  0  0  0  0  0  0  0  0
   42.7592   -2.5711   -0.5504 H   0  0  0  0  0  0  0  0  0  0  0  0
   44.6702   -4.3415   -1.2495 H   0  0  0  0  0  0  0  0  0  0  0  0
   46.0269   -4.0307   -3.5666 H   0  0  0  0  0  0  0  0  0  0  0  0
   46.0382   -6.3196   -4.4924 H   0  0  0  0  0  0  0  0  0  0  0  0
   48.5029   -7.6209   -1.2288 H   0  0  0  0  0  0  0  0  0  0  0  0
   48.4831   -5.3311   -0.3054 H   0  0  0  0  0  0  0  0  0  0  0  0
   49.8358   -3.9357   -2.1721 H   0  0  0  0  0  0  0  0  0  0  0  0
   51.7230   -2.1578   -1.4301 H   0  0  0  0  0  0  0  0  0  0  0  0
   51.6861    2.2434    1.3861 H   0  0  0  0  0  0  0  0  0  0  0  0
   49.7745    4.0041    2.1054 H   0  0  0  0  0  0  0  0  0  0  0  0
   45.9317    4.0737    3.4388 H   0  0  0  0  0  0  0  0  0  0  0  0
   45.9128    6.3632    4.3622 H   0  0  0  0  0  0  0  0  0  0  0  0
   48.4412    7.6728    1.1510 H   0  0  0  0  0  0  0  0  0  0  0  0
   48.4491    5.3830    0.2280 H   0  0  0  0  0  0  0  0  0  0  0  0
   44.6145    4.3623    1.1154 H   0  0  0  0  0  0  0  0  0  0  0  0
   42.7276    2.5658    0.4189 H   0  0  0  0  0  0  0  0  0  0  0  0
  2  3  4  0  0  0  0
  3  4  4  0  0  0  0
  4  5  2  0  0  0  0
  5  6  4  0  0  0  0
  1  7  1  0  0  0  0
  3  7  4  0  0  0  0
  6  7  4  0  0  0  0
  6  8  4  0  0  0  0
  8  9  1  0  0  0  0
  9 10  4  0  0  0  0
 10 11  4  0  0  0  0
 11 12  4  0  0  0  0
 12 13  1  0  0  0  0
 13 14  3  0  0  0  0
 12 15  4  0  0  0  0
  9 16  4  0  0  0  0
 15 16  4  0  0  0  0
  8 17  4  0  0  0  0
 17 18  4  0  0  0  0
 18 19  2  0  0  0  0
  1 20  1  0  0  0  0
 17 20  4  0  0  0  0
 19 21  4  0  0  0  0
 20 21  4  0  0  0  0
 21 22  4  0  0  0  0
 22 23  4  0  0  0  0
 23 24  4  0  0  0  0
 24 25  2  0  0  0  0
 25 26  4  0  0  0  0
  1 27  1  0  0  0  0
 23 27  4  0  0  0  0
 26 27  4  0  0  0  0
 26 28  4  0  0  0  0
 28 29  1  0  0  0  0
 29 30  4  0  0  0  0
 30 31  4  0  0  0  0
 31 32  4  0  0  0  0
 32 33  1  0  0  0  0
 33 34  3  0  0  0  0
 32 35  4  0  0  0  0
 29 36  4  0  0  0  0
 35 36  4  0  0  0  0
 28 37  4  0  0  0  0
 37 38  4  0  0  0  0
 38 39  2  0  0  0  0
  2 40  4  0  0  0  0
 39 40  4  0  0  0  0
  1 41  1  0  0  0  0
 37 41  4  0  0  0  0
 40 41  4  0  0  0  0
  2 42  1  0  0  0  0
  4 43  1  0  0  0  0
  5 44  1  0  0  0  0
 10 45  1  0  0  0  0
 11 46  1  0  0  0  0
 15 47  1  0  0  0  0
 16 48  1  0  0  0  0
 18 49  1  0  0  0  0
 19 50  1  0  0  0  0
 24 51  1  0  0  0  0
 25 52  1  0  0  0  0
 30 53  1  0  0  0  0
 31 54  1  0  0  0  0
 35 55  1  0  0  0  0
 36 56  1  0  0  0  0
 38 57  1  0  0  0  0
 39 58  1  0  0  0  0
 60 61  4  0  0  0  0
 61 62  4  0  0  0  0
 62 63  2  0  0  0  0
 63 64  4  0  0  0  0
 59 65  1  0  0  0  0
 61 65  4  0  0  0  0
 64 65  4  0  0  0  0
 64 66  4  0  0  0  0
 66 67  1  0  0  0  0
 67 68  4  0  0  0  0
 68 69  4  0  0  0  0
 69 70  4  0  0  0  0
 70 71  1  0  0  0  0
 71 72  3  0  0  0  0
 70 73  4  0  0  0  0
 67 74  4  0  0  0  0
 73 74  4  0  0  0  0
 66 75  4  0  0  0  0
 75 76  4  0  0  0  0
 76 77  2  0  0  0  0
 59 78  1  0  0  0  0
 75 78  4  0  0  0  0
 77 79  4  0  0  0  0
 78 79  4  0  0  0  0
 79 80  4  0  0  0  0
 80 81  4  0  0  0  0
 81 82  4  0  0  0  0
 82 83  2  0  0  0  0
 83 84  4  0  0  0  0
 59 85  1  0  0  0  0
 81 85  4  0  0  0  0
 84 85  4  0  0  0  0
 84 86  4  0  0  0  0
 86 87  1  0  0  0  0
 87 88  4  0  0  0  0
 88 89  4  0  0  0  0
 89 90  4  0  0  0  0
 90 91  1  0  0  0  0
 91 92  3  0  0  0  0
 90 93  4  0  0  0  0
 87 94  4  0  0  0  0
 93 94  4  0  0  0  0
 86 95  4  0  0  0  0
 95 96  4  0  0  0  0
 96 97  2  0  0  0  0
 60 98  4  0  0  0  0
 97 98  4  0  0  0  0
 59 99  1  0  0  0  0
 95 99  4  0  0  0  0
 98 99  4  0  0  0  0
 60100  1  0  0  0  0
 62101  1  0  0  0  0
 63102  1  0  0  0  0
 68103  1  0  0  0  0
 69104  1  0  0  0  0
 73105  1  0  0  0  0
 74106  1  0  0  0  0
 76107  1  0  0  0  0
 77108  1  0  0  0  0
 82109  1  0  0  0  0
 83110  1  0  0  0  0
 88111  1  0  0  0  0
 89112  1  0  0  0  0
 93113  1  0  0  0  0
 94114  1  0  0  0  0
 96115  1  0  0  0  0
 97116  1  0  0  0  0
 22118  4  0  0  0  0
117118  3  0  0  0  0
117119  4  0  0  0  0
119120  3  0  0  0  0
121122  3  0  0  0  0
121123  4  0  0  0  0
 80124  4  0  0  0  0
123124  3  0  0  0  0
120126  4  0  0  0  0
126127  4  0  0  0  0
127128  4  0  0  0  0
128129  2  0  0  0  0
129130  4  0  0  0  0
125131  1  0  0  0  0
127131  4  0  0  0  0
130131  4  0  0  0  0
130132  4  0  0  0  0
132133  1  0  0  0  0
133134  4  0  0  0  0
134135  4  0  0  0  0
135136  4  0  0  0  0
136137  1  0  0  0  0
137138  3  0  0  0  0
136139  4  0  0  0  0
133140  4  0  0  0  0
139140  4  0  0  0  0
132141  4  0  0  0  0
141142  4  0  0  0  0
142143  2  0  0  0  0
125144  1  0  0  0  0
141144  4  0  0  0  0
143145  4  0  0  0  0
144145  4  0  0  0  0
122146  4  0  0  0  0
145146  4  0  0  0  0
146147  4  0  0  0  0
147148  4  0  0  0  0
148149  2  0  0  0  0
149150  4  0  0  0  0
125151  1  0  0  0  0
147151  4  0  0  0  0
150151  4  0  0  0  0
150152  4  0  0  0  0
152153  1  0  0  0  0
153154  4  0  0  0  0
154155  4  0  0  0  0
155156  4  0  0  0  0
156157  1  0  0  0  0
157158  3  0  0  0  0
156159  4  0  0  0  0
153160  4  0  0  0  0
159160  4  0  0  0  0
152161  4  0  0  0  0
161162  4  0  0  0  0
162163  2  0  0  0  0
126164  4  0  0  0  0
163164  4  0  0  0  0
125165  1  0  0  0  0
161165  4  0  0  0  0
164165  4  0  0  0  0
128166  1  0  0  0  0
129167  1  0  0  0  0
134168  1  0  0  0  0
135169  1  0  0  0  0
139170  1  0  0  0  0
140171  1  0  0  0  0
142172  1  0  0  0  0
143173  1  0  0  0  0
148174  1  0  0  0  0
149175  1  0  0  0  0
154176  1  0  0  0  0
155177  1  0  0  0  0
159178  1  0  0  0  0
160179  1  0  0  0  0
162180  1  0  0  0  0
163181  1  0  0  0  0
M  END
