472

C 83.151239 -0.611250 0.573050
C 83.841784 -1.251125 -0.671274
C 83.192690 -1.779432 -1.761162
C 84.189308 -2.254559 -2.650741
C 85.414475 -2.011749 -2.070410
N 85.191778 -1.361488 -0.880689
C 86.837721 -2.424430 -2.640001
C 86.892679 -3.304490 -3.839842
C 87.459203 -2.793651 -5.024152
C 87.520180 -3.581772 -6.165440
O 88.075564 -3.124721 -7.327126
C 86.999548 -4.866830 -6.148039
O 87.046791 -5.639901 -7.278830
C 86.412739 -5.373774 -4.990785
O 85.876400 -6.630965 -5.006206
C 86.359618 -4.605105 -3.831751
C 87.967789 -1.932211 -2.055936
C 89.288281 -2.390558 -2.436136
C 90.186442 -1.740140 -1.706727
N 88.150560 -1.005384 -1.063504
C 89.488020 -0.821417 -0.831257
C 90.150717 0.015662 0.011323
C 89.357996 1.060178 0.904671
C 89.848736 2.256081 1.391380
C 88.832426 2.852504 2.179948
C 87.740678 2.012143 2.137831
N 88.054678 0.946840 1.324742
C 86.355533 2.223112 2.875631
C 86.278024 3.253688 3.935092
C 86.751423 3.001119 5.233184
C 86.663994 3.998171 6.192461
O 87.114251 3.773020 7.462779
C 86.119376 5.235312 5.869114
O 86.040412 6.206553 6.833735
C 85.662887 5.494890 4.581307
O 85.147777 6.735895 4.325222
C 85.737497 4.511219 3.608462
C 85.264199 1.514913 2.478825
C 83.977297 1.615390 3.146333
C 83.114763 0.823484 2.516530
C 83.813069 0.204095 1.416061
N 85.106467 0.621778 1.457777
H 82.100542 -0.819761 0.739375
H 82.123066 -1.816554 -1.903152
H 84.028219 -2.733281 -3.605106
H 85.918050 -0.991324 -0.276099
H 87.841129 -1.773524 -5.012159
H 88.389521 -2.227477 -7.134476
H 87.532682 -5.077759 -7.906584
H 86.117889 -6.965662 -5.886894
H 85.897615 -4.996679 -2.928900
H 89.516336 -3.155948 -3.154968
H 91.246339 -1.895026 -1.770423
H 90.833618 2.659547 1.204054
H 88.894109 3.788155 2.715963
H 87.396387 0.222198 1.043262
H 87.180854 2.032047 5.471728
H 86.944334 4.613865 7.927276
H 85.625274 6.959825 6.357669
H 84.914298 6.752010 3.377654
H 85.382047 4.675074 2.593043
H 83.753014 2.209362 4.013744
H 82.080435 0.676551 2.772859
C 186.415503 -0.684453 0.478651
C 185.724958 0.361393 1.408162
C 186.374052 1.285440 2.191169
C 185.377433 2.028725 2.872802
C 184.152267 1.527115 2.493160
N 184.374964 0.536739 1.567185
C 182.729021 1.976033 3.034651
C 182.674063 2.919001 4.185710
C 182.107539 4.193199 3.985795
C 182.046562 5.102346 5.033233
O 181.491178 6.341241 4.879780
C 182.567194 4.765570 6.273498
O 182.519951 5.668297 7.303746
C 183.154003 3.518546 6.476376
O 183.690342 3.220496 7.697824
C 183.207124 2.587369 5.443360
C 181.598953 1.532898 2.412523
C 180.278461 1.787019 2.951092
C 179.380300 1.242502 2.139562
N 181.416181 0.802452 1.267806
C 180.078721 0.623317 1.031812
C 179.416025 0.015662 0.011323
C 180.208746 -0.589520 -1.222710
C 179.718006 -0.763179 -2.502129
C 180.734316 -1.378435 -3.276092
C 181.826063 -1.546857 -2.451706
N 181.512063 -1.024581 -1.217521
C 183.211209 -2.208905 -2.839712
C 183.288718 -2.978441 -4.101599
C 182.815319 -4.298541 -4.180150
C 182.902748 -4.979392 -5.384627
O 182.452491 -6.265767 -5.482819
C 183.447366 -4.358233 -6.502317
O 183.526330 -5.050687 -7.683127
C 183.903855 -3.046349 -6.433115
O 184.418965 -2.489371 -7.571293
C 183.829245 -2.349025 -5.238220
C 184.302543 -2.000903 -2.055023
C 185.589445 -2.622380 -2.318517
C 186.451979 -2.209556 -1.394751
C 185.753673 -1.297936 -0.520895
N 184.460275 -1.234354 -0.935812
H 187.466200 -0.897451 0.639189
H 187.443676 1.413718 2.262471
H 185.538523 2.833861 3.574046
H 183.648691 0.043339 1.058159
H 181.725613 4.435550 2.994801
H 181.177221 6.378031 3.962825
H 182.034060 6.416234 6.915586
H 183.448853 3.990131 8.241234
H 183.669127 1.615460 5.597835
H 180.050406 2.292671 3.871341
H 178.320402 1.265632 2.305429
H 178.733124 -0.481305 -2.846256
H 180.672633 -1.664638 -4.315728
H 182.170355 -0.932368 -0.445618
H 182.385887 -4.770831 -3.300977
H 182.622408 -6.506306 -6.412828
H 183.941468 -4.402078 -8.294162
H 184.652444 -1.567626 -7.350998
H 184.184695 -1.324784 -5.144122
H 185.813728 -3.314607 -3.109734
H 187.486307 -2.494395 -1.316259
C 96.219519 0.016765 0.019812
C 95.010579 0.003310 0.011365
C 93.589050 0.012129 -0.000618
C 92.377381 0.019568 0.010245
C 97.636123 0.010090 0.020346
C 98.856819 0.019568 0.010245
C 111.886597 0.016765 0.019812
C 110.677658 0.003310 0.011365
C 109.256129 0.012129 -0.000618
C 108.044459 0.019568 0.010245
C 113.303201 0.010090 0.020346
C 114.523897 0.019568 0.010245
C 127.553676 0.016765 0.019812
C 126.344736 0.003310 0.011365
C 124.923207 0.012129 -0.000618
C 123.711538 0.019568 0.010245
C 128.970280 0.010090 0.020346
C 130.190976 0.019568 0.010245
C 143.220754 0.016765 0.019812
C 142.011815 0.003310 0.011365
C 140.590286 0.012129 -0.000618
C 139.378616 0.019568 0.010245
C 144.637358 0.010090 0.020346
C 145.858054 0.019568 0.010245
C 158.887833 0.016765 0.019812
C 157.678893 0.003310 0.011365
C 156.257364 0.012129 -0.000618
C 155.045695 0.019568 0.010245
C 160.304437 0.010090 0.020346
C 161.525133 0.019568 0.010245
C 174.554911 0.016765 0.019812
C 173.345972 0.003310 0.011365
C 171.924443 0.012129 -0.000618
C 170.712773 0.019568 0.010245
C 175.971515 0.010090 0.020346
C 177.192211 0.019568 0.010245
C 99.887478 -0.008638 -0.005792
C 100.671911 -1.355311 0.287694
C 100.137374 -2.524762 0.792279
C 101.174791 -3.490264 0.814870
C 102.315174 -2.877809 0.336287
N 102.015928 -1.560707 0.086261
C 103.716585 -3.569825 0.095946
C 103.723893 -5.033476 -0.131618
C 104.050561 -5.914580 0.916644
C 104.058807 -7.292469 0.691749
O 104.388053 -8.153685 1.707453
C 103.737074 -7.789580 -0.571691
O 103.737638 -9.136197 -0.826039
C 103.411598 -6.911147 -1.612285
O 103.109707 -7.446927 -2.843839
C 103.400855 -5.536021 -1.402801
C 104.852316 -2.826932 0.026642
C 106.143642 -3.421939 -0.251160
C 107.050584 -2.453608 -0.290912
N 105.060191 -1.481421 0.158141
C 106.386509 -1.191919 -0.028461
C 107.055859 -0.008638 -0.005792
C 106.273259 1.338457 0.285861
C 106.806985 2.502253 0.806950
C 105.772194 3.470960 0.823198
C 104.632986 2.865024 0.327022
N 104.933864 1.552124 0.058254
C 103.226646 3.554692 0.100118
C 103.184487 5.034141 0.045996
C 103.460928 5.727088 -1.143999
C 103.399460 7.115110 -1.150886
O 103.657226 7.804871 -2.304827
C 103.071213 7.811300 0.011154
O 103.007845 9.180812 -0.018896
C 102.805947 7.127999 1.193378
O 102.487467 7.858988 2.308694
C 102.861258 5.741171 1.220297
C 102.094394 2.806992 0.004898
C 100.796629 3.405168 -0.244442
C 99.889423 2.436118 -0.281646
C 100.559540 1.172253 -0.047642
N 101.891944 1.457880 0.101760
H 99.109069 -2.678084 1.086889
H 101.092006 -4.522432 1.126335
H 102.687289 -0.847040 -0.185250
H 104.299701 -5.492708 1.889696
H 104.643551 -7.613591 2.478394
H 103.492283 -9.188721 -1.772394
H 102.929792 -6.689598 -3.433939
H 103.154497 -4.832610 -2.196537
H 106.346285 -4.465918 -0.411827
H 108.096558 -2.602700 -0.488143
H 107.831880 2.649877 1.119300
H 105.856660 4.498600 1.145285
H 104.262522 0.842170 -0.225868
H 103.711466 5.174481 -2.047166
H 103.513486 8.738988 -2.054372
H 102.751431 9.407985 0.900291
H 102.342207 7.211424 3.023627
H 102.653083 5.173165 2.123940
H 100.592874 4.450992 -0.393417
H 98.839116 2.585818 -0.453617
C 115.554556 -0.008638 -0.005792
C 116.338989 -1.355311 0.287694
C 115.804452 -2.524762 0.792279
C 116.841869 -3.490264 0.814870
C 117.982253 -2.877809 0.336287
N 117.683007 -1.560707 0.086261
C 119.383663 -3.569825 0.095946
C 119.390972 -5.033476 -0.131618
C 119.717639 -5.914580 0.916644
C 119.725886 -7.292469 0.691749
O 120.055131 -8.153685 1.707453
C 119.404153 -7.789580 -0.571691
O 119.404717 -9.136197 -0.826039
C 119.078677 -6.911147 -1.612285
O 118.776785 -7.446927 -2.843839
C 119.067934 -5.536021 -1.402801
C 120.519395 -2.826932 0.026642
C 121.810721 -3.421939 -0.251160
C 122.717662 -2.453608 -0.290912
N 120.727270 -1.481421 0.158141
C 122.053587 -1.191919 -0.028461
C 122.722937 -0.008638 -0.005792
C 121.940337 1.338457 0.285861
C 122.474063 2.502253 0.806950
C 121.439273 3.470960 0.823198
C 120.300065 2.865024 0.327022
N 120.600942 1.552124 0.058254
C 118.893724 3.554692 0.100118
C 118.851565 5.034141 0.045996
C 119.128006 5.727088 -1.143999
C 119.066539 7.115110 -1.150886
O 119.324304 7.804871 -2.304827
C 118.738291 7.811300 0.011154
O 118.674924 9.180812 -0.018896
C 118.473025 7.127999 1.193378
O 118.154545 7.858988 2.308694
C 118.528336 5.741171 1.220297
C 117.761472 2.806992 0.004898
C 116.463708 3.405168 -0.244442
C 115.556502 2.436118 -0.281646
C 116.226618 1.172253 -0.047642
N 117.559022 1.457880 0.101760
H 114.776148 -2.678084 1.086889
H 116.759085 -4.522432 1.126335
H 118.354367 -0.847040 -0.185250
H 119.966780 -5.492708 1.889696
H 120.310630 -7.613591 2.478394
H 119.159361 -9.188721 -1.772394
H 118.596870 -6.689598 -3.433939
H 118.821575 -4.832610 -2.196537
H 122.013364 -4.465918 -0.411827
H 123.763637 -2.602700 -0.488143
H 123.498959 2.649877 1.119300
H 121.523738 4.498600 1.145285
H 119.929601 0.842170 -0.225868
H 119.378545 5.174481 -2.047166
H 119.180565 8.738988 -2.054372
H 118.418509 9.407985 0.900291
H 118.009286 7.211424 3.023627
H 118.320162 5.173165 2.123940
H 116.259953 4.450992 -0.393417
H 114.506195 2.585818 -0.453617
C 131.221635 -0.008638 -0.005792
C 132.006068 -1.355311 0.287694
C 131.471531 -2.524762 0.792279
C 132.508948 -3.490264 0.814870
C 133.649331 -2.877809 0.336287
N 133.350085 -1.560707 0.086261
C 135.050742 -3.569825 0.095946
C 135.058050 -5.033476 -0.131618
C 135.384718 -5.914580 0.916644
C 135.392964 -7.292469 0.691749
O 135.722210 -8.153685 1.707453
C 135.071231 -7.789580 -0.571691
O 135.071796 -9.136197 -0.826039
C 134.745755 -6.911147 -1.612285
O 134.443864 -7.446927 -2.843839
C 134.735012 -5.536021 -1.402801
C 136.186473 -2.826932 0.026642
C 137.477799 -3.421939 -0.251160
C 138.384741 -2.453608 -0.290912
N 136.394348 -1.481421 0.158141
C 137.720666 -1.191919 -0.028461
C 138.390016 -0.008638 -0.005792
C 137.607416 1.338457 0.285861
C 138.141142 2.502253 0.806950
C 137.106351 3.470960 0.823198
C 135.967143 2.865024 0.327022
N 136.268021 1.552124 0.058254
C 134.560803 3.554692 0.100118
C 134.518644 5.034141 0.045996
C 134.795085 5.727088 -1.143999
C 134.733617 7.115110 -1.150886
O 134.991383 7.804871 -2.304827
C 134.405370 7.811300 0.011154
O 134.342002 9.180812 -0.018896
C 134.140104 7.127999 1.193378
O 133.821624 7.858988 2.308694
C 134.195415 5.741171 1.220297
C 133.428551 2.806992 0.004898
C 132.130786 3.405168 -0.244442
C 131.223580 2.436118 -0.281646
C 131.893697 1.172253 -0.047642
N 133.226101 1.457880 0.101760
H 130.443226 -2.678084 1.086889
H 132.426163 -4.522432 1.126335
H 134.021446 -0.847040 -0.185250
H 135.633858 -5.492708 1.889696
H 135.977708 -7.613591 2.478394
H 134.826440 -9.188721 -1.772394
H 134.263949 -6.689598 -3.433939
H 134.488654 -4.832610 -2.196537
H 137.680442 -4.465918 -0.411827
H 139.430715 -2.602700 -0.488143
H 139.166037 2.649877 1.119300
H 137.190817 4.498600 1.145285
H 135.596679 0.842170 -0.225868
H 135.045623 5.174481 -2.047166
H 134.847643 8.738988 -2.054372
H 134.085588 9.407985 0.900291
H 133.676364 7.211424 3.023627
H 133.987240 5.173165 2.123940
H 131.927031 4.450992 -0.393417
H 130.173273 2.585818 -0.453617
C 146.888713 -0.008638 -0.005792
C 147.673146 -1.355311 0.287694
C 147.138609 -2.524762 0.792279
C 148.176026 -3.490264 0.814870
C 149.316410 -2.877809 0.336287
N 149.017164 -1.560707 0.086261
C 150.717820 -3.569825 0.095946
C 150.725129 -5.033476 -0.131618
C 151.051796 -5.914580 0.916644
C 151.060043 -7.292469 0.691749
O 151.389288 -8.153685 1.707453
C 150.738310 -7.789580 -0.571691
O 150.738874 -9.136197 -0.826039
C 150.412834 -6.911147 -1.612285
O 150.110942 -7.446927 -2.843839
C 150.402091 -5.536021 -1.402801
C 151.853552 -2.826932 0.026642
C 153.144878 -3.421939 -0.251160
C 154.051819 -2.453608 -0.290912
N 152.061427 -1.481421 0.158141
C 153.387744 -1.191919 -0.028461
C 154.057094 -0.008638 -0.005792
C 153.274494 1.338457 0.285861
C 153.808220 2.502253 0.806950
C 152.773430 3.470960 0.823198
C 151.634222 2.865024 0.327022
N 151.935099 1.552124 0.058254
C 150.227881 3.554692 0.100118
C 150.185722 5.034141 0.045996
C 150.462163 5.727088 -1.143999
C 150.400696 7.115110 -1.150886
O 150.658461 7.804871 -2.304827
C 150.072448 7.811300 0.011154
O 150.009081 9.180812 -0.018896
C 149.807182 7.127999 1.193378
O 149.488702 7.858988 2.308694
C 149.862493 5.741171 1.220297
C 149.095629 2.806992 0.004898
C 147.797865 3.405168 -0.244442
C 146.890659 2.436118 -0.281646
C 147.560775 1.172253 -0.047642
N 148.893179 1.457880 0.101760
H 146.110305 -2.678084 1.086889
H 148.093242 -4.522432 1.126335
H 149.688524 -0.847040 -0.185250
H 151.300937 -5.492708 1.889696
H 151.644787 -7.613591 2.478394
H 150.493518 -9.188721 -1.772394
H 149.931027 -6.689598 -3.433939
H 150.155732 -4.832610 -2.196537
H 153.347521 -4.465918 -0.411827
H 155.097794 -2.602700 -0.488143
H 154.833116 2.649877 1.119300
H 152.857895 4.498600 1.145285
H 151.263758 0.842170 -0.225868
H 150.712702 5.174481 -2.047166
H 150.514722 8.738988 -2.054372
H 149.752666 9.407985 0.900291
H 149.343443 7.211424 3.023627
H 149.654319 5.173165 2.123940
H 147.594110 4.450992 -0.393417
H 145.840352 2.585818 -0.453617
C 162.555792 -0.008638 -0.005792
C 163.340225 -1.355311 0.287694
C 162.805688 -2.524762 0.792279
C 163.843105 -3.490264 0.814870
C 164.983488 -2.877809 0.336287
N 164.684243 -1.560707 0.086261
C 166.384899 -3.569825 0.095946
C 166.392207 -5.033476 -0.131618
C 166.718875 -5.914580 0.916644
C 166.727121 -7.292469 0.691749
O 167.056367 -8.153685 1.707453
C 166.405389 -7.789580 -0.571691
O 166.405953 -9.136197 -0.826039
C 166.079912 -6.911147 -1.612285
O 165.778021 -7.446927 -2.843839
C 166.069169 -5.536021 -1.402801
C 167.520630 -2.826932 0.026642
C 168.811956 -3.421939 -0.251160
C 169.718898 -2.453608 -0.290912
N 167.728505 -1.481421 0.158141
C 169.054823 -1.191919 -0.028461
C 169.724173 -0.008638 -0.005792
C 168.941573 1.338457 0.285861
C 169.475299 2.502253 0.806950
C 168.440508 3.470960 0.823198
C 167.301300 2.865024 0.327022
N 167.602178 1.552124 0.058254
C 165.894960 3.554692 0.100118
C 165.852801 5.034141 0.045996
C 166.129242 5.727088 -1.143999
C 166.067774 7.115110 -1.150886
O 166.325540 7.804871 -2.304827
C 165.739527 7.811300 0.011154
O 165.676159 9.180812 -0.018896
C 165.474261 7.127999 1.193378
O 165.155781 7.858988 2.308694
C 165.529572 5.741171 1.220297
C 164.762708 2.806992 0.004898
C 163.464943 3.405168 -0.244442
C 162.557737 2.436118 -0.281646
C 163.227854 1.172253 -0.047642
N 164.560258 1.457880 0.101760
H 161.777384 -2.678084 1.086889
H 163.760320 -4.522432 1.126335
H 165.355603 -0.847040 -0.185250
H 166.968015 -5.492708 1.889696
H 167.311865 -7.613591 2.478394
H 166.160597 -9.188721 -1.772394
H 165.598106 -6.689598 -3.433939
H 165.822811 -4.832610 -2.196537
H 169.014599 -4.465918 -0.411827
H 170.764872 -2.602700 -0.488143
H 170.500194 2.649877 1.119300
H 168.524974 4.498600 1.145285
H 166.930836 0.842170 -0.225868
H 166.379780 5.174481 -2.047166
H 166.181801 8.738988 -2.054372
H 165.419745 9.407985 0.900291
H 165.010521 7.211424 3.023627
H 165.321397 5.173165 2.123940
H 163.261188 4.450992 -0.393417
H 161.507431 2.585818 -0.453617
