 xtb: 6.5.1 (b24c23e)
          07282218593D

154167  0     0  0            999 V2000
   13.2398   -0.1670    0.0177 C   0  0  0  0  0  0  0  0  0  0  0  0
   13.8609   -1.4080   -0.0424 C   0  0  0  0  0  0  0  0  0  0  0  0
   13.2320   -2.6832   -0.1147 C   0  0  0  0  0  0  0  0  0  0  0  0
   14.2125   -3.6340   -0.1646 C   0  0  0  0  0  0  0  0  0  0  0  0
   15.4717   -2.9697   -0.1225 C   0  0  0  0  0  0  0  0  0  0  0  0
   15.2089   -1.6311   -0.0489 N   0  0  0  0  0  0  0  0  0  0  0  0
   16.7384   -3.5577   -0.1458 C   0  0  0  0  0  0  0  0  0  0  0  0
   16.7779   -5.0470   -0.2389 C   0  0  0  0  0  0  0  0  0  0  0  0
   16.7748   -5.6663   -1.4920 C   0  0  0  0  0  0  0  0  0  0  0  0
   16.7283   -4.8310   -2.7438 C   0  0  0  0  0  0  0  0  0  0  0  0
   16.8169   -7.0536   -1.5690 C   0  0  0  0  0  0  0  0  0  0  0  0
   16.8632   -7.8322   -0.4174 C   0  0  0  0  0  0  0  0  0  0  0  0
   16.8919   -9.3338   -0.5124 C   0  0  0  0  0  0  0  0  0  0  0  0
   16.8635   -7.2053    0.8245 C   0  0  0  0  0  0  0  0  0  0  0  0
   16.8219   -5.8196    0.9251 C   0  0  0  0  0  0  0  0  0  0  0  0
   16.8285   -5.1486    2.2728 C   0  0  0  0  0  0  0  0  0  0  0  0
   17.9526   -2.8750   -0.0908 C   0  0  0  0  0  0  0  0  0  0  0  0
   19.2444   -3.5372   -0.1091 C   0  0  0  0  0  0  0  0  0  0  0  0
   20.1743   -2.5617   -0.0394 C   0  0  0  0  0  0  0  0  0  0  0  0
   18.1187   -1.5255   -0.0134 N   0  0  0  0  0  0  0  0  0  0  0  0
   19.4482   -1.3073    0.0174 C   0  0  0  0  0  0  0  0  0  0  0  0
   20.0892   -0.0530    0.0842 C   0  0  0  0  0  0  0  0  0  0  0  0
   19.4425    1.1966    0.1274 C   0  0  0  0  0  0  0  0  0  0  0  0
   20.0657    2.4715    0.1870 C   0  0  0  0  0  0  0  0  0  0  0  0
   19.0813    3.4208    0.2111 C   0  0  0  0  0  0  0  0  0  0  0  0
   17.8265    2.7519    0.1675 C   0  0  0  0  0  0  0  0  0  0  0  0
   18.0967    1.4099    0.1182 N   0  0  0  0  0  0  0  0  0  0  0  0
   16.5609    3.3415    0.1770 C   0  0  0  0  0  0  0  0  0  0  0  0
   16.5253    4.8325    0.2289 C   0  0  0  0  0  0  0  0  0  0  0  0
   16.5677    5.5723   -0.9565 C   0  0  0  0  0  0  0  0  0  0  0  0
   16.6435    4.8639   -2.2829 C   0  0  0  0  0  0  0  0  0  0  0  0
   16.5430    6.9607   -0.8970 C   0  0  0  0  0  0  0  0  0  0  0  0
   16.4780    7.6228    0.3246 C   0  0  0  0  0  0  0  0  0  0  0  0
   16.4353    9.1262    0.3754 C   0  0  0  0  0  0  0  0  0  0  0  0
   16.4330    6.8766    1.4978 C   0  0  0  0  0  0  0  0  0  0  0  0
   16.4564    5.4873    1.4620 C   0  0  0  0  0  0  0  0  0  0  0  0
   16.4119    4.6872    2.7366 C   0  0  0  0  0  0  0  0  0  0  0  0
   15.3458    2.6555    0.1430 C   0  0  0  0  0  0  0  0  0  0  0  0
   14.0477    3.3113    0.1610 C   0  0  0  0  0  0  0  0  0  0  0  0
   13.1238    2.3298    0.1214 C   0  0  0  0  0  0  0  0  0  0  0  0
   13.8573    1.0765    0.0754 C   0  0  0  0  0  0  0  0  0  0  0  0
   15.1920    1.3106    0.0906 N   0  0  0  0  0  0  0  0  0  0  0  0
   12.1548   -0.1787    0.0134 H   0  0  0  0  0  0  0  0  0  0  0  0
   12.1649   -2.8385   -0.1272 H   0  0  0  0  0  0  0  0  0  0  0  0
   14.0874   -4.7033   -0.2237 H   0  0  0  0  0  0  0  0  0  0  0  0
   15.9168   -0.9059   -0.0061 H   0  0  0  0  0  0  0  0  0  0  0  0
   15.7972   -4.2622   -2.7847 H   0  0  0  0  0  0  0  0  0  0  0  0
   16.7924   -5.4579   -3.6327 H   0  0  0  0  0  0  0  0  0  0  0  0
   17.5551   -4.1187   -2.7560 H   0  0  0  0  0  0  0  0  0  0  0  0
   16.8171   -7.5338   -2.5421 H   0  0  0  0  0  0  0  0  0  0  0  0
   15.8730   -9.7275   -0.4897 H   0  0  0  0  0  0  0  0  0  0  0  0
   17.3590   -9.6555   -1.4435 H   0  0  0  0  0  0  0  0  0  0  0  0
   17.4403   -9.7654    0.3253 H   0  0  0  0  0  0  0  0  0  0  0  0
   16.8996   -7.8048    1.7283 H   0  0  0  0  0  0  0  0  0  0  0  0
   15.9426   -4.5215    2.3891 H   0  0  0  0  0  0  0  0  0  0  0  0
   16.8429   -5.8860    3.0749 H   0  0  0  0  0  0  0  0  0  0  0  0
   17.7064   -4.5073    2.3715 H   0  0  0  0  0  0  0  0  0  0  0  0
   19.3903   -4.6039   -0.1679 H   0  0  0  0  0  0  0  0  0  0  0  0
   21.2487   -2.6535   -0.0282 H   0  0  0  0  0  0  0  0  0  0  0  0
   21.1318    2.6311    0.2082 H   0  0  0  0  0  0  0  0  0  0  0  0
   19.2036    4.4909    0.2569 H   0  0  0  0  0  0  0  0  0  0  0  0
   17.3919    0.6813    0.0792 H   0  0  0  0  0  0  0  0  0  0  0  0
   16.5889    5.5743   -3.1072 H   0  0  0  0  0  0  0  0  0  0  0  0
   17.5810    4.3095   -2.3622 H   0  0  0  0  0  0  0  0  0  0  0  0
   15.8242    4.1493   -2.3797 H   0  0  0  0  0  0  0  0  0  0  0  0
   16.5773    7.5345   -1.8174 H   0  0  0  0  0  0  0  0  0  0  0  0
   16.8854    9.4967    1.2967 H   0  0  0  0  0  0  0  0  0  0  0  0
   15.3988    9.4700    0.3418 H   0  0  0  0  0  0  0  0  0  0  0  0
   16.9635    9.5588   -0.4746 H   0  0  0  0  0  0  0  0  0  0  0  0
   16.3816    7.3845    2.4554 H   0  0  0  0  0  0  0  0  0  0  0  0
   16.3573    5.3421    3.6057 H   0  0  0  0  0  0  0  0  0  0  0  0
   15.5419    4.0279    2.7398 H   0  0  0  0  0  0  0  0  0  0  0  0
   17.3036    4.0633    2.8238 H   0  0  0  0  0  0  0  0  0  0  0  0
   13.8971    4.3786    0.1983 H   0  0  0  0  0  0  0  0  0  0  0  0
   12.0482    2.4130    0.1200 H   0  0  0  0  0  0  0  0  0  0  0  0
   33.5410    0.1690    0.0144 C   0  0  0  0  0  0  0  0  0  0  0  0
   32.9198    1.4051   -0.1093 C   0  0  0  0  0  0  0  0  0  0  0  0
   33.5486    2.6751   -0.2463 C   0  0  0  0  0  0  0  0  0  0  0  0
   32.5679    3.6219   -0.3459 C   0  0  0  0  0  0  0  0  0  0  0  0
   31.3088    2.9604   -0.2709 C   0  0  0  0  0  0  0  0  0  0  0  0
   31.5717    1.6274   -0.1285 N   0  0  0  0  0  0  0  0  0  0  0  0
   30.0421    3.5464   -0.3255 C   0  0  0  0  0  0  0  0  0  0  0  0
   30.0026    5.0288   -0.4959 C   0  0  0  0  0  0  0  0  0  0  0  0
   30.0057    5.5819   -1.7796 C   0  0  0  0  0  0  0  0  0  0  0  0
   30.0521    4.6825   -2.9861 C   0  0  0  0  0  0  0  0  0  0  0  0
   29.9636    6.9633   -1.9289 C   0  0  0  0  0  0  0  0  0  0  0  0
   29.9174    7.8009   -0.8193 C   0  0  0  0  0  0  0  0  0  0  0  0
   29.8887    9.2955   -0.9925 C   0  0  0  0  0  0  0  0  0  0  0  0
   29.9172    7.2396    0.4536 C   0  0  0  0  0  0  0  0  0  0  0  0
   29.9587    5.8610    0.6262 C   0  0  0  0  0  0  0  0  0  0  0  0
   29.9519    5.2611    2.0071 C   0  0  0  0  0  0  0  0  0  0  0  0
   28.8279    2.8673   -0.2360 C   0  0  0  0  0  0  0  0  0  0  0  0
   27.5359    3.5274   -0.2890 C   0  0  0  0  0  0  0  0  0  0  0  0
   26.6062    2.5567   -0.1697 C   0  0  0  0  0  0  0  0  0  0  0  0
   28.6619    1.5236   -0.0892 N   0  0  0  0  0  0  0  0  0  0  0  0
   27.3324    1.3069   -0.0482 C   0  0  0  0  0  0  0  0  0  0  0  0
   26.6918    0.0574    0.0817 C   0  0  0  0  0  0  0  0  0  0  0  0
   27.3387   -1.1883    0.1887 C   0  0  0  0  0  0  0  0  0  0  0  0
   26.7156   -2.4586    0.3121 C   0  0  0  0  0  0  0  0  0  0  0  0
   27.7001   -3.4053    0.3841 C   0  0  0  0  0  0  0  0  0  0  0  0
   28.9548   -2.7393    0.3076 C   0  0  0  0  0  0  0  0  0  0  0  0
   28.6845   -1.4015    0.1911 N   0  0  0  0  0  0  0  0  0  0  0  0
   30.2204   -3.3276    0.3472 C   0  0  0  0  0  0  0  0  0  0  0  0
   30.2561   -4.8142    0.4732 C   0  0  0  0  0  0  0  0  0  0  0  0
   30.2157   -5.6118   -0.6740 C   0  0  0  0  0  0  0  0  0  0  0  0
   30.1415   -4.9702   -2.0341 C   0  0  0  0  0  0  0  0  0  0  0  0
   30.2407   -6.9956   -0.5457 C   0  0  0  0  0  0  0  0  0  0  0  0
   30.3042   -7.5961    0.7074 C   0  0  0  0  0  0  0  0  0  0  0  0
   30.3478   -9.0952    0.8328 C   0  0  0  0  0  0  0  0  0  0  0  0
   30.3473   -6.7926    1.8421 C   0  0  0  0  0  0  0  0  0  0  0  0
   30.3234   -5.4068    1.7374 C   0  0  0  0  0  0  0  0  0  0  0  0
   30.3659   -4.5444    2.9707 C   0  0  0  0  0  0  0  0  0  0  0  0
   31.4354   -2.6440    0.2797 C   0  0  0  0  0  0  0  0  0  0  0  0
   32.7336   -3.2979    0.3319 C   0  0  0  0  0  0  0  0  0  0  0  0
   33.6574   -2.3195    0.2439 C   0  0  0  0  0  0  0  0  0  0  0  0
   32.9238   -1.0701    0.1343 C   0  0  0  0  0  0  0  0  0  0  0  0
   31.5891   -1.3034    0.1601 N   0  0  0  0  0  0  0  0  0  0  0  0
   34.6261    0.1809    0.0105 H   0  0  0  0  0  0  0  0  0  0  0  0
   34.6157    2.8297   -0.2657 H   0  0  0  0  0  0  0  0  0  0  0  0
   32.6929    4.6868   -0.4597 H   0  0  0  0  0  0  0  0  0  0  0  0
   30.8639    0.9052   -0.0493 H   0  0  0  0  0  0  0  0  0  0  0  0
   30.9832    4.1122   -2.9973 H   0  0  0  0  0  0  0  0  0  0  0  0
   29.9880    5.2621   -3.9065 H   0  0  0  0  0  0  0  0  0  0  0  0
   29.2252    3.9706   -2.9610 H   0  0  0  0  0  0  0  0  0  0  0  0
   29.9635    7.3922   -2.9257 H   0  0  0  0  0  0  0  0  0  0  0  0
   30.9076    9.6899   -0.9905 H   0  0  0  0  0  0  0  0  0  0  0  0
   29.4214    9.5682   -1.9391 H   0  0  0  0  0  0  0  0  0  0  0  0
   29.3404    9.7702   -0.1784 H   0  0  0  0  0  0  0  0  0  0  0  0
   29.8811    7.8854    1.3248 H   0  0  0  0  0  0  0  0  0  0  0  0
   30.8378    4.6408    2.1559 H   0  0  0  0  0  0  0  0  0  0  0  0
   29.9375    6.0392    2.7696 H   0  0  0  0  0  0  0  0  0  0  0  0
   29.0740    4.6258    2.1389 H   0  0  0  0  0  0  0  0  0  0  0  0
   27.3899    4.5897   -0.4029 H   0  0  0  0  0  0  0  0  0  0  0  0
   25.5317    2.6488   -0.1636 H   0  0  0  0  0  0  0  0  0  0  0  0
   25.6495   -2.6169    0.3409 H   0  0  0  0  0  0  0  0  0  0  0  0
   27.5778   -4.4718    0.4832 H   0  0  0  0  0  0  0  0  0  0  0  0
   29.3894   -0.6757    0.1157 H   0  0  0  0  0  0  0  0  0  0  0  0
   30.1976   -5.7207   -2.8220 H   0  0  0  0  0  0  0  0  0  0  0  0
   29.2039   -4.4209   -2.1423 H   0  0  0  0  0  0  0  0  0  0  0  0
   30.9606   -4.2610   -2.1650 H   0  0  0  0  0  0  0  0  0  0  0  0
   30.2079   -7.6145   -1.4365 H   0  0  0  0  0  0  0  0  0  0  0  0
   29.8968   -9.4198    1.7709 H   0  0  0  0  0  0  0  0  0  0  0  0
   31.3845   -9.4396    0.8174 H   0  0  0  0  0  0  0  0  0  0  0  0
   29.8207   -9.5697    0.0047 H   0  0  0  0  0  0  0  0  0  0  0  0
   30.3975   -7.2524    2.8238 H   0  0  0  0  0  0  0  0  0  0  0  0
   30.4198   -5.1554    3.8713 H   0  0  0  0  0  0  0  0  0  0  0  0
   31.2355   -3.8853    2.9423 H   0  0  0  0  0  0  0  0  0  0  0  0
   29.4738   -3.9175    3.0259 H   0  0  0  0  0  0  0  0  0  0  0  0
   32.8843   -4.3619    0.4228 H   0  0  0  0  0  0  0  0  0  0  0  0
   34.7331   -2.4025    0.2477 H   0  0  0  0  0  0  0  0  0  0  0  0
   22.7160   -0.0081    0.1060 C   0  0  0  0  0  0  0  0  0  0  0  0
   21.4939   -0.0323    0.0998 C   0  0  0  0  0  0  0  0  0  0  0  0
   24.0648    0.0136    0.1051 C   0  0  0  0  0  0  0  0  0  0  0  0
   25.2870    0.0363    0.0956 C   0  0  0  0  0  0  0  0  0  0  0  0
  1  2  4  0  0  0  0
  2  3  4  0  0  0  0
  3  4  2  0  0  0  0
  4  5  4  0  0  0  0
  2  6  4  0  0  0  0
  5  6  4  0  0  0  0
  5  7  4  0  0  0  0
  7  8  1  0  0  0  0
  8  9  4  0  0  0  0
  9 10  1  0  0  0  0
  9 11  4  0  0  0  0
 11 12  4  0  0  0  0
 12 13  1  0  0  0  0
 12 14  4  0  0  0  0
  8 15  4  0  0  0  0
 14 15  4  0  0  0  0
 15 16  1  0  0  0  0
  7 17  4  0  0  0  0
 17 18  1  0  0  0  0
 18 19  2  0  0  0  0
 17 20  4  0  0  0  0
 19 21  1  0  0  0  0
 20 21  4  0  0  0  0
 21 22  4  0  0  0  0
 22 23  4  0  0  0  0
 23 24  4  0  0  0  0
 24 25  2  0  0  0  0
 25 26  4  0  0  0  0
 23 27  4  0  0  0  0
 26 27  4  0  0  0  0
 26 28  4  0  0  0  0
 28 29  1  0  0  0  0
 29 30  4  0  0  0  0
 30 31  1  0  0  0  0
 30 32  4  0  0  0  0
 32 33  4  0  0  0  0
 33 34  1  0  0  0  0
 33 35  4  0  0  0  0
 29 36  4  0  0  0  0
 35 36  4  0  0  0  0
 36 37  1  0  0  0  0
 28 38  4  0  0  0  0
 38 39  1  0  0  0  0
 39 40  2  0  0  0  0
  1 41  4  0  0  0  0
 40 41  1  0  0  0  0
 38 42  4  0  0  0  0
 41 42  4  0  0  0  0
  1 43  1  0  0  0  0
  3 44  1  0  0  0  0
  4 45  1  0  0  0  0
  6 46  1  0  0  0  0
 10 47  1  0  0  0  0
 10 48  1  0  0  0  0
 10 49  1  0  0  0  0
 11 50  1  0  0  0  0
 13 51  1  0  0  0  0
 13 52  1  0  0  0  0
 13 53  1  0  0  0  0
 14 54  1  0  0  0  0
 16 55  1  0  0  0  0
 16 56  1  0  0  0  0
 16 57  1  0  0  0  0
 18 58  1  0  0  0  0
 19 59  1  0  0  0  0
 24 60  1  0  0  0  0
 25 61  1  0  0  0  0
 27 62  1  0  0  0  0
 31 63  1  0  0  0  0
 31 64  1  0  0  0  0
 31 65  1  0  0  0  0
 32 66  1  0  0  0  0
 34 67  1  0  0  0  0
 34 68  1  0  0  0  0
 34 69  1  0  0  0  0
 35 70  1  0  0  0  0
 37 71  1  0  0  0  0
 37 72  1  0  0  0  0
 37 73  1  0  0  0  0
 39 74  1  0  0  0  0
 40 75  1  0  0  0  0
 76 77  4  0  0  0  0
 77 78  4  0  0  0  0
 78 79  2  0  0  0  0
 79 80  4  0  0  0  0
 77 81  4  0  0  0  0
 80 81  4  0  0  0  0
 80 82  4  0  0  0  0
 82 83  1  0  0  0  0
 83 84  4  0  0  0  0
 84 85  1  0  0  0  0
 84 86  4  0  0  0  0
 86 87  4  0  0  0  0
 87 88  1  0  0  0  0
 87 89  4  0  0  0  0
 83 90  4  0  0  0  0
 89 90  4  0  0  0  0
 90 91  1  0  0  0  0
 82 92  4  0  0  0  0
 92 93  1  0  0  0  0
 93 94  2  0  0  0  0
 92 95  4  0  0  0  0
 94 96  1  0  0  0  0
 95 96  4  0  0  0  0
 96 97  4  0  0  0  0
 97 98  4  0  0  0  0
 98 99  4  0  0  0  0
 99100  2  0  0  0  0
100101  4  0  0  0  0
 98102  4  0  0  0  0
101102  4  0  0  0  0
101103  4  0  0  0  0
103104  1  0  0  0  0
104105  4  0  0  0  0
105106  1  0  0  0  0
105107  4  0  0  0  0
107108  4  0  0  0  0
108109  1  0  0  0  0
108110  4  0  0  0  0
104111  4  0  0  0  0
110111  4  0  0  0  0
111112  1  0  0  0  0
103113  4  0  0  0  0
113114  1  0  0  0  0
114115  2  0  0  0  0
 76116  4  0  0  0  0
115116  1  0  0  0  0
113117  4  0  0  0  0
116117  4  0  0  0  0
 76118  1  0  0  0  0
 78119  1  0  0  0  0
 79120  1  0  0  0  0
 81121  1  0  0  0  0
 85122  1  0  0  0  0
 85123  1  0  0  0  0
 85124  1  0  0  0  0
 86125  1  0  0  0  0
 88126  1  0  0  0  0
 88127  1  0  0  0  0
 88128  1  0  0  0  0
 89129  1  0  0  0  0
 91130  1  0  0  0  0
 91131  1  0  0  0  0
 91132  1  0  0  0  0
 93133  1  0  0  0  0
 94134  1  0  0  0  0
 99135  1  0  0  0  0
100136  1  0  0  0  0
102137  1  0  0  0  0
106138  1  0  0  0  0
106139  1  0  0  0  0
106140  1  0  0  0  0
107141  1  0  0  0  0
109142  1  0  0  0  0
109143  1  0  0  0  0
109144  1  0  0  0  0
110145  1  0  0  0  0
112146  1  0  0  0  0
112147  1  0  0  0  0
112148  1  0  0  0  0
114149  1  0  0  0  0
115150  1  0  0  0  0
 22152  4  0  0  0  0
151152  3  0  0  0  0
151153  4  0  0  0  0
 97154  4  0  0  0  0
153154  3  0  0  0  0
M  END
