334

C 51.435066 0.019915 -0.120237
C 52.169822 -1.262322 -0.617725
C 51.574738 -2.355294 -1.204529
C 52.600197 -3.305685 -1.448839
C 53.786364 -2.761277 -0.995843
N 53.519875 -1.493301 -0.544133
C 55.204165 -3.468278 -0.971415
C 55.233355 -4.939097 -1.139801
C 55.527240 -5.510191 -2.385322
C 55.542844 -6.898235 -2.536858
C 55.262795 -7.713905 -1.437215
C 55.274024 -9.184159 -1.573747
O 55.512041 -9.757674 -2.630440
C 54.968112 -7.154831 -0.189776
C 54.953470 -5.767275 -0.045295
C 56.334095 -2.751173 -0.729142
C 57.634902 -3.381678 -0.633971
C 58.536164 -2.444763 -0.363514
N 56.531669 -1.413039 -0.513615
C 57.859541 -1.165540 -0.279928
C 58.525235 -0.011444 -0.008640
C 57.747132 1.369924 0.057461
C 58.289233 2.622500 -0.153744
C 57.262670 3.574839 0.063821
C 56.119437 2.876518 0.389782
N 56.410913 1.533867 0.330987
C 54.707063 3.502672 0.745833
C 54.666901 4.908609 1.202594
C 54.963756 5.232112 2.532363
C 54.935296 6.562740 2.956230
C 54.611348 7.570000 2.043201
C 54.577174 8.983695 2.468205
O 54.816496 9.346037 3.614431
C 54.314098 7.259007 0.712357
C 54.343460 5.927868 0.295792
C 53.582299 2.752401 0.617876
C 52.257648 3.260036 0.929659
C 51.373108 2.298827 0.681019
C 52.097828 1.143527 0.212111
N 53.420323 1.459580 0.205846
H 50.355585 -0.014043 -0.033385
H 50.522255 -2.463565 -1.417478
H 52.481062 -4.286591 -1.883535
H 54.214097 -0.829622 -0.208911
H 55.746894 -4.858352 -3.228740
H 55.774358 -7.331224 -3.505889
H 55.051223 -9.755998 -0.657571
H 54.749872 -7.774500 0.673703
H 54.728235 -5.311120 0.916990
H 57.847468 -4.429117 -0.751248
H 59.587436 -2.627140 -0.235321
H 59.313681 2.832621 -0.421159
H 57.350671 4.648428 -0.005092
H 55.727703 0.786182 0.421047
H 55.213611 4.434643 3.229535
H 55.165290 6.802594 3.990318
H 54.320168 9.717317 1.685433
H 54.059031 8.029546 -0.008421
H 54.112452 5.662465 -0.734821
H 52.025554 4.241759 1.301038
H 50.308233 2.362144 0.810628
C 132.329958 0.024369 -0.118888
C 131.595203 1.367207 0.178453
C 132.190286 2.602113 0.296491
C 131.164827 3.528401 0.620409
C 129.978661 2.824148 0.695331
N 130.245149 1.518569 0.367811
C 128.560859 3.398852 1.107838
C 128.531670 4.716041 1.783614
C 128.237784 5.882121 1.064082
C 128.222180 7.121092 1.707962
C 128.502229 7.189779 3.075374
C 128.491000 8.488828 3.777341
O 128.252983 9.552177 3.216264
C 128.796912 6.032636 3.803171
C 128.811554 4.797985 3.153691
C 127.430929 2.667798 0.911632
C 126.130122 3.139613 1.340568
C 125.228860 2.210034 1.045881
N 127.233355 1.434859 0.348681
C 125.905484 1.099300 0.405828
C 125.239789 -0.011444 -0.008640
C 126.017892 -1.197468 -0.719902
C 125.475791 -2.122505 -1.590453
C 126.502355 -3.035578 -1.937704
C 127.645588 -2.635360 -1.279123
N 127.354111 -1.485603 -0.583259
C 129.057961 -3.353851 -1.330209
C 129.098123 -4.777022 -1.730055
C 128.801268 -5.783829 -0.803081
C 128.829728 -7.126092 -1.188522
C 129.153677 -7.457707 -2.506940
C 129.187850 -8.869716 -2.937513
O 128.948528 -9.807025 -2.184800
C 129.450926 -6.460713 -3.441747
C 129.421565 -5.122075 -3.049948
C 130.182725 -2.658615 -1.020490
C 131.507377 -3.253939 -1.042664
C 132.391916 -2.316249 -0.716349
C 131.667196 -1.094881 -0.465642
N 130.344701 -1.354376 -0.646173
H 133.409439 0.004445 -0.027787
H 133.242769 2.810325 0.179368
H 131.283962 4.585687 0.802844
H 129.550927 0.780409 0.278579
H 128.018130 5.807618 0.000739
H 127.990666 8.018890 1.141871
H 128.713801 8.456409 4.856845
H 129.015152 6.069245 4.865360
H 129.036790 3.884653 3.701318
H 125.917556 4.076181 1.824016
H 124.177589 2.290670 1.253711
H 124.451343 -2.148996 -1.929511
H 126.414353 -3.890622 -2.590575
H 128.037321 -0.913454 -0.093575
H 128.551413 -5.507030 0.219361
H 128.599734 -7.899282 -0.461167
H 129.444856 -9.045907 -3.995761
H 129.705994 -6.702009 -4.468892
H 129.652573 -4.329555 -3.760239
H 131.739470 -4.276782 -1.278235
H 133.456791 -2.440826 -0.643632
C 60.689275 0.003247 0.001636
C 62.147501 -0.018590 -0.016237
C 63.281429 -0.039344 -0.017728
C 64.642811 -0.051933 -0.019919
C 65.917030 -0.041627 -0.024685
C 67.105492 -0.022829 -0.030841
C 68.457853 0.001956 -0.014973
C 69.558120 0.003247 0.001636
C 78.487139 0.003247 0.001636
C 79.945365 -0.018590 -0.016237
C 81.079293 -0.039344 -0.017728
C 82.440675 -0.051933 -0.019919
C 83.714894 -0.041627 -0.024685
C 84.903356 -0.022829 -0.030841
C 86.255717 0.001956 -0.014973
C 87.355984 0.003247 0.001636
C 96.285003 0.003247 0.001636
C 97.743229 -0.018590 -0.016237
C 98.877158 -0.039344 -0.017728
C 100.238539 -0.051933 -0.019919
C 101.512758 -0.041627 -0.024685
C 102.701220 -0.022829 -0.030841
C 104.053581 0.001956 -0.014973
C 105.153849 0.003247 0.001636
C 114.082867 0.003247 0.001636
C 115.541094 -0.018590 -0.016237
C 116.675022 -0.039344 -0.017728
C 118.036403 -0.051933 -0.019919
C 119.310622 -0.041627 -0.024685
C 120.499085 -0.022829 -0.030841
C 121.851445 0.001956 -0.014973
C 122.951713 0.003247 0.001636
C 70.486640 0.007179 0.005565
C 71.271348 0.876571 -1.061329
C 70.729815 1.473407 -2.174672
C 71.768862 2.170879 -2.837078
C 72.920047 1.975329 -2.113166
N 72.618289 1.149096 -1.056659
C 74.338398 2.591831 -2.449172
C 74.376072 3.772363 -3.348202
C 74.601060 3.617082 -4.721197
C 74.643754 4.731631 -5.562548
C 74.456179 6.006847 -5.026401
C 74.499188 7.200133 -5.896280
O 74.660484 7.138168 -7.109544
C 74.224445 6.175567 -3.658724
C 74.184859 5.057057 -2.823361
C 75.469237 2.071644 -1.902340
C 76.775455 2.621474 -2.196847
C 77.686953 1.919152 -1.534361
N 75.668409 1.028854 -1.035911
C 77.008826 0.886135 -0.776849
C 77.690919 0.007179 0.005565
C 76.914820 -1.101804 0.841051
C 77.493964 -2.113986 1.584531
C 76.452768 -2.838797 2.208871
C 75.260490 -2.250756 1.831589
N 75.549646 -1.215420 0.972460
C 73.826497 -2.684362 2.339259
C 73.763627 -3.780625 3.333410
C 73.639404 -5.102928 2.886458
C 73.606592 -6.151847 3.804015
C 73.684182 -5.871522 5.173179
C 73.637791 -6.995926 6.127762
O 73.706120 -6.845825 7.341566
C 73.798470 -4.555836 5.630801
C 73.843186 -3.510377 4.706449
C 72.697674 -2.091174 1.874446
C 71.389672 -2.455579 2.377370
C 70.482441 -1.708318 1.762915
C 71.162196 -0.849560 0.815315
N 72.501496 -1.115065 0.937423
H 69.698552 1.419936 -2.479262
H 71.683125 2.753210 -3.739804
H 73.290943 0.761544 -0.405609
H 74.749802 2.618875 -5.121840
H 74.826381 4.597970 -6.623790
H 74.370908 8.174249 -5.393050
H 74.074102 7.159528 -3.228224
H 74.011530 5.168887 -1.753764
H 76.987919 3.453081 -2.842993
H 78.743884 2.105703 -1.572160
H 78.550134 -2.305862 1.688750
H 76.564748 -3.683466 2.876272
H 74.860781 -0.617643 0.519387
H 73.568656 -5.293100 1.815637
H 73.521208 -7.168707 3.434611
H 73.536600 -8.001274 5.686092
H 73.853956 -4.339301 6.694392
H 73.936284 -2.479631 5.039161
H 71.177139 -3.194908 3.128184
H 69.425161 -1.760240 1.945213
C 88.284504 0.007179 0.005565
C 89.069213 0.876571 -1.061329
C 88.527679 1.473407 -2.174672
C 89.566727 2.170879 -2.837078
C 90.717911 1.975329 -2.113166
N 90.416153 1.149096 -1.056659
C 92.136262 2.591831 -2.449172
C 92.173937 3.772363 -3.348202
C 92.398924 3.617082 -4.721197
C 92.441619 4.731631 -5.562548
C 92.254043 6.006847 -5.026401
C 92.297052 7.200133 -5.896280
O 92.458348 7.138168 -7.109544
C 92.022310 6.175567 -3.658724
C 91.982724 5.057057 -2.823361
C 93.267101 2.071644 -1.902340
C 94.573319 2.621474 -2.196847
C 95.484818 1.919152 -1.534361
N 93.466273 1.028854 -1.035911
C 94.806690 0.886135 -0.776849
C 95.488784 0.007179 0.005565
C 94.712684 -1.101804 0.841051
C 95.291828 -2.113986 1.584531
C 94.250633 -2.838797 2.208871
C 93.058354 -2.250756 1.831589
N 93.347510 -1.215420 0.972460
C 91.624362 -2.684362 2.339259
C 91.561491 -3.780625 3.333410
C 91.437268 -5.102928 2.886458
C 91.404456 -6.151847 3.804015
C 91.482046 -5.871522 5.173179
C 91.435655 -6.995926 6.127762
O 91.503984 -6.845825 7.341566
C 91.596334 -4.555836 5.630801
C 91.641050 -3.510377 4.706449
C 90.495539 -2.091174 1.874446
C 89.187536 -2.455579 2.377370
C 88.280305 -1.708318 1.762915
C 88.960060 -0.849560 0.815315
N 90.299360 -1.115065 0.937423
H 87.496417 1.419936 -2.479262
H 89.480989 2.753210 -3.739804
H 91.088808 0.761544 -0.405609
H 92.547667 2.618875 -5.121840
H 92.624245 4.597970 -6.623790
H 92.168772 8.174249 -5.393050
H 91.871966 7.159528 -3.228224
H 91.809394 5.168887 -1.753764
H 94.785784 3.453081 -2.842993
H 96.541748 2.105703 -1.572160
H 96.347998 -2.305862 1.688750
H 94.362612 -3.683466 2.876272
H 92.658645 -0.617643 0.519387
H 91.366520 -5.293100 1.815637
H 91.319072 -7.168707 3.434611
H 91.334464 -8.001274 5.686092
H 91.651820 -4.339301 6.694392
H 91.734148 -2.479631 5.039161
H 88.975003 -3.194908 3.128184
H 87.223025 -1.760240 1.945213
C 106.082368 0.007179 0.005565
C 106.867077 0.876571 -1.061329
C 106.325543 1.473407 -2.174672
C 107.364591 2.170879 -2.837078
C 108.515775 1.975329 -2.113166
N 108.214017 1.149096 -1.056659
C 109.934127 2.591831 -2.449172
C 109.971801 3.772363 -3.348202
C 110.196788 3.617082 -4.721197
C 110.239483 4.731631 -5.562548
C 110.051907 6.006847 -5.026401
C 110.094916 7.200133 -5.896280
O 110.256212 7.138168 -7.109544
C 109.820174 6.175567 -3.658724
C 109.780588 5.057057 -2.823361
C 111.064966 2.071644 -1.902340
C 112.371183 2.621474 -2.196847
C 113.282682 1.919152 -1.534361
N 111.264137 1.028854 -1.035911
C 112.604554 0.886135 -0.776849
C 113.286648 0.007179 0.005565
C 112.510549 -1.101804 0.841051
C 113.089692 -2.113986 1.584531
C 112.048497 -2.838797 2.208871
C 110.856218 -2.250756 1.831589
N 111.145375 -1.215420 0.972460
C 109.422226 -2.684362 2.339259
C 109.359355 -3.780625 3.333410
C 109.235132 -5.102928 2.886458
C 109.202321 -6.151847 3.804015
C 109.279911 -5.871522 5.173179
C 109.233519 -6.995926 6.127762
O 109.301848 -6.845825 7.341566
C 109.394199 -4.555836 5.630801
C 109.438915 -3.510377 4.706449
C 108.293403 -2.091174 1.874446
C 106.985400 -2.455579 2.377370
C 106.078169 -1.708318 1.762915
C 106.757925 -0.849560 0.815315
N 108.097225 -1.115065 0.937423
H 105.294281 1.419936 -2.479262
H 107.278854 2.753210 -3.739804
H 108.886672 0.761544 -0.405609
H 110.345531 2.618875 -5.121840
H 110.422109 4.597970 -6.623790
H 109.966636 8.174249 -5.393050
H 109.669831 7.159528 -3.228224
H 109.607258 5.168887 -1.753764
H 112.583648 3.453081 -2.842993
H 114.339613 2.105703 -1.572160
H 114.145862 -2.305862 1.688750
H 112.160477 -3.683466 2.876272
H 110.456510 -0.617643 0.519387
H 109.164384 -5.293100 1.815637
H 109.116936 -7.168707 3.434611
H 109.132329 -8.001274 5.686092
H 109.449684 -4.339301 6.694392
H 109.532012 -2.479631 5.039161
H 106.772868 -3.194908 3.128184
H 105.020889 -1.760240 1.945213
