228

C 40.213186 -0.001332 -0.000075
C 40.947620 -1.378490 -0.071961
C 40.360474 -2.622154 -0.136877
C 41.412393 -3.578052 -0.186779
C 42.600845 -2.880867 -0.150390
N 42.309152 -1.545187 -0.080663
C 44.032200 -3.499189 -0.182676
C 45.154762 -2.754382 -0.143793
C 46.439748 -3.406848 -0.177862
C 47.377031 -2.465619 -0.128725
N 45.376593 -1.412165 -0.073716
C 46.725971 -1.167752 -0.060964
C 47.422733 -0.000000 -0.000004
C 46.648067 1.392288 0.072684
C 47.211646 2.652827 0.138497
C 46.153622 3.596985 0.187786
C 44.975711 2.887055 0.150714
N 45.281059 1.549919 0.080905
C 43.542914 3.511617 0.183311
C 42.425393 2.762009 0.144177
C 41.121624 3.386730 0.176782
C 40.205141 2.422677 0.126457
C 40.899196 1.157041 0.060394
N 42.235277 1.418267 0.074033
H 39.130470 0.006886 0.000351
H 39.299798 -2.819821 -0.147194
H 41.313128 -4.651115 -0.242795
H 42.989177 -0.789149 -0.041200
H 44.110243 -4.578622 -0.239034
H 46.604708 -4.467762 -0.233253
H 48.435070 -2.653018 -0.138512
H 48.267020 2.877602 0.150237
H 46.242049 4.671081 0.243863
H 44.602356 0.792077 0.041339
H 43.461682 4.590497 0.239629
H 40.935649 4.443886 0.231964
H 39.138259 2.552077 0.133208
C 107.100825 0.001312 -0.000245
C 106.366391 1.357848 -0.248320
C 106.953537 2.582890 -0.472347
C 105.901619 3.524473 -0.644543
C 104.713166 2.837727 -0.518958
N 105.004859 1.522049 -0.278349
C 103.281811 3.446789 -0.630350
C 102.159249 2.713136 -0.496179
C 100.874263 3.355830 -0.613723
C 99.936980 2.428696 -0.444168
N 101.937418 1.391019 -0.254384
C 100.588040 1.150265 -0.210362
C 99.891278 -0.000000 -0.000004
C 100.665944 -1.371438 0.250808
C 100.102365 -2.613100 0.477891
C 101.160389 -3.543119 0.647971
C 102.338301 -2.843822 0.520074
N 102.032952 -1.526710 0.279196
C 103.771098 -3.459032 0.632576
C 104.888618 -2.720650 0.497539
C 106.192387 -3.336017 0.610069
C 107.108870 -2.386399 0.436406
C 106.414815 -1.139715 0.208422
N 105.078734 -1.397029 0.255481
H 108.183541 -0.006783 0.001232
H 108.014213 2.777596 -0.507953
H 106.000883 4.581467 -0.837842
H 104.324834 0.777331 -0.142161
H 103.203768 4.510057 -0.824807
H 100.709303 4.400857 -0.804843
H 98.878941 2.613288 -0.477930
H 99.046991 -2.834508 0.518388
H 101.071962 -4.601130 0.841465
H 102.711655 -0.780217 0.142675
H 103.852330 -4.521756 0.826921
H 106.378362 -4.377342 0.800500
H 108.175752 -2.513863 0.459712
C 50.217060 -0.000000 -0.000004
C 51.438978 -0.000000 -0.000004
C 61.631553 -0.000000 -0.000004
C 62.853471 -0.000000 -0.000004
C 73.046047 -0.000000 -0.000004
C 74.267964 -0.000000 -0.000004
C 84.460540 -0.000000 -0.000004
C 85.682458 -0.000000 -0.000004
C 95.875033 -0.000000 -0.000004
C 97.096951 -0.000000 -0.000004
C 52.880570 0.000000 0.000002
C 53.660610 1.387535 -0.017323
C 53.108505 2.653636 -0.033147
C 54.177122 3.586260 -0.044779
C 55.348029 2.862632 -0.035719
N 55.029336 1.529605 -0.019077
C 56.780401 3.477300 -0.043366
C 57.906026 2.739247 -0.034158
C 59.186324 3.402645 -0.042412
C 60.130775 2.467672 -0.030750
N 58.136016 1.398756 -0.017451
C 59.487748 1.165202 -0.014526
C 60.189962 0.000000 0.000002
C 59.409922 -1.387535 0.017283
C 59.962027 -2.653638 0.033019
C 58.893410 -3.586261 0.044656
C 57.722502 -2.862632 0.035684
N 58.041195 -1.529605 0.019081
C 56.290130 -3.477299 0.043376
C 55.164505 -2.739247 0.034174
C 53.884208 -3.402644 0.042472
C 52.939757 -2.467672 0.030809
C 53.582783 -1.165202 0.014540
N 54.934515 -1.398756 0.017441
H 52.055302 2.888859 -0.036101
H 54.100492 4.662761 -0.058226
H 55.694150 0.758996 -0.009451
H 56.857290 4.558639 -0.056840
H 59.343470 4.466189 -0.055664
H 61.187668 2.661875 -0.033159
H 61.015229 -2.888861 0.035914
H 58.970039 -4.662762 0.058049
H 57.376381 -0.758995 0.009497
H 56.213242 -4.558638 0.056878
H 53.727062 -4.466188 0.055753
H 51.882863 -2.661875 0.033246
C 64.295063 0.000000 0.000002
C 65.075103 1.387535 -0.017323
C 64.522998 2.653636 -0.033147
C 65.591615 3.586260 -0.044779
C 66.762523 2.862632 -0.035719
N 66.443830 1.529605 -0.019077
C 68.194895 3.477300 -0.043366
C 69.320520 2.739247 -0.034158
C 70.600817 3.402645 -0.042412
C 71.545268 2.467672 -0.030750
N 69.550509 1.398756 -0.017451
C 70.902241 1.165202 -0.014526
C 71.604455 0.000000 0.000002
C 70.824415 -1.387535 0.017283
C 71.376520 -2.653638 0.033019
C 70.307903 -3.586261 0.044656
C 69.136995 -2.862632 0.035684
N 69.455688 -1.529605 0.019081
C 67.704623 -3.477299 0.043376
C 66.578999 -2.739247 0.034174
C 65.298701 -3.402644 0.042472
C 64.354250 -2.467672 0.030809
C 64.997276 -1.165202 0.014540
N 66.349009 -1.398756 0.017441
H 63.469795 2.888859 -0.036101
H 65.514985 4.662761 -0.058226
H 67.108643 0.758996 -0.009451
H 68.271783 4.558639 -0.056840
H 70.757964 4.466189 -0.055664
H 72.602161 2.661875 -0.033159
H 72.429722 -2.888861 0.035914
H 70.384532 -4.662762 0.058049
H 68.790875 -0.758995 0.009497
H 67.627735 -4.558638 0.056878
H 65.141555 -4.466188 0.055753
H 63.297356 -2.661875 0.033246
C 75.709556 0.000000 0.000002
C 76.489596 1.387535 -0.017323
C 75.937491 2.653636 -0.033147
C 77.006108 3.586260 -0.044779
C 78.177016 2.862632 -0.035719
N 77.858323 1.529605 -0.019077
C 79.609388 3.477300 -0.043366
C 80.735013 2.739247 -0.034158
C 82.015311 3.402645 -0.042412
C 82.959761 2.467672 -0.030750
N 80.965003 1.398756 -0.017451
C 82.316735 1.165202 -0.014526
C 83.018948 0.000000 0.000002
C 82.238908 -1.387535 0.017283
C 82.791013 -2.653638 0.033019
C 81.722396 -3.586261 0.044656
C 80.551488 -2.862632 0.035684
N 80.870182 -1.529605 0.019081
C 79.119117 -3.477299 0.043376
C 77.993492 -2.739247 0.034174
C 76.713194 -3.402644 0.042472
C 75.768743 -2.467672 0.030809
C 76.411770 -1.165202 0.014540
N 77.763502 -1.398756 0.017441
H 74.884289 2.888859 -0.036101
H 76.929479 4.662761 -0.058226
H 78.523136 0.758996 -0.009451
H 79.686276 4.558639 -0.056840
H 82.172457 4.466189 -0.055664
H 84.016655 2.661875 -0.033159
H 83.844216 -2.888861 0.035914
H 81.799026 -4.662762 0.058049
H 80.205368 -0.758995 0.009497
H 79.042228 -4.558638 0.056878
H 76.556048 -4.466188 0.055753
H 74.711850 -2.661875 0.033246
C 87.124049 0.000000 0.000002
C 87.904089 1.387535 -0.017323
C 87.351985 2.653636 -0.033147
C 88.420601 3.586260 -0.044779
C 89.591509 2.862632 -0.035719
N 89.272816 1.529605 -0.019077
C 91.023881 3.477300 -0.043366
C 92.149506 2.739247 -0.034158
C 93.429804 3.402645 -0.042412
C 94.374254 2.467672 -0.030750
N 92.379496 1.398756 -0.017451
C 93.731228 1.165202 -0.014526
C 94.433441 0.000000 0.000002
C 93.653402 -1.387535 0.017283
C 94.205507 -2.653638 0.033019
C 93.136889 -3.586261 0.044656
C 91.965982 -2.862632 0.035684
N 92.284675 -1.529605 0.019081
C 90.533610 -3.477299 0.043376
C 89.407985 -2.739247 0.034174
C 88.127687 -3.402644 0.042472
C 87.183237 -2.467672 0.030809
C 87.826263 -1.165202 0.014540
N 89.177995 -1.398756 0.017441
H 86.298782 2.888859 -0.036101
H 88.343972 4.662761 -0.058226
H 89.937629 0.758996 -0.009451
H 91.100770 4.558639 -0.056840
H 93.586950 4.466189 -0.055664
H 95.431148 2.661875 -0.033159
H 95.258709 -2.888861 0.035914
H 93.213519 -4.662762 0.058049
H 91.619861 -0.758995 0.009497
H 90.456721 -4.558638 0.056878
H 87.970541 -4.466188 0.055753
H 86.126343 -2.661875 0.033246
