 xtb: 6.5.1 (b24c23e)
          07262213263D

228257  0     0  0            999 V2000
   42.5859    0.0381   -0.0379 C   0  0  0  0  0  0  0  0  0  0  0  0
   43.1873   -1.1832   -0.3140 C   0  0  0  0  0  0  0  0  0  0  0  0
   42.5505   -2.4222   -0.6126 C   0  0  0  0  0  0  0  0  0  0  0  0
   43.5256   -3.3575   -0.8166 C   0  0  0  0  0  0  0  0  0  0  0  0
   44.7887   -2.7201   -0.6484 C   0  0  0  0  0  0  0  0  0  0  0  0
   44.5332   -1.4134   -0.3477 N   0  0  0  0  0  0  0  0  0  0  0  0
   46.0464   -3.2999   -0.7639 C   0  0  0  0  0  0  0  0  0  0  0  0
   47.2790   -2.6832   -0.6014 C   0  0  0  0  0  0  0  0  0  0  0  0
   48.5425   -3.3829   -0.7519 C   0  0  0  0  0  0  0  0  0  0  0  0
   49.5115   -2.4709   -0.5303 C   0  0  0  0  0  0  0  0  0  0  0  0
   47.5003   -1.3767   -0.2934 N   0  0  0  0  0  0  0  0  0  0  0  0
   48.8374   -1.2176   -0.2430 C   0  0  0  0  0  0  0  0  0  0  0  0
   49.5161   -0.0121    0.0272 C   0  0  0  0  0  0  0  0  0  0  0  0
   48.8894    1.2199    0.2919 C   0  0  0  0  0  0  0  0  0  0  0  0
   49.5189    2.4588    0.5890 C   0  0  0  0  0  0  0  0  0  0  0  0
   48.5397    3.3915    0.7933 C   0  0  0  0  0  0  0  0  0  0  0  0
   47.2814    2.7480    0.6291 C   0  0  0  0  0  0  0  0  0  0  0  0
   47.5450    1.4394    0.3272 N   0  0  0  0  0  0  0  0  0  0  0  0
   46.0248    3.3280    0.7525 C   0  0  0  0  0  0  0  0  0  0  0  0
   44.7913    2.7079    0.5994 C   0  0  0  0  0  0  0  0  0  0  0  0
   43.5205    3.4003    0.7489 C   0  0  0  0  0  0  0  0  0  0  0  0
   42.5579    2.4824    0.5286 C   0  0  0  0  0  0  0  0  0  0  0  0
   43.2416    1.2305    0.2451 C   0  0  0  0  0  0  0  0  0  0  0  0
   44.5835    1.4048    0.2969 N   0  0  0  0  0  0  0  0  0  0  0  0
   41.5012    0.0538   -0.0468 H   0  0  0  0  0  0  0  0  0  0  0  0
   41.4825   -2.5639   -0.6619 H   0  0  0  0  0  0  0  0  0  0  0  0
   43.3958   -4.3995   -1.0623 H   0  0  0  0  0  0  0  0  0  0  0  0
   45.2401   -0.7072   -0.1724 H   0  0  0  0  0  0  0  0  0  0  0  0
   46.0571   -4.3567   -1.0113 H   0  0  0  0  0  0  0  0  0  0  0  0
   48.6412   -4.4289   -0.9967 H   0  0  0  0  0  0  0  0  0  0  0  0
   50.5811   -2.6044   -0.5575 H   0  0  0  0  0  0  0  0  0  0  0  0
   50.5855    2.6061    0.6432 H   0  0  0  0  0  0  0  0  0  0  0  0
   48.6662    4.4339    1.0387 H   0  0  0  0  0  0  0  0  0  0  0  0
   46.8409    0.7286    0.1579 H   0  0  0  0  0  0  0  0  0  0  0  0
   46.0168    4.3853    0.9974 H   0  0  0  0  0  0  0  0  0  0  0  0
   43.4158    4.4467    0.9899 H   0  0  0  0  0  0  0  0  0  0  0  0
   41.4864    2.6067    0.5485 H   0  0  0  0  0  0  0  0  0  0  0  0
  104.7321   -0.0032    0.0250 C   0  0  0  0  0  0  0  0  0  0  0  0
  104.1235    1.1927   -0.3340 C   0  0  0  0  0  0  0  0  0  0  0  0
  104.7527    2.4206   -0.6888 C   0  0  0  0  0  0  0  0  0  0  0  0
  103.7718    3.3307   -0.9662 C   0  0  0  0  0  0  0  0  0  0  0  0
  102.5126    2.6879   -0.7895 C   0  0  0  0  0  0  0  0  0  0  0  0
  102.7761    1.4038   -0.4090 N   0  0  0  0  0  0  0  0  0  0  0  0
  101.2513    3.2435   -0.9677 C   0  0  0  0  0  0  0  0  0  0  0  0
  100.0223    2.6218   -0.7970 C   0  0  0  0  0  0  0  0  0  0  0  0
   98.7550    3.2952   -1.0188 C   0  0  0  0  0  0  0  0  0  0  0  0
   97.7912    2.3880   -0.7585 C   0  0  0  0  0  0  0  0  0  0  0  0
   99.8082    1.3346   -0.4119 N   0  0  0  0  0  0  0  0  0  0  0  0
   98.4720    1.1638   -0.3771 C   0  0  0  0  0  0  0  0  0  0  0  0
   97.8002   -0.0282   -0.0380 C   0  0  0  0  0  0  0  0  0  0  0  0
   98.4347   -1.2357    0.3088 C   0  0  0  0  0  0  0  0  0  0  0  0
   97.8130   -2.4616    0.6691 C   0  0  0  0  0  0  0  0  0  0  0  0
   98.7981   -3.3699    0.9435 C   0  0  0  0  0  0  0  0  0  0  0  0
  100.0522   -2.7232    0.7618 C   0  0  0  0  0  0  0  0  0  0  0  0
   99.7805   -1.4381    0.3772 N   0  0  0  0  0  0  0  0  0  0  0  0
  101.3124   -3.2797    0.9441 C   0  0  0  0  0  0  0  0  0  0  0  0
  102.5420   -2.6553    0.7784 C   0  0  0  0  0  0  0  0  0  0  0  0
  103.8166   -3.3220    0.9967 C   0  0  0  0  0  0  0  0  0  0  0  0
  104.7739   -2.4082    0.7397 C   0  0  0  0  0  0  0  0  0  0  0  0
  104.0832   -1.1843    0.3656 C   0  0  0  0  0  0  0  0  0  0  0  0
  102.7424   -1.3709    0.4006 N   0  0  0  0  0  0  0  0  0  0  0  0
  105.8168   -0.0067    0.0387 H   0  0  0  0  0  0  0  0  0  0  0  0
  105.8198    2.5728   -0.7233 H   0  0  0  0  0  0  0  0  0  0  0  0
  103.8952    4.3589   -1.2671 H   0  0  0  0  0  0  0  0  0  0  0  0
  102.0737    0.6998   -0.2088 H   0  0  0  0  0  0  0  0  0  0  0  0
  101.2341    4.2836   -1.2773 H   0  0  0  0  0  0  0  0  0  0  0  0
   98.6506    4.3219   -1.3331 H   0  0  0  0  0  0  0  0  0  0  0  0
   96.7212    2.5064   -0.8179 H   0  0  0  0  0  0  0  0  0  0  0  0
   96.7472   -2.6175    0.7143 H   0  0  0  0  0  0  0  0  0  0  0  0
   98.6780   -4.3973    1.2480 H   0  0  0  0  0  0  0  0  0  0  0  0
  100.4800   -0.7304    0.1781 H   0  0  0  0  0  0  0  0  0  0  0  0
  101.3267   -4.3199    1.2535 H   0  0  0  0  0  0  0  0  0  0  0  0
  103.9272   -4.3501    1.3048 H   0  0  0  0  0  0  0  0  0  0  0  0
  105.8461   -2.5181    0.7894 H   0  0  0  0  0  0  0  0  0  0  0  0
   50.9245   -0.0233    0.0302 C   0  0  0  0  0  0  0  0  0  0  0  0
   52.1417   -0.0285    0.0289 C   0  0  0  0  0  0  0  0  0  0  0  0
   61.9722   -0.0048    0.0087 C   0  0  0  0  0  0  0  0  0  0  0  0
   63.1904   -0.0013    0.0067 C   0  0  0  0  0  0  0  0  0  0  0  0
   73.0451    0.0427   -0.0161 C   0  0  0  0  0  0  0  0  0  0  0  0
   74.2640    0.0433   -0.0103 C   0  0  0  0  0  0  0  0  0  0  0  0
   84.1216   -0.0046    0.0144 C   0  0  0  0  0  0  0  0  0  0  0  0
   85.3400   -0.0063    0.0189 C   0  0  0  0  0  0  0  0  0  0  0  0
   95.1746   -0.0254   -0.0314 C   0  0  0  0  0  0  0  0  0  0  0  0
   96.3918   -0.0262   -0.0395 C   0  0  0  0  0  0  0  0  0  0  0  0
   53.5492   -0.0257    0.0231 C   0  0  0  0  0  0  0  0  0  0  0  0
   54.1861    1.1922   -0.2827 C   0  0  0  0  0  0  0  0  0  0  0  0
   53.5733    2.4296   -0.6132 C   0  0  0  0  0  0  0  0  0  0  0  0
   54.5665    3.3387   -0.8583 C   0  0  0  0  0  0  0  0  0  0  0  0
   55.8146    2.6801   -0.6858 C   0  0  0  0  0  0  0  0  0  0  0  0
   55.5336    1.3878   -0.3369 N   0  0  0  0  0  0  0  0  0  0  0  0
   57.0786    3.2370   -0.8494 C   0  0  0  0  0  0  0  0  0  0  0  0
   58.3126    2.6241   -0.6971 C   0  0  0  0  0  0  0  0  0  0  0  0
   59.5709    3.3159   -0.9115 C   0  0  0  0  0  0  0  0  0  0  0  0
   60.5461    2.4142   -0.6744 C   0  0  0  0  0  0  0  0  0  0  0  0
   58.5440    1.3315   -0.3386 N   0  0  0  0  0  0  0  0  0  0  0  0
   59.8818    1.1762   -0.3125 C   0  0  0  0  0  0  0  0  0  0  0  0
   60.5657   -0.0148    0.0110 C   0  0  0  0  0  0  0  0  0  0  0  0
   59.9274   -1.2272    0.3380 C   0  0  0  0  0  0  0  0  0  0  0  0
   60.5377   -2.4586    0.6942 C   0  0  0  0  0  0  0  0  0  0  0  0
   59.5438   -3.3687    0.9307 C   0  0  0  0  0  0  0  0  0  0  0  0
   58.2965   -2.7165    0.7289 C   0  0  0  0  0  0  0  0  0  0  0  0
   58.5797   -1.4260    0.3741 N   0  0  0  0  0  0  0  0  0  0  0  0
   57.0330   -3.2805    0.8677 C   0  0  0  0  0  0  0  0  0  0  0  0
   55.7981   -2.6734    0.6970 C   0  0  0  0  0  0  0  0  0  0  0  0
   54.5388   -3.3726    0.8829 C   0  0  0  0  0  0  0  0  0  0  0  0
   53.5636   -2.4702    0.6489 C   0  0  0  0  0  0  0  0  0  0  0  0
   54.2295   -1.2240    0.3183 C   0  0  0  0  0  0  0  0  0  0  0  0
   55.5681   -1.3771    0.3548 N   0  0  0  0  0  0  0  0  0  0  0  0
   52.5088    2.5928   -0.6618 H   0  0  0  0  0  0  0  0  0  0  0  0
   54.4543    4.3743   -1.1374 H   0  0  0  0  0  0  0  0  0  0  0  0
   56.2237    0.6673   -0.1513 H   0  0  0  0  0  0  0  0  0  0  0  0
   57.0898    4.2841   -1.1363 H   0  0  0  0  0  0  0  0  0  0  0  0
   59.6625    4.3497   -1.2056 H   0  0  0  0  0  0  0  0  0  0  0  0
   61.6142    2.5458   -0.7377 H   0  0  0  0  0  0  0  0  0  0  0  0
   61.6012   -2.6182    0.7642 H   0  0  0  0  0  0  0  0  0  0  0  0
   59.6545   -4.4009    1.2224 H   0  0  0  0  0  0  0  0  0  0  0  0
   57.8905   -0.7101    0.1681 H   0  0  0  0  0  0  0  0  0  0  0  0
   57.0224   -4.3286    1.1510 H   0  0  0  0  0  0  0  0  0  0  0  0
   54.4471   -4.4116    1.1579 H   0  0  0  0  0  0  0  0  0  0  0  0
   52.4949   -2.6056    0.6944 H   0  0  0  0  0  0  0  0  0  0  0  0
   64.5966    0.0100    0.0033 C   0  0  0  0  0  0  0  0  0  0  0  0
   65.2357    1.2641    0.0638 C   0  0  0  0  0  0  0  0  0  0  0  0
   64.6282    2.5440    0.1496 C   0  0  0  0  0  0  0  0  0  0  0  0
   65.6247    3.4808    0.1970 C   0  0  0  0  0  0  0  0  0  0  0  0
   66.8703    2.7973    0.1452 C   0  0  0  0  0  0  0  0  0  0  0  0
   66.5840    1.4624    0.0639 N   0  0  0  0  0  0  0  0  0  0  0  0
   68.1350    3.3753    0.1825 C   0  0  0  0  0  0  0  0  0  0  0  0
   69.3714    2.7492    0.1509 C   0  0  0  0  0  0  0  0  0  0  0  0
   70.6256    3.4774    0.2162 C   0  0  0  0  0  0  0  0  0  0  0  0
   71.6059    2.5517    0.1654 C   0  0  0  0  0  0  0  0  0  0  0  0
   69.6107    1.4122    0.0618 N   0  0  0  0  0  0  0  0  0  0  0  0
   70.9496    1.2623    0.0647 C   0  0  0  0  0  0  0  0  0  0  0  0
   71.6388    0.0332   -0.0183 C   0  0  0  0  0  0  0  0  0  0  0  0
   70.9970   -1.2191   -0.1031 C   0  0  0  0  0  0  0  0  0  0  0  0
   71.6019   -2.4982   -0.2130 C   0  0  0  0  0  0  0  0  0  0  0  0
   70.6050   -3.4342   -0.2610 C   0  0  0  0  0  0  0  0  0  0  0  0
   69.3607   -2.7512   -0.1855 C   0  0  0  0  0  0  0  0  0  0  0  0
   69.6485   -1.4170   -0.0935 N   0  0  0  0  0  0  0  0  0  0  0  0
   68.0968   -3.3316   -0.2058 C   0  0  0  0  0  0  0  0  0  0  0  0
   66.8600   -2.7079   -0.1546 C   0  0  0  0  0  0  0  0  0  0  0  0
   65.6049   -3.4364   -0.1995 C   0  0  0  0  0  0  0  0  0  0  0  0
   64.6251   -2.5104   -0.1442 C   0  0  0  0  0  0  0  0  0  0  0  0
   65.2835   -1.2206   -0.0616 C   0  0  0  0  0  0  0  0  0  0  0  0
   66.6223   -1.3706   -0.0704 N   0  0  0  0  0  0  0  0  0  0  0  0
   63.5650    2.7178    0.1775 H   0  0  0  0  0  0  0  0  0  0  0  0
   65.5164    4.5515    0.2651 H   0  0  0  0  0  0  0  0  0  0  0  0
   67.2701    0.7160    0.0162 H   0  0  0  0  0  0  0  0  0  0  0  0
   68.1446    4.4589    0.2514 H   0  0  0  0  0  0  0  0  0  0  0  0
   70.7115    4.5499    0.2931 H   0  0  0  0  0  0  0  0  0  0  0  0
   72.6730    2.7001    0.1959 H   0  0  0  0  0  0  0  0  0  0  0  0
   72.6639   -2.6728   -0.2559 H   0  0  0  0  0  0  0  0  0  0  0  0
   70.7124   -4.5039   -0.3439 H   0  0  0  0  0  0  0  0  0  0  0  0
   68.9633   -0.6711   -0.0286 H   0  0  0  0  0  0  0  0  0  0  0  0
   68.0885   -4.4150   -0.2774 H   0  0  0  0  0  0  0  0  0  0  0  0
   65.5183   -4.5095   -0.2676 H   0  0  0  0  0  0  0  0  0  0  0  0
   63.5574   -2.6584   -0.1628 H   0  0  0  0  0  0  0  0  0  0  0  0
   75.6704    0.0440   -0.0043 C   0  0  0  0  0  0  0  0  0  0  0  0
   76.3234    1.2864   -0.1336 C   0  0  0  0  0  0  0  0  0  0  0  0
   75.7314    2.5674   -0.2839 C   0  0  0  0  0  0  0  0  0  0  0  0
   76.7381    3.4903   -0.3683 C   0  0  0  0  0  0  0  0  0  0  0  0
   77.9756    2.7969   -0.2755 C   0  0  0  0  0  0  0  0  0  0  0  0
   77.6739    1.4700   -0.1355 N   0  0  0  0  0  0  0  0  0  0  0  0
   79.2459    3.3615   -0.3243 C   0  0  0  0  0  0  0  0  0  0  0  0
   80.4764    2.7268   -0.2554 C   0  0  0  0  0  0  0  0  0  0  0  0
   81.7382    3.4404   -0.3360 C   0  0  0  0  0  0  0  0  0  0  0  0
   82.7093    2.5080   -0.2462 C   0  0  0  0  0  0  0  0  0  0  0  0
   80.7018    1.3917   -0.1174 N   0  0  0  0  0  0  0  0  0  0  0  0
   82.0392    1.2292   -0.1070 C   0  0  0  0  0  0  0  0  0  0  0  0
   82.7154   -0.0037    0.0107 C   0  0  0  0  0  0  0  0  0  0  0  0
   82.0638   -1.2477    0.1252 C   0  0  0  0  0  0  0  0  0  0  0  0
   82.6575   -2.5295    0.2638 C   0  0  0  0  0  0  0  0  0  0  0  0
   81.6512   -3.4529    0.3499 C   0  0  0  0  0  0  0  0  0  0  0  0
   80.4131   -2.7588    0.2703 C   0  0  0  0  0  0  0  0  0  0  0  0
   80.7135   -1.4315    0.1339 N   0  0  0  0  0  0  0  0  0  0  0  0
   79.1424   -3.3212    0.3330 C   0  0  0  0  0  0  0  0  0  0  0  0
   77.9126   -2.6841    0.2771 C   0  0  0  0  0  0  0  0  0  0  0  0
   76.6517   -3.3964    0.3767 C   0  0  0  0  0  0  0  0  0  0  0  0
   75.6805   -2.4642    0.2878 C   0  0  0  0  0  0  0  0  0  0  0  0
   76.3488   -1.1868    0.1297 C   0  0  0  0  0  0  0  0  0  0  0  0
   77.6862   -1.3497    0.1312 N   0  0  0  0  0  0  0  0  0  0  0  0
   74.6708    2.7519   -0.3255 H   0  0  0  0  0  0  0  0  0  0  0  0
   76.6420    4.5578   -0.4866 H   0  0  0  0  0  0  0  0  0  0  0  0
   78.3514    0.7194   -0.0477 H   0  0  0  0  0  0  0  0  0  0  0  0
   79.2660    4.4413   -0.4370 H   0  0  0  0  0  0  0  0  0  0  0  0
   81.8351    4.5088   -0.4492 H   0  0  0  0  0  0  0  0  0  0  0  0
   83.7782    2.6446   -0.2757 H   0  0  0  0  0  0  0  0  0  0  0  0
   83.7186   -2.7136    0.2983 H   0  0  0  0  0  0  0  0  0  0  0  0
   81.7480   -4.5210    0.4618 H   0  0  0  0  0  0  0  0  0  0  0  0
   80.0354   -0.6803    0.0556 H   0  0  0  0  0  0  0  0  0  0  0  0
   79.1214   -4.4007    0.4471 H   0  0  0  0  0  0  0  0  0  0  0  0
   76.5554   -4.4636    0.5008 H   0  0  0  0  0  0  0  0  0  0  0  0
   74.6124   -2.6006    0.3295 H   0  0  0  0  0  0  0  0  0  0  0  0
   86.7464   -0.0050    0.0209 C   0  0  0  0  0  0  0  0  0  0  0  0
   87.3932    1.2245    0.2552 C   0  0  0  0  0  0  0  0  0  0  0  0
   86.7920    2.4824    0.5228 C   0  0  0  0  0  0  0  0  0  0  0  0
   87.7923    3.4013    0.6875 C   0  0  0  0  0  0  0  0  0  0  0  0
   89.0347    2.7286    0.5278 C   0  0  0  0  0  0  0  0  0  0  0  0
   88.7422    1.4172    0.2706 N   0  0  0  0  0  0  0  0  0  0  0  0
   90.3016    3.2951    0.6165 C   0  0  0  0  0  0  0  0  0  0  0  0
   91.5329    2.6723    0.4795 C   0  0  0  0  0  0  0  0  0  0  0  0
   92.7959    3.3787    0.6016 C   0  0  0  0  0  0  0  0  0  0  0  0
   93.7661    2.4586    0.4221 C   0  0  0  0  0  0  0  0  0  0  0  0
   91.7557    1.3539    0.2298 N   0  0  0  0  0  0  0  0  0  0  0  0
   93.0933    1.1940    0.1901 C   0  0  0  0  0  0  0  0  0  0  0  0
   93.7672   -0.0258   -0.0212 C   0  0  0  0  0  0  0  0  0  0  0  0
   93.1226   -1.2617   -0.2194 C   0  0  0  0  0  0  0  0  0  0  0  0
   93.7267   -2.5256   -0.4503 C   0  0  0  0  0  0  0  0  0  0  0  0
   92.7273   -3.4478   -0.6044 C   0  0  0  0  0  0  0  0  0  0  0  0
   91.4838   -2.7708   -0.4750 C   0  0  0  0  0  0  0  0  0  0  0  0
   91.7738   -1.4549   -0.2410 N   0  0  0  0  0  0  0  0  0  0  0  0
   90.2160   -3.3334   -0.5802 C   0  0  0  0  0  0  0  0  0  0  0  0
   88.9855   -2.7040   -0.4747 C   0  0  0  0  0  0  0  0  0  0  0  0
   87.7235   -3.4050   -0.6287 C   0  0  0  0  0  0  0  0  0  0  0  0
   86.7531   -2.4817   -0.4669 C   0  0  0  0  0  0  0  0  0  0  0  0
   87.4238   -1.2214   -0.2092 C   0  0  0  0  0  0  0  0  0  0  0  0
   88.7608   -1.3849   -0.2243 N   0  0  0  0  0  0  0  0  0  0  0  0
   85.7300    2.6533    0.5862 H   0  0  0  0  0  0  0  0  0  0  0  0
   87.6891    4.4529    0.9029 H   0  0  0  0  0  0  0  0  0  0  0  0
   89.4260    0.6836    0.1148 H   0  0  0  0  0  0  0  0  0  0  0  0
   90.3184    4.3609    0.8229 H   0  0  0  0  0  0  0  0  0  0  0  0
   92.8935    4.4345    0.8005 H   0  0  0  0  0  0  0  0  0  0  0  0
   94.8355    2.5935    0.4468 H   0  0  0  0  0  0  0  0  0  0  0  0
   94.7900   -2.6975   -0.4971 H   0  0  0  0  0  0  0  0  0  0  0  0
   92.8321   -4.5041   -0.7944 H   0  0  0  0  0  0  0  0  0  0  0  0
   91.0889   -0.7178   -0.1087 H   0  0  0  0  0  0  0  0  0  0  0  0
   90.1984   -4.4011   -0.7766 H   0  0  0  0  0  0  0  0  0  0  0  0
   87.6262   -4.4592   -0.8359 H   0  0  0  0  0  0  0  0  0  0  0  0
   85.6844   -2.6128   -0.5180 H   0  0  0  0  0  0  0  0  0  0  0  0
  1  2  4  0  0  0  0
  2  3  4  0  0  0  0
  3  4  2  0  0  0  0
  4  5  4  0  0  0  0
  2  6  4  0  0  0  0
  5  6  4  0  0  0  0
  5  7  4  0  0  0  0
  7  8  4  0  0  0  0
  8  9  1  0  0  0  0
  9 10  2  0  0  0  0
  8 11  4  0  0  0  0
 10 12  1  0  0  0  0
 11 12  4  0  0  0  0
 12 13  4  0  0  0  0
 13 14  4  0  0  0  0
 14 15  4  0  0  0  0
 15 16  2  0  0  0  0
 16 17  4  0  0  0  0
 14 18  4  0  0  0  0
 17 18  4  0  0  0  0
 17 19  4  0  0  0  0
 19 20  4  0  0  0  0
 20 21  1  0  0  0  0
 21 22  2  0  0  0  0
  1 23  4  0  0  0  0
 22 23  1  0  0  0  0
 20 24  4  0  0  0  0
 23 24  4  0  0  0  0
  1 25  1  0  0  0  0
  3 26  1  0  0  0  0
  4 27  1  0  0  0  0
  6 28  1  0  0  0  0
  7 29  1  0  0  0  0
  9 30  1  0  0  0  0
 10 31  1  0  0  0  0
 15 32  1  0  0  0  0
 16 33  1  0  0  0  0
 18 34  1  0  0  0  0
 19 35  1  0  0  0  0
 21 36  1  0  0  0  0
 22 37  1  0  0  0  0
 38 39  4  0  0  0  0
 39 40  4  0  0  0  0
 40 41  2  0  0  0  0
 41 42  4  0  0  0  0
 39 43  4  0  0  0  0
 42 43  4  0  0  0  0
 42 44  4  0  0  0  0
 44 45  4  0  0  0  0
 45 46  1  0  0  0  0
 46 47  2  0  0  0  0
 45 48  4  0  0  0  0
 47 49  1  0  0  0  0
 48 49  4  0  0  0  0
 49 50  4  0  0  0  0
 50 51  4  0  0  0  0
 51 52  4  0  0  0  0
 52 53  2  0  0  0  0
 53 54  4  0  0  0  0
 51 55  4  0  0  0  0
 54 55  4  0  0  0  0
 54 56  4  0  0  0  0
 56 57  4  0  0  0  0
 57 58  1  0  0  0  0
 58 59  2  0  0  0  0
 38 60  4  0  0  0  0
 59 60  1  0  0  0  0
 57 61  4  0  0  0  0
 60 61  4  0  0  0  0
 38 62  1  0  0  0  0
 40 63  1  0  0  0  0
 41 64  1  0  0  0  0
 43 65  1  0  0  0  0
 44 66  1  0  0  0  0
 46 67  1  0  0  0  0
 47 68  1  0  0  0  0
 52 69  1  0  0  0  0
 53 70  1  0  0  0  0
 55 71  1  0  0  0  0
 56 72  1  0  0  0  0
 58 73  1  0  0  0  0
 59 74  1  0  0  0  0
 13 75  4  0  0  0  0
 75 76  3  0  0  0  0
 77 78  3  0  0  0  0
 79 80  3  0  0  0  0
 81 82  3  0  0  0  0
 50 84  4  0  0  0  0
 83 84  3  0  0  0  0
 76 85  4  0  0  0  0
 85 86  4  0  0  0  0
 86 87  4  0  0  0  0
 87 88  2  0  0  0  0
 88 89  4  0  0  0  0
 86 90  4  0  0  0  0
 89 90  4  0  0  0  0
 89 91  4  0  0  0  0
 91 92  4  0  0  0  0
 92 93  1  0  0  0  0
 93 94  2  0  0  0  0
 92 95  4  0  0  0  0
 94 96  1  0  0  0  0
 95 96  4  0  0  0  0
 77 97  4  0  0  0  0
 96 97  4  0  0  0  0
 97 98  4  0  0  0  0
 98 99  4  0  0  0  0
 99100  2  0  0  0  0
100101  4  0  0  0  0
 98102  4  0  0  0  0
101102  4  0  0  0  0
101103  4  0  0  0  0
103104  4  0  0  0  0
104105  1  0  0  0  0
105106  2  0  0  0  0
 85107  4  0  0  0  0
106107  1  0  0  0  0
104108  4  0  0  0  0
107108  4  0  0  0  0
 87109  1  0  0  0  0
 88110  1  0  0  0  0
 90111  1  0  0  0  0
 91112  1  0  0  0  0
 93113  1  0  0  0  0
 94114  1  0  0  0  0
 99115  1  0  0  0  0
100116  1  0  0  0  0
102117  1  0  0  0  0
103118  1  0  0  0  0
105119  1  0  0  0  0
106120  1  0  0  0  0
 78121  4  0  0  0  0
121122  4  0  0  0  0
122123  4  0  0  0  0
123124  2  0  0  0  0
124125  4  0  0  0  0
122126  4  0  0  0  0
125126  4  0  0  0  0
125127  4  0  0  0  0
127128  4  0  0  0  0
128129  1  0  0  0  0
129130  2  0  0  0  0
128131  4  0  0  0  0
130132  1  0  0  0  0
131132  4  0  0  0  0
 79133  4  0  0  0  0
132133  4  0  0  0  0
133134  4  0  0  0  0
134135  4  0  0  0  0
135136  2  0  0  0  0
136137  4  0  0  0  0
134138  4  0  0  0  0
137138  4  0  0  0  0
137139  4  0  0  0  0
139140  4  0  0  0  0
140141  1  0  0  0  0
141142  2  0  0  0  0
121143  4  0  0  0  0
142143  1  0  0  0  0
140144  4  0  0  0  0
143144  4  0  0  0  0
123145  1  0  0  0  0
124146  1  0  0  0  0
126147  1  0  0  0  0
127148  1  0  0  0  0
129149  1  0  0  0  0
130150  1  0  0  0  0
135151  1  0  0  0  0
136152  1  0  0  0  0
138153  1  0  0  0  0
139154  1  0  0  0  0
141155  1  0  0  0  0
142156  1  0  0  0  0
 80157  4  0  0  0  0
157158  4  0  0  0  0
158159  4  0  0  0  0
159160  2  0  0  0  0
160161  4  0  0  0  0
158162  4  0  0  0  0
161162  4  0  0  0  0
161163  4  0  0  0  0
163164  4  0  0  0  0
164165  1  0  0  0  0
165166  2  0  0  0  0
164167  4  0  0  0  0
166168  1  0  0  0  0
167168  4  0  0  0  0
 81169  4  0  0  0  0
168169  4  0  0  0  0
169170  4  0  0  0  0
170171  4  0  0  0  0
171172  2  0  0  0  0
172173  4  0  0  0  0
170174  4  0  0  0  0
173174  4  0  0  0  0
173175  4  0  0  0  0
175176  4  0  0  0  0
176177  1  0  0  0  0
177178  2  0  0  0  0
157179  4  0  0  0  0
178179  1  0  0  0  0
176180  4  0  0  0  0
179180  4  0  0  0  0
159181  1  0  0  0  0
160182  1  0  0  0  0
162183  1  0  0  0  0
163184  1  0  0  0  0
165185  1  0  0  0  0
166186  1  0  0  0  0
171187  1  0  0  0  0
172188  1  0  0  0  0
174189  1  0  0  0  0
175190  1  0  0  0  0
177191  1  0  0  0  0
178192  1  0  0  0  0
 82193  4  0  0  0  0
193194  4  0  0  0  0
194195  4  0  0  0  0
195196  2  0  0  0  0
196197  4  0  0  0  0
194198  4  0  0  0  0
197198  4  0  0  0  0
197199  4  0  0  0  0
199200  4  0  0  0  0
200201  1  0  0  0  0
201202  2  0  0  0  0
200203  4  0  0  0  0
202204  1  0  0  0  0
203204  4  0  0  0  0
 83205  4  0  0  0  0
204205  4  0  0  0  0
205206  4  0  0  0  0
206207  4  0  0  0  0
207208  2  0  0  0  0
208209  4  0  0  0  0
206210  4  0  0  0  0
209210  4  0  0  0  0
209211  4  0  0  0  0
211212  4  0  0  0  0
212213  1  0  0  0  0
213214  2  0  0  0  0
193215  4  0  0  0  0
214215  1  0  0  0  0
212216  4  0  0  0  0
215216  4  0  0  0  0
195217  1  0  0  0  0
196218  1  0  0  0  0
198219  1  0  0  0  0
199220  1  0  0  0  0
201221  1  0  0  0  0
202222  1  0  0  0  0
207223  1  0  0  0  0
208224  1  0  0  0  0
210225  1  0  0  0  0
211226  1  0  0  0  0
213227  1  0  0  0  0
214228  1  0  0  0  0
M  END
