 xtb: 6.5.1 (b24c23e)
          07302208033D

244291  0     0  0            999 V2000
   52.2655    0.0037   -0.0779 Cu  0  0  0  0  0  0  0  0  0  0  0  0
   48.8594   -0.0180   -0.1424 C   0  0  0  0  0  0  0  0  0  0  0  0
   49.4948   -1.2382   -0.3138 C   0  0  0  0  0  0  0  0  0  0  0  0
   48.8202   -2.4962   -0.4607 C   0  0  0  0  0  0  0  0  0  0  0  0
   49.7787   -3.4429   -0.6106 C   0  0  0  0  0  0  0  0  0  0  0  0
   51.0483   -2.7681   -0.5718 C   0  0  0  0  0  0  0  0  0  0  0  0
   50.8455   -1.4324   -0.3790 N   0  0  0  0  0  0  0  0  0  0  0  0
   52.2944   -3.3868   -0.7000 C   0  0  0  0  0  0  0  0  0  0  0  0
   52.3102   -4.8462   -0.9565 C   0  0  0  0  0  0  0  0  0  0  0  0
   52.9289   -5.7134   -0.0506 C   0  0  0  0  0  0  0  0  0  0  0  0
   52.9402   -7.0774   -0.2782 C   0  0  0  0  0  0  0  0  0  0  0  0
   52.3322   -7.5790   -1.4255 C   0  0  0  0  0  0  0  0  0  0  0  0
   52.3403   -9.0109   -1.6694 N   0  0  0  0  0  0  0  0  0  0  0  0
   51.8000   -9.4088   -2.6693 O   0  0  0  0  0  0  0  0  0  0  0  0
   52.8860   -9.7114   -0.8562 O   0  0  0  0  0  0  0  0  0  0  0  0
   51.7155   -6.7328   -2.3426 C   0  0  0  0  0  0  0  0  0  0  0  0
   51.7051   -5.3708   -2.1027 C   0  0  0  0  0  0  0  0  0  0  0  0
   53.5277   -2.7374   -0.6047 C   0  0  0  0  0  0  0  0  0  0  0  0
   54.8014   -3.3583   -0.8333 C   0  0  0  0  0  0  0  0  0  0  0  0
   55.7468   -2.4017   -0.6537 C   0  0  0  0  0  0  0  0  0  0  0  0
   53.7165   -1.4147   -0.3055 N   0  0  0  0  0  0  0  0  0  0  0  0
   55.0600   -1.1916   -0.3160 C   0  0  0  0  0  0  0  0  0  0  0  0
   55.6967    0.0276   -0.0266 C   0  0  0  0  0  0  0  0  0  0  0  0
   55.0356    1.2377    0.2458 C   0  0  0  0  0  0  0  0  0  0  0  0
   55.6955    2.4559    0.6075 C   0  0  0  0  0  0  0  0  0  0  0  0
   54.7316    3.3975    0.7674 C   0  0  0  0  0  0  0  0  0  0  0  0
   53.4736    2.7599    0.5001 C   0  0  0  0  0  0  0  0  0  0  0  0
   53.6899    1.4417    0.1989 N   0  0  0  0  0  0  0  0  0  0  0  0
   52.2285    3.3904    0.5625 C   0  0  0  0  0  0  0  0  0  0  0  0
   52.2114    4.8454    0.8425 C   0  0  0  0  0  0  0  0  0  0  0  0
   51.5574    5.3374    1.9764 C   0  0  0  0  0  0  0  0  0  0  0  0
   51.5343    6.6944    2.2419 C   0  0  0  0  0  0  0  0  0  0  0  0
   52.1666    7.5687    1.3626 C   0  0  0  0  0  0  0  0  0  0  0  0
   52.1395    8.9956    1.6332 N   0  0  0  0  0  0  0  0  0  0  0  0
   51.5606    9.3640    2.6229 O   0  0  0  0  0  0  0  0  0  0  0  0
   52.6971    9.7218    0.8512 O   0  0  0  0  0  0  0  0  0  0  0  0
   52.8229    7.1000    0.2281 C   0  0  0  0  0  0  0  0  0  0  0  0
   52.8447    5.7406   -0.0251 C   0  0  0  0  0  0  0  0  0  0  0  0
   50.9963    2.7561    0.3840 C   0  0  0  0  0  0  0  0  0  0  0  0
   49.7178    3.4151    0.3785 C   0  0  0  0  0  0  0  0  0  0  0  0
   48.7776    2.4581    0.1838 C   0  0  0  0  0  0  0  0  0  0  0  0
   49.4729    1.2093    0.0559 C   0  0  0  0  0  0  0  0  0  0  0  0
   50.8177    1.4197    0.1742 N   0  0  0  0  0  0  0  0  0  0  0  0
   47.7747   -0.0244   -0.1634 H   0  0  0  0  0  0  0  0  0  0  0  0
   47.7497   -2.6253   -0.4382 H   0  0  0  0  0  0  0  0  0  0  0  0
   49.6451   -4.5064   -0.7249 H   0  0  0  0  0  0  0  0  0  0  0  0
   53.3877   -5.3113    0.8451 H   0  0  0  0  0  0  0  0  0  0  0  0
   53.4106   -7.7577    0.4216 H   0  0  0  0  0  0  0  0  0  0  0  0
   51.2541   -7.1480   -3.2304 H   0  0  0  0  0  0  0  0  0  0  0  0
   51.2391   -4.7005   -2.8154 H   0  0  0  0  0  0  0  0  0  0  0  0
   54.9494   -4.3880   -1.1158 H   0  0  0  0  0  0  0  0  0  0  0  0
   56.8156   -2.4972   -0.7537 H   0  0  0  0  0  0  0  0  0  0  0  0
   56.7601    2.5661    0.7350 H   0  0  0  0  0  0  0  0  0  0  0  0
   54.8570    4.4276    1.0591 H   0  0  0  0  0  0  0  0  0  0  0  0
   51.0790    4.6452    2.6594 H   0  0  0  0  0  0  0  0  0  0  0  0
   51.0344    7.0841    3.1204 H   0  0  0  0  0  0  0  0  0  0  0  0
   53.3044    7.8019   -0.4421 H   0  0  0  0  0  0  0  0  0  0  0  0
   53.3409    5.3642   -0.9121 H   0  0  0  0  0  0  0  0  0  0  0  0
   49.5667    4.4761    0.4947 H   0  0  0  0  0  0  0  0  0  0  0  0
   47.7074    2.5744    0.1201 H   0  0  0  0  0  0  0  0  0  0  0  0
   85.0249    0.0748   -0.0277 Cu  0  0  0  0  0  0  0  0  0  0  0  0
   88.4326    0.1193   -0.1414 C   0  0  0  0  0  0  0  0  0  0  0  0
   87.8018    1.3133    0.1719 C   0  0  0  0  0  0  0  0  0  0  0  0
   88.4805    2.5346    0.4994 C   0  0  0  0  0  0  0  0  0  0  0  0
   87.5246    3.4681    0.7282 C   0  0  0  0  0  0  0  0  0  0  0  0
   86.2527    2.8278    0.5261 C   0  0  0  0  0  0  0  0  0  0  0  0
   86.4513    1.5171    0.2031 N   0  0  0  0  0  0  0  0  0  0  0  0
   85.0077    3.4496    0.6463 C   0  0  0  0  0  0  0  0  0  0  0  0
   84.9945    4.8998    0.9508 C   0  0  0  0  0  0  0  0  0  0  0  0
   84.3833    5.3680    2.1182 C   0  0  0  0  0  0  0  0  0  0  0  0
   84.3729    6.7189    2.4138 C   0  0  0  0  0  0  0  0  0  0  0  0
   84.9748    7.6113    1.5313 C   0  0  0  0  0  0  0  0  0  0  0  0
   84.9670    9.0313    1.8370 N   0  0  0  0  0  0  0  0  0  0  0  0
   85.5095    9.7720    1.0579 O   0  0  0  0  0  0  0  0  0  0  0  0
   84.4198    9.3797    2.8515 O   0  0  0  0  0  0  0  0  0  0  0  0
   85.5847    7.1668    0.3617 C   0  0  0  0  0  0  0  0  0  0  0  0
   85.5938    5.8132    0.0781 C   0  0  0  0  0  0  0  0  0  0  0  0
   83.7725    2.8129    0.5013 C   0  0  0  0  0  0  0  0  0  0  0  0
   82.5030    3.4807    0.5265 C   0  0  0  0  0  0  0  0  0  0  0  0
   81.5528    2.5289    0.3501 C   0  0  0  0  0  0  0  0  0  0  0  0
   83.5749    1.4734    0.2947 N   0  0  0  0  0  0  0  0  0  0  0  0
   82.2288    1.2751    0.2145 C   0  0  0  0  0  0  0  0  0  0  0  0
   81.5819    0.0349    0.0609 C   0  0  0  0  0  0  0  0  0  0  0  0
   82.2482   -1.1925   -0.1131 C   0  0  0  0  0  0  0  0  0  0  0  0
   81.5957   -2.4631   -0.1971 C   0  0  0  0  0  0  0  0  0  0  0  0
   82.5581   -3.3948   -0.4119 C   0  0  0  0  0  0  0  0  0  0  0  0
   83.8105   -2.6970   -0.4657 C   0  0  0  0  0  0  0  0  0  0  0  0
   83.5924   -1.3604   -0.2618 N   0  0  0  0  0  0  0  0  0  0  0  0
   85.0505   -3.3035   -0.6820 C   0  0  0  0  0  0  0  0  0  0  0  0
   85.0578   -4.7560   -0.9754 C   0  0  0  0  0  0  0  0  0  0  0  0
   85.7412   -5.6444   -0.1394 C   0  0  0  0  0  0  0  0  0  0  0  0
   85.7553   -6.9997   -0.4149 C   0  0  0  0  0  0  0  0  0  0  0  0
   85.0838   -7.4709   -1.5394 C   0  0  0  0  0  0  0  0  0  0  0  0
   85.1016   -8.8924   -1.8377 N   0  0  0  0  0  0  0  0  0  0  0  0
   85.7126   -9.6112   -1.0894 O   0  0  0  0  0  0  0  0  0  0  0  0
   84.5059   -9.2637   -2.8161 O   0  0  0  0  0  0  0  0  0  0  0  0
   84.3972   -6.6037   -2.3844 C   0  0  0  0  0  0  0  0  0  0  0  0
   84.3851   -5.2511   -2.0970 C   0  0  0  0  0  0  0  0  0  0  0  0
   86.2839   -2.6484   -0.6488 C   0  0  0  0  0  0  0  0  0  0  0  0
   87.5555   -3.2562   -0.9357 C   0  0  0  0  0  0  0  0  0  0  0  0
   88.4996   -2.2963   -0.7786 C   0  0  0  0  0  0  0  0  0  0  0  0
   87.8130   -1.0916   -0.4090 C   0  0  0  0  0  0  0  0  0  0  0  0
   86.4694   -1.3310   -0.3461 N   0  0  0  0  0  0  0  0  0  0  0  0
   89.5168    0.1335   -0.1793 H   0  0  0  0  0  0  0  0  0  0  0  0
   89.5517    2.6460    0.5550 H   0  0  0  0  0  0  0  0  0  0  0  0
   87.6615    4.4969    1.0196 H   0  0  0  0  0  0  0  0  0  0  0  0
   83.9293    4.6615    2.8033 H   0  0  0  0  0  0  0  0  0  0  0  0
   83.9078    7.0900    3.3191 H   0  0  0  0  0  0  0  0  0  0  0  0
   86.0415    7.8825   -0.3111 H   0  0  0  0  0  0  0  0  0  0  0  0
   86.0540    5.4561   -0.8358 H   0  0  0  0  0  0  0  0  0  0  0  0
   82.3600    4.5425    0.6436 H   0  0  0  0  0  0  0  0  0  0  0  0
   80.4855    2.6611    0.3068 H   0  0  0  0  0  0  0  0  0  0  0  0
   80.5358   -2.6192   -0.0915 H   0  0  0  0  0  0  0  0  0  0  0  0
   82.4351   -4.4614   -0.5065 H   0  0  0  0  0  0  0  0  0  0  0  0
   86.2499   -5.2667    0.7398 H   0  0  0  0  0  0  0  0  0  0  0  0
   86.2780   -7.6961    0.2297 H   0  0  0  0  0  0  0  0  0  0  0  0
   83.8852   -6.9954   -3.2551 H   0  0  0  0  0  0  0  0  0  0  0  0
   83.8654   -4.5637   -2.7543 H   0  0  0  0  0  0  0  0  0  0  0  0
   87.6995   -4.2827   -1.2317 H   0  0  0  0  0  0  0  0  0  0  0  0
   89.5670   -2.3796   -0.9084 H   0  0  0  0  0  0  0  0  0  0  0  0
   57.1064    0.0351   -0.0070 C   0  0  0  0  0  0  0  0  0  0  0  0
   58.3233    0.0382    0.0056 C   0  0  0  0  0  0  0  0  0  0  0  0
   68.0203    0.0069   -0.0151 C   0  0  0  0  0  0  0  0  0  0  0  0
   69.2382    0.0002   -0.0117 C   0  0  0  0  0  0  0  0  0  0  0  0
   78.9515    0.0095    0.0798 C   0  0  0  0  0  0  0  0  0  0  0  0
   80.1700    0.0211    0.0776 C   0  0  0  0  0  0  0  0  0  0  0  0
   63.1706    0.0244   -0.0077 Cu  0  0  0  0  0  0  0  0  0  0  0  0
   59.7326    0.0361    0.0093 C   0  0  0  0  0  0  0  0  0  0  0  0
   60.3804   -1.2052    0.1412 C   0  0  0  0  0  0  0  0  0  0  0  0
   59.7110   -2.4499    0.3710 C   0  0  0  0  0  0  0  0  0  0  0  0
   60.6642   -3.4161    0.3874 C   0  0  0  0  0  0  0  0  0  0  0  0
   61.9237   -2.7655    0.1632 C   0  0  0  0  0  0  0  0  0  0  0  0
   61.7208   -1.4181    0.0375 N   0  0  0  0  0  0  0  0  0  0  0  0
   63.1595   -3.4131    0.0820 C   0  0  0  0  0  0  0  0  0  0  0  0
   63.1540   -4.8939    0.1198 C   0  0  0  0  0  0  0  0  0  0  0  0
   63.8522   -5.5779    1.1199 C   0  0  0  0  0  0  0  0  0  0  0  0
   63.8462   -6.9602    1.1622 C   0  0  0  0  0  0  0  0  0  0  0  0
   63.1413   -7.6659    0.1913 C   0  0  0  0  0  0  0  0  0  0  0  0
   63.1337   -9.1182    0.2295 N   0  0  0  0  0  0  0  0  0  0  0  0
   62.5141   -9.6945   -0.6271 O   0  0  0  0  0  0  0  0  0  0  0  0
   63.7466   -9.6549    1.1162 O   0  0  0  0  0  0  0  0  0  0  0  0
   62.4430   -7.0049   -0.8151 C   0  0  0  0  0  0  0  0  0  0  0  0
   62.4497   -5.6223   -0.8442 C   0  0  0  0  0  0  0  0  0  0  0  0
   64.3992   -2.7786   -0.0315 C   0  0  0  0  0  0  0  0  0  0  0  0
   65.6538   -3.4487   -0.2223 C   0  0  0  0  0  0  0  0  0  0  0  0
   66.6134   -2.4894   -0.2559 C   0  0  0  0  0  0  0  0  0  0  0  0
   64.6121   -1.4276    0.0251 N   0  0  0  0  0  0  0  0  0  0  0  0
   65.9537   -1.2298   -0.0891 C   0  0  0  0  0  0  0  0  0  0  0  0
   66.6117    0.0122   -0.0160 C   0  0  0  0  0  0  0  0  0  0  0  0
   65.9624    1.2588    0.0540 C   0  0  0  0  0  0  0  0  0  0  0  0
   66.6313    2.5154    0.2060 C   0  0  0  0  0  0  0  0  0  0  0  0
   65.6785    3.4811    0.1645 C   0  0  0  0  0  0  0  0  0  0  0  0
   64.4182    2.8178   -0.0123 C   0  0  0  0  0  0  0  0  0  0  0  0
   64.6215    1.4649   -0.0558 N   0  0  0  0  0  0  0  0  0  0  0  0
   63.1824    3.4608   -0.1219 C   0  0  0  0  0  0  0  0  0  0  0  0
   63.1904    4.9405   -0.1899 C   0  0  0  0  0  0  0  0  0  0  0  0
   63.8813    5.5934   -1.2158 C   0  0  0  0  0  0  0  0  0  0  0  0
   63.8847    6.9740   -1.2941 C   0  0  0  0  0  0  0  0  0  0  0  0
   63.1967    7.7098   -0.3335 C   0  0  0  0  0  0  0  0  0  0  0  0
   63.1960    9.1605   -0.4117 N   0  0  0  0  0  0  0  0  0  0  0  0
   63.7991    9.6693   -1.3212 O   0  0  0  0  0  0  0  0  0  0  0  0
   62.5914    9.7636    0.4370 O   0  0  0  0  0  0  0  0  0  0  0  0
   62.5081    7.0803    0.6995 C   0  0  0  0  0  0  0  0  0  0  0  0
   62.5056    5.6988    0.7648 C   0  0  0  0  0  0  0  0  0  0  0  0
   61.9404    2.8227   -0.1783 C   0  0  0  0  0  0  0  0  0  0  0  0
   60.6820    3.4812   -0.3863 C   0  0  0  0  0  0  0  0  0  0  0  0
   59.7223    2.5222   -0.3497 C   0  0  0  0  0  0  0  0  0  0  0  0
   60.3866    1.2735   -0.1266 C   0  0  0  0  0  0  0  0  0  0  0  0
   61.7297    1.4775   -0.0411 N   0  0  0  0  0  0  0  0  0  0  0  0
   58.6491   -2.5617    0.5179 H   0  0  0  0  0  0  0  0  0  0  0  0
   60.5308   -4.4723    0.5565 H   0  0  0  0  0  0  0  0  0  0  0  0
   64.3871   -5.0166    1.8771 H   0  0  0  0  0  0  0  0  0  0  0  0
   64.3783   -7.4986    1.9372 H   0  0  0  0  0  0  0  0  0  0  0  0
   61.9057   -7.5777   -1.5614 H   0  0  0  0  0  0  0  0  0  0  0  0
   61.9197   -5.0959   -1.6294 H   0  0  0  0  0  0  0  0  0  0  0  0
   65.7800   -4.5130   -0.3374 H   0  0  0  0  0  0  0  0  0  0  0  0
   67.6740   -2.6163   -0.3975 H   0  0  0  0  0  0  0  0  0  0  0  0
   67.6933    2.6364    0.3421 H   0  0  0  0  0  0  0  0  0  0  0  0
   65.8123    4.5458    0.2667 H   0  0  0  0  0  0  0  0  0  0  0  0
   64.4024    5.0085   -1.9648 H   0  0  0  0  0  0  0  0  0  0  0  0
   64.4101    7.4881   -2.0899 H   0  0  0  0  0  0  0  0  0  0  0  0
   61.9850    7.6763    1.4376 H   0  0  0  0  0  0  0  0  0  0  0  0
   61.9828    5.1971    1.5708 H   0  0  0  0  0  0  0  0  0  0  0  0
   60.5531    4.5376   -0.5577 H   0  0  0  0  0  0  0  0  0  0  0  0
   58.6587    2.6411   -0.4777 H   0  0  0  0  0  0  0  0  0  0  0  0
   74.0903    0.0004    0.0258 Cu  0  0  0  0  0  0  0  0  0  0  0  0
   70.6467   -0.0013   -0.0053 C   0  0  0  0  0  0  0  0  0  0  0  0
   71.3010   -1.2347    0.1694 C   0  0  0  0  0  0  0  0  0  0  0  0
   70.6387   -2.4787    0.4201 C   0  0  0  0  0  0  0  0  0  0  0  0
   71.5964   -3.4402    0.4515 C   0  0  0  0  0  0  0  0  0  0  0  0
   72.8527   -2.7864    0.2201 C   0  0  0  0  0  0  0  0  0  0  0  0
   72.6431   -1.4419    0.0748 N   0  0  0  0  0  0  0  0  0  0  0  0
   74.0912   -3.4291    0.1464 C   0  0  0  0  0  0  0  0  0  0  0  0
   74.0887   -4.9101    0.1793 C   0  0  0  0  0  0  0  0  0  0  0  0
   74.7840   -5.6001    1.1772 C   0  0  0  0  0  0  0  0  0  0  0  0
   74.7833   -6.9828    1.2068 C   0  0  0  0  0  0  0  0  0  0  0  0
   74.0862   -7.6827    0.2263 C   0  0  0  0  0  0  0  0  0  0  0  0
   74.0873   -9.1355    0.2492 N   0  0  0  0  0  0  0  0  0  0  0  0
   73.4690   -9.7063   -0.6115 O   0  0  0  0  0  0  0  0  0  0  0  0
   74.7068   -9.6779    1.1276 O   0  0  0  0  0  0  0  0  0  0  0  0
   73.3883   -7.0156   -0.7763 C   0  0  0  0  0  0  0  0  0  0  0  0
   73.3899   -5.6329   -0.7930 C   0  0  0  0  0  0  0  0  0  0  0  0
   75.3299   -2.7913    0.0374 C   0  0  0  0  0  0  0  0  0  0  0  0
   76.5870   -3.4602   -0.1377 C   0  0  0  0  0  0  0  0  0  0  0  0
   77.5451   -2.4996   -0.1619 C   0  0  0  0  0  0  0  0  0  0  0  0
   75.5407   -1.4397    0.0912 N   0  0  0  0  0  0  0  0  0  0  0  0
   76.8844   -1.2394   -0.0095 C   0  0  0  0  0  0  0  0  0  0  0  0
   77.5401    0.0038    0.0724 C   0  0  0  0  0  0  0  0  0  0  0  0
   76.8777    1.2448    0.1371 C   0  0  0  0  0  0  0  0  0  0  0  0
   77.5303    2.5072    0.3031 C   0  0  0  0  0  0  0  0  0  0  0  0
   76.5723    3.4659    0.2383 C   0  0  0  0  0  0  0  0  0  0  0  0
   75.3233    2.7930    0.0273 C   0  0  0  0  0  0  0  0  0  0  0  0
   75.5375    1.4415   -0.0063 N   0  0  0  0  0  0  0  0  0  0  0  0
   74.0890    3.4291   -0.1315 C   0  0  0  0  0  0  0  0  0  0  0  0
   74.0941    4.9081   -0.2104 C   0  0  0  0  0  0  0  0  0  0  0  0
   74.8276    5.5575   -1.2086 C   0  0  0  0  0  0  0  0  0  0  0  0
   74.8365    6.9378   -1.2899 C   0  0  0  0  0  0  0  0  0  0  0  0
   74.1102    7.6770   -0.3607 C   0  0  0  0  0  0  0  0  0  0  0  0
   74.1198    9.1278   -0.4389 N   0  0  0  0  0  0  0  0  0  0  0  0
   74.7685    9.6334   -1.3183 O   0  0  0  0  0  0  0  0  0  0  0  0
   73.4793    9.7338    0.3807 O   0  0  0  0  0  0  0  0  0  0  0  0
   73.3755    7.0510    0.6422 C   0  0  0  0  0  0  0  0  0  0  0  0
   73.3682    5.6698    0.7108 C   0  0  0  0  0  0  0  0  0  0  0  0
   72.8529    2.7849   -0.2232 C   0  0  0  0  0  0  0  0  0  0  0  0
   71.6007    3.4330   -0.4899 C   0  0  0  0  0  0  0  0  0  0  0  0
   70.6434    2.4712   -0.4588 C   0  0  0  0  0  0  0  0  0  0  0  0
   71.3025    1.2320   -0.1772 C   0  0  0  0  0  0  0  0  0  0  0  0
   72.6420    1.4423   -0.0606 N   0  0  0  0  0  0  0  0  0  0  0  0
   69.5775   -2.5940    0.5670 H   0  0  0  0  0  0  0  0  0  0  0  0
   71.4681   -4.4944    0.6361 H   0  0  0  0  0  0  0  0  0  0  0  0
   75.3130   -5.0437    1.9421 H   0  0  0  0  0  0  0  0  0  0  0  0
   75.3140   -7.5261    1.9795 H   0  0  0  0  0  0  0  0  0  0  0  0
   72.8566   -7.5837   -1.5301 H   0  0  0  0  0  0  0  0  0  0  0  0
   72.8608   -5.1014   -1.5754 H   0  0  0  0  0  0  0  0  0  0  0  0
   76.7167   -4.5246   -0.2466 H   0  0  0  0  0  0  0  0  0  0  0  0
   78.6069   -2.6278   -0.2853 H   0  0  0  0  0  0  0  0  0  0  0  0
   78.5866    2.6384    0.4635 H   0  0  0  0  0  0  0  0  0  0  0  0
   76.6963    4.5314    0.3440 H   0  0  0  0  0  0  0  0  0  0  0  0
   75.3792    4.9700   -1.9333 H   0  0  0  0  0  0  0  0  0  0  0  0
   75.3968    7.4492   -2.0634 H   0  0  0  0  0  0  0  0  0  0  0  0
   72.8221    7.6496    1.3557 H   0  0  0  0  0  0  0  0  0  0  0  0
   72.8109    5.1708    1.4951 H   0  0  0  0  0  0  0  0  0  0  0  0
   71.4747    4.4836   -0.6953 H   0  0  0  0  0  0  0  0  0  0  0  0
   69.5852    2.5824   -0.6280 H   0  0  0  0  0  0  0  0  0  0  0  0
  2  3  4  0  0  0  0
  3  4  1  0  0  0  0
  4  5  2  0  0  0  0
  5  6  4  0  0  0  0
  1  7  1  0  0  0  0
  3  7  4  0  0  0  0
  6  7  4  0  0  0  0
  6  8  4  0  0  0  0
  8  9  1  0  0  0  0
  9 10  4  0  0  0  0
 10 11  4  0  0  0  0
 11 12  4  0  0  0  0
 12 13  1  0  0  0  0
 13 14  2  0  0  0  0
 13 15  2  0  0  0  0
 14 15  1  0  0  0  0
 12 16  4  0  0  0  0
  9 17  4  0  0  0  0
 16 17  4  0  0  0  0
  8 18  4  0  0  0  0
 18 19  4  0  0  0  0
 19 20  2  0  0  0  0
  1 21  1  0  0  0  0
 18 21  4  0  0  0  0
 20 22  4  0  0  0  0
 21 22  4  0  0  0  0
 22 23  4  0  0  0  0
 23 24  4  0  0  0  0
 24 25  4  0  0  0  0
 25 26  2  0  0  0  0
 26 27  4  0  0  0  0
  1 28  1  0  0  0  0
 24 28  4  0  0  0  0
 27 28  4  0  0  0  0
 27 29  4  0  0  0  0
 29 30  1  0  0  0  0
 30 31  4  0  0  0  0
 31 32  4  0  0  0  0
 32 33  4  0  0  0  0
 33 34  1  0  0  0  0
 34 35  2  0  0  0  0
 34 36  2  0  0  0  0
 35 36  1  0  0  0  0
 33 37  4  0  0  0  0
 30 38  4  0  0  0  0
 37 38  4  0  0  0  0
 29 39  4  0  0  0  0
 39 40  4  0  0  0  0
 40 41  2  0  0  0  0
  2 42  4  0  0  0  0
 41 42  1  0  0  0  0
  1 43  1  0  0  0  0
 39 43  4  0  0  0  0
 42 43  4  0  0  0  0
  2 44  1  0  0  0  0
  4 45  1  0  0  0  0
  5 46  1  0  0  0  0
 10 47  1  0  0  0  0
 11 48  1  0  0  0  0
 16 49  1  0  0  0  0
 17 50  1  0  0  0  0
 19 51  1  0  0  0  0
 20 52  1  0  0  0  0
 25 53  1  0  0  0  0
 26 54  1  0  0  0  0
 31 55  1  0  0  0  0
 32 56  1  0  0  0  0
 37 57  1  0  0  0  0
 38 58  1  0  0  0  0
 40 59  1  0  0  0  0
 41 60  1  0  0  0  0
 62 63  4  0  0  0  0
 63 64  1  0  0  0  0
 64 65  2  0  0  0  0
 65 66  4  0  0  0  0
 61 67  1  0  0  0  0
 63 67  4  0  0  0  0
 66 67  4  0  0  0  0
 66 68  4  0  0  0  0
 68 69  1  0  0  0  0
 69 70  4  0  0  0  0
 70 71  4  0  0  0  0
 71 72  4  0  0  0  0
 72 73  1  0  0  0  0
 73 74  2  0  0  0  0
 73 75  2  0  0  0  0
 74 75  1  0  0  0  0
 72 76  4  0  0  0  0
 69 77  4  0  0  0  0
 76 77  4  0  0  0  0
 68 78  4  0  0  0  0
 78 79  4  0  0  0  0
 79 80  2  0  0  0  0
 61 81  1  0  0  0  0
 78 81  4  0  0  0  0
 80 82  4  0  0  0  0
 81 82  4  0  0  0  0
 82 83  4  0  0  0  0
 83 84  4  0  0  0  0
 84 85  4  0  0  0  0
 85 86  2  0  0  0  0
 86 87  4  0  0  0  0
 61 88  1  0  0  0  0
 84 88  4  0  0  0  0
 87 88  4  0  0  0  0
 87 89  4  0  0  0  0
 89 90  1  0  0  0  0
 90 91  4  0  0  0  0
 91 92  4  0  0  0  0
 92 93  4  0  0  0  0
 93 94  1  0  0  0  0
 94 95  2  0  0  0  0
 94 96  2  0  0  0  0
 95 96  1  0  0  0  0
 93 97  4  0  0  0  0
 90 98  4  0  0  0  0
 97 98  4  0  0  0  0
 89 99  4  0  0  0  0
 99100  4  0  0  0  0
100101  2  0  0  0  0
 62102  4  0  0  0  0
101102  1  0  0  0  0
 61103  1  0  0  0  0
 99103  4  0  0  0  0
102103  4  0  0  0  0
 62104  1  0  0  0  0
 64105  1  0  0  0  0
 65106  1  0  0  0  0
 70107  1  0  0  0  0
 71108  1  0  0  0  0
 76109  1  0  0  0  0
 77110  1  0  0  0  0
 79111  1  0  0  0  0
 80112  1  0  0  0  0
 85113  1  0  0  0  0
 86114  1  0  0  0  0
 91115  1  0  0  0  0
 92116  1  0  0  0  0
 97117  1  0  0  0  0
 98118  1  0  0  0  0
100119  1  0  0  0  0
101120  1  0  0  0  0
 23121  4  0  0  0  0
121122  3  0  0  0  0
123124  3  0  0  0  0
 83126  4  0  0  0  0
125126  3  0  0  0  0
122128  4  0  0  0  0
128129  4  0  0  0  0
129130  4  0  0  0  0
130131  2  0  0  0  0
131132  4  0  0  0  0
127133  1  0  0  0  0
129133  4  0  0  0  0
132133  4  0  0  0  0
132134  4  0  0  0  0
134135  1  0  0  0  0
135136  4  0  0  0  0
136137  4  0  0  0  0
137138  4  0  0  0  0
138139  1  0  0  0  0
139140  2  0  0  0  0
139141  2  0  0  0  0
140141  1  0  0  0  0
138142  4  0  0  0  0
135143  4  0  0  0  0
142143  4  0  0  0  0
134144  4  0  0  0  0
144145  4  0  0  0  0
145146  2  0  0  0  0
127147  1  0  0  0  0
144147  4  0  0  0  0
146148  4  0  0  0  0
147148  4  0  0  0  0
123149  4  0  0  0  0
148149  4  0  0  0  0
149150  4  0  0  0  0
150151  4  0  0  0  0
151152  2  0  0  0  0
152153  4  0  0  0  0
127154  1  0  0  0  0
150154  4  0  0  0  0
153154  4  0  0  0  0
153155  4  0  0  0  0
155156  1  0  0  0  0
156157  4  0  0  0  0
157158  4  0  0  0  0
158159  4  0  0  0  0
159160  1  0  0  0  0
160161  2  0  0  0  0
160162  2  0  0  0  0
161162  1  0  0  0  0
159163  4  0  0  0  0
156164  4  0  0  0  0
163164  4  0  0  0  0
155165  4  0  0  0  0
165166  4  0  0  0  0
166167  2  0  0  0  0
128168  4  0  0  0  0
167168  4  0  0  0  0
127169  1  0  0  0  0
165169  4  0  0  0  0
168169  4  0  0  0  0
130170  1  0  0  0  0
131171  1  0  0  0  0
136172  1  0  0  0  0
137173  1  0  0  0  0
142174  1  0  0  0  0
143175  1  0  0  0  0
145176  1  0  0  0  0
146177  1  0  0  0  0
151178  1  0  0  0  0
152179  1  0  0  0  0
157180  1  0  0  0  0
158181  1  0  0  0  0
163182  1  0  0  0  0
164183  1  0  0  0  0
166184  1  0  0  0  0
167185  1  0  0  0  0
124187  4  0  0  0  0
187188  4  0  0  0  0
188189  4  0  0  0  0
189190  2  0  0  0  0
190191  4  0  0  0  0
186192  1  0  0  0  0
188192  4  0  0  0  0
191192  4  0  0  0  0
191193  4  0  0  0  0
193194  1  0  0  0  0
194195  4  0  0  0  0
195196  4  0  0  0  0
196197  4  0  0  0  0
197198  1  0  0  0  0
198199  2  0  0  0  0
198200  2  0  0  0  0
199200  1  0  0  0  0
197201  4  0  0  0  0
194202  4  0  0  0  0
201202  4  0  0  0  0
193203  4  0  0  0  0
203204  4  0  0  0  0
204205  2  0  0  0  0
186206  1  0  0  0  0
203206  4  0  0  0  0
205207  4  0  0  0  0
206207  4  0  0  0  0
125208  4  0  0  0  0
207208  4  0  0  0  0
208209  4  0  0  0  0
209210  4  0  0  0  0
210211  2  0  0  0  0
211212  4  0  0  0  0
186213  1  0  0  0  0
209213  4  0  0  0  0
212213  4  0  0  0  0
212214  4  0  0  0  0
214215  1  0  0  0  0
215216  4  0  0  0  0
216217  4  0  0  0  0
217218  4  0  0  0  0
218219  1  0  0  0  0
219220  2  0  0  0  0
219221  2  0  0  0  0
220221  1  0  0  0  0
218222  4  0  0  0  0
215223  4  0  0  0  0
222223  4  0  0  0  0
214224  4  0  0  0  0
224225  4  0  0  0  0
225226  2  0  0  0  0
187227  4  0  0  0  0
226227  4  0  0  0  0
186228  1  0  0  0  0
224228  4  0  0  0  0
227228  4  0  0  0  0
189229  1  0  0  0  0
190230  1  0  0  0  0
195231  1  0  0  0  0
196232  1  0  0  0  0
201233  1  0  0  0  0
202234  1  0  0  0  0
204235  1  0  0  0  0
205236  1  0  0  0  0
210237  1  0  0  0  0
211238  1  0  0  0  0
216239  1  0  0  0  0
217240  1  0  0  0  0
222241  1  0  0  0  0
223242  1  0  0  0  0
225243  1  0  0  0  0
226244  1  0  0  0  0
M  END
