 xtb: 6.5.1 (b24c23e)
          07292219373D

228267  0     0  0            999 V2000
   47.1906    0.0080    0.0320 Fe  0  0  0  0  0  0  0  0  0  0  0  0
   43.7995   -0.0286    0.1467 C   0  0  0  0  0  0  0  0  0  0  0  0
   44.4570   -1.2412    0.1495 C   0  0  0  0  0  0  0  0  0  0  0  0
   43.7864   -2.5041    0.2197 C   0  0  0  0  0  0  0  0  0  0  0  0
   44.7434   -3.4567    0.1230 C   0  0  0  0  0  0  0  0  0  0  0  0
   45.9969   -2.7724   -0.0104 C   0  0  0  0  0  0  0  0  0  0  0  0
   45.8110   -1.4179    0.0342 N   0  0  0  0  0  0  0  0  0  0  0  0
   47.2183   -3.4183   -0.1715 C   0  0  0  0  0  0  0  0  0  0  0  0
   48.4272   -2.7413   -0.2308 C   0  0  0  0  0  0  0  0  0  0  0  0
   49.6927   -3.3865   -0.4185 C   0  0  0  0  0  0  0  0  0  0  0  0
   50.6380   -2.4193   -0.3457 C   0  0  0  0  0  0  0  0  0  0  0  0
   48.6004   -1.3846   -0.0865 N   0  0  0  0  0  0  0  0  0  0  0  0
   49.9481   -1.1864   -0.1272 C   0  0  0  0  0  0  0  0  0  0  0  0
   50.6052    0.0412    0.0236 C   0  0  0  0  0  0  0  0  0  0  0  0
   49.9258    1.2588    0.1512 C   0  0  0  0  0  0  0  0  0  0  0  0
   50.5952    2.5152    0.2809 C   0  0  0  0  0  0  0  0  0  0  0  0
   49.6337    3.4686    0.2980 C   0  0  0  0  0  0  0  0  0  0  0  0
   48.3764    2.7888    0.1978 C   0  0  0  0  0  0  0  0  0  0  0  0
   47.1531    3.4384    0.1297 C   0  0  0  0  0  0  0  0  0  0  0  0
   47.1328    4.9218    0.1699 C   0  0  0  0  0  0  0  0  0  0  0  0
   46.7084    5.6515   -0.9406 C   0  0  0  0  0  0  0  0  0  0  0  0
   46.6901    7.0377   -0.9016 C   0  0  0  0  0  0  0  0  0  0  0  0
   47.0883    7.7092    0.2463 C   0  0  0  0  0  0  0  0  0  0  0  0
   47.5080    6.9889    1.3563 C   0  0  0  0  0  0  0  0  0  0  0  0
   47.5335    5.6028    1.3195 C   0  0  0  0  0  0  0  0  0  0  0  0
   45.9402    2.7637    0.0431 C   0  0  0  0  0  0  0  0  0  0  0  0
   44.6639    3.4187    0.0302 C   0  0  0  0  0  0  0  0  0  0  0  0
   43.7241    2.4446    0.0485 C   0  0  0  0  0  0  0  0  0  0  0  0
   44.4272    1.1975    0.0730 C   0  0  0  0  0  0  0  0  0  0  0  0
   45.7815    1.4046    0.0571 N   0  0  0  0  0  0  0  0  0  0  0  0
   48.5740    1.4302    0.1178 N   0  0  0  0  0  0  0  0  0  0  0  0
   47.2269   -4.8978   -0.2710 C   0  0  0  0  0  0  0  0  0  0  0  0
   46.5896   -5.5375   -1.3346 C   0  0  0  0  0  0  0  0  0  0  0  0
   46.6003   -6.9211   -1.4276 C   0  0  0  0  0  0  0  0  0  0  0  0
   47.2398   -7.6811   -0.4577 C   0  0  0  0  0  0  0  0  0  0  0  0
   47.8725   -7.0516    0.6056 C   0  0  0  0  0  0  0  0  0  0  0  0
   47.8700   -5.6680    0.6986 C   0  0  0  0  0  0  0  0  0  0  0  0
   42.7165   -0.0401    0.1980 H   0  0  0  0  0  0  0  0  0  0  0  0
   42.7204   -2.6254    0.3281 H   0  0  0  0  0  0  0  0  0  0  0  0
   44.6254   -4.5278    0.1462 H   0  0  0  0  0  0  0  0  0  0  0  0
   49.8294   -4.4416   -0.5905 H   0  0  0  0  0  0  0  0  0  0  0  0
   51.7070   -2.5170   -0.4431 H   0  0  0  0  0  0  0  0  0  0  0  0
   51.6640    2.6386    0.3421 H   0  0  0  0  0  0  0  0  0  0  0  0
   49.7551    4.5375    0.3637 H   0  0  0  0  0  0  0  0  0  0  0  0
   46.4058    5.1278   -1.8406 H   0  0  0  0  0  0  0  0  0  0  0  0
   46.3634    7.5961   -1.7718 H   0  0  0  0  0  0  0  0  0  0  0  0
   47.0708    8.7928    0.2761 H   0  0  0  0  0  0  0  0  0  0  0  0
   47.8166    7.5088    2.2564 H   0  0  0  0  0  0  0  0  0  0  0  0
   47.8509    5.0405    2.1905 H   0  0  0  0  0  0  0  0  0  0  0  0
   44.5194    4.4869    0.0245 H   0  0  0  0  0  0  0  0  0  0  0  0
   42.6500    2.5415    0.0526 H   0  0  0  0  0  0  0  0  0  0  0  0
   46.0985   -4.9443   -2.0978 H   0  0  0  0  0  0  0  0  0  0  0  0
   46.1071   -7.4081   -2.2615 H   0  0  0  0  0  0  0  0  0  0  0  0
   47.2447   -8.7627   -0.5303 H   0  0  0  0  0  0  0  0  0  0  0  0
   48.3702   -7.6410    1.3676 H   0  0  0  0  0  0  0  0  0  0  0  0
   48.3548   -5.1776    1.5354 H   0  0  0  0  0  0  0  0  0  0  0  0
   79.7274    0.0767    0.1237 Fe  0  0  0  0  0  0  0  0  0  0  0  0
   83.0916    0.1403    0.5273 C   0  0  0  0  0  0  0  0  0  0  0  0
   82.4252    1.3473    0.4825 C   0  0  0  0  0  0  0  0  0  0  0  0
   83.0771    2.6168    0.5987 C   0  0  0  0  0  0  0  0  0  0  0  0
   82.1279    3.5599    0.3928 C   0  0  0  0  0  0  0  0  0  0  0  0
   80.8951    2.8639    0.1635 C   0  0  0  0  0  0  0  0  0  0  0  0
   81.0864    1.5122    0.2404 N   0  0  0  0  0  0  0  0  0  0  0  0
   79.6798    3.4992   -0.0724 C   0  0  0  0  0  0  0  0  0  0  0  0
   78.4768    2.8150   -0.1592 C   0  0  0  0  0  0  0  0  0  0  0  0
   77.2078    3.4518   -0.3528 C   0  0  0  0  0  0  0  0  0  0  0  0
   76.2675    2.4804   -0.2708 C   0  0  0  0  0  0  0  0  0  0  0  0
   78.3106    1.4572   -0.0140 N   0  0  0  0  0  0  0  0  0  0  0  0
   76.9647    1.2507   -0.0563 C   0  0  0  0  0  0  0  0  0  0  0  0
   76.3173    0.0128    0.0538 C   0  0  0  0  0  0  0  0  0  0  0  0
   77.0073   -1.2048    0.1033 C   0  0  0  0  0  0  0  0  0  0  0  0
   76.3500   -2.4742    0.1123 C   0  0  0  0  0  0  0  0  0  0  0  0
   77.3207   -3.4162    0.0450 C   0  0  0  0  0  0  0  0  0  0  0  0
   78.5722   -2.7188    0.0297 C   0  0  0  0  0  0  0  0  0  0  0  0
   79.8068   -3.3471   -0.0388 C   0  0  0  0  0  0  0  0  0  0  0  0
   79.8512   -4.8271   -0.1386 C   0  0  0  0  0  0  0  0  0  0  0  0
   80.3511   -5.4377   -1.2888 C   0  0  0  0  0  0  0  0  0  0  0  0
   80.3940   -6.8206   -1.3845 C   0  0  0  0  0  0  0  0  0  0  0  0
   79.9465   -7.6074   -0.3318 C   0  0  0  0  0  0  0  0  0  0  0  0
   79.4534   -7.0060    0.8180 C   0  0  0  0  0  0  0  0  0  0  0  0
   79.4028   -5.6234    0.9152 C   0  0  0  0  0  0  0  0  0  0  0  0
   81.0122   -2.6564    0.0259 C   0  0  0  0  0  0  0  0  0  0  0  0
   82.2939   -3.2983    0.0842 C   0  0  0  0  0  0  0  0  0  0  0  0
   83.2109   -2.3232    0.2867 C   0  0  0  0  0  0  0  0  0  0  0  0
   82.4904   -1.0869    0.3359 C   0  0  0  0  0  0  0  0  0  0  0  0
   81.1481   -1.3024    0.1670 N   0  0  0  0  0  0  0  0  0  0  0  0
   78.3610   -1.3606    0.0683 N   0  0  0  0  0  0  0  0  0  0  0  0
   79.6724    4.9771   -0.1947 C   0  0  0  0  0  0  0  0  0  0  0  0
   80.3480    5.5974   -1.2461 C   0  0  0  0  0  0  0  0  0  0  0  0
   80.3407    6.9790   -1.3648 C   0  0  0  0  0  0  0  0  0  0  0  0
   79.6675    7.7563   -0.4322 C   0  0  0  0  0  0  0  0  0  0  0  0
   78.9989    7.1462    0.6204 C   0  0  0  0  0  0  0  0  0  0  0  0
   78.9978    5.7644    0.7388 C   0  0  0  0  0  0  0  0  0  0  0  0
   84.1640    0.1593    0.6862 H   0  0  0  0  0  0  0  0  0  0  0  0
   84.1276    2.7485    0.8030 H   0  0  0  0  0  0  0  0  0  0  0  0
   82.2363    4.6323    0.4059 H   0  0  0  0  0  0  0  0  0  0  0  0
   77.0646    4.5053   -0.5292 H   0  0  0  0  0  0  0  0  0  0  0  0
   75.1978    2.5724   -0.3670 H   0  0  0  0  0  0  0  0  0  0  0  0
   75.2819   -2.6128    0.1502 H   0  0  0  0  0  0  0  0  0  0  0  0
   77.2089   -4.4874    0.0075 H   0  0  0  0  0  0  0  0  0  0  0  0
   80.6942   -4.8233   -2.1137 H   0  0  0  0  0  0  0  0  0  0  0  0
   80.7791   -7.2858   -2.2850 H   0  0  0  0  0  0  0  0  0  0  0  0
   79.9834   -8.6883   -0.4070 H   0  0  0  0  0  0  0  0  0  0  0  0
   79.1074   -7.6164    1.6447 H   0  0  0  0  0  0  0  0  0  0  0  0
   79.0291   -5.1545    1.8186 H   0  0  0  0  0  0  0  0  0  0  0  0
   82.4546   -4.3609    0.0012 H   0  0  0  0  0  0  0  0  0  0  0  0
   84.2804   -2.4127    0.3934 H   0  0  0  0  0  0  0  0  0  0  0  0
   80.8670    4.9902   -1.9793 H   0  0  0  0  0  0  0  0  0  0  0  0
   80.8630    7.4508   -2.1896 H   0  0  0  0  0  0  0  0  0  0  0  0
   79.6649    8.8364   -0.5249 H   0  0  0  0  0  0  0  0  0  0  0  0
   78.4760    7.7494    1.3543 H   0  0  0  0  0  0  0  0  0  0  0  0
   78.4858    5.2897    1.5683 H   0  0  0  0  0  0  0  0  0  0  0  0
   52.0088    0.0506    0.0277 C   0  0  0  0  0  0  0  0  0  0  0  0
   53.2280    0.0500    0.0319 C   0  0  0  0  0  0  0  0  0  0  0  0
   62.8504    0.0292    0.0409 C   0  0  0  0  0  0  0  0  0  0  0  0
   64.0710    0.0311    0.0471 C   0  0  0  0  0  0  0  0  0  0  0  0
   73.6947   -0.0076    0.0684 C   0  0  0  0  0  0  0  0  0  0  0  0
   74.9141   -0.0060    0.0607 C   0  0  0  0  0  0  0  0  0  0  0  0
   58.0403    0.0396    0.0337 Fe  0  0  0  0  0  0  0  0  0  0  0  0
   54.6303    0.0479    0.0332 C   0  0  0  0  0  0  0  0  0  0  0  0
   55.3024   -1.1493    0.3165 C   0  0  0  0  0  0  0  0  0  0  0  0
   54.6434   -2.3656    0.6719 C   0  0  0  0  0  0  0  0  0  0  0  0
   55.5981   -3.3283    0.7109 C   0  0  0  0  0  0  0  0  0  0  0  0
   56.8358   -2.6941    0.3717 C   0  0  0  0  0  0  0  0  0  0  0  0
   56.6454   -1.3469    0.1902 N   0  0  0  0  0  0  0  0  0  0  0  0
   58.0321   -3.3711    0.1568 C   0  0  0  0  0  0  0  0  0  0  0  0
   59.2312   -2.7191   -0.1044 C   0  0  0  0  0  0  0  0  0  0  0  0
   60.4668   -3.3823   -0.3931 C   0  0  0  0  0  0  0  0  0  0  0  0
   61.4262   -2.4240   -0.4208 C   0  0  0  0  0  0  0  0  0  0  0  0
   59.4294   -1.3621   -0.0205 N   0  0  0  0  0  0  0  0  0  0  0  0
   60.7724   -1.1816   -0.1570 C   0  0  0  0  0  0  0  0  0  0  0  0
   61.4509    0.0315    0.0365 C   0  0  0  0  0  0  0  0  0  0  0  0
   60.7773    1.2477    0.2278 C   0  0  0  0  0  0  0  0  0  0  0  0
   61.4367    2.4870    0.4923 C   0  0  0  0  0  0  0  0  0  0  0  0
   60.4822    3.4501    0.4609 C   0  0  0  0  0  0  0  0  0  0  0  0
   59.2441    2.7925    0.1703 C   0  0  0  0  0  0  0  0  0  0  0  0
   58.0485    3.4501   -0.0921 C   0  0  0  0  0  0  0  0  0  0  0  0
   58.0488    4.9298   -0.1430 C   0  0  0  0  0  0  0  0  0  0  0  0
   57.2432    5.6662    0.7272 C   0  0  0  0  0  0  0  0  0  0  0  0
   57.2463    7.0519    0.6809 C   0  0  0  0  0  0  0  0  0  0  0  0
   58.0457    7.7180   -0.2382 C   0  0  0  0  0  0  0  0  0  0  0  0
   58.8468    6.9924   -1.1095 C   0  0  0  0  0  0  0  0  0  0  0  0
   58.8530    5.6067   -1.0611 C   0  0  0  0  0  0  0  0  0  0  0  0
   56.8492    2.7786   -0.3071 C   0  0  0  0  0  0  0  0  0  0  0  0
   55.6146    3.4192   -0.6454 C   0  0  0  0  0  0  0  0  0  0  0  0
   54.6551    2.4613   -0.6049 C   0  0  0  0  0  0  0  0  0  0  0  0
   55.3081    1.2419   -0.2499 C   0  0  0  0  0  0  0  0  0  0  0  0
   56.6521    1.4325   -0.1247 N   0  0  0  0  0  0  0  0  0  0  0  0
   59.4356    1.4345    0.0879 N   0  0  0  0  0  0  0  0  0  0  0  0
   58.0253   -4.8507    0.2114 C   0  0  0  0  0  0  0  0  0  0  0  0
   57.2120   -5.5866   -0.6521 C   0  0  0  0  0  0  0  0  0  0  0  0
   57.2057   -6.9720   -0.5981 C   0  0  0  0  0  0  0  0  0  0  0  0
   58.0037   -7.6386    0.3220 C   0  0  0  0  0  0  0  0  0  0  0  0
   58.8134   -6.9137    1.1859 C   0  0  0  0  0  0  0  0  0  0  0  0
   58.8287   -5.5283    1.1300 C   0  0  0  0  0  0  0  0  0  0  0  0
   53.5877   -2.4589    0.8676 H   0  0  0  0  0  0  0  0  0  0  0  0
   55.4828   -4.3725    0.9515 H   0  0  0  0  0  0  0  0  0  0  0  0
   60.5771   -4.4419   -0.5569 H   0  0  0  0  0  0  0  0  0  0  0  0
   62.4819   -2.5364   -0.6063 H   0  0  0  0  0  0  0  0  0  0  0  0
   62.4925    2.5944    0.6800 H   0  0  0  0  0  0  0  0  0  0  0  0
   60.5974    4.5094    0.6231 H   0  0  0  0  0  0  0  0  0  0  0  0
   56.6278    5.1472    1.4536 H   0  0  0  0  0  0  0  0  0  0  0  0
   56.6217    7.6142    1.3661 H   0  0  0  0  0  0  0  0  0  0  0  0
   58.0442    8.8014   -0.2755 H   0  0  0  0  0  0  0  0  0  0  0  0
   59.4698    7.5081   -1.8318 H   0  0  0  0  0  0  0  0  0  0  0  0
   59.4692    5.0407   -1.7509 H   0  0  0  0  0  0  0  0  0  0  0  0
   55.5047    4.4640   -0.8862 H   0  0  0  0  0  0  0  0  0  0  0  0
   53.5996    2.5599   -0.7994 H   0  0  0  0  0  0  0  0  0  0  0  0
   56.5975   -5.0676   -1.3793 H   0  0  0  0  0  0  0  0  0  0  0  0
   56.5745   -7.5339   -1.2776 H   0  0  0  0  0  0  0  0  0  0  0  0
   57.9944   -8.7218    0.3659 H   0  0  0  0  0  0  0  0  0  0  0  0
   59.4358   -7.4296    1.9086 H   0  0  0  0  0  0  0  0  0  0  0  0
   59.4511   -4.9628    1.8146 H   0  0  0  0  0  0  0  0  0  0  0  0
   68.8818    0.0100    0.0783 Fe  0  0  0  0  0  0  0  0  0  0  0  0
   65.4706    0.0264    0.0568 C   0  0  0  0  0  0  0  0  0  0  0  0
   66.1397   -1.1993    0.1967 C   0  0  0  0  0  0  0  0  0  0  0  0
   65.4749   -2.4474    0.3996 C   0  0  0  0  0  0  0  0  0  0  0  0
   66.4280   -3.4102    0.3395 C   0  0  0  0  0  0  0  0  0  0  0  0
   67.6705   -2.7437    0.0908 C   0  0  0  0  0  0  0  0  0  0  0  0
   67.4824   -1.3828    0.0640 N   0  0  0  0  0  0  0  0  0  0  0  0
   68.8668   -3.3924   -0.1888 C   0  0  0  0  0  0  0  0  0  0  0  0
   70.0682   -2.7155   -0.3721 C   0  0  0  0  0  0  0  0  0  0  0  0
   71.3014   -3.3447   -0.7357 C   0  0  0  0  0  0  0  0  0  0  0  0
   72.2621   -2.3903   -0.6607 C   0  0  0  0  0  0  0  0  0  0  0  0
   70.2676   -1.3780   -0.1370 N   0  0  0  0  0  0  0  0  0  0  0  0
   71.6118   -1.1847   -0.2570 C   0  0  0  0  0  0  0  0  0  0  0  0
   72.2926   -0.0049    0.0742 C   0  0  0  0  0  0  0  0  0  0  0  0
   71.6234    1.1797    0.4131 C   0  0  0  0  0  0  0  0  0  0  0  0
   72.2859    2.3764    0.8238 C   0  0  0  0  0  0  0  0  0  0  0  0
   71.3325    3.3368    0.9164 C   0  0  0  0  0  0  0  0  0  0  0  0
   70.0924    2.7214    0.5521 C   0  0  0  0  0  0  0  0  0  0  0  0
   68.8967    3.4101    0.3752 C   0  0  0  0  0  0  0  0  0  0  0  0
   68.9041    4.8849    0.5069 C   0  0  0  0  0  0  0  0  0  0  0  0
   68.1031    5.5132    1.4620 C   0  0  0  0  0  0  0  0  0  0  0  0
   68.1166    6.8939    1.5888 C   0  0  0  0  0  0  0  0  0  0  0  0
   68.9216    7.6634    0.7598 C   0  0  0  0  0  0  0  0  0  0  0  0
   69.7173    7.0461   -0.1960 C   0  0  0  0  0  0  0  0  0  0  0  0
   69.7131    5.6652   -0.3208 C   0  0  0  0  0  0  0  0  0  0  0  0
   67.6967    2.7749    0.0783 C   0  0  0  0  0  0  0  0  0  0  0  0
   66.4642    3.4556   -0.1813 C   0  0  0  0  0  0  0  0  0  0  0  0
   65.5035    2.5022   -0.2688 C   0  0  0  0  0  0  0  0  0  0  0  0
   66.1533    1.2461   -0.0680 C   0  0  0  0  0  0  0  0  0  0  0  0
   67.4956    1.4159    0.0882 N   0  0  0  0  0  0  0  0  0  0  0  0
   70.2802    1.3846    0.3029 N   0  0  0  0  0  0  0  0  0  0  0  0
   68.8650   -4.8690   -0.2999 C   0  0  0  0  0  0  0  0  0  0  0  0
   68.0698   -5.5063   -1.2536 C   0  0  0  0  0  0  0  0  0  0  0  0
   68.0761   -6.8888   -1.3595 C   0  0  0  0  0  0  0  0  0  0  0  0
   68.8679   -7.6507   -0.5111 C   0  0  0  0  0  0  0  0  0  0  0  0
   69.6580   -7.0241    0.4432 C   0  0  0  0  0  0  0  0  0  0  0  0
   69.6614   -5.6415    0.5471 C   0  0  0  0  0  0  0  0  0  0  0  0
   64.4166   -2.5603    0.5698 H   0  0  0  0  0  0  0  0  0  0  0  0
   66.3092   -4.4751    0.4554 H   0  0  0  0  0  0  0  0  0  0  0  0
   71.4092   -4.3797   -1.0162 H   0  0  0  0  0  0  0  0  0  0  0  0
   73.3170   -2.4828   -0.8611 H   0  0  0  0  0  0  0  0  0  0  0  0
   73.3429    2.4590    1.0179 H   0  0  0  0  0  0  0  0  0  0  0  0
   71.4502    4.3676    1.2080 H   0  0  0  0  0  0  0  0  0  0  0  0
   67.4837    4.9124    2.1187 H   0  0  0  0  0  0  0  0  0  0  0  0
   67.4959    7.3711    2.3390 H   0  0  0  0  0  0  0  0  0  0  0  0
   68.9291    8.7429    0.8586 H   0  0  0  0  0  0  0  0  0  0  0  0
   70.3449    7.6431   -0.8484 H   0  0  0  0  0  0  0  0  0  0  0  0
   70.3255    5.1852   -1.0759 H   0  0  0  0  0  0  0  0  0  0  0  0
   66.3568    4.5228   -0.2872 H   0  0  0  0  0  0  0  0  0  0  0  0
   64.4493    2.6268   -0.4552 H   0  0  0  0  0  0  0  0  0  0  0  0
   67.4612   -4.9116   -1.9255 H   0  0  0  0  0  0  0  0  0  0  0  0
   67.4605   -7.3735   -2.1093 H   0  0  0  0  0  0  0  0  0  0  0  0
   68.8695   -8.7316   -0.5935 H   0  0  0  0  0  0  0  0  0  0  0  0
   70.2752   -7.6150    1.1109 H   0  0  0  0  0  0  0  0  0  0  0  0
   70.2699   -5.1535    1.3003 H   0  0  0  0  0  0  0  0  0  0  0  0
  2  3  4  0  0  0  0
  3  4  4  0  0  0  0
  4  5  2  0  0  0  0
  5  6  4  0  0  0  0
  1  7  1  0  0  0  0
  3  7  4  0  0  0  0
  6  7  4  0  0  0  0
  6  8  4  0  0  0  0
  8  9  4  0  0  0  0
  9 10  4  0  0  0  0
 10 11  2  0  0  0  0
  1 12  1  0  0  0  0
  9 12  4  0  0  0  0
 11 13  4  0  0  0  0
 12 13  4  0  0  0  0
 13 14  4  0  0  0  0
 14 15  4  0  0  0  0
 15 16  4  0  0  0  0
 16 17  2  0  0  0  0
 17 18  4  0  0  0  0
 18 19  4  0  0  0  0
 19 20  1  0  0  0  0
 20 21  4  0  0  0  0
 21 22  4  0  0  0  0
 22 23  4  0  0  0  0
 23 24  4  0  0  0  0
 20 25  4  0  0  0  0
 24 25  4  0  0  0  0
 19 26  4  0  0  0  0
 26 27  4  0  0  0  0
 27 28  2  0  0  0  0
  2 29  4  0  0  0  0
 28 29  4  0  0  0  0
  1 30  1  0  0  0  0
 26 30  4  0  0  0  0
 29 30  4  0  0  0  0
  1 31  1  0  0  0  0
 15 31  4  0  0  0  0
 18 31  4  0  0  0  0
  8 32  1  0  0  0  0
 32 33  4  0  0  0  0
 33 34  4  0  0  0  0
 34 35  4  0  0  0  0
 35 36  4  0  0  0  0
 32 37  4  0  0  0  0
 36 37  4  0  0  0  0
  2 38  1  0  0  0  0
  4 39  1  0  0  0  0
  5 40  1  0  0  0  0
 10 41  1  0  0  0  0
 11 42  1  0  0  0  0
 16 43  1  0  0  0  0
 17 44  1  0  0  0  0
 21 45  1  0  0  0  0
 22 46  1  0  0  0  0
 23 47  1  0  0  0  0
 24 48  1  0  0  0  0
 25 49  1  0  0  0  0
 27 50  1  0  0  0  0
 28 51  1  0  0  0  0
 33 52  1  0  0  0  0
 34 53  1  0  0  0  0
 35 54  1  0  0  0  0
 36 55  1  0  0  0  0
 37 56  1  0  0  0  0
 58 59  4  0  0  0  0
 59 60  4  0  0  0  0
 60 61  2  0  0  0  0
 61 62  4  0  0  0  0
 57 63  1  0  0  0  0
 59 63  4  0  0  0  0
 62 63  4  0  0  0  0
 62 64  4  0  0  0  0
 64 65  4  0  0  0  0
 65 66  4  0  0  0  0
 66 67  2  0  0  0  0
 57 68  1  0  0  0  0
 65 68  4  0  0  0  0
 67 69  4  0  0  0  0
 68 69  4  0  0  0  0
 69 70  4  0  0  0  0
 70 71  4  0  0  0  0
 71 72  4  0  0  0  0
 72 73  2  0  0  0  0
 73 74  4  0  0  0  0
 74 75  4  0  0  0  0
 75 76  1  0  0  0  0
 76 77  4  0  0  0  0
 77 78  4  0  0  0  0
 78 79  4  0  0  0  0
 79 80  4  0  0  0  0
 76 81  4  0  0  0  0
 80 81  4  0  0  0  0
 75 82  4  0  0  0  0
 82 83  4  0  0  0  0
 83 84  2  0  0  0  0
 58 85  4  0  0  0  0
 84 85  4  0  0  0  0
 57 86  1  0  0  0  0
 82 86  4  0  0  0  0
 85 86  4  0  0  0  0
 57 87  1  0  0  0  0
 71 87  4  0  0  0  0
 74 87  4  0  0  0  0
 64 88  1  0  0  0  0
 88 89  4  0  0  0  0
 89 90  4  0  0  0  0
 90 91  4  0  0  0  0
 91 92  4  0  0  0  0
 88 93  4  0  0  0  0
 92 93  4  0  0  0  0
 58 94  1  0  0  0  0
 60 95  1  0  0  0  0
 61 96  1  0  0  0  0
 66 97  1  0  0  0  0
 67 98  1  0  0  0  0
 72 99  1  0  0  0  0
 73100  1  0  0  0  0
 77101  1  0  0  0  0
 78102  1  0  0  0  0
 79103  1  0  0  0  0
 80104  1  0  0  0  0
 81105  1  0  0  0  0
 83106  1  0  0  0  0
 84107  1  0  0  0  0
 89108  1  0  0  0  0
 90109  1  0  0  0  0
 91110  1  0  0  0  0
 92111  1  0  0  0  0
 93112  1  0  0  0  0
 14113  1  0  0  0  0
113114  3  0  0  0  0
115116  3  0  0  0  0
 70118  4  0  0  0  0
117118  3  0  0  0  0
114120  4  0  0  0  0
120121  4  0  0  0  0
121122  4  0  0  0  0
122123  2  0  0  0  0
123124  4  0  0  0  0
119125  1  0  0  0  0
121125  4  0  0  0  0
124125  4  0  0  0  0
124126  4  0  0  0  0
126127  4  0  0  0  0
127128  4  0  0  0  0
128129  2  0  0  0  0
119130  1  0  0  0  0
127130  4  0  0  0  0
129131  4  0  0  0  0
130131  4  0  0  0  0
115132  4  0  0  0  0
131132  4  0  0  0  0
132133  4  0  0  0  0
133134  4  0  0  0  0
134135  2  0  0  0  0
135136  4  0  0  0  0
136137  4  0  0  0  0
137138  1  0  0  0  0
138139  4  0  0  0  0
139140  4  0  0  0  0
140141  4  0  0  0  0
141142  4  0  0  0  0
138143  4  0  0  0  0
142143  4  0  0  0  0
137144  4  0  0  0  0
144145  4  0  0  0  0
145146  2  0  0  0  0
120147  4  0  0  0  0
146147  4  0  0  0  0
119148  1  0  0  0  0
144148  4  0  0  0  0
147148  4  0  0  0  0
119149  1  0  0  0  0
133149  4  0  0  0  0
136149  4  0  0  0  0
126150  1  0  0  0  0
150151  4  0  0  0  0
151152  4  0  0  0  0
152153  4  0  0  0  0
153154  4  0  0  0  0
150155  4  0  0  0  0
154155  4  0  0  0  0
122156  1  0  0  0  0
123157  1  0  0  0  0
128158  1  0  0  0  0
129159  1  0  0  0  0
134160  1  0  0  0  0
135161  1  0  0  0  0
139162  1  0  0  0  0
140163  1  0  0  0  0
141164  1  0  0  0  0
142165  1  0  0  0  0
143166  1  0  0  0  0
145167  1  0  0  0  0
146168  1  0  0  0  0
151169  1  0  0  0  0
152170  1  0  0  0  0
153171  1  0  0  0  0
154172  1  0  0  0  0
155173  1  0  0  0  0
116175  4  0  0  0  0
175176  4  0  0  0  0
176177  4  0  0  0  0
177178  2  0  0  0  0
178179  4  0  0  0  0
174180  1  0  0  0  0
176180  4  0  0  0  0
179180  4  0  0  0  0
179181  4  0  0  0  0
181182  4  0  0  0  0
182183  4  0  0  0  0
183184  2  0  0  0  0
174185  1  0  0  0  0
182185  4  0  0  0  0
184186  4  0  0  0  0
185186  4  0  0  0  0
117187  4  0  0  0  0
186187  4  0  0  0  0
187188  4  0  0  0  0
188189  4  0  0  0  0
189190  2  0  0  0  0
190191  4  0  0  0  0
191192  4  0  0  0  0
192193  1  0  0  0  0
193194  4  0  0  0  0
194195  4  0  0  0  0
195196  4  0  0  0  0
196197  4  0  0  0  0
193198  4  0  0  0  0
197198  4  0  0  0  0
192199  4  0  0  0  0
199200  4  0  0  0  0
200201  2  0  0  0  0
175202  4  0  0  0  0
201202  4  0  0  0  0
174203  1  0  0  0  0
199203  4  0  0  0  0
202203  4  0  0  0  0
174204  1  0  0  0  0
188204  4  0  0  0  0
191204  4  0  0  0  0
181205  1  0  0  0  0
205206  4  0  0  0  0
206207  4  0  0  0  0
207208  4  0  0  0  0
208209  4  0  0  0  0
205210  4  0  0  0  0
209210  4  0  0  0  0
177211  1  0  0  0  0
178212  1  0  0  0  0
183213  1  0  0  0  0
184214  1  0  0  0  0
189215  1  0  0  0  0
190216  1  0  0  0  0
194217  1  0  0  0  0
195218  1  0  0  0  0
196219  1  0  0  0  0
197220  1  0  0  0  0
198221  1  0  0  0  0
200222  1  0  0  0  0
201223  1  0  0  0  0
206224  1  0  0  0  0
207225  1  0  0  0  0
208226  1  0  0  0  0
209227  1  0  0  0  0
210228  1  0  0  0  0
M  END
