 xtb: 6.5.1 (b24c23e)
          07302212353D

264303  0     0  0            999 V2000
   46.0174    0.0022   -0.0541 Zn  0  0  0  0  0  0  0  0  0  0  0  0
   42.6088    0.0385   -0.1345 C   0  0  0  0  0  0  0  0  0  0  0  0
   43.2397    1.2757   -0.0877 C   0  0  0  0  0  0  0  0  0  0  0  0
   42.5662    2.5429   -0.0329 C   0  0  0  0  0  0  0  0  0  0  0  0
   43.5256    3.5005    0.0144 C   0  0  0  0  0  0  0  0  0  0  0  0
   44.7985    2.8299   -0.0199 C   0  0  0  0  0  0  0  0  0  0  0  0
   44.5894    1.4827   -0.0731 N   0  0  0  0  0  0  0  0  0  0  0  0
   46.0498    3.4573    0.0232 C   0  0  0  0  0  0  0  0  0  0  0  0
   46.0615    4.9426    0.0580 C   0  0  0  0  0  0  0  0  0  0  0  0
   45.5259    5.6722   -1.0035 C   0  0  0  0  0  0  0  0  0  0  0  0
   45.5362    7.0618   -0.9706 C   0  0  0  0  0  0  0  0  0  0  0  0
   45.0249    7.7804   -2.0003 O   0  0  0  0  0  0  0  0  0  0  0  0
   46.0765    7.7271    0.1310 C   0  0  0  0  0  0  0  0  0  0  0  0
   46.0684    9.0977    0.1383 O   0  0  0  0  0  0  0  0  0  0  0  0
   46.6087    6.9987    1.1917 C   0  0  0  0  0  0  0  0  0  0  0  0
   47.1169    7.7211    2.2398 O   0  0  0  0  0  0  0  0  0  0  0  0
   46.6070    5.6098    1.1580 C   0  0  0  0  0  0  0  0  0  0  0  0
   47.2880    2.8061    0.0367 C   0  0  0  0  0  0  0  0  0  0  0  0
   48.5688    3.4570    0.0280 C   0  0  0  0  0  0  0  0  0  0  0  0
   49.5139    2.4823    0.0314 C   0  0  0  0  0  0  0  0  0  0  0  0
   47.4802    1.4498    0.0325 N   0  0  0  0  0  0  0  0  0  0  0  0
   48.8215    1.2274    0.0337 C   0  0  0  0  0  0  0  0  0  0  0  0
   49.4514   -0.0342    0.0244 C   0  0  0  0  0  0  0  0  0  0  0  0
   48.7961   -1.2820   -0.0078 C   0  0  0  0  0  0  0  0  0  0  0  0
   49.4630   -2.5504   -0.0441 C   0  0  0  0  0  0  0  0  0  0  0  0
   48.4989   -3.5047   -0.0903 C   0  0  0  0  0  0  0  0  0  0  0  0
   47.2313   -2.8282   -0.0746 C   0  0  0  0  0  0  0  0  0  0  0  0
   47.4505   -1.4765   -0.0296 N   0  0  0  0  0  0  0  0  0  0  0  0
   45.9809   -3.4524   -0.1331 C   0  0  0  0  0  0  0  0  0  0  0  0
   45.9622   -4.9378   -0.1696 C   0  0  0  0  0  0  0  0  0  0  0  0
   46.4689   -5.6733    0.9018 C   0  0  0  0  0  0  0  0  0  0  0  0
   46.4426   -7.0627    0.8686 C   0  0  0  0  0  0  0  0  0  0  0  0
   46.9242   -7.7873    1.9084 O   0  0  0  0  0  0  0  0  0  0  0  0
   45.9152   -7.7219   -0.2428 C   0  0  0  0  0  0  0  0  0  0  0  0
   45.9046   -9.0927   -0.2489 O   0  0  0  0  0  0  0  0  0  0  0  0
   45.4136   -6.9877   -1.3142 C   0  0  0  0  0  0  0  0  0  0  0  0
   44.9159   -7.7039   -2.3717 O   0  0  0  0  0  0  0  0  0  0  0  0
   45.4312   -5.5989   -1.2805 C   0  0  0  0  0  0  0  0  0  0  0  0
   44.7425   -2.7986   -0.1610 C   0  0  0  0  0  0  0  0  0  0  0  0
   43.4566   -3.4444   -0.1727 C   0  0  0  0  0  0  0  0  0  0  0  0
   42.5163   -2.4664   -0.1761 C   0  0  0  0  0  0  0  0  0  0  0  0
   43.2149   -1.2120   -0.1579 C   0  0  0  0  0  0  0  0  0  0  0  0
   44.5600   -1.4467   -0.1472 N   0  0  0  0  0  0  0  0  0  0  0  0
   41.5232    0.0495   -0.1435 H   0  0  0  0  0  0  0  0  0  0  0  0
   41.4951    2.6711   -0.0250 H   0  0  0  0  0  0  0  0  0  0  0  0
   43.3882    4.5681    0.0783 H   0  0  0  0  0  0  0  0  0  0  0  0
   45.1161    5.1665   -1.8683 H   0  0  0  0  0  0  0  0  0  0  0  0
   45.1251    8.7240   -1.7923 H   0  0  0  0  0  0  0  0  0  0  0  0
   46.4751    9.3937    0.9682 H   0  0  0  0  0  0  0  0  0  0  0  0
   47.4640    7.1346    2.9245 H   0  0  0  0  0  0  0  0  0  0  0  0
   47.0106    5.0493    1.9932 H   0  0  0  0  0  0  0  0  0  0  0  0
   48.7243    4.5238    0.0069 H   0  0  0  0  0  0  0  0  0  0  0  0
   50.5863    2.5958    0.0249 H   0  0  0  0  0  0  0  0  0  0  0  0
   50.5330   -2.6853   -0.0406 H   0  0  0  0  0  0  0  0  0  0  0  0
   48.6326   -4.5732   -0.1417 H   0  0  0  0  0  0  0  0  0  0  0  0
   46.8677   -5.1722    1.7744 H   0  0  0  0  0  0  0  0  0  0  0  0
   46.8169   -8.7296    1.6981 H   0  0  0  0  0  0  0  0  0  0  0  0
   45.5076   -9.3838   -1.0852 H   0  0  0  0  0  0  0  0  0  0  0  0
   44.5939   -7.1128   -3.0647 H   0  0  0  0  0  0  0  0  0  0  0  0
   45.0503   -5.0339   -2.1232 H   0  0  0  0  0  0  0  0  0  0  0  0
   43.2972   -4.5109   -0.1652 H   0  0  0  0  0  0  0  0  0  0  0  0
   41.4428   -2.5736   -0.1825 H   0  0  0  0  0  0  0  0  0  0  0  0
   94.1669   -0.0533   -0.0418 Zn  0  0  0  0  0  0  0  0  0  0  0  0
   97.5749   -0.0809   -0.1480 C   0  0  0  0  0  0  0  0  0  0  0  0
   96.9432   -1.3152   -0.2400 C   0  0  0  0  0  0  0  0  0  0  0  0
   97.6159   -2.5803   -0.3353 C   0  0  0  0  0  0  0  0  0  0  0  0
   96.6561   -3.5372   -0.3899 C   0  0  0  0  0  0  0  0  0  0  0  0
   95.3836   -2.8670   -0.3381 C   0  0  0  0  0  0  0  0  0  0  0  0
   95.5934   -1.5225   -0.2391 N   0  0  0  0  0  0  0  0  0  0  0  0
   94.1320   -3.4951   -0.3574 C   0  0  0  0  0  0  0  0  0  0  0  0
   94.1187   -4.9748   -0.4898 C   0  0  0  0  0  0  0  0  0  0  0  0
   94.6497   -5.5816   -1.6282 C   0  0  0  0  0  0  0  0  0  0  0  0
   94.6379   -6.9661   -1.7510 C   0  0  0  0  0  0  0  0  0  0  0  0
   95.1452   -7.5655   -2.8562 O   0  0  0  0  0  0  0  0  0  0  0  0
   94.1000   -7.7501   -0.7292 C   0  0  0  0  0  0  0  0  0  0  0  0
   94.1061   -9.1131   -0.8755 O   0  0  0  0  0  0  0  0  0  0  0  0
   93.5723   -7.1447    0.4081 C   0  0  0  0  0  0  0  0  0  0  0  0
   93.0659   -7.9792    1.3704 O   0  0  0  0  0  0  0  0  0  0  0  0
   93.5761   -5.7607    0.5304 C   0  0  0  0  0  0  0  0  0  0  0  0
   92.8945   -2.8493   -0.2624 C   0  0  0  0  0  0  0  0  0  0  0  0
   91.6128   -3.4946   -0.3376 C   0  0  0  0  0  0  0  0  0  0  0  0
   90.6688   -2.5262   -0.2188 C   0  0  0  0  0  0  0  0  0  0  0  0
   92.7035   -1.5012   -0.1119 N   0  0  0  0  0  0  0  0  0  0  0  0
   91.3624   -1.2798   -0.0783 C   0  0  0  0  0  0  0  0  0  0  0  0
   90.7336   -0.0252    0.0581 C   0  0  0  0  0  0  0  0  0  0  0  0
   91.3898    1.2180    0.1648 C   0  0  0  0  0  0  0  0  0  0  0  0
   90.7239    2.4826    0.2755 C   0  0  0  0  0  0  0  0  0  0  0  0
   91.6887    3.4355    0.3350 C   0  0  0  0  0  0  0  0  0  0  0  0
   92.9558    2.7609    0.2691 C   0  0  0  0  0  0  0  0  0  0  0  0
   92.7355    1.4130    0.1604 N   0  0  0  0  0  0  0  0  0  0  0  0
   94.2064    3.3873    0.2783 C   0  0  0  0  0  0  0  0  0  0  0  0
   94.2255    4.8668    0.4147 C   0  0  0  0  0  0  0  0  0  0  0  0
   93.7227    5.4720    1.5665 C   0  0  0  0  0  0  0  0  0  0  0  0
   93.7483    6.8558    1.6953 C   0  0  0  0  0  0  0  0  0  0  0  0
   93.2704    7.4537    2.8142 O   0  0  0  0  0  0  0  0  0  0  0  0
   94.2708    7.6405    0.6661 C   0  0  0  0  0  0  0  0  0  0  0  0
   94.2804    9.0026    0.8196 O   0  0  0  0  0  0  0  0  0  0  0  0
   94.7685    7.0365   -0.4854 C   0  0  0  0  0  0  0  0  0  0  0  0
   95.2615    7.8715   -1.4544 O   0  0  0  0  0  0  0  0  0  0  0  0
   94.7519    5.6531   -0.6136 C   0  0  0  0  0  0  0  0  0  0  0  0
   95.4440    2.7406    0.1691 C   0  0  0  0  0  0  0  0  0  0  0  0
   96.7305    3.3829    0.2259 C   0  0  0  0  0  0  0  0  0  0  0  0
   97.6697    2.4117    0.1027 C   0  0  0  0  0  0  0  0  0  0  0  0
   96.9700    1.1640   -0.0217 C   0  0  0  0  0  0  0  0  0  0  0  0
   95.6252    1.3963    0.0242 N   0  0  0  0  0  0  0  0  0  0  0  0
   98.6604   -0.0911   -0.1658 H   0  0  0  0  0  0  0  0  0  0  0  0
   98.6870   -2.7086   -0.3504 H   0  0  0  0  0  0  0  0  0  0  0  0
   96.7933   -4.6050   -0.4488 H   0  0  0  0  0  0  0  0  0  0  0  0
   95.0571   -4.9828   -2.4325 H   0  0  0  0  0  0  0  0  0  0  0  0
   95.0445   -8.5263   -2.7546 H   0  0  0  0  0  0  0  0  0  0  0  0
   93.6999   -9.4995   -0.0834 H   0  0  0  0  0  0  0  0  0  0  0  0
   92.7201   -7.4721    2.1165 H   0  0  0  0  0  0  0  0  0  0  0  0
   93.1762   -5.2971    1.4247 H   0  0  0  0  0  0  0  0  0  0  0  0
   91.4561   -4.5520   -0.4788 H   0  0  0  0  0  0  0  0  0  0  0  0
   89.5962   -2.6378   -0.2322 H   0  0  0  0  0  0  0  0  0  0  0  0
   89.6541    2.6169    0.2978 H   0  0  0  0  0  0  0  0  0  0  0  0
   91.5558    4.5030    0.4057 H   0  0  0  0  0  0  0  0  0  0  0  0
   93.3274    4.8724    2.3762 H   0  0  0  0  0  0  0  0  0  0  0  0
   93.3739    8.4144    2.7140 H   0  0  0  0  0  0  0  0  0  0  0  0
   94.6716    9.3900    0.0205 H   0  0  0  0  0  0  0  0  0  0  0  0
   95.5793    7.3656   -2.2136 H   0  0  0  0  0  0  0  0  0  0  0  0
   95.1297    5.1906   -1.5179 H   0  0  0  0  0  0  0  0  0  0  0  0
   96.8909    4.4411    0.3572 H   0  0  0  0  0  0  0  0  0  0  0  0
   98.7433    2.5185    0.1028 H   0  0  0  0  0  0  0  0  0  0  0  0
   54.6533   -0.0569    0.0284 C   0  0  0  0  0  0  0  0  0  0  0  0
   53.4246   -0.0581    0.0341 C   0  0  0  0  0  0  0  0  0  0  0  0
   52.0806   -0.0522    0.0356 C   0  0  0  0  0  0  0  0  0  0  0  0
   50.8563   -0.0470    0.0329 C   0  0  0  0  0  0  0  0  0  0  0  0
   55.9972   -0.0566    0.0182 C   0  0  0  0  0  0  0  0  0  0  0  0
   57.2216   -0.0539    0.0056 C   0  0  0  0  0  0  0  0  0  0  0  0
   70.7073   -0.0158   -0.0758 C   0  0  0  0  0  0  0  0  0  0  0  0
   69.4784   -0.0221   -0.0767 C   0  0  0  0  0  0  0  0  0  0  0  0
   68.1347   -0.0264   -0.0757 C   0  0  0  0  0  0  0  0  0  0  0  0
   66.9102   -0.0317   -0.0734 C   0  0  0  0  0  0  0  0  0  0  0  0
   72.0509   -0.0105   -0.0723 C   0  0  0  0  0  0  0  0  0  0  0  0
   73.2755   -0.0064   -0.0657 C   0  0  0  0  0  0  0  0  0  0  0  0
   86.7605    0.0091    0.0840 C   0  0  0  0  0  0  0  0  0  0  0  0
   85.5318    0.0092    0.0770 C   0  0  0  0  0  0  0  0  0  0  0  0
   84.1879    0.0109    0.0653 C   0  0  0  0  0  0  0  0  0  0  0  0
   82.9636    0.0117    0.0529 C   0  0  0  0  0  0  0  0  0  0  0  0
   88.1046   -0.0004    0.0851 C   0  0  0  0  0  0  0  0  0  0  0  0
   89.3287   -0.0122    0.0742 C   0  0  0  0  0  0  0  0  0  0  0  0
   62.0662   -0.0431   -0.0446 Zn  0  0  0  0  0  0  0  0  0  0  0  0
   58.6259   -0.0509   -0.0105 C   0  0  0  0  0  0  0  0  0  0  0  0
   59.2687    1.2001    0.0937 C   0  0  0  0  0  0  0  0  0  0  0  0
   58.5899    2.4516    0.2509 C   0  0  0  0  0  0  0  0  0  0  0  0
   59.5443    3.4162    0.3071 C   0  0  0  0  0  0  0  0  0  0  0  0
   60.8157    2.7620    0.1750 C   0  0  0  0  0  0  0  0  0  0  0  0
   60.6112    1.4129    0.0571 N   0  0  0  0  0  0  0  0  0  0  0  0
   62.0604    3.4023    0.1874 C   0  0  0  0  0  0  0  0  0  0  0  0
   62.0558    4.8842    0.2828 C   0  0  0  0  0  0  0  0  0  0  0  0
   62.6520    5.5231    1.3704 C   0  0  0  0  0  0  0  0  0  0  0  0
   62.6492    6.9114    1.4762 C   0  0  0  0  0  0  0  0  0  0  0  0
   63.2181    7.5434    2.5362 O   0  0  0  0  0  0  0  0  0  0  0  0
   62.0495    7.6822    0.4752 C   0  0  0  0  0  0  0  0  0  0  0  0
   62.0338    9.0390    0.5470 O   0  0  0  0  0  0  0  0  0  0  0  0
   61.4589    7.0354   -0.6134 C   0  0  0  0  0  0  0  0  0  0  0  0
   60.8928    7.8484   -1.5619 O   0  0  0  0  0  0  0  0  0  0  0  0
   61.4524    5.6513   -0.7156 C   0  0  0  0  0  0  0  0  0  0  0  0
   63.3072    2.7708    0.1179 C   0  0  0  0  0  0  0  0  0  0  0  0
   64.5769    3.4406    0.0799 C   0  0  0  0  0  0  0  0  0  0  0  0
   65.5344    2.4799    0.0123 C   0  0  0  0  0  0  0  0  0  0  0  0
   63.5161    1.4184    0.0554 N   0  0  0  0  0  0  0  0  0  0  0  0
   64.8594    1.2165   -0.0028 C   0  0  0  0  0  0  0  0  0  0  0  0
   65.5061   -0.0353   -0.0671 C   0  0  0  0  0  0  0  0  0  0  0  0
   64.8641   -1.2891   -0.1276 C   0  0  0  0  0  0  0  0  0  0  0  0
   65.5438   -2.5500   -0.1649 C   0  0  0  0  0  0  0  0  0  0  0  0
   64.5894   -3.5135   -0.2292 C   0  0  0  0  0  0  0  0  0  0  0  0
   63.3166   -2.8482   -0.2398 C   0  0  0  0  0  0  0  0  0  0  0  0
   63.5208   -1.4958   -0.1673 N   0  0  0  0  0  0  0  0  0  0  0  0
   62.0717   -3.4840   -0.2927 C   0  0  0  0  0  0  0  0  0  0  0  0
   62.0729   -4.9665   -0.4015 C   0  0  0  0  0  0  0  0  0  0  0  0
   62.6318   -5.5830   -1.5213 C   0  0  0  0  0  0  0  0  0  0  0  0
   62.6176   -6.9687   -1.6296 C   0  0  0  0  0  0  0  0  0  0  0  0
   63.1407   -7.5802   -2.7188 O   0  0  0  0  0  0  0  0  0  0  0  0
   62.0510   -7.7390   -0.6122 C   0  0  0  0  0  0  0  0  0  0  0  0
   62.0618   -9.1197   -0.7570 O   0  0  0  0  0  0  0  0  0  0  0  0
   61.5270   -7.1260    0.5241 C   0  0  0  0  0  0  0  0  0  0  0  0
   61.0044   -7.8764    1.5365 O   0  0  0  0  0  0  0  0  0  0  0  0
   61.5208   -5.7390    0.6206 C   0  0  0  0  0  0  0  0  0  0  0  0
   60.8246   -2.8512   -0.2511 C   0  0  0  0  0  0  0  0  0  0  0  0
   59.5539   -3.5127   -0.3523 C   0  0  0  0  0  0  0  0  0  0  0  0
   58.5961   -2.5538   -0.2718 C   0  0  0  0  0  0  0  0  0  0  0  0
   59.2717   -1.2982   -0.1306 C   0  0  0  0  0  0  0  0  0  0  0  0
   60.6159   -1.5035   -0.1271 N   0  0  0  0  0  0  0  0  0  0  0  0
   57.5201    2.5699    0.3175 H   0  0  0  0  0  0  0  0  0  0  0  0
   59.4005    4.4763    0.4404 H   0  0  0  0  0  0  0  0  0  0  0  0
   63.1078    4.9350    2.1591 H   0  0  0  0  0  0  0  0  0  0  0  0
   63.5989    6.9084    3.1568 H   0  0  0  0  0  0  0  0  0  0  0  0
   61.5745    9.3781   -0.2382 H   0  0  0  0  0  0  0  0  0  0  0  0
   60.5072    7.3256   -2.2767 H   0  0  0  0  0  0  0  0  0  0  0  0
   60.9989    5.1742   -1.5764 H   0  0  0  0  0  0  0  0  0  0  0  0
   64.7175    4.5094    0.0901 H   0  0  0  0  0  0  0  0  0  0  0  0
   66.6041    2.6091   -0.0323 H   0  0  0  0  0  0  0  0  0  0  0  0
   66.6146   -2.6749   -0.1383 H   0  0  0  0  0  0  0  0  0  0  0  0
   64.7329   -4.5816   -0.2564 H   0  0  0  0  0  0  0  0  0  0  0  0
   63.0558   -4.9929   -2.3235 H   0  0  0  0  0  0  0  0  0  0  0  0
   63.0393   -8.5403   -2.6067 H   0  0  0  0  0  0  0  0  0  0  0  0
   61.2140   -9.4984   -0.4903 H   0  0  0  0  0  0  0  0  0  0  0  0
   61.3051   -8.7932    1.4629 H   0  0  0  0  0  0  0  0  0  0  0  0
   61.1096   -5.2727    1.5065 H   0  0  0  0  0  0  0  0  0  0  0  0
   59.4136   -4.5741   -0.4790 H   0  0  0  0  0  0  0  0  0  0  0  0
   57.5256   -2.6777   -0.3109 H   0  0  0  0  0  0  0  0  0  0  0  0
   78.1198    0.0029   -0.0155 Zn  0  0  0  0  0  0  0  0  0  0  0  0
   74.6796   -0.0033   -0.0551 C   0  0  0  0  0  0  0  0  0  0  0  0
   75.3205    1.2473    0.0647 C   0  0  0  0  0  0  0  0  0  0  0  0
   74.6390    2.4990    0.2095 C   0  0  0  0  0  0  0  0  0  0  0  0
   75.5924    3.4630    0.2872 C   0  0  0  0  0  0  0  0  0  0  0  0
   76.8661    2.8084    0.1809 C   0  0  0  0  0  0  0  0  0  0  0  0
   76.6634    1.4594    0.0569 N   0  0  0  0  0  0  0  0  0  0  0  0
   78.1103    3.4480    0.2195 C   0  0  0  0  0  0  0  0  0  0  0  0
   78.1060    4.9299    0.3132 C   0  0  0  0  0  0  0  0  0  0  0  0
   78.6840    5.5697    1.4101 C   0  0  0  0  0  0  0  0  0  0  0  0
   78.6857    6.9583    1.5113 C   0  0  0  0  0  0  0  0  0  0  0  0
   79.2377    7.5914    2.5795 O   0  0  0  0  0  0  0  0  0  0  0  0
   78.1090    7.7286    0.4963 C   0  0  0  0  0  0  0  0  0  0  0  0
   78.0999    9.0856    0.5626 O   0  0  0  0  0  0  0  0  0  0  0  0
   77.5353    7.0807   -0.6007 C   0  0  0  0  0  0  0  0  0  0  0  0
   76.9914    7.8932   -1.5626 O   0  0  0  0  0  0  0  0  0  0  0  0
   77.5243    5.6964   -0.6984 C   0  0  0  0  0  0  0  0  0  0  0  0
   79.3582    2.8157    0.1751 C   0  0  0  0  0  0  0  0  0  0  0  0
   80.6286    3.4849    0.1619 C   0  0  0  0  0  0  0  0  0  0  0  0
   81.5870    2.5240    0.1137 C   0  0  0  0  0  0  0  0  0  0  0  0
   79.5677    1.4634    0.1172 N   0  0  0  0  0  0  0  0  0  0  0  0
   80.9119    1.2609    0.0856 C   0  0  0  0  0  0  0  0  0  0  0  0
   81.5593    0.0090    0.0341 C   0  0  0  0  0  0  0  0  0  0  0  0
   80.9183   -1.2445   -0.0392 C   0  0  0  0  0  0  0  0  0  0  0  0
   81.5980   -2.5056   -0.0622 C   0  0  0  0  0  0  0  0  0  0  0  0
   80.6447   -3.4686   -0.1469 C   0  0  0  0  0  0  0  0  0  0  0  0
   79.3728   -2.8027   -0.1850 C   0  0  0  0  0  0  0  0  0  0  0  0
   79.5759   -1.4507   -0.1073 N   0  0  0  0  0  0  0  0  0  0  0  0
   78.1289   -3.4381   -0.2666 C   0  0  0  0  0  0  0  0  0  0  0  0
   78.1330   -4.9202   -0.3789 C   0  0  0  0  0  0  0  0  0  0  0  0
   78.7221   -5.5331   -1.4852 C   0  0  0  0  0  0  0  0  0  0  0  0
   78.7131   -6.9186   -1.5975 C   0  0  0  0  0  0  0  0  0  0  0  0
   79.2663   -7.5262   -2.6739 O   0  0  0  0  0  0  0  0  0  0  0  0
   78.1205   -7.6921   -0.5977 C   0  0  0  0  0  0  0  0  0  0  0  0
   78.1369   -9.0726   -0.7445 O   0  0  0  0  0  0  0  0  0  0  0  0
   77.5657   -7.0828    0.5260 C   0  0  0  0  0  0  0  0  0  0  0  0
   77.0180   -7.8376    1.5219 O   0  0  0  0  0  0  0  0  0  0  0  0
   77.5550   -5.6961    0.6262 C   0  0  0  0  0  0  0  0  0  0  0  0
   76.8816   -2.8048   -0.2523 C   0  0  0  0  0  0  0  0  0  0  0  0
   75.6131   -3.4652   -0.3833 C   0  0  0  0  0  0  0  0  0  0  0  0
   74.6543   -2.5058   -0.3228 C   0  0  0  0  0  0  0  0  0  0  0  0
   75.3274   -1.2509   -0.1642 C   0  0  0  0  0  0  0  0  0  0  0  0
   76.6709   -1.4570   -0.1309 N   0  0  0  0  0  0  0  0  0  0  0  0
   73.5680    2.6175    0.2537 H   0  0  0  0  0  0  0  0  0  0  0  0
   75.4463    4.5230    0.4191 H   0  0  0  0  0  0  0  0  0  0  0  0
   79.1223    4.9822    2.2091 H   0  0  0  0  0  0  0  0  0  0  0  0
   79.6046    6.9568    3.2089 H   0  0  0  0  0  0  0  0  0  0  0  0
   77.6568    9.4243   -0.2320 H   0  0  0  0  0  0  0  0  0  0  0  0
   76.6155    7.3697   -2.2821 H   0  0  0  0  0  0  0  0  0  0  0  0
   77.0852    5.2184   -1.5663 H   0  0  0  0  0  0  0  0  0  0  0  0
   80.7695    4.5537    0.1742 H   0  0  0  0  0  0  0  0  0  0  0  0
   82.6574    2.6527    0.0900 H   0  0  0  0  0  0  0  0  0  0  0  0
   82.6679   -2.6311   -0.0130 H   0  0  0  0  0  0  0  0  0  0  0  0
   80.7886   -4.5367   -0.1709 H   0  0  0  0  0  0  0  0  0  0  0  0
   79.1663   -4.9403   -2.2743 H   0  0  0  0  0  0  0  0  0  0  0  0
   79.1647   -8.4869   -2.5669 H   0  0  0  0  0  0  0  0  0  0  0  0
   77.2810   -9.4517   -0.5060 H   0  0  0  0  0  0  0  0  0  0  0  0
   77.3254   -8.7527    1.4543 H   0  0  0  0  0  0  0  0  0  0  0  0
   77.1203   -5.2327    1.5024 H   0  0  0  0  0  0  0  0  0  0  0  0
   75.4749   -4.5263   -0.5151 H   0  0  0  0  0  0  0  0  0  0  0  0
   73.5849   -2.6289   -0.3864 H   0  0  0  0  0  0  0  0  0  0  0  0
  2  3  4  0  0  0  0
  3  4  1  0  0  0  0
  4  5  2  0  0  0  0
  5  6  4  0  0  0  0
  1  7  1  0  0  0  0
  3  7  4  0  0  0  0
  6  7  4  0  0  0  0
  6  8  4  0  0  0  0
  8  9  1  0  0  0  0
  9 10  4  0  0  0  0
 10 11  4  0  0  0  0
 11 12  1  0  0  0  0
 11 13  4  0  0  0  0
 13 14  1  0  0  0  0
 13 15  4  0  0  0  0
 15 16  1  0  0  0  0
  9 17  4  0  0  0  0
 15 17  4  0  0  0  0
  8 18  4  0  0  0  0
 18 19  4  0  0  0  0
 19 20  2  0  0  0  0
  1 21  1  0  0  0  0
 18 21  4  0  0  0  0
 20 22  4  0  0  0  0
 21 22  4  0  0  0  0
 22 23  4  0  0  0  0
 23 24  4  0  0  0  0
 24 25  4  0  0  0  0
 25 26  2  0  0  0  0
 26 27  4  0  0  0  0
  1 28  1  0  0  0  0
 24 28  4  0  0  0  0
 27 28  4  0  0  0  0
 27 29  4  0  0  0  0
 29 30  1  0  0  0  0
 30 31  4  0  0  0  0
 31 32  4  0  0  0  0
 32 33  1  0  0  0  0
 32 34  4  0  0  0  0
 34 35  1  0  0  0  0
 34 36  4  0  0  0  0
 36 37  1  0  0  0  0
 30 38  4  0  0  0  0
 36 38  4  0  0  0  0
 29 39  4  0  0  0  0
 39 40  4  0  0  0  0
 40 41  2  0  0  0  0
  2 42  4  0  0  0  0
 41 42  1  0  0  0  0
  1 43  1  0  0  0  0
 39 43  4  0  0  0  0
 42 43  4  0  0  0  0
  2 44  1  0  0  0  0
  4 45  1  0  0  0  0
  5 46  1  0  0  0  0
 10 47  1  0  0  0  0
 12 48  1  0  0  0  0
 14 49  1  0  0  0  0
 16 50  1  0  0  0  0
 17 51  1  0  0  0  0
 19 52  1  0  0  0  0
 20 53  1  0  0  0  0
 25 54  1  0  0  0  0
 26 55  1  0  0  0  0
 31 56  1  0  0  0  0
 33 57  1  0  0  0  0
 35 58  1  0  0  0  0
 37 59  1  0  0  0  0
 38 60  1  0  0  0  0
 40 61  1  0  0  0  0
 41 62  1  0  0  0  0
 64 65  4  0  0  0  0
 65 66  1  0  0  0  0
 66 67  2  0  0  0  0
 67 68  4  0  0  0  0
 63 69  1  0  0  0  0
 65 69  4  0  0  0  0
 68 69  4  0  0  0  0
 68 70  4  0  0  0  0
 70 71  1  0  0  0  0
 71 72  4  0  0  0  0
 72 73  4  0  0  0  0
 73 74  1  0  0  0  0
 73 75  4  0  0  0  0
 75 76  1  0  0  0  0
 75 77  4  0  0  0  0
 77 78  1  0  0  0  0
 71 79  4  0  0  0  0
 77 79  4  0  0  0  0
 70 80  4  0  0  0  0
 80 81  4  0  0  0  0
 81 82  2  0  0  0  0
 63 83  1  0  0  0  0
 80 83  4  0  0  0  0
 82 84  4  0  0  0  0
 83 84  4  0  0  0  0
 84 85  4  0  0  0  0
 85 86  4  0  0  0  0
 86 87  4  0  0  0  0
 87 88  2  0  0  0  0
 88 89  4  0  0  0  0
 63 90  1  0  0  0  0
 86 90  4  0  0  0  0
 89 90  4  0  0  0  0
 89 91  4  0  0  0  0
 91 92  1  0  0  0  0
 92 93  4  0  0  0  0
 93 94  4  0  0  0  0
 94 95  1  0  0  0  0
 94 96  4  0  0  0  0
 96 97  1  0  0  0  0
 96 98  4  0  0  0  0
 98 99  1  0  0  0  0
 92100  4  0  0  0  0
 98100  4  0  0  0  0
 91101  4  0  0  0  0
101102  4  0  0  0  0
102103  2  0  0  0  0
 64104  4  0  0  0  0
103104  1  0  0  0  0
 63105  1  0  0  0  0
101105  4  0  0  0  0
104105  4  0  0  0  0
 64106  1  0  0  0  0
 66107  1  0  0  0  0
 67108  1  0  0  0  0
 72109  1  0  0  0  0
 74110  1  0  0  0  0
 76111  1  0  0  0  0
 78112  1  0  0  0  0
 79113  1  0  0  0  0
 81114  1  0  0  0  0
 82115  1  0  0  0  0
 87116  1  0  0  0  0
 88117  1  0  0  0  0
 93118  1  0  0  0  0
 95119  1  0  0  0  0
 97120  1  0  0  0  0
 99121  1  0  0  0  0
100122  1  0  0  0  0
102123  1  0  0  0  0
103124  1  0  0  0  0
125126  3  0  0  0  0
126127  4  0  0  0  0
 23128  4  0  0  0  0
127128  3  0  0  0  0
125129  4  0  0  0  0
129130  3  0  0  0  0
131132  3  0  0  0  0
132133  4  0  0  0  0
133134  3  0  0  0  0
131135  4  0  0  0  0
135136  3  0  0  0  0
137138  3  0  0  0  0
138139  4  0  0  0  0
139140  3  0  0  0  0
137141  4  0  0  0  0
 85142  4  0  0  0  0
141142  3  0  0  0  0
130144  4  0  0  0  0
144145  4  0  0  0  0
145146  4  0  0  0  0
146147  2  0  0  0  0
147148  4  0  0  0  0
143149  1  0  0  0  0
145149  4  0  0  0  0
148149  4  0  0  0  0
148150  4  0  0  0  0
150151  1  0  0  0  0
151152  4  0  0  0  0
152153  4  0  0  0  0
153154  1  0  0  0  0
153155  4  0  0  0  0
155156  1  0  0  0  0
155157  4  0  0  0  0
157158  1  0  0  0  0
151159  4  0  0  0  0
157159  4  0  0  0  0
150160  4  0  0  0  0
160161  4  0  0  0  0
161162  2  0  0  0  0
143163  1  0  0  0  0
160163  4  0  0  0  0
162164  4  0  0  0  0
163164  4  0  0  0  0
134165  4  0  0  0  0
164165  4  0  0  0  0
165166  4  0  0  0  0
166167  4  0  0  0  0
167168  2  0  0  0  0
168169  4  0  0  0  0
143170  1  0  0  0  0
166170  4  0  0  0  0
169170  4  0  0  0  0
169171  4  0  0  0  0
171172  1  0  0  0  0
172173  4  0  0  0  0
173174  4  0  0  0  0
174175  1  0  0  0  0
174176  4  0  0  0  0
176177  1  0  0  0  0
176178  4  0  0  0  0
178179  1  0  0  0  0
172180  4  0  0  0  0
178180  4  0  0  0  0
171181  4  0  0  0  0
181182  4  0  0  0  0
182183  2  0  0  0  0
144184  4  0  0  0  0
183184  4  0  0  0  0
143185  1  0  0  0  0
181185  4  0  0  0  0
184185  4  0  0  0  0
146186  1  0  0  0  0
147187  1  0  0  0  0
152188  1  0  0  0  0
154189  1  0  0  0  0
156190  1  0  0  0  0
158191  1  0  0  0  0
159192  1  0  0  0  0
161193  1  0  0  0  0
162194  1  0  0  0  0
167195  1  0  0  0  0
168196  1  0  0  0  0
173197  1  0  0  0  0
175198  1  0  0  0  0
177199  1  0  0  0  0
179200  1  0  0  0  0
180201  1  0  0  0  0
182202  1  0  0  0  0
183203  1  0  0  0  0
136205  4  0  0  0  0
205206  4  0  0  0  0
206207  4  0  0  0  0
207208  2  0  0  0  0
208209  4  0  0  0  0
204210  1  0  0  0  0
206210  4  0  0  0  0
209210  4  0  0  0  0
209211  4  0  0  0  0
211212  1  0  0  0  0
212213  4  0  0  0  0
213214  4  0  0  0  0
214215  1  0  0  0  0
214216  4  0  0  0  0
216217  1  0  0  0  0
216218  4  0  0  0  0
218219  1  0  0  0  0
212220  4  0  0  0  0
218220  4  0  0  0  0
211221  4  0  0  0  0
221222  4  0  0  0  0
222223  2  0  0  0  0
204224  1  0  0  0  0
221224  4  0  0  0  0
223225  4  0  0  0  0
224225  4  0  0  0  0
140226  4  0  0  0  0
225226  4  0  0  0  0
226227  4  0  0  0  0
227228  4  0  0  0  0
228229  2  0  0  0  0
229230  4  0  0  0  0
204231  1  0  0  0  0
227231  4  0  0  0  0
230231  4  0  0  0  0
230232  4  0  0  0  0
232233  1  0  0  0  0
233234  4  0  0  0  0
234235  4  0  0  0  0
235236  1  0  0  0  0
235237  4  0  0  0  0
237238  1  0  0  0  0
237239  4  0  0  0  0
239240  1  0  0  0  0
233241  4  0  0  0  0
239241  4  0  0  0  0
232242  4  0  0  0  0
242243  4  0  0  0  0
243244  2  0  0  0  0
205245  4  0  0  0  0
244245  4  0  0  0  0
204246  1  0  0  0  0
242246  4  0  0  0  0
245246  4  0  0  0  0
207247  1  0  0  0  0
208248  1  0  0  0  0
213249  1  0  0  0  0
215250  1  0  0  0  0
217251  1  0  0  0  0
219252  1  0  0  0  0
220253  1  0  0  0  0
222254  1  0  0  0  0
223255  1  0  0  0  0
228256  1  0  0  0  0
229257  1  0  0  0  0
234258  1  0  0  0  0
236259  1  0  0  0  0
238260  1  0  0  0  0
240261  1  0  0  0  0
241262  1  0  0  0  0
243263  1  0  0  0  0
244264  1  0  0  0  0
M  END
