 xtb: 6.5.1 (b24c23e)
          07302203363D

124141  0     0  0            999 V2000
   13.8139   -0.1399   -0.0670 C   0  0  0  0  0  0  0  0  0  0  0  0
   14.4292   -1.3500    0.2246 C   0  0  0  0  0  0  0  0  0  0  0  0
   13.7894   -2.5993    0.4605 C   0  0  0  0  0  0  0  0  0  0  0  0
   14.7565   -3.5188    0.7526 C   0  0  0  0  0  0  0  0  0  0  0  0
   16.0179   -2.8571    0.7167 C   0  0  0  0  0  0  0  0  0  0  0  0
   15.7713   -1.5585    0.3754 N   0  0  0  0  0  0  0  0  0  0  0  0
   17.2814   -3.3991    0.9780 C   0  0  0  0  0  0  0  0  0  0  0  0
   17.3268   -4.8215    1.3864 C   0  0  0  0  0  0  0  0  0  0  0  0
   18.0598   -5.7438    0.6321 C   0  0  0  0  0  0  0  0  0  0  0  0
   18.1063   -7.0756    1.0003 C   0  0  0  0  0  0  0  0  0  0  0  0
   17.4179   -7.4899    2.1371 C   0  0  0  0  0  0  0  0  0  0  0  0
   17.4641   -8.8874    2.5294 N   0  0  0  0  0  0  0  0  0  0  0  0
   18.1080   -9.6380    1.8424 O   0  0  0  0  0  0  0  0  0  0  0  0
   16.8531   -9.2098    3.5159 O   0  0  0  0  0  0  0  0  0  0  0  0
   16.6861   -6.5880    2.9043 C   0  0  0  0  0  0  0  0  0  0  0  0
   16.6415   -5.2591    2.5241 C   0  0  0  0  0  0  0  0  0  0  0  0
   18.4922   -2.7051    0.8840 C   0  0  0  0  0  0  0  0  0  0  0  0
   19.7732   -3.2624    1.2787 C   0  0  0  0  0  0  0  0  0  0  0  0
   20.6963   -2.3133    1.0204 C   0  0  0  0  0  0  0  0  0  0  0  0
   18.6556   -1.4341    0.4281 N   0  0  0  0  0  0  0  0  0  0  0  0
   19.9806   -1.1795    0.4708 C   0  0  0  0  0  0  0  0  0  0  0  0
   20.6271   -0.0103    0.0209 C   0  0  0  0  0  0  0  0  0  0  0  0
   19.9836    1.1588   -0.4292 C   0  0  0  0  0  0  0  0  0  0  0  0
   20.6101    2.3307   -0.9272 C   0  0  0  0  0  0  0  0  0  0  0  0
   19.6368    3.2558   -1.1848 C   0  0  0  0  0  0  0  0  0  0  0  0
   18.3822    2.6747   -0.8516 C   0  0  0  0  0  0  0  0  0  0  0  0
   18.6410    1.4016   -0.4203 N   0  0  0  0  0  0  0  0  0  0  0  0
   17.1188    3.2698   -0.9579 C   0  0  0  0  0  0  0  0  0  0  0  0
   17.0892    4.6975   -1.3469 C   0  0  0  0  0  0  0  0  0  0  0  0
   16.3962    5.1102   -2.4896 C   0  0  0  0  0  0  0  0  0  0  0  0
   16.3617    6.4455   -2.8475 C   0  0  0  0  0  0  0  0  0  0  0  0
   17.0229    7.3790   -2.0544 C   0  0  0  0  0  0  0  0  0  0  0  0
   16.9839    8.7835   -2.4215 N   0  0  0  0  0  0  0  0  0  0  0  0
   16.3614    9.0849   -3.4074 O   0  0  0  0  0  0  0  0  0  0  0  0
   17.5763    9.5602   -1.7172 O   0  0  0  0  0  0  0  0  0  0  0  0
   17.7200    6.9898   -0.9141 C   0  0  0  0  0  0  0  0  0  0  0  0
   17.7524    5.6516   -0.5678 C   0  0  0  0  0  0  0  0  0  0  0  0
   15.9013    2.6205   -0.7252 C   0  0  0  0  0  0  0  0  0  0  0  0
   14.5987    3.2666   -0.7922 C   0  0  0  0  0  0  0  0  0  0  0  0
   13.6838    2.3062   -0.5535 C   0  0  0  0  0  0  0  0  0  0  0  0
   14.4265    1.0795   -0.3222 C   0  0  0  0  0  0  0  0  0  0  0  0
   15.7594    1.3108   -0.4154 N   0  0  0  0  0  0  0  0  0  0  0  0
   12.7292   -0.1573   -0.0908 H   0  0  0  0  0  0  0  0  0  0  0  0
   12.7249   -2.7614    0.4055 H   0  0  0  0  0  0  0  0  0  0  0  0
   14.6146   -4.5656    0.9664 H   0  0  0  0  0  0  0  0  0  0  0  0
   16.4875   -0.8503    0.2551 H   0  0  0  0  0  0  0  0  0  0  0  0
   18.5812   -5.4104   -0.2575 H   0  0  0  0  0  0  0  0  0  0  0  0
   18.6660   -7.7979    0.4183 H   0  0  0  0  0  0  0  0  0  0  0  0
   16.1645   -6.9346    3.7883 H   0  0  0  0  0  0  0  0  0  0  0  0
   16.0880   -4.5451    3.1230 H   0  0  0  0  0  0  0  0  0  0  0  0
   19.9230   -4.2368    1.7144 H   0  0  0  0  0  0  0  0  0  0  0  0
   21.7585   -2.3475    1.1969 H   0  0  0  0  0  0  0  0  0  0  0  0
   21.6704    2.4424   -1.0794 H   0  0  0  0  0  0  0  0  0  0  0  0
   19.7728    4.2468   -1.5858 H   0  0  0  0  0  0  0  0  0  0  0  0
   17.9287    0.7372   -0.1364 H   0  0  0  0  0  0  0  0  0  0  0  0
   15.8975    4.3727   -3.1075 H   0  0  0  0  0  0  0  0  0  0  0  0
   15.8314    6.7735   -3.7334 H   0  0  0  0  0  0  0  0  0  0  0  0
   18.2235    7.7360   -0.3113 H   0  0  0  0  0  0  0  0  0  0  0  0
   18.2785    5.3386    0.3267 H   0  0  0  0  0  0  0  0  0  0  0  0
   14.4316    4.3144   -0.9827 H   0  0  0  0  0  0  0  0  0  0  0  0
   12.6092    2.3905   -0.5191 H   0  0  0  0  0  0  0  0  0  0  0  0
   31.4782    0.0857   -0.1294 C   0  0  0  0  0  0  0  0  0  0  0  0
   30.8629    1.2739   -0.5004 C   0  0  0  0  0  0  0  0  0  0  0  0
   31.5027    2.4672   -0.9392 C   0  0  0  0  0  0  0  0  0  0  0  0
   30.5355    3.4062   -1.1603 C   0  0  0  0  0  0  0  0  0  0  0  0
   29.2741    2.8199   -0.8515 C   0  0  0  0  0  0  0  0  0  0  0  0
   29.5208    1.5302   -0.4779 N   0  0  0  0  0  0  0  0  0  0  0  0
   28.0106    3.4191   -0.9053 C   0  0  0  0  0  0  0  0  0  0  0  0
   27.9652    4.8495   -1.2850 C   0  0  0  0  0  0  0  0  0  0  0  0
   27.2323    5.2538   -2.4058 C   0  0  0  0  0  0  0  0  0  0  0  0
   27.1858    6.5857   -2.7735 C   0  0  0  0  0  0  0  0  0  0  0  0
   27.8741    7.5248   -2.0105 C   0  0  0  0  0  0  0  0  0  0  0  0
   27.8283    8.9254   -2.3914 N   0  0  0  0  0  0  0  0  0  0  0  0
   27.1839    9.2171   -3.3661 O   0  0  0  0  0  0  0  0  0  0  0  0
   28.4385    9.7086   -1.7098 O   0  0  0  0  0  0  0  0  0  0  0  0
   28.6058    7.1446   -0.8890 C   0  0  0  0  0  0  0  0  0  0  0  0
   28.6505    5.8090   -0.5332 C   0  0  0  0  0  0  0  0  0  0  0  0
   26.7999    2.7753   -0.6298 C   0  0  0  0  0  0  0  0  0  0  0  0
   25.5188    3.4561   -0.5773 C   0  0  0  0  0  0  0  0  0  0  0  0
   24.5958    2.5090   -0.3117 C   0  0  0  0  0  0  0  0  0  0  0  0
   26.6364    1.4504   -0.3688 N   0  0  0  0  0  0  0  0  0  0  0  0
   25.3114    1.2538   -0.2014 C   0  0  0  0  0  0  0  0  0  0  0  0
   24.6650    0.0195    0.0127 C   0  0  0  0  0  0  0  0  0  0  0  0
   25.3085   -1.2148    0.2265 C   0  0  0  0  0  0  0  0  0  0  0  0
   24.6821   -2.4762    0.4006 C   0  0  0  0  0  0  0  0  0  0  0  0
   25.6554   -3.4023    0.6545 C   0  0  0  0  0  0  0  0  0  0  0  0
   26.9099   -2.7326    0.6422 C   0  0  0  0  0  0  0  0  0  0  0  0
   26.6511   -1.4186    0.3588 N   0  0  0  0  0  0  0  0  0  0  0  0
   28.1734   -3.2978    0.8564 C   0  0  0  0  0  0  0  0  0  0  0  0
   28.2030   -4.7228    1.2554 C   0  0  0  0  0  0  0  0  0  0  0  0
   28.8960   -5.6635    0.4866 C   0  0  0  0  0  0  0  0  0  0  0  0
   28.9305   -6.9931    0.8648 C   0  0  0  0  0  0  0  0  0  0  0  0
   28.2694   -7.3872    2.0247 C   0  0  0  0  0  0  0  0  0  0  0  0
   28.3087   -8.7809    2.4307 N   0  0  0  0  0  0  0  0  0  0  0  0
   28.9305   -9.5458    1.7389 O   0  0  0  0  0  0  0  0  0  0  0  0
   27.7154   -9.0862    3.4333 O   0  0  0  0  0  0  0  0  0  0  0  0
   27.5721   -6.4679    2.8034 C   0  0  0  0  0  0  0  0  0  0  0  0
   27.5397   -5.1417    2.4137 C   0  0  0  0  0  0  0  0  0  0  0  0
   29.3908   -2.6212    0.7228 C   0  0  0  0  0  0  0  0  0  0  0  0
   30.6935   -3.2100    0.9969 C   0  0  0  0  0  0  0  0  0  0  0  0
   31.6083   -2.2633    0.7087 C   0  0  0  0  0  0  0  0  0  0  0  0
   30.8656   -1.0918    0.2775 C   0  0  0  0  0  0  0  0  0  0  0  0
   29.5328   -1.3381    0.3163 N   0  0  0  0  0  0  0  0  0  0  0  0
   32.5629    0.0884   -0.1588 H   0  0  0  0  0  0  0  0  0  0  0  0
   32.5672    2.5781   -1.0695 H   0  0  0  0  0  0  0  0  0  0  0  0
   30.6774    4.4144   -1.5142 H   0  0  0  0  0  0  0  0  0  0  0  0
   28.8046    0.8607   -0.2176 H   0  0  0  0  0  0  0  0  0  0  0  0
   26.7109    4.5110   -2.9983 H   0  0  0  0  0  0  0  0  0  0  0  0
   26.6262    6.9068   -3.6438 H   0  0  0  0  0  0  0  0  0  0  0  0
   29.1274    7.8959   -0.3083 H   0  0  0  0  0  0  0  0  0  0  0  0
   29.2038    5.5037    0.3473 H   0  0  0  0  0  0  0  0  0  0  0  0
   25.3691    4.5160   -0.7035 H   0  0  0  0  0  0  0  0  0  0  0  0
   23.5336    2.6289   -0.1777 H   0  0  0  0  0  0  0  0  0  0  0  0
   23.6218   -2.6502    0.3274 H   0  0  0  0  0  0  0  0  0  0  0  0
   25.5194   -4.4587    0.8190 H   0  0  0  0  0  0  0  0  0  0  0  0
   27.3634   -0.7027    0.2614 H   0  0  0  0  0  0  0  0  0  0  0  0
   29.3948   -5.3477   -0.4222 H   0  0  0  0  0  0  0  0  0  0  0  0
   29.4609   -7.7294    0.2730 H   0  0  0  0  0  0  0  0  0  0  0  0
   27.0686   -6.7989    3.7038 H   0  0  0  0  0  0  0  0  0  0  0  0
   27.0136   -4.4139    3.0207 H   0  0  0  0  0  0  0  0  0  0  0  0
   30.8606   -4.2070    1.3714 H   0  0  0  0  0  0  0  0  0  0  0  0
   32.6830   -2.3179    0.7815 H   0  0  0  0  0  0  0  0  0  0  0  0
   22.0371    0.0023    0.0212 C   0  0  0  0  0  0  0  0  0  0  0  0
   23.2550    0.0088    0.0194 C   0  0  0  0  0  0  0  0  0  0  0  0
  1  2  4  0  0  0  0
  2  3  4  0  0  0  0
  3  4  2  0  0  0  0
  4  5  4  0  0  0  0
  2  6  4  0  0  0  0
  5  6  4  0  0  0  0
  5  7  4  0  0  0  0
  7  8  1  0  0  0  0
  8  9  4  0  0  0  0
  9 10  4  0  0  0  0
 10 11  4  0  0  0  0
 11 12  1  0  0  0  0
 12 13  2  0  0  0  0
 12 14  2  0  0  0  0
 13 14  1  0  0  0  0
 11 15  4  0  0  0  0
  8 16  4  0  0  0  0
 15 16  4  0  0  0  0
  7 17  4  0  0  0  0
 17 18  1  0  0  0  0
 18 19  2  0  0  0  0
 17 20  4  0  0  0  0
 19 21  1  0  0  0  0
 20 21  4  0  0  0  0
 21 22  4  0  0  0  0
 22 23  4  0  0  0  0
 23 24  4  0  0  0  0
 24 25  2  0  0  0  0
 25 26  4  0  0  0  0
 23 27  4  0  0  0  0
 26 27  4  0  0  0  0
 26 28  4  0  0  0  0
 28 29  1  0  0  0  0
 29 30  4  0  0  0  0
 30 31  4  0  0  0  0
 31 32  4  0  0  0  0
 32 33  1  0  0  0  0
 33 34  2  0  0  0  0
 33 35  2  0  0  0  0
 34 35  1  0  0  0  0
 32 36  4  0  0  0  0
 29 37  4  0  0  0  0
 36 37  4  0  0  0  0
 28 38  4  0  0  0  0
 38 39  1  0  0  0  0
 39 40  2  0  0  0  0
  1 41  4  0  0  0  0
 40 41  1  0  0  0  0
 38 42  4  0  0  0  0
 41 42  4  0  0  0  0
  1 43  1  0  0  0  0
  3 44  1  0  0  0  0
  4 45  1  0  0  0  0
  6 46  1  0  0  0  0
  9 47  1  0  0  0  0
 10 48  1  0  0  0  0
 15 49  1  0  0  0  0
 16 50  1  0  0  0  0
 18 51  1  0  0  0  0
 19 52  1  0  0  0  0
 24 53  1  0  0  0  0
 25 54  1  0  0  0  0
 27 55  1  0  0  0  0
 30 56  1  0  0  0  0
 31 57  1  0  0  0  0
 36 58  1  0  0  0  0
 37 59  1  0  0  0  0
 39 60  1  0  0  0  0
 40 61  1  0  0  0  0
 62 63  4  0  0  0  0
 63 64  4  0  0  0  0
 64 65  2  0  0  0  0
 65 66  4  0  0  0  0
 63 67  4  0  0  0  0
 66 67  4  0  0  0  0
 66 68  4  0  0  0  0
 68 69  1  0  0  0  0
 69 70  4  0  0  0  0
 70 71  4  0  0  0  0
 71 72  4  0  0  0  0
 72 73  1  0  0  0  0
 73 74  2  0  0  0  0
 73 75  2  0  0  0  0
 74 75  1  0  0  0  0
 72 76  4  0  0  0  0
 69 77  4  0  0  0  0
 76 77  4  0  0  0  0
 68 78  4  0  0  0  0
 78 79  1  0  0  0  0
 79 80  2  0  0  0  0
 78 81  4  0  0  0  0
 80 82  1  0  0  0  0
 81 82  4  0  0  0  0
 82 83  4  0  0  0  0
 83 84  4  0  0  0  0
 84 85  4  0  0  0  0
 85 86  2  0  0  0  0
 86 87  4  0  0  0  0
 84 88  4  0  0  0  0
 87 88  4  0  0  0  0
 87 89  4  0  0  0  0
 89 90  1  0  0  0  0
 90 91  4  0  0  0  0
 91 92  4  0  0  0  0
 92 93  4  0  0  0  0
 93 94  1  0  0  0  0
 94 95  2  0  0  0  0
 94 96  2  0  0  0  0
 95 96  1  0  0  0  0
 93 97  4  0  0  0  0
 90 98  4  0  0  0  0
 97 98  4  0  0  0  0
 89 99  4  0  0  0  0
 99100  1  0  0  0  0
100101  2  0  0  0  0
 62102  4  0  0  0  0
101102  1  0  0  0  0
 99103  4  0  0  0  0
102103  4  0  0  0  0
 62104  1  0  0  0  0
 64105  1  0  0  0  0
 65106  1  0  0  0  0
 67107  1  0  0  0  0
 70108  1  0  0  0  0
 71109  1  0  0  0  0
 76110  1  0  0  0  0
 77111  1  0  0  0  0
 79112  1  0  0  0  0
 80113  1  0  0  0  0
 85114  1  0  0  0  0
 86115  1  0  0  0  0
 88116  1  0  0  0  0
 91117  1  0  0  0  0
 92118  1  0  0  0  0
 97119  1  0  0  0  0
 98120  1  0  0  0  0
100121  1  0  0  0  0
101122  1  0  0  0  0
 22123  4  0  0  0  0
 83124  4  0  0  0  0
123124  3  0  0  0  0
M  END
