 xtb: 6.5.1 (b24c23e)
          07302200193D

185214  0     0  0            999 V2000
   29.8328   -0.0424    0.0017 Co  0  0  0  0  0  0  0  0  0  0  0  0
   26.4489   -0.0188   -0.1143 C   0  0  0  0  0  0  0  0  0  0  0  0
   27.0743    0.6711    0.9016 C   0  0  0  0  0  0  0  0  0  0  0  0
   26.3776    1.3813    1.9304 C   0  0  0  0  0  0  0  0  0  0  0  0
   27.3150    2.0548    2.6390 C   0  0  0  0  0  0  0  0  0  0  0  0
   28.5780    1.7569    2.0360 C   0  0  0  0  0  0  0  0  0  0  0  0
   28.4294    0.8750    1.0023 N   0  0  0  0  0  0  0  0  0  0  0  0
   29.7663    2.4022    2.3766 C   0  0  0  0  0  0  0  0  0  0  0  0
   29.7405    3.4038    3.3707 C   0  0  0  0  0  0  0  0  0  0  0  0
   29.7193    4.2644    4.2256 C   0  0  0  0  0  0  0  0  0  0  0  0
   29.6980    5.2681    5.2212 C   0  0  0  0  0  0  0  0  0  0  0  0
   30.8497    5.9964    5.5411 C   0  0  0  0  0  0  0  0  0  0  0  0
   30.7766    6.9686    6.5226 C   0  0  0  0  0  0  0  0  0  0  0  0
   29.6578    7.2500    7.1857 N   0  0  0  0  0  0  0  0  0  0  0  0
   28.5588    6.5617    6.8878 C   0  0  0  0  0  0  0  0  0  0  0  0
   28.5254    5.5705    5.9231 C   0  0  0  0  0  0  0  0  0  0  0  0
   30.9768    2.0966    1.7578 C   0  0  0  0  0  0  0  0  0  0  0  0
   32.2051    2.7639    2.0543 C   0  0  0  0  0  0  0  0  0  0  0  0
   33.1795    2.0971    1.3887 C   0  0  0  0  0  0  0  0  0  0  0  0
   31.1835    1.0598    0.8847 N   0  0  0  0  0  0  0  0  0  0  0  0
   32.5395    1.0249    0.6948 C   0  0  0  0  0  0  0  0  0  0  0  0
   33.2373    0.0075    0.0426 C   0  0  0  0  0  0  0  0  0  0  0  0
   32.5825   -1.0335   -0.6183 C   0  0  0  0  0  0  0  0  0  0  0  0
   33.2652   -2.1071   -1.2680 C   0  0  0  0  0  0  0  0  0  0  0  0
   32.3249   -2.8123   -1.9431 C   0  0  0  0  0  0  0  0  0  0  0  0
   31.0752   -2.1628   -1.7022 C   0  0  0  0  0  0  0  0  0  0  0  0
   31.2348   -1.0988   -0.8521 N   0  0  0  0  0  0  0  0  0  0  0  0
   29.8945   -2.4979   -2.3621 C   0  0  0  0  0  0  0  0  0  0  0  0
   29.9199   -3.5223   -3.3329 C   0  0  0  0  0  0  0  0  0  0  0  0
   29.9416   -4.3988   -4.1715 C   0  0  0  0  0  0  0  0  0  0  0  0
   29.9699   -5.4176   -5.1515 C   0  0  0  0  0  0  0  0  0  0  0  0
   31.1528   -6.1033   -5.4513 C   0  0  0  0  0  0  0  0  0  0  0  0
   31.1280   -7.0901   -6.4208 C   0  0  0  0  0  0  0  0  0  0  0  0
   30.0276   -7.4250   -7.0897 N   0  0  0  0  0  0  0  0  0  0  0  0
   28.8989   -6.7781   -6.8102 C   0  0  0  0  0  0  0  0  0  0  0  0
   28.8169   -5.7765   -5.8594 C   0  0  0  0  0  0  0  0  0  0  0  0
   28.6894   -1.8484   -2.0969 C   0  0  0  0  0  0  0  0  0  0  0  0
   27.4619   -2.1531   -2.7665 C   0  0  0  0  0  0  0  0  0  0  0  0
   26.4906   -1.4512   -2.1359 C   0  0  0  0  0  0  0  0  0  0  0  0
   27.1303   -0.7230   -1.0826 C   0  0  0  0  0  0  0  0  0  0  0  0
   28.4882   -0.9361   -1.0995 N   0  0  0  0  0  0  0  0  0  0  0  0
   25.3658   -0.0133   -0.1489 H   0  0  0  0  0  0  0  0  0  0  0  0
   25.3083    1.3623    2.0684 H   0  0  0  0  0  0  0  0  0  0  0  0
   27.1819    2.7106    3.4845 H   0  0  0  0  0  0  0  0  0  0  0  0
   31.7819    5.7994    5.0255 H   0  0  0  0  0  0  0  0  0  0  0  0
   31.6546    7.5493    6.7906 H   0  0  0  0  0  0  0  0  0  0  0  0
   27.6639    6.8168    7.4481 H   0  0  0  0  0  0  0  0  0  0  0  0
   27.6080    5.0343    5.7121 H   0  0  0  0  0  0  0  0  0  0  0  0
   32.2941    3.6225    2.7002 H   0  0  0  0  0  0  0  0  0  0  0  0
   34.2401    2.2892    1.3720 H   0  0  0  0  0  0  0  0  0  0  0  0
   34.3283   -2.2775   -1.2143 H   0  0  0  0  0  0  0  0  0  0  0  0
   32.4508   -3.6854   -2.5629 H   0  0  0  0  0  0  0  0  0  0  0  0
   32.0716   -5.8621   -4.9306 H   0  0  0  0  0  0  0  0  0  0  0  0
   32.0312   -7.6377   -6.6740 H   0  0  0  0  0  0  0  0  0  0  0  0
   28.0201   -7.0766   -7.3745 H   0  0  0  0  0  0  0  0  0  0  0  0
   27.8767   -5.2752   -5.6634 H   0  0  0  0  0  0  0  0  0  0  0  0
   27.3738   -2.8303   -3.6010 H   0  0  0  0  0  0  0  0  0  0  0  0
   25.4318   -1.4271   -2.3389 H   0  0  0  0  0  0  0  0  0  0  0  0
   61.6958   -0.0834   -0.0379 Co  0  0  0  0  0  0  0  0  0  0  0  0
   65.0777   -0.2155   -0.1562 C   0  0  0  0  0  0  0  0  0  0  0  0
   64.3733   -1.3975   -0.2246 C   0  0  0  0  0  0  0  0  0  0  0  0
   64.9889   -2.6857   -0.3256 C   0  0  0  0  0  0  0  0  0  0  0  0
   63.9915   -3.5751   -0.5449 C   0  0  0  0  0  0  0  0  0  0  0  0
   62.7728   -2.8259   -0.5753 C   0  0  0  0  0  0  0  0  0  0  0  0
   63.0076   -1.5007   -0.3381 N   0  0  0  0  0  0  0  0  0  0  0  0
   61.5394   -3.3745   -0.9248 C   0  0  0  0  0  0  0  0  0  0  0  0
   61.4743   -4.7380   -1.2845 C   0  0  0  0  0  0  0  0  0  0  0  0
   61.4169   -5.9104   -1.5915 C   0  0  0  0  0  0  0  0  0  0  0  0
   61.3493   -7.2768   -1.9487 C   0  0  0  0  0  0  0  0  0  0  0  0
   60.1368   -7.8716   -2.3166 C   0  0  0  0  0  0  0  0  0  0  0  0
   60.1244   -9.2126   -2.6569 C   0  0  0  0  0  0  0  0  0  0  0  0
   61.2155   -9.9743   -2.6527 N   0  0  0  0  0  0  0  0  0  0  0  0
   62.3720   -9.4162   -2.3039 C   0  0  0  0  0  0  0  0  0  0  0  0
   62.4921   -8.0850   -1.9467 C   0  0  0  0  0  0  0  0  0  0  0  0
   60.3686   -2.6193   -0.9262 C   0  0  0  0  0  0  0  0  0  0  0  0
   59.0912   -3.1499   -1.2845 C   0  0  0  0  0  0  0  0  0  0  0  0
   58.1794   -2.1868   -1.0064 C   0  0  0  0  0  0  0  0  0  0  0  0
   60.2529   -1.3282   -0.4783 N   0  0  0  0  0  0  0  0  0  0  0  0
   58.9068   -1.0749   -0.4813 C   0  0  0  0  0  0  0  0  0  0  0  0
   58.2941    0.0557    0.0613 C   0  0  0  0  0  0  0  0  0  0  0  0
   59.0302    1.1354    0.5499 C   0  0  0  0  0  0  0  0  0  0  0  0
   58.4319    2.3007    1.1197 C   0  0  0  0  0  0  0  0  0  0  0  0
   59.4324    3.1942    1.3136 C   0  0  0  0  0  0  0  0  0  0  0  0
   60.6343    2.5668    0.8625 C   0  0  0  0  0  0  0  0  0  0  0  0
   60.3863    1.2886    0.4332 N   0  0  0  0  0  0  0  0  0  0  0  0
   61.8569    3.2284    0.7654 C   0  0  0  0  0  0  0  0  0  0  0  0
   61.9244    4.5956    1.1098 C   0  0  0  0  0  0  0  0  0  0  0  0
   61.9833    5.7705    1.4065 C   0  0  0  0  0  0  0  0  0  0  0  0
   62.0516    7.1395    1.7536 C   0  0  0  0  0  0  0  0  0  0  0  0
   60.9315    7.8206    2.2440 C   0  0  0  0  0  0  0  0  0  0  0  0
   61.0512    9.1599    2.5695 C   0  0  0  0  0  0  0  0  0  0  0  0
   62.1864    9.8416    2.4390 N   0  0  0  0  0  0  0  0  0  0  0  0
   63.2558    9.2012    1.9733 C   0  0  0  0  0  0  0  0  0  0  0  0
   63.2420    7.8637    1.6199 C   0  0  0  0  0  0  0  0  0  0  0  0
   63.0179    2.5790    0.3481 C   0  0  0  0  0  0  0  0  0  0  0  0
   64.2905    3.2255    0.2448 C   0  0  0  0  0  0  0  0  0  0  0  0
   65.2000    2.2546   -0.0078 C   0  0  0  0  0  0  0  0  0  0  0  0
   64.4769    1.0205   -0.0607 C   0  0  0  0  0  0  0  0  0  0  0  0
   63.1306    1.2374    0.1114 N   0  0  0  0  0  0  0  0  0  0  0  0
   66.1601   -0.2602   -0.1823 H   0  0  0  0  0  0  0  0  0  0  0  0
   66.0498   -2.8628   -0.2492 H   0  0  0  0  0  0  0  0  0  0  0  0
   64.0558   -4.6419   -0.6882 H   0  0  0  0  0  0  0  0  0  0  0  0
   59.2243   -7.2881   -2.3336 H   0  0  0  0  0  0  0  0  0  0  0  0
   59.1978   -9.7000   -2.9463 H   0  0  0  0  0  0  0  0  0  0  0  0
   63.2421  -10.0663   -2.3113 H   0  0  0  0  0  0  0  0  0  0  0  0
   63.4540   -7.6712   -1.6692 H   0  0  0  0  0  0  0  0  0  0  0  0
   58.9293   -4.1390   -1.6817 H   0  0  0  0  0  0  0  0  0  0  0  0
   57.1086   -2.2153   -1.1275 H   0  0  0  0  0  0  0  0  0  0  0  0
   57.3791    2.4087    1.3250 H   0  0  0  0  0  0  0  0  0  0  0  0
   59.3775    4.1939    1.7137 H   0  0  0  0  0  0  0  0  0  0  0  0
   59.9873    7.3036    2.3660 H   0  0  0  0  0  0  0  0  0  0  0  0
   60.1984    9.7131    2.9525 H   0  0  0  0  0  0  0  0  0  0  0  0
   64.1654    9.7875    1.8794 H   0  0  0  0  0  0  0  0  0  0  0  0
   64.1364    7.3812    1.2447 H   0  0  0  0  0  0  0  0  0  0  0  0
   64.4485    4.2849    0.3686 H   0  0  0  0  0  0  0  0  0  0  0  0
   66.2669    2.3428   -0.1369 H   0  0  0  0  0  0  0  0  0  0  0  0
   38.4385   -0.0122    0.0120 C   0  0  0  0  0  0  0  0  0  0  0  0
   37.2111    0.0172    0.0383 C   0  0  0  0  0  0  0  0  0  0  0  0
   35.8659    0.0301    0.0526 C   0  0  0  0  0  0  0  0  0  0  0  0
   34.6425    0.0251    0.0540 C   0  0  0  0  0  0  0  0  0  0  0  0
   39.7810   -0.0756   -0.0404 C   0  0  0  0  0  0  0  0  0  0  0  0
   41.0004   -0.1575   -0.1069 C   0  0  0  0  0  0  0  0  0  0  0  0
   54.3216    0.1198    0.1498 C   0  0  0  0  0  0  0  0  0  0  0  0
   53.0942    0.0854    0.1376 C   0  0  0  0  0  0  0  0  0  0  0  0
   51.7519    0.0084    0.0912 C   0  0  0  0  0  0  0  0  0  0  0  0
   50.5344   -0.0948    0.0260 C   0  0  0  0  0  0  0  0  0  0  0  0
   55.6672    0.1232    0.1387 C   0  0  0  0  0  0  0  0  0  0  0  0
   56.8899    0.1043    0.1099 C   0  0  0  0  0  0  0  0  0  0  0  0
   45.7735   -0.5184   -0.3263 Co  0  0  0  0  0  0  0  0  0  0  0  0
   42.3951   -0.2914   -0.1992 C   0  0  0  0  0  0  0  0  0  0  0  0
   43.0905    0.4633   -1.1472 C   0  0  0  0  0  0  0  0  0  0  0  0
   42.4480    1.3143   -2.0981 C   0  0  0  0  0  0  0  0  0  0  0  0
   43.3862    1.6413   -3.0215 C   0  0  0  0  0  0  0  0  0  0  0  0
   44.6034    1.0220   -2.6042 C   0  0  0  0  0  0  0  0  0  0  0  0
   44.4207    0.3225   -1.4428 N   0  0  0  0  0  0  0  0  0  0  0  0
   45.8068    1.1192   -3.3048 C   0  0  0  0  0  0  0  0  0  0  0  0
   45.8114    1.7369   -4.5730 C   0  0  0  0  0  0  0  0  0  0  0  0
   45.8168    2.2617   -5.6671 C   0  0  0  0  0  0  0  0  0  0  0  0
   45.8253    2.8810   -6.9379 C   0  0  0  0  0  0  0  0  0  0  0  0
   47.0149    3.0435   -7.6574 C   0  0  0  0  0  0  0  0  0  0  0  0
   46.9696    3.6589   -8.8958 C   0  0  0  0  0  0  0  0  0  0  0  0
   45.8434    4.1083   -9.4435 N   0  0  0  0  0  0  0  0  0  0  0  0
   44.7083    3.9572   -8.7660 C   0  0  0  0  0  0  0  0  0  0  0  0
   44.6451    3.3563   -7.5213 C   0  0  0  0  0  0  0  0  0  0  0  0
   47.0171    0.7092   -2.7472 C   0  0  0  0  0  0  0  0  0  0  0  0
   48.2891    0.9869   -3.3360 C   0  0  0  0  0  0  0  0  0  0  0  0
   49.2231    0.6825   -2.4012 C   0  0  0  0  0  0  0  0  0  0  0  0
   47.1686    0.1733   -1.4947 N   0  0  0  0  0  0  0  0  0  0  0  0
   48.5168    0.1822   -1.2651 C   0  0  0  0  0  0  0  0  0  0  0  0
   49.1432   -0.2486   -0.0916 C   0  0  0  0  0  0  0  0  0  0  0  0
   48.4473   -0.9388    0.9036 C   0  0  0  0  0  0  0  0  0  0  0  0
   49.0861   -1.5682    2.0158 C   0  0  0  0  0  0  0  0  0  0  0  0
   48.1551   -2.3654    2.5970 C   0  0  0  0  0  0  0  0  0  0  0  0
   46.9454   -2.1852    1.8598 C   0  0  0  0  0  0  0  0  0  0  0  0
   47.1252   -1.2917    0.8398 N   0  0  0  0  0  0  0  0  0  0  0  0
   45.7520   -2.8499    2.1474 C   0  0  0  0  0  0  0  0  0  0  0  0
   45.7548   -3.8671    3.1248 C   0  0  0  0  0  0  0  0  0  0  0  0
   45.7555   -4.7487    3.9587 C   0  0  0  0  0  0  0  0  0  0  0  0
   45.7517   -5.7726    4.9336 C   0  0  0  0  0  0  0  0  0  0  0  0
   44.5665   -6.4241    5.2942 C   0  0  0  0  0  0  0  0  0  0  0  0
   44.6148   -7.4193    6.2541 C   0  0  0  0  0  0  0  0  0  0  0  0
   45.7400   -7.7928    6.8580 N   0  0  0  0  0  0  0  0  0  0  0  0
   46.8708   -7.1780    6.5210 C   0  0  0  0  0  0  0  0  0  0  0  0
   46.9307   -6.1710    5.5741 C   0  0  0  0  0  0  0  0  0  0  0  0
   44.5427   -2.4758    1.5635 C   0  0  0  0  0  0  0  0  0  0  0  0
   43.2747   -2.9829    1.9840 C   0  0  0  0  0  0  0  0  0  0  0  0
   42.3322   -2.2111    1.3881 C   0  0  0  0  0  0  0  0  0  0  0  0
   43.0307   -1.2659    0.5767 C   0  0  0  0  0  0  0  0  0  0  0  0
   44.3824   -1.4530    0.6647 N   0  0  0  0  0  0  0  0  0  0  0  0
   41.4063    1.5902   -2.0671 H   0  0  0  0  0  0  0  0  0  0  0  0
   43.2815    2.2539   -3.9024 H   0  0  0  0  0  0  0  0  0  0  0  0
   47.9542    2.6922   -7.2477 H   0  0  0  0  0  0  0  0  0  0  0  0
   47.8770    3.7988   -9.4760 H   0  0  0  0  0  0  0  0  0  0  0  0
   43.8086    4.3355   -9.2426 H   0  0  0  0  0  0  0  0  0  0  0  0
   43.6993    3.2539   -7.0033 H   0  0  0  0  0  0  0  0  0  0  0  0
   48.4308    1.3937   -4.3242 H   0  0  0  0  0  0  0  0  0  0  0  0
   50.2953    0.7737   -2.4642 H   0  0  0  0  0  0  0  0  0  0  0  0
   50.1209   -1.4311    2.2851 H   0  0  0  0  0  0  0  0  0  0  0  0
   48.2600   -3.0123    3.4530 H   0  0  0  0  0  0  0  0  0  0  0  0
   43.6282   -6.1505    4.8271 H   0  0  0  0  0  0  0  0  0  0  0  0
   43.7109   -7.9416    6.5535 H   0  0  0  0  0  0  0  0  0  0  0  0
   47.7698   -7.5080    7.0334 H   0  0  0  0  0  0  0  0  0  0  0  0
   47.8732   -5.6964    5.3296 H   0  0  0  0  0  0  0  0  0  0  0  0
   43.1403   -3.8013    2.6728 H   0  0  0  0  0  0  0  0  0  0  0  0
   41.2592   -2.2703    1.4733 H   0  0  0  0  0  0  0  0  0  0  0  0
  2  3  4  0  0  0  0
  3  4  1  0  0  0  0
  4  5  2  0  0  0  0
  5  6  4  0  0  0  0
  1  7  1  0  0  0  0
  3  7  4  0  0  0  0
  6  7  4  0  0  0  0
  6  8  4  0  0  0  0
  8  9  1  0  0  0  0
  9 10  3  0  0  0  0
 10 11  1  0  0  0  0
 11 12  4  0  0  0  0
 12 13  4  0  0  0  0
 13 14  4  0  0  0  0
 14 15  4  0  0  0  0
 11 16  4  0  0  0  0
 15 16  4  0  0  0  0
  8 17  4  0  0  0  0
 17 18  4  0  0  0  0
 18 19  2  0  0  0  0
  1 20  1  0  0  0  0
 17 20  4  0  0  0  0
 19 21  4  0  0  0  0
 20 21  4  0  0  0  0
 21 22  4  0  0  0  0
 22 23  4  0  0  0  0
 23 24  4  0  0  0  0
 24 25  2  0  0  0  0
 25 26  4  0  0  0  0
  1 27  1  0  0  0  0
 23 27  4  0  0  0  0
 26 27  4  0  0  0  0
 26 28  4  0  0  0  0
 28 29  1  0  0  0  0
 29 30  3  0  0  0  0
 30 31  1  0  0  0  0
 31 32  4  0  0  0  0
 32 33  4  0  0  0  0
 33 34  4  0  0  0  0
 34 35  4  0  0  0  0
 31 36  4  0  0  0  0
 35 36  4  0  0  0  0
 28 37  4  0  0  0  0
 37 38  4  0  0  0  0
 38 39  2  0  0  0  0
  2 40  4  0  0  0  0
 39 40  1  0  0  0  0
  1 41  1  0  0  0  0
 37 41  4  0  0  0  0
 40 41  4  0  0  0  0
  2 42  1  0  0  0  0
  4 43  1  0  0  0  0
  5 44  1  0  0  0  0
 12 45  1  0  0  0  0
 13 46  1  0  0  0  0
 15 47  1  0  0  0  0
 16 48  1  0  0  0  0
 18 49  1  0  0  0  0
 19 50  1  0  0  0  0
 24 51  1  0  0  0  0
 25 52  1  0  0  0  0
 32 53  1  0  0  0  0
 33 54  1  0  0  0  0
 35 55  1  0  0  0  0
 36 56  1  0  0  0  0
 38 57  1  0  0  0  0
 39 58  1  0  0  0  0
 60 61  4  0  0  0  0
 61 62  1  0  0  0  0
 62 63  2  0  0  0  0
 63 64  4  0  0  0  0
 59 65  1  0  0  0  0
 61 65  4  0  0  0  0
 64 65  4  0  0  0  0
 64 66  4  0  0  0  0
 66 67  1  0  0  0  0
 67 68  3  0  0  0  0
 68 69  1  0  0  0  0
 69 70  4  0  0  0  0
 70 71  4  0  0  0  0
 71 72  4  0  0  0  0
 72 73  4  0  0  0  0
 69 74  4  0  0  0  0
 73 74  4  0  0  0  0
 66 75  4  0  0  0  0
 75 76  4  0  0  0  0
 76 77  2  0  0  0  0
 59 78  1  0  0  0  0
 75 78  4  0  0  0  0
 77 79  4  0  0  0  0
 78 79  4  0  0  0  0
 79 80  4  0  0  0  0
 80 81  4  0  0  0  0
 81 82  4  0  0  0  0
 82 83  2  0  0  0  0
 83 84  4  0  0  0  0
 59 85  1  0  0  0  0
 81 85  4  0  0  0  0
 84 85  4  0  0  0  0
 84 86  4  0  0  0  0
 86 87  1  0  0  0  0
 87 88  3  0  0  0  0
 88 89  1  0  0  0  0
 89 90  4  0  0  0  0
 90 91  4  0  0  0  0
 91 92  4  0  0  0  0
 92 93  4  0  0  0  0
 89 94  4  0  0  0  0
 93 94  4  0  0  0  0
 86 95  4  0  0  0  0
 95 96  4  0  0  0  0
 96 97  2  0  0  0  0
 60 98  4  0  0  0  0
 97 98  1  0  0  0  0
 59 99  1  0  0  0  0
 95 99  4  0  0  0  0
 98 99  4  0  0  0  0
 60100  1  0  0  0  0
 62101  1  0  0  0  0
 63102  1  0  0  0  0
 70103  1  0  0  0  0
 71104  1  0  0  0  0
 73105  1  0  0  0  0
 74106  1  0  0  0  0
 76107  1  0  0  0  0
 77108  1  0  0  0  0
 82109  1  0  0  0  0
 83110  1  0  0  0  0
 90111  1  0  0  0  0
 91112  1  0  0  0  0
 93113  1  0  0  0  0
 94114  1  0  0  0  0
 96115  1  0  0  0  0
 97116  1  0  0  0  0
117118  3  0  0  0  0
118119  4  0  0  0  0
 22120  4  0  0  0  0
119120  3  0  0  0  0
117121  4  0  0  0  0
121122  3  0  0  0  0
123124  3  0  0  0  0
124125  4  0  0  0  0
125126  3  0  0  0  0
123127  4  0  0  0  0
 80128  4  0  0  0  0
127128  3  0  0  0  0
122130  4  0  0  0  0
130131  4  0  0  0  0
131132  4  0  0  0  0
132133  2  0  0  0  0
133134  4  0  0  0  0
129135  1  0  0  0  0
131135  4  0  0  0  0
134135  4  0  0  0  0
134136  4  0  0  0  0
136137  1  0  0  0  0
137138  3  0  0  0  0
138139  1  0  0  0  0
139140  4  0  0  0  0
140141  4  0  0  0  0
141142  4  0  0  0  0
142143  4  0  0  0  0
139144  4  0  0  0  0
143144  4  0  0  0  0
136145  4  0  0  0  0
145146  4  0  0  0  0
146147  2  0  0  0  0
129148  1  0  0  0  0
145148  4  0  0  0  0
147149  4  0  0  0  0
148149  4  0  0  0  0
126150  4  0  0  0  0
149150  4  0  0  0  0
150151  4  0  0  0  0
151152  4  0  0  0  0
152153  2  0  0  0  0
153154  4  0  0  0  0
129155  1  0  0  0  0
151155  4  0  0  0  0
154155  4  0  0  0  0
154156  4  0  0  0  0
156157  1  0  0  0  0
157158  3  0  0  0  0
158159  1  0  0  0  0
159160  4  0  0  0  0
160161  4  0  0  0  0
161162  4  0  0  0  0
162163  4  0  0  0  0
159164  4  0  0  0  0
163164  4  0  0  0  0
156165  4  0  0  0  0
165166  4  0  0  0  0
166167  2  0  0  0  0
130168  4  0  0  0  0
167168  4  0  0  0  0
129169  1  0  0  0  0
165169  4  0  0  0  0
168169  4  0  0  0  0
132170  1  0  0  0  0
133171  1  0  0  0  0
140172  1  0  0  0  0
141173  1  0  0  0  0
143174  1  0  0  0  0
144175  1  0  0  0  0
146176  1  0  0  0  0
147177  1  0  0  0  0
152178  1  0  0  0  0
153179  1  0  0  0  0
160180  1  0  0  0  0
161181  1  0  0  0  0
163182  1  0  0  0  0
164183  1  0  0  0  0
166184  1  0  0  0  0
167185  1  0  0  0  0
M  END
