 xtb: 6.5.1 (b24c23e)
          07302202153D

183212  0     0  0            999 V2000
   23.7900   -0.0123    0.0134 Co  0  0  0  0  0  0  0  0  0  0  0  0
   20.4168   -0.0409    0.0725 C   0  0  0  0  0  0  0  0  0  0  0  0
   21.0751   -1.2029   -0.2687 C   0  0  0  0  0  0  0  0  0  0  0  0
   20.4111   -2.4261   -0.6024 C   0  0  0  0  0  0  0  0  0  0  0  0
   21.3700   -3.3776   -0.6869 C   0  0  0  0  0  0  0  0  0  0  0  0
   22.6200   -2.7339   -0.4054 C   0  0  0  0  0  0  0  0  0  0  0  0
   22.4326   -1.3909   -0.1987 N   0  0  0  0  0  0  0  0  0  0  0  0
   23.8108   -3.4138   -0.1877 C   0  0  0  0  0  0  0  0  0  0  0  0
   24.9894   -2.7526    0.1193 C   0  0  0  0  0  0  0  0  0  0  0  0
   26.2399   -3.4105    0.3526 C   0  0  0  0  0  0  0  0  0  0  0  0
   27.1861   -2.4434    0.4127 C   0  0  0  0  0  0  0  0  0  0  0  0
   25.1669   -1.3876    0.0769 N   0  0  0  0  0  0  0  0  0  0  0  0
   26.5137   -1.1996    0.2070 C   0  0  0  0  0  0  0  0  0  0  0  0
   27.1839    0.0107    0.0070 C   0  0  0  0  0  0  0  0  0  0  0  0
   26.4957    1.2099   -0.1991 C   0  0  0  0  0  0  0  0  0  0  0  0
   27.1434    2.4551   -0.4647 C   0  0  0  0  0  0  0  0  0  0  0  0
   26.1811    3.4082   -0.4293 C   0  0  0  0  0  0  0  0  0  0  0  0
   24.9503    2.7414   -0.1275 C   0  0  0  0  0  0  0  0  0  0  0  0
   23.7630    3.3943    0.1662 C   0  0  0  0  0  0  0  0  0  0  0  0
   23.7500    4.8742    0.2257 C   0  0  0  0  0  0  0  0  0  0  0  0
   22.9192    5.6094   -0.6210 C   0  0  0  0  0  0  0  0  0  0  0  0
   22.9128    6.9950   -0.5666 C   0  0  0  0  0  0  0  0  0  0  0  0
   23.7293    7.6622    0.3365 C   0  0  0  0  0  0  0  0  0  0  0  0
   24.5556    6.9377    1.1849 C   0  0  0  0  0  0  0  0  0  0  0  0
   24.5695    5.5523    1.1294 C   0  0  0  0  0  0  0  0  0  0  0  0
   22.5859    2.6980    0.4097 C   0  0  0  0  0  0  0  0  0  0  0  0
   21.3450    3.3161    0.7748 C   0  0  0  0  0  0  0  0  0  0  0  0
   20.4012    2.3457    0.7472 C   0  0  0  0  0  0  0  0  0  0  0  0
   21.0683    1.1354    0.3750 C   0  0  0  0  0  0  0  0  0  0  0  0
   22.4163    1.3494    0.2302 N   0  0  0  0  0  0  0  0  0  0  0  0
   25.1484    1.3809   -0.0535 N   0  0  0  0  0  0  0  0  0  0  0  0
   23.8183   -4.8950   -0.2744 C   0  0  0  0  0  0  0  0  0  0  0  0
   23.6044   -5.5310   -1.4971 C   0  0  0  0  0  0  0  0  0  0  0  0
   23.6161   -6.9157   -1.5765 C   0  0  0  0  0  0  0  0  0  0  0  0
   23.8359   -7.6785   -0.4377 C   0  0  0  0  0  0  0  0  0  0  0  0
   24.0459   -7.0515    0.7829 C   0  0  0  0  0  0  0  0  0  0  0  0
   24.0396   -5.6670    0.8660 C   0  0  0  0  0  0  0  0  0  0  0  0
   19.3336   -0.0523    0.1021 H   0  0  0  0  0  0  0  0  0  0  0  0
   19.3453   -2.5264   -0.7329 H   0  0  0  0  0  0  0  0  0  0  0  0
   21.2533   -4.4286   -0.8963 H   0  0  0  0  0  0  0  0  0  0  0  0
   26.3687   -4.4773    0.4364 H   0  0  0  0  0  0  0  0  0  0  0  0
   28.2490   -2.5471    0.5607 H   0  0  0  0  0  0  0  0  0  0  0  0
   28.1999    2.5687   -0.6471 H   0  0  0  0  0  0  0  0  0  0  0  0
   26.2842    4.4691   -0.5891 H   0  0  0  0  0  0  0  0  0  0  0  0
   22.2902    5.0903   -1.3357 H   0  0  0  0  0  0  0  0  0  0  0  0
   22.2679    7.5565   -1.2334 H   0  0  0  0  0  0  0  0  0  0  0  0
   23.7219    8.7454    0.3789 H   0  0  0  0  0  0  0  0  0  0  0  0
   25.1926    7.4540    1.8945 H   0  0  0  0  0  0  0  0  0  0  0  0
   25.2061    4.9873    1.8013 H   0  0  0  0  0  0  0  0  0  0  0  0
   21.2256    4.3598    1.0168 H   0  0  0  0  0  0  0  0  0  0  0  0
   19.3447    2.4237    0.9490 H   0  0  0  0  0  0  0  0  0  0  0  0
   23.4437   -4.9356   -2.3890 H   0  0  0  0  0  0  0  0  0  0  0  0
   23.4540   -7.4010   -2.5326 H   0  0  0  0  0  0  0  0  0  0  0  0
   23.8435   -8.7607   -0.5013 H   0  0  0  0  0  0  0  0  0  0  0  0
   24.2150   -7.6431    1.6758 H   0  0  0  0  0  0  0  0  0  0  0  0
   24.1927   -5.1781    1.8216 H   0  0  0  0  0  0  0  0  0  0  0  0
   60.8451    0.0430    0.0269 Co  0  0  0  0  0  0  0  0  0  0  0  0
   64.2181    0.0619    0.1051 C   0  0  0  0  0  0  0  0  0  0  0  0
   63.5637    1.2390   -0.1887 C   0  0  0  0  0  0  0  0  0  0  0  0
   64.2318    2.4740   -0.4662 C   0  0  0  0  0  0  0  0  0  0  0  0
   63.2748    3.4296   -0.5187 C   0  0  0  0  0  0  0  0  0  0  0  0
   62.0219    2.7769   -0.2726 C   0  0  0  0  0  0  0  0  0  0  0  0
   62.2061    1.4262   -0.1200 N   0  0  0  0  0  0  0  0  0  0  0  0
   60.8312    3.4499   -0.0338 C   0  0  0  0  0  0  0  0  0  0  0  0
   59.6507    2.7793    0.2445 C   0  0  0  0  0  0  0  0  0  0  0  0
   58.4015    3.4294    0.5053 C   0  0  0  0  0  0  0  0  0  0  0  0
   57.4539    2.4619    0.5296 C   0  0  0  0  0  0  0  0  0  0  0  0
   59.4709    1.4174    0.1480 N   0  0  0  0  0  0  0  0  0  0  0  0
   58.1239    1.2263    0.2725 C   0  0  0  0  0  0  0  0  0  0  0  0
   57.4513    0.0266    0.0221 C   0  0  0  0  0  0  0  0  0  0  0  0
   58.1371   -1.1626   -0.2419 C   0  0  0  0  0  0  0  0  0  0  0  0
   57.4869   -2.3922   -0.5674 C   0  0  0  0  0  0  0  0  0  0  0  0
   58.4478   -3.3474   -0.5808 C   0  0  0  0  0  0  0  0  0  0  0  0
   59.6799   -2.6983   -0.2471 C   0  0  0  0  0  0  0  0  0  0  0  0
   60.8652   -3.3668    0.0172 C   0  0  0  0  0  0  0  0  0  0  0  0
   60.8760   -4.8479    0.0077 C   0  0  0  0  0  0  0  0  0  0  0  0
   61.7085   -5.5441   -0.8698 C   0  0  0  0  0  0  0  0  0  0  0  0
   61.7151   -6.9307   -0.8777 C   0  0  0  0  0  0  0  0  0  0  0  0
   60.8974   -7.6380   -0.0068 C   0  0  0  0  0  0  0  0  0  0  0  0
   60.0692   -6.9526    0.8716 C   0  0  0  0  0  0  0  0  0  0  0  0
   60.0549   -5.5661    0.8783 C   0  0  0  0  0  0  0  0  0  0  0  0
   62.0425   -2.6854    0.2989 C   0  0  0  0  0  0  0  0  0  0  0  0
   63.2803   -3.3228    0.6408 C   0  0  0  0  0  0  0  0  0  0  0  0
   64.2257   -2.3538    0.6662 C   0  0  0  0  0  0  0  0  0  0  0  0
   63.5628   -1.1259    0.3484 C   0  0  0  0  0  0  0  0  0  0  0  0
   62.2153   -1.3301    0.1853 N   0  0  0  0  0  0  0  0  0  0  0  0
   59.4842   -1.3426   -0.1065 N   0  0  0  0  0  0  0  0  0  0  0  0
   60.8288    4.9333   -0.0641 C   0  0  0  0  0  0  0  0  0  0  0  0
   61.0521    5.6131   -1.2614 C   0  0  0  0  0  0  0  0  0  0  0  0
   61.0508    6.9998   -1.2891 C   0  0  0  0  0  0  0  0  0  0  0  0
   60.8319    7.7211   -0.1233 C   0  0  0  0  0  0  0  0  0  0  0  0
   60.6117    7.0503    1.0720 C   0  0  0  0  0  0  0  0  0  0  0  0
   60.6075    5.6637    1.1033 C   0  0  0  0  0  0  0  0  0  0  0  0
   65.3011    0.0700    0.1421 H   0  0  0  0  0  0  0  0  0  0  0  0
   65.2987    2.5779   -0.5847 H   0  0  0  0  0  0  0  0  0  0  0  0
   63.3945    4.4881   -0.6834 H   0  0  0  0  0  0  0  0  0  0  0  0
   58.2746    4.4922    0.6314 H   0  0  0  0  0  0  0  0  0  0  0  0
   56.3915    2.5612    0.6836 H   0  0  0  0  0  0  0  0  0  0  0  0
   56.4301   -2.4950   -0.7543 H   0  0  0  0  0  0  0  0  0  0  0  0
   58.3430   -4.3989   -0.7929 H   0  0  0  0  0  0  0  0  0  0  0  0
   62.3387   -4.9932   -1.5591 H   0  0  0  0  0  0  0  0  0  0  0  0
   62.3614   -7.4616   -1.5679 H   0  0  0  0  0  0  0  0  0  0  0  0
   60.9056   -8.7221   -0.0126 H   0  0  0  0  0  0  0  0  0  0  0  0
   59.4313   -7.5004    1.5564 H   0  0  0  0  0  0  0  0  0  0  0  0
   59.4171   -5.0320    1.5739 H   0  0  0  0  0  0  0  0  0  0  0  0
   63.3966   -4.3771    0.8327 H   0  0  0  0  0  0  0  0  0  0  0  0
   65.2808   -2.4434    0.8703 H   0  0  0  0  0  0  0  0  0  0  0  0
   61.2129    5.0503   -2.1741 H   0  0  0  0  0  0  0  0  0  0  0  0
   61.2210    7.5193   -2.2256 H   0  0  0  0  0  0  0  0  0  0  0  0
   60.8336    8.8049   -0.1461 H   0  0  0  0  0  0  0  0  0  0  0  0
   60.4435    7.6094    1.9858 H   0  0  0  0  0  0  0  0  0  0  0  0
   60.4475    5.1406    2.0395 H   0  0  0  0  0  0  0  0  0  0  0  0
   28.5853    0.0203    0.0020 C   0  0  0  0  0  0  0  0  0  0  0  0
   29.8110    0.0292   -0.0034 C   0  0  0  0  0  0  0  0  0  0  0  0
   31.1517    0.0355   -0.0073 C   0  0  0  0  0  0  0  0  0  0  0  0
   32.3839    0.0412   -0.0055 C   0  0  0  0  0  0  0  0  0  0  0  0
   33.7197    0.0440   -0.0048 C   0  0  0  0  0  0  0  0  0  0  0  0
   34.9519    0.0446   -0.0038 C   0  0  0  0  0  0  0  0  0  0  0  0
   36.2922    0.0383   -0.0052 C   0  0  0  0  0  0  0  0  0  0  0  0
   37.5183    0.0396    0.0004 C   0  0  0  0  0  0  0  0  0  0  0  0
   47.1169    0.0091    0.0173 C   0  0  0  0  0  0  0  0  0  0  0  0
   48.3430    0.0043    0.0166 C   0  0  0  0  0  0  0  0  0  0  0  0
   49.6833    0.0019    0.0156 C   0  0  0  0  0  0  0  0  0  0  0  0
   50.9155   -0.0019    0.0208 C   0  0  0  0  0  0  0  0  0  0  0  0
   52.2513    0.0002    0.0193 C   0  0  0  0  0  0  0  0  0  0  0  0
   53.4834    0.0033    0.0210 C   0  0  0  0  0  0  0  0  0  0  0  0
   54.8242    0.0091    0.0218 C   0  0  0  0  0  0  0  0  0  0  0  0
   56.0498    0.0180    0.0215 C   0  0  0  0  0  0  0  0  0  0  0  0
   42.3176    0.0253    0.0073 Co  0  0  0  0  0  0  0  0  0  0  0  0
   38.9184    0.0362    0.0116 C   0  0  0  0  0  0  0  0  0  0  0  0
   39.5948   -1.1600    0.2740 C   0  0  0  0  0  0  0  0  0  0  0  0
   38.9346   -2.3896    0.5770 C   0  0  0  0  0  0  0  0  0  0  0  0
   39.8885   -3.3526    0.5736 C   0  0  0  0  0  0  0  0  0  0  0  0
   41.1251   -2.7059    0.2555 C   0  0  0  0  0  0  0  0  0  0  0  0
   40.9408   -1.3474    0.1389 N   0  0  0  0  0  0  0  0  0  0  0  0
   42.3067   -3.3777   -0.0236 C   0  0  0  0  0  0  0  0  0  0  0  0
   43.4917   -2.7054   -0.2878 C   0  0  0  0  0  0  0  0  0  0  0  0
   44.7205   -3.3488   -0.6403 C   0  0  0  0  0  0  0  0  0  0  0  0
   45.6795   -2.3906   -0.6295 C   0  0  0  0  0  0  0  0  0  0  0  0
   43.6861   -1.3534   -0.1270 N   0  0  0  0  0  0  0  0  0  0  0  0
   45.0305   -1.1678   -0.2791 C   0  0  0  0  0  0  0  0  0  0  0  0
   45.7169    0.0140    0.0200 C   0  0  0  0  0  0  0  0  0  0  0  0
   45.0396    1.1984    0.3297 C   0  0  0  0  0  0  0  0  0  0  0  0
   45.6988    2.4142    0.6858 C   0  0  0  0  0  0  0  0  0  0  0  0
   44.7449    3.3767    0.7195 C   0  0  0  0  0  0  0  0  0  0  0  0
   43.5092    2.7438    0.3710 C   0  0  0  0  0  0  0  0  0  0  0  0
   42.3284    3.4268    0.1167 C   0  0  0  0  0  0  0  0  0  0  0  0
   42.3332    4.9076    0.1567 C   0  0  0  0  0  0  0  0  0  0  0  0
   41.5226    5.5921    1.0632 C   0  0  0  0  0  0  0  0  0  0  0  0
   41.5340    6.9781    1.1042 C   0  0  0  0  0  0  0  0  0  0  0  0
   42.3456    7.6956    0.2360 C   0  0  0  0  0  0  0  0  0  0  0  0
   43.1501    7.0215   -0.6726 C   0  0  0  0  0  0  0  0  0  0  0  0
   43.1490    5.6354   -0.7106 C   0  0  0  0  0  0  0  0  0  0  0  0
   41.1441    2.7661   -0.1785 C   0  0  0  0  0  0  0  0  0  0  0  0
   39.9162    3.4233   -0.5082 C   0  0  0  0  0  0  0  0  0  0  0  0
   38.9575    2.4654   -0.5400 C   0  0  0  0  0  0  0  0  0  0  0  0
   39.6054    1.2293   -0.2374 C   0  0  0  0  0  0  0  0  0  0  0  0
   40.9494    1.4086   -0.0743 N   0  0  0  0  0  0  0  0  0  0  0  0
   43.6939    1.3913    0.1991 N   0  0  0  0  0  0  0  0  0  0  0  0
   42.3030   -4.8588   -0.0468 C   0  0  0  0  0  0  0  0  0  0  0  0
   41.4933   -5.5494   -0.9494 C   0  0  0  0  0  0  0  0  0  0  0  0
   41.4961   -6.9359   -0.9732 C   0  0  0  0  0  0  0  0  0  0  0  0
   42.2985   -7.6476   -0.0917 C   0  0  0  0  0  0  0  0  0  0  0  0
   43.1033   -6.9672    0.8120 C   0  0  0  0  0  0  0  0  0  0  0  0
   43.1107   -5.5807    0.8329 C   0  0  0  0  0  0  0  0  0  0  0  0
   37.8764   -2.4881    0.7582 H   0  0  0  0  0  0  0  0  0  0  0  0
   39.7754   -4.4076    0.7627 H   0  0  0  0  0  0  0  0  0  0  0  0
   44.8252   -4.3981   -0.8630 H   0  0  0  0  0  0  0  0  0  0  0  0
   46.7344   -2.4888   -0.8288 H   0  0  0  0  0  0  0  0  0  0  0  0
   46.7565    2.5050    0.8737 H   0  0  0  0  0  0  0  0  0  0  0  0
   44.8576    4.4229    0.9525 H   0  0  0  0  0  0  0  0  0  0  0  0
   40.8962    5.0321    1.7486 H   0  0  0  0  0  0  0  0  0  0  0  0
   40.9060    7.5002    1.8175 H   0  0  0  0  0  0  0  0  0  0  0  0
   42.3511    8.7792    0.2674 H   0  0  0  0  0  0  0  0  0  0  0  0
   43.7831    7.5777   -1.3551 H   0  0  0  0  0  0  0  0  0  0  0  0
   43.7700    5.1098   -1.4275 H   0  0  0  0  0  0  0  0  0  0  0  0
   39.8121    4.4810   -0.6877 H   0  0  0  0  0  0  0  0  0  0  0  0
   37.9031    2.5716   -0.7383 H   0  0  0  0  0  0  0  0  0  0  0  0
   40.8744   -4.9941   -1.6454 H   0  0  0  0  0  0  0  0  0  0  0  0
   40.8693   -7.4628   -1.6840 H   0  0  0  0  0  0  0  0  0  0  0  0
   42.2975   -8.7315   -0.1099 H   0  0  0  0  0  0  0  0  0  0  0  0
   43.7294   -7.5189    1.5045 H   0  0  0  0  0  0  0  0  0  0  0  0
   43.7319   -5.0500    1.5458 H   0  0  0  0  0  0  0  0  0  0  0  0
  2  3  4  0  0  0  0
  3  4  1  0  0  0  0
  4  5  2  0  0  0  0
  5  6  4  0  0  0  0
  1  7  1  0  0  0  0
  3  7  4  0  0  0  0
  6  7  4  0  0  0  0
  6  8  4  0  0  0  0
  8  9  4  0  0  0  0
  9 10  4  0  0  0  0
 10 11  2  0  0  0  0
  1 12  1  0  0  0  0
  9 12  4  0  0  0  0
 11 13  4  0  0  0  0
 12 13  4  0  0  0  0
 13 14  4  0  0  0  0
 14 15  4  0  0  0  0
 15 16  4  0  0  0  0
 16 17  2  0  0  0  0
 17 18  4  0  0  0  0
 18 19  4  0  0  0  0
 19 20  1  0  0  0  0
 20 21  4  0  0  0  0
 21 22  4  0  0  0  0
 22 23  4  0  0  0  0
 23 24  4  0  0  0  0
 20 25  4  0  0  0  0
 24 25  4  0  0  0  0
 19 26  4  0  0  0  0
 26 27  4  0  0  0  0
 27 28  2  0  0  0  0
  2 29  4  0  0  0  0
 28 29  1  0  0  0  0
  1 30  1  0  0  0  0
 26 30  4  0  0  0  0
 29 30  4  0  0  0  0
  1 31  1  0  0  0  0
 15 31  4  0  0  0  0
 18 31  4  0  0  0  0
  8 32  1  0  0  0  0
 32 33  4  0  0  0  0
 33 34  4  0  0  0  0
 34 35  4  0  0  0  0
 35 36  4  0  0  0  0
 32 37  4  0  0  0  0
 36 37  4  0  0  0  0
  2 38  1  0  0  0  0
  4 39  1  0  0  0  0
  5 40  1  0  0  0  0
 10 41  1  0  0  0  0
 11 42  1  0  0  0  0
 16 43  1  0  0  0  0
 17 44  1  0  0  0  0
 21 45  1  0  0  0  0
 22 46  1  0  0  0  0
 23 47  1  0  0  0  0
 24 48  1  0  0  0  0
 25 49  1  0  0  0  0
 27 50  1  0  0  0  0
 28 51  1  0  0  0  0
 33 52  1  0  0  0  0
 34 53  1  0  0  0  0
 35 54  1  0  0  0  0
 36 55  1  0  0  0  0
 37 56  1  0  0  0  0
 58 59  4  0  0  0  0
 59 60  1  0  0  0  0
 60 61  2  0  0  0  0
 61 62  4  0  0  0  0
 57 63  1  0  0  0  0
 59 63  4  0  0  0  0
 62 63  4  0  0  0  0
 62 64  4  0  0  0  0
 64 65  4  0  0  0  0
 65 66  4  0  0  0  0
 66 67  2  0  0  0  0
 57 68  1  0  0  0  0
 65 68  4  0  0  0  0
 67 69  4  0  0  0  0
 68 69  4  0  0  0  0
 69 70  4  0  0  0  0
 70 71  4  0  0  0  0
 71 72  4  0  0  0  0
 72 73  2  0  0  0  0
 73 74  4  0  0  0  0
 74 75  4  0  0  0  0
 75 76  1  0  0  0  0
 76 77  4  0  0  0  0
 77 78  4  0  0  0  0
 78 79  4  0  0  0  0
 79 80  4  0  0  0  0
 76 81  4  0  0  0  0
 80 81  4  0  0  0  0
 75 82  4  0  0  0  0
 82 83  4  0  0  0  0
 83 84  2  0  0  0  0
 58 85  4  0  0  0  0
 84 85  1  0  0  0  0
 57 86  1  0  0  0  0
 82 86  4  0  0  0  0
 85 86  4  0  0  0  0
 57 87  1  0  0  0  0
 71 87  4  0  0  0  0
 74 87  4  0  0  0  0
 64 88  1  0  0  0  0
 88 89  4  0  0  0  0
 89 90  4  0  0  0  0
 90 91  4  0  0  0  0
 91 92  4  0  0  0  0
 88 93  4  0  0  0  0
 92 93  4  0  0  0  0
 58 94  1  0  0  0  0
 60 95  1  0  0  0  0
 61 96  1  0  0  0  0
 66 97  1  0  0  0  0
 67 98  1  0  0  0  0
 72 99  1  0  0  0  0
 73100  1  0  0  0  0
 77101  1  0  0  0  0
 78102  1  0  0  0  0
 79103  1  0  0  0  0
 80104  1  0  0  0  0
 81105  1  0  0  0  0
 83106  1  0  0  0  0
 84107  1  0  0  0  0
 89108  1  0  0  0  0
 90109  1  0  0  0  0
 91110  1  0  0  0  0
 92111  1  0  0  0  0
 93112  1  0  0  0  0
 14113  4  0  0  0  0
113114  3  0  0  0  0
114115  4  0  0  0  0
115116  3  0  0  0  0
116117  4  0  0  0  0
117118  3  0  0  0  0
118119  4  0  0  0  0
119120  3  0  0  0  0
121122  3  0  0  0  0
122123  4  0  0  0  0
123124  3  0  0  0  0
124125  4  0  0  0  0
125126  3  0  0  0  0
126127  4  0  0  0  0
 70128  4  0  0  0  0
127128  3  0  0  0  0
120130  4  0  0  0  0
130131  4  0  0  0  0
131132  4  0  0  0  0
132133  2  0  0  0  0
133134  4  0  0  0  0
129135  1  0  0  0  0
131135  4  0  0  0  0
134135  4  0  0  0  0
134136  4  0  0  0  0
136137  4  0  0  0  0
137138  4  0  0  0  0
138139  2  0  0  0  0
129140  1  0  0  0  0
137140  4  0  0  0  0
139141  4  0  0  0  0
140141  4  0  0  0  0
121142  4  0  0  0  0
141142  4  0  0  0  0
142143  4  0  0  0  0
143144  4  0  0  0  0
144145  2  0  0  0  0
145146  4  0  0  0  0
146147  4  0  0  0  0
147148  1  0  0  0  0
148149  4  0  0  0  0
149150  4  0  0  0  0
150151  4  0  0  0  0
151152  4  0  0  0  0
148153  4  0  0  0  0
152153  4  0  0  0  0
147154  4  0  0  0  0
154155  4  0  0  0  0
155156  2  0  0  0  0
130157  4  0  0  0  0
156157  4  0  0  0  0
129158  1  0  0  0  0
154158  4  0  0  0  0
157158  4  0  0  0  0
129159  1  0  0  0  0
143159  4  0  0  0  0
146159  4  0  0  0  0
136160  1  0  0  0  0
160161  4  0  0  0  0
161162  4  0  0  0  0
162163  4  0  0  0  0
163164  4  0  0  0  0
160165  4  0  0  0  0
164165  4  0  0  0  0
132166  1  0  0  0  0
133167  1  0  0  0  0
138168  1  0  0  0  0
139169  1  0  0  0  0
144170  1  0  0  0  0
145171  1  0  0  0  0
149172  1  0  0  0  0
150173  1  0  0  0  0
151174  1  0  0  0  0
152175  1  0  0  0  0
153176  1  0  0  0  0
155177  1  0  0  0  0
156178  1  0  0  0  0
161179  1  0  0  0  0
162180  1  0  0  0  0
163181  1  0  0  0  0
164182  1  0  0  0  0
165183  1  0  0  0  0
M  END
