280

Ni 50.190204 1.978423 1.616608
C 46.439113 0.084940 -0.043032
C 47.088746 0.938141 0.754075
C 46.424039 1.856780 1.670416
C 47.354244 2.569939 2.277681
C 48.666475 2.148949 1.767566
N 48.504677 1.104773 0.806675
C 49.851888 2.679238 2.134145
C 49.885751 3.792721 3.110037
C 49.397949 5.059827 2.759367
C 49.446148 6.111680 3.678075
C 49.987205 5.917229 4.958856
N 50.023660 7.020551 5.882850
C 50.565072 6.923006 7.234372
C 50.482626 4.644950 5.304344
C 50.433024 3.593182 4.384960
C 51.151027 2.200719 1.592533
C 52.427829 2.894801 1.800349
C 53.372283 2.185066 1.217078
N 51.307185 1.111080 0.905026
C 52.705293 1.030547 0.627830
C 53.312074 0.019174 -0.014397
C 52.561455 -1.114302 -0.598889
C 53.103187 -2.281727 -0.922278
C 52.071122 -3.073021 -1.563697
C 50.968161 -2.333946 -1.593992
N 51.187829 -1.060942 -0.984312
C 49.697608 -2.749623 -2.241613
C 49.736160 -3.850650 -3.234825
C 50.481877 -3.707273 -4.413488
C 50.538909 -4.748074 -5.344837
C 49.853021 -5.954836 -5.107618
N 49.891762 -7.045185 -6.046802
C 50.628487 -6.999538 -7.305520
C 49.115451 -6.095941 -3.921646
C 49.059747 -5.055215 -2.990800
C 48.528843 -2.147352 -1.949236
C 47.228467 -2.444123 -2.547787
C 46.356169 -1.667867 -1.934222
C 47.090922 -0.867164 -0.956306
N 48.357803 -1.138182 -0.956198
H 45.355514 0.087918 -0.024563
H 45.358598 1.946225 1.839499
H 47.154880 3.328944 3.022763
H 48.982220 5.231875 1.774050
H 49.062365 7.082241 3.389786
H 49.644081 7.946294 5.579637
H 51.637386 6.638205 7.192597
H 49.995071 6.168836 7.816632
H 50.479100 7.904641 7.746444
H 50.909138 4.457054 6.280104
H 50.820122 2.621407 4.666467
H 52.587686 3.823704 2.331849
H 54.424457 2.436015 1.197772
H 54.129915 -2.584484 -0.766044
H 52.190440 -4.070586 -1.966208
H 51.016938 -2.786546 -4.612087
H 51.120262 -4.603052 -6.245018
H 49.366745 -7.921709 -5.825304
H 50.240115 -6.176434 -7.941425
H 50.501951 -7.958445 -7.851149
H 51.709755 -6.846041 -7.105517
H 48.584190 -7.016793 -3.716217
H 48.492668 -5.188634 -2.077616
H 46.998152 -3.149750 -3.335063
H 45.292942 -1.636134 -2.132911
Ni 98.324700 -2.000037 -1.570552
C 102.075792 0.032770 -0.084826
C 101.426159 -0.931299 -0.743540
C 102.090866 -2.026006 -1.440099
C 101.160660 -2.774249 -2.003568
C 99.848429 -2.184566 -1.704029
N 100.010228 -1.018989 -0.894679
C 98.663016 -2.658021 -2.141553
C 98.629154 -3.853359 -3.015267
C 99.116955 -3.787620 -4.328357
C 99.068756 -4.913706 -5.154404
C 98.527700 -6.121196 -4.685173
N 98.491244 -7.263670 -5.560294
C 97.949832 -8.561341 -5.170198
C 98.032279 -6.180749 -3.368164
C 98.081880 -5.054023 -2.542348
C 97.363878 -2.025046 -1.792744
C 96.087075 -2.379304 -2.424757
C 95.142622 -1.655224 -1.859392
N 97.207719 -1.116347 -0.879375
C 95.809612 -0.828258 -0.861266
C 95.202830 0.019174 -0.014397
C 95.953450 0.836907 0.964231
C 95.411717 1.407235 2.032964
C 96.443783 2.205858 2.665233
C 97.546743 2.074158 1.937357
N 97.327076 1.201399 0.828058
C 98.817297 2.796874 2.201707
C 98.778744 4.006397 3.059486
C 98.033028 5.125375 2.662380
C 97.975996 6.261384 3.474882
C 98.661884 6.293196 4.704328
N 98.623143 7.447663 5.563474
C 97.886418 8.666091 5.244276
C 99.399453 5.166590 5.100811
C 99.455158 4.031088 4.288272
C 99.986061 2.380127 1.677745
C 101.286437 3.029010 1.836761
C 102.158735 2.260851 1.213090
C 101.423982 1.131786 0.645061
N 100.157101 1.190816 0.909571
H 103.159390 0.014096 -0.083702
H 103.156306 -2.210532 -1.490494
H 101.360025 -3.666993 -2.581709
H 99.532684 -2.863586 -4.711255
H 99.452539 -4.844139 -6.164482
H 98.870824 -7.169759 -6.529891
H 96.877518 -8.458430 -4.901375
H 98.519834 -8.965012 -4.307151
H 98.035804 -9.275267 -6.016446
H 97.605767 -7.091998 -2.971886
H 97.694782 -5.116706 -1.532565
H 95.927219 -3.100682 -3.215304
H 94.090448 -1.691140 -2.108507
H 94.384989 1.320826 2.362516
H 96.324464 2.816339 3.550934
H 97.497966 5.118287 1.720505
H 97.394642 7.108231 3.136936
H 99.148160 7.422759 6.467208
H 98.274789 9.107073 4.302250
H 98.012953 9.407806 6.061021
H 96.805150 8.437414 5.138118
H 99.930714 5.167041 6.044298
H 100.022236 3.169020 4.617732
H 101.516752 3.951284 2.353602
H 103.221963 2.447828 1.138768
C 59.323927 0.020486 -0.005964
C 58.114988 0.007031 -0.014411
C 56.693459 0.015850 -0.026395
C 55.481789 0.023289 -0.015532
C 60.740531 0.013811 -0.005431
C 61.961227 0.023289 -0.015532
C 74.861372 0.020486 -0.005964
C 73.652433 0.007031 -0.014411
C 72.230904 0.015850 -0.026395
C 71.019235 0.023289 -0.015532
C 76.277977 0.013811 -0.005431
C 77.498673 0.023289 -0.015532
C 90.398818 0.020486 -0.005964
C 89.189878 0.007031 -0.014411
C 87.768350 0.015850 -0.026395
C 86.556680 0.023289 -0.015532
C 91.815422 0.013811 -0.005431
C 93.036118 0.023289 -0.015532
Ni 66.814867 -2.026590 -1.590949
C 63.051214 -0.022694 0.016769
C 63.708177 -0.981273 -0.661641
C 63.066489 -2.087194 -1.376297
C 64.005459 -2.797645 -1.968723
C 65.304657 -2.190291 -1.665375
N 65.126313 -1.041803 -0.833389
C 66.488335 -2.632329 -2.136933
C 66.514742 -3.804401 -3.036609
C 66.599240 -5.097884 -2.505601
C 66.629145 -6.205686 -3.357062
C 66.577701 -6.037579 -4.750415
N 66.609546 -7.198392 -5.601466
C 66.559729 -7.130975 -7.058211
C 66.496146 -4.733684 -5.278274
C 66.464806 -3.626526 -4.425463
C 67.788760 -2.001783 -1.800346
C 69.063189 -2.374453 -2.427031
C 70.016254 -1.668699 -1.853359
N 67.954867 -1.105965 -0.877778
C 69.357271 -0.840741 -0.851297
C 69.972401 -0.022694 0.016769
C 69.223660 0.779670 1.007656
C 69.760880 1.321505 2.093374
C 68.727851 2.110245 2.735762
C 67.629920 1.998990 1.996829
N 67.852541 1.152059 0.870186
C 66.370455 2.738709 2.251258
C 66.428647 3.965004 3.083315
C 65.768852 4.018866 4.319890
C 65.839158 5.171252 5.108203
C 66.577119 6.288729 4.672354
N 66.666797 7.491308 5.458893
C 66.022469 7.655208 6.757835
C 67.243044 6.224408 3.438421
C 67.173581 5.071341 2.652033
C 65.195832 2.332290 1.732293
C 63.915825 3.019484 1.868685
C 63.027084 2.262921 1.258564
C 63.727863 1.090498 0.723140
N 64.996089 1.126607 0.993914
H 62.008799 -2.307513 -1.433609
H 63.820728 -3.675393 -2.574578
H 66.640939 -5.247292 -1.433343
H 66.692579 -7.198442 -2.928961
H 66.671708 -8.145077 -5.163157
H 65.616602 -6.642749 -7.382644
H 67.432349 -6.560408 -7.440438
H 66.592825 -8.156286 -7.484036
H 66.456661 -4.563394 -6.345523
H 66.403483 -2.630138 -4.846511
H 69.216696 -3.100526 -3.214283
H 71.069673 -1.724223 -2.093008
H 70.784634 1.222084 2.428256
H 68.844666 2.707150 3.630900
H 65.202777 3.165945 4.674167
H 65.317653 5.180751 6.055324
H 67.219337 8.297187 5.087691
H 66.411311 6.898298 7.470907
H 66.238786 8.666993 7.161488
H 64.923084 7.545119 6.650854
H 67.819193 7.070237 3.084384
H 67.696167 5.042327 1.703601
H 63.709772 3.962667 2.357235
H 61.973992 2.493776 1.173170
Ni 82.352312 -2.026590 -1.590949
C 78.588660 -0.022694 0.016769
C 79.245622 -0.981273 -0.661641
C 78.603935 -2.087194 -1.376297
C 79.542904 -2.797645 -1.968723
C 80.842102 -2.190291 -1.665375
N 80.663758 -1.041803 -0.833389
C 82.025780 -2.632329 -2.136933
C 82.052187 -3.804401 -3.036609
C 82.136686 -5.097884 -2.505601
C 82.166590 -6.205686 -3.357062
C 82.115147 -6.037579 -4.750415
N 82.146991 -7.198392 -5.601466
C 82.097174 -7.130975 -7.058211
C 82.033591 -4.733684 -5.278274
C 82.002252 -3.626526 -4.425463
C 83.326206 -2.001783 -1.800346
C 84.600634 -2.374453 -2.427031
C 85.553699 -1.668699 -1.853359
N 83.492312 -1.105965 -0.877778
C 84.894717 -0.840741 -0.851297
C 85.509846 -0.022694 0.016769
C 84.761106 0.779670 1.007656
C 85.298325 1.321505 2.093374
C 84.265296 2.110245 2.735762
C 83.167365 1.998990 1.996829
N 83.389987 1.152059 0.870186
C 81.907900 2.738709 2.251258
C 81.966092 3.965004 3.083315
C 81.306298 4.018866 4.319890
C 81.376603 5.171252 5.108203
C 82.114565 6.288729 4.672354
N 82.204243 7.491308 5.458893
C 81.559915 7.655208 6.757835
C 82.780490 6.224408 3.438421
C 82.711027 5.071341 2.652033
C 80.733278 2.332290 1.732293
C 79.453271 3.019484 1.868685
C 78.564530 2.262921 1.258564
C 79.265309 1.090498 0.723140
N 80.533534 1.126607 0.993914
H 77.546244 -2.307513 -1.433609
H 79.358174 -3.675393 -2.574578
H 82.178384 -5.247292 -1.433343
H 82.230025 -7.198442 -2.928961
H 82.209153 -8.145077 -5.163157
H 81.154048 -6.642749 -7.382644
H 82.969794 -6.560408 -7.440438
H 82.130271 -8.156286 -7.484036
H 81.994106 -4.563394 -6.345523
H 81.940928 -2.630138 -4.846511
H 84.754142 -3.100526 -3.214283
H 86.607118 -1.724223 -2.093008
H 86.322079 1.222084 2.428256
H 84.382111 2.707150 3.630900
H 80.740223 3.165945 4.674167
H 80.855099 5.180751 6.055324
H 82.756782 8.297187 5.087691
H 81.948757 6.898298 7.470907
H 81.776232 8.666993 7.161488
H 80.460529 7.545119 6.650854
H 83.356638 7.070237 3.084384
H 83.233612 5.042327 1.703601
H 79.247218 3.962667 2.357235
H 77.511437 2.493776 1.173170
