 xtb: 6.5.1 (b24c23e)
          07302203313D

280319  0     0  0            999 V2000
   50.2686    0.0410   -0.0385 Ni  0  0  0  0  0  0  0  0  0  0  0  0
   46.8818    0.1251   -0.1137 C   0  0  0  0  0  0  0  0  0  0  0  0
   47.5293    0.8875    0.8368 C   0  0  0  0  0  0  0  0  0  0  0  0
   46.8543    1.6721    1.8241 C   0  0  0  0  0  0  0  0  0  0  0  0
   47.8098    2.3607    2.4928 C   0  0  0  0  0  0  0  0  0  0  0  0
   49.0669    2.0104    1.9001 C   0  0  0  0  0  0  0  0  0  0  0  0
   48.8878    1.0682    0.9183 N   0  0  0  0  0  0  0  0  0  0  0  0
   50.2779    2.6102    2.2280 C   0  0  0  0  0  0  0  0  0  0  0  0
   50.2846    3.7175    3.2094 C   0  0  0  0  0  0  0  0  0  0  0  0
   49.5296    4.8733    2.9899 C   0  0  0  0  0  0  0  0  0  0  0  0
   49.5432    5.9104    3.9030 C   0  0  0  0  0  0  0  0  0  0  0  0
   50.3097    5.8199    5.0716 C   0  0  0  0  0  0  0  0  0  0  0  0
   50.2478    6.8612    5.9851 N   0  0  0  0  0  0  0  0  0  0  0  0
   51.3402    7.0574    6.9288 C   0  0  0  0  0  0  0  0  0  0  0  0
   51.0540    4.6595    5.3037 C   0  0  0  0  0  0  0  0  0  0  0  0
   51.0443    3.6307    4.3777 C   0  0  0  0  0  0  0  0  0  0  0  0
   51.4823    2.2110    1.6606 C   0  0  0  0  0  0  0  0  0  0  0  0
   52.7357    2.8551    1.9104 C   0  0  0  0  0  0  0  0  0  0  0  0
   53.6866    2.1208    1.2829 C   0  0  0  0  0  0  0  0  0  0  0  0
   51.6605    1.1190    0.8410 N   0  0  0  0  0  0  0  0  0  0  0  0
   53.0118    1.0372    0.6439 C   0  0  0  0  0  0  0  0  0  0  0  0
   53.6766   -0.0095   -0.0026 C   0  0  0  0  0  0  0  0  0  0  0  0
   52.9954   -1.0434   -0.6529 C   0  0  0  0  0  0  0  0  0  0  0  0
   53.6512   -2.1565   -1.2601 C   0  0  0  0  0  0  0  0  0  0  0  0
   52.6909   -2.8786   -1.8877 C   0  0  0  0  0  0  0  0  0  0  0  0
   51.4521   -2.1941   -1.6751 C   0  0  0  0  0  0  0  0  0  0  0  0
   51.6463   -1.0917   -0.8727 N   0  0  0  0  0  0  0  0  0  0  0  0
   50.2497   -2.5618   -2.2670 C   0  0  0  0  0  0  0  0  0  0  0  0
   50.2388   -3.6911   -3.2231 C   0  0  0  0  0  0  0  0  0  0  0  0
   51.0330   -3.6640   -4.3711 C   0  0  0  0  0  0  0  0  0  0  0  0
   51.0239   -4.7142   -5.2729 C   0  0  0  0  0  0  0  0  0  0  0  0
   50.2248   -5.8364   -5.0359 C   0  0  0  0  0  0  0  0  0  0  0  0
   50.1438   -6.8958   -5.9269 N   0  0  0  0  0  0  0  0  0  0  0  0
   51.2530   -7.1613   -6.8333 C   0  0  0  0  0  0  0  0  0  0  0  0
   49.4226   -5.8663   -3.8883 C   0  0  0  0  0  0  0  0  0  0  0  0
   49.4282   -4.8080   -2.9999 C   0  0  0  0  0  0  0  0  0  0  0  0
   49.0554   -1.9027   -1.9955 C   0  0  0  0  0  0  0  0  0  0  0  0
   47.8095   -2.2019   -2.6378 C   0  0  0  0  0  0  0  0  0  0  0  0
   46.8630   -1.4466   -2.0311 C   0  0  0  0  0  0  0  0  0  0  0  0
   47.5325   -0.6785   -1.0273 C   0  0  0  0  0  0  0  0  0  0  0  0
   48.8820   -0.9319   -1.0415 N   0  0  0  0  0  0  0  0  0  0  0  0
   45.7986    0.1544   -0.1401 H   0  0  0  0  0  0  0  0  0  0  0  0
   45.7863    1.6797    1.9738 H   0  0  0  0  0  0  0  0  0  0  0  0
   47.6862    3.0439    3.3174 H   0  0  0  0  0  0  0  0  0  0  0  0
   48.9463    4.9661    2.0803 H   0  0  0  0  0  0  0  0  0  0  0  0
   48.9592    6.8055    3.7162 H   0  0  0  0  0  0  0  0  0  0  0  0
   49.9374    7.7304    5.5678 H   0  0  0  0  0  0  0  0  0  0  0  0
   52.3104    7.0937    6.4202 H   0  0  0  0  0  0  0  0  0  0  0  0
   51.3497    6.2503    7.6627 H   0  0  0  0  0  0  0  0  0  0  0  0
   51.1704    7.9999    7.4493 H   0  0  0  0  0  0  0  0  0  0  0  0
   51.6405    4.5519    6.2079 H   0  0  0  0  0  0  0  0  0  0  0  0
   51.6187    2.7317    4.5735 H   0  0  0  0  0  0  0  0  0  0  0  0
   52.8623    3.7572    2.4865 H   0  0  0  0  0  0  0  0  0  0  0  0
   54.7516    2.2850    1.2488 H   0  0  0  0  0  0  0  0  0  0  0  0
   54.7106   -2.3486   -1.2039 H   0  0  0  0  0  0  0  0  0  0  0  0
   52.8023   -3.7960   -2.4423 H   0  0  0  0  0  0  0  0  0  0  0  0
   51.6498   -2.7946   -4.5717 H   0  0  0  0  0  0  0  0  0  0  0  0
   51.6387   -4.6527   -6.1625 H   0  0  0  0  0  0  0  0  0  0  0  0
   49.7848   -7.7408   -5.4988 H   0  0  0  0  0  0  0  0  0  0  0  0
   51.3199   -6.3723   -7.5835 H   0  0  0  0  0  0  0  0  0  0  0  0
   51.0562   -8.1069   -7.3384 H   0  0  0  0  0  0  0  0  0  0  0  0
   52.2056   -7.2290   -6.2954 H   0  0  0  0  0  0  0  0  0  0  0  0
   48.7950   -6.7308   -3.6985 H   0  0  0  0  0  0  0  0  0  0  0  0
   48.8153   -4.8533   -2.1063 H   0  0  0  0  0  0  0  0  0  0  0  0
   47.6875   -2.8976   -3.4520 H   0  0  0  0  0  0  0  0  0  0  0  0
   45.8041   -1.4012   -2.2312 H   0  0  0  0  0  0  0  0  0  0  0  0
   98.2591    0.0170   -0.0149 Ni  0  0  0  0  0  0  0  0  0  0  0  0
  101.6446    0.0868   -0.1381 C   0  0  0  0  0  0  0  0  0  0  0  0
  100.9980   -1.0094   -0.6714 C   0  0  0  0  0  0  0  0  0  0  0  0
  101.6742   -2.1389   -1.2308 C   0  0  0  0  0  0  0  0  0  0  0  0
  100.7187   -2.9437   -1.7540 C   0  0  0  0  0  0  0  0  0  0  0  0
   99.4600   -2.2960   -1.5287 C   0  0  0  0  0  0  0  0  0  0  0  0
   99.6389   -1.1341   -0.8205 N   0  0  0  0  0  0  0  0  0  0  0  0
   98.2469   -2.7534   -2.0318 C   0  0  0  0  0  0  0  0  0  0  0  0
   98.2403   -3.9482   -2.9048 C   0  0  0  0  0  0  0  0  0  0  0  0
   98.9813   -3.9718   -4.0899 C   0  0  0  0  0  0  0  0  0  0  0  0
   98.9667   -5.0834   -4.9107 C   0  0  0  0  0  0  0  0  0  0  0  0
   98.2134   -6.2126   -4.5663 C   0  0  0  0  0  0  0  0  0  0  0  0
   98.2735   -7.3243   -5.3929 N   0  0  0  0  0  0  0  0  0  0  0  0
   97.1889   -8.2969   -5.3724 C   0  0  0  0  0  0  0  0  0  0  0  0
   97.4844   -6.2009   -3.3735 C   0  0  0  0  0  0  0  0  0  0  0  0
   97.4947   -5.0783   -2.5636 C   0  0  0  0  0  0  0  0  0  0  0  0
   97.0408   -2.1225   -1.7505 C   0  0  0  0  0  0  0  0  0  0  0  0
   95.7839   -2.5155   -2.3106 C   0  0  0  0  0  0  0  0  0  0  0  0
   94.8341   -1.7491   -1.7207 C   0  0  0  0  0  0  0  0  0  0  0  0
   96.8653   -1.0862   -0.8610 N   0  0  0  0  0  0  0  0  0  0  0  0
   95.5132   -0.8842   -0.8103 C   0  0  0  0  0  0  0  0  0  0  0  0
   94.8520   -0.0261    0.0740 C   0  0  0  0  0  0  0  0  0  0  0  0
   95.5366    0.8381    0.9345 C   0  0  0  0  0  0  0  0  0  0  0  0
   94.8852    1.6719    1.8927 C   0  0  0  0  0  0  0  0  0  0  0  0
   95.8461    2.4505    2.4476 C   0  0  0  0  0  0  0  0  0  0  0  0
   97.0806    2.1003    1.8138 C   0  0  0  0  0  0  0  0  0  0  0  0
   96.8842    1.0717    0.9195 N   0  0  0  0  0  0  0  0  0  0  0  0
   98.2803    2.7688    2.0271 C   0  0  0  0  0  0  0  0  0  0  0  0
   98.2891    3.9568    2.9092 C   0  0  0  0  0  0  0  0  0  0  0  0
   97.4812    5.0603    2.6281 C   0  0  0  0  0  0  0  0  0  0  0  0
   97.4866    6.1784    3.4441 C   0  0  0  0  0  0  0  0  0  0  0  0
   98.2964    6.2123    4.5831 C   0  0  0  0  0  0  0  0  0  0  0  0
   98.3741    7.3229    5.4100 N   0  0  0  0  0  0  0  0  0  0  0  0
   97.2548    8.2534    5.4727 C   0  0  0  0  0  0  0  0  0  0  0  0
   99.1123    5.1100    4.8669 C   0  0  0  0  0  0  0  0  0  0  0  0
   99.1098    4.0029    4.0399 C   0  0  0  0  0  0  0  0  0  0  0  0
   99.4720    2.3636    1.4355 C   0  0  0  0  0  0  0  0  0  0  0  0
  100.7158    3.0622    1.5742 C   0  0  0  0  0  0  0  0  0  0  0  0
  101.6616    2.3054    0.9686 C   0  0  0  0  0  0  0  0  0  0  0  0
  100.9935    1.1524    0.4487 C   0  0  0  0  0  0  0  0  0  0  0  0
   99.6454    1.2171    0.7016 N   0  0  0  0  0  0  0  0  0  0  0  0
  102.7274    0.1106   -0.1797 H   0  0  0  0  0  0  0  0  0  0  0  0
  102.7431   -2.2818   -1.2141 H   0  0  0  0  0  0  0  0  0  0  0  0
  100.8431   -3.8944   -2.2466 H   0  0  0  0  0  0  0  0  0  0  0  0
   99.5541   -3.0977   -4.3797 H   0  0  0  0  0  0  0  0  0  0  0  0
   99.5393   -5.0850   -5.8322 H   0  0  0  0  0  0  0  0  0  0  0  0
   98.5696   -7.0965   -6.3344 H   0  0  0  0  0  0  0  0  0  0  0  0
   96.2131   -7.8149   -5.5016 H   0  0  0  0  0  0  0  0  0  0  0  0
   97.1963   -8.8453   -4.4295 H   0  0  0  0  0  0  0  0  0  0  0  0
   97.3535   -9.0019   -6.1873 H   0  0  0  0  0  0  0  0  0  0  0  0
   96.9093   -7.0670   -3.0700 H   0  0  0  0  0  0  0  0  0  0  0  0
   96.9319   -5.0847   -1.6363 H   0  0  0  0  0  0  0  0  0  0  0  0
   95.6539   -3.2756   -3.0636 H   0  0  0  0  0  0  0  0  0  0  0  0
   93.7674   -1.7590   -1.8764 H   0  0  0  0  0  0  0  0  0  0  0  0
   93.8282    1.6519    2.1041 H   0  0  0  0  0  0  0  0  0  0  0  0
   95.7380    3.1937    3.2207 H   0  0  0  0  0  0  0  0  0  0  0  0
   96.8559    5.0506    1.7418 H   0  0  0  0  0  0  0  0  0  0  0  0
   96.8608    7.0241    3.1868 H   0  0  0  0  0  0  0  0  0  0  0  0
   98.7441    7.1028    6.3269 H   0  0  0  0  0  0  0  0  0  0  0  0
   97.1726    8.8033    4.5342 H   0  0  0  0  0  0  0  0  0  0  0  0
   97.4514    8.9629    6.2764 H   0  0  0  0  0  0  0  0  0  0  0  0
   96.3099    7.7343    5.6704 H   0  0  0  0  0  0  0  0  0  0  0  0
   99.7479    5.1291    5.7460 H   0  0  0  0  0  0  0  0  0  0  0  0
   99.7332    3.1493    4.2830 H   0  0  0  0  0  0  0  0  0  0  0  0
  100.8371    4.0124    2.0685 H   0  0  0  0  0  0  0  0  0  0  0  0
  102.7190    2.4947    0.8724 H   0  0  0  0  0  0  0  0  0  0  0  0
   58.8778   -0.0471    0.0150 C   0  0  0  0  0  0  0  0  0  0  0  0
   57.6495   -0.0427    0.0147 C   0  0  0  0  0  0  0  0  0  0  0  0
   56.3046   -0.0344    0.0115 C   0  0  0  0  0  0  0  0  0  0  0  0
   55.0809   -0.0259    0.0056 C   0  0  0  0  0  0  0  0  0  0  0  0
   60.2226   -0.0459    0.0121 C   0  0  0  0  0  0  0  0  0  0  0  0
   61.4465   -0.0423    0.0067 C   0  0  0  0  0  0  0  0  0  0  0  0
   74.8851    0.0040    0.0062 C   0  0  0  0  0  0  0  0  0  0  0  0
   73.6567    0.0110   -0.0030 C   0  0  0  0  0  0  0  0  0  0  0  0
   72.3120    0.0183   -0.0143 C   0  0  0  0  0  0  0  0  0  0  0  0
   71.0882    0.0261   -0.0257 C   0  0  0  0  0  0  0  0  0  0  0  0
   76.2297    0.0013    0.0131 C   0  0  0  0  0  0  0  0  0  0  0  0
   77.4536    0.0019    0.0171 C   0  0  0  0  0  0  0  0  0  0  0  0
   90.8794   -0.0250    0.1123 C   0  0  0  0  0  0  0  0  0  0  0  0
   89.6510   -0.0178    0.1093 C   0  0  0  0  0  0  0  0  0  0  0  0
   88.3064   -0.0083    0.0995 C   0  0  0  0  0  0  0  0  0  0  0  0
   87.0827    0.0032    0.0847 C   0  0  0  0  0  0  0  0  0  0  0  0
   92.2241   -0.0302    0.1071 C   0  0  0  0  0  0  0  0  0  0  0  0
   93.4478   -0.0310    0.0975 C   0  0  0  0  0  0  0  0  0  0  0  0
   66.2674    0.0197   -0.0419 Ni  0  0  0  0  0  0  0  0  0  0  0  0
   62.8506   -0.0300   -0.0011 C   0  0  0  0  0  0  0  0  0  0  0  0
   63.5301   -1.0843   -0.6191 C   0  0  0  0  0  0  0  0  0  0  0  0
   62.8626   -2.1796   -1.2455 C   0  0  0  0  0  0  0  0  0  0  0  0
   63.8204   -2.9242   -1.8492 C   0  0  0  0  0  0  0  0  0  0  0  0
   65.0725   -2.2866   -1.5792 C   0  0  0  0  0  0  0  0  0  0  0  0
   64.8831   -1.1653   -0.8027 N   0  0  0  0  0  0  0  0  0  0  0  0
   66.2803   -2.6950   -2.1305 C   0  0  0  0  0  0  0  0  0  0  0  0
   66.2861   -3.8647   -3.0419 C   0  0  0  0  0  0  0  0  0  0  0  0
   65.9512   -5.1368   -2.5723 C   0  0  0  0  0  0  0  0  0  0  0  0
   65.9590   -6.2269   -3.4223 C   0  0  0  0  0  0  0  0  0  0  0  0
   66.2914   -6.0731   -4.7737 C   0  0  0  0  0  0  0  0  0  0  0  0
   66.3322   -7.2034   -5.5770 N   0  0  0  0  0  0  0  0  0  0  0  0
   66.1914   -7.0654   -7.0205 C   0  0  0  0  0  0  0  0  0  0  0  0
   66.6335   -4.8027   -5.2458 C   0  0  0  0  0  0  0  0  0  0  0  0
   66.6301   -3.7173   -4.3859 C   0  0  0  0  0  0  0  0  0  0  0  0
   67.4841   -2.0575   -1.8603 C   0  0  0  0  0  0  0  0  0  0  0  0
   68.7438   -2.4863   -2.3863 C   0  0  0  0  0  0  0  0  0  0  0  0
   69.6957   -1.7249   -1.7945 C   0  0  0  0  0  0  0  0  0  0  0  0
   67.6630   -1.0252   -0.9661 N   0  0  0  0  0  0  0  0  0  0  0  0
   69.0163   -0.8374   -0.9066 C   0  0  0  0  0  0  0  0  0  0  0  0
   69.6841    0.0341   -0.0406 C   0  0  0  0  0  0  0  0  0  0  0  0
   69.0074    0.9133    0.8106 C   0  0  0  0  0  0  0  0  0  0  0  0
   69.6741    1.7887    1.7194 C   0  0  0  0  0  0  0  0  0  0  0  0
   68.7151    2.5542    2.2953 C   0  0  0  0  0  0  0  0  0  0  0  0
   67.4661    2.1490    1.7276 C   0  0  0  0  0  0  0  0  0  0  0  0
   67.6544    1.1098    0.8442 N   0  0  0  0  0  0  0  0  0  0  0  0
   66.2529    2.7656    2.0084 C   0  0  0  0  0  0  0  0  0  0  0  0
   66.2473    3.9521    2.8935 C   0  0  0  0  0  0  0  0  0  0  0  0
   65.5201    3.9501    4.0852 C   0  0  0  0  0  0  0  0  0  0  0  0
   65.5161    5.0518    4.9233 C   0  0  0  0  0  0  0  0  0  0  0  0
   66.2445    6.1955    4.5828 C   0  0  0  0  0  0  0  0  0  0  0  0
   66.2314    7.3460    5.3563 N   0  0  0  0  0  0  0  0  0  0  0  0
   65.9350    7.2556    6.7797 C   0  0  0  0  0  0  0  0  0  0  0  0
   66.9639    6.2074    3.3812 C   0  0  0  0  0  0  0  0  0  0  0  0
   66.9698    5.0998    2.5550 C   0  0  0  0  0  0  0  0  0  0  0  0
   65.0446    2.3072    1.4982 C   0  0  0  0  0  0  0  0  0  0  0  0
   63.7872    2.9481    1.7318 C   0  0  0  0  0  0  0  0  0  0  0  0
   62.8355    2.1572    1.1784 C   0  0  0  0  0  0  0  0  0  0  0  0
   63.5155    1.0457    0.5960 C   0  0  0  0  0  0  0  0  0  0  0  0
   64.8684    1.1580    0.7601 N   0  0  0  0  0  0  0  0  0  0  0  0
   61.7961   -2.3363   -1.2310 H   0  0  0  0  0  0  0  0  0  0  0  0
   63.6967   -3.8168   -2.4401 H   0  0  0  0  0  0  0  0  0  0  0  0
   65.6999   -5.2718   -1.5260 H   0  0  0  0  0  0  0  0  0  0  0  0
   65.7069   -7.2118   -3.0434 H   0  0  0  0  0  0  0  0  0  0  0  0
   65.7765   -7.9655   -5.2073 H   0  0  0  0  0  0  0  0  0  0  0  0
   65.3017   -6.4825   -7.2850 H   0  0  0  0  0  0  0  0  0  0  0  0
   67.0751   -6.5808   -7.4376 H   0  0  0  0  0  0  0  0  0  0  0  0
   66.1077   -8.0647   -7.4478 H   0  0  0  0  0  0  0  0  0  0  0  0
   66.9042   -4.6538   -6.2838 H   0  0  0  0  0  0  0  0  0  0  0  0
   66.8819   -2.7335   -4.7670 H   0  0  0  0  0  0  0  0  0  0  0  0
   68.8765   -3.2820   -3.1008 H   0  0  0  0  0  0  0  0  0  0  0  0
   70.7650   -1.7586   -1.9277 H   0  0  0  0  0  0  0  0  0  0  0  0
   70.7393    1.8048    1.8849 H   0  0  0  0  0  0  0  0  0  0  0  0
   68.8338    3.3207    3.0435 H   0  0  0  0  0  0  0  0  0  0  0  0
   64.9658    3.0621    4.3695 H   0  0  0  0  0  0  0  0  0  0  0  0
   64.9435    5.0153    5.8419 H   0  0  0  0  0  0  0  0  0  0  0  0
   67.0156    7.9571    5.1632 H   0  0  0  0  0  0  0  0  0  0  0  0
   66.5692    6.5128    7.2770 H   0  0  0  0  0  0  0  0  0  0  0  0
   66.1119    8.2354    7.2233 H   0  0  0  0  0  0  0  0  0  0  0  0
   64.8875    6.9897    6.9276 H   0  0  0  0  0  0  0  0  0  0  0  0
   67.5193    7.0963    3.1011 H   0  0  0  0  0  0  0  0  0  0  0  0
   67.5246    5.1266    1.6235 H   0  0  0  0  0  0  0  0  0  0  0  0
   63.6576    3.8852    2.2479 H   0  0  0  0  0  0  0  0  0  0  0  0
   61.7675    2.3020    1.1572 H   0  0  0  0  0  0  0  0  0  0  0  0
   82.2680    0.0296    0.0174 Ni  0  0  0  0  0  0  0  0  0  0  0  0
   78.8573    0.0091    0.0170 C   0  0  0  0  0  0  0  0  0  0  0  0
   79.5385   -1.0721   -0.5523 C   0  0  0  0  0  0  0  0  0  0  0  0
   78.8849   -2.2195   -1.0937 C   0  0  0  0  0  0  0  0  0  0  0  0
   79.8453   -2.9693   -1.6889 C   0  0  0  0  0  0  0  0  0  0  0  0
   81.0818   -2.2704   -1.5171 C   0  0  0  0  0  0  0  0  0  0  0  0
   80.8874   -1.1298   -0.7714 N   0  0  0  0  0  0  0  0  0  0  0  0
   82.2843   -2.6576   -2.0975 C   0  0  0  0  0  0  0  0  0  0  0  0
   82.2902   -3.8145   -3.0193 C   0  0  0  0  0  0  0  0  0  0  0  0
   83.0989   -4.9266   -2.7665 C   0  0  0  0  0  0  0  0  0  0  0  0
   83.1042   -6.0068   -3.6280 C   0  0  0  0  0  0  0  0  0  0  0  0
   82.3082   -6.0022   -4.7807 C   0  0  0  0  0  0  0  0  0  0  0  0
   82.3128   -7.1270   -5.5910 N   0  0  0  0  0  0  0  0  0  0  0  0
   81.9151   -7.0129   -6.9879 C   0  0  0  0  0  0  0  0  0  0  0  0
   81.4919   -4.8957   -5.0342 C   0  0  0  0  0  0  0  0  0  0  0  0
   81.4861   -3.8216   -4.1610 C   0  0  0  0  0  0  0  0  0  0  0  0
   83.4820   -2.0005   -1.8392 C   0  0  0  0  0  0  0  0  0  0  0  0
   84.7293   -2.3333   -2.4556 C   0  0  0  0  0  0  0  0  0  0  0  0
   85.6821   -1.5912   -1.8387 C   0  0  0  0  0  0  0  0  0  0  0  0
   83.6625   -1.0140   -0.8958 N   0  0  0  0  0  0  0  0  0  0  0  0
   85.0122   -0.7959   -0.8613 C   0  0  0  0  0  0  0  0  0  0  0  0
   85.6792    0.0141    0.0644 C   0  0  0  0  0  0  0  0  0  0  0  0
   84.9961    0.8417    0.9616 C   0  0  0  0  0  0  0  0  0  0  0  0
   85.6470    1.6525    1.9391 C   0  0  0  0  0  0  0  0  0  0  0  0
   84.6868    2.4251    2.5051 C   0  0  0  0  0  0  0  0  0  0  0  0
   83.4534    2.0887    1.8634 C   0  0  0  0  0  0  0  0  0  0  0  0
   83.6486    1.0772    0.9510 N   0  0  0  0  0  0  0  0  0  0  0  0
   82.2529    2.7551    2.0828 C   0  0  0  0  0  0  0  0  0  0  0  0
   82.2501    3.9397    2.9688 C   0  0  0  0  0  0  0  0  0  0  0  0
   81.4406    3.9818    4.1057 C   0  0  0  0  0  0  0  0  0  0  0  0
   81.4414    5.0829    4.9446 C   0  0  0  0  0  0  0  0  0  0  0  0
   82.2577    6.1819    4.6601 C   0  0  0  0  0  0  0  0  0  0  0  0
   82.2574    7.3315    5.4350 N   0  0  0  0  0  0  0  0  0  0  0  0
   81.8565    7.2585    6.8338 C   0  0  0  0  0  0  0  0  0  0  0  0
   83.0599    6.1507    3.5124 C   0  0  0  0  0  0  0  0  0  0  0  0
   83.0603    5.0434    2.6860 C   0  0  0  0  0  0  0  0  0  0  0  0
   81.0568    2.3452    1.5054 C   0  0  0  0  0  0  0  0  0  0  0  0
   79.8119    3.0320    1.6642 C   0  0  0  0  0  0  0  0  0  0  0  0
   78.8590    2.2536    1.0946 C   0  0  0  0  0  0  0  0  0  0  0  0
   79.5262    1.1037    0.5753 C   0  0  0  0  0  0  0  0  0  0  0  0
   80.8749    1.1844    0.7872 N   0  0  0  0  0  0  0  0  0  0  0  0
   77.8265   -2.4125   -1.0226 H   0  0  0  0  0  0  0  0  0  0  0  0
   79.7353   -3.9145   -2.1951 H   0  0  0  0  0  0  0  0  0  0  0  0
   83.7125   -4.9492   -1.8724 H   0  0  0  0  0  0  0  0  0  0  0  0
   83.7278   -6.8685   -3.4138 H   0  0  0  0  0  0  0  0  0  0  0  0
   83.1441   -7.6934   -5.4712 H   0  0  0  0  0  0  0  0  0  0  0  0
   80.8472   -6.8000   -7.0567 H   0  0  0  0  0  0  0  0  0  0  0  0
   82.4745   -6.2231   -7.5031 H   0  0  0  0  0  0  0  0  0  0  0  0
   82.1117   -7.9690   -7.4730 H   0  0  0  0  0  0  0  0  0  0  0  0
   80.8584   -4.8663   -5.9122 H   0  0  0  0  0  0  0  0  0  0  0  0
   80.8630   -2.9611   -4.3793 H   0  0  0  0  0  0  0  0  0  0  0  0
   84.8528   -3.0415   -3.2588 H   0  0  0  0  0  0  0  0  0  0  0  0
   86.7449   -1.5736   -2.0196 H   0  0  0  0  0  0  0  0  0  0  0  0
   86.7036    1.6264    2.1518 H   0  0  0  0  0  0  0  0  0  0  0  0
   84.7950    3.1546    3.2912 H   0  0  0  0  0  0  0  0  0  0  0  0
   80.8173    3.1277    4.3481 H   0  0  0  0  0  0  0  0  0  0  0  0
   80.8041    5.0807    5.8204 H   0  0  0  0  0  0  0  0  0  0  0  0
   83.0884    7.8949    5.3006 H   0  0  0  0  0  0  0  0  0  0  0  0
   82.4115    6.4813    7.3719 H   0  0  0  0  0  0  0  0  0  0  0  0
   82.0563    8.2269    7.2923 H   0  0  0  0  0  0  0  0  0  0  0  0
   80.7878    7.0520    6.9064 H   0  0  0  0  0  0  0  0  0  0  0  0
   83.6843    7.0056    3.2746 H   0  0  0  0  0  0  0  0  0  0  0  0
   83.6805    5.0369    1.7962 H   0  0  0  0  0  0  0  0  0  0  0  0
   79.6911    3.9882    2.1467 H   0  0  0  0  0  0  0  0  0  0  0  0
   77.7977    2.4299    1.0244 H   0  0  0  0  0  0  0  0  0  0  0  0
  2  3  4  0  0  0  0
  3  4  4  0  0  0  0
  4  5  2  0  0  0  0
  5  6  4  0  0  0  0
  1  7  1  0  0  0  0
  3  7  4  0  0  0  0
  6  7  4  0  0  0  0
  6  8  4  0  0  0  0
  8  9  1  0  0  0  0
  9 10  4  0  0  0  0
 10 11  4  0  0  0  0
 11 12  4  0  0  0  0
 12 13  1  0  0  0  0
 13 14  1  0  0  0  0
 12 15  4  0  0  0  0
  9 16  4  0  0  0  0
 15 16  4  0  0  0  0
  8 17  4  0  0  0  0
 17 18  4  0  0  0  0
 18 19  2  0  0  0  0
  1 20  1  0  0  0  0
 17 20  4  0  0  0  0
 19 21  4  0  0  0  0
 20 21  4  0  0  0  0
 21 22  4  0  0  0  0
 22 23  4  0  0  0  0
 23 24  4  0  0  0  0
 24 25  2  0  0  0  0
 25 26  4  0  0  0  0
  1 27  1  0  0  0  0
 23 27  4  0  0  0  0
 26 27  4  0  0  0  0
 26 28  4  0  0  0  0
 28 29  1  0  0  0  0
 29 30  4  0  0  0  0
 30 31  4  0  0  0  0
 31 32  4  0  0  0  0
 32 33  1  0  0  0  0
 33 34  1  0  0  0  0
 32 35  4  0  0  0  0
 29 36  4  0  0  0  0
 35 36  4  0  0  0  0
 28 37  4  0  0  0  0
 37 38  4  0  0  0  0
 38 39  2  0  0  0  0
  2 40  4  0  0  0  0
 39 40  4  0  0  0  0
  1 41  1  0  0  0  0
 37 41  4  0  0  0  0
 40 41  4  0  0  0  0
  2 42  1  0  0  0  0
  4 43  1  0  0  0  0
  5 44  1  0  0  0  0
 10 45  1  0  0  0  0
 11 46  1  0  0  0  0
 13 47  1  0  0  0  0
 14 48  1  0  0  0  0
 14 49  1  0  0  0  0
 14 50  1  0  0  0  0
 15 51  1  0  0  0  0
 16 52  1  0  0  0  0
 18 53  1  0  0  0  0
 19 54  1  0  0  0  0
 24 55  1  0  0  0  0
 25 56  1  0  0  0  0
 30 57  1  0  0  0  0
 31 58  1  0  0  0  0
 33 59  1  0  0  0  0
 34 60  1  0  0  0  0
 34 61  1  0  0  0  0
 34 62  1  0  0  0  0
 35 63  1  0  0  0  0
 36 64  1  0  0  0  0
 38 65  1  0  0  0  0
 39 66  1  0  0  0  0
 68 69  4  0  0  0  0
 69 70  4  0  0  0  0
 70 71  2  0  0  0  0
 71 72  4  0  0  0  0
 67 73  1  0  0  0  0
 69 73  4  0  0  0  0
 72 73  4  0  0  0  0
 72 74  4  0  0  0  0
 74 75  1  0  0  0  0
 75 76  4  0  0  0  0
 76 77  4  0  0  0  0
 77 78  4  0  0  0  0
 78 79  1  0  0  0  0
 79 80  1  0  0  0  0
 78 81  4  0  0  0  0
 75 82  4  0  0  0  0
 81 82  4  0  0  0  0
 74 83  4  0  0  0  0
 83 84  4  0  0  0  0
 84 85  2  0  0  0  0
 67 86  1  0  0  0  0
 83 86  4  0  0  0  0
 85 87  4  0  0  0  0
 86 87  4  0  0  0  0
 87 88  4  0  0  0  0
 88 89  4  0  0  0  0
 89 90  4  0  0  0  0
 90 91  2  0  0  0  0
 91 92  4  0  0  0  0
 67 93  1  0  0  0  0
 89 93  4  0  0  0  0
 92 93  4  0  0  0  0
 92 94  4  0  0  0  0
 94 95  1  0  0  0  0
 95 96  4  0  0  0  0
 96 97  4  0  0  0  0
 97 98  4  0  0  0  0
 98 99  1  0  0  0  0
 99100  1  0  0  0  0
 98101  4  0  0  0  0
 95102  4  0  0  0  0
101102  4  0  0  0  0
 94103  4  0  0  0  0
103104  4  0  0  0  0
104105  2  0  0  0  0
 68106  4  0  0  0  0
105106  4  0  0  0  0
 67107  1  0  0  0  0
103107  4  0  0  0  0
106107  4  0  0  0  0
 68108  1  0  0  0  0
 70109  1  0  0  0  0
 71110  1  0  0  0  0
 76111  1  0  0  0  0
 77112  1  0  0  0  0
 79113  1  0  0  0  0
 80114  1  0  0  0  0
 80115  1  0  0  0  0
 80116  1  0  0  0  0
 81117  1  0  0  0  0
 82118  1  0  0  0  0
 84119  1  0  0  0  0
 85120  1  0  0  0  0
 90121  1  0  0  0  0
 91122  1  0  0  0  0
 96123  1  0  0  0  0
 97124  1  0  0  0  0
 99125  1  0  0  0  0
100126  1  0  0  0  0
100127  1  0  0  0  0
100128  1  0  0  0  0
101129  1  0  0  0  0
102130  1  0  0  0  0
104131  1  0  0  0  0
105132  1  0  0  0  0
133134  3  0  0  0  0
134135  4  0  0  0  0
 22136  4  0  0  0  0
135136  3  0  0  0  0
133137  4  0  0  0  0
137138  3  0  0  0  0
139140  3  0  0  0  0
140141  4  0  0  0  0
141142  3  0  0  0  0
139143  4  0  0  0  0
143144  3  0  0  0  0
145146  3  0  0  0  0
146147  4  0  0  0  0
147148  3  0  0  0  0
145149  4  0  0  0  0
 88150  4  0  0  0  0
149150  3  0  0  0  0
138152  4  0  0  0  0
152153  4  0  0  0  0
153154  4  0  0  0  0
154155  2  0  0  0  0
155156  4  0  0  0  0
151157  1  0  0  0  0
153157  4  0  0  0  0
156157  4  0  0  0  0
156158  4  0  0  0  0
158159  1  0  0  0  0
159160  4  0  0  0  0
160161  4  0  0  0  0
161162  4  0  0  0  0
162163  1  0  0  0  0
163164  1  0  0  0  0
162165  4  0  0  0  0
159166  4  0  0  0  0
165166  4  0  0  0  0
158167  4  0  0  0  0
167168  4  0  0  0  0
168169  2  0  0  0  0
151170  1  0  0  0  0
167170  4  0  0  0  0
169171  4  0  0  0  0
170171  4  0  0  0  0
142172  4  0  0  0  0
171172  4  0  0  0  0
172173  4  0  0  0  0
173174  4  0  0  0  0
174175  2  0  0  0  0
175176  4  0  0  0  0
151177  1  0  0  0  0
173177  4  0  0  0  0
176177  4  0  0  0  0
176178  4  0  0  0  0
178179  1  0  0  0  0
179180  4  0  0  0  0
180181  4  0  0  0  0
181182  4  0  0  0  0
182183  1  0  0  0  0
183184  1  0  0  0  0
182185  4  0  0  0  0
179186  4  0  0  0  0
185186  4  0  0  0  0
178187  4  0  0  0  0
187188  4  0  0  0  0
188189  2  0  0  0  0
152190  4  0  0  0  0
189190  4  0  0  0  0
151191  1  0  0  0  0
187191  4  0  0  0  0
190191  4  0  0  0  0
154192  1  0  0  0  0
155193  1  0  0  0  0
160194  1  0  0  0  0
161195  1  0  0  0  0
163196  1  0  0  0  0
164197  1  0  0  0  0
164198  1  0  0  0  0
164199  1  0  0  0  0
165200  1  0  0  0  0
166201  1  0  0  0  0
168202  1  0  0  0  0
169203  1  0  0  0  0
174204  1  0  0  0  0
175205  1  0  0  0  0
180206  1  0  0  0  0
181207  1  0  0  0  0
183208  1  0  0  0  0
184209  1  0  0  0  0
184210  1  0  0  0  0
184211  1  0  0  0  0
185212  1  0  0  0  0
186213  1  0  0  0  0
188214  1  0  0  0  0
189215  1  0  0  0  0
144217  4  0  0  0  0
217218  4  0  0  0  0
218219  4  0  0  0  0
219220  2  0  0  0  0
220221  4  0  0  0  0
216222  1  0  0  0  0
218222  4  0  0  0  0
221222  4  0  0  0  0
221223  4  0  0  0  0
223224  1  0  0  0  0
224225  4  0  0  0  0
225226  4  0  0  0  0
226227  4  0  0  0  0
227228  1  0  0  0  0
228229  1  0  0  0  0
227230  4  0  0  0  0
224231  4  0  0  0  0
230231  4  0  0  0  0
223232  4  0  0  0  0
232233  4  0  0  0  0
233234  2  0  0  0  0
216235  1  0  0  0  0
232235  4  0  0  0  0
234236  4  0  0  0  0
235236  4  0  0  0  0
148237  4  0  0  0  0
236237  4  0  0  0  0
237238  4  0  0  0  0
238239  4  0  0  0  0
239240  2  0  0  0  0
240241  4  0  0  0  0
216242  1  0  0  0  0
238242  4  0  0  0  0
241242  4  0  0  0  0
241243  4  0  0  0  0
243244  1  0  0  0  0
244245  4  0  0  0  0
245246  4  0  0  0  0
246247  4  0  0  0  0
247248  1  0  0  0  0
248249  1  0  0  0  0
247250  4  0  0  0  0
244251  4  0  0  0  0
250251  4  0  0  0  0
243252  4  0  0  0  0
252253  4  0  0  0  0
253254  2  0  0  0  0
217255  4  0  0  0  0
254255  4  0  0  0  0
216256  1  0  0  0  0
252256  4  0  0  0  0
255256  4  0  0  0  0
219257  1  0  0  0  0
220258  1  0  0  0  0
225259  1  0  0  0  0
226260  1  0  0  0  0
228261  1  0  0  0  0
229262  1  0  0  0  0
229263  1  0  0  0  0
229264  1  0  0  0  0
230265  1  0  0  0  0
231266  1  0  0  0  0
233267  1  0  0  0  0
234268  1  0  0  0  0
239269  1  0  0  0  0
240270  1  0  0  0  0
245271  1  0  0  0  0
246272  1  0  0  0  0
248273  1  0  0  0  0
249274  1  0  0  0  0
249275  1  0  0  0  0
249276  1  0  0  0  0
250277  1  0  0  0  0
251278  1  0  0  0  0
253279  1  0  0  0  0
254280  1  0  0  0  0
M  END
