176

C 5.791297 -0.000907 -0.000622
C 6.525730 -1.378065 -0.072508
C 5.938585 -2.621729 -0.137425
C 6.990503 -3.577627 -0.187326
C 8.178955 -2.880442 -0.150938
N 7.887263 -1.544763 -0.081211
C 9.610311 -3.498764 -0.183223
C 10.732872 -2.753957 -0.144340
C 12.017858 -3.406423 -0.178410
C 12.955142 -2.465195 -0.129272
N 10.954703 -1.411740 -0.074264
C 12.304081 -1.167327 -0.061511
C 13.000843 0.000425 -0.000551
C 12.226178 1.392712 0.072136
C 12.789757 2.653251 0.137950
C 11.731732 3.597409 0.187238
C 10.553821 2.887480 0.150166
N 10.859170 1.550344 0.080358
C 9.121024 3.512042 0.182764
C 8.003503 2.762434 0.143629
C 6.699734 3.387155 0.176235
C 5.783251 2.423102 0.125909
C 6.477306 1.157465 0.059846
N 7.813388 1.418691 0.073485
H 4.708580 0.007310 -0.000196
H 4.877909 -2.819396 -0.147742
H 6.891238 -4.650690 -0.243342
H 8.567288 -0.788724 -0.041748
H 9.688353 -4.578197 -0.239582
H 12.182819 -4.467338 -0.233801
H 14.013181 -2.652593 -0.139060
H 13.845131 2.878027 0.149690
H 11.820159 4.671505 0.243316
H 10.180467 0.792502 0.040792
H 9.039792 4.590921 0.239081
H 6.513760 4.444311 0.231417
H 4.716370 2.552502 0.132660
C 82.608802 0.001736 -0.000792
C 81.874369 1.358273 -0.248868
C 82.461515 2.583314 -0.472894
C 81.409596 3.524898 -0.645090
C 80.221144 2.838152 -0.519506
N 80.512837 1.522474 -0.278897
C 78.789789 3.447213 -0.630897
C 77.667227 2.713560 -0.496726
C 76.382241 3.356255 -0.614270
C 75.444957 2.429121 -0.444715
N 77.445396 1.391444 -0.254931
C 76.096018 1.150690 -0.210909
C 75.399256 0.000425 -0.000551
C 76.173921 -1.371013 0.250261
C 75.610343 -2.612675 0.477343
C 76.668367 -3.542694 0.647424
C 77.846278 -2.843397 0.519526
N 77.540930 -1.526285 0.278649
C 79.279075 -3.458607 0.632028
C 80.396596 -2.720225 0.496991
C 81.700365 -3.335592 0.609522
C 82.616848 -2.385975 0.435858
C 81.922793 -1.139290 0.207874
N 80.586711 -1.396604 0.254934
H 83.691519 -0.006358 0.000685
H 83.522191 2.778021 -0.508500
H 81.508861 4.581892 -0.838390
H 79.832811 0.777756 -0.142709
H 78.711746 4.510481 -0.825355
H 76.217280 4.401281 -0.805391
H 74.386918 2.613713 -0.478478
H 74.554969 -2.834084 0.517840
H 76.579940 -4.600705 0.840918
H 78.219633 -0.779792 0.142128
H 79.360307 -4.521332 0.826374
H 81.886339 -4.376918 0.799952
H 83.683729 -2.513438 0.459164
C 16.854030 -0.002067 0.002677
C 18.219018 -0.015743 -0.011139
C 19.982993 -0.003557 -0.017982
C 20.640511 -0.006890 -0.028123
C 22.220144 0.007596 -0.036305
C 23.330458 0.007535 -0.027019
C 24.913677 0.031546 -0.002478
C 26.057757 0.035029 0.011121
C 27.400000 0.019878 0.014224
C 28.520707 -0.002067 0.002677
C 38.332413 -0.002067 0.002677
C 39.697401 -0.015743 -0.011139
C 41.461376 -0.003557 -0.017982
C 42.118894 -0.006890 -0.028123
C 43.698527 0.007596 -0.036305
C 44.808841 0.007535 -0.027019
C 46.392060 0.031546 -0.002478
C 47.536140 0.035029 0.011121
C 48.878383 0.019878 0.014224
C 49.999090 -0.002067 0.002677
C 59.810796 -0.002067 0.002677
C 61.175784 -0.015743 -0.011139
C 62.939759 -0.003557 -0.017982
C 63.597276 -0.006890 -0.028123
C 65.176910 0.007596 -0.036305
C 66.287224 0.007535 -0.027019
C 67.870443 0.031546 -0.002478
C 69.014523 0.035029 0.011121
C 70.356766 0.019878 0.014224
C 71.477473 -0.002067 0.002677
C 29.806162 0.000425 -0.000549
C 30.586202 1.387960 -0.017874
C 30.034097 2.654061 -0.033698
C 31.102714 3.586685 -0.045330
C 32.273622 2.863057 -0.036270
N 31.954929 1.530030 -0.019628
C 33.705994 3.477724 -0.043917
C 34.831619 2.739672 -0.034709
C 36.111917 3.403069 -0.042963
C 37.056367 2.468097 -0.031301
N 35.061609 1.399181 -0.018002
C 36.413341 1.165627 -0.015077
C 37.115554 0.000425 -0.000549
C 36.335514 -1.387111 0.016732
C 36.887619 -2.653214 0.032469
C 35.819002 -3.585837 0.044105
C 34.648095 -2.862208 0.035133
N 34.966788 -1.529180 0.018530
C 33.215723 -3.476875 0.042825
C 32.090098 -2.738822 0.033623
C 30.809800 -3.402219 0.041921
C 29.865349 -2.467247 0.030258
C 30.508376 -1.164777 0.013989
N 31.860108 -1.398331 0.016890
H 28.980895 2.889283 -0.036652
H 31.026085 4.663185 -0.058777
H 32.619742 0.759421 -0.010001
H 33.782882 4.559063 -0.057391
H 36.269063 4.466614 -0.056215
H 38.113261 2.662300 -0.033710
H 37.940822 -2.888437 0.035363
H 35.895632 -4.662338 0.057498
H 34.301974 -0.758570 0.008946
H 33.138834 -4.558213 0.056327
H 30.652654 -4.465763 0.055202
H 28.808456 -2.661450 0.032695
C 51.284545 0.000425 -0.000549
C 52.064585 1.387960 -0.017874
C 51.512480 2.654061 -0.033698
C 52.581097 3.586685 -0.045330
C 53.752005 2.863057 -0.036270
N 53.433312 1.530030 -0.019628
C 55.184377 3.477724 -0.043917
C 56.310002 2.739672 -0.034709
C 57.590299 3.403069 -0.042963
C 58.534750 2.468097 -0.031301
N 56.539991 1.399181 -0.018002
C 57.891723 1.165627 -0.015077
C 58.593937 0.000425 -0.000549
C 57.813897 -1.387111 0.016732
C 58.366002 -2.653214 0.032469
C 57.297385 -3.585837 0.044105
C 56.126477 -2.862208 0.035133
N 56.445170 -1.529180 0.018530
C 54.694105 -3.476875 0.042825
C 53.568481 -2.738822 0.033623
C 52.288183 -3.402219 0.041921
C 51.343732 -2.467247 0.030258
C 51.986759 -1.164777 0.013989
N 53.338491 -1.398331 0.016890
H 50.459277 2.889283 -0.036652
H 52.504467 4.663185 -0.058777
H 54.098125 0.759421 -0.010001
H 55.261265 4.559063 -0.057391
H 57.747446 4.466614 -0.056215
H 59.591644 2.662300 -0.033710
H 59.419205 -2.888437 0.035363
H 57.374014 -4.662338 0.057498
H 55.780357 -0.758570 0.008946
H 54.617217 -4.558213 0.056327
H 52.131037 -4.465763 0.055202
H 50.286838 -2.661450 0.032695
