120

C 13.563384 -0.012921 0.107575
C 14.291603 1.363043 0.186327
C 13.684295 2.584704 0.364695
C 14.706914 3.567538 0.317624
C 15.904384 2.911781 0.102547
N 15.643640 1.564514 0.071182
C 17.327225 3.580583 -0.100403
C 17.366623 5.046558 -0.304132
C 17.670972 5.897867 0.765129
C 17.699905 7.281571 0.578103
C 17.423404 7.821396 -0.682552
C 17.454198 9.241151 -0.878441
N 17.477923 10.390635 -1.042728
C 17.116709 6.973988 -1.753025
C 17.088484 5.590016 -1.562338
C 18.457499 2.824099 -0.123886
C 19.760592 3.404993 -0.375973
C 20.664018 2.432374 -0.359813
N 18.655616 1.478603 0.043894
C 19.987578 1.179653 -0.085321
C 20.658944 0.000000 -0.000000
C 19.885798 -1.347996 0.326924
C 20.439497 -2.499422 0.854128
C 19.412183 -3.472579 0.926739
C 18.258490 -2.886489 0.451177
N 18.543932 -1.577904 0.144704
C 16.845409 -3.589336 0.296659
C 16.813029 -5.065114 0.209917
C 16.470670 -5.835725 1.328201
C 16.449270 -7.228900 1.242846
C 16.774545 -7.860268 0.037203
C 16.750880 -9.290570 -0.053014
N 16.732686 -10.449559 -0.126734
C 17.121199 -7.093688 -1.081429
C 17.139547 -5.700652 -0.993238
C 15.718064 -2.836835 0.212302
C 14.394667 -3.415472 0.056813
C 13.507338 -2.425290 0.019401
C 14.229637 -1.182533 0.132608
N 15.552034 -1.480251 0.242075
H 12.484537 -0.011476 0.006556
H 12.626335 2.750632 0.497746
H 14.578640 4.635655 0.406478
H 16.343040 0.831904 -0.019240
H 17.889490 5.464040 1.739706
H 17.939723 7.923589 1.421225
H 16.900979 7.374121 -2.739364
H 16.853093 4.920850 -2.386763
H 19.973523 4.442561 -0.561663
H 21.716543 2.574950 -0.523673
H 21.472609 -2.633502 1.136928
H 19.510449 -4.490131 1.268961
H 17.856028 -0.882302 -0.134846
H 16.216197 -5.331989 2.258513
H 16.177885 -7.807764 2.121377
H 17.379412 -7.564906 -2.026231
H 17.403165 -5.092279 -1.857577
H 14.163131 -4.462328 -0.016061
H 12.442050 -2.525188 -0.087820
C 31.168545 0.042285 0.099756
C 30.440326 -1.257695 0.557503
C 31.047634 -2.381777 1.068098
C 30.025015 -3.339028 1.295801
C 28.827545 -2.768786 0.907086
N 29.088289 -1.483216 0.502833
C 27.404704 -3.467643 0.897838
C 27.365306 -4.932536 1.109207
C 27.060957 -5.453440 2.372815
C 27.032024 -6.834660 2.577385
C 27.308525 -7.703324 1.516215
C 27.277731 -9.121638 1.722282
N 27.254006 -10.271534 1.883656
C 27.615220 -7.186504 0.252526
C 27.643445 -5.804011 0.051398
C 26.274430 -2.747431 0.665210
C 24.971337 -3.375481 0.584346
C 24.067911 -2.436627 0.329784
N 26.076313 -1.408261 0.452761
C 24.744351 -1.156951 0.245612
C 24.072985 -0.000000 0.000000
C 24.846131 1.385764 -0.060259
C 24.292432 2.638305 0.126471
C 25.319746 3.593351 -0.074009
C 26.473439 2.898253 -0.368116
N 26.187997 1.556030 -0.299155
C 27.886520 3.530550 -0.711730
C 27.918900 4.924199 -1.204869
C 28.261259 5.975038 -0.344558
C 28.282659 7.289719 -0.813427
C 27.957385 7.561461 -2.146977
C 27.981049 8.910457 -2.630826
N 27.999243 10.003394 -3.023486
C 27.610730 6.514397 -3.008743
C 27.592382 5.200638 -2.537188
C 29.013865 2.784219 -0.583808
C 30.337262 3.296920 -0.893863
C 31.224591 2.335293 -0.654840
C 30.502292 1.172848 -0.200984
N 29.179895 1.489256 -0.178496
H 32.247392 0.012845 0.003111
H 32.105594 -2.504232 1.241993
H 30.153289 -4.340464 1.677766
H 28.388889 -0.804528 0.212528
H 26.842439 -4.766045 3.188593
H 26.792206 -7.217300 3.565629
H 27.830950 -7.844796 -0.583909
H 27.878836 -5.390097 -0.926423
H 24.758407 -4.423806 0.694080
H 23.015386 -2.619098 0.211961
H 23.259320 2.845642 0.360917
H 25.221480 4.665915 -0.027810
H 26.875901 0.810156 -0.374549
H 28.515732 5.749452 0.689048
H 28.554044 8.089776 -0.130192
H 27.352517 6.704720 -4.047239
H 27.328764 4.376174 -3.198594
H 30.568798 4.282368 -1.254572
H 32.289879 2.401488 -0.785586
C 21.755006 0.000000 0.000000
C 22.976923 0.000000 0.000000
