 xtb: 6.5.1 (b24c23e)
          07272213593D

120133  0     0  0            999 V2000
   13.5161    0.1328    0.0315 C   0  0  0  0  0  0  0  0  0  0  0  0
   14.1335    1.3752   -0.0264 C   0  0  0  0  0  0  0  0  0  0  0  0
   13.4941    2.6464   -0.0485 C   0  0  0  0  0  0  0  0  0  0  0  0
   14.4661    3.6053   -0.0929 C   0  0  0  0  0  0  0  0  0  0  0  0
   15.7310    2.9499   -0.1077 C   0  0  0  0  0  0  0  0  0  0  0  0
   15.4794    1.6084   -0.0639 N   0  0  0  0  0  0  0  0  0  0  0  0
   16.9986    3.5412   -0.1120 C   0  0  0  0  0  0  0  0  0  0  0  0
   17.0341    5.0238   -0.1581 C   0  0  0  0  0  0  0  0  0  0  0  0
   17.5872    5.7557    0.8949 C   0  0  0  0  0  0  0  0  0  0  0  0
   17.6196    7.1380    0.8512 C   0  0  0  0  0  0  0  0  0  0  0  0
   17.0999    7.8170   -0.2549 C   0  0  0  0  0  0  0  0  0  0  0  0
   17.1357    9.2392   -0.3049 C   0  0  0  0  0  0  0  0  0  0  0  0
   17.1619   10.3891   -0.3417 N   0  0  0  0  0  0  0  0  0  0  0  0
   16.5451    7.0889   -1.3115 C   0  0  0  0  0  0  0  0  0  0  0  0
   16.5114    5.7069   -1.2585 C   0  0  0  0  0  0  0  0  0  0  0  0
   18.2141    2.8529   -0.0780 C   0  0  0  0  0  0  0  0  0  0  0  0
   19.5092    3.5078   -0.0973 C   0  0  0  0  0  0  0  0  0  0  0  0
   20.4325    2.5253   -0.0723 C   0  0  0  0  0  0  0  0  0  0  0  0
   18.3745    1.5010   -0.0570 N   0  0  0  0  0  0  0  0  0  0  0  0
   19.7048    1.2724   -0.0576 C   0  0  0  0  0  0  0  0  0  0  0  0
   20.3465    0.0167   -0.0596 C   0  0  0  0  0  0  0  0  0  0  0  0
   19.6980   -1.2334   -0.0493 C   0  0  0  0  0  0  0  0  0  0  0  0
   20.3228   -2.5077   -0.0560 C   0  0  0  0  0  0  0  0  0  0  0  0
   19.3452   -3.4617   -0.0083 C   0  0  0  0  0  0  0  0  0  0  0  0
   18.0875   -2.7983    0.0118 C   0  0  0  0  0  0  0  0  0  0  0  0
   18.3520   -1.4544   -0.0154 N   0  0  0  0  0  0  0  0  0  0  0  0
   16.8226   -3.3914    0.0862 C   0  0  0  0  0  0  0  0  0  0  0  0
   16.7845   -4.8733    0.1407 C   0  0  0  0  0  0  0  0  0  0  0  0
   16.2656   -5.5225    1.2634 C   0  0  0  0  0  0  0  0  0  0  0  0
   16.2306   -6.9039    1.3253 C   0  0  0  0  0  0  0  0  0  0  0  0
   16.7108   -7.6655    0.2557 C   0  0  0  0  0  0  0  0  0  0  0  0
   16.6740   -9.0874    0.3149 C   0  0  0  0  0  0  0  0  0  0  0  0
   16.6443  -10.2367    0.3644 N   0  0  0  0  0  0  0  0  0  0  0  0
   17.2268   -7.0205   -0.8721 C   0  0  0  0  0  0  0  0  0  0  0  0
   17.2649   -5.6385   -0.9242 C   0  0  0  0  0  0  0  0  0  0  0  0
   15.6065   -2.7021    0.1115 C   0  0  0  0  0  0  0  0  0  0  0  0
   14.3027   -3.3482    0.1324 C   0  0  0  0  0  0  0  0  0  0  0  0
   13.3865   -2.3599    0.1125 C   0  0  0  0  0  0  0  0  0  0  0  0
   14.1290   -1.1122    0.0725 C   0  0  0  0  0  0  0  0  0  0  0  0
   15.4625   -1.3568    0.0711 N   0  0  0  0  0  0  0  0  0  0  0  0
   12.4311    0.1461    0.0463 H   0  0  0  0  0  0  0  0  0  0  0  0
   12.4263    2.7943   -0.0252 H   0  0  0  0  0  0  0  0  0  0  0  0
   14.3262    4.6741   -0.1041 H   0  0  0  0  0  0  0  0  0  0  0  0
   16.1951    0.8897   -0.0508 H   0  0  0  0  0  0  0  0  0  0  0  0
   17.9805    5.2333    1.7595 H   0  0  0  0  0  0  0  0  0  0  0  0
   18.0464    7.6996    1.6740 H   0  0  0  0  0  0  0  0  0  0  0  0
   16.1442    7.6114   -2.1721 H   0  0  0  0  0  0  0  0  0  0  0  0
   16.0919    5.1453   -2.0856 H   0  0  0  0  0  0  0  0  0  0  0  0
   19.6709    4.5728   -0.1339 H   0  0  0  0  0  0  0  0  0  0  0  0
   21.5055    2.6175   -0.0635 H   0  0  0  0  0  0  0  0  0  0  0  0
   21.3866   -2.6693   -0.0942 H   0  0  0  0  0  0  0  0  0  0  0  0
   19.4815   -4.5304    0.0172 H   0  0  0  0  0  0  0  0  0  0  0  0
   17.6413   -0.7303    0.0004 H   0  0  0  0  0  0  0  0  0  0  0  0
   15.9023   -4.9349    2.0989 H   0  0  0  0  0  0  0  0  0  0  0  0
   15.8329   -7.4005    2.2026 H   0  0  0  0  0  0  0  0  0  0  0  0
   17.5950   -7.6077   -1.7052 H   0  0  0  0  0  0  0  0  0  0  0  0
   17.6542   -5.1423   -1.8061 H   0  0  0  0  0  0  0  0  0  0  0  0
   14.1370   -4.4134    0.1455 H   0  0  0  0  0  0  0  0  0  0  0  0
   12.3105   -2.4356    0.1158 H   0  0  0  0  0  0  0  0  0  0  0  0
   31.2150   -0.1194    0.0639 C   0  0  0  0  0  0  0  0  0  0  0  0
   30.5981   -1.3296    0.3519 C   0  0  0  0  0  0  0  0  0  0  0  0
   31.2383   -2.5568    0.6827 C   0  0  0  0  0  0  0  0  0  0  0  0
   30.2668   -3.4907    0.9075 C   0  0  0  0  0  0  0  0  0  0  0  0
   29.0015   -2.8656    0.7128 C   0  0  0  0  0  0  0  0  0  0  0  0
   29.2523   -1.5646    0.3819 N   0  0  0  0  0  0  0  0  0  0  0  0
   27.7340   -3.4345    0.8749 C   0  0  0  0  0  0  0  0  0  0  0  0
   27.6978   -4.8711    1.2440 C   0  0  0  0  0  0  0  0  0  0  0  0
   27.1408   -5.2803    2.4576 C   0  0  0  0  0  0  0  0  0  0  0  0
   27.1064   -6.6199    2.8009 C   0  0  0  0  0  0  0  0  0  0  0  0
   27.6284   -7.5806    1.9295 C   0  0  0  0  0  0  0  0  0  0  0  0
   27.5913   -8.9605    2.2774 C   0  0  0  0  0  0  0  0  0  0  0  0
   27.5625  -10.0759    2.5591 N   0  0  0  0  0  0  0  0  0  0  0  0
   28.1875   -7.1761    0.7138 C   0  0  0  0  0  0  0  0  0  0  0  0
   28.2230   -5.8342    0.3794 C   0  0  0  0  0  0  0  0  0  0  0  0
   26.5187   -2.7632    0.7173 C   0  0  0  0  0  0  0  0  0  0  0  0
   25.2233   -3.3968    0.8821 C   0  0  0  0  0  0  0  0  0  0  0  0
   24.3004   -2.4455    0.6333 C   0  0  0  0  0  0  0  0  0  0  0  0
   26.3588   -1.4589    0.3610 N   0  0  0  0  0  0  0  0  0  0  0  0
   25.0285   -1.2386    0.2978 C   0  0  0  0  0  0  0  0  0  0  0  0
   24.3870   -0.0332   -0.0544 C   0  0  0  0  0  0  0  0  0  0  0  0
   25.0352    1.1701   -0.3939 C   0  0  0  0  0  0  0  0  0  0  0  0
   24.4096    2.3914   -0.7567 C   0  0  0  0  0  0  0  0  0  0  0  0
   25.3866    3.3218   -0.9754 C   0  0  0  0  0  0  0  0  0  0  0  0
   26.6447    2.6916   -0.7694 C   0  0  0  0  0  0  0  0  0  0  0  0
   26.3810    1.3930   -0.4215 N   0  0  0  0  0  0  0  0  0  0  0  0
   27.9094    3.2830   -0.8600 C   0  0  0  0  0  0  0  0  0  0  0  0
   27.9475    4.7220   -1.2176 C   0  0  0  0  0  0  0  0  0  0  0  0
   28.4694    5.6560   -0.3194 C   0  0  0  0  0  0  0  0  0  0  0  0
   28.5053    7.0006   -0.6420 C   0  0  0  0  0  0  0  0  0  0  0  0
   28.0227    7.4373   -1.8794 C   0  0  0  0  0  0  0  0  0  0  0  0
   28.0611    8.8197   -2.2170 C   0  0  0  0  0  0  0  0  0  0  0  0
   28.0931    9.9367   -2.4917 N   0  0  0  0  0  0  0  0  0  0  0  0
   27.5031    6.5061   -2.7834 C   0  0  0  0  0  0  0  0  0  0  0  0
   27.4646    5.1636   -2.4514 C   0  0  0  0  0  0  0  0  0  0  0  0
   29.1253    2.6279   -0.6427 C   0  0  0  0  0  0  0  0  0  0  0  0
   30.4294    3.2545   -0.7995 C   0  0  0  0  0  0  0  0  0  0  0  0
   31.3452    2.2989   -0.5451 C   0  0  0  0  0  0  0  0  0  0  0  0
   30.6022    1.0887   -0.2401 C   0  0  0  0  0  0  0  0  0  0  0  0
   29.2689    1.3237   -0.3099 N   0  0  0  0  0  0  0  0  0  0  0  0
   32.3000   -0.1280    0.0814 H   0  0  0  0  0  0  0  0  0  0  0  0
   32.3062   -2.6921    0.7448 H   0  0  0  0  0  0  0  0  0  0  0  0
   30.4075   -4.5203    1.1937 H   0  0  0  0  0  0  0  0  0  0  0  0
   28.5359   -0.8709    0.1958 H   0  0  0  0  0  0  0  0  0  0  0  0
   26.7460   -4.5373    3.1413 H   0  0  0  0  0  0  0  0  0  0  0  0
   26.6762   -6.9296    3.7461 H   0  0  0  0  0  0  0  0  0  0  0  0
   28.5904   -7.9181    0.0343 H   0  0  0  0  0  0  0  0  0  0  0  0
   28.6455   -5.5258   -0.5702 H   0  0  0  0  0  0  0  0  0  0  0  0
   25.0608   -4.4297    1.1433 H   0  0  0  0  0  0  0  0  0  0  0  0
   23.2274   -2.5310    0.6684 H   0  0  0  0  0  0  0  0  0  0  0  0
   23.3458    2.5347   -0.8402 H   0  0  0  0  0  0  0  0  0  0  0  0
   25.2495    4.3551   -1.2491 H   0  0  0  0  0  0  0  0  0  0  0  0
   27.0922    0.7029   -0.2036 H   0  0  0  0  0  0  0  0  0  0  0  0
   28.8344    5.3220    0.6453 H   0  0  0  0  0  0  0  0  0  0  0  0
   28.9056    7.7199    0.0627 H   0  0  0  0  0  0  0  0  0  0  0  0
   27.1327    6.8405   -3.7454 H   0  0  0  0  0  0  0  0  0  0  0  0
   27.0732    4.4434   -3.1610 H   0  0  0  0  0  0  0  0  0  0  0  0
   30.5958    4.2819   -1.0806 H   0  0  0  0  0  0  0  0  0  0  0  0
   32.4213    2.3724   -0.5615 H   0  0  0  0  0  0  0  0  0  0  0  0
   21.7577   -0.0021   -0.0681 C   0  0  0  0  0  0  0  0  0  0  0  0
   22.9757   -0.0174   -0.0669 C   0  0  0  0  0  0  0  0  0  0  0  0
  1  2  4  0  0  0  0
  2  3  4  0  0  0  0
  3  4  2  0  0  0  0
  4  5  4  0  0  0  0
  2  6  4  0  0  0  0
  5  6  4  0  0  0  0
  5  7  4  0  0  0  0
  7  8  1  0  0  0  0
  8  9  4  0  0  0  0
  9 10  4  0  0  0  0
 10 11  4  0  0  0  0
 11 12  1  0  0  0  0
 12 13  3  0  0  0  0
 11 14  4  0  0  0  0
  8 15  4  0  0  0  0
 14 15  4  0  0  0  0
  7 16  4  0  0  0  0
 16 17  1  0  0  0  0
 17 18  2  0  0  0  0
 16 19  4  0  0  0  0
 18 20  1  0  0  0  0
 19 20  4  0  0  0  0
 20 21  4  0  0  0  0
 21 22  4  0  0  0  0
 22 23  4  0  0  0  0
 23 24  2  0  0  0  0
 24 25  4  0  0  0  0
 22 26  4  0  0  0  0
 25 26  4  0  0  0  0
 25 27  4  0  0  0  0
 27 28  1  0  0  0  0
 28 29  4  0  0  0  0
 29 30  4  0  0  0  0
 30 31  4  0  0  0  0
 31 32  1  0  0  0  0
 32 33  3  0  0  0  0
 31 34  4  0  0  0  0
 28 35  4  0  0  0  0
 34 35  4  0  0  0  0
 27 36  4  0  0  0  0
 36 37  1  0  0  0  0
 37 38  2  0  0  0  0
  1 39  4  0  0  0  0
 38 39  1  0  0  0  0
 36 40  4  0  0  0  0
 39 40  4  0  0  0  0
  1 41  1  0  0  0  0
  3 42  1  0  0  0  0
  4 43  1  0  0  0  0
  6 44  1  0  0  0  0
  9 45  1  0  0  0  0
 10 46  1  0  0  0  0
 14 47  1  0  0  0  0
 15 48  1  0  0  0  0
 17 49  1  0  0  0  0
 18 50  1  0  0  0  0
 23 51  1  0  0  0  0
 24 52  1  0  0  0  0
 26 53  1  0  0  0  0
 29 54  1  0  0  0  0
 30 55  1  0  0  0  0
 34 56  1  0  0  0  0
 35 57  1  0  0  0  0
 37 58  1  0  0  0  0
 38 59  1  0  0  0  0
 60 61  4  0  0  0  0
 61 62  4  0  0  0  0
 62 63  2  0  0  0  0
 63 64  4  0  0  0  0
 61 65  4  0  0  0  0
 64 65  4  0  0  0  0
 64 66  4  0  0  0  0
 66 67  1  0  0  0  0
 67 68  4  0  0  0  0
 68 69  4  0  0  0  0
 69 70  4  0  0  0  0
 70 71  1  0  0  0  0
 71 72  3  0  0  0  0
 70 73  4  0  0  0  0
 67 74  4  0  0  0  0
 73 74  4  0  0  0  0
 66 75  4  0  0  0  0
 75 76  1  0  0  0  0
 76 77  2  0  0  0  0
 75 78  4  0  0  0  0
 77 79  1  0  0  0  0
 78 79  4  0  0  0  0
 79 80  4  0  0  0  0
 80 81  4  0  0  0  0
 81 82  4  0  0  0  0
 82 83  2  0  0  0  0
 83 84  4  0  0  0  0
 81 85  4  0  0  0  0
 84 85  4  0  0  0  0
 84 86  4  0  0  0  0
 86 87  1  0  0  0  0
 87 88  4  0  0  0  0
 88 89  4  0  0  0  0
 89 90  4  0  0  0  0
 90 91  1  0  0  0  0
 91 92  3  0  0  0  0
 90 93  4  0  0  0  0
 87 94  4  0  0  0  0
 93 94  4  0  0  0  0
 86 95  4  0  0  0  0
 95 96  1  0  0  0  0
 96 97  2  0  0  0  0
 60 98  4  0  0  0  0
 97 98  1  0  0  0  0
 95 99  4  0  0  0  0
 98 99  4  0  0  0  0
 60100  1  0  0  0  0
 62101  1  0  0  0  0
 63102  1  0  0  0  0
 65103  1  0  0  0  0
 68104  1  0  0  0  0
 69105  1  0  0  0  0
 73106  1  0  0  0  0
 74107  1  0  0  0  0
 76108  1  0  0  0  0
 77109  1  0  0  0  0
 82110  1  0  0  0  0
 83111  1  0  0  0  0
 85112  1  0  0  0  0
 88113  1  0  0  0  0
 89114  1  0  0  0  0
 93115  1  0  0  0  0
 94116  1  0  0  0  0
 96117  1  0  0  0  0
 97118  1  0  0  0  0
 21119  4  0  0  0  0
 80120  4  0  0  0  0
119120  3  0  0  0  0
M  END
