466

C 79.457013 -0.031655 -0.029173
C 80.182201 -1.410425 0.014010
C 79.564557 -2.636322 0.107638
C 80.586481 -3.619224 0.078782
C 81.794862 -2.959431 -0.031711
N 81.537817 -1.611890 -0.039435
C 83.228584 -3.629514 -0.153437
C 83.280663 -5.115397 -0.300924
C 83.210022 -5.707654 -1.583081
C 83.099853 -4.861734 -2.824870
C 83.248391 -7.106855 -1.702390
C 83.362921 -7.925898 -0.574055
C 83.367072 -9.417320 -0.716462
C 83.416464 -7.335126 0.692826
C 83.381958 -5.939121 0.844502
C 83.451601 -5.342439 2.226095
C 84.354847 -2.864931 -0.150432
C 85.667757 -3.454362 -0.311188
C 86.569236 -2.480394 -0.295436
N 84.544423 -1.512515 -0.024928
C 85.881531 -1.217314 -0.106971
C 86.553207 -0.036254 -0.040239
C 85.781201 1.331688 0.209181
C 86.351608 2.521992 0.618432
C 85.324149 3.493983 0.676748
C 84.149512 2.870285 0.314928
N 84.430454 1.546504 0.064834
C 82.722089 3.561980 0.210230
C 82.664641 5.053119 0.204317
C 82.799814 5.762979 -1.010837
C 82.995998 5.036843 -2.316092
C 82.740343 7.166611 -1.003503
C 82.558903 7.876207 0.188212
C 82.455063 9.370881 0.176688
C 82.414946 7.168155 1.386148
C 82.475528 5.764985 1.411922
C 82.309633 5.042555 2.723304
C 81.602699 2.796759 0.118214
C 80.273366 3.372587 0.013941
C 79.391563 2.379971 -0.044741
C 80.122218 1.137660 0.011842
N 81.446040 1.438372 0.100950
H 78.375955 -0.030823 -0.103961
H 78.501252 -2.804481 0.177445
H 80.455703 -4.689867 0.119635
H 82.243280 -0.878806 -0.074385
H 82.198485 -4.242234 -2.793393
H 83.031571 -5.483457 -3.724349
H 83.983107 -4.225891 -2.937534
H 83.189859 -7.557243 -2.690125
H 82.342463 -9.799949 -0.682790
H 83.825734 -9.718615 -1.664017
H 83.946013 -9.885828 0.086364
H 83.487778 -7.964053 1.576640
H 82.550390 -4.760013 2.440825
H 83.522278 -6.122308 2.992239
H 84.336464 -4.707025 2.329539
H 85.884243 -4.500819 -0.432300
H 87.628265 -2.630730 -0.397131
H 87.394852 2.684159 0.842399
H 85.429410 4.533751 0.948875
H 83.735847 0.837269 -0.157485
H 83.079841 5.739406 -3.152538
H 83.918340 4.448209 -2.296888
H 82.143146 4.383928 -2.526436
H 82.833188 7.706589 -1.942417
H 82.898288 9.797996 1.081789
H 81.404843 9.672554 0.121224
H 82.988508 9.796974 -0.678945
H 82.251059 7.710168 2.314086
H 82.292009 5.746078 3.563130
H 81.366413 4.488355 2.740278
H 83.144235 4.357909 2.901047
H 80.039808 4.421955 -0.009177
H 78.324428 2.479475 -0.123406
C 154.472873 -0.040284 -0.028953
C 153.747685 1.338899 -0.055907
C 154.365329 2.567970 -0.024711
C 153.343405 3.548135 -0.103488
C 152.135024 2.883579 -0.180302
N 152.392069 1.537387 -0.119523
C 150.701302 3.546608 -0.335930
C 150.649223 5.023074 -0.558752
C 150.719864 5.549395 -1.869355
C 150.830033 4.641451 -3.066542
C 150.681495 6.940724 -2.059629
C 150.566965 7.816059 -0.974383
C 150.562815 9.298315 -1.192413
C 150.513422 7.290445 0.320888
C 150.547928 5.903953 0.543325
C 150.478286 5.378267 1.953460
C 149.575039 2.783166 -0.294066
C 148.262130 3.363664 -0.484575
C 147.360651 2.391756 -0.419337
N 149.385463 1.438877 -0.099984
C 148.048356 1.139888 -0.166917
C 147.376679 -0.036254 -0.040239
C 148.148685 -1.389749 0.278389
C 147.578279 -2.557713 0.747612
C 148.605737 -3.525483 0.855258
C 149.780374 -2.920983 0.462203
N 149.499432 -1.611624 0.145147
C 151.207797 -3.617106 0.392799
C 151.265246 -5.106617 0.462686
C 151.130072 -5.877324 -0.714817
C 150.933888 -5.218470 -2.055293
C 151.189544 -7.278769 -0.636148
C 151.370984 -7.926875 0.590094
C 151.474823 -9.420202 0.654557
C 151.514941 -7.158849 1.750493
C 151.454358 -5.756183 1.704913
C 151.620253 -4.968031 2.977880
C 152.327187 -2.857551 0.262007
C 153.656520 -3.437934 0.187137
C 154.538324 -2.449583 0.078078
C 153.807668 -1.206003 0.071443
N 152.483846 -1.501796 0.175721
H 155.553931 -0.044916 -0.103602
H 155.428634 2.739460 0.036459
H 153.474184 4.619471 -0.117108
H 151.686607 0.803474 -0.117167
H 151.731401 4.024352 -3.003618
H 150.898315 5.216651 -3.996460
H 149.946779 4.000703 -3.146742
H 150.740027 7.340324 -3.068979
H 151.587424 9.682162 -1.178233
H 150.104152 9.551059 -2.154057
H 149.983873 9.807024 -0.414438
H 150.442108 7.963482 1.171592
H 151.379496 4.807508 2.197517
H 150.407608 6.196070 2.678974
H 149.593422 4.748933 2.089067
H 148.045643 4.402613 -0.658720
H 146.301621 2.536729 -0.528542
H 146.535034 -2.708287 0.979532
H 148.500477 -4.550076 1.179882
H 150.194039 -0.914607 -0.112934
H 150.850045 -5.962641 -2.854947
H 150.011547 -4.629622 -2.066033
H 151.786740 -4.577092 -2.298552
H 151.096699 -7.865772 -1.546402
H 151.031599 -9.800760 1.580198
H 152.525044 -9.724304 0.614499
H 150.941378 -9.889235 -0.178312
H 151.678827 -7.652995 2.704782
H 151.637877 -5.627958 3.852379
H 152.563474 -4.413685 2.966663
H 150.785652 -4.275235 3.120593
H 153.890078 -4.487120 0.217386
H 155.605458 -2.552958 0.004572
C 89.801132 -0.023817 -0.037797
C 88.548861 -0.042998 -0.042146
C 91.114800 -0.024583 -0.035865
C 92.617934 -0.042998 -0.042146
C 103.014406 -0.023817 -0.037797
C 101.762136 -0.042998 -0.042146
C 104.328074 -0.024583 -0.035865
C 105.831208 -0.042998 -0.042146
C 116.227680 -0.023817 -0.037797
C 114.975410 -0.042998 -0.042146
C 117.541349 -0.024583 -0.035865
C 119.044482 -0.042998 -0.042146
C 129.440955 -0.023817 -0.037797
C 128.188684 -0.042998 -0.042146
C 130.754623 -0.024583 -0.035865
C 132.257757 -0.042998 -0.042146
C 142.654229 -0.023817 -0.037797
C 141.401959 -0.042998 -0.042146
C 143.967897 -0.024583 -0.035865
C 145.471031 -0.042998 -0.042146
C 93.555307 0.021277 0.023239
C 94.343696 -0.763721 1.153249
C 93.816188 -1.261429 2.327543
C 94.851700 -1.964448 2.993183
C 95.983230 -1.863615 2.212694
N 95.681728 -1.074201 1.130348
C 97.382296 -2.555010 2.492903
C 97.389666 -3.787050 3.336376
C 97.129880 -5.048018 2.751016
C 96.847377 -5.176834 1.276692
C 97.149439 -6.201878 3.552580
C 97.412482 -6.125513 4.924221
C 97.473888 -7.370142 5.755524
C 97.679472 -4.877135 5.496157
C 97.661008 -3.704354 4.722329
C 97.960656 -2.382358 5.380102
C 98.514881 -2.056456 1.929134
C 99.806691 -2.683317 2.120749
C 100.715495 -1.984241 1.450636
N 98.721025 -0.973212 1.119290
C 100.048745 -0.876697 0.795096
C 100.715644 0.021277 0.023239
C 99.927204 1.209842 -0.668445
C 100.451702 2.424315 -1.061817
C 99.416550 3.142476 -1.712022
C 98.287295 2.351191 -1.683716
N 98.590801 1.207350 -0.987642
C 96.888322 2.684323 -2.352578
C 96.882533 3.631750 -3.506653
C 97.152061 3.160317 -4.812340
C 97.434205 1.702784 -5.071259
C 97.155266 4.063560 -5.888307
C 96.885207 5.422396 -5.692747
C 96.925240 6.377146 -6.847078
C 96.632749 5.886049 -4.397345
C 96.624051 5.007590 -3.300790
C 96.337622 5.547603 -1.923823
C 95.756280 2.079916 -1.902876
C 94.464564 2.322689 -2.510734
C 93.556252 1.598634 -1.866897
C 94.222937 0.857403 -0.814797
N 95.551233 1.184073 -0.889616
H 92.794894 -1.154781 2.659479
H 94.776074 -2.502629 3.926101
H 96.351526 -0.748974 0.438776
H 95.956557 -4.605313 1.001691
H 97.703541 -4.833476 0.689522
H 96.658772 -6.218461 0.998594
H 96.960606 -7.169460 3.094438
H 97.145685 -7.171414 6.780857
H 96.816036 -8.144936 5.349113
H 98.498272 -7.752888 5.780400
H 97.908177 -4.809752 6.556814
H 97.162156 -1.659410 5.186579
H 98.036100 -2.490039 6.468206
H 98.914887 -1.982921 5.023135
H 100.003232 -3.566541 2.702560
H 101.763915 -2.217961 1.413470
H 101.471710 2.750668 -0.922741
H 99.492079 4.117925 -2.168875
H 97.922993 0.488400 -0.723514
H 97.606115 1.515649 -6.135922
H 96.582642 1.085732 -4.769791
H 98.333509 1.382133 -4.537642
H 97.368593 3.695994 -6.889157
H 96.596658 5.887862 -7.770134
H 97.943513 6.751717 -6.986530
H 96.256764 7.227450 -6.675886
H 96.438455 6.943087 -4.233096
H 97.175712 5.351836 -1.246800
H 96.190600 6.634095 -1.946954
H 95.421849 5.106920 -1.518708
H 94.268382 2.975297 -3.342794
H 92.508092 1.581467 -2.102536
C 106.768582 0.021277 0.023239
C 107.556970 -0.763721 1.153249
C 107.029462 -1.261429 2.327543
C 108.064975 -1.964448 2.993183
C 109.196505 -1.863615 2.212694
N 108.895003 -1.074201 1.130348
C 110.595570 -2.555010 2.492903
C 110.602940 -3.787050 3.336376
C 110.343154 -5.048018 2.751016
C 110.060652 -5.176834 1.276692
C 110.362713 -6.201878 3.552580
C 110.625756 -6.125513 4.924221
C 110.687162 -7.370142 5.755524
C 110.892746 -4.877135 5.496157
C 110.874282 -3.704354 4.722329
C 111.173930 -2.382358 5.380102
C 111.728155 -2.056456 1.929134
C 113.019965 -2.683317 2.120749
C 113.928770 -1.984241 1.450636
N 111.934300 -0.973212 1.119290
C 113.262019 -0.876697 0.795096
C 113.928918 0.021277 0.023239
C 113.140479 1.209842 -0.668445
C 113.664976 2.424315 -1.061817
C 112.629824 3.142476 -1.712022
C 111.500570 2.351191 -1.683716
N 111.804075 1.207350 -0.987642
C 110.101596 2.684323 -2.352578
C 110.095807 3.631750 -3.506653
C 110.365335 3.160317 -4.812340
C 110.647479 1.702784 -5.071259
C 110.368540 4.063560 -5.888307
C 110.098481 5.422396 -5.692747
C 110.138514 6.377146 -6.847078
C 109.846023 5.886049 -4.397345
C 109.837325 5.007590 -3.300790
C 109.550896 5.547603 -1.923823
C 108.969555 2.079916 -1.902876
C 107.677839 2.322689 -2.510734
C 106.769526 1.598634 -1.866897
C 107.436211 0.857403 -0.814797
N 108.764507 1.184073 -0.889616
H 106.008169 -1.154781 2.659479
H 107.989348 -2.502629 3.926101
H 109.564801 -0.748974 0.438776
H 109.169831 -4.605313 1.001691
H 110.916816 -4.833476 0.689522
H 109.872046 -6.218461 0.998594
H 110.173880 -7.169460 3.094438
H 110.358960 -7.171414 6.780857
H 110.029311 -8.144936 5.349113
H 111.711547 -7.752888 5.780400
H 111.121451 -4.809752 6.556814
H 110.375430 -1.659410 5.186579
H 111.249375 -2.490039 6.468206
H 112.128161 -1.982921 5.023135
H 113.216506 -3.566541 2.702560
H 114.977189 -2.217961 1.413470
H 114.684984 2.750668 -0.922741
H 112.705353 4.117925 -2.168875
H 111.136268 0.488400 -0.723514
H 110.819389 1.515649 -6.135922
H 109.795917 1.085732 -4.769791
H 111.546783 1.382133 -4.537642
H 110.581867 3.695994 -6.889157
H 109.809932 5.887862 -7.770134
H 111.156787 6.751717 -6.986530
H 109.470038 7.227450 -6.675886
H 109.651729 6.943087 -4.233096
H 110.388986 5.351836 -1.246800
H 109.403874 6.634095 -1.946954
H 108.635124 5.106920 -1.518708
H 107.481657 2.975297 -3.342794
H 105.721366 1.581467 -2.102536
C 119.981856 0.021277 0.023239
C 120.770244 -0.763721 1.153249
C 120.242737 -1.261429 2.327543
C 121.278249 -1.964448 2.993183
C 122.409779 -1.863615 2.212694
N 122.108277 -1.074201 1.130348
C 123.808845 -2.555010 2.492903
C 123.816215 -3.787050 3.336376
C 123.556428 -5.048018 2.751016
C 123.273926 -5.176834 1.276692
C 123.575988 -6.201878 3.552580
C 123.839031 -6.125513 4.924221
C 123.900437 -7.370142 5.755524
C 124.106021 -4.877135 5.496157
C 124.087556 -3.704354 4.722329
C 124.387205 -2.382358 5.380102
C 124.941429 -2.056456 1.929134
C 126.233239 -2.683317 2.120749
C 127.142044 -1.984241 1.450636
N 125.147574 -0.973212 1.119290
C 126.475293 -0.876697 0.795096
C 127.142193 0.021277 0.023239
C 126.353753 1.209842 -0.668445
C 126.878251 2.424315 -1.061817
C 125.843099 3.142476 -1.712022
C 124.713844 2.351191 -1.683716
N 125.017349 1.207350 -0.987642
C 123.314871 2.684323 -2.352578
C 123.309081 3.631750 -3.506653
C 123.578609 3.160317 -4.812340
C 123.860754 1.702784 -5.071259
C 123.581815 4.063560 -5.888307
C 123.311755 5.422396 -5.692747
C 123.351789 6.377146 -6.847078
C 123.059297 5.886049 -4.397345
C 123.050599 5.007590 -3.300790
C 122.764170 5.547603 -1.923823
C 122.182829 2.079916 -1.902876
C 120.891113 2.322689 -2.510734
C 119.982800 1.598634 -1.866897
C 120.649486 0.857403 -0.814797
N 121.977782 1.184073 -0.889616
H 119.221443 -1.154781 2.659479
H 121.202623 -2.502629 3.926101
H 122.778075 -0.748974 0.438776
H 122.383105 -4.605313 1.001691
H 124.130090 -4.833476 0.689522
H 123.085321 -6.218461 0.998594
H 123.387154 -7.169460 3.094438
H 123.572234 -7.171414 6.780857
H 123.242585 -8.144936 5.349113
H 124.924821 -7.752888 5.780400
H 124.334726 -4.809752 6.556814
H 123.588704 -1.659410 5.186579
H 124.462649 -2.490039 6.468206
H 125.341436 -1.982921 5.023135
H 126.429780 -3.566541 2.702560
H 128.190464 -2.217961 1.413470
H 127.898259 2.750668 -0.922741
H 125.918627 4.117925 -2.168875
H 124.349542 0.488400 -0.723514
H 124.032663 1.515649 -6.135922
H 123.009191 1.085732 -4.769791
H 124.760058 1.382133 -4.537642
H 123.795142 3.695994 -6.889157
H 123.023207 5.887862 -7.770134
H 124.370062 6.751717 -6.986530
H 122.683312 7.227450 -6.675886
H 122.865004 6.943087 -4.233096
H 123.602261 5.351836 -1.246800
H 122.617148 6.634095 -1.946954
H 121.848398 5.106920 -1.518708
H 120.694931 2.975297 -3.342794
H 118.934641 1.581467 -2.102536
C 133.195130 0.021277 0.023239
C 133.983519 -0.763721 1.153249
C 133.456011 -1.261429 2.327543
C 134.491524 -1.964448 2.993183
C 135.623053 -1.863615 2.212694
N 135.321551 -1.074201 1.130348
C 137.022119 -2.555010 2.492903
C 137.029489 -3.787050 3.336376
C 136.769703 -5.048018 2.751016
C 136.487200 -5.176834 1.276692
C 136.789262 -6.201878 3.552580
C 137.052305 -6.125513 4.924221
C 137.113711 -7.370142 5.755524
C 137.319295 -4.877135 5.496157
C 137.300831 -3.704354 4.722329
C 137.600479 -2.382358 5.380102
C 138.154704 -2.056456 1.929134
C 139.446514 -2.683317 2.120749
C 140.355319 -1.984241 1.450636
N 138.360848 -0.973212 1.119290
C 139.688568 -0.876697 0.795096
C 140.355467 0.021277 0.023239
C 139.567027 1.209842 -0.668445
C 140.091525 2.424315 -1.061817
C 139.056373 3.142476 -1.712022
C 137.927119 2.351191 -1.683716
N 138.230624 1.207350 -0.987642
C 136.528145 2.684323 -2.352578
C 136.522356 3.631750 -3.506653
C 136.791884 3.160317 -4.812340
C 137.074028 1.702784 -5.071259
C 136.795089 4.063560 -5.888307
C 136.525030 5.422396 -5.692747
C 136.565063 6.377146 -6.847078
C 136.272572 5.886049 -4.397345
C 136.263874 5.007590 -3.300790
C 135.977445 5.547603 -1.923823
C 135.396103 2.079916 -1.902876
C 134.104387 2.322689 -2.510734
C 133.196075 1.598634 -1.866897
C 133.862760 0.857403 -0.814797
N 135.191056 1.184073 -0.889616
H 132.434718 -1.154781 2.659479
H 134.415897 -2.502629 3.926101
H 135.991349 -0.748974 0.438776
H 135.596380 -4.605313 1.001691
H 137.343365 -4.833476 0.689522
H 136.298595 -6.218461 0.998594
H 136.600429 -7.169460 3.094438
H 136.785508 -7.171414 6.780857
H 136.455859 -8.144936 5.349113
H 138.138095 -7.752888 5.780400
H 137.548000 -4.809752 6.556814
H 136.801979 -1.659410 5.186579
H 137.675924 -2.490039 6.468206
H 138.554710 -1.982921 5.023135
H 139.643055 -3.566541 2.702560
H 141.403738 -2.217961 1.413470
H 141.111533 2.750668 -0.922741
H 139.131902 4.117925 -2.168875
H 137.562816 0.488400 -0.723514
H 137.245938 1.515649 -6.135922
H 136.222465 1.085732 -4.769791
H 137.973332 1.382133 -4.537642
H 137.008416 3.695994 -6.889157
H 136.236481 5.887862 -7.770134
H 137.583336 6.751717 -6.986530
H 135.896587 7.227450 -6.675886
H 136.078278 6.943087 -4.233096
H 136.815535 5.351836 -1.246800
H 135.830423 6.634095 -1.946954
H 135.061672 5.106920 -1.518708
H 133.908205 2.975297 -3.342794
H 132.147915 1.581467 -2.102536
