370

C 61.957053 -0.036404 -0.139987
C 62.684437 -0.233176 1.229798
C 62.083158 -0.585843 2.418110
C 63.103472 -0.620423 3.402301
C 64.284326 -0.257216 2.791704
N 64.028024 -0.081837 1.453642
C 65.702407 -0.109704 3.490007
C 66.836424 -0.053208 2.734123
C 68.148316 0.097073 3.331075
C 69.050024 0.158067 2.359148
N 67.030835 -0.093690 1.377837
C 68.364958 0.025793 1.087596
C 69.025238 0.034179 -0.099990
C 68.241441 -0.157486 -1.468447
C 68.753407 -0.706962 -2.627199
C 67.731555 -0.668765 -3.608737
C 66.627675 -0.093603 -3.024875
C 65.225164 0.171197 -3.729558
C 65.218223 0.384785 -5.207884
C 65.710278 1.574095 -5.783775
O 66.204617 2.659046 -5.107601
C 65.323445 3.226560 -4.138083
C 65.811739 1.699586 -7.176981
C 65.382364 0.674800 -8.016245
C 64.866476 -0.495503 -7.464756
C 64.802777 -0.658479 -6.074308
O 64.298083 -1.802226 -5.503804
C 64.545119 -3.024270 -6.193562
C 64.102012 0.197523 -2.964845
C 62.770985 0.360740 -3.521588
C 61.887344 0.279653 -2.529936
C 62.621659 0.089302 -1.303271
N 63.948463 0.072036 -1.611841
N 66.928871 0.162037 -1.705594
C 65.739688 0.005353 4.979892
C 65.439146 1.219515 5.636639
O 64.975454 2.339989 4.994901
C 65.989078 3.014030 4.252954
C 65.471814 1.310806 7.032987
C 65.829879 0.206421 7.799456
C 66.116233 -1.005979 7.171392
C 66.071095 -1.118073 5.772437
O 66.276497 -2.305901 5.116533
C 67.062105 -3.291715 5.766557
H 60.865463 -0.000072 -0.134956
H 61.033123 -0.790971 2.559874
H 62.985376 -0.859217 4.446643
H 64.726240 0.116527 0.740732
H 68.361800 0.160851 4.382048
H 70.107959 0.268495 2.513452
H 69.747097 -1.104324 -2.749432
H 67.787854 -1.021747 -4.625998
H 65.835426 3.253963 -3.166864
H 65.110342 4.258914 -4.436908
H 64.373825 2.709146 -4.032133
H 66.229152 2.609942 -7.595955
H 65.449659 0.786829 -9.091890
H 64.519611 -1.279184 -8.129875
H 64.396357 -3.850514 -5.494897
H 63.826576 -3.149476 -7.010516
H 65.573611 -3.078894 -6.565381
H 62.533353 0.483373 -4.560672
H 60.815882 0.331668 -2.620939
H 66.252389 0.454548 -1.005672
H 66.270004 3.931856 4.778747
H 65.576912 3.301577 3.280520
H 66.889902 2.429888 4.081055
H 65.204371 2.245903 7.514103
H 65.858967 0.287518 8.882641
H 66.344295 -1.862771 7.793617
H 66.486328 -3.785429 6.552062
H 67.336265 -4.047371 5.027604
H 67.987147 -2.868100 6.173486
C 116.093559 -0.032590 -0.053907
C 115.366175 -0.349741 -1.400921
C 115.967454 -0.806126 -2.553385
C 114.947140 -0.927616 -3.530660
C 113.766286 -0.511828 -2.954580
N 114.022588 -0.218793 -1.637273
C 112.348205 -0.426656 -3.663193
C 111.214188 -0.303527 -2.915268
C 109.902296 -0.206632 -3.523172
C 109.000589 -0.059915 -2.560448
N 111.019778 -0.223895 -1.560717
C 109.685655 -0.079209 -1.282181
C 109.025374 0.034179 -0.099990
C 109.809172 -0.035702 1.280056
C 109.297206 -0.480540 2.482865
C 110.319058 -0.355681 3.457178
C 111.422938 0.165588 2.824734
C 112.825449 0.491675 3.503235
C 112.832390 0.835176 4.956878
C 112.340334 2.070760 5.425323
O 111.845995 3.091655 4.655841
C 112.727167 3.571196 3.639929
C 112.238873 2.318980 6.801970
C 112.668249 1.372438 7.728582
C 113.184136 0.157946 7.282761
C 113.247836 -0.127369 5.912176
O 113.752530 -1.317092 5.445066
C 113.505494 -2.473342 6.240204
C 113.948601 0.450263 2.739190
C 115.279628 0.662081 3.279316
C 116.163268 0.493606 2.298722
C 115.428953 0.195510 1.093700
N 114.102150 0.205602 1.402588
N 111.121742 0.303543 1.488013
C 112.310924 -0.443822 -5.157415
C 112.611467 0.707497 -5.918974
O 113.075159 1.880338 -5.378851
C 112.061534 2.617358 -4.699427
C 112.578799 0.674930 -7.317925
C 112.220734 -0.492916 -7.983713
C 111.934379 -1.645017 -7.250881
C 111.979518 -1.632941 -5.847493
O 111.774115 -2.758103 -5.089103
C 110.988507 -3.797545 -5.649390
H 117.185149 0.003155 -0.062132
H 117.017489 -1.022988 -2.676451
H 115.065236 -1.257840 -4.549789
H 113.324373 0.041847 -0.944701
H 109.688813 -0.236057 -4.575667
H 107.942653 0.036432 -2.723915
H 108.303515 -0.865534 2.639763
H 110.262759 -0.617309 4.501671
H 112.215186 3.512593 2.670093
H 112.940271 4.625934 3.846277
H 113.676788 3.046440 3.580157
H 111.821461 3.262824 7.138787
H 112.600953 1.579163 8.790104
H 113.531002 -0.563838 8.014586
H 113.654256 -3.358141 5.617354
H 114.224037 -2.525802 7.065031
H 112.477002 -2.494866 6.615398
H 115.517259 0.876136 4.303482
H 117.234730 0.553466 2.384768
H 111.798223 0.533004 0.764963
H 111.780609 3.485084 -5.304336
H 112.473701 2.989785 -3.756235
H 111.160711 2.050709 -4.476537
H 112.846242 1.563811 -7.879860
H 112.191646 -0.507939 -9.069826
H 111.706318 -2.553483 -7.794888
H 111.564285 -4.358798 -6.388150
H 110.714348 -4.484883 -4.846500
H 110.063466 -3.411581 -6.092190
C 71.436723 0.034179 -0.099990
C 72.658641 0.034179 -0.099990
C 82.755139 0.034179 -0.099990
C 83.977057 0.034179 -0.099990
C 94.073556 0.034179 -0.099990
C 95.295473 0.034179 -0.099990
C 105.391972 0.034179 -0.099990
C 106.613890 0.034179 -0.099990
C 74.170290 -0.024368 0.071289
C 74.961453 1.232015 0.634673
C 74.432560 2.266328 1.378363
C 75.467453 3.213846 1.565010
C 76.602151 2.727285 0.952513
N 76.301119 1.488951 0.442158
C 78.009599 3.460617 0.856453
C 79.141603 2.739130 0.625165
C 80.442352 3.367651 0.503631
C 81.352457 2.420829 0.323431
N 79.346770 1.394058 0.467861
C 80.679355 1.138889 0.279569
C 81.348541 -0.024368 0.071289
C 80.546935 -1.388064 -0.031688
C 81.045726 -2.659104 0.200010
C 80.009841 -3.581237 -0.085090
C 78.910764 -2.843580 -0.489568
C 77.515983 -3.429197 -0.967823
C 77.522112 -4.776037 -1.617820
C 77.158193 -5.908078 -0.839325
O 76.833723 -5.691637 0.476615
C 75.894383 -6.582429 1.060479
C 77.200488 -7.198364 -1.386949
C 77.610794 -7.386830 -2.698033
C 77.975854 -6.286650 -3.466272
C 77.922707 -4.982005 -2.955021
O 78.333291 -4.054674 -3.883166
C 77.662947 -2.793318 -3.867138
C 76.378473 -2.700847 -0.797809
C 75.074460 -3.209357 -1.177344
C 74.161781 -2.291960 -0.883947
C 74.839174 -1.140959 -0.317797
N 76.175816 -1.443607 -0.296196
N 79.226135 -1.511325 -0.389141
C 78.038963 4.945076 1.008249
C 78.105739 5.781602 -0.124536
O 78.166063 5.222984 -1.378740
C 77.030981 5.578577 -2.170956
C 78.175101 7.176198 0.010257
C 78.143438 7.761843 1.273658
C 78.036996 6.956441 2.405492
C 78.004000 5.561970 2.277738
O 77.843223 4.856873 3.443050
C 79.079209 4.281473 3.872841
H 73.412819 2.350560 1.732137
H 75.396382 4.152736 2.090816
H 76.971620 0.856520 0.008066
H 80.646318 4.420316 0.563043
H 82.405470 2.592866 0.212716
H 82.048824 -2.901725 0.525010
H 80.061672 -4.660868 -0.017213
H 75.495019 -6.110403 1.965122
H 76.389305 -7.513851 1.363713
H 75.045023 -6.782411 0.391000
H 76.954623 -8.068060 -0.790522
H 77.660969 -8.384819 -3.121144
H 78.304723 -6.435521 -4.485609
H 77.667501 -2.450354 -4.917247
H 76.599368 -2.892664 -3.580073
H 78.205109 -2.049878 -3.267791
H 74.874369 -4.167960 -1.616347
H 73.107711 -2.405707 -1.055539
H 78.580315 -0.734939 -0.511608
H 77.258954 6.493278 -2.734522
H 76.121455 5.731225 -1.577296
H 76.851611 4.773105 -2.897128
H 78.270862 7.802744 -0.870926
H 78.201945 8.841112 1.373813
H 78.003263 7.400815 3.392422
H 79.825644 4.168062 3.083458
H 78.862095 3.295220 4.303077
H 79.505188 4.913512 4.660832
C 85.488707 -0.024368 0.071289
C 86.279869 1.232015 0.634673
C 85.750977 2.266328 1.378363
C 86.785869 3.213846 1.565010
C 87.920568 2.727285 0.952513
N 87.619535 1.488951 0.442158
C 89.328016 3.460617 0.856453
C 90.460019 2.739130 0.625165
C 91.760768 3.367651 0.503631
C 92.670874 2.420829 0.323431
N 90.665186 1.394058 0.467861
C 91.997772 1.138889 0.279569
C 92.666957 -0.024368 0.071289
C 91.865351 -1.388064 -0.031688
C 92.364143 -2.659104 0.200010
C 91.328258 -3.581237 -0.085090
C 90.229181 -2.843580 -0.489568
C 88.834399 -3.429197 -0.967823
C 88.840529 -4.776037 -1.617820
C 88.476609 -5.908078 -0.839325
O 88.152139 -5.691637 0.476615
C 87.212799 -6.582429 1.060479
C 88.518905 -7.198364 -1.386949
C 88.929210 -7.386830 -2.698033
C 89.294270 -6.286650 -3.466272
C 89.241123 -4.982005 -2.955021
O 89.651708 -4.054674 -3.883166
C 88.981364 -2.793318 -3.867138
C 87.696889 -2.700847 -0.797809
C 86.392876 -3.209357 -1.177344
C 85.480197 -2.291960 -0.883947
C 86.157590 -1.140959 -0.317797
N 87.494232 -1.443607 -0.296196
N 90.544551 -1.511325 -0.389141
C 89.357379 4.945076 1.008249
C 89.424155 5.781602 -0.124536
O 89.484479 5.222984 -1.378740
C 88.349397 5.578577 -2.170956
C 89.493517 7.176198 0.010257
C 89.461855 7.761843 1.273658
C 89.355413 6.956441 2.405492
C 89.322416 5.561970 2.277738
O 89.161639 4.856873 3.443050
C 90.397625 4.281473 3.872841
H 84.731236 2.350560 1.732137
H 86.714799 4.152736 2.090816
H 88.290036 0.856520 0.008066
H 91.964735 4.420316 0.563043
H 93.723886 2.592866 0.212716
H 93.367240 -2.901725 0.525010
H 91.380089 -4.660868 -0.017213
H 86.813436 -6.110403 1.965122
H 87.707721 -7.513851 1.363713
H 86.363439 -6.782411 0.391000
H 88.273040 -8.068060 -0.790522
H 88.979385 -8.384819 -3.121144
H 89.623139 -6.435521 -4.485609
H 88.985917 -2.450354 -4.917247
H 87.917784 -2.892664 -3.580073
H 89.523525 -2.049878 -3.267791
H 86.192786 -4.167960 -1.616347
H 84.426127 -2.405707 -1.055539
H 89.898731 -0.734939 -0.511608
H 88.577370 6.493278 -2.734522
H 87.439872 5.731225 -1.577296
H 88.170027 4.773105 -2.897128
H 89.589278 7.802744 -0.870926
H 89.520361 8.841112 1.373813
H 89.321680 7.400815 3.392422
H 91.144061 4.168062 3.083458
H 90.180511 3.295220 4.303077
H 90.823605 4.913512 4.660832
C 96.807123 -0.024368 0.071289
C 97.598285 1.232015 0.634673
C 97.069393 2.266328 1.378363
C 98.104285 3.213846 1.565010
C 99.238984 2.727285 0.952513
N 98.937951 1.488951 0.442158
C 100.646432 3.460617 0.856453
C 101.778436 2.739130 0.625165
C 103.079185 3.367651 0.503631
C 103.989290 2.420829 0.323431
N 101.983603 1.394058 0.467861
C 103.316188 1.138889 0.279569
C 103.985374 -0.024368 0.071289
C 103.183768 -1.388064 -0.031688
C 103.682559 -2.659104 0.200010
C 102.646674 -3.581237 -0.085090
C 101.547597 -2.843580 -0.489568
C 100.152816 -3.429197 -0.967823
C 100.158945 -4.776037 -1.617820
C 99.795025 -5.908078 -0.839325
O 99.470555 -5.691637 0.476615
C 98.531216 -6.582429 1.060479
C 99.837321 -7.198364 -1.386949
C 100.247627 -7.386830 -2.698033
C 100.612687 -6.286650 -3.466272
C 100.559540 -4.982005 -2.955021
O 100.970124 -4.054674 -3.883166
C 100.299780 -2.793318 -3.867138
C 99.015306 -2.700847 -0.797809
C 97.711292 -3.209357 -1.177344
C 96.798614 -2.291960 -0.883947
C 97.476006 -1.140959 -0.317797
N 98.812648 -1.443607 -0.296196
N 101.862967 -1.511325 -0.389141
C 100.675796 4.945076 1.008249
C 100.742572 5.781602 -0.124536
O 100.802895 5.222984 -1.378740
C 99.667813 5.578577 -2.170956
C 100.811934 7.176198 0.010257
C 100.780271 7.761843 1.273658
C 100.673829 6.956441 2.405492
C 100.640833 5.561970 2.277738
O 100.480056 4.856873 3.443050
C 101.716041 4.281473 3.872841
H 96.049652 2.350560 1.732137
H 98.033215 4.152736 2.090816
H 99.608453 0.856520 0.008066
H 103.283151 4.420316 0.563043
H 105.042303 2.592866 0.212716
H 104.685656 -2.901725 0.525010
H 102.698505 -4.660868 -0.017213
H 98.131852 -6.110403 1.965122
H 99.026138 -7.513851 1.363713
H 97.681856 -6.782411 0.391000
H 99.591456 -8.068060 -0.790522
H 100.297802 -8.384819 -3.121144
H 100.941556 -6.435521 -4.485609
H 100.304333 -2.450354 -4.917247
H 99.236200 -2.892664 -3.580073
H 100.841942 -2.049878 -3.267791
H 97.511202 -4.167960 -1.616347
H 95.744544 -2.405707 -1.055539
H 101.217148 -0.734939 -0.511608
H 99.895786 6.493278 -2.734522
H 98.758288 5.731225 -1.577296
H 99.488444 4.773105 -2.897128
H 100.907694 7.802744 -0.870926
H 100.838778 8.841112 1.373813
H 100.640096 7.400815 3.392422
H 102.462477 4.168062 3.083458
H 101.498927 3.295220 4.303077
H 102.142021 4.913512 4.660832
