 xtb: 6.5.1 (b24c23e)
          07302211323D

236275  0     0  0            999 V2000
   54.5644    0.0430    0.0356 Ni  0  0  0  0  0  0  0  0  0  0  0  0
   51.1796    0.0449    0.1179 C   0  0  0  0  0  0  0  0  0  0  0  0
   51.8311    1.2611    0.1416 C   0  0  0  0  0  0  0  0  0  0  0  0
   51.1624    2.5264    0.1515 C   0  0  0  0  0  0  0  0  0  0  0  0
   52.1196    3.4709    0.3092 C   0  0  0  0  0  0  0  0  0  0  0  0
   53.3716    2.7798    0.4152 C   0  0  0  0  0  0  0  0  0  0  0  0
   53.1886    1.4292    0.2563 N   0  0  0  0  0  0  0  0  0  0  0  0
   54.5797    3.3902    0.7314 C   0  0  0  0  0  0  0  0  0  0  0  0
   54.5940    4.8404    1.0271 C   0  0  0  0  0  0  0  0  0  0  0  0
   53.8215    5.3616    2.0680 C   0  0  0  0  0  0  0  0  0  0  0  0
   53.8381    6.7160    2.3482 C   0  0  0  0  0  0  0  0  0  0  0  0
   54.6288    7.5802    1.5851 C   0  0  0  0  0  0  0  0  0  0  0  0
   54.6469    8.9749    1.8698 C   0  0  0  0  0  0  0  0  0  0  0  0
   54.6606   10.1021    2.1007 N   0  0  0  0  0  0  0  0  0  0  0  0
   55.4023    7.0643    0.5410 C   0  0  0  0  0  0  0  0  0  0  0  0
   55.3847    5.7082    0.2696 C   0  0  0  0  0  0  0  0  0  0  0  0
   55.7773    2.6870    0.7906 C   0  0  0  0  0  0  0  0  0  0  0  0
   57.0229    3.2562    1.2071 C   0  0  0  0  0  0  0  0  0  0  0  0
   57.9709    2.3077    1.0118 C   0  0  0  0  0  0  0  0  0  0  0  0
   55.9557    1.3809    0.3969 N   0  0  0  0  0  0  0  0  0  0  0  0
   57.3044    1.1626    0.4795 C   0  0  0  0  0  0  0  0  0  0  0  0
   57.9702    0.0303    0.0017 C   0  0  0  0  0  0  0  0  0  0  0  0
   57.2878   -1.0930   -0.4743 C   0  0  0  0  0  0  0  0  0  0  0  0
   57.9353   -2.2343   -1.0374 C   0  0  0  0  0  0  0  0  0  0  0  0
   56.9744   -3.1682   -1.2405 C   0  0  0  0  0  0  0  0  0  0  0  0
   55.7413   -2.5964   -0.7914 C   0  0  0  0  0  0  0  0  0  0  0  0
   55.9387   -1.2999   -0.3748 N   0  0  0  0  0  0  0  0  0  0  0  0
   54.5411   -3.2926   -0.7127 C   0  0  0  0  0  0  0  0  0  0  0  0
   54.5319   -4.7353   -1.0438 C   0  0  0  0  0  0  0  0  0  0  0  0
   53.7208   -5.2209   -2.0724 C   0  0  0  0  0  0  0  0  0  0  0  0
   53.7120   -6.5679   -2.3869 C   0  0  0  0  0  0  0  0  0  0  0  0
   54.5149   -7.4602   -1.6703 C   0  0  0  0  0  0  0  0  0  0  0  0
   54.5081   -8.8472   -1.9908 C   0  0  0  0  0  0  0  0  0  0  0  0
   54.5059   -9.9677   -2.2527 N   0  0  0  0  0  0  0  0  0  0  0  0
   55.3258   -6.9801   -0.6375 C   0  0  0  0  0  0  0  0  0  0  0  0
   55.3339   -5.6310   -0.3322 C   0  0  0  0  0  0  0  0  0  0  0  0
   53.3496   -2.6849   -0.3342 C   0  0  0  0  0  0  0  0  0  0  0  0
   52.1034   -3.3770   -0.1787 C   0  0  0  0  0  0  0  0  0  0  0  0
   51.1581   -2.4357    0.0527 C   0  0  0  0  0  0  0  0  0  0  0  0
   51.8283   -1.1711    0.0506 C   0  0  0  0  0  0  0  0  0  0  0  0
   53.1777   -1.3378   -0.1390 N   0  0  0  0  0  0  0  0  0  0  0  0
   50.0963    0.0449    0.1476 H   0  0  0  0  0  0  0  0  0  0  0  0
   50.0967    2.6552    0.0489 H   0  0  0  0  0  0  0  0  0  0  0  0
   52.0009    4.5414    0.3504 H   0  0  0  0  0  0  0  0  0  0  0  0
   53.2184    4.6931    2.6719 H   0  0  0  0  0  0  0  0  0  0  0  0
   53.2406    7.1118    3.1611 H   0  0  0  0  0  0  0  0  0  0  0  0
   56.0144    7.7315   -0.0546 H   0  0  0  0  0  0  0  0  0  0  0  0
   55.9765    5.3138   -0.5487 H   0  0  0  0  0  0  0  0  0  0  0  0
   57.1458    4.2503    1.6049 H   0  0  0  0  0  0  0  0  0  0  0  0
   59.0289    2.3654    1.2084 H   0  0  0  0  0  0  0  0  0  0  0  0
   58.9900   -2.2986   -1.2494 H   0  0  0  0  0  0  0  0  0  0  0  0
   57.0813   -4.1547   -1.6613 H   0  0  0  0  0  0  0  0  0  0  0  0
   53.1067   -4.5303   -2.6392 H   0  0  0  0  0  0  0  0  0  0  0  0
   53.0846   -6.9359   -3.1902 H   0  0  0  0  0  0  0  0  0  0  0  0
   55.9464   -7.6695   -0.0772 H   0  0  0  0  0  0  0  0  0  0  0  0
   55.9546   -5.2646    0.4777 H   0  0  0  0  0  0  0  0  0  0  0  0
   51.9810   -4.4463   -0.2376 H   0  0  0  0  0  0  0  0  0  0  0  0
   50.0992   -2.5660    0.2096 H   0  0  0  0  0  0  0  0  0  0  0  0
   87.1274    0.0121    0.0813 Ni  0  0  0  0  0  0  0  0  0  0  0  0
   90.5209    0.0181    0.2315 C   0  0  0  0  0  0  0  0  0  0  0  0
   89.8689   -1.1846    0.4030 C   0  0  0  0  0  0  0  0  0  0  0  0
   90.5506   -2.4255    0.6117 C   0  0  0  0  0  0  0  0  0  0  0  0
   89.5957   -3.3744    0.7470 C   0  0  0  0  0  0  0  0  0  0  0  0
   88.3304   -2.7086    0.6358 C   0  0  0  0  0  0  0  0  0  0  0  0
   88.5085   -1.3674    0.4058 N   0  0  0  0  0  0  0  0  0  0  0  0
   87.1071   -3.3550    0.7516 C   0  0  0  0  0  0  0  0  0  0  0  0
   87.0949   -4.8065    1.0535 C   0  0  0  0  0  0  0  0  0  0  0  0
   87.6145   -5.2785    2.2607 C   0  0  0  0  0  0  0  0  0  0  0  0
   87.5920   -6.6297    2.5568 C   0  0  0  0  0  0  0  0  0  0  0  0
   87.0511   -7.5382    1.6422 C   0  0  0  0  0  0  0  0  0  0  0  0
   87.0231   -8.9289    1.9452 C   0  0  0  0  0  0  0  0  0  0  0  0
   87.0003  -10.0520    2.1945 N   0  0  0  0  0  0  0  0  0  0  0  0
   86.5355   -7.0709    0.4298 C   0  0  0  0  0  0  0  0  0  0  0  0
   86.5562   -5.7176    0.1428 C   0  0  0  0  0  0  0  0  0  0  0  0
   85.8920   -2.6965    0.6196 C   0  0  0  0  0  0  0  0  0  0  0  0
   84.6228   -3.3351    0.7983 C   0  0  0  0  0  0  0  0  0  0  0  0
   83.6768   -2.3865    0.6027 C   0  0  0  0  0  0  0  0  0  0  0  0
   85.7243   -1.3613    0.3318 N   0  0  0  0  0  0  0  0  0  0  0  0
   84.3691   -1.1714    0.3103 C   0  0  0  0  0  0  0  0  0  0  0  0
   83.7135    0.0297    0.0399 C   0  0  0  0  0  0  0  0  0  0  0  0
   84.3878    1.2181   -0.2406 C   0  0  0  0  0  0  0  0  0  0  0  0
   83.7154    2.4287   -0.5921 C   0  0  0  0  0  0  0  0  0  0  0  0
   84.6765    3.3545   -0.8208 C   0  0  0  0  0  0  0  0  0  0  0  0
   85.9343    2.7107   -0.5886 C   0  0  0  0  0  0  0  0  0  0  0  0
   85.7453    1.3906   -0.2480 N   0  0  0  0  0  0  0  0  0  0  0  0
   87.1589    3.3555   -0.6958 C   0  0  0  0  0  0  0  0  0  0  0  0
   87.1765    4.7915   -1.0648 C   0  0  0  0  0  0  0  0  0  0  0  0
   87.7679    5.2012   -2.2617 C   0  0  0  0  0  0  0  0  0  0  0  0
   87.7806    6.5374   -2.6194 C   0  0  0  0  0  0  0  0  0  0  0  0
   87.2045    7.4934   -1.7777 C   0  0  0  0  0  0  0  0  0  0  0  0
   87.2156    8.8695   -2.1427 C   0  0  0  0  0  0  0  0  0  0  0  0
   87.2226    9.9806   -2.4419 N   0  0  0  0  0  0  0  0  0  0  0  0
   86.6171    7.0886   -0.5755 C   0  0  0  0  0  0  0  0  0  0  0  0
   86.6026    5.7498   -0.2269 C   0  0  0  0  0  0  0  0  0  0  0  0
   88.3695    2.7155   -0.4661 C   0  0  0  0  0  0  0  0  0  0  0  0
   89.6380    3.3840   -0.4892 C   0  0  0  0  0  0  0  0  0  0  0  0
   90.5776    2.4504   -0.2132 C   0  0  0  0  0  0  0  0  0  0  0  0
   89.8830    1.2139   -0.0220 C   0  0  0  0  0  0  0  0  0  0  0  0
   88.5287    1.3866   -0.1637 N   0  0  0  0  0  0  0  0  0  0  0  0
   91.6032    0.0215    0.2862 H   0  0  0  0  0  0  0  0  0  0  0  0
   91.6229   -2.5360    0.6394 H   0  0  0  0  0  0  0  0  0  0  0  0
   89.7226   -4.4336    0.9010 H   0  0  0  0  0  0  0  0  0  0  0  0
   88.0232   -4.5751    2.9773 H   0  0  0  0  0  0  0  0  0  0  0  0
   87.9903   -6.9881    3.4987 H   0  0  0  0  0  0  0  0  0  0  0  0
   86.1194   -7.7731   -0.2831 H   0  0  0  0  0  0  0  0  0  0  0  0
   86.1630   -5.3594   -0.8019 H   0  0  0  0  0  0  0  0  0  0  0  0
   84.4841   -4.3729    1.0534 H   0  0  0  0  0  0  0  0  0  0  0  0
   82.6045   -2.4841    0.6543 H   0  0  0  0  0  0  0  0  0  0  0  0
   82.6452    2.5368   -0.6636 H   0  0  0  0  0  0  0  0  0  0  0  0
   84.5547    4.3808   -1.1261 H   0  0  0  0  0  0  0  0  0  0  0  0
   88.2066    4.4607   -2.9209 H   0  0  0  0  0  0  0  0  0  0  0  0
   88.2350    6.8476   -3.5531 H   0  0  0  0  0  0  0  0  0  0  0  0
   86.1739    7.8278    0.0815 H   0  0  0  0  0  0  0  0  0  0  0  0
   86.1555    5.4405    0.7111 H   0  0  0  0  0  0  0  0  0  0  0  0
   89.7756    4.4358   -0.6804 H   0  0  0  0  0  0  0  0  0  0  0  0
   91.6471    2.5676   -0.1409 H   0  0  0  0  0  0  0  0  0  0  0  0
   59.3786    0.0246   -0.0082 C   0  0  0  0  0  0  0  0  0  0  0  0
   60.5950    0.0210   -0.0176 C   0  0  0  0  0  0  0  0  0  0  0  0
   70.2222    0.0134   -0.0250 C   0  0  0  0  0  0  0  0  0  0  0  0
   71.4384    0.0164   -0.0270 C   0  0  0  0  0  0  0  0  0  0  0  0
   81.0871    0.0439    0.0264 C   0  0  0  0  0  0  0  0  0  0  0  0
   82.3022    0.0387    0.0327 C   0  0  0  0  0  0  0  0  0  0  0  0
   65.4093    0.0183   -0.0324 Ni  0  0  0  0  0  0  0  0  0  0  0  0
   62.0029    0.0197   -0.0253 C   0  0  0  0  0  0  0  0  0  0  0  0
   62.6785   -1.1896   -0.2154 C   0  0  0  0  0  0  0  0  0  0  0  0
   62.0274   -2.4533   -0.3470 C   0  0  0  0  0  0  0  0  0  0  0  0
   62.9813   -3.3500   -0.6995 C   0  0  0  0  0  0  0  0  0  0  0  0
   64.2137   -2.6280   -0.7881 C   0  0  0  0  0  0  0  0  0  0  0  0
   64.0246   -1.3135   -0.4291 N   0  0  0  0  0  0  0  0  0  0  0  0
   65.4048   -3.1624   -1.2666 C   0  0  0  0  0  0  0  0  0  0  0  0
   65.3999   -4.5378   -1.8116 C   0  0  0  0  0  0  0  0  0  0  0  0
   64.5521   -4.8763   -2.8695 C   0  0  0  0  0  0  0  0  0  0  0  0
   64.5499   -6.1582   -3.3891 C   0  0  0  0  0  0  0  0  0  0  0  0
   65.3973   -7.1330   -2.8540 C   0  0  0  0  0  0  0  0  0  0  0  0
   65.3991   -8.4527   -3.3878 C   0  0  0  0  0  0  0  0  0  0  0  0
   65.4018   -9.5187   -3.8208 N   0  0  0  0  0  0  0  0  0  0  0  0
   66.2438   -6.8013   -1.7918 C   0  0  0  0  0  0  0  0  0  0  0  0
   66.2440   -5.5163   -1.2801 C   0  0  0  0  0  0  0  0  0  0  0  0
   66.5995   -2.4518   -1.2536 C   0  0  0  0  0  0  0  0  0  0  0  0
   67.8338   -2.9330   -1.7952 C   0  0  0  0  0  0  0  0  0  0  0  0
   68.7912   -2.0414   -1.4392 C   0  0  0  0  0  0  0  0  0  0  0  0
   66.7913   -1.2404   -0.6296 N   0  0  0  0  0  0  0  0  0  0  0  0
   68.1391   -1.0137   -0.6929 C   0  0  0  0  0  0  0  0  0  0  0  0
   68.8144    0.0136   -0.0275 C   0  0  0  0  0  0  0  0  0  0  0  0
   68.1396    1.0438    0.6343 C   0  0  0  0  0  0  0  0  0  0  0  0
   68.7924    2.0720    1.3794 C   0  0  0  0  0  0  0  0  0  0  0  0
   67.8374    2.9703    1.7248 C   0  0  0  0  0  0  0  0  0  0  0  0
   66.6039    2.4913    1.1798 C   0  0  0  0  0  0  0  0  0  0  0  0
   66.7934    1.2757    0.5635 N   0  0  0  0  0  0  0  0  0  0  0  0
   65.4117    3.2060    1.1846 C   0  0  0  0  0  0  0  0  0  0  0  0
   65.4103    4.5854    1.7191 C   0  0  0  0  0  0  0  0  0  0  0  0
   64.5638    4.9344    2.7746 C   0  0  0  0  0  0  0  0  0  0  0  0
   64.5643    6.2206    3.2834 C   0  0  0  0  0  0  0  0  0  0  0  0
   65.4131    7.1892    2.7393 C   0  0  0  0  0  0  0  0  0  0  0  0
   65.4178    8.5139    3.2607 C   0  0  0  0  0  0  0  0  0  0  0  0
   65.4238    9.5840    3.6837 N   0  0  0  0  0  0  0  0  0  0  0  0
   66.2588    6.8468    1.6800 C   0  0  0  0  0  0  0  0  0  0  0  0
   66.2566    5.5574    1.1794 C   0  0  0  0  0  0  0  0  0  0  0  0
   64.2195    2.6710    0.7097 C   0  0  0  0  0  0  0  0  0  0  0  0
   62.9878    3.3938    0.6201 C   0  0  0  0  0  0  0  0  0  0  0  0
   62.0312    2.4951    0.2801 C   0  0  0  0  0  0  0  0  0  0  0  0
   62.6804    1.2298    0.1554 C   0  0  0  0  0  0  0  0  0  0  0  0
   64.0274    1.3539    0.3613 N   0  0  0  0  0  0  0  0  0  0  0  0
   60.9749   -2.6205   -0.1866 H   0  0  0  0  0  0  0  0  0  0  0  0
   62.8700   -4.4070   -0.8780 H   0  0  0  0  0  0  0  0  0  0  0  0
   63.9043   -4.1198   -3.2978 H   0  0  0  0  0  0  0  0  0  0  0  0
   63.8939   -6.4107   -4.2139 H   0  0  0  0  0  0  0  0  0  0  0  0
   66.8986   -7.5554   -1.3712 H   0  0  0  0  0  0  0  0  0  0  0  0
   66.8918   -5.2676   -0.4471 H   0  0  0  0  0  0  0  0  0  0  0  0
   67.9449   -3.8340   -2.3761 H   0  0  0  0  0  0  0  0  0  0  0  0
   69.8464   -2.0650   -1.6584 H   0  0  0  0  0  0  0  0  0  0  0  0
   69.8463    2.0916    1.6049 H   0  0  0  0  0  0  0  0  0  0  0  0
   67.9494    3.8742    2.3008 H   0  0  0  0  0  0  0  0  0  0  0  0
   63.9148    4.1826    3.2094 H   0  0  0  0  0  0  0  0  0  0  0  0
   63.9091    6.4813    4.1063 H   0  0  0  0  0  0  0  0  0  0  0  0
   66.9149    7.5962    1.2529 H   0  0  0  0  0  0  0  0  0  0  0  0
   66.9040    5.3001    0.3487 H   0  0  0  0  0  0  0  0  0  0  0  0
   62.8783    4.4524    0.7901 H   0  0  0  0  0  0  0  0  0  0  0  0
   60.9785    2.6628    0.1223 H   0  0  0  0  0  0  0  0  0  0  0  0
   76.2627    0.0381   -0.0198 Ni  0  0  0  0  0  0  0  0  0  0  0  0
   72.8468    0.0231   -0.0260 C   0  0  0  0  0  0  0  0  0  0  0  0
   73.5242   -1.1716   -0.2814 C   0  0  0  0  0  0  0  0  0  0  0  0
   72.8615   -2.4175   -0.5003 C   0  0  0  0  0  0  0  0  0  0  0  0
   73.8201   -3.3155   -0.8323 C   0  0  0  0  0  0  0  0  0  0  0  0
   75.0664   -2.6122   -0.8186 C   0  0  0  0  0  0  0  0  0  0  0  0
   74.8771   -1.3037   -0.4369 N   0  0  0  0  0  0  0  0  0  0  0  0
   76.2780   -3.1785   -1.1927 C   0  0  0  0  0  0  0  0  0  0  0  0
   76.2797   -4.5630   -1.7193 C   0  0  0  0  0  0  0  0  0  0  0  0
   75.5679   -4.8755   -2.8799 C   0  0  0  0  0  0  0  0  0  0  0  0
   75.5724   -6.1637   -3.3837 C   0  0  0  0  0  0  0  0  0  0  0  0
   76.2879   -7.1699   -2.7280 C   0  0  0  0  0  0  0  0  0  0  0  0
   76.2956   -8.4967   -3.2443 C   0  0  0  0  0  0  0  0  0  0  0  0
   76.3034   -9.5679   -3.6645 N   0  0  0  0  0  0  0  0  0  0  0  0
   76.9969   -6.8635   -1.5627 C   0  0  0  0  0  0  0  0  0  0  0  0
   76.9931   -5.5717   -1.0679 C   0  0  0  0  0  0  0  0  0  0  0  0
   77.4865   -2.5011   -1.0955 C   0  0  0  0  0  0  0  0  0  0  0  0
   78.7432   -3.0460   -1.5111 C   0  0  0  0  0  0  0  0  0  0  0  0
   79.6940   -2.1473   -1.1597 C   0  0  0  0  0  0  0  0  0  0  0  0
   77.6618   -1.2551   -0.5389 N   0  0  0  0  0  0  0  0  0  0  0  0
   79.0148   -1.0512   -0.5453 C   0  0  0  0  0  0  0  0  0  0  0  0
   79.6765    0.0436    0.0126 C   0  0  0  0  0  0  0  0  0  0  0  0
   79.0013    1.1386    0.5532 C   0  0  0  0  0  0  0  0  0  0  0  0
   79.6659    2.2426    1.1691 C   0  0  0  0  0  0  0  0  0  0  0  0
   78.7064    3.1427    1.4924 C   0  0  0  0  0  0  0  0  0  0  0  0
   77.4589    2.5892    1.0607 C   0  0  0  0  0  0  0  0  0  0  0  0
   77.6480    1.3385    0.5192 N   0  0  0  0  0  0  0  0  0  0  0  0
   76.2458    3.2614    1.1348 C   0  0  0  0  0  0  0  0  0  0  0  0
   76.2346    4.6520    1.6454 C   0  0  0  0  0  0  0  0  0  0  0  0
   75.5105    4.9745    2.7955 C   0  0  0  0  0  0  0  0  0  0  0  0
   75.5016    6.2691    3.2826 C   0  0  0  0  0  0  0  0  0  0  0  0
   76.2160    7.2717    2.6201 C   0  0  0  0  0  0  0  0  0  0  0  0
   76.2082    8.6054    3.1182 C   0  0  0  0  0  0  0  0  0  0  0  0
   76.2027    9.6826    3.5226 N   0  0  0  0  0  0  0  0  0  0  0  0
   76.9384    6.9549    1.4659 C   0  0  0  0  0  0  0  0  0  0  0  0
   76.9480    5.6567    0.9880 C   0  0  0  0  0  0  0  0  0  0  0  0
   75.0412    2.6833    0.7562 C   0  0  0  0  0  0  0  0  0  0  0  0
   73.7892    3.3767    0.7575 C   0  0  0  0  0  0  0  0  0  0  0  0
   72.8391    2.4671    0.4322 C   0  0  0  0  0  0  0  0  0  0  0  0
   73.5129    1.2249    0.2270 C   0  0  0  0  0  0  0  0  0  0  0  0
   74.8640    1.3698    0.3858 N   0  0  0  0  0  0  0  0  0  0  0  0
   71.7989   -2.5716   -0.4062 H   0  0  0  0  0  0  0  0  0  0  0  0
   73.7046   -4.3628   -1.0588 H   0  0  0  0  0  0  0  0  0  0  0  0
   75.0218   -4.0949   -3.3974 H   0  0  0  0  0  0  0  0  0  0  0  0
   75.0235   -6.3970   -4.2886 H   0  0  0  0  0  0  0  0  0  0  0  0
   77.5486   -7.6422   -1.0492 H   0  0  0  0  0  0  0  0  0  0  0  0
   77.5348   -5.3405   -0.1577 H   0  0  0  0  0  0  0  0  0  0  0  0
   78.8715   -3.9920   -2.0112 H   0  0  0  0  0  0  0  0  0  0  0  0
   80.7610   -2.2053   -1.3017 H   0  0  0  0  0  0  0  0  0  0  0  0
   80.7302    2.3054    1.3293 H   0  0  0  0  0  0  0  0  0  0  0  0
   78.8229    4.0947    1.9839 H   0  0  0  0  0  0  0  0  0  0  0  0
   74.9650    4.1969    3.3182 H   0  0  0  0  0  0  0  0  0  0  0  0
   74.9431    6.5104    4.1793 H   0  0  0  0  0  0  0  0  0  0  0  0
   77.4898    7.7306    0.9475 H   0  0  0  0  0  0  0  0  0  0  0  0
   77.5003    5.4171    0.0863 H   0  0  0  0  0  0  0  0  0  0  0  0
   73.6642    4.4253    0.9724 H   0  0  0  0  0  0  0  0  0  0  0  0
   71.7758    2.6120    0.3323 H   0  0  0  0  0  0  0  0  0  0  0  0
  2  3  4  0  0  0  0
  3  4  4  0  0  0  0
  4  5  2  0  0  0  0
  5  6  4  0  0  0  0
  1  7  1  0  0  0  0
  3  7  4  0  0  0  0
  6  7  4  0  0  0  0
  6  8  4  0  0  0  0
  8  9  1  0  0  0  0
  9 10  4  0  0  0  0
 10 11  4  0  0  0  0
 11 12  4  0  0  0  0
 12 13  1  0  0  0  0
 13 14  3  0  0  0  0
 12 15  4  0  0  0  0
  9 16  4  0  0  0  0
 15 16  4  0  0  0  0
  8 17  4  0  0  0  0
 17 18  4  0  0  0  0
 18 19  2  0  0  0  0
  1 20  1  0  0  0  0
 17 20  4  0  0  0  0
 19 21  4  0  0  0  0
 20 21  4  0  0  0  0
 21 22  4  0  0  0  0
 22 23  4  0  0  0  0
 23 24  4  0  0  0  0
 24 25  2  0  0  0  0
 25 26  4  0  0  0  0
  1 27  1  0  0  0  0
 23 27  4  0  0  0  0
 26 27  4  0  0  0  0
 26 28  4  0  0  0  0
 28 29  1  0  0  0  0
 29 30  4  0  0  0  0
 30 31  4  0  0  0  0
 31 32  4  0  0  0  0
 32 33  1  0  0  0  0
 33 34  3  0  0  0  0
 32 35  4  0  0  0  0
 29 36  4  0  0  0  0
 35 36  4  0  0  0  0
 28 37  4  0  0  0  0
 37 38  4  0  0  0  0
 38 39  2  0  0  0  0
  2 40  4  0  0  0  0
 39 40  4  0  0  0  0
  1 41  1  0  0  0  0
 37 41  4  0  0  0  0
 40 41  4  0  0  0  0
  2 42  1  0  0  0  0
  4 43  1  0  0  0  0
  5 44  1  0  0  0  0
 10 45  1  0  0  0  0
 11 46  1  0  0  0  0
 15 47  1  0  0  0  0
 16 48  1  0  0  0  0
 18 49  1  0  0  0  0
 19 50  1  0  0  0  0
 24 51  1  0  0  0  0
 25 52  1  0  0  0  0
 30 53  1  0  0  0  0
 31 54  1  0  0  0  0
 35 55  1  0  0  0  0
 36 56  1  0  0  0  0
 38 57  1  0  0  0  0
 39 58  1  0  0  0  0
 60 61  4  0  0  0  0
 61 62  4  0  0  0  0
 62 63  2  0  0  0  0
 63 64  4  0  0  0  0
 59 65  1  0  0  0  0
 61 65  4  0  0  0  0
 64 65  4  0  0  0  0
 64 66  4  0  0  0  0
 66 67  1  0  0  0  0
 67 68  4  0  0  0  0
 68 69  4  0  0  0  0
 69 70  4  0  0  0  0
 70 71  1  0  0  0  0
 71 72  3  0  0  0  0
 70 73  4  0  0  0  0
 67 74  4  0  0  0  0
 73 74  4  0  0  0  0
 66 75  4  0  0  0  0
 75 76  4  0  0  0  0
 76 77  2  0  0  0  0
 59 78  1  0  0  0  0
 75 78  4  0  0  0  0
 77 79  4  0  0  0  0
 78 79  4  0  0  0  0
 79 80  4  0  0  0  0
 80 81  4  0  0  0  0
 81 82  4  0  0  0  0
 82 83  2  0  0  0  0
 83 84  4  0  0  0  0
 59 85  1  0  0  0  0
 81 85  4  0  0  0  0
 84 85  4  0  0  0  0
 84 86  4  0  0  0  0
 86 87  1  0  0  0  0
 87 88  4  0  0  0  0
 88 89  4  0  0  0  0
 89 90  4  0  0  0  0
 90 91  1  0  0  0  0
 91 92  3  0  0  0  0
 90 93  4  0  0  0  0
 87 94  4  0  0  0  0
 93 94  4  0  0  0  0
 86 95  4  0  0  0  0
 95 96  4  0  0  0  0
 96 97  2  0  0  0  0
 60 98  4  0  0  0  0
 97 98  4  0  0  0  0
 59 99  1  0  0  0  0
 95 99  4  0  0  0  0
 98 99  4  0  0  0  0
 60100  1  0  0  0  0
 62101  1  0  0  0  0
 63102  1  0  0  0  0
 68103  1  0  0  0  0
 69104  1  0  0  0  0
 73105  1  0  0  0  0
 74106  1  0  0  0  0
 76107  1  0  0  0  0
 77108  1  0  0  0  0
 82109  1  0  0  0  0
 83110  1  0  0  0  0
 88111  1  0  0  0  0
 89112  1  0  0  0  0
 93113  1  0  0  0  0
 94114  1  0  0  0  0
 96115  1  0  0  0  0
 97116  1  0  0  0  0
 22117  4  0  0  0  0
117118  3  0  0  0  0
119120  3  0  0  0  0
 80122  1  0  0  0  0
121122  3  0  0  0  0
118124  4  0  0  0  0
124125  4  0  0  0  0
125126  4  0  0  0  0
126127  2  0  0  0  0
127128  4  0  0  0  0
123129  1  0  0  0  0
125129  4  0  0  0  0
128129  4  0  0  0  0
128130  4  0  0  0  0
130131  1  0  0  0  0
131132  4  0  0  0  0
132133  4  0  0  0  0
133134  4  0  0  0  0
134135  1  0  0  0  0
135136  3  0  0  0  0
134137  4  0  0  0  0
131138  4  0  0  0  0
137138  4  0  0  0  0
130139  4  0  0  0  0
139140  4  0  0  0  0
140141  2  0  0  0  0
123142  1  0  0  0  0
139142  4  0  0  0  0
141143  4  0  0  0  0
142143  4  0  0  0  0
119144  4  0  0  0  0
143144  4  0  0  0  0
144145  4  0  0  0  0
145146  4  0  0  0  0
146147  2  0  0  0  0
147148  4  0  0  0  0
123149  1  0  0  0  0
145149  4  0  0  0  0
148149  4  0  0  0  0
148150  4  0  0  0  0
150151  1  0  0  0  0
151152  4  0  0  0  0
152153  4  0  0  0  0
153154  4  0  0  0  0
154155  1  0  0  0  0
155156  3  0  0  0  0
154157  4  0  0  0  0
151158  4  0  0  0  0
157158  4  0  0  0  0
150159  4  0  0  0  0
159160  4  0  0  0  0
160161  2  0  0  0  0
124162  4  0  0  0  0
161162  4  0  0  0  0
123163  1  0  0  0  0
159163  4  0  0  0  0
162163  4  0  0  0  0
126164  1  0  0  0  0
127165  1  0  0  0  0
132166  1  0  0  0  0
133167  1  0  0  0  0
137168  1  0  0  0  0
138169  1  0  0  0  0
140170  1  0  0  0  0
141171  1  0  0  0  0
146172  1  0  0  0  0
147173  1  0  0  0  0
152174  1  0  0  0  0
153175  1  0  0  0  0
157176  1  0  0  0  0
158177  1  0  0  0  0
160178  1  0  0  0  0
161179  1  0  0  0  0
120181  4  0  0  0  0
181182  4  0  0  0  0
182183  4  0  0  0  0
183184  2  0  0  0  0
184185  4  0  0  0  0
180186  1  0  0  0  0
182186  4  0  0  0  0
185186  4  0  0  0  0
185187  4  0  0  0  0
187188  1  0  0  0  0
188189  4  0  0  0  0
189190  4  0  0  0  0
190191  4  0  0  0  0
191192  1  0  0  0  0
192193  3  0  0  0  0
191194  4  0  0  0  0
188195  4  0  0  0  0
194195  4  0  0  0  0
187196  4  0  0  0  0
196197  4  0  0  0  0
197198  2  0  0  0  0
180199  1  0  0  0  0
196199  4  0  0  0  0
198200  4  0  0  0  0
199200  4  0  0  0  0
121201  1  0  0  0  0
200201  4  0  0  0  0
201202  4  0  0  0  0
202203  4  0  0  0  0
203204  2  0  0  0  0
204205  4  0  0  0  0
180206  1  0  0  0  0
202206  4  0  0  0  0
205206  4  0  0  0  0
205207  4  0  0  0  0
207208  1  0  0  0  0
208209  4  0  0  0  0
209210  4  0  0  0  0
210211  4  0  0  0  0
211212  1  0  0  0  0
212213  3  0  0  0  0
211214  4  0  0  0  0
208215  4  0  0  0  0
214215  4  0  0  0  0
207216  4  0  0  0  0
216217  4  0  0  0  0
217218  2  0  0  0  0
181219  4  0  0  0  0
218219  4  0  0  0  0
180220  1  0  0  0  0
216220  4  0  0  0  0
219220  4  0  0  0  0
183221  1  0  0  0  0
184222  1  0  0  0  0
189223  1  0  0  0  0
190224  1  0  0  0  0
194225  1  0  0  0  0
195226  1  0  0  0  0
197227  1  0  0  0  0
198228  1  0  0  0  0
203229  1  0  0  0  0
204230  1  0  0  0  0
209231  1  0  0  0  0
210232  1  0  0  0  0
214233  1  0  0  0  0
215234  1  0  0  0  0
217235  1  0  0  0  0
218236  1  0  0  0  0
M  END
