 xtb: 6.5.1 (b24c23e)
          07302207023D

276315  0     0  0            999 V2000
   50.2492    0.0442   -0.0824 Cu  0  0  0  0  0  0  0  0  0  0  0  0
   46.8416    0.0894   -0.1437 C   0  0  0  0  0  0  0  0  0  0  0  0
   47.4756    1.2750    0.1963 C   0  0  0  0  0  0  0  0  0  0  0  0
   46.7995    2.4923    0.5437 C   0  0  0  0  0  0  0  0  0  0  0  0
   47.7575    3.4074    0.8333 C   0  0  0  0  0  0  0  0  0  0  0  0
   49.0286    2.7592    0.6575 C   0  0  0  0  0  0  0  0  0  0  0  0
   48.8258    1.4639    0.2756 N   0  0  0  0  0  0  0  0  0  0  0  0
   50.2711    3.3552    0.8809 C   0  0  0  0  0  0  0  0  0  0  0  0
   51.5042    2.7164    0.7405 C   0  0  0  0  0  0  0  0  0  0  0  0
   52.7793    3.3426    0.9451 C   0  0  0  0  0  0  0  0  0  0  0  0
   53.7277    2.4054    0.6930 C   0  0  0  0  0  0  0  0  0  0  0  0
   51.6972    1.4153    0.3577 N   0  0  0  0  0  0  0  0  0  0  0  0
   53.0420    1.2042    0.3218 C   0  0  0  0  0  0  0  0  0  0  0  0
   53.6803    0.0031   -0.0301 C   0  0  0  0  0  0  0  0  0  0  0  0
   53.0238   -1.1840   -0.3962 C   0  0  0  0  0  0  0  0  0  0  0  0
   53.6910   -2.3831   -0.8053 C   0  0  0  0  0  0  0  0  0  0  0  0
   52.7282   -3.2966   -1.0885 C   0  0  0  0  0  0  0  0  0  0  0  0
   51.4629   -2.6625   -0.8499 C   0  0  0  0  0  0  0  0  0  0  0  0
   50.2193   -3.2694   -1.0373 C   0  0  0  0  0  0  0  0  0  0  0  0
   50.2090   -4.6952   -1.4512 C   0  0  0  0  0  0  0  0  0  0  0  0
   49.6478   -5.0704   -2.6693 C   0  0  0  0  0  0  0  0  0  0  0  0
   49.6396   -6.4058   -3.0639 C   0  0  0  0  0  0  0  0  0  0  0  0
   49.0254   -6.7917   -4.3827 C   0  0  0  0  0  0  0  0  0  0  0  0
   50.1958   -7.3663   -2.2278 C   0  0  0  0  0  0  0  0  0  0  0  0
   50.7601   -7.0072   -1.0051 C   0  0  0  0  0  0  0  0  0  0  0  0
   51.3564   -8.0643   -0.1151 C   0  0  0  0  0  0  0  0  0  0  0  0
   50.7645   -5.6718   -0.6230 C   0  0  0  0  0  0  0  0  0  0  0  0
   48.9855   -2.6371   -0.8692 C   0  0  0  0  0  0  0  0  0  0  0  0
   47.7037   -3.2718   -1.0156 C   0  0  0  0  0  0  0  0  0  0  0  0
   46.7608   -2.3283   -0.7712 C   0  0  0  0  0  0  0  0  0  0  0  0
   47.4566   -1.1118   -0.4633 C   0  0  0  0  0  0  0  0  0  0  0  0
   48.8038   -1.3284   -0.5243 N   0  0  0  0  0  0  0  0  0  0  0  0
   51.6756   -1.3731   -0.4393 N   0  0  0  0  0  0  0  0  0  0  0  0
   50.2823    4.7797    1.3026 C   0  0  0  0  0  0  0  0  0  0  0  0
   49.8105    5.7704    0.4431 C   0  0  0  0  0  0  0  0  0  0  0  0
   49.8225    7.1060    0.8308 C   0  0  0  0  0  0  0  0  0  0  0  0
   49.3385    8.1752   -0.1112 C   0  0  0  0  0  0  0  0  0  0  0  0
   50.3077    7.4463    2.0901 C   0  0  0  0  0  0  0  0  0  0  0  0
   50.7799    6.4683    2.9602 C   0  0  0  0  0  0  0  0  0  0  0  0
   51.2795    6.8442    4.3291 C   0  0  0  0  0  0  0  0  0  0  0  0
   50.7661    5.1362    2.5602 C   0  0  0  0  0  0  0  0  0  0  0  0
   45.7564    0.0998   -0.1503 H   0  0  0  0  0  0  0  0  0  0  0  0
   45.7280    2.6149    0.5653 H   0  0  0  0  0  0  0  0  0  0  0  0
   47.6234    4.4298    1.1485 H   0  0  0  0  0  0  0  0  0  0  0  0
   52.9263    4.3702    1.2360 H   0  0  0  0  0  0  0  0  0  0  0  0
   54.7989    2.5109    0.7517 H   0  0  0  0  0  0  0  0  0  0  0  0
   54.7602   -2.5000   -0.8777 H   0  0  0  0  0  0  0  0  0  0  0  0
   52.8595   -4.3059   -1.4438 H   0  0  0  0  0  0  0  0  0  0  0  0
   49.2303   -4.3113   -3.3218 H   0  0  0  0  0  0  0  0  0  0  0  0
   49.1925   -7.8468   -4.5987 H   0  0  0  0  0  0  0  0  0  0  0  0
   47.9492   -6.6080   -4.3636 H   0  0  0  0  0  0  0  0  0  0  0  0
   49.4531   -6.1964   -5.1909 H   0  0  0  0  0  0  0  0  0  0  0  0
   50.1930   -8.4090   -2.5286 H   0  0  0  0  0  0  0  0  0  0  0  0
   51.7737   -7.6237    0.7901 H   0  0  0  0  0  0  0  0  0  0  0  0
   50.5947   -8.7920    0.1708 H   0  0  0  0  0  0  0  0  0  0  0  0
   52.1501   -8.5980   -0.6412 H   0  0  0  0  0  0  0  0  0  0  0  0
   51.1884   -5.3808    0.3319 H   0  0  0  0  0  0  0  0  0  0  0  0
   47.5520   -4.3106   -1.2614 H   0  0  0  0  0  0  0  0  0  0  0  0
   45.6874   -2.4347   -0.7870 H   0  0  0  0  0  0  0  0  0  0  0  0
   49.4466    5.4938   -0.5405 H   0  0  0  0  0  0  0  0  0  0  0  0
   48.8808    8.9982    0.4383 H   0  0  0  0  0  0  0  0  0  0  0  0
   48.6106    7.7725   -0.8158 H   0  0  0  0  0  0  0  0  0  0  0  0
   50.1797    8.5751   -0.6821 H   0  0  0  0  0  0  0  0  0  0  0  0
   50.3180    8.4872    2.3970 H   0  0  0  0  0  0  0  0  0  0  0  0
   50.4499    6.8440    5.0398 H   0  0  0  0  0  0  0  0  0  0  0  0
   51.7192    7.8418    4.3217 H   0  0  0  0  0  0  0  0  0  0  0  0
   52.0263    6.1313    4.6793 H   0  0  0  0  0  0  0  0  0  0  0  0
   51.1207    4.3636    3.2336 H   0  0  0  0  0  0  0  0  0  0  0  0
   82.9672    0.0169   -0.0852 Cu  0  0  0  0  0  0  0  0  0  0  0  0
   86.3735    0.0715   -0.1248 C   0  0  0  0  0  0  0  0  0  0  0  0
   85.7514   -0.7519   -1.0513 C   0  0  0  0  0  0  0  0  0  0  0  0
   86.4397   -1.5905   -1.9906 C   0  0  0  0  0  0  0  0  0  0  0  0
   85.4912   -2.2573   -2.6940 C   0  0  0  0  0  0  0  0  0  0  0  0
   84.2134   -1.8276   -2.1943 C   0  0  0  0  0  0  0  0  0  0  0  0
   84.4032   -0.9147   -1.1967 N   0  0  0  0  0  0  0  0  0  0  0  0
   82.9778   -2.3060   -2.6349 C   0  0  0  0  0  0  0  0  0  0  0  0
   81.7390   -1.9237   -2.1174 C   0  0  0  0  0  0  0  0  0  0  0  0
   80.4690   -2.3926   -2.5952 C   0  0  0  0  0  0  0  0  0  0  0  0
   79.5123   -1.7658   -1.8647 C   0  0  0  0  0  0  0  0  0  0  0  0
   81.5349   -1.0173   -1.1110 N   0  0  0  0  0  0  0  0  0  0  0  0
   80.1886   -0.9036   -0.9422 C   0  0  0  0  0  0  0  0  0  0  0  0
   79.5402   -0.0395   -0.0451 C   0  0  0  0  0  0  0  0  0  0  0  0
   80.1819    0.8443    0.8376 C   0  0  0  0  0  0  0  0  0  0  0  0
   79.5002    1.7325    1.7308 C   0  0  0  0  0  0  0  0  0  0  0  0
   80.4530    2.3947    2.4348 C   0  0  0  0  0  0  0  0  0  0  0  0
   81.7257    1.9088    1.9820 C   0  0  0  0  0  0  0  0  0  0  0  0
   82.9627    2.3363    2.4685 C   0  0  0  0  0  0  0  0  0  0  0  0
   82.9580    3.3188    3.5819 C   0  0  0  0  0  0  0  0  0  0  0  0
   83.5215    4.5811    3.4131 C   0  0  0  0  0  0  0  0  0  0  0  0
   83.5188    5.5027    4.4572 C   0  0  0  0  0  0  0  0  0  0  0  0
   84.1394    6.8595    4.2592 C   0  0  0  0  0  0  0  0  0  0  0  0
   82.9495    5.1506    5.6750 C   0  0  0  0  0  0  0  0  0  0  0  0
   82.3819    3.8913    5.8597 C   0  0  0  0  0  0  0  0  0  0  0  0
   81.7738    3.5298    7.1881 C   0  0  0  0  0  0  0  0  0  0  0  0
   82.3884    2.9812    4.8105 C   0  0  0  0  0  0  0  0  0  0  0  0
   84.2030    1.9055    1.9924 C   0  0  0  0  0  0  0  0  0  0  0  0
   85.4783    2.3154    2.5148 C   0  0  0  0  0  0  0  0  0  0  0  0
   86.4306    1.6859    1.7826 C   0  0  0  0  0  0  0  0  0  0  0  0
   85.7470    0.8772    0.8143 C   0  0  0  0  0  0  0  0  0  0  0  0
   84.3979    1.0221    0.9695 N   0  0  0  0  0  0  0  0  0  0  0  0
   81.5277    0.9766    0.9984 N   0  0  0  0  0  0  0  0  0  0  0  0
   82.9827   -3.2948   -3.7434 C   0  0  0  0  0  0  0  0  0  0  0  0
   83.4591   -2.9320   -5.0020 C   0  0  0  0  0  0  0  0  0  0  0  0
   83.4635   -3.8495   -6.0476 C   0  0  0  0  0  0  0  0  0  0  0  0
   83.9530   -3.4423   -7.4112 C   0  0  0  0  0  0  0  0  0  0  0  0
   82.9899   -5.1387   -5.8249 C   0  0  0  0  0  0  0  0  0  0  0  0
   82.5132   -5.5167   -4.5728 C   0  0  0  0  0  0  0  0  0  0  0  0
   82.0264   -6.9216   -4.3400 C   0  0  0  0  0  0  0  0  0  0  0  0
   82.5106   -4.5900   -3.5361 C   0  0  0  0  0  0  0  0  0  0  0  0
   87.4587    0.0778   -0.1278 H   0  0  0  0  0  0  0  0  0  0  0  0
   87.5124   -1.6559   -2.0841 H   0  0  0  0  0  0  0  0  0  0  0  0
   85.6361   -2.9869   -3.4746 H   0  0  0  0  0  0  0  0  0  0  0  0
   80.3310   -3.1004   -3.3964 H   0  0  0  0  0  0  0  0  0  0  0  0
   78.4414   -1.8640   -1.9447 H   0  0  0  0  0  0  0  0  0  0  0  0
   78.4289    1.8320    1.8028 H   0  0  0  0  0  0  0  0  0  0  0  0
   80.3110    3.1537    3.1871 H   0  0  0  0  0  0  0  0  0  0  0  0
   83.9499    4.8516    2.4541 H   0  0  0  0  0  0  0  0  0  0  0  0
   83.9182    7.5174    5.0995 H   0  0  0  0  0  0  0  0  0  0  0  0
   85.2237    6.7655    4.1701 H   0  0  0  0  0  0  0  0  0  0  0  0
   83.7660    7.3209    3.3439 H   0  0  0  0  0  0  0  0  0  0  0  0
   82.9444    5.8636    6.4932 H   0  0  0  0  0  0  0  0  0  0  0  0
   81.3205    2.5393    7.1542 H   0  0  0  0  0  0  0  0  0  0  0  0
   82.5384    3.5356    7.9673 H   0  0  0  0  0  0  0  0  0  0  0  0
   81.0071    4.2556    7.4646 H   0  0  0  0  0  0  0  0  0  0  0  0
   81.9622    1.9930    4.9452 H   0  0  0  0  0  0  0  0  0  0  0  0
   85.6197    2.9906    3.3434 H   0  0  0  0  0  0  0  0  0  0  0  0
   87.5028    1.7490    1.8832 H   0  0  0  0  0  0  0  0  0  0  0  0
   83.8138   -1.9203   -5.1664 H   0  0  0  0  0  0  0  0  0  0  0  0
   84.3645   -4.2973   -7.9480 H   0  0  0  0  0  0  0  0  0  0  0  0
   84.7195   -2.6708   -7.3341 H   0  0  0  0  0  0  0  0  0  0  0  0
   83.1240   -3.0397   -7.9979 H   0  0  0  0  0  0  0  0  0  0  0  0
   82.9920   -5.8586   -6.6369 H   0  0  0  0  0  0  0  0  0  0  0  0
   82.8729   -7.5766   -4.1215 H   0  0  0  0  0  0  0  0  0  0  0  0
   81.5204   -7.3075   -5.2254 H   0  0  0  0  0  0  0  0  0  0  0  0
   81.3388   -6.9605   -3.4950 H   0  0  0  0  0  0  0  0  0  0  0  0
   82.1534   -4.8760   -2.5528 H   0  0  0  0  0  0  0  0  0  0  0  0
   55.0914   -0.0086   -0.0244 C   0  0  0  0  0  0  0  0  0  0  0  0
   56.3079   -0.0206   -0.0201 C   0  0  0  0  0  0  0  0  0  0  0  0
   66.0044   -0.1197    0.0584 C   0  0  0  0  0  0  0  0  0  0  0  0
   67.2212   -0.1265    0.0660 C   0  0  0  0  0  0  0  0  0  0  0  0
   76.9130   -0.0641   -0.0263 C   0  0  0  0  0  0  0  0  0  0  0  0
   78.1287   -0.0529   -0.0368 C   0  0  0  0  0  0  0  0  0  0  0  0
   61.1573   -0.0714    0.0139 Cu  0  0  0  0  0  0  0  0  0  0  0  0
   57.7185   -0.0344   -0.0131 C   0  0  0  0  0  0  0  0  0  0  0  0
   58.3818    1.1771   -0.2731 C   0  0  0  0  0  0  0  0  0  0  0  0
   57.7225    2.4242   -0.5191 C   0  0  0  0  0  0  0  0  0  0  0  0
   58.6914    3.3484   -0.7415 C   0  0  0  0  0  0  0  0  0  0  0  0
   59.9509    2.6683   -0.6432 C   0  0  0  0  0  0  0  0  0  0  0  0
   59.7301    1.3484   -0.3522 N   0  0  0  0  0  0  0  0  0  0  0  0
   61.1989    3.2720   -0.8074 C   0  0  0  0  0  0  0  0  0  0  0  0
   62.4308    2.6319   -0.6611 C   0  0  0  0  0  0  0  0  0  0  0  0
   63.7059    3.2430   -0.9043 C   0  0  0  0  0  0  0  0  0  0  0  0
   64.6510    2.2982   -0.6666 C   0  0  0  0  0  0  0  0  0  0  0  0
   62.6187    1.3267   -0.2906 N   0  0  0  0  0  0  0  0  0  0  0  0
   63.9613    1.1040   -0.2817 C   0  0  0  0  0  0  0  0  0  0  0  0
   64.5952   -0.1076    0.0457 C   0  0  0  0  0  0  0  0  0  0  0  0
   63.9309   -1.3062    0.3586 C   0  0  0  0  0  0  0  0  0  0  0  0
   64.5887   -2.5165    0.7492 C   0  0  0  0  0  0  0  0  0  0  0  0
   63.6197   -3.4425    0.9648 C   0  0  0  0  0  0  0  0  0  0  0  0
   62.3621   -2.8033    0.7025 C   0  0  0  0  0  0  0  0  0  0  0  0
   61.1145   -3.4177    0.8230 C   0  0  0  0  0  0  0  0  0  0  0  0
   61.0973   -4.8599    1.1773 C   0  0  0  0  0  0  0  0  0  0  0  0
   60.5189   -5.2843    2.3718 C   0  0  0  0  0  0  0  0  0  0  0  0
   60.5015   -6.6345    2.7082 C   0  0  0  0  0  0  0  0  0  0  0  0
   59.8978   -7.0802    4.0127 C   0  0  0  0  0  0  0  0  0  0  0  0
   61.0641   -7.5610    1.8369 C   0  0  0  0  0  0  0  0  0  0  0  0
   61.6427   -7.1526    0.6375 C   0  0  0  0  0  0  0  0  0  0  0  0
   62.2512   -8.1704   -0.2892 C   0  0  0  0  0  0  0  0  0  0  0  0
   61.6599   -5.8011    0.3151 C   0  0  0  0  0  0  0  0  0  0  0  0
   59.8827   -2.7867    0.6408 C   0  0  0  0  0  0  0  0  0  0  0  0
   58.6074   -3.4401    0.7150 C   0  0  0  0  0  0  0  0  0  0  0  0
   57.6623   -2.4940    0.4828 C   0  0  0  0  0  0  0  0  0  0  0  0
   58.3522   -1.2604    0.2533 C   0  0  0  0  0  0  0  0  0  0  0  0
   59.6949   -1.4610    0.3531 N   0  0  0  0  0  0  0  0  0  0  0  0
   62.5839   -1.5006    0.3425 N   0  0  0  0  0  0  0  0  0  0  0  0
   61.2196    4.7115   -1.1725 C   0  0  0  0  0  0  0  0  0  0  0  0
   61.7884    5.6470   -0.3101 C   0  0  0  0  0  0  0  0  0  0  0  0
   61.8086    6.9969   -0.6456 C   0  0  0  0  0  0  0  0  0  0  0  0
   62.4357    7.9990    0.2859 C   0  0  0  0  0  0  0  0  0  0  0  0
   61.2619    7.4063   -1.8577 C   0  0  0  0  0  0  0  0  0  0  0  0
   60.6923    6.4836   -2.7307 C   0  0  0  0  0  0  0  0  0  0  0  0
   60.1238    6.9377   -4.0481 C   0  0  0  0  0  0  0  0  0  0  0  0
   60.6718    5.1379   -2.3818 C   0  0  0  0  0  0  0  0  0  0  0  0
   56.6542    2.5680   -0.5189 H   0  0  0  0  0  0  0  0  0  0  0  0
   58.5682    4.4001   -0.9437 H   0  0  0  0  0  0  0  0  0  0  0  0
   63.8547    4.2595   -1.2309 H   0  0  0  0  0  0  0  0  0  0  0  0
   65.7212    2.3907   -0.7573 H   0  0  0  0  0  0  0  0  0  0  0  0
   65.6552   -2.6319    0.8567 H   0  0  0  0  0  0  0  0  0  0  0  0
   63.7409   -4.4638    1.2878 H   0  0  0  0  0  0  0  0  0  0  0  0
   60.0925   -4.5515    3.0481 H   0  0  0  0  0  0  0  0  0  0  0  0
   59.5666   -8.1171    3.9546 H   0  0  0  0  0  0  0  0  0  0  0  0
   60.6403   -7.0038    4.8104 H   0  0  0  0  0  0  0  0  0  0  0  0
   59.0479   -6.4520    4.2808 H   0  0  0  0  0  0  0  0  0  0  0  0
   61.0505   -8.6157    2.0922 H   0  0  0  0  0  0  0  0  0  0  0  0
   62.4799   -7.7286   -1.2589 H   0  0  0  0  0  0  0  0  0  0  0  0
   61.5700   -9.0096   -0.4371 H   0  0  0  0  0  0  0  0  0  0  0  0
   63.1771   -8.5600    0.1392 H   0  0  0  0  0  0  0  0  0  0  0  0
   62.0964   -5.4707   -0.6211 H   0  0  0  0  0  0  0  0  0  0  0  0
   58.4582   -4.4900    0.9088 H   0  0  0  0  0  0  0  0  0  0  0  0
   56.5912   -2.6148    0.4641 H   0  0  0  0  0  0  0  0  0  0  0  0
   62.2009    5.3172    0.6372 H   0  0  0  0  0  0  0  0  0  0  0  0
   61.9967    8.9871    0.1476 H   0  0  0  0  0  0  0  0  0  0  0  0
   63.5073    8.0714    0.0858 H   0  0  0  0  0  0  0  0  0  0  0  0
   62.3056    7.6966    1.3253 H   0  0  0  0  0  0  0  0  0  0  0  0
   61.2766    8.4580   -2.1249 H   0  0  0  0  0  0  0  0  0  0  0  0
   59.6555    7.9176   -3.9506 H   0  0  0  0  0  0  0  0  0  0  0  0
   59.3842    6.2279   -4.4187 H   0  0  0  0  0  0  0  0  0  0  0  0
   60.9224    7.0166   -4.7894 H   0  0  0  0  0  0  0  0  0  0  0  0
   60.2404    4.4080   -3.0580 H   0  0  0  0  0  0  0  0  0  0  0  0
   72.0676   -0.1000    0.0314 Cu  0  0  0  0  0  0  0  0  0  0  0  0
   68.6305   -0.1230    0.0652 C   0  0  0  0  0  0  0  0  0  0  0  0
   69.2738    1.1100    0.2723 C   0  0  0  0  0  0  0  0  0  0  0  0
   68.5941    2.3363    0.5623 C   0  0  0  0  0  0  0  0  0  0  0  0
   69.5459    3.2943    0.7000 C   0  0  0  0  0  0  0  0  0  0  0  0
   70.8150    2.6583    0.4915 C   0  0  0  0  0  0  0  0  0  0  0  0
   70.6170    1.3267    0.2387 N   0  0  0  0  0  0  0  0  0  0  0  0
   72.0509    3.3036    0.5639 C   0  0  0  0  0  0  0  0  0  0  0  0
   73.2943    2.6801    0.4451 C   0  0  0  0  0  0  0  0  0  0  0  0
   74.5584    3.3595    0.4552 C   0  0  0  0  0  0  0  0  0  0  0  0
   75.5195    2.4135    0.3006 C   0  0  0  0  0  0  0  0  0  0  0  0
   73.5042    1.3374    0.2775 N   0  0  0  0  0  0  0  0  0  0  0  0
   74.8497    1.1528    0.1864 C   0  0  0  0  0  0  0  0  0  0  0  0
   75.5021   -0.0752   -0.0124 C   0  0  0  0  0  0  0  0  0  0  0  0
   74.8622   -1.3119   -0.1962 C   0  0  0  0  0  0  0  0  0  0  0  0
   75.5469   -2.5626   -0.3306 C   0  0  0  0  0  0  0  0  0  0  0  0
   74.5956   -3.5224   -0.4582 C   0  0  0  0  0  0  0  0  0  0  0  0
   73.3223   -2.8618   -0.4120 C   0  0  0  0  0  0  0  0  0  0  0  0
   72.0854   -3.5043   -0.4944 C   0  0  0  0  0  0  0  0  0  0  0  0
   72.0929   -4.9737   -0.7079 C   0  0  0  0  0  0  0  0  0  0  0  0
   71.5470   -5.8241    0.2513 C   0  0  0  0  0  0  0  0  0  0  0  0
   71.5556   -7.2028    0.0615 C   0  0  0  0  0  0  0  0  0  0  0  0
   70.9859   -8.1126    1.1164 C   0  0  0  0  0  0  0  0  0  0  0  0
   72.1122   -7.7269   -1.0999 C   0  0  0  0  0  0  0  0  0  0  0  0
   72.6577   -6.8895   -2.0704 C   0  0  0  0  0  0  0  0  0  0  0  0
   73.2587   -7.4778   -3.3185 C   0  0  0  0  0  0  0  0  0  0  0  0
   72.6478   -5.5149   -1.8678 C   0  0  0  0  0  0  0  0  0  0  0  0
   70.8420   -2.8778   -0.3901 C   0  0  0  0  0  0  0  0  0  0  0  0
   69.5771   -3.5328   -0.5635 C   0  0  0  0  0  0  0  0  0  0  0  0
   68.6155   -2.5869   -0.4113 C   0  0  0  0  0  0  0  0  0  0  0  0
   69.2847   -1.3492   -0.1459 C   0  0  0  0  0  0  0  0  0  0  0  0
   70.6312   -1.5479   -0.1397 N   0  0  0  0  0  0  0  0  0  0  0  0
   73.5173   -1.5161   -0.2503 N   0  0  0  0  0  0  0  0  0  0  0  0
   72.0407    4.7726    0.7798 C   0  0  0  0  0  0  0  0  0  0  0  0
   72.6159    5.3221    1.9248 C   0  0  0  0  0  0  0  0  0  0  0  0
   72.6034    6.6973    2.1307 C   0  0  0  0  0  0  0  0  0  0  0  0
   73.2350    7.2881    3.3624 C   0  0  0  0  0  0  0  0  0  0  0  0
   72.0172    7.5249    1.1772 C   0  0  0  0  0  0  0  0  0  0  0  0
   71.4406    6.9916    0.0286 C   0  0  0  0  0  0  0  0  0  0  0  0
   70.8281    7.8957   -1.0070 C   0  0  0  0  0  0  0  0  0  0  0  0
   71.4533    5.6142   -0.1636 C   0  0  0  0  0  0  0  0  0  0  0  0
   67.5259    2.4409    0.6632 H   0  0  0  0  0  0  0  0  0  0  0  0
   69.4058    4.3358    0.9401 H   0  0  0  0  0  0  0  0  0  0  0  0
   74.6893    4.4252    0.5516 H   0  0  0  0  0  0  0  0  0  0  0  0
   76.5879    2.5507    0.2521 H   0  0  0  0  0  0  0  0  0  0  0  0
   76.6183   -2.6838   -0.3138 H   0  0  0  0  0  0  0  0  0  0  0  0
   74.7395   -4.5860   -0.5592 H   0  0  0  0  0  0  0  0  0  0  0  0
   71.1262   -5.4047    1.1587 H   0  0  0  0  0  0  0  0  0  0  0  0
   70.7167   -9.0803    0.6930 H   0  0  0  0  0  0  0  0  0  0  0  0
   71.7255   -8.2778    1.9033 H   0  0  0  0  0  0  0  0  0  0  0  0
   70.1010   -7.6682    1.5731 H   0  0  0  0  0  0  0  0  0  0  0  0
   72.1204   -8.8010   -1.2549 H   0  0  0  0  0  0  0  0  0  0  0  0
   73.5057   -6.6980   -4.0387 H   0  0  0  0  0  0  0  0  0  0  0  0
   72.5636   -8.1783   -3.7841 H   0  0  0  0  0  0  0  0  0  0  0  0
   74.1721   -8.0236   -3.0731 H   0  0  0  0  0  0  0  0  0  0  0  0
   73.0571   -4.8512   -2.6216 H   0  0  0  0  0  0  0  0  0  0  0  0
   69.4459   -4.5782   -0.7918 H   0  0  0  0  0  0  0  0  0  0  0  0
   67.5465   -2.7068   -0.4840 H   0  0  0  0  0  0  0  0  0  0  0  0
   73.0578    4.6659    2.6666 H   0  0  0  0  0  0  0  0  0  0  0  0
   72.6888    8.1724    3.6919 H   0  0  0  0  0  0  0  0  0  0  0  0
   74.2632    7.5865    3.1453 H   0  0  0  0  0  0  0  0  0  0  0  0
   73.2560    6.5624    4.1755 H   0  0  0  0  0  0  0  0  0  0  0  0
   72.0065    8.5987    1.3338 H   0  0  0  0  0  0  0  0  0  0  0  0
   70.4390    8.8050   -0.5482 H   0  0  0  0  0  0  0  0  0  0  0  0
   70.0178    7.3904   -1.5331 H   0  0  0  0  0  0  0  0  0  0  0  0
   71.5835    8.1825   -1.7423 H   0  0  0  0  0  0  0  0  0  0  0  0
   71.0160    5.1873   -1.0596 H   0  0  0  0  0  0  0  0  0  0  0  0
  2  3  4  0  0  0  0
  3  4  1  0  0  0  0
  4  5  2  0  0  0  0
  5  6  4  0  0  0  0
  1  7  1  0  0  0  0
  3  7  4  0  0  0  0
  6  7  4  0  0  0  0
  6  8  4  0  0  0  0
  8  9  4  0  0  0  0
  9 10  4  0  0  0  0
 10 11  2  0  0  0  0
  1 12  1  0  0  0  0
  9 12  4  0  0  0  0
 11 13  4  0  0  0  0
 12 13  4  0  0  0  0
 13 14  4  0  0  0  0
 14 15  4  0  0  0  0
 15 16  4  0  0  0  0
 16 17  2  0  0  0  0
 17 18  4  0  0  0  0
 18 19  4  0  0  0  0
 19 20  1  0  0  0  0
 20 21  4  0  0  0  0
 21 22  4  0  0  0  0
 22 23  1  0  0  0  0
 22 24  4  0  0  0  0
 24 25  4  0  0  0  0
 25 26  1  0  0  0  0
 20 27  4  0  0  0  0
 25 27  4  0  0  0  0
 19 28  4  0  0  0  0
 28 29  4  0  0  0  0
 29 30  2  0  0  0  0
  2 31  4  0  0  0  0
 30 31  1  0  0  0  0
  1 32  1  0  0  0  0
 28 32  4  0  0  0  0
 31 32  4  0  0  0  0
  1 33  1  0  0  0  0
 15 33  4  0  0  0  0
 18 33  4  0  0  0  0
  8 34  1  0  0  0  0
 34 35  4  0  0  0  0
 35 36  4  0  0  0  0
 36 37  1  0  0  0  0
 36 38  4  0  0  0  0
 38 39  4  0  0  0  0
 39 40  1  0  0  0  0
 34 41  4  0  0  0  0
 39 41  4  0  0  0  0
  2 42  1  0  0  0  0
  4 43  1  0  0  0  0
  5 44  1  0  0  0  0
 10 45  1  0  0  0  0
 11 46  1  0  0  0  0
 16 47  1  0  0  0  0
 17 48  1  0  0  0  0
 21 49  1  0  0  0  0
 23 50  1  0  0  0  0
 23 51  1  0  0  0  0
 23 52  1  0  0  0  0
 24 53  1  0  0  0  0
 26 54  1  0  0  0  0
 26 55  1  0  0  0  0
 26 56  1  0  0  0  0
 27 57  1  0  0  0  0
 29 58  1  0  0  0  0
 30 59  1  0  0  0  0
 35 60  1  0  0  0  0
 37 61  1  0  0  0  0
 37 62  1  0  0  0  0
 37 63  1  0  0  0  0
 38 64  1  0  0  0  0
 40 65  1  0  0  0  0
 40 66  1  0  0  0  0
 40 67  1  0  0  0  0
 41 68  1  0  0  0  0
 70 71  4  0  0  0  0
 71 72  1  0  0  0  0
 72 73  2  0  0  0  0
 73 74  4  0  0  0  0
 69 75  1  0  0  0  0
 71 75  4  0  0  0  0
 74 75  4  0  0  0  0
 74 76  4  0  0  0  0
 76 77  4  0  0  0  0
 77 78  4  0  0  0  0
 78 79  2  0  0  0  0
 69 80  1  0  0  0  0
 77 80  4  0  0  0  0
 79 81  4  0  0  0  0
 80 81  4  0  0  0  0
 81 82  4  0  0  0  0
 82 83  4  0  0  0  0
 83 84  4  0  0  0  0
 84 85  2  0  0  0  0
 85 86  4  0  0  0  0
 86 87  4  0  0  0  0
 87 88  1  0  0  0  0
 88 89  4  0  0  0  0
 89 90  4  0  0  0  0
 90 91  1  0  0  0  0
 90 92  4  0  0  0  0
 92 93  4  0  0  0  0
 93 94  1  0  0  0  0
 88 95  4  0  0  0  0
 93 95  4  0  0  0  0
 87 96  4  0  0  0  0
 96 97  4  0  0  0  0
 97 98  2  0  0  0  0
 70 99  4  0  0  0  0
 98 99  1  0  0  0  0
 69100  1  0  0  0  0
 96100  4  0  0  0  0
 99100  4  0  0  0  0
 69101  1  0  0  0  0
 83101  4  0  0  0  0
 86101  4  0  0  0  0
 76102  1  0  0  0  0
102103  4  0  0  0  0
103104  4  0  0  0  0
104105  1  0  0  0  0
104106  4  0  0  0  0
106107  4  0  0  0  0
107108  1  0  0  0  0
102109  4  0  0  0  0
107109  4  0  0  0  0
 70110  1  0  0  0  0
 72111  1  0  0  0  0
 73112  1  0  0  0  0
 78113  1  0  0  0  0
 79114  1  0  0  0  0
 84115  1  0  0  0  0
 85116  1  0  0  0  0
 89117  1  0  0  0  0
 91118  1  0  0  0  0
 91119  1  0  0  0  0
 91120  1  0  0  0  0
 92121  1  0  0  0  0
 94122  1  0  0  0  0
 94123  1  0  0  0  0
 94124  1  0  0  0  0
 95125  1  0  0  0  0
 97126  1  0  0  0  0
 98127  1  0  0  0  0
103128  1  0  0  0  0
105129  1  0  0  0  0
105130  1  0  0  0  0
105131  1  0  0  0  0
106132  1  0  0  0  0
108133  1  0  0  0  0
108134  1  0  0  0  0
108135  1  0  0  0  0
109136  1  0  0  0  0
 14137  4  0  0  0  0
137138  3  0  0  0  0
139140  3  0  0  0  0
 82142  4  0  0  0  0
141142  3  0  0  0  0
138144  4  0  0  0  0
144145  4  0  0  0  0
145146  4  0  0  0  0
146147  2  0  0  0  0
147148  4  0  0  0  0
143149  1  0  0  0  0
145149  4  0  0  0  0
148149  4  0  0  0  0
148150  4  0  0  0  0
150151  4  0  0  0  0
151152  4  0  0  0  0
152153  2  0  0  0  0
143154  1  0  0  0  0
151154  4  0  0  0  0
153155  4  0  0  0  0
154155  4  0  0  0  0
139156  4  0  0  0  0
155156  4  0  0  0  0
156157  4  0  0  0  0
157158  4  0  0  0  0
158159  2  0  0  0  0
159160  4  0  0  0  0
160161  4  0  0  0  0
161162  1  0  0  0  0
162163  4  0  0  0  0
163164  4  0  0  0  0
164165  1  0  0  0  0
164166  4  0  0  0  0
166167  4  0  0  0  0
167168  1  0  0  0  0
162169  4  0  0  0  0
167169  4  0  0  0  0
161170  4  0  0  0  0
170171  4  0  0  0  0
171172  2  0  0  0  0
144173  4  0  0  0  0
172173  4  0  0  0  0
143174  1  0  0  0  0
170174  4  0  0  0  0
173174  4  0  0  0  0
143175  1  0  0  0  0
157175  4  0  0  0  0
160175  4  0  0  0  0
150176  1  0  0  0  0
176177  4  0  0  0  0
177178  4  0  0  0  0
178179  1  0  0  0  0
178180  4  0  0  0  0
180181  4  0  0  0  0
181182  1  0  0  0  0
176183  4  0  0  0  0
181183  4  0  0  0  0
146184  1  0  0  0  0
147185  1  0  0  0  0
152186  1  0  0  0  0
153187  1  0  0  0  0
158188  1  0  0  0  0
159189  1  0  0  0  0
163190  1  0  0  0  0
165191  1  0  0  0  0
165192  1  0  0  0  0
165193  1  0  0  0  0
166194  1  0  0  0  0
168195  1  0  0  0  0
168196  1  0  0  0  0
168197  1  0  0  0  0
169198  1  0  0  0  0
171199  1  0  0  0  0
172200  1  0  0  0  0
177201  1  0  0  0  0
179202  1  0  0  0  0
179203  1  0  0  0  0
179204  1  0  0  0  0
180205  1  0  0  0  0
182206  1  0  0  0  0
182207  1  0  0  0  0
182208  1  0  0  0  0
183209  1  0  0  0  0
140211  4  0  0  0  0
211212  4  0  0  0  0
212213  4  0  0  0  0
213214  2  0  0  0  0
214215  4  0  0  0  0
210216  1  0  0  0  0
212216  4  0  0  0  0
215216  4  0  0  0  0
215217  4  0  0  0  0
217218  4  0  0  0  0
218219  4  0  0  0  0
219220  2  0  0  0  0
210221  1  0  0  0  0
218221  4  0  0  0  0
220222  4  0  0  0  0
221222  4  0  0  0  0
141223  4  0  0  0  0
222223  4  0  0  0  0
223224  4  0  0  0  0
224225  4  0  0  0  0
225226  2  0  0  0  0
226227  4  0  0  0  0
227228  4  0  0  0  0
228229  1  0  0  0  0
229230  4  0  0  0  0
230231  4  0  0  0  0
231232  1  0  0  0  0
231233  4  0  0  0  0
233234  4  0  0  0  0
234235  1  0  0  0  0
229236  4  0  0  0  0
234236  4  0  0  0  0
228237  4  0  0  0  0
237238  4  0  0  0  0
238239  2  0  0  0  0
211240  4  0  0  0  0
239240  4  0  0  0  0
210241  1  0  0  0  0
237241  4  0  0  0  0
240241  4  0  0  0  0
210242  1  0  0  0  0
224242  4  0  0  0  0
227242  4  0  0  0  0
217243  1  0  0  0  0
243244  4  0  0  0  0
244245  4  0  0  0  0
245246  1  0  0  0  0
245247  4  0  0  0  0
247248  4  0  0  0  0
248249  1  0  0  0  0
243250  4  0  0  0  0
248250  4  0  0  0  0
213251  1  0  0  0  0
214252  1  0  0  0  0
219253  1  0  0  0  0
220254  1  0  0  0  0
225255  1  0  0  0  0
226256  1  0  0  0  0
230257  1  0  0  0  0
232258  1  0  0  0  0
232259  1  0  0  0  0
232260  1  0  0  0  0
233261  1  0  0  0  0
235262  1  0  0  0  0
235263  1  0  0  0  0
235264  1  0  0  0  0
236265  1  0  0  0  0
238266  1  0  0  0  0
239267  1  0  0  0  0
244268  1  0  0  0  0
246269  1  0  0  0  0
246270  1  0  0  0  0
246271  1  0  0  0  0
247272  1  0  0  0  0
249273  1  0  0  0  0
249274  1  0  0  0  0
249275  1  0  0  0  0
250276  1  0  0  0  0
M  END
