 xtb: 6.5.1 (b24c23e)
          07292216003D

122141  0     0  0            999 V2000
   17.1488    0.0593   -0.1131 Fe  0  0  0  0  0  0  0  0  0  0  0  0
   13.7631    0.1085   -0.1890 C   0  0  0  0  0  0  0  0  0  0  0  0
   14.4256    1.3184   -0.1609 C   0  0  0  0  0  0  0  0  0  0  0  0
   13.7602    2.5863   -0.1658 C   0  0  0  0  0  0  0  0  0  0  0  0
   14.7172    3.5272    0.0106 C   0  0  0  0  0  0  0  0  0  0  0  0
   15.9687    2.8328    0.1087 C   0  0  0  0  0  0  0  0  0  0  0  0
   15.7779    1.4832   -0.0120 N   0  0  0  0  0  0  0  0  0  0  0  0
   17.1816    3.4489    0.3978 C   0  0  0  0  0  0  0  0  0  0  0  0
   17.1998    4.9154    0.6111 C   0  0  0  0  0  0  0  0  0  0  0  0
   17.5292    5.4423    1.8629 C   0  0  0  0  0  0  0  0  0  0  0  0
   17.5482    6.8098    2.0594 C   0  0  0  0  0  0  0  0  0  0  0  0
   17.2447    7.6800    1.0073 C   0  0  0  0  0  0  0  0  0  0  0  0
   17.2756    9.1359    1.2419 C   0  0  0  0  0  0  0  0  0  0  0  0
   17.5414    9.6361    2.3043 O   0  0  0  0  0  0  0  0  0  0  0  0
   16.9184    7.1535   -0.2446 C   0  0  0  0  0  0  0  0  0  0  0  0
   16.8934    5.7838   -0.4395 C   0  0  0  0  0  0  0  0  0  0  0  0
   18.3808    2.7555    0.4797 C   0  0  0  0  0  0  0  0  0  0  0  0
   19.6473    3.3794    0.7229 C   0  0  0  0  0  0  0  0  0  0  0  0
   20.5905    2.4199    0.5689 C   0  0  0  0  0  0  0  0  0  0  0  0
   18.5522    1.4182    0.2105 N   0  0  0  0  0  0  0  0  0  0  0  0
   19.9007    1.2152    0.2292 C   0  0  0  0  0  0  0  0  0  0  0  0
   20.5548    0.0182   -0.0859 C   0  0  0  0  0  0  0  0  0  0  0  0
   19.8706   -1.1713   -0.3618 C   0  0  0  0  0  0  0  0  0  0  0  0
   20.5265   -2.3951   -0.6996 C   0  0  0  0  0  0  0  0  0  0  0  0
   19.5651   -3.3476   -0.7649 C   0  0  0  0  0  0  0  0  0  0  0  0
   18.3221   -2.6989   -0.4721 C   0  0  0  0  0  0  0  0  0  0  0  0
   18.5225   -1.3565   -0.2628 N   0  0  0  0  0  0  0  0  0  0  0  0
   17.1024   -3.3587   -0.3936 C   0  0  0  0  0  0  0  0  0  0  0  0
   17.0918   -4.8334   -0.5214 C   0  0  0  0  0  0  0  0  0  0  0  0
   16.4023   -5.4502   -1.5689 C   0  0  0  0  0  0  0  0  0  0  0  0
   16.4008   -6.8285   -1.6905 C   0  0  0  0  0  0  0  0  0  0  0  0
   17.0840   -7.6177   -0.7623 C   0  0  0  0  0  0  0  0  0  0  0  0
   17.0965   -9.0886   -0.8689 C   0  0  0  0  0  0  0  0  0  0  0  0
   17.6700   -9.8102   -0.0942 O   0  0  0  0  0  0  0  0  0  0  0  0
   17.7717   -7.0006    0.2878 C   0  0  0  0  0  0  0  0  0  0  0  0
   17.7790   -5.6241    0.4047 C   0  0  0  0  0  0  0  0  0  0  0  0
   15.8945   -2.6916   -0.2212 C   0  0  0  0  0  0  0  0  0  0  0  0
   14.6196   -3.3440   -0.1358 C   0  0  0  0  0  0  0  0  0  0  0  0
   13.6826   -2.3675   -0.1019 C   0  0  0  0  0  0  0  0  0  0  0  0
   14.3867   -1.1215   -0.1441 C   0  0  0  0  0  0  0  0  0  0  0  0
   15.7402   -1.3321   -0.1751 N   0  0  0  0  0  0  0  0  0  0  0  0
   12.6799    0.1255   -0.2296 H   0  0  0  0  0  0  0  0  0  0  0  0
   12.6955    2.7181   -0.2747 H   0  0  0  0  0  0  0  0  0  0  0  0
   14.5968    4.5959    0.0831 H   0  0  0  0  0  0  0  0  0  0  0  0
   17.7559    4.7691    2.6818 H   0  0  0  0  0  0  0  0  0  0  0  0
   17.7981    7.2281    3.0285 H   0  0  0  0  0  0  0  0  0  0  0  0
   17.0287    9.7469    0.3476 H   0  0  0  0  0  0  0  0  0  0  0  0
   16.6853    7.8219   -1.0671 H   0  0  0  0  0  0  0  0  0  0  0  0
   16.6516    5.3772   -1.4150 H   0  0  0  0  0  0  0  0  0  0  0  0
   19.7889    4.4209    0.9608 H   0  0  0  0  0  0  0  0  0  0  0  0
   21.6596    2.5083    0.6711 H   0  0  0  0  0  0  0  0  0  0  0  0
   21.5860   -2.4989   -0.8668 H   0  0  0  0  0  0  0  0  0  0  0  0
   19.6762   -4.3929   -1.0031 H   0  0  0  0  0  0  0  0  0  0  0  0
   15.8825   -4.8396   -2.2986 H   0  0  0  0  0  0  0  0  0  0  0  0
   15.8690   -7.2992   -2.5109 H   0  0  0  0  0  0  0  0  0  0  0  0
   16.5257   -9.4878   -1.7343 H   0  0  0  0  0  0  0  0  0  0  0  0
   18.2971   -7.6217    1.0053 H   0  0  0  0  0  0  0  0  0  0  0  0
   18.3050   -5.1481    1.2245 H   0  0  0  0  0  0  0  0  0  0  0  0
   14.4731   -4.4114   -0.1060 H   0  0  0  0  0  0  0  0  0  0  0  0
   12.6098   -2.4625   -0.0489 H   0  0  0  0  0  0  0  0  0  0  0  0
   27.9889   -0.0426   -0.1204 Fe  0  0  0  0  0  0  0  0  0  0  0  0
   31.3746   -0.0805   -0.2026 C   0  0  0  0  0  0  0  0  0  0  0  0
   30.7121   -1.2820   -0.3470 C   0  0  0  0  0  0  0  0  0  0  0  0
   31.3776   -2.5364   -0.5324 C   0  0  0  0  0  0  0  0  0  0  0  0
   30.4205   -3.4928   -0.4917 C   0  0  0  0  0  0  0  0  0  0  0  0
   29.1691   -2.8194   -0.2958 C   0  0  0  0  0  0  0  0  0  0  0  0
   29.3599   -1.4664   -0.2231 N   0  0  0  0  0  0  0  0  0  0  0  0
   27.9562   -3.4704   -0.0974 C   0  0  0  0  0  0  0  0  0  0  0  0
   27.9380   -4.9523   -0.0951 C   0  0  0  0  0  0  0  0  0  0  0  0
   27.6085   -5.6521    1.0689 C   0  0  0  0  0  0  0  0  0  0  0  0
   27.5895   -7.0337    1.0686 C   0  0  0  0  0  0  0  0  0  0  0  0
   27.8932   -7.7451   -0.0967 C   0  0  0  0  0  0  0  0  0  0  0  0
   27.8631   -9.2196   -0.0716 C   0  0  0  0  0  0  0  0  0  0  0  0
   27.5962   -9.8660    0.9085 O   0  0  0  0  0  0  0  0  0  0  0  0
   28.2194   -7.0458   -1.2608 C   0  0  0  0  0  0  0  0  0  0  0  0
   28.2444   -5.6622   -1.2587 C   0  0  0  0  0  0  0  0  0  0  0  0
   26.7570   -2.7957    0.0824 C   0  0  0  0  0  0  0  0  0  0  0  0
   25.4904   -3.4479    0.2342 C   0  0  0  0  0  0  0  0  0  0  0  0
   24.5472   -2.4762    0.2185 C   0  0  0  0  0  0  0  0  0  0  0  0
   26.5856   -1.4337    0.0064 N   0  0  0  0  0  0  0  0  0  0  0  0
   25.2371   -1.2355    0.0538 C   0  0  0  0  0  0  0  0  0  0  0  0
   24.5830   -0.0058   -0.0876 C   0  0  0  0  0  0  0  0  0  0  0  0
   25.2672    1.2109   -0.1913 C   0  0  0  0  0  0  0  0  0  0  0  0
   24.6113    2.4704   -0.3514 C   0  0  0  0  0  0  0  0  0  0  0  0
   25.5727    3.4224   -0.2803 C   0  0  0  0  0  0  0  0  0  0  0  0
   26.8157    2.7386   -0.0830 C   0  0  0  0  0  0  0  0  0  0  0  0
   26.6153    1.3801   -0.0670 N   0  0  0  0  0  0  0  0  0  0  0  0
   28.0354    3.3805    0.0887 C   0  0  0  0  0  0  0  0  0  0  0  0
   28.0460    4.8584    0.1723 C   0  0  0  0  0  0  0  0  0  0  0  0
   28.7355    5.6181   -0.7767 C   0  0  0  0  0  0  0  0  0  0  0  0
   28.7369    6.9996   -0.7008 C   0  0  0  0  0  0  0  0  0  0  0  0
   28.0538    7.6486    0.3303 C   0  0  0  0  0  0  0  0  0  0  0  0
   28.0414    9.1197    0.4343 C   0  0  0  0  0  0  0  0  0  0  0  0
   27.4676    9.7236    1.3037 O   0  0  0  0  0  0  0  0  0  0  0  0
   27.3660    6.8883    1.2819 C   0  0  0  0  0  0  0  0  0  0  0  0
   27.3588    5.5091    1.2015 C   0  0  0  0  0  0  0  0  0  0  0  0
   29.2433    2.6957    0.1643 C   0  0  0  0  0  0  0  0  0  0  0  0
   30.5182    3.3292    0.3417 C   0  0  0  0  0  0  0  0  0  0  0  0
   31.4552    2.3579    0.2362 C   0  0  0  0  0  0  0  0  0  0  0  0
   30.7510    1.1306    0.0170 C   0  0  0  0  0  0  0  0  0  0  0  0
   29.3975    1.3435    0.0165 N   0  0  0  0  0  0  0  0  0  0  0  0
   32.4579   -0.0915   -0.2451 H   0  0  0  0  0  0  0  0  0  0  0  0
   32.4423   -2.6514   -0.6588 H   0  0  0  0  0  0  0  0  0  0  0  0
   30.5409   -4.5609   -0.5721 H   0  0  0  0  0  0  0  0  0  0  0  0
   27.3818   -5.1024    1.9753 H   0  0  0  0  0  0  0  0  0  0  0  0
   27.3397   -7.5857    1.9683 H   0  0  0  0  0  0  0  0  0  0  0  0
   28.1082   -9.6971   -1.0442 H   0  0  0  0  0  0  0  0  0  0  0  0
   28.4526   -7.5902   -2.1701 H   0  0  0  0  0  0  0  0  0  0  0  0
   28.4862   -5.1208   -2.1663 H   0  0  0  0  0  0  0  0  0  0  0  0
   25.3488   -4.5126    0.3215 H   0  0  0  0  0  0  0  0  0  0  0  0
   23.4782   -2.5783    0.3071 H   0  0  0  0  0  0  0  0  0  0  0  0
   23.5517    2.5969   -0.5020 H   0  0  0  0  0  0  0  0  0  0  0  0
   25.4615    4.4909   -0.3672 H   0  0  0  0  0  0  0  0  0  0  0  0
   29.2551    5.1177   -1.5860 H   0  0  0  0  0  0  0  0  0  0  0  0
   29.2687    7.5824   -1.4459 H   0  0  0  0  0  0  0  0  0  0  0  0
   28.6121    9.6380   -0.3654 H   0  0  0  0  0  0  0  0  0  0  0  0
   26.8407    7.4008    2.0805 H   0  0  0  0  0  0  0  0  0  0  0  0
   26.8328    4.9212    1.9452 H   0  0  0  0  0  0  0  0  0  0  0  0
   30.6647    4.3816    0.5231 H   0  0  0  0  0  0  0  0  0  0  0  0
   32.5280    2.4444    0.3022 H   0  0  0  0  0  0  0  0  0  0  0  0
   21.9597    0.0072   -0.1017 C   0  0  0  0  0  0  0  0  0  0  0  0
   23.1780    0.0074   -0.1017 C   0  0  0  0  0  0  0  0  0  0  0  0
  2  3  4  0  0  0  0
  3  4  4  0  0  0  0
  4  5  2  0  0  0  0
  5  6  4  0  0  0  0
  1  7  1  0  0  0  0
  3  7  4  0  0  0  0
  6  7  4  0  0  0  0
  6  8  4  0  0  0  0
  8  9  1  0  0  0  0
  9 10  4  0  0  0  0
 10 11  4  0  0  0  0
 11 12  4  0  0  0  0
 12 13  1  0  0  0  0
 13 14  2  0  0  0  0
 12 15  4  0  0  0  0
  9 16  4  0  0  0  0
 15 16  4  0  0  0  0
  8 17  4  0  0  0  0
 17 18  4  0  0  0  0
 18 19  2  0  0  0  0
  1 20  1  0  0  0  0
 17 20  4  0  0  0  0
 19 21  4  0  0  0  0
 20 21  4  0  0  0  0
 21 22  4  0  0  0  0
 22 23  4  0  0  0  0
 23 24  4  0  0  0  0
 24 25  2  0  0  0  0
 25 26  4  0  0  0  0
  1 27  1  0  0  0  0
 23 27  4  0  0  0  0
 26 27  4  0  0  0  0
 26 28  4  0  0  0  0
 28 29  1  0  0  0  0
 29 30  4  0  0  0  0
 30 31  4  0  0  0  0
 31 32  4  0  0  0  0
 32 33  1  0  0  0  0
 33 34  2  0  0  0  0
 32 35  4  0  0  0  0
 29 36  4  0  0  0  0
 35 36  4  0  0  0  0
 28 37  4  0  0  0  0
 37 38  4  0  0  0  0
 38 39  2  0  0  0  0
  2 40  4  0  0  0  0
 39 40  4  0  0  0  0
  1 41  1  0  0  0  0
 37 41  4  0  0  0  0
 40 41  4  0  0  0  0
  2 42  1  0  0  0  0
  4 43  1  0  0  0  0
  5 44  1  0  0  0  0
 10 45  1  0  0  0  0
 11 46  1  0  0  0  0
 13 47  1  0  0  0  0
 15 48  1  0  0  0  0
 16 49  1  0  0  0  0
 18 50  1  0  0  0  0
 19 51  1  0  0  0  0
 24 52  1  0  0  0  0
 25 53  1  0  0  0  0
 30 54  1  0  0  0  0
 31 55  1  0  0  0  0
 33 56  1  0  0  0  0
 35 57  1  0  0  0  0
 36 58  1  0  0  0  0
 38 59  1  0  0  0  0
 39 60  1  0  0  0  0
 62 63  4  0  0  0  0
 63 64  4  0  0  0  0
 64 65  2  0  0  0  0
 65 66  4  0  0  0  0
 61 67  1  0  0  0  0
 63 67  4  0  0  0  0
 66 67  4  0  0  0  0
 66 68  4  0  0  0  0
 68 69  1  0  0  0  0
 69 70  4  0  0  0  0
 70 71  4  0  0  0  0
 71 72  4  0  0  0  0
 72 73  1  0  0  0  0
 73 74  2  0  0  0  0
 72 75  4  0  0  0  0
 69 76  4  0  0  0  0
 75 76  4  0  0  0  0
 68 77  4  0  0  0  0
 77 78  4  0  0  0  0
 78 79  2  0  0  0  0
 61 80  1  0  0  0  0
 77 80  4  0  0  0  0
 79 81  4  0  0  0  0
 80 81  4  0  0  0  0
 81 82  4  0  0  0  0
 82 83  4  0  0  0  0
 83 84  4  0  0  0  0
 84 85  2  0  0  0  0
 85 86  4  0  0  0  0
 61 87  1  0  0  0  0
 83 87  4  0  0  0  0
 86 87  4  0  0  0  0
 86 88  4  0  0  0  0
 88 89  1  0  0  0  0
 89 90  4  0  0  0  0
 90 91  4  0  0  0  0
 91 92  4  0  0  0  0
 92 93  1  0  0  0  0
 93 94  2  0  0  0  0
 92 95  4  0  0  0  0
 89 96  4  0  0  0  0
 95 96  4  0  0  0  0
 88 97  4  0  0  0  0
 97 98  4  0  0  0  0
 98 99  2  0  0  0  0
 62100  4  0  0  0  0
 99100  4  0  0  0  0
 61101  1  0  0  0  0
 97101  4  0  0  0  0
100101  4  0  0  0  0
 62102  1  0  0  0  0
 64103  1  0  0  0  0
 65104  1  0  0  0  0
 70105  1  0  0  0  0
 71106  1  0  0  0  0
 73107  1  0  0  0  0
 75108  1  0  0  0  0
 76109  1  0  0  0  0
 78110  1  0  0  0  0
 79111  1  0  0  0  0
 84112  1  0  0  0  0
 85113  1  0  0  0  0
 90114  1  0  0  0  0
 91115  1  0  0  0  0
 93116  1  0  0  0  0
 95117  1  0  0  0  0
 96118  1  0  0  0  0
 98119  1  0  0  0  0
 99120  1  0  0  0  0
 22121  1  0  0  0  0
 82122  1  0  0  0  0
121122  3  0  0  0  0
M  END
