296

C 45.357380 -0.042101 -0.123322
C 46.084763 -0.238873 1.246463
C 45.483484 -0.591540 2.434775
C 46.503799 -0.626119 3.418966
C 47.684653 -0.262912 2.808369
N 47.428351 -0.087534 1.470307
C 49.102734 -0.115401 3.506672
C 50.236751 -0.058905 2.750788
C 51.548643 0.091376 3.347740
C 52.450350 0.152371 2.375813
N 50.431161 -0.099387 1.394502
C 51.765284 0.020097 1.104261
C 52.425564 0.028482 -0.083325
C 51.641767 -0.163182 -1.451782
C 52.153733 -0.712658 -2.610534
C 51.131881 -0.674461 -3.592072
C 50.028001 -0.099299 -3.008210
C 48.625490 0.165500 -3.712893
C 48.618549 0.379089 -5.191219
C 49.110604 1.568399 -5.767110
O 49.604944 2.653350 -5.090936
C 48.723772 3.220863 -4.121418
C 49.212065 1.693889 -7.160316
C 48.782690 0.669103 -7.999580
C 48.266803 -0.501199 -7.448091
C 48.203103 -0.664175 -6.057643
O 47.698409 -1.807923 -5.487139
C 47.945445 -3.029967 -6.176897
C 47.502338 0.191826 -2.948179
C 46.171311 0.355043 -3.504923
C 45.287671 0.273956 -2.513271
C 46.021985 0.083606 -1.286606
N 47.348789 0.066339 -1.595176
N 50.329197 0.156340 -1.688929
C 49.140014 -0.000344 4.996557
C 48.839472 1.213819 5.653304
O 48.375780 2.334293 5.011566
C 49.389405 3.008333 4.269619
C 48.872140 1.305109 7.049652
C 49.230205 0.200725 7.816121
C 49.516560 -1.011676 7.188057
C 49.471421 -1.123770 5.789102
O 49.676823 -2.311597 5.133198
C 50.462432 -3.297411 5.783222
H 44.265790 -0.005768 -0.118291
H 44.433450 -0.796668 2.576539
H 46.385702 -0.864913 4.463308
H 48.126566 0.110830 0.757397
H 51.762126 0.155154 4.398713
H 53.508286 0.262798 2.530117
H 53.147423 -1.110020 -2.732767
H 51.188180 -1.027444 -4.609333
H 49.235752 3.248266 -3.150199
H 48.510668 4.253217 -4.420243
H 47.774151 2.703450 -4.015468
H 49.629478 2.604245 -7.579290
H 48.849986 0.781132 -9.075225
H 47.919937 -1.284880 -8.113210
H 47.796683 -3.856211 -5.478232
H 47.226902 -3.155172 -6.993851
H 48.973937 -3.084591 -6.548716
H 45.933679 0.477677 -4.544007
H 44.216209 0.325971 -2.604274
H 49.652715 0.448852 -0.989007
H 49.670330 3.926160 4.795412
H 48.977238 3.295880 3.297185
H 50.290228 2.424192 4.097720
H 48.604697 2.240207 7.530768
H 49.259293 0.281822 8.899306
H 49.744621 -1.868467 7.810282
H 49.886654 -3.791126 6.568727
H 50.736591 -4.053067 5.044269
H 51.387473 -2.873796 6.190151
C 88.175469 -0.038286 -0.037242
C 87.448085 -0.355437 -1.384256
C 88.049364 -0.811822 -2.536720
C 87.029050 -0.933312 -3.513995
C 85.848196 -0.517525 -2.937915
N 86.104498 -0.224489 -1.620608
C 84.430115 -0.432352 -3.646528
C 83.296098 -0.309224 -2.898603
C 81.984206 -0.212329 -3.506507
C 81.082498 -0.065612 -2.543783
N 83.101688 -0.229591 -1.544052
C 81.767565 -0.084906 -1.265516
C 81.107284 0.028482 -0.083325
C 81.891082 -0.041399 1.296721
C 81.379116 -0.486236 2.499530
C 82.400968 -0.361377 3.473843
C 83.504848 0.159891 2.841399
C 84.907359 0.485979 3.519900
C 84.914300 0.829480 4.973543
C 84.422244 2.065063 5.441988
O 83.927905 3.085959 4.672506
C 84.809077 3.565500 3.656594
C 84.320783 2.313284 6.818635
C 84.750159 1.366742 7.745247
C 85.266046 0.152250 7.299426
C 85.329746 -0.133065 5.928841
O 85.834440 -1.322789 5.461731
C 85.587404 -2.479038 6.256869
C 86.030511 0.444567 2.755855
C 87.361538 0.656385 3.295982
C 88.245178 0.487909 2.315387
C 87.510863 0.189814 1.110365
N 86.184060 0.199906 1.419253
N 83.203652 0.297846 1.504679
C 84.392834 -0.449518 -5.140750
C 84.693377 0.701801 -5.902309
O 85.157069 1.874642 -5.362186
C 84.143444 2.611662 -4.682762
C 84.660709 0.669234 -7.301260
C 84.302644 -0.498613 -7.967048
C 84.016289 -1.650713 -7.234215
C 84.061428 -1.638638 -5.830828
O 83.856025 -2.763800 -5.072438
C 83.070417 -3.803241 -5.632725
H 89.267059 -0.002541 -0.045467
H 89.099399 -1.028684 -2.659785
H 87.147146 -1.263537 -4.533124
H 85.406283 0.036150 -0.928036
H 81.770723 -0.241754 -4.559002
H 80.024563 0.030736 -2.707250
H 80.385425 -0.871230 2.656428
H 82.344669 -0.623005 4.518337
H 84.297096 3.506897 2.686758
H 85.022181 4.620237 3.862942
H 85.758698 3.040743 3.596822
H 83.903371 3.257128 7.155452
H 84.682863 1.573467 8.806769
H 85.612912 -0.569534 8.031251
H 85.736166 -3.363837 5.634019
H 86.305947 -2.531498 7.081696
H 84.558912 -2.500563 6.632063
H 87.599169 0.870439 4.320147
H 89.316640 0.547769 2.401433
H 83.880133 0.527307 0.781628
H 83.862519 3.479388 -5.287671
H 84.555610 2.984088 -3.739570
H 83.242621 2.045013 -4.459872
H 84.928152 1.558115 -7.863194
H 84.273556 -0.513635 -9.053161
H 83.788228 -2.559179 -7.778223
H 83.646195 -4.364495 -6.371485
H 82.796258 -4.490580 -4.829835
H 82.145376 -3.417277 -6.075525
C 54.837049 0.028482 -0.083325
C 56.058967 0.028482 -0.083325
C 66.155466 0.028482 -0.083325
C 67.377383 0.028482 -0.083325
C 77.473882 0.028482 -0.083325
C 78.695800 0.028482 -0.083325
C 57.570616 -0.030065 0.087954
C 58.361779 1.226319 0.651338
C 57.832887 2.260631 1.395028
C 58.867779 3.208149 1.581675
C 60.002477 2.721589 0.969178
N 59.701445 1.483255 0.458823
C 61.409926 3.454921 0.873118
C 62.541929 2.733433 0.641830
C 63.842678 3.361954 0.520296
C 64.752784 2.415132 0.340096
N 62.747096 1.388361 0.484526
C 64.079682 1.133193 0.296234
C 64.748867 -0.030065 0.087954
C 63.947261 -1.393761 -0.015023
C 64.446052 -2.664801 0.216675
C 63.410167 -3.586934 -0.068425
C 62.311091 -2.849277 -0.472903
C 60.916309 -3.434893 -0.951158
C 60.922439 -4.781733 -1.601155
C 60.558519 -5.913774 -0.822660
O 60.234049 -5.697333 0.493280
C 59.294709 -6.588125 1.077144
C 60.600815 -7.204061 -1.370284
C 61.011120 -7.392526 -2.681368
C 61.376180 -6.292347 -3.449607
C 61.323033 -4.987702 -2.938356
O 61.733617 -4.060370 -3.866501
C 61.063274 -2.799014 -3.850473
C 59.778799 -2.706543 -0.781144
C 58.474786 -3.215054 -1.160679
C 57.562107 -2.297656 -0.867282
C 58.239500 -1.146655 -0.301132
N 59.576142 -1.449304 -0.279531
N 62.626461 -1.517021 -0.372476
C 61.439289 4.939380 1.024914
C 61.506065 5.775905 -0.107871
O 61.566389 5.217288 -1.362075
C 60.431307 5.572881 -2.154291
C 61.575427 7.170502 0.026922
C 61.543765 7.756146 1.290323
C 61.437323 6.950744 2.422157
C 61.404326 5.556273 2.294403
O 61.243549 4.851177 3.459715
C 62.479535 4.275776 3.889506
H 56.813146 2.344863 1.748802
H 58.796709 4.147040 2.107481
H 60.371946 0.850823 0.024731
H 64.046645 4.414619 0.579708
H 65.805796 2.587170 0.229381
H 65.449150 -2.907422 0.541675
H 63.461999 -4.666565 -0.000548
H 58.895346 -6.116099 1.981787
H 59.789631 -7.519548 1.380378
H 58.445349 -6.788107 0.407665
H 60.354950 -8.073757 -0.773857
H 61.061295 -8.390516 -3.104479
H 61.705049 -6.441217 -4.468944
H 61.067827 -2.456050 -4.900582
H 59.999694 -2.898361 -3.563407
H 61.605435 -2.055575 -3.251126
H 58.274696 -4.173657 -1.599682
H 56.508037 -2.411403 -1.038874
H 61.980641 -0.740636 -0.494943
H 60.659280 6.487582 -2.717857
H 59.521782 5.725528 -1.560631
H 60.251937 4.767409 -2.880463
H 61.671188 7.797047 -0.854261
H 61.602271 8.835416 1.390478
H 61.403590 7.395119 3.409087
H 63.225971 4.162365 3.100123
H 62.262421 3.289524 4.319742
H 62.905515 4.907815 4.677497
C 68.889033 -0.030065 0.087954
C 69.680195 1.226319 0.651338
C 69.151303 2.260631 1.395028
C 70.186195 3.208149 1.581675
C 71.320894 2.721589 0.969178
N 71.019861 1.483255 0.458823
C 72.728342 3.454921 0.873118
C 73.860346 2.733433 0.641830
C 75.161095 3.361954 0.520296
C 76.071200 2.415132 0.340096
N 74.065513 1.388361 0.484526
C 75.398098 1.133193 0.296234
C 76.067283 -0.030065 0.087954
C 75.265678 -1.393761 -0.015023
C 75.764469 -2.664801 0.216675
C 74.728584 -3.586934 -0.068425
C 73.629507 -2.849277 -0.472903
C 72.234726 -3.434893 -0.951158
C 72.240855 -4.781733 -1.601155
C 71.876935 -5.913774 -0.822660
O 71.552465 -5.697333 0.493280
C 70.613126 -6.588125 1.077144
C 71.919231 -7.204061 -1.370284
C 72.329537 -7.392526 -2.681368
C 72.694597 -6.292347 -3.449607
C 72.641450 -4.987702 -2.938356
O 73.052034 -4.060370 -3.866501
C 72.381690 -2.799014 -3.850473
C 71.097216 -2.706543 -0.781144
C 69.793202 -3.215054 -1.160679
C 68.880523 -2.297656 -0.867282
C 69.557916 -1.146655 -0.301132
N 70.894558 -1.449304 -0.279531
N 73.944877 -1.517021 -0.372476
C 72.757706 4.939380 1.024914
C 72.824481 5.775905 -0.107871
O 72.884805 5.217288 -1.362075
C 71.749723 5.572881 -2.154291
C 72.893844 7.170502 0.026922
C 72.862181 7.756146 1.290323
C 72.755739 6.950744 2.422157
C 72.722743 5.556273 2.294403
O 72.561966 4.851177 3.459715
C 73.797951 4.275776 3.889506
H 68.131562 2.344863 1.748802
H 70.115125 4.147040 2.107481
H 71.690363 0.850823 0.024731
H 75.365061 4.414619 0.579708
H 77.124213 2.587170 0.229381
H 76.767566 -2.907422 0.541675
H 74.780415 -4.666565 -0.000548
H 70.213762 -6.116099 1.981787
H 71.108048 -7.519548 1.380378
H 69.763766 -6.788107 0.407665
H 71.673366 -8.073757 -0.773857
H 72.379712 -8.390516 -3.104479
H 73.023466 -6.441217 -4.468944
H 72.386243 -2.456050 -4.900582
H 71.318110 -2.898361 -3.563407
H 72.923852 -2.055575 -3.251126
H 69.593112 -4.173657 -1.599682
H 67.826454 -2.411403 -1.038874
H 73.299058 -0.740636 -0.494943
H 71.977696 6.487582 -2.717857
H 70.840198 5.725528 -1.560631
H 71.570354 4.767409 -2.880463
H 72.989604 7.797047 -0.854261
H 72.920688 8.835416 1.390478
H 72.722006 7.395119 3.409087
H 74.544387 4.162365 3.100123
H 73.580837 3.289524 4.319742
H 74.223931 4.907815 4.677497
