 xtb: 6.5.1 (b24c23e)
          07272217423D

286313  0     0  0            999 V2000
   41.9074    0.0787   -0.0034 C   0  0  0  0  0  0  0  0  0  0  0  0
   42.5210    1.2774    0.3372 C   0  0  0  0  0  0  0  0  0  0  0  0
   41.8748    2.4914    0.7037 C   0  0  0  0  0  0  0  0  0  0  0  0
   42.8414    3.4253    0.9507 C   0  0  0  0  0  0  0  0  0  0  0  0
   44.1094    2.8149    0.7325 C   0  0  0  0  0  0  0  0  0  0  0  0
   43.8652    1.5191    0.3747 N   0  0  0  0  0  0  0  0  0  0  0  0
   45.3743    3.3980    0.8647 C   0  0  0  0  0  0  0  0  0  0  0  0
   46.5869    2.7345    0.6654 C   0  0  0  0  0  0  0  0  0  0  0  0
   47.8853    3.3796    0.7434 C   0  0  0  0  0  0  0  0  0  0  0  0
   48.8033    2.4224    0.4959 C   0  0  0  0  0  0  0  0  0  0  0  0
   46.7378    1.4167    0.3578 N   0  0  0  0  0  0  0  0  0  0  0  0
   48.0644    1.1968    0.2610 C   0  0  0  0  0  0  0  0  0  0  0  0
   48.6973   -0.0341   -0.0052 C   0  0  0  0  0  0  0  0  0  0  0  0
   48.0572   -1.2592   -0.2709 C   0  0  0  0  0  0  0  0  0  0  0  0
   48.6962   -2.5042   -0.5125 C   0  0  0  0  0  0  0  0  0  0  0  0
   47.7256   -3.4362   -0.7568 C   0  0  0  0  0  0  0  0  0  0  0  0
   46.4631   -2.7855   -0.6802 C   0  0  0  0  0  0  0  0  0  0  0  0
   45.1998   -3.3580   -0.8620 C   0  0  0  0  0  0  0  0  0  0  0  0
   45.1641   -4.7934   -1.2349 C   0  0  0  0  0  0  0  0  0  0  0  0
   44.5324   -5.7209   -0.4075 C   0  0  0  0  0  0  0  0  0  0  0  0
   44.4993   -7.0680   -0.7517 C   0  0  0  0  0  0  0  0  0  0  0  0
   43.8022   -8.0599    0.1399 C   0  0  0  0  0  0  0  0  0  0  0  0
   45.0994   -7.4846   -1.9361 C   0  0  0  0  0  0  0  0  0  0  0  0
   45.7337   -6.5714   -2.7730 C   0  0  0  0  0  0  0  0  0  0  0  0
   46.3618   -7.0272   -4.0624 C   0  0  0  0  0  0  0  0  0  0  0  0
   45.7641   -5.2274   -2.4166 C   0  0  0  0  0  0  0  0  0  0  0  0
   43.9861   -2.6770   -0.7218 C   0  0  0  0  0  0  0  0  0  0  0  0
   42.6811   -3.2723   -0.9638 C   0  0  0  0  0  0  0  0  0  0  0  0
   41.7700   -2.3093   -0.7181 C   0  0  0  0  0  0  0  0  0  0  0  0
   42.5173   -1.1233   -0.3385 C   0  0  0  0  0  0  0  0  0  0  0  0
   43.8483   -1.3790   -0.3606 N   0  0  0  0  0  0  0  0  0  0  0  0
   46.7154   -1.4745   -0.3724 N   0  0  0  0  0  0  0  0  0  0  0  0
   45.4116    4.8318    1.2469 C   0  0  0  0  0  0  0  0  0  0  0  0
   46.0170    5.2230    2.4395 C   0  0  0  0  0  0  0  0  0  0  0  0
   46.0496    6.5640    2.8095 C   0  0  0  0  0  0  0  0  0  0  0  0
   46.7172    6.9737    4.0944 C   0  0  0  0  0  0  0  0  0  0  0  0
   45.4755    7.5156    1.9734 C   0  0  0  0  0  0  0  0  0  0  0  0
   44.8689    7.1408    0.7772 C   0  0  0  0  0  0  0  0  0  0  0  0
   44.2724    8.1849   -0.1277 C   0  0  0  0  0  0  0  0  0  0  0  0
   44.8380    5.7978    0.4202 C   0  0  0  0  0  0  0  0  0  0  0  0
   40.8221    0.0922   -0.0064 H   0  0  0  0  0  0  0  0  0  0  0  0
   40.8061    2.6187    0.7717 H   0  0  0  0  0  0  0  0  0  0  0  0
   42.6960    4.4466    1.2634 H   0  0  0  0  0  0  0  0  0  0  0  0
   44.5873    0.8366    0.1701 H   0  0  0  0  0  0  0  0  0  0  0  0
   48.0488    4.4256    0.9463 H   0  0  0  0  0  0  0  0  0  0  0  0
   49.8774    2.5121    0.4641 H   0  0  0  0  0  0  0  0  0  0  0  0
   49.7631   -2.6581   -0.4947 H   0  0  0  0  0  0  0  0  0  0  0  0
   47.8678   -4.4845   -0.9634 H   0  0  0  0  0  0  0  0  0  0  0  0
   44.0823   -5.3873    0.5210 H   0  0  0  0  0  0  0  0  0  0  0  0
   42.7425   -8.1113   -0.1208 H   0  0  0  0  0  0  0  0  0  0  0  0
   44.2294   -9.0560    0.0230 H   0  0  0  0  0  0  0  0  0  0  0  0
   43.8791   -7.7625    1.1859 H   0  0  0  0  0  0  0  0  0  0  0  0
   45.0756   -8.5347   -2.2090 H   0  0  0  0  0  0  0  0  0  0  0  0
   47.2206   -6.4056   -4.3168 H   0  0  0  0  0  0  0  0  0  0  0  0
   46.6856   -8.0658   -3.9914 H   0  0  0  0  0  0  0  0  0  0  0  0
   45.6361   -6.9520   -4.8754 H   0  0  0  0  0  0  0  0  0  0  0  0
   46.2431   -4.5049   -3.0686 H   0  0  0  0  0  0  0  0  0  0  0  0
   42.5109   -4.2861   -1.2889 H   0  0  0  0  0  0  0  0  0  0  0  0
   40.6946   -2.3630   -0.7870 H   0  0  0  0  0  0  0  0  0  0  0  0
   45.9967   -0.7707   -0.2393 H   0  0  0  0  0  0  0  0  0  0  0  0
   46.4488    4.4705    3.0902 H   0  0  0  0  0  0  0  0  0  0  0  0
   46.4937    6.2616    4.8896 H   0  0  0  0  0  0  0  0  0  0  0  0
   46.3895    7.9654    4.4063 H   0  0  0  0  0  0  0  0  0  0  0  0
   47.8008    6.9979    3.9582 H   0  0  0  0  0  0  0  0  0  0  0  0
   45.4979    8.5629    2.2566 H   0  0  0  0  0  0  0  0  0  0  0  0
   43.7847    8.9677    0.4543 H   0  0  0  0  0  0  0  0  0  0  0  0
   45.0585    8.6497   -0.7271 H   0  0  0  0  0  0  0  0  0  0  0  0
   43.5428    7.7426   -0.8060 H   0  0  0  0  0  0  0  0  0  0  0  0
   44.3808    5.4954   -0.5157 H   0  0  0  0  0  0  0  0  0  0  0  0
   89.0135   -0.0863   -0.0418 C   0  0  0  0  0  0  0  0  0  0  0  0
   88.4002   -1.3000   -0.3249 C   0  0  0  0  0  0  0  0  0  0  0  0
   89.0477   -2.5393   -0.5901 C   0  0  0  0  0  0  0  0  0  0  0  0
   88.0821   -3.4780   -0.8222 C   0  0  0  0  0  0  0  0  0  0  0  0
   86.8133   -2.8404   -0.7153 C   0  0  0  0  0  0  0  0  0  0  0  0
   87.0562   -1.5317   -0.4068 N   0  0  0  0  0  0  0  0  0  0  0  0
   85.5488   -3.4201   -0.8667 C   0  0  0  0  0  0  0  0  0  0  0  0
   84.3353   -2.7469   -0.7096 C   0  0  0  0  0  0  0  0  0  0  0  0
   83.0358   -3.3581   -0.9230 C   0  0  0  0  0  0  0  0  0  0  0  0
   82.1179   -2.3987   -0.6837 C   0  0  0  0  0  0  0  0  0  0  0  0
   84.1846   -1.4380   -0.3648 N   0  0  0  0  0  0  0  0  0  0  0  0
   82.8577   -1.2012   -0.3349 C   0  0  0  0  0  0  0  0  0  0  0  0
   82.2251    0.0198   -0.0252 C   0  0  0  0  0  0  0  0  0  0  0  0
   82.8639    1.2349    0.2860 C   0  0  0  0  0  0  0  0  0  0  0  0
   82.2227    2.4538    0.6323 C   0  0  0  0  0  0  0  0  0  0  0  0
   83.1925    3.3883    0.8696 C   0  0  0  0  0  0  0  0  0  0  0  0
   84.4571    2.7700    0.6652 C   0  0  0  0  0  0  0  0  0  0  0  0
   85.7207    3.3517    0.8094 C   0  0  0  0  0  0  0  0  0  0  0  0
   85.7588    4.7878    1.1806 C   0  0  0  0  0  0  0  0  0  0  0  0
   86.3553    5.1863    2.3763 C   0  0  0  0  0  0  0  0  0  0  0  0
   86.3905    6.5292    2.7358 C   0  0  0  0  0  0  0  0  0  0  0  0
   87.0479    6.9517    4.0219 C   0  0  0  0  0  0  0  0  0  0  0  0
   85.8290    7.4776    1.8860 C   0  0  0  0  0  0  0  0  0  0  0  0
   85.2310    7.0962    0.6887 C   0  0  0  0  0  0  0  0  0  0  0  0
   84.6457    8.1307   -0.2344 C   0  0  0  0  0  0  0  0  0  0  0  0
   85.1970    5.7496    0.3420 C   0  0  0  0  0  0  0  0  0  0  0  0
   86.9348    2.6802    0.6326 C   0  0  0  0  0  0  0  0  0  0  0  0
   88.2408    3.3128    0.7318 C   0  0  0  0  0  0  0  0  0  0  0  0
   89.1521    2.3480    0.4942 C   0  0  0  0  0  0  0  0  0  0  0  0
   88.4040    1.1292    0.2406 C   0  0  0  0  0  0  0  0  0  0  0  0
   87.0724    1.3685    0.3247 N   0  0  0  0  0  0  0  0  0  0  0  0
   84.2062    1.4679    0.3204 N   0  0  0  0  0  0  0  0  0  0  0  0
   85.5157   -4.8602   -1.2249 C   0  0  0  0  0  0  0  0  0  0  0  0
   84.9244   -5.7856   -0.3672 C   0  0  0  0  0  0  0  0  0  0  0  0
   84.8978   -7.1377   -0.6952 C   0  0  0  0  0  0  0  0  0  0  0  0
   84.2459   -8.1249    0.2350 C   0  0  0  0  0  0  0  0  0  0  0  0
   85.4639   -7.5597   -1.8934 C   0  0  0  0  0  0  0  0  0  0  0  0
   86.0578   -6.6473   -2.7617 C   0  0  0  0  0  0  0  0  0  0  0  0
   86.6482   -7.1154   -4.0644 C   0  0  0  0  0  0  0  0  0  0  0  0
   86.0823   -5.2997   -2.4214 C   0  0  0  0  0  0  0  0  0  0  0  0
   90.0988   -0.0986   -0.0440 H   0  0  0  0  0  0  0  0  0  0  0  0
   90.1166   -2.6820   -0.5937 H   0  0  0  0  0  0  0  0  0  0  0  0
   88.2292   -4.5234   -1.0405 H   0  0  0  0  0  0  0  0  0  0  0  0
   86.3332   -0.8364   -0.2552 H   0  0  0  0  0  0  0  0  0  0  0  0
   82.8706   -4.3788   -1.2277 H   0  0  0  0  0  0  0  0  0  0  0  0
   81.0432   -2.4668   -0.7396 H   0  0  0  0  0  0  0  0  0  0  0  0
   81.1547    2.5865    0.6971 H   0  0  0  0  0  0  0  0  0  0  0  0
   83.0484    4.4136    1.1693 H   0  0  0  0  0  0  0  0  0  0  0  0
   86.7762    4.4367    3.0374 H   0  0  0  0  0  0  0  0  0  0  0  0
   88.1133    7.1253    3.8537 H   0  0  0  0  0  0  0  0  0  0  0  0
   86.6086    7.8756    4.3985 H   0  0  0  0  0  0  0  0  0  0  0  0
   86.9472    6.1766    4.7819 H   0  0  0  0  0  0  0  0  0  0  0  0
   85.8548    8.5268    2.1620 H   0  0  0  0  0  0  0  0  0  0  0  0
   83.7956    7.7247   -0.7832 H   0  0  0  0  0  0  0  0  0  0  0  0
   84.3200    9.0094    0.3226 H   0  0  0  0  0  0  0  0  0  0  0  0
   85.3979    8.4477   -0.9605 H   0  0  0  0  0  0  0  0  0  0  0  0
   84.7456    5.4428   -0.5953 H   0  0  0  0  0  0  0  0  0  0  0  0
   88.4113    4.3565    0.9419 H   0  0  0  0  0  0  0  0  0  0  0  0
   90.2282    2.4242    0.4772 H   0  0  0  0  0  0  0  0  0  0  0  0
   84.9265    0.7787    0.1311 H   0  0  0  0  0  0  0  0  0  0  0  0
   84.4992   -5.4474    0.5715 H   0  0  0  0  0  0  0  0  0  0  0  0
   84.4788   -7.8877    1.2737 H   0  0  0  0  0  0  0  0  0  0  0  0
   84.5784   -9.1408    0.0219 H   0  0  0  0  0  0  0  0  0  0  0  0
   83.1608   -8.0872    0.1155 H   0  0  0  0  0  0  0  0  0  0  0  0
   85.4458   -8.6128   -2.1546 H   0  0  0  0  0  0  0  0  0  0  0  0
   87.1169   -8.0930   -3.9476 H   0  0  0  0  0  0  0  0  0  0  0  0
   85.8620   -7.2050   -4.8175 H   0  0  0  0  0  0  0  0  0  0  0  0
   87.3924   -6.4084   -4.4314 H   0  0  0  0  0  0  0  0  0  0  0  0
   86.5299   -4.5781   -3.0961 H   0  0  0  0  0  0  0  0  0  0  0  0
   51.3257   -0.0676   -0.0189 C   0  0  0  0  0  0  0  0  0  0  0  0
   50.1038   -0.0536   -0.0097 C   0  0  0  0  0  0  0  0  0  0  0  0
   52.6754   -0.0748   -0.0225 C   0  0  0  0  0  0  0  0  0  0  0  0
   53.8976   -0.0719   -0.0320 C   0  0  0  0  0  0  0  0  0  0  0  0
   64.7877   -0.0319   -0.0609 C   0  0  0  0  0  0  0  0  0  0  0  0
   63.5650   -0.0399   -0.0669 C   0  0  0  0  0  0  0  0  0  0  0  0
   66.1358   -0.0274   -0.0543 C   0  0  0  0  0  0  0  0  0  0  0  0
   67.3585   -0.0155   -0.0503 C   0  0  0  0  0  0  0  0  0  0  0  0
   78.2469    0.0693   -0.0268 C   0  0  0  0  0  0  0  0  0  0  0  0
   77.0246    0.0718   -0.0265 C   0  0  0  0  0  0  0  0  0  0  0  0
   79.5966    0.0584   -0.0249 C   0  0  0  0  0  0  0  0  0  0  0  0
   80.8185    0.0405   -0.0240 C   0  0  0  0  0  0  0  0  0  0  0  0
   55.3033   -0.0707   -0.0437 C   0  0  0  0  0  0  0  0  0  0  0  0
   55.9332   -1.2572    0.3780 C   0  0  0  0  0  0  0  0  0  0  0  0
   55.2876   -2.4339    0.8380 C   0  0  0  0  0  0  0  0  0  0  0  0
   56.2551   -3.3474    1.1573 C   0  0  0  0  0  0  0  0  0  0  0  0
   57.5203   -2.7566    0.8922 C   0  0  0  0  0  0  0  0  0  0  0  0
   57.2748   -1.4916    0.4285 N   0  0  0  0  0  0  0  0  0  0  0  0
   58.7815   -3.3326    1.0861 C   0  0  0  0  0  0  0  0  0  0  0  0
   60.0043   -2.7040    0.8492 C   0  0  0  0  0  0  0  0  0  0  0  0
   61.2922   -3.3545    1.0101 C   0  0  0  0  0  0  0  0  0  0  0  0
   62.2273   -2.4366    0.6885 C   0  0  0  0  0  0  0  0  0  0  0  0
   60.1783   -1.4225    0.4213 N   0  0  0  0  0  0  0  0  0  0  0  0
   61.5089   -1.2315    0.3240 C   0  0  0  0  0  0  0  0  0  0  0  0
   62.1610   -0.0452   -0.0697 C   0  0  0  0  0  0  0  0  0  0  0  0
   61.5305    1.1488   -0.4708 C   0  0  0  0  0  0  0  0  0  0  0  0
   62.1759    2.3541   -0.8497 C   0  0  0  0  0  0  0  0  0  0  0  0
   61.2080    3.2658   -1.1729 C   0  0  0  0  0  0  0  0  0  0  0  0
   59.9429    2.6395   -1.0073 C   0  0  0  0  0  0  0  0  0  0  0  0
   58.6821    3.2107   -1.2164 C   0  0  0  0  0  0  0  0  0  0  0  0
   58.6680    4.6084   -1.7177 C   0  0  0  0  0  0  0  0  0  0  0  0
   58.1039    5.6267   -0.9501 C   0  0  0  0  0  0  0  0  0  0  0  0
   58.0912    6.9367   -1.4154 C   0  0  0  0  0  0  0  0  0  0  0  0
   57.5031    8.0386   -0.5760 C   0  0  0  0  0  0  0  0  0  0  0  0
   58.6451    7.2245   -2.6599 C   0  0  0  0  0  0  0  0  0  0  0  0
   59.2083    6.2190   -3.4390 C   0  0  0  0  0  0  0  0  0  0  0  0
   59.8177    6.5404   -4.7769 C   0  0  0  0  0  0  0  0  0  0  0  0
   59.2207    4.9127   -2.9605 C   0  0  0  0  0  0  0  0  0  0  0  0
   57.4587    2.5768   -0.9959 C   0  0  0  0  0  0  0  0  0  0  0  0
   56.1701    3.1885   -1.2669 C   0  0  0  0  0  0  0  0  0  0  0  0
   55.2352    2.2747   -0.9336 C   0  0  0  0  0  0  0  0  0  0  0  0
   55.9540    1.1039   -0.4709 C   0  0  0  0  0  0  0  0  0  0  0  0
   57.2853    1.3109   -0.5246 N   0  0  0  0  0  0  0  0  0  0  0  0
   60.1890    1.3636   -0.5748 N   0  0  0  0  0  0  0  0  0  0  0  0
   58.8000   -4.7293    1.5898 C   0  0  0  0  0  0  0  0  0  0  0  0
   58.2439   -5.7593    0.8336 C   0  0  0  0  0  0  0  0  0  0  0  0
   58.2649   -7.0698    1.3011 C   0  0  0  0  0  0  0  0  0  0  0  0
   57.6526   -8.1727    0.4805 C   0  0  0  0  0  0  0  0  0  0  0  0
   58.8407   -7.3435    2.5374 C   0  0  0  0  0  0  0  0  0  0  0  0
   59.3985   -6.3249    3.3054 C   0  0  0  0  0  0  0  0  0  0  0  0
   60.0012   -6.6303    4.6500 C   0  0  0  0  0  0  0  0  0  0  0  0
   59.3762   -5.0201    2.8260 C   0  0  0  0  0  0  0  0  0  0  0  0
   54.2193   -2.5550    0.9180 H   0  0  0  0  0  0  0  0  0  0  0  0
   56.1077   -4.3400    1.5504 H   0  0  0  0  0  0  0  0  0  0  0  0
   57.9942   -0.8238    0.1721 H   0  0  0  0  0  0  0  0  0  0  0  0
   61.4386   -4.3781    1.3147 H   0  0  0  0  0  0  0  0  0  0  0  0
   63.3004   -2.5419    0.6828 H   0  0  0  0  0  0  0  0  0  0  0  0
   63.2442    2.4983   -0.8652 H   0  0  0  0  0  0  0  0  0  0  0  0
   61.3549    4.2856   -1.4893 H   0  0  0  0  0  0  0  0  0  0  0  0
   57.6856    5.3915    0.0224 H   0  0  0  0  0  0  0  0  0  0  0  0
   58.2984    8.5630   -0.0413 H   0  0  0  0  0  0  0  0  0  0  0  0
   56.9816    8.7642   -1.2011 H   0  0  0  0  0  0  0  0  0  0  0  0
   56.8044    7.6385    0.1587 H   0  0  0  0  0  0  0  0  0  0  0  0
   58.6338    8.2454   -3.0277 H   0  0  0  0  0  0  0  0  0  0  0  0
   59.7124    5.6998   -5.4631 H   0  0  0  0  0  0  0  0  0  0  0  0
   60.8833    6.7498   -4.6583 H   0  0  0  0  0  0  0  0  0  0  0  0
   59.3462    7.4185   -5.2185 H   0  0  0  0  0  0  0  0  0  0  0  0
   59.6441    4.1181   -3.5652 H   0  0  0  0  0  0  0  0  0  0  0  0
   56.0232    4.1777   -1.6691 H   0  0  0  0  0  0  0  0  0  0  0  0
   54.1617    2.3565   -0.9942 H   0  0  0  0  0  0  0  0  0  0  0  0
   59.4699    0.6819   -0.3568 H   0  0  0  0  0  0  0  0  0  0  0  0
   57.8117   -5.5369   -0.1359 H   0  0  0  0  0  0  0  0  0  0  0  0
   58.0674   -9.1417    0.7581 H   0  0  0  0  0  0  0  0  0  0  0  0
   57.8264   -8.0055   -0.5829 H   0  0  0  0  0  0  0  0  0  0  0  0
   56.5732   -8.2030    0.6459 H   0  0  0  0  0  0  0  0  0  0  0  0
   58.8593   -8.3638    2.9065 H   0  0  0  0  0  0  0  0  0  0  0  0
   60.7577   -5.8911    4.9139 H   0  0  0  0  0  0  0  0  0  0  0  0
   60.4576   -7.6205    4.6545 H   0  0  0  0  0  0  0  0  0  0  0  0
   59.2243   -6.6116    5.4178 H   0  0  0  0  0  0  0  0  0  0  0  0
   59.7978   -4.2162    3.4194 H   0  0  0  0  0  0  0  0  0  0  0  0
   68.7624   -0.0053   -0.0473 C   0  0  0  0  0  0  0  0  0  0  0  0
   69.3972   -1.1754    0.4125 C   0  0  0  0  0  0  0  0  0  0  0  0
   68.7571   -2.3437    0.9002 C   0  0  0  0  0  0  0  0  0  0  0  0
   69.7285   -3.2516    1.2239 C   0  0  0  0  0  0  0  0  0  0  0  0
   70.9904   -2.6654    0.9339 C   0  0  0  0  0  0  0  0  0  0  0  0
   70.7393   -1.4066    0.4567 N   0  0  0  0  0  0  0  0  0  0  0  0
   72.2534   -3.2443    1.1063 C   0  0  0  0  0  0  0  0  0  0  0  0
   73.4732   -2.6170    0.8501 C   0  0  0  0  0  0  0  0  0  0  0  0
   74.7624   -3.2720    0.9799 C   0  0  0  0  0  0  0  0  0  0  0  0
   75.6939   -2.3500    0.6597 C   0  0  0  0  0  0  0  0  0  0  0  0
   73.6421   -1.3300    0.4386 N   0  0  0  0  0  0  0  0  0  0  0  0
   74.9721   -1.1373    0.3280 C   0  0  0  0  0  0  0  0  0  0  0  0
   75.6189    0.0623   -0.0305 C   0  0  0  0  0  0  0  0  0  0  0  0
   74.9838    1.2643   -0.3975 C   0  0  0  0  0  0  0  0  0  0  0  0
   75.6230    2.4842   -0.7383 C   0  0  0  0  0  0  0  0  0  0  0  0
   74.6519    3.3907   -1.0668 C   0  0  0  0  0  0  0  0  0  0  0  0
   73.3910    2.7465   -0.9433 C   0  0  0  0  0  0  0  0  0  0  0  0
   72.1287    3.2997   -1.1903 C   0  0  0  0  0  0  0  0  0  0  0  0
   72.1047    4.6970   -1.6913 C   0  0  0  0  0  0  0  0  0  0  0  0
   71.4787    5.6994   -0.9509 C   0  0  0  0  0  0  0  0  0  0  0  0
   71.4462    7.0078   -1.4196 C   0  0  0  0  0  0  0  0  0  0  0  0
   70.7873    8.0904   -0.6081 C   0  0  0  0  0  0  0  0  0  0  0  0
   72.0446    7.3108   -2.6397 C   0  0  0  0  0  0  0  0  0  0  0  0
   72.6714    6.3220   -3.3907 C   0  0  0  0  0  0  0  0  0  0  0  0
   73.3261    6.6559   -4.7040 C   0  0  0  0  0  0  0  0  0  0  0  0
   72.7019    5.0168   -2.9093 C   0  0  0  0  0  0  0  0  0  0  0  0
   70.9091    2.6464   -1.0091 C   0  0  0  0  0  0  0  0  0  0  0  0
   69.6208    3.2334   -1.3307 C   0  0  0  0  0  0  0  0  0  0  0  0
   68.6893    2.3123   -1.0076 C   0  0  0  0  0  0  0  0  0  0  0  0
   69.4106    1.1618   -0.5007 C   0  0  0  0  0  0  0  0  0  0  0  0
   70.7395    1.3851   -0.5234 N   0  0  0  0  0  0  0  0  0  0  0  0
   73.6421    1.4674   -0.5237 N   0  0  0  0  0  0  0  0  0  0  0  0
   72.2743   -4.6436    1.6021 C   0  0  0  0  0  0  0  0  0  0  0  0
   71.6917   -5.6636    0.8517 C   0  0  0  0  0  0  0  0  0  0  0  0
   71.7076   -6.9767    1.3110 C   0  0  0  0  0  0  0  0  0  0  0  0
   71.0658   -8.0689    0.4986 C   0  0  0  0  0  0  0  0  0  0  0  0
   72.3045   -7.2635    2.5345 C   0  0  0  0  0  0  0  0  0  0  0  0
   72.8896   -6.2556    3.2960 C   0  0  0  0  0  0  0  0  0  0  0  0
   73.5140   -6.5765    4.6271 C   0  0  0  0  0  0  0  0  0  0  0  0
   72.8734   -4.9479    2.8240 C   0  0  0  0  0  0  0  0  0  0  0  0
   67.6898   -2.4641    0.9932 H   0  0  0  0  0  0  0  0  0  0  0  0
   69.5857   -4.2376    1.6350 H   0  0  0  0  0  0  0  0  0  0  0  0
   71.4554   -0.7429    0.1812 H   0  0  0  0  0  0  0  0  0  0  0  0
   74.9115   -4.3008    1.2650 H   0  0  0  0  0  0  0  0  0  0  0  0
   76.7666   -2.4565    0.6361 H   0  0  0  0  0  0  0  0  0  0  0  0
   76.6897    2.6407   -0.7277 H   0  0  0  0  0  0  0  0  0  0  0  0
   74.7936    4.4177   -1.3613 H   0  0  0  0  0  0  0  0  0  0  0  0
   71.0253    5.4528    0.0029 H   0  0  0  0  0  0  0  0  0  0  0  0
   71.5323    8.5973    0.0093 H   0  0  0  0  0  0  0  0  0  0  0  0
   70.3241    8.8337   -1.2577 H   0  0  0  0  0  0  0  0  0  0  0  0
   70.0258    7.6735    0.0511 H   0  0  0  0  0  0  0  0  0  0  0  0
   72.0173    8.3303   -3.0107 H   0  0  0  0  0  0  0  0  0  0  0  0
   73.1780    5.8512   -5.4249 H   0  0  0  0  0  0  0  0  0  0  0  0
   74.4010    6.7873   -4.5605 H   0  0  0  0  0  0  0  0  0  0  0  0
   72.9216    7.5796   -5.1180 H   0  0  0  0  0  0  0  0  0  0  0  0
   73.1733    4.2348   -3.4947 H   0  0  0  0  0  0  0  0  0  0  0  0
   69.4715    4.2120   -1.7573 H   0  0  0  0  0  0  0  0  0  0  0  0
   67.6170    2.3771   -1.1016 H   0  0  0  0  0  0  0  0  0  0  0  0
   72.9265    0.7732   -0.3357 H   0  0  0  0  0  0  0  0  0  0  0  0
   71.2417   -5.4305   -0.1072 H   0  0  0  0  0  0  0  0  0  0  0  0
   71.5118   -9.0371    0.7262 H   0  0  0  0  0  0  0  0  0  0  0  0
   71.1734   -7.8720   -0.5684 H   0  0  0  0  0  0  0  0  0  0  0  0
   69.9988   -8.1229    0.7269 H   0  0  0  0  0  0  0  0  0  0  0  0
   72.3178   -8.2858    2.8984 H   0  0  0  0  0  0  0  0  0  0  0  0
   74.2691   -5.8363    4.8916 H   0  0  0  0  0  0  0  0  0  0  0  0
   73.9769   -7.5635    4.6100 H   0  0  0  0  0  0  0  0  0  0  0  0
   72.7480   -6.5753    5.4061 H   0  0  0  0  0  0  0  0  0  0  0  0
   73.3161   -4.1523    3.4131 H   0  0  0  0  0  0  0  0  0  0  0  0
  1  2  4  0  0  0  0
  2  3  4  0  0  0  0
  3  4  2  0  0  0  0
  4  5  4  0  0  0  0
  2  6  4  0  0  0  0
  5  6  4  0  0  0  0
  5  7  4  0  0  0  0
  7  8  4  0  0  0  0
  8  9  1  0  0  0  0
  9 10  2  0  0  0  0
  8 11  4  0  0  0  0
 10 12  1  0  0  0  0
 11 12  4  0  0  0  0
 12 13  4  0  0  0  0
 13 14  4  0  0  0  0
 14 15  4  0  0  0  0
 15 16  2  0  0  0  0
 16 17  4  0  0  0  0
 17 18  4  0  0  0  0
 18 19  1  0  0  0  0
 19 20  4  0  0  0  0
 20 21  4  0  0  0  0
 21 22  1  0  0  0  0
 21 23  4  0  0  0  0
 23 24  4  0  0  0  0
 24 25  1  0  0  0  0
 19 26  4  0  0  0  0
 24 26  4  0  0  0  0
 18 27  4  0  0  0  0
 27 28  1  0  0  0  0
 28 29  2  0  0  0  0
  1 30  4  0  0  0  0
 29 30  1  0  0  0  0
 27 31  4  0  0  0  0
 30 31  4  0  0  0  0
 14 32  4  0  0  0  0
 17 32  4  0  0  0  0
  7 33  1  0  0  0  0
 33 34  4  0  0  0  0
 34 35  4  0  0  0  0
 35 36  1  0  0  0  0
 35 37  4  0  0  0  0
 37 38  4  0  0  0  0
 38 39  1  0  0  0  0
 33 40  4  0  0  0  0
 38 40  4  0  0  0  0
  1 41  1  0  0  0  0
  3 42  1  0  0  0  0
  4 43  1  0  0  0  0
  6 44  1  0  0  0  0
  9 45  1  0  0  0  0
 10 46  1  0  0  0  0
 15 47  1  0  0  0  0
 16 48  1  0  0  0  0
 20 49  1  0  0  0  0
 22 50  1  0  0  0  0
 22 51  1  0  0  0  0
 22 52  1  0  0  0  0
 23 53  1  0  0  0  0
 25 54  1  0  0  0  0
 25 55  1  0  0  0  0
 25 56  1  0  0  0  0
 26 57  1  0  0  0  0
 28 58  1  0  0  0  0
 29 59  1  0  0  0  0
 32 60  1  0  0  0  0
 34 61  1  0  0  0  0
 36 62  1  0  0  0  0
 36 63  1  0  0  0  0
 36 64  1  0  0  0  0
 37 65  1  0  0  0  0
 39 66  1  0  0  0  0
 39 67  1  0  0  0  0
 39 68  1  0  0  0  0
 40 69  1  0  0  0  0
 70 71  4  0  0  0  0
 71 72  4  0  0  0  0
 72 73  2  0  0  0  0
 73 74  4  0  0  0  0
 71 75  4  0  0  0  0
 74 75  4  0  0  0  0
 74 76  4  0  0  0  0
 76 77  4  0  0  0  0
 77 78  1  0  0  0  0
 78 79  2  0  0  0  0
 77 80  4  0  0  0  0
 79 81  1  0  0  0  0
 80 81  4  0  0  0  0
 81 82  4  0  0  0  0
 82 83  4  0  0  0  0
 83 84  4  0  0  0  0
 84 85  2  0  0  0  0
 85 86  4  0  0  0  0
 86 87  4  0  0  0  0
 87 88  1  0  0  0  0
 88 89  4  0  0  0  0
 89 90  4  0  0  0  0
 90 91  1  0  0  0  0
 90 92  4  0  0  0  0
 92 93  4  0  0  0  0
 93 94  1  0  0  0  0
 88 95  4  0  0  0  0
 93 95  4  0  0  0  0
 87 96  4  0  0  0  0
 96 97  1  0  0  0  0
 97 98  2  0  0  0  0
 70 99  4  0  0  0  0
 98 99  1  0  0  0  0
 96100  4  0  0  0  0
 99100  4  0  0  0  0
 83101  4  0  0  0  0
 86101  4  0  0  0  0
 76102  1  0  0  0  0
102103  4  0  0  0  0
103104  4  0  0  0  0
104105  1  0  0  0  0
104106  4  0  0  0  0
106107  4  0  0  0  0
107108  1  0  0  0  0
102109  4  0  0  0  0
107109  4  0  0  0  0
 70110  1  0  0  0  0
 72111  1  0  0  0  0
 73112  1  0  0  0  0
 75113  1  0  0  0  0
 78114  1  0  0  0  0
 79115  1  0  0  0  0
 84116  1  0  0  0  0
 85117  1  0  0  0  0
 89118  1  0  0  0  0
 91119  1  0  0  0  0
 91120  1  0  0  0  0
 91121  1  0  0  0  0
 92122  1  0  0  0  0
 94123  1  0  0  0  0
 94124  1  0  0  0  0
 94125  1  0  0  0  0
 95126  1  0  0  0  0
 97127  1  0  0  0  0
 98128  1  0  0  0  0
101129  1  0  0  0  0
103130  1  0  0  0  0
105131  1  0  0  0  0
105132  1  0  0  0  0
105133  1  0  0  0  0
106134  1  0  0  0  0
108135  1  0  0  0  0
108136  1  0  0  0  0
108137  1  0  0  0  0
109138  1  0  0  0  0
 13140  4  0  0  0  0
139140  3  0  0  0  0
139141  4  0  0  0  0
141142  3  0  0  0  0
143144  3  0  0  0  0
143145  4  0  0  0  0
145146  3  0  0  0  0
147148  3  0  0  0  0
147149  4  0  0  0  0
 82150  4  0  0  0  0
149150  3  0  0  0  0
142151  4  0  0  0  0
151152  4  0  0  0  0
152153  4  0  0  0  0
153154  2  0  0  0  0
154155  4  0  0  0  0
152156  4  0  0  0  0
155156  4  0  0  0  0
155157  4  0  0  0  0
157158  4  0  0  0  0
158159  1  0  0  0  0
159160  2  0  0  0  0
158161  4  0  0  0  0
160162  1  0  0  0  0
161162  4  0  0  0  0
144163  4  0  0  0  0
162163  4  0  0  0  0
163164  4  0  0  0  0
164165  4  0  0  0  0
165166  2  0  0  0  0
166167  4  0  0  0  0
167168  4  0  0  0  0
168169  1  0  0  0  0
169170  4  0  0  0  0
170171  4  0  0  0  0
171172  1  0  0  0  0
171173  4  0  0  0  0
173174  4  0  0  0  0
174175  1  0  0  0  0
169176  4  0  0  0  0
174176  4  0  0  0  0
168177  4  0  0  0  0
177178  1  0  0  0  0
178179  2  0  0  0  0
151180  4  0  0  0  0
179180  1  0  0  0  0
177181  4  0  0  0  0
180181  4  0  0  0  0
164182  4  0  0  0  0
167182  4  0  0  0  0
157183  1  0  0  0  0
183184  4  0  0  0  0
184185  4  0  0  0  0
185186  1  0  0  0  0
185187  4  0  0  0  0
187188  4  0  0  0  0
188189  1  0  0  0  0
183190  4  0  0  0  0
188190  4  0  0  0  0
153191  1  0  0  0  0
154192  1  0  0  0  0
156193  1  0  0  0  0
159194  1  0  0  0  0
160195  1  0  0  0  0
165196  1  0  0  0  0
166197  1  0  0  0  0
170198  1  0  0  0  0
172199  1  0  0  0  0
172200  1  0  0  0  0
172201  1  0  0  0  0
173202  1  0  0  0  0
175203  1  0  0  0  0
175204  1  0  0  0  0
175205  1  0  0  0  0
176206  1  0  0  0  0
178207  1  0  0  0  0
179208  1  0  0  0  0
182209  1  0  0  0  0
184210  1  0  0  0  0
186211  1  0  0  0  0
186212  1  0  0  0  0
186213  1  0  0  0  0
187214  1  0  0  0  0
189215  1  0  0  0  0
189216  1  0  0  0  0
189217  1  0  0  0  0
190218  1  0  0  0  0
146219  4  0  0  0  0
219220  4  0  0  0  0
220221  4  0  0  0  0
221222  2  0  0  0  0
222223  4  0  0  0  0
220224  4  0  0  0  0
223224  4  0  0  0  0
223225  4  0  0  0  0
225226  4  0  0  0  0
226227  1  0  0  0  0
227228  2  0  0  0  0
226229  4  0  0  0  0
228230  1  0  0  0  0
229230  4  0  0  0  0
148231  4  0  0  0  0
230231  4  0  0  0  0
231232  4  0  0  0  0
232233  4  0  0  0  0
233234  2  0  0  0  0
234235  4  0  0  0  0
235236  4  0  0  0  0
236237  1  0  0  0  0
237238  4  0  0  0  0
238239  4  0  0  0  0
239240  1  0  0  0  0
239241  4  0  0  0  0
241242  4  0  0  0  0
242243  1  0  0  0  0
237244  4  0  0  0  0
242244  4  0  0  0  0
236245  4  0  0  0  0
245246  1  0  0  0  0
246247  2  0  0  0  0
219248  4  0  0  0  0
247248  1  0  0  0  0
245249  4  0  0  0  0
248249  4  0  0  0  0
232250  4  0  0  0  0
235250  4  0  0  0  0
225251  1  0  0  0  0
251252  4  0  0  0  0
252253  4  0  0  0  0
253254  1  0  0  0  0
253255  4  0  0  0  0
255256  4  0  0  0  0
256257  1  0  0  0  0
251258  4  0  0  0  0
256258  4  0  0  0  0
221259  1  0  0  0  0
222260  1  0  0  0  0
224261  1  0  0  0  0
227262  1  0  0  0  0
228263  1  0  0  0  0
233264  1  0  0  0  0
234265  1  0  0  0  0
238266  1  0  0  0  0
240267  1  0  0  0  0
240268  1  0  0  0  0
240269  1  0  0  0  0
241270  1  0  0  0  0
243271  1  0  0  0  0
243272  1  0  0  0  0
243273  1  0  0  0  0
244274  1  0  0  0  0
246275  1  0  0  0  0
247276  1  0  0  0  0
250277  1  0  0  0  0
252278  1  0  0  0  0
254279  1  0  0  0  0
254280  1  0  0  0  0
254281  1  0  0  0  0
255282  1  0  0  0  0
257283  1  0  0  0  0
257284  1  0  0  0  0
257285  1  0  0  0  0
258286  1  0  0  0  0
M  END
