414

C 65.081864 -0.172222 -0.340465
C 65.793657 1.179109 -0.648382
C 65.158284 2.370912 -0.913176
C 66.169141 3.342850 -1.121588
C 67.390797 2.710565 -0.978824
N 67.148977 1.392297 -0.681365
C 68.818938 3.388968 -1.103920
C 68.856023 4.807666 -1.535178
C 69.013395 5.841776 -0.603967
C 69.004399 7.172520 -1.033768
C 69.193041 8.246189 -0.031000
O 68.782750 9.451157 -0.480850
O 69.655293 8.138215 1.088538
C 68.837878 7.470349 -2.395231
C 68.686948 6.440390 -3.324525
C 68.696342 5.114040 -2.894332
C 69.952869 2.686266 -0.840419
C 71.261593 3.306077 -0.893215
C 72.167542 2.400029 -0.545029
N 70.152772 1.376212 -0.488701
C 71.490724 1.142319 -0.293669
C 72.172776 0.017047 0.050827
C 71.424282 -1.375199 0.224489
C 72.030751 -2.617013 0.246235
C 71.015604 -3.588270 0.416787
C 69.812097 -2.918073 0.481326
N 70.067708 -1.570918 0.347893
C 68.386504 -3.592109 0.653445
C 68.337762 -5.016305 1.053891
C 68.353736 -6.023125 0.079168
C 68.319025 -7.367491 0.449396
C 68.262351 -7.711680 1.800677
C 68.244067 -6.710448 2.784149
C 68.174234 -7.126148 4.204265
O 68.354652 -6.105992 5.061518
O 67.993587 -8.263372 4.606478
C 68.284818 -5.363728 2.409562
C 67.256344 -2.872427 0.434530
C 65.928202 -3.450468 0.551537
C 65.036857 -2.506902 0.268502
C 65.758337 -1.293485 -0.029561
N 67.087344 -1.562588 0.082590
H 63.998244 -0.192298 -0.373243
H 64.090017 2.524855 -0.947600
H 66.021558 4.387928 -1.347957
H 67.862014 0.685929 -0.516923
H 69.138802 5.591902 0.447916
H 68.957913 10.027284 0.290894
H 68.834498 8.500668 -2.739000
H 68.563502 6.661940 -4.380266
H 68.577625 4.300196 -3.609332
H 71.479486 4.326806 -1.150148
H 73.224804 2.585622 -0.492286
H 73.088585 -2.811654 0.148771
H 71.150798 -4.658359 0.474934
H 69.354490 -0.846780 0.294316
H 68.392822 -5.739331 -0.970844
H 68.335701 -8.138550 -0.316058
H 68.232527 -8.760224 2.087122
H 68.282892 -6.504702 5.949594
H 68.268064 -4.567014 3.151800
H 65.698340 -4.467163 0.816734
H 63.968225 -2.620074 0.265047
C 163.201660 0.029551 -0.383657
C 162.489868 -1.329415 -0.111408
C 163.125241 -2.525180 0.134879
C 162.114383 -3.497265 0.342603
C 160.892727 -2.861944 0.214024
N 161.134548 -1.537424 -0.054230
C 159.464587 -3.532109 0.377602
C 159.427501 -5.003030 0.564894
C 159.270130 -5.565321 1.837830
C 159.279125 -6.955400 1.990447
C 159.090484 -7.524491 3.344864
O 159.500774 -8.808022 3.427700
O 158.628231 -6.967682 4.322099
C 159.445647 -7.784461 0.870205
C 159.596576 -7.225172 -0.399282
C 159.587183 -5.838942 -0.549742
C 158.330656 -2.783116 0.330354
C 157.021931 -3.370227 0.535911
C 156.115982 -2.401040 0.482685
N 158.130752 -1.443879 0.114967
C 156.792800 -1.150643 0.197162
C 156.110749 0.017047 0.050827
C 156.859242 1.358384 -0.360660
C 156.252773 2.500283 -0.849171
C 157.267920 3.456248 -1.091159
C 158.471428 2.871199 -0.757922
N 158.215816 1.587470 -0.328190
C 159.897020 3.556630 -0.876810
C 159.945763 5.019954 -1.094465
C 159.929789 5.539535 -2.395929
C 159.964500 6.917654 -2.608475
C 160.021174 7.784845 -1.516501
C 160.039458 7.273944 -0.209343
C 160.109291 8.234558 0.916160
O 159.928872 7.654722 2.115907
O 160.289937 9.436780 0.817593
C 159.998707 5.891893 0.000190
C 161.027180 2.810396 -0.781932
C 162.355323 3.385683 -0.911806
C 163.246667 2.408936 -0.783780
C 162.525188 1.179833 -0.558998
N 161.196180 1.471265 -0.566835
H 164.285280 0.034450 -0.421780
H 164.193507 -2.679725 0.166490
H 162.261966 -4.543432 0.563886
H 160.421511 -0.825637 -0.193358
H 159.144722 -4.906743 2.695250
H 159.325611 -9.017742 4.367662
H 159.449026 -8.865221 0.978334
H 159.720023 -7.859488 -1.271817
H 159.705900 -5.389107 -1.535245
H 156.804039 -4.406690 0.719340
H 155.058720 -2.548779 0.606782
H 155.194939 2.637970 -1.017773
H 157.132727 4.456371 -1.476161
H 158.929034 0.904854 -0.080638
H 159.890703 4.850774 -3.237757
H 159.947824 7.307800 -3.622495
H 160.050998 8.858766 -1.684390
H 160.000632 8.382038 2.762946
H 160.015461 5.468836 1.003531
H 162.585184 4.421849 -1.086043
H 164.315300 2.510777 -0.833260
C 74.282958 0.031737 0.061103
C 75.741184 0.009901 0.043230
C 76.875112 -0.010853 0.041739
C 78.236494 -0.023443 0.039548
C 79.510713 -0.013136 0.034783
C 80.699175 0.005662 0.028627
C 82.051536 0.030446 0.044494
C 83.151803 0.031737 0.061103
C 91.964140 0.031737 0.061103
C 93.422366 0.009901 0.043230
C 94.556294 -0.010853 0.041739
C 95.917676 -0.023443 0.039548
C 97.191894 -0.013136 0.034783
C 98.380357 0.005662 0.028627
C 99.732718 0.030446 0.044494
C 100.832985 0.031737 0.061103
C 109.645321 0.031737 0.061103
C 111.103547 0.009901 0.043230
C 112.237475 -0.010853 0.041739
C 113.598857 -0.023443 0.039548
C 114.873076 -0.013136 0.034783
C 116.061538 0.005662 0.028627
C 117.413899 0.030446 0.044494
C 118.514167 0.031737 0.061103
C 127.326503 0.031737 0.061103
C 128.784729 0.009901 0.043230
C 129.918657 -0.010853 0.041739
C 131.280039 -0.023443 0.039548
C 132.554258 -0.013136 0.034783
C 133.742720 0.005662 0.028627
C 135.095081 0.030446 0.044494
C 136.195348 0.031737 0.061103
C 145.007684 0.031737 0.061103
C 146.465911 0.009901 0.043230
C 147.599839 -0.010853 0.041739
C 148.961221 -0.023443 0.039548
C 150.235439 -0.013136 0.034783
C 151.423902 0.005662 0.028627
C 152.776263 0.030446 0.044494
C 153.876530 0.031737 0.061103
C 83.973622 -0.013780 -0.035679
C 84.769371 1.352750 -0.133125
C 84.268891 2.572257 -0.541845
C 85.307712 3.527166 -0.394607
C 86.410958 2.859233 0.093613
N 86.096383 1.525982 0.174493
C 87.797009 3.504470 0.501111
C 87.778652 4.895686 1.005531
C 88.157666 5.963544 0.182001
C 88.125025 7.272551 0.674390
C 88.530390 8.379242 -0.225311
O 88.502195 9.584145 0.380748
O 88.864139 8.295774 -1.392524
C 87.710287 7.512554 1.993329
C 87.329634 6.449956 2.813857
C 87.363057 5.146873 2.319518
C 88.934398 2.762995 0.455946
C 90.219662 3.287909 0.868800
C 91.129031 2.330132 0.723254
N 89.145238 1.467776 0.072967
C 90.468644 1.145776 0.212380
C 91.132077 -0.013780 -0.035679
C 90.336840 -1.271799 -0.579148
C 90.839870 -2.289758 -1.363500
C 89.801995 -3.240531 -1.539758
C 88.696059 -2.769933 -0.863177
N 89.009511 -1.537291 -0.347547
C 87.307556 -3.512302 -0.699498
C 87.315659 -4.992119 -0.745185
C 86.879548 -5.664445 -1.895296
C 86.899261 -7.057642 -1.950560
C 87.360028 -7.787177 -0.853902
C 87.801866 -7.124287 0.300854
C 88.283298 -7.946238 1.436445
O 88.674121 -7.213271 2.492536
O 88.339662 -9.164185 1.462493
C 87.780250 -5.726438 0.352806
C 86.171849 -2.797287 -0.486985
C 84.884740 -3.428676 -0.279257
C 83.975927 -2.476692 -0.096935
C 84.637936 -1.190424 -0.179131
N 85.963245 -1.448717 -0.406176
H 83.263637 2.760716 -0.887018
H 85.250665 4.585023 -0.602031
H 86.753930 0.780656 0.384593
H 88.478712 5.755296 -0.837236
H 88.794566 10.180572 -0.338661
H 87.679227 8.523029 2.389886
H 87.007109 6.629068 3.834855
H 87.068855 4.309660 2.950245
H 90.415188 4.279095 1.236502
H 92.173581 2.434566 0.953623
H 91.846400 -2.354268 -1.748178
H 89.861282 -4.171988 -2.082261
H 88.350959 -0.903000 0.095232
H 86.521288 -5.082314 -2.742736
H 86.555543 -7.566078 -2.845945
H 87.374207 -8.873032 -0.900430
H 88.965678 -7.866761 3.156553
H 88.118747 -5.187628 1.235341
H 84.688351 -4.485690 -0.264158
H 82.930831 -2.651233 0.082869
C 101.654804 -0.013780 -0.035679
C 102.450552 1.352750 -0.133125
C 101.950072 2.572257 -0.541845
C 102.988894 3.527166 -0.394607
C 104.092140 2.859233 0.093613
N 103.777565 1.525982 0.174493
C 105.478190 3.504470 0.501111
C 105.459834 4.895686 1.005531
C 105.838848 5.963544 0.182001
C 105.806206 7.272551 0.674390
C 106.211572 8.379242 -0.225311
O 106.183377 9.584145 0.380748
O 106.545321 8.295774 -1.392524
C 105.391469 7.512554 1.993329
C 105.010815 6.449956 2.813857
C 105.044238 5.146873 2.319518
C 106.615580 2.762995 0.455946
C 107.900844 3.287909 0.868800
C 108.810213 2.330132 0.723254
N 106.826419 1.467776 0.072967
C 108.149825 1.145776 0.212380
C 108.813258 -0.013780 -0.035679
C 108.018022 -1.271799 -0.579148
C 108.521051 -2.289758 -1.363500
C 107.483177 -3.240531 -1.539758
C 106.377241 -2.769933 -0.863177
N 106.690693 -1.537291 -0.347547
C 104.988737 -3.512302 -0.699498
C 104.996841 -4.992119 -0.745185
C 104.560730 -5.664445 -1.895296
C 104.580443 -7.057642 -1.950560
C 105.041209 -7.787177 -0.853902
C 105.483048 -7.124287 0.300854
C 105.964480 -7.946238 1.436445
O 106.355303 -7.213271 2.492536
O 106.020843 -9.164185 1.462493
C 105.461432 -5.726438 0.352806
C 103.853030 -2.797287 -0.486985
C 102.565922 -3.428676 -0.279257
C 101.657109 -2.476692 -0.096935
C 102.319118 -1.190424 -0.179131
N 103.644426 -1.448717 -0.406176
H 100.944819 2.760716 -0.887018
H 102.931847 4.585023 -0.602031
H 104.435112 0.780656 0.384593
H 106.159894 5.755296 -0.837236
H 106.475748 10.180572 -0.338661
H 105.360409 8.523029 2.389886
H 104.688290 6.629068 3.834855
H 104.750036 4.309660 2.950245
H 108.096370 4.279095 1.236502
H 109.854763 2.434566 0.953623
H 109.527582 -2.354268 -1.748178
H 107.542464 -4.171988 -2.082261
H 106.032141 -0.903000 0.095232
H 104.202470 -5.082314 -2.742736
H 104.236725 -7.566078 -2.845945
H 105.055389 -8.873032 -0.900430
H 106.646860 -7.866761 3.156553
H 105.799928 -5.187628 1.235341
H 102.369533 -4.485690 -0.264158
H 100.612013 -2.651233 0.082869
C 119.335986 -0.013780 -0.035679
C 120.131734 1.352750 -0.133125
C 119.631254 2.572257 -0.541845
C 120.670075 3.527166 -0.394607
C 121.773321 2.859233 0.093613
N 121.458747 1.525982 0.174493
C 123.159372 3.504470 0.501111
C 123.141015 4.895686 1.005531
C 123.520029 5.963544 0.182001
C 123.487388 7.272551 0.674390
C 123.892754 8.379242 -0.225311
O 123.864558 9.584145 0.380748
O 124.226502 8.295774 -1.392524
C 123.072651 7.512554 1.993329
C 122.691997 6.449956 2.813857
C 122.725420 5.146873 2.319518
C 124.296761 2.762995 0.455946
C 125.582026 3.287909 0.868800
C 126.491394 2.330132 0.723254
N 124.507601 1.467776 0.072967
C 125.831007 1.145776 0.212380
C 126.494440 -0.013780 -0.035679
C 125.699203 -1.271799 -0.579148
C 126.202233 -2.289758 -1.363500
C 125.164359 -3.240531 -1.539758
C 124.058422 -2.769933 -0.863177
N 124.371875 -1.537291 -0.347547
C 122.669919 -3.512302 -0.699498
C 122.678023 -4.992119 -0.745185
C 122.241911 -5.664445 -1.895296
C 122.261624 -7.057642 -1.950560
C 122.722391 -7.787177 -0.853902
C 123.164230 -7.124287 0.300854
C 123.645662 -7.946238 1.436445
O 124.036485 -7.213271 2.492536
O 123.702025 -9.164185 1.462493
C 123.142613 -5.726438 0.352806
C 121.534212 -2.797287 -0.486985
C 120.247104 -3.428676 -0.279257
C 119.338290 -2.476692 -0.096935
C 120.000299 -1.190424 -0.179131
N 121.325608 -1.448717 -0.406176
H 118.626000 2.760716 -0.887018
H 120.613029 4.585023 -0.602031
H 122.116293 0.780656 0.384593
H 123.841076 5.755296 -0.837236
H 124.156930 10.180572 -0.338661
H 123.041591 8.523029 2.389886
H 122.369472 6.629068 3.834855
H 122.431218 4.309660 2.950245
H 125.777551 4.279095 1.236502
H 127.535944 2.434566 0.953623
H 127.208763 -2.354268 -1.748178
H 125.223646 -4.171988 -2.082261
H 123.713322 -0.903000 0.095232
H 121.883651 -5.082314 -2.742736
H 121.917906 -7.566078 -2.845945
H 122.736570 -8.873032 -0.900430
H 124.328042 -7.866761 3.156553
H 123.481110 -5.187628 1.235341
H 120.050714 -4.485690 -0.264158
H 118.293194 -2.651233 0.082869
C 137.017167 -0.013780 -0.035679
C 137.812916 1.352750 -0.133125
C 137.312436 2.572257 -0.541845
C 138.351257 3.527166 -0.394607
C 139.454503 2.859233 0.093613
N 139.139928 1.525982 0.174493
C 140.840554 3.504470 0.501111
C 140.822197 4.895686 1.005531
C 141.201211 5.963544 0.182001
C 141.168570 7.272551 0.674390
C 141.573935 8.379242 -0.225311
O 141.545740 9.584145 0.380748
O 141.907684 8.295774 -1.392524
C 140.753832 7.512554 1.993329
C 140.373179 6.449956 2.813857
C 140.406602 5.146873 2.319518
C 141.977943 2.762995 0.455946
C 143.263207 3.287909 0.868800
C 144.172576 2.330132 0.723254
N 142.188783 1.467776 0.072967
C 143.512189 1.145776 0.212380
C 144.175622 -0.013780 -0.035679
C 143.380385 -1.271799 -0.579148
C 143.883415 -2.289758 -1.363500
C 142.845540 -3.240531 -1.539758
C 141.739604 -2.769933 -0.863177
N 142.053056 -1.537291 -0.347547
C 140.351101 -3.512302 -0.699498
C 140.359204 -4.992119 -0.745185
C 139.923093 -5.664445 -1.895296
C 139.942806 -7.057642 -1.950560
C 140.403573 -7.787177 -0.853902
C 140.845411 -7.124287 0.300854
C 141.326843 -7.946238 1.436445
O 141.717666 -7.213271 2.492536
O 141.383207 -9.164185 1.462493
C 140.823795 -5.726438 0.352806
C 139.215394 -2.797287 -0.486985
C 137.928285 -3.428676 -0.279257
C 137.019472 -2.476692 -0.096935
C 137.681481 -1.190424 -0.179131
N 139.006790 -1.448717 -0.406176
H 136.307182 2.760716 -0.887018
H 138.294210 4.585023 -0.602031
H 139.797475 0.780656 0.384593
H 141.522257 5.755296 -0.837236
H 141.838111 10.180572 -0.338661
H 140.722772 8.523029 2.389886
H 140.050654 6.629068 3.834855
H 140.112400 4.309660 2.950245
H 143.458733 4.279095 1.236502
H 145.217126 2.434566 0.953623
H 144.889945 -2.354268 -1.748178
H 142.904827 -4.171988 -2.082261
H 141.394504 -0.903000 0.095232
H 139.564833 -5.082314 -2.742736
H 139.599088 -7.566078 -2.845945
H 140.417752 -8.873032 -0.900430
H 142.009223 -7.866761 3.156553
H 141.162292 -5.187628 1.235341
H 137.731896 -4.485690 -0.264158
H 135.974376 -2.651233 0.082869
