 xtb: 6.5.1 (b24c23e)
          07282202313D

414455  0     0  0            999 V2000
   64.2510   -0.0582   -0.5346 C   0  0  0  0  0  0  0  0  0  0  0  0
   64.8634    1.1543   -0.8237 C   0  0  0  0  0  0  0  0  0  0  0  0
   64.2153    2.3749   -1.1636 C   0  0  0  0  0  0  0  0  0  0  0  0
   65.1782    3.3280   -1.3407 C   0  0  0  0  0  0  0  0  0  0  0  0
   66.4467    2.7176   -1.1238 C   0  0  0  0  0  0  0  0  0  0  0  0
   66.2057    1.4096   -0.8135 N   0  0  0  0  0  0  0  0  0  0  0  0
   67.7080    3.3214   -1.1755 C   0  0  0  0  0  0  0  0  0  0  0  0
   67.7428    4.7587   -1.5439 C   0  0  0  0  0  0  0  0  0  0  0  0
   68.2450    5.7038   -0.6538 C   0  0  0  0  0  0  0  0  0  0  0  0
   68.2756    7.0543   -0.9989 C   0  0  0  0  0  0  0  0  0  0  0  0
   68.8184    8.0143   -0.0048 C   0  0  0  0  0  0  0  0  0  0  0  0
   68.8080    9.2868   -0.4278 O   0  0  0  0  0  0  0  0  0  0  0  0
   69.2337    7.7053    1.0826 O   0  0  0  0  0  0  0  0  0  0  0  0
   67.8043    7.4686   -2.2446 C   0  0  0  0  0  0  0  0  0  0  0  0
   67.3048    6.5294   -3.1331 C   0  0  0  0  0  0  0  0  0  0  0  0
   67.2711    5.1857   -2.7874 C   0  0  0  0  0  0  0  0  0  0  0  0
   68.9188    2.6787   -0.9091 C   0  0  0  0  0  0  0  0  0  0  0  0
   70.2183    3.3156   -1.0299 C   0  0  0  0  0  0  0  0  0  0  0  0
   71.1344    2.3763   -0.7177 C   0  0  0  0  0  0  0  0  0  0  0  0
   69.0687    1.3764   -0.5403 N   0  0  0  0  0  0  0  0  0  0  0  0
   70.3940    1.1668   -0.4127 C   0  0  0  0  0  0  0  0  0  0  0  0
   71.0269   -0.0410   -0.0541 C   0  0  0  0  0  0  0  0  0  0  0  0
   70.3883   -1.2618    0.2359 C   0  0  0  0  0  0  0  0  0  0  0  0
   71.0295   -2.4837    0.5716 C   0  0  0  0  0  0  0  0  0  0  0  0
   70.0611   -3.4295    0.7634 C   0  0  0  0  0  0  0  0  0  0  0  0
   68.7967   -2.8107    0.5572 C   0  0  0  0  0  0  0  0  0  0  0  0
   69.0470   -1.5026    0.2368 N   0  0  0  0  0  0  0  0  0  0  0  0
   67.5355   -3.4115    0.6253 C   0  0  0  0  0  0  0  0  0  0  0  0
   67.4988   -4.8426    1.0143 C   0  0  0  0  0  0  0  0  0  0  0  0
   66.9738   -5.8004    0.1435 C   0  0  0  0  0  0  0  0  0  0  0  0
   66.9396   -7.1403    0.5036 C   0  0  0  0  0  0  0  0  0  0  0  0
   67.4258   -7.5411    1.7368 C   0  0  0  0  0  0  0  0  0  0  0  0
   67.9522   -6.5936    2.6161 C   0  0  0  0  0  0  0  0  0  0  0  0
   68.4618   -7.0621    3.9295 C   0  0  0  0  0  0  0  0  0  0  0  0
   68.9553   -6.0786    4.6957 O   0  0  0  0  0  0  0  0  0  0  0  0
   68.4462   -8.2100    4.2936 O   0  0  0  0  0  0  0  0  0  0  0  0
   67.9893   -5.2488    2.2536 C   0  0  0  0  0  0  0  0  0  0  0  0
   66.3236   -2.7664    0.3567 C   0  0  0  0  0  0  0  0  0  0  0  0
   65.0166   -3.3915    0.4898 C   0  0  0  0  0  0  0  0  0  0  0  0
   64.1083   -2.4514    0.1603 C   0  0  0  0  0  0  0  0  0  0  0  0
   64.8584   -1.2507   -0.1640 C   0  0  0  0  0  0  0  0  0  0  0  0
   66.1886   -1.4764   -0.0312 N   0  0  0  0  0  0  0  0  0  0  0  0
   63.1673   -0.0611   -0.5938 H   0  0  0  0  0  0  0  0  0  0  0  0
   63.1473    2.4968   -1.2496 H   0  0  0  0  0  0  0  0  0  0  0  0
   65.0283    4.3665   -1.5881 H   0  0  0  0  0  0  0  0  0  0  0  0
   66.9275    0.7322   -0.5912 H   0  0  0  0  0  0  0  0  0  0  0  0
   68.6045    5.4013    0.3237 H   0  0  0  0  0  0  0  0  0  0  0  0
   69.1765    9.8476    0.2739 H   0  0  0  0  0  0  0  0  0  0  0  0
   67.8309    8.5180   -2.5120 H   0  0  0  0  0  0  0  0  0  0  0  0
   66.9400    6.8438   -4.1044 H   0  0  0  0  0  0  0  0  0  0  0  0
   66.8918    4.4551   -3.4933 H   0  0  0  0  0  0  0  0  0  0  0  0
   70.3858    4.3375   -1.3290 H   0  0  0  0  0  0  0  0  0  0  0  0
   72.2086    2.4656   -0.6945 H   0  0  0  0  0  0  0  0  0  0  0  0
   72.0969   -2.6139    0.6479 H   0  0  0  0  0  0  0  0  0  0  0  0
   70.2071   -4.4676    1.0139 H   0  0  0  0  0  0  0  0  0  0  0  0
   68.3281   -0.8188    0.0243 H   0  0  0  0  0  0  0  0  0  0  0  0
   66.6051   -5.4907   -0.8280 H   0  0  0  0  0  0  0  0  0  0  0  0
   66.5329   -7.8726   -0.1845 H   0  0  0  0  0  0  0  0  0  0  0  0
   67.4060   -8.5835    2.0342 H   0  0  0  0  0  0  0  0  0  0  0  0
   69.2639   -6.4643    5.5317 H   0  0  0  0  0  0  0  0  0  0  0  0
   68.3844   -4.5136    2.9448 H   0  0  0  0  0  0  0  0  0  0  0  0
   64.8419   -4.4063    0.8093 H   0  0  0  0  0  0  0  0  0  0  0  0
   63.0326   -2.5295    0.1389 H   0  0  0  0  0  0  0  0  0  0  0  0
  163.8953   -0.1538   -0.5236 C   0  0  0  0  0  0  0  0  0  0  0  0
  163.2815   -1.3794   -0.3001 C   0  0  0  0  0  0  0  0  0  0  0  0
  163.9281   -2.6343   -0.1185 C   0  0  0  0  0  0  0  0  0  0  0  0
  162.9639   -3.5766    0.1040 C   0  0  0  0  0  0  0  0  0  0  0  0
  161.6963   -2.9290    0.0556 C   0  0  0  0  0  0  0  0  0  0  0  0
  161.9389   -1.6073   -0.1882 N   0  0  0  0  0  0  0  0  0  0  0  0
  160.4340   -3.5008    0.2502 C   0  0  0  0  0  0  0  0  0  0  0  0
  160.3967   -4.9640    0.4962 C   0  0  0  0  0  0  0  0  0  0  0  0
  159.8932   -5.4650    1.6934 C   0  0  0  0  0  0  0  0  0  0  0  0
  159.8598   -6.8392    1.9266 C   0  0  0  0  0  0  0  0  0  0  0  0
  159.3162   -7.3114    3.2251 C   0  0  0  0  0  0  0  0  0  0  0  0
  159.3220   -8.6460    3.3547 O   0  0  0  0  0  0  0  0  0  0  0  0
  158.9047   -6.5862    4.0941 O   0  0  0  0  0  0  0  0  0  0  0  0
  160.3291   -7.7247    0.9565 C   0  0  0  0  0  0  0  0  0  0  0  0
  160.8299   -7.2283   -0.2368 C   0  0  0  0  0  0  0  0  0  0  0  0
  160.8667   -5.8601   -0.4667 C   0  0  0  0  0  0  0  0  0  0  0  0
  159.2240   -2.8041    0.2309 C   0  0  0  0  0  0  0  0  0  0  0  0
  157.9236   -3.4351    0.3717 C   0  0  0  0  0  0  0  0  0  0  0  0
  157.0085   -2.4491    0.2760 C   0  0  0  0  0  0  0  0  0  0  0  0
  159.0757   -1.4635    0.0443 N   0  0  0  0  0  0  0  0  0  0  0  0
  157.7504   -1.2194    0.0725 C   0  0  0  0  0  0  0  0  0  0  0  0
  157.1192    0.0322   -0.0804 C   0  0  0  0  0  0  0  0  0  0  0  0
  157.7597    1.2668   -0.2987 C   0  0  0  0  0  0  0  0  0  0  0  0
  157.1203    2.5217   -0.4801 C   0  0  0  0  0  0  0  0  0  0  0  0
  158.0901    3.4638   -0.6835 C   0  0  0  0  0  0  0  0  0  0  0  0
  159.3535    2.8123   -0.6250 C   0  0  0  0  0  0  0  0  0  0  0  0
  159.1013    1.4858   -0.3942 N   0  0  0  0  0  0  0  0  0  0  0  0
  160.6156    3.3879   -0.8046 C   0  0  0  0  0  0  0  0  0  0  0  0
  160.6543    4.8546   -1.0239 C   0  0  0  0  0  0  0  0  0  0  0  0
  161.1817    5.3804   -2.2057 C   0  0  0  0  0  0  0  0  0  0  0  0
  161.2175    6.7518   -2.4156 C   0  0  0  0  0  0  0  0  0  0  0  0
  160.7301    7.6156   -1.4490 C   0  0  0  0  0  0  0  0  0  0  0  0
  160.2013    7.1028   -0.2635 C   0  0  0  0  0  0  0  0  0  0  0  0
  159.6901    8.0607    0.7489 C   0  0  0  0  0  0  0  0  0  0  0  0
  159.1917    7.4692    1.8442 O   0  0  0  0  0  0  0  0  0  0  0  0
  159.7078    9.2581    0.6206 O   0  0  0  0  0  0  0  0  0  0  0  0
  160.1630    5.7258   -0.0538 C   0  0  0  0  0  0  0  0  0  0  0  0
  161.8265    2.6874   -0.7927 C   0  0  0  0  0  0  0  0  0  0  0  0
  163.1343    3.3114   -0.9223 C   0  0  0  0  0  0  0  0  0  0  0  0
  164.0412    2.3167   -0.8480 C   0  0  0  0  0  0  0  0  0  0  0  0
  163.2894    1.0878   -0.6628 C   0  0  0  0  0  0  0  0  0  0  0  0
  161.9597    1.3499   -0.6307 N   0  0  0  0  0  0  0  0  0  0  0  0
  164.9790   -0.1764   -0.5794 H   0  0  0  0  0  0  0  0  0  0  0  0
  164.9959   -2.7818   -0.1479 H   0  0  0  0  0  0  0  0  0  0  0  0
  163.1124   -4.6267    0.2967 H   0  0  0  0  0  0  0  0  0  0  0  0
  161.2180   -0.8969   -0.2583 H   0  0  0  0  0  0  0  0  0  0  0  0
  159.5346   -4.7908    2.4634 H   0  0  0  0  0  0  0  0  0  0  0  0
  158.9532   -8.8726    4.2239 H   0  0  0  0  0  0  0  0  0  0  0  0
  160.3002   -8.7921    1.1383 H   0  0  0  0  0  0  0  0  0  0  0  0
  161.1931   -7.9109   -0.9967 H   0  0  0  0  0  0  0  0  0  0  0  0
  161.2471   -5.4800   -1.4083 H   0  0  0  0  0  0  0  0  0  0  0  0
  157.7552   -4.4909    0.5082 H   0  0  0  0  0  0  0  0  0  0  0  0
  155.9340   -2.5209    0.3290 H   0  0  0  0  0  0  0  0  0  0  0  0
  156.0531    2.6731   -0.4625 H   0  0  0  0  0  0  0  0  0  0  0  0
  157.9454    4.5153   -0.8702 H   0  0  0  0  0  0  0  0  0  0  0  0
  159.8191    0.7729   -0.3157 H   0  0  0  0  0  0  0  0  0  0  0  0
  161.5508    4.7055   -2.9698 H   0  0  0  0  0  0  0  0  0  0  0  0
  161.6260    7.1448   -3.3396 H   0  0  0  0  0  0  0  0  0  0  0  0
  160.7508    8.6894   -1.5966 H   0  0  0  0  0  0  0  0  0  0  0  0
  158.8816    8.1591    2.4531 H   0  0  0  0  0  0  0  0  0  0  0  0
  159.7662    5.3316    0.8743 H   0  0  0  0  0  0  0  0  0  0  0  0
  163.3107    4.3689   -1.0364 H   0  0  0  0  0  0  0  0  0  0  0  0
  165.1169    2.3781   -0.8996 H   0  0  0  0  0  0  0  0  0  0  0  0
   72.4305   -0.0436    0.0107 C   0  0  0  0  0  0  0  0  0  0  0  0
   73.6544   -0.0453    0.0590 C   0  0  0  0  0  0  0  0  0  0  0  0
   74.9958   -0.0447    0.1028 C   0  0  0  0  0  0  0  0  0  0  0  0
   76.2263   -0.0424    0.1338 C   0  0  0  0  0  0  0  0  0  0  0  0
   77.5633   -0.0377    0.1591 C   0  0  0  0  0  0  0  0  0  0  0  0
   78.7942   -0.0343    0.1762 C   0  0  0  0  0  0  0  0  0  0  0  0
   80.1360   -0.0269    0.1830 C   0  0  0  0  0  0  0  0  0  0  0  0
   81.3610   -0.0251    0.1847 C   0  0  0  0  0  0  0  0  0  0  0  0
   91.0249    0.0198   -0.0195 C   0  0  0  0  0  0  0  0  0  0  0  0
   92.2496    0.0252   -0.0526 C   0  0  0  0  0  0  0  0  0  0  0  0
   93.5906    0.0337   -0.0806 C   0  0  0  0  0  0  0  0  0  0  0  0
   94.8217    0.0375   -0.0993 C   0  0  0  0  0  0  0  0  0  0  0  0
   96.1583    0.0423   -0.1074 C   0  0  0  0  0  0  0  0  0  0  0  0
   97.3896    0.0419   -0.1062 C   0  0  0  0  0  0  0  0  0  0  0  0
   98.7308    0.0438   -0.0912 C   0  0  0  0  0  0  0  0  0  0  0  0
   99.9559    0.0380   -0.0691 C   0  0  0  0  0  0  0  0  0  0  0  0
  109.6079   -0.0375    0.3959 C   0  0  0  0  0  0  0  0  0  0  0  0
  110.8322   -0.0443    0.4416 C   0  0  0  0  0  0  0  0  0  0  0  0
  112.1730   -0.0476    0.4787 C   0  0  0  0  0  0  0  0  0  0  0  0
  113.4040   -0.0447    0.4993 C   0  0  0  0  0  0  0  0  0  0  0  0
  114.7407   -0.0421    0.5025 C   0  0  0  0  0  0  0  0  0  0  0  0
  115.9718   -0.0356    0.4888 C   0  0  0  0  0  0  0  0  0  0  0  0
  117.3127   -0.0277    0.4572 C   0  0  0  0  0  0  0  0  0  0  0  0
  118.5372   -0.0219    0.4140 C   0  0  0  0  0  0  0  0  0  0  0  0
  128.1896    0.0270   -0.0453 C   0  0  0  0  0  0  0  0  0  0  0  0
  129.4145    0.0239   -0.0730 C   0  0  0  0  0  0  0  0  0  0  0  0
  130.7556    0.0220   -0.0927 C   0  0  0  0  0  0  0  0  0  0  0  0
  131.9869    0.0191   -0.0998 C   0  0  0  0  0  0  0  0  0  0  0  0
  133.3235    0.0183   -0.0979 C   0  0  0  0  0  0  0  0  0  0  0  0
  134.5547    0.0169   -0.0850 C   0  0  0  0  0  0  0  0  0  0  0  0
  135.8958    0.0179   -0.0641 C   0  0  0  0  0  0  0  0  0  0  0  0
  137.1208    0.0176   -0.0372 C   0  0  0  0  0  0  0  0  0  0  0  0
  146.7851    0.0723    0.1489 C   0  0  0  0  0  0  0  0  0  0  0  0
  148.0101    0.0817    0.1452 C   0  0  0  0  0  0  0  0  0  0  0  0
  149.3518    0.0902    0.1329 C   0  0  0  0  0  0  0  0  0  0  0  0
  150.5827    0.0948    0.1157 C   0  0  0  0  0  0  0  0  0  0  0  0
  151.9196    0.0966    0.0888 C   0  0  0  0  0  0  0  0  0  0  0  0
  153.1502    0.0915    0.0595 C   0  0  0  0  0  0  0  0  0  0  0  0
  154.4916    0.0798    0.0188 C   0  0  0  0  0  0  0  0  0  0  0  0
  155.7155    0.0610   -0.0238 C   0  0  0  0  0  0  0  0  0  0  0  0
   82.7649   -0.0194    0.1747 C   0  0  0  0  0  0  0  0  0  0  0  0
   83.3884    1.2331    0.3376 C   0  0  0  0  0  0  0  0  0  0  0  0
   82.7359    2.4833    0.4925 C   0  0  0  0  0  0  0  0  0  0  0  0
   83.6983    3.4440    0.6448 C   0  0  0  0  0  0  0  0  0  0  0  0
   84.9670    2.8049    0.5948 C   0  0  0  0  0  0  0  0  0  0  0  0
   84.7289    1.4713    0.3976 N   0  0  0  0  0  0  0  0  0  0  0  0
   86.2259    3.4079    0.7069 C   0  0  0  0  0  0  0  0  0  0  0  0
   86.2366    4.8703    0.9621 C   0  0  0  0  0  0  0  0  0  0  0  0
   86.8222    5.7426    0.0488 C   0  0  0  0  0  0  0  0  0  0  0  0
   86.8333    7.1158    0.2898 C   0  0  0  0  0  0  0  0  0  0  0  0
   87.4709    7.9945   -0.7233 C   0  0  0  0  0  0  0  0  0  0  0  0
   87.4342    9.2959   -0.4025 O   0  0  0  0  0  0  0  0  0  0  0  0
   87.9789    7.6007   -1.7416 O   0  0  0  0  0  0  0  0  0  0  0  0
   86.2580    7.6264    1.4532 C   0  0  0  0  0  0  0  0  0  0  0  0
   85.6748    6.7599    2.3643 C   0  0  0  0  0  0  0  0  0  0  0  0
   85.6611    5.3934    2.1224 C   0  0  0  0  0  0  0  0  0  0  0  0
   87.4529    2.7528    0.5971 C   0  0  0  0  0  0  0  0  0  0  0  0
   88.7386    3.4057    0.7699 C   0  0  0  0  0  0  0  0  0  0  0  0
   89.6778    2.4576    0.5745 C   0  0  0  0  0  0  0  0  0  0  0  0
   87.6324    1.4302    0.3266 N   0  0  0  0  0  0  0  0  0  0  0  0
   88.9644    1.2269    0.2943 C   0  0  0  0  0  0  0  0  0  0  0  0
   89.6219    0.0102    0.0209 C   0  0  0  0  0  0  0  0  0  0  0  0
   88.9970   -1.2300   -0.2151 C   0  0  0  0  0  0  0  0  0  0  0  0
   89.6466   -2.4552   -0.5153 C   0  0  0  0  0  0  0  0  0  0  0  0
   88.6848   -3.4183   -0.6532 C   0  0  0  0  0  0  0  0  0  0  0  0
   87.4196   -2.8089   -0.4319 C   0  0  0  0  0  0  0  0  0  0  0  0
   87.6589   -1.4842   -0.1812 N   0  0  0  0  0  0  0  0  0  0  0  0
   86.1626   -3.4237   -0.4734 C   0  0  0  0  0  0  0  0  0  0  0  0
   86.1520   -4.8857   -0.7311 C   0  0  0  0  0  0  0  0  0  0  0  0
   85.5177   -5.3994   -1.8645 C   0  0  0  0  0  0  0  0  0  0  0  0
   85.5088   -6.7651   -2.1117 C   0  0  0  0  0  0  0  0  0  0  0  0
   86.1300   -7.6345   -1.2308 C   0  0  0  0  0  0  0  0  0  0  0  0
   86.7662   -7.1335   -0.0941 C   0  0  0  0  0  0  0  0  0  0  0  0
   87.4201   -8.0976    0.8264 C   0  0  0  0  0  0  0  0  0  0  0  0
   88.0103   -7.5170    1.8813 O   0  0  0  0  0  0  0  0  0  0  0  0
   87.4347   -9.2905    0.6617 O   0  0  0  0  0  0  0  0  0  0  0  0
   86.7775   -5.7622    0.1529 C   0  0  0  0  0  0  0  0  0  0  0  0
   84.9371   -2.7795   -0.2966 C   0  0  0  0  0  0  0  0  0  0  0  0
   83.6564   -3.4637   -0.2881 C   0  0  0  0  0  0  0  0  0  0  0  0
   82.7164   -2.5127   -0.1096 C   0  0  0  0  0  0  0  0  0  0  0  0
   83.4249   -1.2530    0.0008 C   0  0  0  0  0  0  0  0  0  0  0  0
   84.7554   -1.4443   -0.1018 N   0  0  0  0  0  0  0  0  0  0  0  0
   81.6669    2.6219    0.4828 H   0  0  0  0  0  0  0  0  0  0  0  0
   83.5444    4.5033    0.7702 H   0  0  0  0  0  0  0  0  0  0  0  0
   85.4523    0.7664    0.3017 H   0  0  0  0  0  0  0  0  0  0  0  0
   87.2634    5.3645   -0.8669 H   0  0  0  0  0  0  0  0  0  0  0  0
   87.8687    9.7998   -1.1098 H   0  0  0  0  0  0  0  0  0  0  0  0
   86.2697    8.6933    1.6399 H   0  0  0  0  0  0  0  0  0  0  0  0
   85.2285    7.1494    3.2723 H   0  0  0  0  0  0  0  0  0  0  0  0
   85.2154    4.7205    2.8465 H   0  0  0  0  0  0  0  0  0  0  0  0
   88.8814    4.4447    1.0187 H   0  0  0  0  0  0  0  0  0  0  0  0
   90.7508    2.5534    0.6176 H   0  0  0  0  0  0  0  0  0  0  0  0
   90.7132   -2.5747   -0.6160 H   0  0  0  0  0  0  0  0  0  0  0  0
   88.8364   -4.4574   -0.8954 H   0  0  0  0  0  0  0  0  0  0  0  0
   86.9376   -0.7934   -0.0029 H   0  0  0  0  0  0  0  0  0  0  0  0
   85.0420   -4.7190   -2.5618 H   0  0  0  0  0  0  0  0  0  0  0  0
   85.0159   -7.1488   -2.9976 H   0  0  0  0  0  0  0  0  0  0  0  0
   86.1322   -8.7040   -1.4085 H   0  0  0  0  0  0  0  0  0  0  0  0
   88.4099   -8.2105    2.4309 H   0  0  0  0  0  0  0  0  0  0  0  0
   87.2596   -5.3776    1.0439 H   0  0  0  0  0  0  0  0  0  0  0  0
   83.5179   -4.5278   -0.3908 H   0  0  0  0  0  0  0  0  0  0  0  0
   81.6461   -2.6271   -0.0466 H   0  0  0  0  0  0  0  0  0  0  0  0
  101.3587    0.0319   -0.0263 C   0  0  0  0  0  0  0  0  0  0  0  0
  101.9845    1.2781    0.1732 C   0  0  0  0  0  0  0  0  0  0  0  0
  101.3373    2.5361    0.2797 C   0  0  0  0  0  0  0  0  0  0  0  0
  102.2993    3.4883    0.4800 C   0  0  0  0  0  0  0  0  0  0  0  0
  103.5614    2.8355    0.5141 C   0  0  0  0  0  0  0  0  0  0  0  0
  103.3212    1.5027    0.3122 N   0  0  0  0  0  0  0  0  0  0  0  0
  104.8172    3.4237    0.7075 C   0  0  0  0  0  0  0  0  0  0  0  0
  104.8312    4.8901    0.9384 C   0  0  0  0  0  0  0  0  0  0  0  0
  105.4920    5.7363    0.0523 C   0  0  0  0  0  0  0  0  0  0  0  0
  105.5032    7.1140    0.2655 C   0  0  0  0  0  0  0  0  0  0  0  0
  106.2209    7.9643   -0.7180 C   0  0  0  0  0  0  0  0  0  0  0  0
  106.1732    9.2729   -0.4299 O   0  0  0  0  0  0  0  0  0  0  0  0
  106.7975    7.5431   -1.6876 O   0  0  0  0  0  0  0  0  0  0  0  0
  104.8533    7.6553    1.3746 C   0  0  0  0  0  0  0  0  0  0  0  0
  104.1969    6.8146    2.2596 C   0  0  0  0  0  0  0  0  0  0  0  0
  104.1826    5.4436    2.0447 C   0  0  0  0  0  0  0  0  0  0  0  0
  106.0390    2.7498    0.7015 C   0  0  0  0  0  0  0  0  0  0  0  0
  107.3159    3.3860    0.9728 C   0  0  0  0  0  0  0  0  0  0  0  0
  108.2528    2.4212    0.8697 C   0  0  0  0  0  0  0  0  0  0  0  0
  106.2194    1.4215    0.4615 N   0  0  0  0  0  0  0  0  0  0  0  0
  107.5462    1.1982    0.5425 C   0  0  0  0  0  0  0  0  0  0  0  0
  108.2061   -0.0288    0.3266 C   0  0  0  0  0  0  0  0  0  0  0  0
  107.5859   -1.2582    0.0293 C   0  0  0  0  0  0  0  0  0  0  0  0
  108.2418   -2.4887   -0.2327 C   0  0  0  0  0  0  0  0  0  0  0  0
  107.2824   -3.4341   -0.4722 C   0  0  0  0  0  0  0  0  0  0  0  0
  106.0115   -2.8088   -0.3516 C   0  0  0  0  0  0  0  0  0  0  0  0
  106.2465   -1.4924   -0.0567 N   0  0  0  0  0  0  0  0  0  0  0  0
  104.7537   -3.4026   -0.5113 C   0  0  0  0  0  0  0  0  0  0  0  0
  104.7423   -4.8574   -0.8068 C   0  0  0  0  0  0  0  0  0  0  0  0
  104.1914   -5.3299   -2.0002 C   0  0  0  0  0  0  0  0  0  0  0  0
  104.1811   -6.6882   -2.2852 C   0  0  0  0  0  0  0  0  0  0  0  0
  104.7174   -7.5913   -1.3826 C   0  0  0  0  0  0  0  0  0  0  0  0
  105.2691   -7.1316   -0.1859 C   0  0  0  0  0  0  0  0  0  0  0  0
  105.8330   -8.1311    0.7561 C   0  0  0  0  0  0  0  0  0  0  0  0
  106.3486   -7.5889    1.8690 O   0  0  0  0  0  0  0  0  0  0  0  0
  105.8406   -9.3194    0.5608 O   0  0  0  0  0  0  0  0  0  0  0  0
  105.2820   -5.7677    0.0992 C   0  0  0  0  0  0  0  0  0  0  0  0
  103.5269   -2.7443   -0.4146 C   0  0  0  0  0  0  0  0  0  0  0  0
  102.2409   -3.4121   -0.5081 C   0  0  0  0  0  0  0  0  0  0  0  0
  101.3017   -2.4541   -0.3666 C   0  0  0  0  0  0  0  0  0  0  0  0
  102.0153   -1.2057   -0.1831 C   0  0  0  0  0  0  0  0  0  0  0  0
  103.3474   -1.4111   -0.2039 N   0  0  0  0  0  0  0  0  0  0  0  0
  100.2725    2.6858    0.2035 H   0  0  0  0  0  0  0  0  0  0  0  0
  102.1495    4.5503    0.5860 H   0  0  0  0  0  0  0  0  0  0  0  0
  104.0416    0.7897    0.2669 H   0  0  0  0  0  0  0  0  0  0  0  0
  105.9927    5.3340   -0.8216 H   0  0  0  0  0  0  0  0  0  0  0  0
  106.6620    9.7572   -1.1152 H   0  0  0  0  0  0  0  0  0  0  0  0
  104.8646    8.7258    1.5397 H   0  0  0  0  0  0  0  0  0  0  0  0
  103.6928    7.2280    3.1258 H   0  0  0  0  0  0  0  0  0  0  0  0
  103.6785    4.7910    2.7489 H   0  0  0  0  0  0  0  0  0  0  0  0
  107.4534    4.4261    1.2200 H   0  0  0  0  0  0  0  0  0  0  0  0
  109.3198    2.5015    1.0023 H   0  0  0  0  0  0  0  0  0  0  0  0
  109.3113   -2.6233   -0.2414 H   0  0  0  0  0  0  0  0  0  0  0  0
  107.4402   -4.4713   -0.7189 H   0  0  0  0  0  0  0  0  0  0  0  0
  105.5220   -0.7932    0.0680 H   0  0  0  0  0  0  0  0  0  0  0  0
  103.7824   -4.6231   -2.7133 H   0  0  0  0  0  0  0  0  0  0  0  0
  103.7536   -7.0396   -3.2173 H   0  0  0  0  0  0  0  0  0  0  0  0
  104.7172   -8.6556   -1.5891 H   0  0  0  0  0  0  0  0  0  0  0  0
  106.6926   -8.3038    2.4289 H   0  0  0  0  0  0  0  0  0  0  0  0
  105.6971   -5.4155    1.0361 H   0  0  0  0  0  0  0  0  0  0  0  0
  102.0979   -4.4716   -0.6453 H   0  0  0  0  0  0  0  0  0  0  0  0
  100.2284   -2.5565   -0.3764 H   0  0  0  0  0  0  0  0  0  0  0  0
  119.9391   -0.0119    0.3481 C   0  0  0  0  0  0  0  0  0  0  0  0
  120.5649    1.2410    0.4991 C   0  0  0  0  0  0  0  0  0  0  0  0
  119.9149    2.4883    0.6847 C   0  0  0  0  0  0  0  0  0  0  0  0
  120.8791    3.4532    0.7925 C   0  0  0  0  0  0  0  0  0  0  0  0
  122.1468    2.8192    0.6861 C   0  0  0  0  0  0  0  0  0  0  0  0
  121.9056    1.4842    0.5013 N   0  0  0  0  0  0  0  0  0  0  0  0
  123.4073    3.4260    0.7422 C   0  0  0  0  0  0  0  0  0  0  0  0
  123.4250    4.8923    0.9749 C   0  0  0  0  0  0  0  0  0  0  0  0
  123.9652    5.7496    0.0205 C   0  0  0  0  0  0  0  0  0  0  0  0
  123.9800    7.1271    0.2350 C   0  0  0  0  0  0  0  0  0  0  0  0
  124.5647    7.9894   -0.8232 C   0  0  0  0  0  0  0  0  0  0  0  0
  124.5329    9.2967   -0.5269 O   0  0  0  0  0  0  0  0  0  0  0  0
  125.0287    7.5785   -1.8555 O   0  0  0  0  0  0  0  0  0  0  0  0
  123.4556    7.6568    1.4139 C   0  0  0  0  0  0  0  0  0  0  0  0
  122.9195    6.8050    2.3667 C   0  0  0  0  0  0  0  0  0  0  0  0
  122.9009    5.4341    2.1507 C   0  0  0  0  0  0  0  0  0  0  0  0
  124.6311    2.7714    0.5983 C   0  0  0  0  0  0  0  0  0  0  0  0
  125.9201    3.4268    0.7316 C   0  0  0  0  0  0  0  0  0  0  0  0
  126.8548    2.4754    0.5308 C   0  0  0  0  0  0  0  0  0  0  0  0
  124.8044    1.4460    0.3381 N   0  0  0  0  0  0  0  0  0  0  0  0
  126.1355    1.2418    0.2798 C   0  0  0  0  0  0  0  0  0  0  0  0
  126.7868    0.0233   -0.0001 C   0  0  0  0  0  0  0  0  0  0  0  0
  126.1560   -1.2124   -0.2441 C   0  0  0  0  0  0  0  0  0  0  0  0
  126.7983   -2.4317   -0.5810 C   0  0  0  0  0  0  0  0  0  0  0  0
  125.8324   -3.3894   -0.7283 C   0  0  0  0  0  0  0  0  0  0  0  0
  124.5723   -2.7835   -0.4719 C   0  0  0  0  0  0  0  0  0  0  0  0
  124.8180   -1.4651   -0.1953 N   0  0  0  0  0  0  0  0  0  0  0  0
  123.3134   -3.3958   -0.4995 C   0  0  0  0  0  0  0  0  0  0  0  0
  123.2922   -4.8494   -0.8005 C   0  0  0  0  0  0  0  0  0  0  0  0
  122.6211   -5.3260   -1.9290 C   0  0  0  0  0  0  0  0  0  0  0  0
  122.6015   -6.6830   -2.2195 C   0  0  0  0  0  0  0  0  0  0  0  0
  123.2492   -7.5808   -1.3874 C   0  0  0  0  0  0  0  0  0  0  0  0
  123.9220   -7.1170   -0.2560 C   0  0  0  0  0  0  0  0  0  0  0  0
  124.6040   -8.1106    0.6111 C   0  0  0  0  0  0  0  0  0  0  0  0
  125.2307   -7.5644    1.6634 O   0  0  0  0  0  0  0  0  0  0  0  0
  124.6107   -9.2977    0.4082 O   0  0  0  0  0  0  0  0  0  0  0  0
  123.9432   -5.7544    0.0349 C   0  0  0  0  0  0  0  0  0  0  0  0
  122.0947   -2.7566   -0.2682 C   0  0  0  0  0  0  0  0  0  0  0  0
  120.8154   -3.4425   -0.2304 C   0  0  0  0  0  0  0  0  0  0  0  0
  119.8824   -2.4981    0.0093 C   0  0  0  0  0  0  0  0  0  0  0  0
  120.5938   -1.2403    0.1237 C   0  0  0  0  0  0  0  0  0  0  0  0
  121.9195   -1.4267   -0.0332 N   0  0  0  0  0  0  0  0  0  0  0  0
  118.8460    2.6226    0.7230 H   0  0  0  0  0  0  0  0  0  0  0  0
  120.7265    4.5119    0.9244 H   0  0  0  0  0  0  0  0  0  0  0  0
  122.6271    0.7827    0.3719 H   0  0  0  0  0  0  0  0  0  0  0  0
  124.3670    5.3560   -0.9067 H   0  0  0  0  0  0  0  0  0  0  0  0
  124.9306    9.7892   -1.2633 H   0  0  0  0  0  0  0  0  0  0  0  0
  123.4700    8.7272    1.5798 H   0  0  0  0  0  0  0  0  0  0  0  0
  122.5136    7.2095    3.2870 H   0  0  0  0  0  0  0  0  0  0  0  0
  122.4917    4.7730    2.9065 H   0  0  0  0  0  0  0  0  0  0  0  0
  126.0676    4.4694    0.9618 H   0  0  0  0  0  0  0  0  0  0  0  0
  127.9285    2.5716    0.5488 H   0  0  0  0  0  0  0  0  0  0  0  0
  127.8630   -2.5506   -0.7012 H   0  0  0  0  0  0  0  0  0  0  0  0
  125.9784   -4.4224   -0.9982 H   0  0  0  0  0  0  0  0  0  0  0  0
  124.1007   -0.7777    0.0099 H   0  0  0  0  0  0  0  0  0  0  0  0
  122.1246   -4.6231   -2.5885 H   0  0  0  0  0  0  0  0  0  0  0  0
  122.0797   -7.0375   -3.1009 H   0  0  0  0  0  0  0  0  0  0  0  0
  123.2441   -8.6439   -1.5995 H   0  0  0  0  0  0  0  0  0  0  0  0
  125.6475   -8.2756    2.1767 H   0  0  0  0  0  0  0  0  0  0  0  0
  124.4531   -5.3994    0.9227 H   0  0  0  0  0  0  0  0  0  0  0  0
  120.6738   -4.5038   -0.3552 H   0  0  0  0  0  0  0  0  0  0  0  0
  118.8154   -2.6158    0.1101 H   0  0  0  0  0  0  0  0  0  0  0  0
  138.5238    0.0239   -0.0019 C   0  0  0  0  0  0  0  0  0  0  0  0
  139.1387    1.2755    0.1977 C   0  0  0  0  0  0  0  0  0  0  0  0
  138.4785    2.5235    0.3371 C   0  0  0  0  0  0  0  0  0  0  0  0
  139.4325    3.4841    0.5354 C   0  0  0  0  0  0  0  0  0  0  0  0
  140.7032    2.8470    0.5306 C   0  0  0  0  0  0  0  0  0  0  0  0
  140.4752    1.5146    0.3129 N   0  0  0  0  0  0  0  0  0  0  0  0
  141.9553    3.4512    0.6962 C   0  0  0  0  0  0  0  0  0  0  0  0
  141.9514    4.9121    0.9607 C   0  0  0  0  0  0  0  0  0  0  0  0
  142.5624    5.7933    0.0733 C   0  0  0  0  0  0  0  0  0  0  0  0
  142.5561    7.1651    0.3225 C   0  0  0  0  0  0  0  0  0  0  0  0
  143.2208    8.0543   -0.6637 C   0  0  0  0  0  0  0  0  0  0  0  0
  143.1646    9.3533   -0.3365 O   0  0  0  0  0  0  0  0  0  0  0  0
  143.7645    7.6701   -1.6671 O   0  0  0  0  0  0  0  0  0  0  0  0
  141.9381    7.6650    1.4686 C   0  0  0  0  0  0  0  0  0  0  0  0
  141.3301    6.7893    2.3543 C   0  0  0  0  0  0  0  0  0  0  0  0
  141.3334    5.4244    2.1039 C   0  0  0  0  0  0  0  0  0  0  0  0
  143.1871    2.7989    0.6315 C   0  0  0  0  0  0  0  0  0  0  0  0
  144.4640    3.4542    0.8532 C   0  0  0  0  0  0  0  0  0  0  0  0
  145.4117    2.5079    0.6932 C   0  0  0  0  0  0  0  0  0  0  0  0
  143.3791    1.4768    0.3676 N   0  0  0  0  0  0  0  0  0  0  0  0
  144.7119    1.2757    0.3868 C   0  0  0  0  0  0  0  0  0  0  0  0
  145.3812    0.0593    0.1429 C   0  0  0  0  0  0  0  0  0  0  0  0
  144.7679   -1.1827   -0.1125 C   0  0  0  0  0  0  0  0  0  0  0  0
  145.4309   -2.4088   -0.3778 C   0  0  0  0  0  0  0  0  0  0  0  0
  144.4768   -3.3726   -0.5580 C   0  0  0  0  0  0  0  0  0  0  0  0
  143.2026   -2.7626   -0.3998 C   0  0  0  0  0  0  0  0  0  0  0  0
  143.4295   -1.4376   -0.1401 N   0  0  0  0  0  0  0  0  0  0  0  0
  141.9489   -3.3771   -0.5058 C   0  0  0  0  0  0  0  0  0  0  0  0
  141.9510   -4.8392   -0.7642 C   0  0  0  0  0  0  0  0  0  0  0  0
  141.3783   -5.3520   -1.9302 C   0  0  0  0  0  0  0  0  0  0  0  0
  141.3807   -6.7178   -2.1774 C   0  0  0  0  0  0  0  0  0  0  0  0
  141.9518   -7.5880   -1.2640 C   0  0  0  0  0  0  0  0  0  0  0  0
  142.5264   -7.0878   -0.0947 C   0  0  0  0  0  0  0  0  0  0  0  0
  143.1276   -8.0526    0.8601 C   0  0  0  0  0  0  0  0  0  0  0  0
  143.6609   -7.4726    1.9453 O   0  0  0  0  0  0  0  0  0  0  0  0
  143.1489   -9.2457    0.6970 O   0  0  0  0  0  0  0  0  0  0  0  0
  142.5265   -5.7164    0.1524 C   0  0  0  0  0  0  0  0  0  0  0  0
  140.7163   -2.7330   -0.3919 C   0  0  0  0  0  0  0  0  0  0  0  0
  139.4365   -3.4166   -0.4510 C   0  0  0  0  0  0  0  0  0  0  0  0
  138.4890   -2.4663   -0.3133 C   0  0  0  0  0  0  0  0  0  0  0  0
  139.1915   -1.2076   -0.1602 C   0  0  0  0  0  0  0  0  0  0  0  0
  140.5251   -1.3984   -0.2000 N   0  0  0  0  0  0  0  0  0  0  0  0
  137.4106    2.6610    0.2856 H   0  0  0  0  0  0  0  0  0  0  0  0
  139.2721    4.5421    0.6633 H   0  0  0  0  0  0  0  0  0  0  0  0
  141.2029    0.8114    0.2411 H   0  0  0  0  0  0  0  0  0  0  0  0
  143.0371    5.4236   -0.8290 H   0  0  0  0  0  0  0  0  0  0  0  0
  143.6189    9.8647   -1.0258 H   0  0  0  0  0  0  0  0  0  0  0  0
  141.9360    8.7309    1.6615 H   0  0  0  0  0  0  0  0  0  0  0  0
  140.8505    7.1705    3.2488 H   0  0  0  0  0  0  0  0  0  0  0  0
  140.8670    4.7441    2.8079 H   0  0  0  0  0  0  0  0  0  0  0  0
  144.5950    4.4935    1.1068 H   0  0  0  0  0  0  0  0  0  0  0  0
  146.4821    2.6057    0.7771 H   0  0  0  0  0  0  0  0  0  0  0  0
  146.5011   -2.5284   -0.4273 H   0  0  0  0  0  0  0  0  0  0  0  0
  144.6398   -4.4125   -0.7893 H   0  0  0  0  0  0  0  0  0  0  0  0
  142.7004   -0.7464    0.0011 H   0  0  0  0  0  0  0  0  0  0  0  0
  140.9419   -4.6711   -2.6523 H   0  0  0  0  0  0  0  0  0  0  0  0
  140.9358   -7.1009   -3.0887 H   0  0  0  0  0  0  0  0  0  0  0  0
  141.9618   -8.6575   -1.4411 H   0  0  0  0  0  0  0  0  0  0  0  0
  144.0291   -8.1666    2.5160 H   0  0  0  0  0  0  0  0  0  0  0  0
  142.9603   -5.3323    1.0680 H   0  0  0  0  0  0  0  0  0  0  0  0
  139.3030   -4.4800   -0.5670 H   0  0  0  0  0  0  0  0  0  0  0  0
  137.4168   -2.5805   -0.3041 H   0  0  0  0  0  0  0  0  0  0  0  0
  1  2  4  0  0  0  0
  2  3  4  0  0  0  0
  3  4  2  0  0  0  0
  4  5  4  0  0  0  0
  2  6  4  0  0  0  0
  5  6  4  0  0  0  0
  5  7  4  0  0  0  0
  7  8  1  0  0  0  0
  8  9  4  0  0  0  0
  9 10  4  0  0  0  0
 10 11  1  0  0  0  0
 11 12  4  0  0  0  0
 11 13  2  0  0  0  0
 10 14  4  0  0  0  0
 14 15  4  0  0  0  0
  8 16  4  0  0  0  0
 15 16  4  0  0  0  0
  7 17  4  0  0  0  0
 17 18  1  0  0  0  0
 18 19  2  0  0  0  0
 17 20  4  0  0  0  0
 19 21  1  0  0  0  0
 20 21  4  0  0  0  0
 21 22  4  0  0  0  0
 22 23  4  0  0  0  0
 23 24  4  0  0  0  0
 24 25  2  0  0  0  0
 25 26  4  0  0  0  0
 23 27  4  0  0  0  0
 26 27  4  0  0  0  0
 26 28  4  0  0  0  0
 28 29  1  0  0  0  0
 29 30  4  0  0  0  0
 30 31  4  0  0  0  0
 31 32  4  0  0  0  0
 32 33  4  0  0  0  0
 33 34  1  0  0  0  0
 34 35  4  0  0  0  0
 34 36  2  0  0  0  0
 29 37  4  0  0  0  0
 33 37  4  0  0  0  0
 28 38  4  0  0  0  0
 38 39  1  0  0  0  0
 39 40  2  0  0  0  0
  1 41  4  0  0  0  0
 40 41  1  0  0  0  0
 38 42  4  0  0  0  0
 41 42  4  0  0  0  0
  1 43  1  0  0  0  0
  3 44  1  0  0  0  0
  4 45  1  0  0  0  0
  6 46  1  0  0  0  0
  9 47  1  0  0  0  0
 12 48  1  0  0  0  0
 14 49  1  0  0  0  0
 15 50  1  0  0  0  0
 16 51  1  0  0  0  0
 18 52  1  0  0  0  0
 19 53  1  0  0  0  0
 24 54  1  0  0  0  0
 25 55  1  0  0  0  0
 27 56  1  0  0  0  0
 30 57  1  0  0  0  0
 31 58  1  0  0  0  0
 32 59  1  0  0  0  0
 35 60  1  0  0  0  0
 37 61  1  0  0  0  0
 39 62  1  0  0  0  0
 40 63  1  0  0  0  0
 64 65  4  0  0  0  0
 65 66  4  0  0  0  0
 66 67  2  0  0  0  0
 67 68  4  0  0  0  0
 65 69  4  0  0  0  0
 68 69  4  0  0  0  0
 68 70  4  0  0  0  0
 70 71  1  0  0  0  0
 71 72  4  0  0  0  0
 72 73  4  0  0  0  0
 73 74  1  0  0  0  0
 74 75  4  0  0  0  0
 74 76  2  0  0  0  0
 73 77  4  0  0  0  0
 77 78  4  0  0  0  0
 71 79  4  0  0  0  0
 78 79  4  0  0  0  0
 70 80  4  0  0  0  0
 80 81  1  0  0  0  0
 81 82  2  0  0  0  0
 80 83  4  0  0  0  0
 82 84  1  0  0  0  0
 83 84  4  0  0  0  0
 84 85  4  0  0  0  0
 85 86  4  0  0  0  0
 86 87  4  0  0  0  0
 87 88  2  0  0  0  0
 88 89  4  0  0  0  0
 86 90  4  0  0  0  0
 89 90  4  0  0  0  0
 89 91  4  0  0  0  0
 91 92  1  0  0  0  0
 92 93  4  0  0  0  0
 93 94  4  0  0  0  0
 94 95  4  0  0  0  0
 95 96  4  0  0  0  0
 96 97  1  0  0  0  0
 97 98  4  0  0  0  0
 97 99  2  0  0  0  0
 92100  4  0  0  0  0
 96100  4  0  0  0  0
 91101  4  0  0  0  0
101102  1  0  0  0  0
102103  2  0  0  0  0
 64104  4  0  0  0  0
103104  1  0  0  0  0
101105  4  0  0  0  0
104105  4  0  0  0  0
 64106  1  0  0  0  0
 66107  1  0  0  0  0
 67108  1  0  0  0  0
 69109  1  0  0  0  0
 72110  1  0  0  0  0
 75111  1  0  0  0  0
 77112  1  0  0  0  0
 78113  1  0  0  0  0
 79114  1  0  0  0  0
 81115  1  0  0  0  0
 82116  1  0  0  0  0
 87117  1  0  0  0  0
 88118  1  0  0  0  0
 90119  1  0  0  0  0
 93120  1  0  0  0  0
 94121  1  0  0  0  0
 95122  1  0  0  0  0
 98123  1  0  0  0  0
100124  1  0  0  0  0
102125  1  0  0  0  0
103126  1  0  0  0  0
 22127  4  0  0  0  0
127128  3  0  0  0  0
128129  4  0  0  0  0
129130  3  0  0  0  0
130131  4  0  0  0  0
131132  3  0  0  0  0
132133  4  0  0  0  0
133134  3  0  0  0  0
135136  3  0  0  0  0
136137  4  0  0  0  0
137138  3  0  0  0  0
138139  4  0  0  0  0
139140  3  0  0  0  0
140141  4  0  0  0  0
141142  3  0  0  0  0
143144  3  0  0  0  0
144145  4  0  0  0  0
145146  3  0  0  0  0
146147  4  0  0  0  0
147148  3  0  0  0  0
148149  4  0  0  0  0
149150  3  0  0  0  0
151152  3  0  0  0  0
152153  4  0  0  0  0
153154  3  0  0  0  0
154155  4  0  0  0  0
155156  3  0  0  0  0
156157  4  0  0  0  0
157158  3  0  0  0  0
159160  3  0  0  0  0
160161  4  0  0  0  0
161162  3  0  0  0  0
162163  4  0  0  0  0
163164  3  0  0  0  0
164165  4  0  0  0  0
 85166  4  0  0  0  0
165166  3  0  0  0  0
134167  4  0  0  0  0
167168  4  0  0  0  0
168169  4  0  0  0  0
169170  2  0  0  0  0
170171  4  0  0  0  0
168172  4  0  0  0  0
171172  4  0  0  0  0
171173  4  0  0  0  0
173174  1  0  0  0  0
174175  4  0  0  0  0
175176  4  0  0  0  0
176177  1  0  0  0  0
177178  4  0  0  0  0
177179  2  0  0  0  0
176180  4  0  0  0  0
180181  4  0  0  0  0
174182  4  0  0  0  0
181182  4  0  0  0  0
173183  4  0  0  0  0
183184  1  0  0  0  0
184185  2  0  0  0  0
183186  4  0  0  0  0
185187  1  0  0  0  0
186187  4  0  0  0  0
135188  4  0  0  0  0
187188  4  0  0  0  0
188189  4  0  0  0  0
189190  4  0  0  0  0
190191  2  0  0  0  0
191192  4  0  0  0  0
189193  4  0  0  0  0
192193  4  0  0  0  0
192194  4  0  0  0  0
194195  1  0  0  0  0
195196  4  0  0  0  0
196197  4  0  0  0  0
197198  4  0  0  0  0
198199  4  0  0  0  0
199200  1  0  0  0  0
200201  4  0  0  0  0
200202  2  0  0  0  0
195203  4  0  0  0  0
199203  4  0  0  0  0
194204  4  0  0  0  0
204205  1  0  0  0  0
205206  2  0  0  0  0
167207  4  0  0  0  0
206207  1  0  0  0  0
204208  4  0  0  0  0
207208  4  0  0  0  0
169209  1  0  0  0  0
170210  1  0  0  0  0
172211  1  0  0  0  0
175212  1  0  0  0  0
178213  1  0  0  0  0
180214  1  0  0  0  0
181215  1  0  0  0  0
182216  1  0  0  0  0
184217  1  0  0  0  0
185218  1  0  0  0  0
190219  1  0  0  0  0
191220  1  0  0  0  0
193221  1  0  0  0  0
196222  1  0  0  0  0
197223  1  0  0  0  0
198224  1  0  0  0  0
201225  1  0  0  0  0
203226  1  0  0  0  0
205227  1  0  0  0  0
206228  1  0  0  0  0
142229  4  0  0  0  0
229230  4  0  0  0  0
230231  4  0  0  0  0
231232  2  0  0  0  0
232233  4  0  0  0  0
230234  4  0  0  0  0
233234  4  0  0  0  0
233235  4  0  0  0  0
235236  1  0  0  0  0
236237  4  0  0  0  0
237238  4  0  0  0  0
238239  1  0  0  0  0
239240  4  0  0  0  0
239241  2  0  0  0  0
238242  4  0  0  0  0
242243  4  0  0  0  0
236244  4  0  0  0  0
243244  4  0  0  0  0
235245  4  0  0  0  0
245246  1  0  0  0  0
246247  2  0  0  0  0
245248  4  0  0  0  0
247249  1  0  0  0  0
248249  4  0  0  0  0
143250  4  0  0  0  0
249250  4  0  0  0  0
250251  4  0  0  0  0
251252  4  0  0  0  0
252253  2  0  0  0  0
253254  4  0  0  0  0
251255  4  0  0  0  0
254255  4  0  0  0  0
254256  4  0  0  0  0
256257  1  0  0  0  0
257258  4  0  0  0  0
258259  4  0  0  0  0
259260  4  0  0  0  0
260261  4  0  0  0  0
261262  1  0  0  0  0
262263  4  0  0  0  0
262264  2  0  0  0  0
257265  4  0  0  0  0
261265  4  0  0  0  0
256266  4  0  0  0  0
266267  1  0  0  0  0
267268  2  0  0  0  0
229269  4  0  0  0  0
268269  1  0  0  0  0
266270  4  0  0  0  0
269270  4  0  0  0  0
231271  1  0  0  0  0
232272  1  0  0  0  0
234273  1  0  0  0  0
237274  1  0  0  0  0
240275  1  0  0  0  0
242276  1  0  0  0  0
243277  1  0  0  0  0
244278  1  0  0  0  0
246279  1  0  0  0  0
247280  1  0  0  0  0
252281  1  0  0  0  0
253282  1  0  0  0  0
255283  1  0  0  0  0
258284  1  0  0  0  0
259285  1  0  0  0  0
260286  1  0  0  0  0
263287  1  0  0  0  0
265288  1  0  0  0  0
267289  1  0  0  0  0
268290  1  0  0  0  0
150291  4  0  0  0  0
291292  4  0  0  0  0
292293  4  0  0  0  0
293294  2  0  0  0  0
294295  4  0  0  0  0
292296  4  0  0  0  0
295296  4  0  0  0  0
295297  4  0  0  0  0
297298  1  0  0  0  0
298299  4  0  0  0  0
299300  4  0  0  0  0
300301  1  0  0  0  0
301302  4  0  0  0  0
301303  2  0  0  0  0
300304  4  0  0  0  0
304305  4  0  0  0  0
298306  4  0  0  0  0
305306  4  0  0  0  0
297307  4  0  0  0  0
307308  1  0  0  0  0
308309  2  0  0  0  0
307310  4  0  0  0  0
309311  1  0  0  0  0
310311  4  0  0  0  0
151312  4  0  0  0  0
311312  4  0  0  0  0
312313  4  0  0  0  0
313314  4  0  0  0  0
314315  2  0  0  0  0
315316  4  0  0  0  0
313317  4  0  0  0  0
316317  4  0  0  0  0
316318  4  0  0  0  0
318319  1  0  0  0  0
319320  4  0  0  0  0
320321  4  0  0  0  0
321322  4  0  0  0  0
322323  4  0  0  0  0
323324  1  0  0  0  0
324325  4  0  0  0  0
324326  2  0  0  0  0
319327  4  0  0  0  0
323327  4  0  0  0  0
318328  4  0  0  0  0
328329  1  0  0  0  0
329330  2  0  0  0  0
291331  4  0  0  0  0
330331  1  0  0  0  0
328332  4  0  0  0  0
331332  4  0  0  0  0
293333  1  0  0  0  0
294334  1  0  0  0  0
296335  1  0  0  0  0
299336  1  0  0  0  0
302337  1  0  0  0  0
304338  1  0  0  0  0
305339  1  0  0  0  0
306340  1  0  0  0  0
308341  1  0  0  0  0
309342  1  0  0  0  0
314343  1  0  0  0  0
315344  1  0  0  0  0
317345  1  0  0  0  0
320346  1  0  0  0  0
321347  1  0  0  0  0
322348  1  0  0  0  0
325349  1  0  0  0  0
327350  1  0  0  0  0
329351  1  0  0  0  0
330352  1  0  0  0  0
158353  4  0  0  0  0
353354  4  0  0  0  0
354355  4  0  0  0  0
355356  2  0  0  0  0
356357  4  0  0  0  0
354358  4  0  0  0  0
357358  4  0  0  0  0
357359  4  0  0  0  0
359360  1  0  0  0  0
360361  4  0  0  0  0
361362  4  0  0  0  0
362363  1  0  0  0  0
363364  4  0  0  0  0
363365  2  0  0  0  0
362366  4  0  0  0  0
366367  4  0  0  0  0
360368  4  0  0  0  0
367368  4  0  0  0  0
359369  4  0  0  0  0
369370  1  0  0  0  0
370371  2  0  0  0  0
369372  4  0  0  0  0
371373  1  0  0  0  0
372373  4  0  0  0  0
159374  4  0  0  0  0
373374  4  0  0  0  0
374375  4  0  0  0  0
375376  4  0  0  0  0
376377  2  0  0  0  0
377378  4  0  0  0  0
375379  4  0  0  0  0
378379  4  0  0  0  0
378380  4  0  0  0  0
380381  1  0  0  0  0
381382  4  0  0  0  0
382383  4  0  0  0  0
383384  4  0  0  0  0
384385  4  0  0  0  0
385386  1  0  0  0  0
386387  4  0  0  0  0
386388  2  0  0  0  0
381389  4  0  0  0  0
385389  4  0  0  0  0
380390  4  0  0  0  0
390391  1  0  0  0  0
391392  2  0  0  0  0
353393  4  0  0  0  0
392393  1  0  0  0  0
390394  4  0  0  0  0
393394  4  0  0  0  0
355395  1  0  0  0  0
356396  1  0  0  0  0
358397  1  0  0  0  0
361398  1  0  0  0  0
364399  1  0  0  0  0
366400  1  0  0  0  0
367401  1  0  0  0  0
368402  1  0  0  0  0
370403  1  0  0  0  0
371404  1  0  0  0  0
376405  1  0  0  0  0
377406  1  0  0  0  0
379407  1  0  0  0  0
382408  1  0  0  0  0
383409  1  0  0  0  0
384410  1  0  0  0  0
387411  1  0  0  0  0
389412  1  0  0  0  0
391413  1  0  0  0  0
392414  1  0  0  0  0
M  END
