 xtb: 6.5.1 (b24c23e)
          07302210083D

298337  0     0  0            999 V2000
   46.7625    0.1786   -0.1442 Ni  0  0  0  0  0  0  0  0  0  0  0  0
   43.3961    0.5001   -0.4440 C   0  0  0  0  0  0  0  0  0  0  0  0
   44.0389    1.2771    0.4972 C   0  0  0  0  0  0  0  0  0  0  0  0
   43.3547    2.1818    1.3704 C   0  0  0  0  0  0  0  0  0  0  0  0
   44.2884    2.6967    2.2036 C   0  0  0  0  0  0  0  0  0  0  0  0
   45.5467    2.1265    1.8214 C   0  0  0  0  0  0  0  0  0  0  0  0
   45.3824    1.2534    0.7750 N   0  0  0  0  0  0  0  0  0  0  0  0
   46.7517    2.4312    2.4378 C   0  0  0  0  0  0  0  0  0  0  0  0
   47.9657    1.9134    2.0117 C   0  0  0  0  0  0  0  0  0  0  0  0
   49.2264    2.3005    2.5683 C   0  0  0  0  0  0  0  0  0  0  0  0
   50.1835    1.6701    1.8469 C   0  0  0  0  0  0  0  0  0  0  0  0
   48.1497    1.0378    0.9654 N   0  0  0  0  0  0  0  0  0  0  0  0
   49.5055    0.8898    0.8604 C   0  0  0  0  0  0  0  0  0  0  0  0
   50.1744    0.0880   -0.0673 C   0  0  0  0  0  0  0  0  0  0  0  0
   49.5043   -0.7371   -0.9737 C   0  0  0  0  0  0  0  0  0  0  0  0
   50.1811   -1.6435   -1.8470 C   0  0  0  0  0  0  0  0  0  0  0  0
   49.2223   -2.3418   -2.5004 C   0  0  0  0  0  0  0  0  0  0  0  0
   47.9618   -1.8415   -2.0433 C   0  0  0  0  0  0  0  0  0  0  0  0
   46.7390   -2.3045   -2.5040 C   0  0  0  0  0  0  0  0  0  0  0  0
   46.7199   -3.4145   -3.4976 C   0  0  0  0  0  0  0  0  0  0  0  0
   47.1197   -3.1928   -4.8216 C   0  0  0  0  0  0  0  0  0  0  0  0
   47.5097   -1.9251   -5.1188 O   0  0  0  0  0  0  0  0  0  0  0  0
   47.9394   -1.5953   -6.4240 C   0  0  0  0  0  0  0  0  0  0  0  0
   47.0940   -4.2342   -5.7487 C   0  0  0  0  0  0  0  0  0  0  0  0
   46.6715   -5.4923   -5.3464 C   0  0  0  0  0  0  0  0  0  0  0  0
   46.2708   -5.7348   -4.0412 C   0  0  0  0  0  0  0  0  0  0  0  0
   46.2920   -4.6923   -3.1151 C   0  0  0  0  0  0  0  0  0  0  0  0
   45.9217   -4.8280   -1.8146 O   0  0  0  0  0  0  0  0  0  0  0  0
   45.4882   -6.0787   -1.3200 C   0  0  0  0  0  0  0  0  0  0  0  0
   45.5289   -1.7535   -2.1089 C   0  0  0  0  0  0  0  0  0  0  0  0
   44.2649   -2.1369   -2.6652 C   0  0  0  0  0  0  0  0  0  0  0  0
   43.3330   -1.3203   -2.1205 C   0  0  0  0  0  0  0  0  0  0  0  0
   44.0261   -0.4525   -1.2174 C   0  0  0  0  0  0  0  0  0  0  0  0
   45.3709   -0.7243   -1.2150 N   0  0  0  0  0  0  0  0  0  0  0  0
   48.1478   -0.8534   -1.1023 N   0  0  0  0  0  0  0  0  0  0  0  0
   46.7514    3.3848    3.5820 C   0  0  0  0  0  0  0  0  0  0  0  0
   47.0314    2.9308    4.8777 C   0  0  0  0  0  0  0  0  0  0  0  0
   47.2790    1.6001    4.9988 O   0  0  0  0  0  0  0  0  0  0  0  0
   47.5959    1.0421    6.2579 C   0  0  0  0  0  0  0  0  0  0  0  0
   47.0365    3.8209    5.9513 C   0  0  0  0  0  0  0  0  0  0  0  0
   46.7677    5.1621    5.7236 C   0  0  0  0  0  0  0  0  0  0  0  0
   46.4927    5.6351    4.4494 C   0  0  0  0  0  0  0  0  0  0  0  0
   46.4836    4.7445    3.3763 C   0  0  0  0  0  0  0  0  0  0  0  0
   46.2342    5.1134    2.0919 O   0  0  0  0  0  0  0  0  0  0  0  0
   45.9704    6.4646    1.7730 C   0  0  0  0  0  0  0  0  0  0  0  0
   42.3241    0.6172   -0.5539 H   0  0  0  0  0  0  0  0  0  0  0  0
   42.2931    2.3711    1.3434 H   0  0  0  0  0  0  0  0  0  0  0  0
   44.1531    3.4042    3.0054 H   0  0  0  0  0  0  0  0  0  0  0  0
   49.3505    2.9791    3.3964 H   0  0  0  0  0  0  0  0  0  0  0  0
   51.2546    1.7155    1.9612 H   0  0  0  0  0  0  0  0  0  0  0  0
   51.2528   -1.7326   -1.9252 H   0  0  0  0  0  0  0  0  0  0  0  0
   49.3449   -3.1225   -3.2332 H   0  0  0  0  0  0  0  0  0  0  0  0
   47.1429   -1.7533   -7.1614 H   0  0  0  0  0  0  0  0  0  0  0  0
   48.1995   -0.5354   -6.3993 H   0  0  0  0  0  0  0  0  0  0  0  0
   48.8230   -2.1763   -6.7149 H   0  0  0  0  0  0  0  0  0  0  0  0
   47.3978   -4.0735   -6.7744 H   0  0  0  0  0  0  0  0  0  0  0  0
   46.6532   -6.3024   -6.0673 H   0  0  0  0  0  0  0  0  0  0  0  0
   45.9458   -6.7263   -3.7555 H   0  0  0  0  0  0  0  0  0  0  0  0
   45.2580   -5.9244   -0.2642 H   0  0  0  0  0  0  0  0  0  0  0  0
   44.5858   -6.4252   -1.8383 H   0  0  0  0  0  0  0  0  0  0  0  0
   46.2725   -6.8401   -1.4100 H   0  0  0  0  0  0  0  0  0  0  0  0
   44.1270   -2.9227   -3.3902 H   0  0  0  0  0  0  0  0  0  0  0  0
   42.2689   -1.2960   -2.2955 H   0  0  0  0  0  0  0  0  0  0  0  0
   47.7636   -0.0224    6.0846 H   0  0  0  0  0  0  0  0  0  0  0  0
   46.7720    1.1654    6.9713 H   0  0  0  0  0  0  0  0  0  0  0  0
   48.5070    1.4868    6.6763 H   0  0  0  0  0  0  0  0  0  0  0  0
   47.2474    3.4796    6.9559 H   0  0  0  0  0  0  0  0  0  0  0  0
   46.7734    5.8547    6.5581 H   0  0  0  0  0  0  0  0  0  0  0  0
   46.2893    6.6871    4.3006 H   0  0  0  0  0  0  0  0  0  0  0  0
   46.8156    7.1121    2.0362 H   0  0  0  0  0  0  0  0  0  0  0  0
   45.8168    6.4973    0.6928 H   0  0  0  0  0  0  0  0  0  0  0  0
   45.0657    6.8273    2.2761 H   0  0  0  0  0  0  0  0  0  0  0  0
   87.0929    0.0611   -0.1406 Ni  0  0  0  0  0  0  0  0  0  0  0  0
   90.4667    0.3822   -0.3667 C   0  0  0  0  0  0  0  0  0  0  0  0
   89.8353   -0.4570   -1.2611 C   0  0  0  0  0  0  0  0  0  0  0  0
   90.5311   -1.2207   -2.2520 C   0  0  0  0  0  0  0  0  0  0  0  0
   89.5923   -1.9157   -2.9354 C   0  0  0  0  0  0  0  0  0  0  0  0
   88.3220   -1.5589   -2.3757 C   0  0  0  0  0  0  0  0  0  0  0  0
   88.4835   -0.6795   -1.3340 N   0  0  0  0  0  0  0  0  0  0  0  0
   87.1076   -2.0147   -2.8668 C   0  0  0  0  0  0  0  0  0  0  0  0
   85.8875   -1.6239   -2.3361 C   0  0  0  0  0  0  0  0  0  0  0  0
   84.6258   -2.0038   -2.8946 C   0  0  0  0  0  0  0  0  0  0  0  0
   83.6689   -1.4312   -2.1260 C   0  0  0  0  0  0  0  0  0  0  0  0
   85.7044   -0.8182   -1.2350 N   0  0  0  0  0  0  0  0  0  0  0  0
   84.3479   -0.7135   -1.0938 C   0  0  0  0  0  0  0  0  0  0  0  0
   83.6802   -0.0652   -0.0516 C   0  0  0  0  0  0  0  0  0  0  0  0
   84.3536    0.5784    0.9903 C   0  0  0  0  0  0  0  0  0  0  0  0
   83.6820    1.1622    2.1083 C   0  0  0  0  0  0  0  0  0  0  0  0
   84.6401    1.7056    2.8961 C   0  0  0  0  0  0  0  0  0  0  0  0
   85.8931    1.4691    2.2464 C   0  0  0  0  0  0  0  0  0  0  0  0
   87.1044    1.9511    2.7176 C   0  0  0  0  0  0  0  0  0  0  0  0
   87.1139    2.7617    3.9673 C   0  0  0  0  0  0  0  0  0  0  0  0
   86.5829    4.0583    3.9736 C   0  0  0  0  0  0  0  0  0  0  0  0
   86.0839    4.5003    2.7895 O   0  0  0  0  0  0  0  0  0  0  0  0
   85.5043    5.7855    2.6906 C   0  0  0  0  0  0  0  0  0  0  0  0
   86.5970    4.8196    5.1419 C   0  0  0  0  0  0  0  0  0  0  0  0
   87.1383    4.2795    6.2987 C   0  0  0  0  0  0  0  0  0  0  0  0
   87.6695    2.9987    6.3159 C   0  0  0  0  0  0  0  0  0  0  0  0
   87.6606    2.2391    5.1463 C   0  0  0  0  0  0  0  0  0  0  0  0
   88.1541    0.9755    5.0617 O   0  0  0  0  0  0  0  0  0  0  0  0
   88.7170    0.3493    6.1965 C   0  0  0  0  0  0  0  0  0  0  0  0
   88.3064    1.7393    2.0584 C   0  0  0  0  0  0  0  0  0  0  0  0
   89.5545    2.3012    2.4829 C   0  0  0  0  0  0  0  0  0  0  0  0
   90.4930    1.8819    1.6025 C   0  0  0  0  0  0  0  0  0  0  0  0
   89.8184    1.0573    0.6464 C   0  0  0  0  0  0  0  0  0  0  0  0
   88.4758    0.9890    0.9221 N   0  0  0  0  0  0  0  0  0  0  0  0
   85.7063    0.7526    1.0850 N   0  0  0  0  0  0  0  0  0  0  0  0
   87.1088   -2.9398   -4.0343 C   0  0  0  0  0  0  0  0  0  0  0  0
   86.7431   -4.2823   -3.8702 C   0  0  0  0  0  0  0  0  0  0  0  0
   86.4121   -4.6562   -2.6066 O   0  0  0  0  0  0  0  0  0  0  0  0
   86.0125   -5.9840   -2.3338 C   0  0  0  0  0  0  0  0  0  0  0  0
   86.7421   -5.1509   -4.9613 C   0  0  0  0  0  0  0  0  0  0  0  0
   87.0998   -4.6714   -6.2123 C   0  0  0  0  0  0  0  0  0  0  0  0
   87.4602   -3.3455   -6.3995 C   0  0  0  0  0  0  0  0  0  0  0  0
   87.4665   -2.4779   -5.3077 C   0  0  0  0  0  0  0  0  0  0  0  0
   87.7967   -1.1618   -5.3909 O   0  0  0  0  0  0  0  0  0  0  0  0
   88.1552   -0.5910   -6.6328 C   0  0  0  0  0  0  0  0  0  0  0  0
   91.5416    0.4964   -0.4478 H   0  0  0  0  0  0  0  0  0  0  0  0
   91.6016   -1.2174   -2.3849 H   0  0  0  0  0  0  0  0  0  0  0  0
   89.7309   -2.6041   -3.7533 H   0  0  0  0  0  0  0  0  0  0  0  0
   84.5021   -2.6247   -3.7670 H   0  0  0  0  0  0  0  0  0  0  0  0
   82.5970   -1.4876   -2.2288 H   0  0  0  0  0  0  0  0  0  0  0  0
   82.6145    1.1438    2.2587 H   0  0  0  0  0  0  0  0  0  0  0  0
   84.5214    2.2296    3.8305 H   0  0  0  0  0  0  0  0  0  0  0  0
   86.2332    6.5737    2.9149 H   0  0  0  0  0  0  0  0  0  0  0  0
   85.1711    5.8893    1.6563 H   0  0  0  0  0  0  0  0  0  0  0  0
   84.6411    5.8890    3.3593 H   0  0  0  0  0  0  0  0  0  0  0  0
   86.1933    5.8232    5.1566 H   0  0  0  0  0  0  0  0  0  0  0  0
   87.1475    4.8711    7.2077 H   0  0  0  0  0  0  0  0  0  0  0  0
   88.0851    2.6030    7.2330 H   0  0  0  0  0  0  0  0  0  0  0  0
   89.0347   -0.6426    5.8697 H   0  0  0  0  0  0  0  0  0  0  0  0
   89.5882    0.9013    6.5698 H   0  0  0  0  0  0  0  0  0  0  0  0
   87.9817    0.2441    7.0036 H   0  0  0  0  0  0  0  0  0  0  0  0
   89.6793    2.9368    3.3447 H   0  0  0  0  0  0  0  0  0  0  0  0
   91.5507    2.0935    1.5883 H   0  0  0  0  0  0  0  0  0  0  0  0
   85.7904   -6.0208   -1.2657 H   0  0  0  0  0  0  0  0  0  0  0  0
   86.8127   -6.6992   -2.5600 H   0  0  0  0  0  0  0  0  0  0  0  0
   85.1125   -6.2566   -2.8983 H   0  0  0  0  0  0  0  0  0  0  0  0
   86.4663   -6.1904   -4.8446 H   0  0  0  0  0  0  0  0  0  0  0  0
   87.0969   -5.3464   -7.0612 H   0  0  0  0  0  0  0  0  0  0  0  0
   87.7317   -2.9983   -7.3874 H   0  0  0  0  0  0  0  0  0  0  0  0
   87.3383   -0.6665   -7.3606 H   0  0  0  0  0  0  0  0  0  0  0  0
   88.3620    0.4624   -6.4345 H   0  0  0  0  0  0  0  0  0  0  0  0
   89.0546   -1.0623   -7.0473 H   0  0  0  0  0  0  0  0  0  0  0  0
   52.8032    0.0702   -0.0528 C   0  0  0  0  0  0  0  0  0  0  0  0
   51.5821    0.0778   -0.0586 C   0  0  0  0  0  0  0  0  0  0  0  0
   54.1551    0.0577   -0.0423 C   0  0  0  0  0  0  0  0  0  0  0  0
   55.3763    0.0474   -0.0334 C   0  0  0  0  0  0  0  0  0  0  0  0
   66.2616   -0.0074   -0.0109 C   0  0  0  0  0  0  0  0  0  0  0  0
   65.0397   -0.0038   -0.0113 C   0  0  0  0  0  0  0  0  0  0  0  0
   67.6121   -0.0115   -0.0102 C   0  0  0  0  0  0  0  0  0  0  0  0
   68.8341   -0.0173   -0.0123 C   0  0  0  0  0  0  0  0  0  0  0  0
   79.7016   -0.0820   -0.0134 C   0  0  0  0  0  0  0  0  0  0  0  0
   78.4800   -0.0736   -0.0021 C   0  0  0  0  0  0  0  0  0  0  0  0
   81.0525   -0.0812   -0.0211 C   0  0  0  0  0  0  0  0  0  0  0  0
   82.2741   -0.0821   -0.0345 C   0  0  0  0  0  0  0  0  0  0  0  0
   60.2083    0.0095   -0.0209 Ni  0  0  0  0  0  0  0  0  0  0  0  0
   56.7835    0.0327   -0.0280 C   0  0  0  0  0  0  0  0  0  0  0  0
   57.4503    0.0048    1.1989 C   0  0  0  0  0  0  0  0  0  0  0  0
   56.7672   -0.0392    2.4529 C   0  0  0  0  0  0  0  0  0  0  0  0
   57.7211   -0.0393    3.4142 C   0  0  0  0  0  0  0  0  0  0  0  0
   58.9837    0.0131    2.7433 C   0  0  0  0  0  0  0  0  0  0  0  0
   58.8061    0.0252    1.3783 N   0  0  0  0  0  0  0  0  0  0  0  0
   60.2012    0.0540    3.4057 C   0  0  0  0  0  0  0  0  0  0  0  0
   61.4209    0.0835    2.7469 C   0  0  0  0  0  0  0  0  0  0  0  0
   62.6802    0.1624    3.4211 C   0  0  0  0  0  0  0  0  0  0  0  0
   63.6380    0.1476    2.4637 C   0  0  0  0  0  0  0  0  0  0  0  0
   61.6046    0.0388    1.3831 N   0  0  0  0  0  0  0  0  0  0  0  0
   62.9606    0.0653    1.2088 C   0  0  0  0  0  0  0  0  0  0  0  0
   63.6340   -0.0004   -0.0140 C   0  0  0  0  0  0  0  0  0  0  0  0
   62.9656   -0.0643   -1.2397 C   0  0  0  0  0  0  0  0  0  0  0  0
   63.6478   -0.1518   -2.4918 C   0  0  0  0  0  0  0  0  0  0  0  0
   62.6938   -0.1657   -3.4530 C   0  0  0  0  0  0  0  0  0  0  0  0
   61.4322   -0.0810   -2.7839 C   0  0  0  0  0  0  0  0  0  0  0  0
   60.2153   -0.0478   -3.4470 C   0  0  0  0  0  0  0  0  0  0  0  0
   60.2165   -0.0669   -4.9365 C   0  0  0  0  0  0  0  0  0  0  0  0
   59.7734   -1.2001   -5.6310 C   0  0  0  0  0  0  0  0  0  0  0  0
   59.3707   -2.2463   -4.8629 O   0  0  0  0  0  0  0  0  0  0  0  0
   58.9047   -3.4380   -5.4629 C   0  0  0  0  0  0  0  0  0  0  0  0
   59.7710   -1.2155   -7.0254 C   0  0  0  0  0  0  0  0  0  0  0  0
   60.2077   -0.0965   -7.7184 C   0  0  0  0  0  0  0  0  0  0  0  0
   60.6497    1.0365   -7.0522 C   0  0  0  0  0  0  0  0  0  0  0  0
   60.6561    1.0510   -5.6577 C   0  0  0  0  0  0  0  0  0  0  0  0
   61.0632    2.1134   -4.9148 O   0  0  0  0  0  0  0  0  0  0  0  0
   61.5164    3.2955   -5.5429 C   0  0  0  0  0  0  0  0  0  0  0  0
   58.9959    0.0063   -2.7896 C   0  0  0  0  0  0  0  0  0  0  0  0
   57.7369    0.0699   -3.4663 C   0  0  0  0  0  0  0  0  0  0  0  0
   56.7792    0.0911   -2.5091 C   0  0  0  0  0  0  0  0  0  0  0  0
   57.4564    0.0459   -1.2519 C   0  0  0  0  0  0  0  0  0  0  0  0
   58.8125    0.0048   -1.4253 N   0  0  0  0  0  0  0  0  0  0  0  0
   61.6105   -0.0330   -1.4194 N   0  0  0  0  0  0  0  0  0  0  0  0
   60.2005    0.0690    4.8952 C   0  0  0  0  0  0  0  0  0  0  0  0
   60.6498   -1.0470    5.6137 C   0  0  0  0  0  0  0  0  0  0  0  0
   61.0581   -2.1072    4.8685 O   0  0  0  0  0  0  0  0  0  0  0  0
   61.5465   -3.2771    5.4931 C   0  0  0  0  0  0  0  0  0  0  0  0
   60.6513   -1.0332    7.0082 C   0  0  0  0  0  0  0  0  0  0  0  0
   60.2081    0.0975    7.6775 C   0  0  0  0  0  0  0  0  0  0  0  0
   59.7608    1.2141    6.9874 C   0  0  0  0  0  0  0  0  0  0  0  0
   59.7547    1.1991    5.5930 C   0  0  0  0  0  0  0  0  0  0  0  0
   59.3423    2.2442    4.8283 O   0  0  0  0  0  0  0  0  0  0  0  0
   58.8729    3.4325    5.4322 C   0  0  0  0  0  0  0  0  0  0  0  0
   55.6953   -0.0689    2.5648 H   0  0  0  0  0  0  0  0  0  0  0  0
   57.5937   -0.0705    4.4839 H   0  0  0  0  0  0  0  0  0  0  0  0
   62.8033    0.2210    4.4902 H   0  0  0  0  0  0  0  0  0  0  0  0
   64.7092    0.1890    2.5795 H   0  0  0  0  0  0  0  0  0  0  0  0
   64.7193   -0.1971   -2.6030 H   0  0  0  0  0  0  0  0  0  0  0  0
   62.8203   -0.2268   -4.5216 H   0  0  0  0  0  0  0  0  0  0  0  0
   58.0128   -3.2574   -6.0751 H   0  0  0  0  0  0  0  0  0  0  0  0
   58.6462   -4.1099   -4.6424 H   0  0  0  0  0  0  0  0  0  0  0  0
   59.6800   -3.9064   -6.0813 H   0  0  0  0  0  0  0  0  0  0  0  0
   59.4329   -2.0859   -7.5716 H   0  0  0  0  0  0  0  0  0  0  0  0
   60.2034   -0.1076   -8.8028 H   0  0  0  0  0  0  0  0  0  0  0  0
   60.9836    1.8954   -7.6189 H   0  0  0  0  0  0  0  0  0  0  0  0
   61.7749    3.9866   -4.7385 H   0  0  0  0  0  0  0  0  0  0  0  0
   60.7336    3.7448   -6.1661 H   0  0  0  0  0  0  0  0  0  0  0  0
   62.4058    3.1086   -6.1569 H   0  0  0  0  0  0  0  0  0  0  0  0
   57.6143    0.0946   -4.5367 H   0  0  0  0  0  0  0  0  0  0  0  0
   55.7083    0.1347   -2.6262 H   0  0  0  0  0  0  0  0  0  0  0  0
   60.7821   -3.7443    6.1256 H   0  0  0  0  0  0  0  0  0  0  0  0
   61.8128   -3.9629    4.6868 H   0  0  0  0  0  0  0  0  0  0  0  0
   62.4379   -3.0674    6.0967 H   0  0  0  0  0  0  0  0  0  0  0  0
   60.9929   -1.8905    7.5725 H   0  0  0  0  0  0  0  0  0  0  0  0
   60.2116    0.1089    8.7619 H   0  0  0  0  0  0  0  0  0  0  0  0
   59.4227    2.0831    7.5358 H   0  0  0  0  0  0  0  0  0  0  0  0
   59.6503    3.9068    6.0434 H   0  0  0  0  0  0  0  0  0  0  0  0
   57.9879    3.2457    6.0524 H   0  0  0  0  0  0  0  0  0  0  0  0
   58.6020    4.1023    4.6139 H   0  0  0  0  0  0  0  0  0  0  0  0
   73.6572   -0.0273   -0.0058 Ni  0  0  0  0  0  0  0  0  0  0  0  0
   70.2393   -0.0197   -0.0107 C   0  0  0  0  0  0  0  0  0  0  0  0
   70.9107   -0.1536    1.2085 C   0  0  0  0  0  0  0  0  0  0  0  0
   70.2387   -0.3188    2.4582 C   0  0  0  0  0  0  0  0  0  0  0  0
   71.1941   -0.2960    3.4187 C   0  0  0  0  0  0  0  0  0  0  0  0
   72.4462   -0.1104    2.7520 C   0  0  0  0  0  0  0  0  0  0  0  0
   72.2629   -0.0615    1.3884 N   0  0  0  0  0  0  0  0  0  0  0  0
   73.6538    0.0644    3.4115 C   0  0  0  0  0  0  0  0  0  0  0  0
   74.8630    0.2016    2.7457 C   0  0  0  0  0  0  0  0  0  0  0  0
   76.1142    0.4214    3.4036 C   0  0  0  0  0  0  0  0  0  0  0  0
   77.0718    0.3855    2.4457 C   0  0  0  0  0  0  0  0  0  0  0  0
   75.0487    0.0752    1.3877 N   0  0  0  0  0  0  0  0  0  0  0  0
   76.4020    0.1508    1.2061 C   0  0  0  0  0  0  0  0  0  0  0  0
   77.0744   -0.0630   -0.0007 C   0  0  0  0  0  0  0  0  0  0  0  0
   76.4008   -0.2576   -1.2101 C   0  0  0  0  0  0  0  0  0  0  0  0
   77.0697   -0.4930   -2.4502 C   0  0  0  0  0  0  0  0  0  0  0  0
   76.1153   -0.4934   -3.4119 C   0  0  0  0  0  0  0  0  0  0  0  0
   74.8670   -0.2547   -2.7554 C   0  0  0  0  0  0  0  0  0  0  0  0
   73.6632   -0.0857   -3.4238 C   0  0  0  0  0  0  0  0  0  0  0  0
   73.6714   -0.0916   -4.9126 C   0  0  0  0  0  0  0  0  0  0  0  0
   73.0854   -1.1476   -5.6232 C   0  0  0  0  0  0  0  0  0  0  0  0
   72.5380   -2.1378   -4.8707 O   0  0  0  0  0  0  0  0  0  0  0  0
   71.9179   -3.2477   -5.4878 C   0  0  0  0  0  0  0  0  0  0  0  0
   73.0960   -1.1498   -7.0177 C   0  0  0  0  0  0  0  0  0  0  0  0
   73.6890   -0.0951   -7.6950 C   0  0  0  0  0  0  0  0  0  0  0  0
   74.2740    0.9611   -7.0131 C   0  0  0  0  0  0  0  0  0  0  0  0
   74.2675    0.9621   -5.6186 C   0  0  0  0  0  0  0  0  0  0  0  0
   74.8067    1.9531   -4.8616 O   0  0  0  0  0  0  0  0  0  0  0  0
   75.4318    3.0636   -5.4725 C   0  0  0  0  0  0  0  0  0  0  0  0
   72.4548    0.0899   -2.7663 C   0  0  0  0  0  0  0  0  0  0  0  0
   71.2056    0.2879   -3.4347 C   0  0  0  0  0  0  0  0  0  0  0  0
   70.2468    0.2981   -2.4774 C   0  0  0  0  0  0  0  0  0  0  0  0
   70.9143    0.1170   -1.2275 C   0  0  0  0  0  0  0  0  0  0  0  0
   72.2668    0.0237   -1.4040 N   0  0  0  0  0  0  0  0  0  0  0  0
   75.0502   -0.1498   -1.3953 N   0  0  0  0  0  0  0  0  0  0  0  0
   73.6525    0.1047    4.8999 C   0  0  0  0  0  0  0  0  0  0  0  0
   74.2328   -0.9361    5.6374 C   0  0  0  0  0  0  0  0  0  0  0  0
   74.7671   -1.9525    4.9110 O   0  0  0  0  0  0  0  0  0  0  0  0
   75.3814   -3.0494    5.5564 C   0  0  0  0  0  0  0  0  0  0  0  0
   74.2293   -0.8991    7.0314 C   0  0  0  0  0  0  0  0  0  0  0  0
   73.6505    0.1802    7.6817 C   0  0  0  0  0  0  0  0  0  0  0  0
   73.0721    1.2223    6.9730 C   0  0  0  0  0  0  0  0  0  0  0  0
   73.0705    1.1836    5.5789 C   0  0  0  0  0  0  0  0  0  0  0  0
   72.5364    2.1584    4.7976 O   0  0  0  0  0  0  0  0  0  0  0  0
   71.9134    3.2844    5.3818 C   0  0  0  0  0  0  0  0  0  0  0  0
   69.1721   -0.4311    2.5695 H   0  0  0  0  0  0  0  0  0  0  0  0
   71.0735   -0.3887    4.4857 H   0  0  0  0  0  0  0  0  0  0  0  0
   76.2327    0.5744    4.4639 H   0  0  0  0  0  0  0  0  0  0  0  0
   78.1386    0.5002    2.5527 H   0  0  0  0  0  0  0  0  0  0  0  0
   78.1340   -0.6304   -2.5551 H   0  0  0  0  0  0  0  0  0  0  0  0
   76.2341   -0.6360   -4.4737 H   0  0  0  0  0  0  0  0  0  0  0  0
   71.0643   -2.9397   -6.1037 H   0  0  0  0  0  0  0  0  0  0  0  0
   71.5629   -3.8865   -4.6770 H   0  0  0  0  0  0  0  0  0  0  0  0
   72.6267   -3.8115   -6.1065 H   0  0  0  0  0  0  0  0  0  0  0  0
   72.6491   -1.9615   -7.5759 H   0  0  0  0  0  0  0  0  0  0  0  0
   73.6956   -0.0963   -8.7795 H   0  0  0  0  0  0  0  0  0  0  0  0
   74.7282    1.7714   -7.5676 H   0  0  0  0  0  0  0  0  0  0  0  0
   75.7778    3.7028   -4.6581 H   0  0  0  0  0  0  0  0  0  0  0  0
   74.7287    3.6266   -6.0983 H   0  0  0  0  0  0  0  0  0  0  0  0
   76.2920    2.7568   -6.0797 H   0  0  0  0  0  0  0  0  0  0  0  0
   71.0888    0.3946   -4.5009 H   0  0  0  0  0  0  0  0  0  0  0  0
   69.1808    0.4134   -2.5909 H   0  0  0  0  0  0  0  0  0  0  0  0
   74.6699   -3.5928    6.1900 H   0  0  0  0  0  0  0  0  0  0  0  0
   75.7323   -3.7111    4.7624 H   0  0  0  0  0  0  0  0  0  0  0  0
   76.2373   -2.7305    6.1637 H   0  0  0  0  0  0  0  0  0  0  0  0
   74.6710   -1.6992    7.6102 H   0  0  0  0  0  0  0  0  0  0  0  0
   73.6500    0.2099    8.7658 H   0  0  0  0  0  0  0  0  0  0  0  0
   72.6295    2.0527    7.5067 H   0  0  0  0  0  0  0  0  0  0  0  0
   72.6185    3.8631    5.9909 H   0  0  0  0  0  0  0  0  0  0  0  0
   71.0551    2.9931    5.9992 H   0  0  0  0  0  0  0  0  0  0  0  0
   71.5649    3.9027    4.5525 H   0  0  0  0  0  0  0  0  0  0  0  0
  2  3  4  0  0  0  0
  3  4  4  0  0  0  0
  4  5  2  0  0  0  0
  5  6  4  0  0  0  0
  1  7  1  0  0  0  0
  3  7  4  0  0  0  0
  6  7  4  0  0  0  0
  6  8  4  0  0  0  0
  8  9  4  0  0  0  0
  9 10  4  0  0  0  0
 10 11  2  0  0  0  0
  1 12  1  0  0  0  0
  9 12  4  0  0  0  0
 11 13  4  0  0  0  0
 12 13  4  0  0  0  0
 13 14  4  0  0  0  0
 14 15  4  0  0  0  0
 15 16  4  0  0  0  0
 16 17  2  0  0  0  0
 17 18  4  0  0  0  0
 18 19  4  0  0  0  0
 19 20  1  0  0  0  0
 20 21  4  0  0  0  0
 21 22  1  0  0  0  0
 22 23  1  0  0  0  0
 21 24  4  0  0  0  0
 24 25  4  0  0  0  0
 25 26  4  0  0  0  0
 20 27  4  0  0  0  0
 26 27  4  0  0  0  0
 27 28  1  0  0  0  0
 28 29  1  0  0  0  0
 19 30  4  0  0  0  0
 30 31  4  0  0  0  0
 31 32  2  0  0  0  0
  2 33  4  0  0  0  0
 32 33  4  0  0  0  0
  1 34  1  0  0  0  0
 30 34  4  0  0  0  0
 33 34  4  0  0  0  0
  1 35  1  0  0  0  0
 15 35  4  0  0  0  0
 18 35  4  0  0  0  0
  8 36  1  0  0  0  0
 36 37  4  0  0  0  0
 37 38  1  0  0  0  0
 38 39  1  0  0  0  0
 37 40  4  0  0  0  0
 40 41  4  0  0  0  0
 41 42  4  0  0  0  0
 36 43  4  0  0  0  0
 42 43  4  0  0  0  0
 43 44  1  0  0  0  0
 44 45  1  0  0  0  0
  2 46  1  0  0  0  0
  4 47  1  0  0  0  0
  5 48  1  0  0  0  0
 10 49  1  0  0  0  0
 11 50  1  0  0  0  0
 16 51  1  0  0  0  0
 17 52  1  0  0  0  0
 23 53  1  0  0  0  0
 23 54  1  0  0  0  0
 23 55  1  0  0  0  0
 24 56  1  0  0  0  0
 25 57  1  0  0  0  0
 26 58  1  0  0  0  0
 29 59  1  0  0  0  0
 29 60  1  0  0  0  0
 29 61  1  0  0  0  0
 31 62  1  0  0  0  0
 32 63  1  0  0  0  0
 39 64  1  0  0  0  0
 39 65  1  0  0  0  0
 39 66  1  0  0  0  0
 40 67  1  0  0  0  0
 41 68  1  0  0  0  0
 42 69  1  0  0  0  0
 45 70  1  0  0  0  0
 45 71  1  0  0  0  0
 45 72  1  0  0  0  0
 74 75  4  0  0  0  0
 75 76  4  0  0  0  0
 76 77  2  0  0  0  0
 77 78  4  0  0  0  0
 73 79  1  0  0  0  0
 75 79  4  0  0  0  0
 78 79  4  0  0  0  0
 78 80  4  0  0  0  0
 80 81  4  0  0  0  0
 81 82  4  0  0  0  0
 82 83  2  0  0  0  0
 73 84  1  0  0  0  0
 81 84  4  0  0  0  0
 83 85  4  0  0  0  0
 84 85  4  0  0  0  0
 85 86  4  0  0  0  0
 86 87  4  0  0  0  0
 87 88  4  0  0  0  0
 88 89  2  0  0  0  0
 89 90  4  0  0  0  0
 90 91  4  0  0  0  0
 91 92  1  0  0  0  0
 92 93  4  0  0  0  0
 93 94  1  0  0  0  0
 94 95  1  0  0  0  0
 93 96  4  0  0  0  0
 96 97  4  0  0  0  0
 97 98  4  0  0  0  0
 92 99  4  0  0  0  0
 98 99  4  0  0  0  0
 99100  1  0  0  0  0
100101  1  0  0  0  0
 91102  4  0  0  0  0
102103  4  0  0  0  0
103104  2  0  0  0  0
 74105  4  0  0  0  0
104105  4  0  0  0  0
 73106  1  0  0  0  0
102106  4  0  0  0  0
105106  4  0  0  0  0
 73107  1  0  0  0  0
 87107  4  0  0  0  0
 90107  4  0  0  0  0
 80108  1  0  0  0  0
108109  4  0  0  0  0
109110  1  0  0  0  0
110111  1  0  0  0  0
109112  4  0  0  0  0
112113  4  0  0  0  0
113114  4  0  0  0  0
108115  4  0  0  0  0
114115  4  0  0  0  0
115116  1  0  0  0  0
116117  1  0  0  0  0
 74118  1  0  0  0  0
 76119  1  0  0  0  0
 77120  1  0  0  0  0
 82121  1  0  0  0  0
 83122  1  0  0  0  0
 88123  1  0  0  0  0
 89124  1  0  0  0  0
 95125  1  0  0  0  0
 95126  1  0  0  0  0
 95127  1  0  0  0  0
 96128  1  0  0  0  0
 97129  1  0  0  0  0
 98130  1  0  0  0  0
101131  1  0  0  0  0
101132  1  0  0  0  0
101133  1  0  0  0  0
103134  1  0  0  0  0
104135  1  0  0  0  0
111136  1  0  0  0  0
111137  1  0  0  0  0
111138  1  0  0  0  0
112139  1  0  0  0  0
113140  1  0  0  0  0
114141  1  0  0  0  0
117142  1  0  0  0  0
117143  1  0  0  0  0
117144  1  0  0  0  0
 14146  4  0  0  0  0
145146  3  0  0  0  0
145147  4  0  0  0  0
147148  3  0  0  0  0
149150  3  0  0  0  0
149151  4  0  0  0  0
151152  3  0  0  0  0
153154  3  0  0  0  0
153155  4  0  0  0  0
 86156  4  0  0  0  0
155156  3  0  0  0  0
148158  4  0  0  0  0
158159  4  0  0  0  0
159160  4  0  0  0  0
160161  2  0  0  0  0
161162  4  0  0  0  0
157163  1  0  0  0  0
159163  4  0  0  0  0
162163  4  0  0  0  0
162164  4  0  0  0  0
164165  4  0  0  0  0
165166  4  0  0  0  0
166167  2  0  0  0  0
157168  1  0  0  0  0
165168  4  0  0  0  0
167169  4  0  0  0  0
168169  4  0  0  0  0
150170  4  0  0  0  0
169170  4  0  0  0  0
170171  4  0  0  0  0
171172  4  0  0  0  0
172173  2  0  0  0  0
173174  4  0  0  0  0
174175  4  0  0  0  0
175176  1  0  0  0  0
176177  4  0  0  0  0
177178  1  0  0  0  0
178179  1  0  0  0  0
177180  4  0  0  0  0
180181  4  0  0  0  0
181182  4  0  0  0  0
176183  4  0  0  0  0
182183  4  0  0  0  0
183184  1  0  0  0  0
184185  1  0  0  0  0
175186  4  0  0  0  0
186187  4  0  0  0  0
187188  2  0  0  0  0
158189  4  0  0  0  0
188189  4  0  0  0  0
157190  1  0  0  0  0
186190  4  0  0  0  0
189190  4  0  0  0  0
157191  1  0  0  0  0
171191  4  0  0  0  0
174191  4  0  0  0  0
164192  1  0  0  0  0
192193  4  0  0  0  0
193194  1  0  0  0  0
194195  1  0  0  0  0
193196  4  0  0  0  0
196197  4  0  0  0  0
197198  4  0  0  0  0
192199  4  0  0  0  0
198199  4  0  0  0  0
199200  1  0  0  0  0
200201  1  0  0  0  0
160202  1  0  0  0  0
161203  1  0  0  0  0
166204  1  0  0  0  0
167205  1  0  0  0  0
172206  1  0  0  0  0
173207  1  0  0  0  0
179208  1  0  0  0  0
179209  1  0  0  0  0
179210  1  0  0  0  0
180211  1  0  0  0  0
181212  1  0  0  0  0
182213  1  0  0  0  0
185214  1  0  0  0  0
185215  1  0  0  0  0
185216  1  0  0  0  0
187217  1  0  0  0  0
188218  1  0  0  0  0
195219  1  0  0  0  0
195220  1  0  0  0  0
195221  1  0  0  0  0
196222  1  0  0  0  0
197223  1  0  0  0  0
198224  1  0  0  0  0
201225  1  0  0  0  0
201226  1  0  0  0  0
201227  1  0  0  0  0
152229  4  0  0  0  0
229230  4  0  0  0  0
230231  4  0  0  0  0
231232  2  0  0  0  0
232233  4  0  0  0  0
228234  1  0  0  0  0
230234  4  0  0  0  0
233234  4  0  0  0  0
233235  4  0  0  0  0
235236  4  0  0  0  0
236237  4  0  0  0  0
237238  2  0  0  0  0
228239  1  0  0  0  0
236239  4  0  0  0  0
238240  4  0  0  0  0
239240  4  0  0  0  0
154241  4  0  0  0  0
240241  4  0  0  0  0
241242  4  0  0  0  0
242243  4  0  0  0  0
243244  2  0  0  0  0
244245  4  0  0  0  0
245246  4  0  0  0  0
246247  1  0  0  0  0
247248  4  0  0  0  0
248249  1  0  0  0  0
249250  1  0  0  0  0
248251  4  0  0  0  0
251252  4  0  0  0  0
252253  4  0  0  0  0
247254  4  0  0  0  0
253254  4  0  0  0  0
254255  1  0  0  0  0
255256  1  0  0  0  0
246257  4  0  0  0  0
257258  4  0  0  0  0
258259  2  0  0  0  0
229260  4  0  0  0  0
259260  4  0  0  0  0
228261  1  0  0  0  0
257261  4  0  0  0  0
260261  4  0  0  0  0
228262  1  0  0  0  0
242262  4  0  0  0  0
245262  4  0  0  0  0
235263  1  0  0  0  0
263264  4  0  0  0  0
264265  1  0  0  0  0
265266  1  0  0  0  0
264267  4  0  0  0  0
267268  4  0  0  0  0
268269  4  0  0  0  0
263270  4  0  0  0  0
269270  4  0  0  0  0
270271  1  0  0  0  0
271272  1  0  0  0  0
231273  1  0  0  0  0
232274  1  0  0  0  0
237275  1  0  0  0  0
238276  1  0  0  0  0
243277  1  0  0  0  0
244278  1  0  0  0  0
250279  1  0  0  0  0
250280  1  0  0  0  0
250281  1  0  0  0  0
251282  1  0  0  0  0
252283  1  0  0  0  0
253284  1  0  0  0  0
256285  1  0  0  0  0
256286  1  0  0  0  0
256287  1  0  0  0  0
258288  1  0  0  0  0
259289  1  0  0  0  0
266290  1  0  0  0  0
266291  1  0  0  0  0
266292  1  0  0  0  0
267293  1  0  0  0  0
268294  1  0  0  0  0
269295  1  0  0  0  0
272296  1  0  0  0  0
272297  1  0  0  0  0
272298  1  0  0  0  0
M  END
