456

C 67.250048 -0.028974 0.076960
C 67.983923 1.194085 0.708122
C 67.389853 2.214589 1.415142
C 68.414938 3.136212 1.754426
C 69.599356 2.651366 1.233512
N 69.332145 1.438814 0.648346
C 71.019498 3.356289 1.271207
C 71.011232 4.790918 1.591775
C 70.701654 5.682865 0.626165
C 70.632723 7.163812 0.832248
N 71.079520 7.553025 2.167860
C 71.318171 6.623077 3.153036
C 71.312023 5.304576 2.922652
C 72.145498 2.656893 0.967694
C 73.444916 3.294674 0.938251
C 74.347753 2.388018 0.582543
N 72.343360 1.344278 0.628241
C 73.672376 1.120824 0.376565
C 74.338692 -0.002890 -0.000262
C 73.560853 -1.372738 -0.197281
C 74.100704 -2.640201 -0.097915
C 73.074687 -3.567524 -0.408194
C 71.933351 -2.841746 -0.678300
N 72.226150 -1.510430 -0.492495
C 70.520130 -3.424507 -1.102321
C 70.530012 -4.758857 -1.715599
C 70.138468 -5.829976 -0.990982
C 70.067867 -7.229142 -1.518581
N 70.625568 -7.338993 -2.865764
C 70.929522 -6.220855 -3.610374
C 70.911418 -4.981872 -3.104261
C 69.398764 -2.682467 -0.906101
C 68.078410 -3.146537 -1.293304
C 67.192243 -2.213336 -0.957218
C 67.913035 -1.117663 -0.356276
N 69.234120 -1.440421 -0.359100
H 66.172863 0.021994 -0.024743
H 66.339403 2.293975 1.648307
H 68.298662 4.062309 2.296794
H 70.027048 0.816470 0.243423
H 70.474433 5.313716 -0.370406
H 69.601005 7.501904 0.684210
H 71.261276 7.667929 0.090786
H 70.777337 8.463692 2.488971
H 71.524113 7.028462 4.137432
H 71.519601 4.577979 3.700951
H 73.648143 4.328471 1.155773
H 75.399159 2.583045 0.474546
H 75.123479 -2.875463 0.155651
H 73.159583 -4.643595 -0.439432
H 71.543321 -0.757669 -0.516313
H 69.829762 -5.675248 0.040309
H 69.022889 -7.557822 -1.531209
H 70.623402 -7.899718 -0.854883
H 70.300704 -8.131957 -3.404356
H 71.192050 -6.408176 -4.645788
H 71.162395 -4.109071 -3.698074
H 67.854702 -4.081191 -1.774658
H 66.129542 -2.255724 -1.113147
C 186.426972 -0.021428 0.079110
C 185.693096 -1.393471 -0.029222
C 186.287167 -2.633371 0.033680
C 185.262082 -3.595402 -0.163797
C 184.077664 -2.908801 -0.350899
N 184.344875 -1.569933 -0.209019
C 182.657521 -3.527712 -0.690441
C 182.665787 -4.915828 -1.174235
C 182.975366 -5.164814 -2.464962
C 183.044297 -6.531946 -3.070461
N 182.597500 -7.566715 -2.140623
C 182.358849 -7.295749 -0.813237
C 182.364996 -6.053855 -0.314018
C 181.531522 -2.773383 -0.579704
C 180.232104 -3.299846 -0.940907
C 179.329266 -2.341876 -0.765275
N 181.333660 -1.478999 -0.176273
C 180.004644 -1.156447 -0.272361
C 179.338328 -0.002890 -0.000262
C 180.116167 1.265052 0.554377
C 179.576316 2.289759 1.306914
C 180.602333 3.241345 1.532044
C 181.743669 2.766959 0.919942
N 181.450870 1.537673 0.376085
C 183.156890 3.485694 0.866793
C 183.147008 4.942885 1.048985
C 183.538552 5.471161 2.229361
C 183.609153 6.938271 2.518528
N 183.051452 7.741739 1.431603
C 182.747498 7.184044 0.209452
C 182.765602 5.864384 -0.013540
C 184.278256 2.751682 0.642400
C 185.598610 3.350146 0.557974
C 186.484777 2.379961 0.351676
C 185.763985 1.132099 0.284811
N 184.442900 1.407866 0.452541
H 187.504157 -0.011131 -0.034182
H 187.337617 -2.823736 0.189977
H 185.378358 -4.668284 -0.191053
H 183.649972 -0.827628 -0.225075
H 183.202587 -4.325808 -3.117260
H 184.076015 -6.741222 -3.374475
H 182.415744 -6.569508 -3.966278
H 182.899683 -8.509858 -2.347768
H 182.152906 -8.159131 -0.190386
H 182.157419 -5.846648 0.730376
H 180.028877 -4.293020 -1.300986
H 178.277861 -2.450683 -0.959852
H 178.553541 2.356026 1.646402
H 180.517437 4.172252 2.072709
H 182.133699 0.910535 -0.040946
H 183.847258 4.796068 3.024188
H 184.654131 7.224237 2.681049
H 183.053618 7.158279 3.436006
H 183.376316 8.699495 1.391892
H 182.484970 7.889009 -0.571699
H 182.514625 5.435688 -0.978224
H 185.822318 4.398139 0.641590
H 187.547478 2.498174 0.241511
C 76.849167 0.010768 0.009292
C 78.307393 -0.011068 -0.008581
C 79.441321 -0.031822 -0.010072
C 80.802703 -0.044412 -0.012263
C 82.076922 -0.034106 -0.017028
C 83.265384 -0.015307 -0.023184
C 84.617745 0.009477 -0.007316
C 85.718012 0.010768 0.009292
C 95.048071 0.010768 0.009292
C 96.506297 -0.011068 -0.008581
C 97.640225 -0.031822 -0.010072
C 99.001607 -0.044412 -0.012263
C 100.275826 -0.034106 -0.017028
C 101.464288 -0.015307 -0.023184
C 102.816649 0.009477 -0.007316
C 103.916916 0.010768 0.009292
C 113.246975 0.010768 0.009292
C 114.705201 -0.011068 -0.008581
C 115.839129 -0.031822 -0.010072
C 117.200511 -0.044412 -0.012263
C 118.474730 -0.034106 -0.017028
C 119.663192 -0.015307 -0.023184
C 121.015553 0.009477 -0.007316
C 122.115820 0.010768 0.009292
C 131.445879 0.010768 0.009292
C 132.904105 -0.011068 -0.008581
C 134.038033 -0.031822 -0.010072
C 135.399415 -0.044412 -0.012263
C 136.673634 -0.034106 -0.017028
C 137.862096 -0.015307 -0.023184
C 139.214457 0.009477 -0.007316
C 140.314724 0.010768 0.009292
C 149.644783 0.010768 0.009292
C 151.103009 -0.011068 -0.008581
C 152.236937 -0.031822 -0.010072
C 153.598319 -0.044412 -0.012263
C 154.872538 -0.034106 -0.017028
C 156.061000 -0.015307 -0.023184
C 157.413361 0.009477 -0.007316
C 158.513628 0.010768 0.009292
C 167.843687 0.010768 0.009292
C 169.301913 -0.011068 -0.008581
C 170.435841 -0.031822 -0.010072
C 171.797223 -0.044412 -0.012263
C 173.071442 -0.034106 -0.017028
C 174.259904 -0.015307 -0.023184
C 175.612265 0.009477 -0.007316
C 176.712532 0.010768 0.009292
C 86.829378 -0.000606 -0.001432
C 87.605071 -0.148172 1.377665
C 87.031894 -0.128957 2.633526
C 88.072392 -0.268753 3.579669
C 89.258410 -0.367634 2.881225
N 88.965243 -0.287986 1.539661
C 90.698012 -0.515056 3.526724
C 90.721620 -0.765069 4.977248
C 90.660705 -2.036382 5.428739
C 90.719966 -2.424024 6.873457
N 90.683002 -1.259242 7.757236
C 90.854346 0.017244 7.270365
C 90.866839 0.300439 5.962241
C 91.823925 -0.406295 2.773654
C 93.136030 -0.485337 3.381618
C 94.047950 -0.324670 2.431661
N 92.020715 -0.214930 1.431852
C 93.365550 -0.160824 1.163221
C 94.048411 -0.000606 -0.001432
C 93.271359 0.104687 -1.382263
C 93.837831 0.016119 -2.638299
C 92.797401 0.151048 -3.585475
C 91.618941 0.315783 -2.886445
N 91.914827 0.271379 -1.544311
C 90.182963 0.495194 -3.529501
C 90.163737 0.763581 -4.976560
C 90.267968 2.037137 -5.413612
C 90.216691 2.443206 -6.853470
N 90.211853 1.288193 -7.751063
C 89.995929 0.013130 -7.278063
C 89.977149 -0.284476 -5.973288
C 89.056453 0.398707 -2.775656
C 87.745321 0.514394 -3.379358
C 86.832366 0.360021 -2.429583
C 87.513594 0.162642 -1.165013
N 88.858508 0.192770 -1.436008
H 85.981868 -0.017320 2.855436
H 87.968083 -0.285008 4.654518
H 89.649973 -0.288456 0.787181
H 90.579462 -2.842827 4.704768
H 91.639266 -2.990116 7.058469
H 89.871637 -3.072528 7.114977
H 91.048263 -1.412786 8.688855
H 90.976165 0.789913 8.021657
H 90.996702 1.310228 5.587616
H 93.346079 -0.635843 4.425556
H 95.109194 -0.333871 2.599522
H 94.883353 -0.135291 -2.858269
H 92.896366 0.124679 -4.660889
H 91.232820 0.308856 -0.790502
H 90.380181 2.831939 -4.680927
H 89.315599 3.041038 -7.028435
H 91.084847 3.066626 -7.090877
H 89.846833 1.465442 -8.678497
H 89.842619 -0.745620 -8.037505
H 89.810443 -1.292831 -5.609779
H 87.536535 0.684857 -4.420503
H 85.771294 0.394557 -2.595197
C 105.028282 -0.000606 -0.001432
C 105.803975 -0.148172 1.377665
C 105.230798 -0.128957 2.633526
C 106.271296 -0.268753 3.579669
C 107.457314 -0.367634 2.881225
N 107.164147 -0.287986 1.539661
C 108.896916 -0.515056 3.526724
C 108.920524 -0.765069 4.977248
C 108.859609 -2.036382 5.428739
C 108.918870 -2.424024 6.873457
N 108.881906 -1.259242 7.757236
C 109.053250 0.017244 7.270365
C 109.065743 0.300439 5.962241
C 110.022829 -0.406295 2.773654
C 111.334934 -0.485337 3.381618
C 112.246854 -0.324670 2.431661
N 110.219619 -0.214930 1.431852
C 111.564454 -0.160824 1.163221
C 112.247315 -0.000606 -0.001432
C 111.470263 0.104687 -1.382263
C 112.036735 0.016119 -2.638299
C 110.996305 0.151048 -3.585475
C 109.817845 0.315783 -2.886445
N 110.113731 0.271379 -1.544311
C 108.381867 0.495194 -3.529501
C 108.362641 0.763581 -4.976560
C 108.466872 2.037137 -5.413612
C 108.415595 2.443206 -6.853470
N 108.410757 1.288193 -7.751063
C 108.194833 0.013130 -7.278063
C 108.176053 -0.284476 -5.973288
C 107.255357 0.398707 -2.775656
C 105.944225 0.514394 -3.379358
C 105.031270 0.360021 -2.429583
C 105.712498 0.162642 -1.165013
N 107.057412 0.192770 -1.436008
H 104.180772 -0.017320 2.855436
H 106.166987 -0.285008 4.654518
H 107.848877 -0.288456 0.787181
H 108.778366 -2.842827 4.704768
H 109.838170 -2.990116 7.058469
H 108.070541 -3.072528 7.114977
H 109.247167 -1.412786 8.688855
H 109.175069 0.789913 8.021657
H 109.195606 1.310228 5.587616
H 111.544983 -0.635843 4.425556
H 113.308098 -0.333871 2.599522
H 113.082257 -0.135291 -2.858269
H 111.095270 0.124679 -4.660889
H 109.431724 0.308856 -0.790502
H 108.579085 2.831939 -4.680927
H 107.514503 3.041038 -7.028435
H 109.283751 3.066626 -7.090877
H 108.045737 1.465442 -8.678497
H 108.041523 -0.745620 -8.037505
H 108.009347 -1.292831 -5.609779
H 105.735439 0.684857 -4.420503
H 103.970198 0.394557 -2.595197
C 123.227186 -0.000606 -0.001432
C 124.002879 -0.148172 1.377665
C 123.429702 -0.128957 2.633526
C 124.470200 -0.268753 3.579669
C 125.656218 -0.367634 2.881225
N 125.363051 -0.287986 1.539661
C 127.095820 -0.515056 3.526724
C 127.119428 -0.765069 4.977248
C 127.058513 -2.036382 5.428739
C 127.117774 -2.424024 6.873457
N 127.080810 -1.259242 7.757236
C 127.252154 0.017244 7.270365
C 127.264647 0.300439 5.962241
C 128.221733 -0.406295 2.773654
C 129.533838 -0.485337 3.381618
C 130.445758 -0.324670 2.431661
N 128.418523 -0.214930 1.431852
C 129.763358 -0.160824 1.163221
C 130.446219 -0.000606 -0.001432
C 129.669167 0.104687 -1.382263
C 130.235639 0.016119 -2.638299
C 129.195209 0.151048 -3.585475
C 128.016749 0.315783 -2.886445
N 128.312635 0.271379 -1.544311
C 126.580771 0.495194 -3.529501
C 126.561545 0.763581 -4.976560
C 126.665776 2.037137 -5.413612
C 126.614499 2.443206 -6.853470
N 126.609661 1.288193 -7.751063
C 126.393737 0.013130 -7.278063
C 126.374957 -0.284476 -5.973288
C 125.454261 0.398707 -2.775656
C 124.143129 0.514394 -3.379358
C 123.230174 0.360021 -2.429583
C 123.911402 0.162642 -1.165013
N 125.256316 0.192770 -1.436008
H 122.379676 -0.017320 2.855436
H 124.365891 -0.285008 4.654518
H 126.047781 -0.288456 0.787181
H 126.977270 -2.842827 4.704768
H 128.037074 -2.990116 7.058469
H 126.269445 -3.072528 7.114977
H 127.446071 -1.412786 8.688855
H 127.373973 0.789913 8.021657
H 127.394510 1.310228 5.587616
H 129.743887 -0.635843 4.425556
H 131.507002 -0.333871 2.599522
H 131.281161 -0.135291 -2.858269
H 129.294174 0.124679 -4.660889
H 127.630628 0.308856 -0.790502
H 126.777989 2.831939 -4.680927
H 125.713408 3.041038 -7.028435
H 127.482655 3.066626 -7.090877
H 126.244641 1.465442 -8.678497
H 126.240427 -0.745620 -8.037505
H 126.208251 -1.292831 -5.609779
H 123.934343 0.684857 -4.420503
H 122.169102 0.394557 -2.595197
C 141.426090 -0.000606 -0.001432
C 142.201783 -0.148172 1.377665
C 141.628606 -0.128957 2.633526
C 142.669104 -0.268753 3.579669
C 143.855122 -0.367634 2.881225
N 143.561955 -0.287986 1.539661
C 145.294724 -0.515056 3.526724
C 145.318332 -0.765069 4.977248
C 145.257417 -2.036382 5.428739
C 145.316678 -2.424024 6.873457
N 145.279714 -1.259242 7.757236
C 145.451058 0.017244 7.270365
C 145.463551 0.300439 5.962241
C 146.420637 -0.406295 2.773654
C 147.732742 -0.485337 3.381618
C 148.644662 -0.324670 2.431661
N 146.617427 -0.214930 1.431852
C 147.962262 -0.160824 1.163221
C 148.645123 -0.000606 -0.001432
C 147.868071 0.104687 -1.382263
C 148.434543 0.016119 -2.638299
C 147.394113 0.151048 -3.585475
C 146.215653 0.315783 -2.886445
N 146.511539 0.271379 -1.544311
C 144.779675 0.495194 -3.529501
C 144.760449 0.763581 -4.976560
C 144.864680 2.037137 -5.413612
C 144.813403 2.443206 -6.853470
N 144.808565 1.288193 -7.751063
C 144.592641 0.013130 -7.278063
C 144.573861 -0.284476 -5.973288
C 143.653165 0.398707 -2.775656
C 142.342033 0.514394 -3.379358
C 141.429078 0.360021 -2.429583
C 142.110306 0.162642 -1.165013
N 143.455220 0.192770 -1.436008
H 140.578580 -0.017320 2.855436
H 142.564795 -0.285008 4.654518
H 144.246685 -0.288456 0.787181
H 145.176174 -2.842827 4.704768
H 146.235978 -2.990116 7.058469
H 144.468349 -3.072528 7.114977
H 145.644975 -1.412786 8.688855
H 145.572877 0.789913 8.021657
H 145.593414 1.310228 5.587616
H 147.942791 -0.635843 4.425556
H 149.705906 -0.333871 2.599522
H 149.480065 -0.135291 -2.858269
H 147.493078 0.124679 -4.660889
H 145.829532 0.308856 -0.790502
H 144.976893 2.831939 -4.680927
H 143.912312 3.041038 -7.028435
H 145.681559 3.066626 -7.090877
H 144.443545 1.465442 -8.678497
H 144.439331 -0.745620 -8.037505
H 144.407155 -1.292831 -5.609779
H 142.133247 0.684857 -4.420503
H 140.368006 0.394557 -2.595197
C 159.624994 -0.000606 -0.001432
C 160.400687 -0.148172 1.377665
C 159.827510 -0.128957 2.633526
C 160.868008 -0.268753 3.579669
C 162.054026 -0.367634 2.881225
N 161.760859 -0.287986 1.539661
C 163.493628 -0.515056 3.526724
C 163.517236 -0.765069 4.977248
C 163.456321 -2.036382 5.428739
C 163.515582 -2.424024 6.873457
N 163.478618 -1.259242 7.757236
C 163.649962 0.017244 7.270365
C 163.662455 0.300439 5.962241
C 164.619541 -0.406295 2.773654
C 165.931646 -0.485337 3.381618
C 166.843566 -0.324670 2.431661
N 164.816331 -0.214930 1.431852
C 166.161166 -0.160824 1.163221
C 166.844027 -0.000606 -0.001432
C 166.066975 0.104687 -1.382263
C 166.633447 0.016119 -2.638299
C 165.593017 0.151048 -3.585475
C 164.414557 0.315783 -2.886445
N 164.710443 0.271379 -1.544311
C 162.978579 0.495194 -3.529501
C 162.959353 0.763581 -4.976560
C 163.063584 2.037137 -5.413612
C 163.012307 2.443206 -6.853470
N 163.007469 1.288193 -7.751063
C 162.791545 0.013130 -7.278063
C 162.772765 -0.284476 -5.973288
C 161.852069 0.398707 -2.775656
C 160.540937 0.514394 -3.379358
C 159.627982 0.360021 -2.429583
C 160.309210 0.162642 -1.165013
N 161.654124 0.192770 -1.436008
H 158.777484 -0.017320 2.855436
H 160.763699 -0.285008 4.654518
H 162.445589 -0.288456 0.787181
H 163.375078 -2.842827 4.704768
H 164.434882 -2.990116 7.058469
H 162.667253 -3.072528 7.114977
H 163.843879 -1.412786 8.688855
H 163.771781 0.789913 8.021657
H 163.792318 1.310228 5.587616
H 166.141695 -0.635843 4.425556
H 167.904810 -0.333871 2.599522
H 167.678969 -0.135291 -2.858269
H 165.691982 0.124679 -4.660889
H 164.028436 0.308856 -0.790502
H 163.175797 2.831939 -4.680927
H 162.111216 3.041038 -7.028435
H 163.880463 3.066626 -7.090877
H 162.642450 1.465442 -8.678497
H 162.638235 -0.745620 -8.037505
H 162.606059 -1.292831 -5.609779
H 160.332151 0.684857 -4.420503
H 158.566910 0.394557 -2.595197
