508

C 85.811251 -0.028070 0.078167
C 86.545127 1.194989 0.709329
C 85.951057 2.215493 1.416350
C 86.976142 3.137115 1.755634
C 88.160560 2.652269 1.234719
N 87.893348 1.439718 0.649554
C 89.580702 3.357193 1.272414
C 89.572436 4.791822 1.592983
C 89.262858 5.683768 0.627372
C 89.193927 7.164716 0.833455
N 89.640724 7.553928 2.169067
C 89.879374 6.623981 3.154244
C 89.873227 5.305480 2.923859
C 90.706701 2.657797 0.968901
C 92.006120 3.295578 0.939458
C 92.908957 2.388921 0.583751
N 90.904563 1.345182 0.629449
C 92.233579 1.121728 0.377772
C 92.899895 -0.001986 0.000946
C 92.122056 -1.371835 -0.196073
C 92.661907 -2.639297 -0.096708
C 91.635891 -3.566620 -0.406986
C 90.494555 -2.840842 -0.677093
N 90.787353 -1.509526 -0.491287
C 89.081333 -3.423604 -1.101113
C 89.091215 -4.757953 -1.714392
C 88.699672 -5.829072 -0.989775
C 88.629070 -7.228238 -1.517374
N 89.186771 -7.338090 -2.864556
C 89.490725 -6.219951 -3.609167
C 89.472621 -4.980968 -3.103053
C 87.959967 -2.681564 -0.904894
C 86.639614 -3.145633 -1.292097
C 85.753446 -2.212432 -0.956010
C 86.474238 -1.116759 -0.355068
N 87.795323 -1.439518 -0.357893
H 84.734066 0.022897 -0.023536
H 84.900606 2.294878 1.649515
H 86.859866 4.063212 2.298002
H 88.588251 0.817374 0.244630
H 89.035637 5.314619 -0.369199
H 88.162209 7.502808 0.685417
H 89.822479 7.668833 0.091993
H 89.338541 8.464596 2.490179
H 90.085317 7.029366 4.138639
H 90.080804 4.578883 3.702159
H 92.209346 4.329375 1.156980
H 93.960362 2.583949 0.475754
H 93.684682 -2.874559 0.156858
H 91.720786 -4.642691 -0.438225
H 90.104525 -0.756765 -0.515106
H 88.390965 -5.674344 0.041516
H 87.584092 -7.556918 -1.530001
H 89.184606 -7.898815 -0.853675
H 88.861907 -8.131053 -3.403149
H 89.753253 -6.407272 -4.644581
H 89.723598 -4.108167 -3.696866
H 86.415905 -4.080288 -1.773451
H 84.690745 -2.254820 -1.111940
C 210.130870 -0.020525 0.080317
C 209.396994 -1.392568 -0.028014
C 209.991064 -2.632467 0.034887
C 208.965979 -3.594498 -0.162590
C 207.781561 -2.907898 -0.349692
N 208.048772 -1.569029 -0.207811
C 206.361419 -3.526808 -0.689233
C 206.369685 -4.914925 -1.173027
C 206.679263 -5.163911 -2.463755
C 206.748194 -6.531042 -3.069253
N 206.301397 -7.565811 -2.139415
C 206.062747 -7.294846 -0.812030
C 206.068894 -6.052951 -0.312810
C 205.235419 -2.772479 -0.578496
C 203.936001 -3.298942 -0.939699
C 203.033164 -2.340972 -0.764068
N 205.037558 -1.478095 -0.175065
C 203.708541 -1.155543 -0.271153
C 203.042226 -0.001986 0.000946
C 203.820065 1.265956 0.555585
C 203.280214 2.290663 1.308121
C 204.306230 3.242249 1.533251
C 205.447566 2.767863 0.921149
N 205.154768 1.538576 0.377292
C 206.860788 3.486598 0.868000
C 206.850906 4.943789 1.050192
C 207.242449 5.472065 2.230568
C 207.313051 6.939174 2.519736
N 206.755350 7.742643 1.432811
C 206.451395 7.184948 0.210659
C 206.469500 5.865287 -0.012332
C 207.982153 2.752586 0.643608
C 209.302507 3.351049 0.559181
C 210.188675 2.380864 0.352884
C 209.467883 1.133002 0.286018
N 208.146797 1.408770 0.453748
H 211.208054 -0.010227 -0.032975
H 211.041515 -2.822833 0.191185
H 209.082255 -4.667380 -0.189846
H 207.353869 -0.826724 -0.223868
H 206.906484 -4.324904 -3.116053
H 207.779912 -6.740318 -3.373268
H 206.119641 -6.568604 -3.965071
H 206.603580 -8.508954 -2.346561
H 205.856804 -8.158227 -0.189179
H 205.861316 -5.845744 0.731584
H 203.732774 -4.292116 -1.299778
H 201.981759 -2.449779 -0.958645
H 202.257438 2.356930 1.647610
H 204.221334 4.173155 2.073916
H 205.837596 0.911439 -0.039738
H 207.551156 4.796971 3.025395
H 208.358028 7.225141 2.682257
H 206.757515 7.159183 3.437213
H 207.080214 8.700399 1.393099
H 206.188868 7.889913 -0.570491
H 206.218522 5.436591 -0.977016
H 209.526215 4.399042 0.642797
H 211.251375 2.499078 0.242719
C 99.437779 -0.001116 0.009500
C 98.228839 -0.014571 0.001053
C 96.807310 -0.005752 -0.010931
C 95.595641 0.001687 -0.000068
C 100.854383 -0.007791 0.010033
C 102.075079 0.001687 -0.000068
C 115.816792 -0.001116 0.009500
C 114.607853 -0.014571 0.001053
C 113.186324 -0.005752 -0.010931
C 111.974655 0.001687 -0.000068
C 117.233397 -0.007791 0.010033
C 118.454092 0.001687 -0.000068
C 132.195806 -0.001116 0.009500
C 130.986867 -0.014571 0.001053
C 129.565338 -0.005752 -0.010931
C 128.353668 0.001687 -0.000068
C 133.612410 -0.007791 0.010033
C 134.833106 0.001687 -0.000068
C 148.574820 -0.001116 0.009500
C 147.365880 -0.014571 0.001053
C 145.944351 -0.005752 -0.010931
C 144.732682 0.001687 -0.000068
C 149.991424 -0.007791 0.010033
C 151.212120 0.001687 -0.000068
C 164.953833 -0.001116 0.009500
C 163.744894 -0.014571 0.001053
C 162.323365 -0.005752 -0.010931
C 161.111695 0.001687 -0.000068
C 166.370437 -0.007791 0.010033
C 167.591133 0.001687 -0.000068
C 181.332847 -0.001116 0.009500
C 180.123907 -0.014571 0.001053
C 178.702379 -0.005752 -0.010931
C 177.490709 0.001687 -0.000068
C 182.749451 -0.007791 0.010033
C 183.970147 0.001687 -0.000068
C 197.711860 -0.001116 0.009500
C 196.502921 -0.014571 0.001053
C 195.081392 -0.005752 -0.010931
C 193.869723 0.001687 -0.000068
C 199.128465 -0.007791 0.010033
C 200.349161 0.001687 -0.000068
C 103.412066 0.000470 -0.000313
C 104.187759 -0.147096 1.378784
C 103.614582 -0.127881 2.634645
C 104.655080 -0.267677 3.580788
C 105.841097 -0.366558 2.882344
N 105.547931 -0.286909 1.540780
C 107.280700 -0.513980 3.527843
C 107.304308 -0.763992 4.978367
C 107.243392 -2.035305 5.429858
C 107.302653 -2.422948 6.874576
N 107.265690 -1.258165 7.758355
C 107.437034 0.018320 7.271484
C 107.449527 0.301515 5.963360
C 108.406612 -0.405218 2.774773
C 109.718718 -0.484261 3.382737
C 110.630638 -0.323593 2.432780
N 108.603403 -0.213854 1.432971
C 109.948238 -0.159747 1.164340
C 110.631099 0.000470 -0.000313
C 109.854047 0.105764 -1.381144
C 110.420519 0.017195 -2.637180
C 109.380089 0.152125 -3.584356
C 108.201629 0.316860 -2.885326
N 108.497515 0.272455 -1.543192
C 106.765651 0.496270 -3.528382
C 106.746425 0.764657 -4.975441
C 106.850656 2.038213 -5.412493
C 106.799378 2.444282 -6.852351
N 106.794541 1.289270 -7.749944
C 106.578617 0.014207 -7.276944
C 106.559837 -0.283399 -5.972169
C 105.639141 0.399783 -2.774537
C 104.328009 0.515470 -3.378239
C 103.415053 0.361098 -2.428464
C 104.096282 0.163718 -1.163894
N 105.441196 0.193846 -1.434889
H 102.564556 -0.016244 2.856555
H 104.550771 -0.283931 4.655637
H 106.232661 -0.287379 0.788300
H 107.162150 -2.841751 4.705887
H 108.221954 -2.989040 7.059588
H 106.454324 -3.071452 7.116096
H 107.630951 -1.411710 8.689974
H 107.558853 0.790989 8.022776
H 107.579390 1.311304 5.588735
H 109.928767 -0.634767 4.426675
H 111.691882 -0.332795 2.600641
H 111.466041 -0.134214 -2.857150
H 109.479054 0.125755 -4.659770
H 107.815508 0.309932 -0.789383
H 106.962869 2.833016 -4.679808
H 105.898287 3.042114 -7.027316
H 107.667535 3.067702 -7.089758
H 106.429521 1.466518 -8.677378
H 106.425307 -0.744543 -8.036386
H 106.393130 -1.291755 -5.608660
H 104.119223 0.685934 -4.419384
H 102.353982 0.395633 -2.594078
C 119.791080 0.000470 -0.000313
C 120.566772 -0.147096 1.378784
C 119.993595 -0.127881 2.634645
C 121.034094 -0.267677 3.580788
C 122.220111 -0.366558 2.882344
N 121.926945 -0.286909 1.540780
C 123.659713 -0.513980 3.527843
C 123.683322 -0.763992 4.978367
C 123.622406 -2.035305 5.429858
C 123.681667 -2.422948 6.874576
N 123.644704 -1.258165 7.758355
C 123.816048 0.018320 7.271484
C 123.828540 0.301515 5.963360
C 124.785626 -0.405218 2.774773
C 126.097731 -0.484261 3.382737
C 127.009651 -0.323593 2.432780
N 124.982416 -0.213854 1.432971
C 126.327251 -0.159747 1.164340
C 127.010113 0.000470 -0.000313
C 126.233061 0.105764 -1.381144
C 126.799533 0.017195 -2.637180
C 125.759102 0.152125 -3.584356
C 124.580642 0.316860 -2.885326
N 124.876529 0.272455 -1.543192
C 123.144665 0.496270 -3.528382
C 123.125439 0.764657 -4.975441
C 123.229669 2.038213 -5.412493
C 123.178392 2.444282 -6.852351
N 123.173555 1.289270 -7.749944
C 122.957631 0.014207 -7.276944
C 122.938850 -0.283399 -5.972169
C 122.018155 0.399783 -2.774537
C 120.707023 0.515470 -3.378239
C 119.794067 0.361098 -2.428464
C 120.475296 0.163718 -1.163894
N 121.820210 0.193846 -1.434889
H 118.943569 -0.016244 2.856555
H 120.929784 -0.283931 4.655637
H 122.611674 -0.287379 0.788300
H 123.541163 -2.841751 4.705887
H 124.600967 -2.989040 7.059588
H 122.833338 -3.071452 7.116096
H 124.009965 -1.411710 8.689974
H 123.937867 0.790989 8.022776
H 123.958404 1.311304 5.588735
H 126.307781 -0.634767 4.426675
H 128.070895 -0.332795 2.600641
H 127.845054 -0.134214 -2.857150
H 125.858068 0.125755 -4.659770
H 124.194521 0.309932 -0.789383
H 123.341883 2.833016 -4.679808
H 122.277301 3.042114 -7.027316
H 124.046548 3.067702 -7.089758
H 122.808535 1.466518 -8.677378
H 122.804321 -0.744543 -8.036386
H 122.772144 -1.291755 -5.608660
H 120.498237 0.685934 -4.419384
H 118.732996 0.395633 -2.594078
C 136.170093 0.000470 -0.000313
C 136.945786 -0.147096 1.378784
C 136.372609 -0.127881 2.634645
C 137.413107 -0.267677 3.580788
C 138.599125 -0.366558 2.882344
N 138.305958 -0.286909 1.540780
C 140.038727 -0.513980 3.527843
C 140.062335 -0.763992 4.978367
C 140.001420 -2.035305 5.429858
C 140.060681 -2.422948 6.874576
N 140.023717 -1.258165 7.758355
C 140.195061 0.018320 7.271484
C 140.207554 0.301515 5.963360
C 141.164640 -0.405218 2.774773
C 142.476745 -0.484261 3.382737
C 143.388665 -0.323593 2.432780
N 141.361430 -0.213854 1.432971
C 142.706265 -0.159747 1.164340
C 143.389126 0.000470 -0.000313
C 142.612074 0.105764 -1.381144
C 143.178546 0.017195 -2.637180
C 142.138116 0.152125 -3.584356
C 140.959656 0.316860 -2.885326
N 141.255542 0.272455 -1.543192
C 139.523678 0.496270 -3.528382
C 139.504452 0.764657 -4.975441
C 139.608683 2.038213 -5.412493
C 139.557406 2.444282 -6.852351
N 139.552568 1.289270 -7.749944
C 139.336644 0.014207 -7.276944
C 139.317864 -0.283399 -5.972169
C 138.397168 0.399783 -2.774537
C 137.086036 0.515470 -3.378239
C 136.173081 0.361098 -2.428464
C 136.854309 0.163718 -1.163894
N 138.199223 0.193846 -1.434889
H 135.322583 -0.016244 2.856555
H 137.308798 -0.283931 4.655637
H 138.990688 -0.287379 0.788300
H 139.920177 -2.841751 4.705887
H 140.979981 -2.989040 7.059588
H 139.212352 -3.071452 7.116096
H 140.388978 -1.411710 8.689974
H 140.316880 0.790989 8.022776
H 140.337417 1.311304 5.588735
H 142.686794 -0.634767 4.426675
H 144.449909 -0.332795 2.600641
H 144.224068 -0.134214 -2.857150
H 142.237081 0.125755 -4.659770
H 140.573535 0.309932 -0.789383
H 139.720896 2.833016 -4.679808
H 138.656315 3.042114 -7.027316
H 140.425562 3.067702 -7.089758
H 139.187549 1.466518 -8.677378
H 139.183335 -0.744543 -8.036386
H 139.151158 -1.291755 -5.608660
H 136.877250 0.685934 -4.419384
H 135.112009 0.395633 -2.594078
C 152.549107 0.000470 -0.000313
C 153.324800 -0.147096 1.378784
C 152.751622 -0.127881 2.634645
C 153.792121 -0.267677 3.580788
C 154.978138 -0.366558 2.882344
N 154.684972 -0.286909 1.540780
C 156.417740 -0.513980 3.527843
C 156.441349 -0.763992 4.978367
C 156.380433 -2.035305 5.429858
C 156.439694 -2.422948 6.874576
N 156.402731 -1.258165 7.758355
C 156.574075 0.018320 7.271484
C 156.586568 0.301515 5.963360
C 157.543653 -0.405218 2.774773
C 158.855758 -0.484261 3.382737
C 159.767679 -0.323593 2.432780
N 157.740443 -0.213854 1.432971
C 159.085279 -0.159747 1.164340
C 159.768140 0.000470 -0.000313
C 158.991088 0.105764 -1.381144
C 159.557560 0.017195 -2.637180
C 158.517129 0.152125 -3.584356
C 157.338670 0.316860 -2.885326
N 157.634556 0.272455 -1.543192
C 155.902692 0.496270 -3.528382
C 155.883466 0.764657 -4.975441
C 155.987697 2.038213 -5.412493
C 155.936419 2.444282 -6.852351
N 155.931582 1.289270 -7.749944
C 155.715658 0.014207 -7.276944
C 155.696878 -0.283399 -5.972169
C 154.776182 0.399783 -2.774537
C 153.465050 0.515470 -3.378239
C 152.552094 0.361098 -2.428464
C 153.233323 0.163718 -1.163894
N 154.578237 0.193846 -1.434889
H 151.701596 -0.016244 2.856555
H 153.687811 -0.283931 4.655637
H 155.369702 -0.287379 0.788300
H 156.299190 -2.841751 4.705887
H 157.358994 -2.989040 7.059588
H 155.591365 -3.071452 7.116096
H 156.767992 -1.411710 8.689974
H 156.695894 0.790989 8.022776
H 156.716431 1.311304 5.588735
H 159.065808 -0.634767 4.426675
H 160.828923 -0.332795 2.600641
H 160.603082 -0.134214 -2.857150
H 158.616095 0.125755 -4.659770
H 156.952549 0.309932 -0.789383
H 156.099910 2.833016 -4.679808
H 155.035328 3.042114 -7.027316
H 156.804576 3.067702 -7.089758
H 155.566562 1.466518 -8.677378
H 155.562348 -0.744543 -8.036386
H 155.530171 -1.291755 -5.608660
H 153.256264 0.685934 -4.419384
H 151.491023 0.395633 -2.594078
C 168.928121 0.000470 -0.000313
C 169.703813 -0.147096 1.378784
C 169.130636 -0.127881 2.634645
C 170.171134 -0.267677 3.580788
C 171.357152 -0.366558 2.882344
N 171.063986 -0.286909 1.540780
C 172.796754 -0.513980 3.527843
C 172.820362 -0.763992 4.978367
C 172.759447 -2.035305 5.429858
C 172.818708 -2.422948 6.874576
N 172.781745 -1.258165 7.758355
C 172.953089 0.018320 7.271484
C 172.965581 0.301515 5.963360
C 173.922667 -0.405218 2.774773
C 175.234772 -0.484261 3.382737
C 176.146692 -0.323593 2.432780
N 174.119457 -0.213854 1.432971
C 175.464292 -0.159747 1.164340
C 176.147153 0.000470 -0.000313
C 175.370102 0.105764 -1.381144
C 175.936574 0.017195 -2.637180
C 174.896143 0.152125 -3.584356
C 173.717683 0.316860 -2.885326
N 174.013569 0.272455 -1.543192
C 172.281705 0.496270 -3.528382
C 172.262479 0.764657 -4.975441
C 172.366710 2.038213 -5.412493
C 172.315433 2.444282 -6.852351
N 172.310596 1.289270 -7.749944
C 172.094672 0.014207 -7.276944
C 172.075891 -0.283399 -5.972169
C 171.155196 0.399783 -2.774537
C 169.844064 0.515470 -3.378239
C 168.931108 0.361098 -2.428464
C 169.612337 0.163718 -1.163894
N 170.957251 0.193846 -1.434889
H 168.080610 -0.016244 2.856555
H 170.066825 -0.283931 4.655637
H 171.748715 -0.287379 0.788300
H 172.678204 -2.841751 4.705887
H 173.738008 -2.989040 7.059588
H 171.970379 -3.071452 7.116096
H 173.147006 -1.411710 8.689974
H 173.074908 0.790989 8.022776
H 173.095444 1.311304 5.588735
H 175.444822 -0.634767 4.426675
H 177.207936 -0.332795 2.600641
H 176.982095 -0.134214 -2.857150
H 174.995109 0.125755 -4.659770
H 173.331562 0.309932 -0.789383
H 172.478924 2.833016 -4.679808
H 171.414342 3.042114 -7.027316
H 173.183589 3.067702 -7.089758
H 171.945576 1.466518 -8.677378
H 171.941362 -0.744543 -8.036386
H 171.909185 -1.291755 -5.608660
H 169.635277 0.685934 -4.419384
H 167.870037 0.395633 -2.594078
C 185.307134 0.000470 -0.000313
C 186.082827 -0.147096 1.378784
C 185.509650 -0.127881 2.634645
C 186.550148 -0.267677 3.580788
C 187.736165 -0.366558 2.882344
N 187.442999 -0.286909 1.540780
C 189.175768 -0.513980 3.527843
C 189.199376 -0.763992 4.978367
C 189.138460 -2.035305 5.429858
C 189.197721 -2.422948 6.874576
N 189.160758 -1.258165 7.758355
C 189.332102 0.018320 7.271484
C 189.344595 0.301515 5.963360
C 190.301681 -0.405218 2.774773
C 191.613786 -0.484261 3.382737
C 192.525706 -0.323593 2.432780
N 190.498471 -0.213854 1.432971
C 191.843306 -0.159747 1.164340
C 192.526167 0.000470 -0.000313
C 191.749115 0.105764 -1.381144
C 192.315587 0.017195 -2.637180
C 191.275157 0.152125 -3.584356
C 190.096697 0.316860 -2.885326
N 190.392583 0.272455 -1.543192
C 188.660719 0.496270 -3.528382
C 188.641493 0.764657 -4.975441
C 188.745724 2.038213 -5.412493
C 188.694447 2.444282 -6.852351
N 188.689609 1.289270 -7.749944
C 188.473685 0.014207 -7.276944
C 188.454905 -0.283399 -5.972169
C 187.534209 0.399783 -2.774537
C 186.223077 0.515470 -3.378239
C 185.310122 0.361098 -2.428464
C 185.991350 0.163718 -1.163894
N 187.336264 0.193846 -1.434889
H 184.459624 -0.016244 2.856555
H 186.445839 -0.283931 4.655637
H 188.127729 -0.287379 0.788300
H 189.057218 -2.841751 4.705887
H 190.117022 -2.989040 7.059588
H 188.349393 -3.071452 7.116096
H 189.526019 -1.411710 8.689974
H 189.453921 0.790989 8.022776
H 189.474458 1.311304 5.588735
H 191.823835 -0.634767 4.426675
H 193.586950 -0.332795 2.600641
H 193.361109 -0.134214 -2.857150
H 191.374122 0.125755 -4.659770
H 189.710576 0.309932 -0.789383
H 188.857937 2.833016 -4.679808
H 187.793355 3.042114 -7.027316
H 189.562603 3.067702 -7.089758
H 188.324589 1.466518 -8.677378
H 188.320375 -0.744543 -8.036386
H 188.288199 -1.291755 -5.608660
H 186.014291 0.685934 -4.419384
H 184.249050 0.395633 -2.594078
