282

C 37.708098 0.046833 0.098779
C 38.437362 -1.319680 -0.082276
C 37.834202 -2.556539 -0.109070
C 38.856379 -3.511711 -0.346508
C 40.049007 -2.823964 -0.463923
N 39.787869 -1.494050 -0.247862
C 41.468341 -3.439645 -0.809938
C 41.500044 -4.828199 -1.321667
C 41.295255 -5.079748 -2.685022
C 41.286596 -6.389400 -3.165797
C 41.482190 -7.445038 -2.270982
S 41.377235 -9.117560 -2.836048
O 40.790038 -9.121014 -4.160872
O 40.245613 -9.768783 -1.882003
O 42.633377 -9.777696 -2.556644
C 41.698016 -7.209100 -0.909604
C 41.708909 -5.896684 -0.438829
C 42.599650 -2.697265 -0.678355
C 43.901187 -3.213344 -1.049668
C 44.804539 -2.263176 -0.838367
N 42.798417 -1.417789 -0.232851
C 44.129049 -1.097274 -0.303964
C 44.797653 0.039345 0.026446
C 44.020699 1.275094 0.647266
C 44.555897 2.242592 1.474692
C 43.530626 3.180301 1.753717
C 42.396570 2.754450 1.095240
N 42.689603 1.564992 0.471277
C 40.990354 3.487638 1.076761
C 40.971454 4.944506 1.328057
C 41.349032 5.833085 0.312947
C 41.384431 7.205659 0.557494
C 41.036833 7.683441 1.825235
S 41.200988 9.411788 2.163914
O 40.140171 10.115001 1.478563
O 42.603659 9.811332 1.464972
O 41.435489 9.574713 3.584313
C 40.648828 6.810748 2.845532
C 40.615896 5.439608 2.590925
C 39.862795 2.777955 0.816650
C 38.543959 3.383471 0.767919
C 37.656061 2.428683 0.506144
C 38.373857 1.185104 0.369048
N 39.694902 1.447705 0.553500
H 36.630894 0.067813 -0.015346
H 36.779036 -2.746995 0.013391
H 38.730822 -4.579232 -0.443625
H 40.486222 -0.755238 -0.212580
H 41.138227 -4.239187 -3.358811
H 41.117639 -6.566766 -4.224080
H 39.370423 -9.540071 -2.256738
H 41.853996 -8.030424 -0.215652
H 41.874027 -5.685486 0.616374
H 44.112036 -4.192329 -1.441495
H 45.856971 -2.367139 -1.029817
H 45.574097 2.276760 1.832322
H 43.612223 4.066792 2.363995
H 42.008779 0.967748 0.008939
H 41.621243 5.436044 -0.663612
H 41.685840 7.882686 -0.237106
H 43.329310 9.492531 2.040292
H 40.385221 7.176778 3.833899
H 40.323812 4.737061 3.369922
H 38.317062 4.423983 0.914385
H 36.593493 2.555696 0.405190
C 101.338011 -0.005470 0.083715
C 100.608747 1.248005 0.657246
C 101.211907 2.309637 1.292443
C 100.189730 3.244777 1.599435
C 98.997102 2.724841 1.134194
N 99.258240 1.483738 0.609774
C 97.577768 3.430250 1.168667
C 97.546065 4.878275 1.473904
C 97.750854 5.816458 0.453205
C 97.759514 7.181205 0.742687
C 97.563919 7.599174 2.061917
S 97.668875 9.316036 2.473030
O 98.256071 10.023635 1.352998
O 98.800496 9.360039 3.627308
O 96.412733 9.726429 3.060758
C 97.348093 6.675263 3.089245
C 97.337200 5.313494 2.789826
C 96.446459 2.731609 0.885220
C 95.144922 3.366129 0.845293
C 94.241571 2.449129 0.518829
N 96.247693 1.411176 0.581921
C 94.917060 1.177587 0.351221
C 94.248456 0.039345 0.026446
C 95.025411 -1.337310 -0.105136
C 94.490212 -2.596703 0.080922
C 95.515483 -3.539174 -0.181566
C 96.649539 -2.828317 -0.512658
N 96.356507 -1.489189 -0.408361
C 98.055755 -3.439357 -0.918289
C 98.074655 -4.806707 -1.480399
C 97.697078 -5.019224 -2.812637
C 97.661679 -6.311604 -3.335626
C 98.009276 -7.390505 -2.516227
S 97.845122 -9.034224 -3.148740
O 98.905938 -9.265171 -4.103139
O 96.442451 -9.000793 -3.953127
O 97.610620 -9.927701 -2.032597
C 98.397281 -7.194199 -1.188047
C 98.430214 -5.897683 -0.674339
C 99.183314 -2.700039 -0.761072
C 100.502150 -3.186874 -1.124412
C 101.390048 -2.239115 -0.838233
C 100.672252 -1.113123 -0.292866
N 99.351207 -1.433604 -0.276349
H 102.415215 0.037467 -0.024086
H 102.267073 2.405780 1.497446
H 100.315288 4.200418 2.085010
H 98.559888 0.839341 0.246676
H 97.907882 5.463055 -0.564459
H 97.928470 7.894302 -0.059134
H 99.675686 9.365686 3.188327
H 97.192113 7.001652 4.113751
H 97.172083 4.573387 3.571042
H 94.934073 4.403553 1.034214
H 93.189139 2.638999 0.412005
H 93.472012 -2.815860 0.365591
H 95.433886 -4.614468 -0.136304
H 97.037330 -0.737521 -0.482197
H 97.424866 -4.163575 -3.428408
H 97.360269 -6.462266 -4.368610
H 95.716799 -9.036844 -3.296371
H 98.660888 -8.029869 -0.545782
H 98.722297 -5.717110 0.359006
H 100.729047 -4.145892 -1.553833
H 102.452617 -2.292973 -0.991279
C 47.063052 0.054035 0.036722
C 48.521278 0.032198 0.018849
C 49.655206 0.011445 0.017358
C 51.016588 -0.001145 0.015167
C 52.290807 0.009161 0.010401
C 53.479269 0.027959 0.004245
C 54.831630 0.052744 0.020113
C 55.931898 0.054035 0.036722
C 65.026614 0.054035 0.036722
C 66.484840 0.032198 0.018849
C 67.618768 0.011445 0.017358
C 68.980150 -0.001145 0.015167
C 70.254369 0.009161 0.010401
C 71.442831 0.027959 0.004245
C 72.795192 0.052744 0.020113
C 73.895459 0.054035 0.036722
C 82.990175 0.054035 0.036722
C 84.448401 0.032198 0.018849
C 85.582329 0.011445 0.017358
C 86.943711 -0.001145 0.015167
C 88.217930 0.009161 0.010401
C 89.406392 0.027959 0.004245
C 90.758753 0.052744 0.020113
C 91.859020 0.054035 0.036722
C 57.030973 -0.050091 -0.033745
C 57.828151 0.418545 -1.318949
C 57.331635 0.535790 -2.601013
C 58.371326 1.062168 -3.410435
C 59.470511 1.244050 -2.597692
N 59.153304 0.776855 -1.347367
C 60.856321 1.880105 -3.016309
C 60.842670 2.900696 -4.086864
C 61.166021 2.550129 -5.404783
C 61.118100 3.507240 -6.417681
C 60.752158 4.819707 -6.101642
S 60.617672 6.001176 -7.411483
O 60.006142 7.206037 -6.888123
O 59.498642 5.356859 -8.383924
O 61.870101 6.034239 -8.131165
C 60.444038 5.188663 -4.789372
C 60.486737 4.222244 -3.784304
C 61.994063 1.533238 -2.361382
C 63.279427 2.118606 -2.680366
C 64.190901 1.593290 -1.868571
N 62.206053 0.655190 -1.335788
C 63.530930 0.648238 -0.990587
C 64.196370 -0.050091 -0.033745
C 63.401929 -1.053000 0.900776
C 63.908632 -2.171729 1.529239
C 62.870071 -2.712073 2.331699
C 61.759380 -1.912600 2.158580
N 62.072116 -0.952275 1.229631
C 60.369701 -2.059897 2.900711
C 60.376297 -2.674705 4.246771
C 59.972032 -4.005972 4.418883
C 59.957777 -4.577376 5.690630
C 60.358195 -3.809928 6.789075
S 60.229286 -4.508359 8.408869
O 61.232405 -5.540884 8.541389
O 58.775428 -5.217256 8.407139
O 60.111735 -3.426650 9.365080
C 60.777677 -2.486147 6.632252
C 60.788031 -1.922922 5.355899
C 59.231609 -1.583591 2.330466
C 57.943982 -1.650252 2.991248
C 57.033812 -1.101730 2.193310
C 57.695459 -0.657578 0.983846
N 59.020722 -0.969724 1.127713
H 56.328961 0.289696 -2.915926
H 58.317153 1.298002 -4.462001
H 59.809034 0.667700 -0.579302
H 61.451399 1.522911 -5.624323
H 61.363450 3.223469 -7.437611
H 58.618474 5.559792 -8.005663
H 60.162973 6.207031 -4.535238
H 60.242103 4.480681 -2.754953
H 63.474555 2.855398 -3.439015
H 65.236876 1.842304 -1.876997
H 64.917921 -2.544978 1.443486
H 62.934442 -3.574472 2.978026
H 61.413458 -0.295984 0.820505
H 59.657943 -4.580197 3.548911
H 59.632438 -5.606902 5.811726
H 58.099398 -4.519358 8.540103
H 61.083854 -1.883778 7.483258
H 61.103078 -0.890986 5.208283
H 57.746870 -2.062697 3.963708
H 55.988244 -1.007781 2.423935
C 74.994534 -0.050091 -0.033745
C 75.791713 0.418545 -1.318949
C 75.295196 0.535790 -2.601013
C 76.334888 1.062168 -3.410435
C 77.434072 1.244050 -2.597692
N 77.116866 0.776855 -1.347367
C 78.819882 1.880105 -3.016309
C 78.806231 2.900696 -4.086864
C 79.129582 2.550129 -5.404783
C 79.081661 3.507240 -6.417681
C 78.715719 4.819707 -6.101642
S 78.581233 6.001176 -7.411483
O 77.969704 7.206037 -6.888123
O 77.462204 5.356859 -8.383924
O 79.833663 6.034239 -8.131165
C 78.407600 5.188663 -4.789372
C 78.450298 4.222244 -3.784304
C 79.957624 1.533238 -2.361382
C 81.242989 2.118606 -2.680366
C 82.154462 1.593290 -1.868571
N 80.169615 0.655190 -1.335788
C 81.494491 0.648238 -0.990587
C 82.159932 -0.050091 -0.033745
C 81.365491 -1.053000 0.900776
C 81.872193 -2.171729 1.529239
C 80.833632 -2.712073 2.331699
C 79.722941 -1.912600 2.158580
N 80.035677 -0.952275 1.229631
C 78.333263 -2.059897 2.900711
C 78.339859 -2.674705 4.246771
C 77.935593 -4.005972 4.418883
C 77.921338 -4.577376 5.690630
C 78.321756 -3.809928 6.789075
S 78.192847 -4.508359 8.408869
O 79.195966 -5.540884 8.541389
O 76.738990 -5.217256 8.407139
O 78.075297 -3.426650 9.365080
C 78.741238 -2.486147 6.632252
C 78.751593 -1.922922 5.355899
C 77.195170 -1.583591 2.330466
C 75.907543 -1.650252 2.991248
C 74.997374 -1.101730 2.193310
C 75.659021 -0.657578 0.983846
N 76.984283 -0.969724 1.127713
H 74.292522 0.289696 -2.915926
H 76.280714 1.298002 -4.462001
H 77.772596 0.667700 -0.579302
H 79.414960 1.522911 -5.624323
H 79.327012 3.223469 -7.437611
H 76.582036 5.559792 -8.005663
H 78.126534 6.207031 -4.535238
H 78.205664 4.480681 -2.754953
H 81.438117 2.855398 -3.439015
H 83.200437 1.842304 -1.876997
H 82.881483 -2.544978 1.443486
H 80.898003 -3.574472 2.978026
H 79.377020 -0.295984 0.820505
H 77.621504 -4.580197 3.548911
H 77.596000 -5.606902 5.811726
H 76.062959 -4.519358 8.540103
H 79.047415 -1.883778 7.483258
H 79.066640 -0.890986 5.208283
H 75.710432 -2.062697 3.963708
H 73.951806 -1.007781 2.423935
