248

Cu 39.109896 0.436333 0.329863
C 35.775353 0.310167 0.288205
C 36.436244 -0.851232 0.288972
C 35.784360 -2.153914 0.339369
C 36.723054 -3.080803 0.284514
C 38.027939 -2.412795 0.185261
N 37.852340 -0.995409 0.199638
C 39.218376 -3.039001 0.070398
C 39.269619 -4.519650 0.021118
C 38.798917 -5.180304 -1.047695
C 38.788057 -6.685944 -1.121887
N 39.591718 -7.303407 -0.063761
C 40.038472 -6.575124 1.084567
C 39.889289 -5.253774 1.141198
C 40.508768 -2.304457 -0.006790
C 41.789048 -2.933990 -0.354265
C 42.723552 -2.006522 -0.293986
N 40.654537 -1.041351 0.252459
C 42.047554 -0.774320 0.091825
C 42.643564 0.405358 0.331417
C 41.879541 1.614639 0.706755
C 42.403674 2.676245 1.306686
C 41.361566 3.682096 1.390013
C 40.271635 3.168358 0.830259
N 40.509781 1.836514 0.372697
C 39.000509 3.909117 0.629645
C 39.039730 5.393011 0.634977
C 38.363063 6.091449 1.561991
C 38.338634 7.598506 1.573269
N 39.345422 8.181631 0.682679
C 40.021706 7.413239 -0.318378
C 39.883145 6.089911 -0.356270
C 37.839165 3.260721 0.416094
C 36.537727 3.873713 0.154629
C 35.674420 2.879461 0.070238
C 36.416320 1.634527 0.262336
N 37.678332 1.844604 0.464608
H 34.692127 0.285176 0.303019
H 34.721463 -2.344943 0.412494
H 36.533722 -4.145546 0.307316
H 38.351890 -4.630229 -1.867935
H 39.185360 -7.002032 -2.110143
H 37.739540 -7.039980 -1.033288
H 39.742534 -8.336300 -0.090517
H 40.520215 -7.099933 1.900094
H 40.248485 -4.711752 2.008242
H 41.956449 -3.970610 -0.616409
H 43.774700 -2.161582 -0.495319
H 43.425104 2.789767 1.644990
H 41.465554 4.677324 1.803156
H 37.763452 5.569362 2.298637
H 38.523584 7.951892 2.609362
H 37.330974 7.942055 1.257760
H 39.488100 9.215434 0.698839
H 40.662523 7.910377 -1.035901
H 40.411575 5.519265 -1.110547
H 36.299577 4.923574 0.046961
H 34.611996 2.981863 -0.111287
Cu 84.749822 0.375440 0.323251
C 88.084365 0.507606 0.309644
C 87.423474 1.641772 0.559676
C 88.075358 2.903275 0.888506
C 87.136664 3.820336 1.033877
C 85.831779 3.189201 0.793556
N 86.007378 1.801763 0.503371
C 84.641341 3.825466 0.815779
C 84.590099 5.282183 1.085454
C 85.060801 6.156850 0.183354
C 85.071661 7.643323 0.434062
N 84.268000 8.019278 1.600059
C 83.821246 7.061492 2.565304
C 83.970429 5.758783 2.337001
C 83.350950 3.124609 0.582728
C 82.070670 3.814052 0.378474
C 81.136166 2.895262 0.238276
N 83.205181 1.835297 0.564821
C 81.812164 1.608968 0.350615
C 81.216153 0.405358 0.331417
C 81.980177 -0.856301 0.438447
C 81.456044 -2.021933 0.796532
C 82.498152 -3.022226 0.662021
C 83.588083 -2.400316 0.225583
N 83.349937 -1.001302 0.064551
C 84.859209 -3.080750 -0.129352
C 84.819988 -4.531204 -0.442648
C 85.496655 -5.412338 0.312848
C 85.521084 -6.886691 0.000388
N 84.514296 -7.265069 -0.994607
C 83.838012 -6.299719 -1.807406
C 83.976573 -4.999100 -1.560375
C 86.020553 -2.401630 -0.198755
C 87.321991 -2.944214 -0.585698
C 88.185298 -1.955022 -0.454717
C 87.443398 -0.780335 0.000117
N 86.181386 -1.028931 0.152584
H 89.167591 0.528835 0.329476
H 89.138255 3.074157 1.000929
H 87.325996 4.855369 1.284684
H 85.507828 5.795652 -0.735837
H 84.674358 8.164163 -0.463316
H 86.120178 7.970091 0.596587
H 84.117184 9.033841 1.795627
H 83.339503 7.399025 3.474469
H 83.611233 5.043292 3.067498
H 81.903268 4.882778 0.344940
H 80.085018 3.089922 0.074918
H 80.434613 -2.205422 1.102585
H 82.394164 -4.082935 0.851920
H 86.096265 -5.060533 1.144386
H 85.336134 -7.454228 0.936482
H 86.528744 -7.154513 -0.381507
H 84.371617 -8.278247 -1.200720
H 83.197195 -6.631261 -2.614911
H 83.448143 -4.279856 -2.174589
H 87.560141 -3.946496 -0.916199
H 89.247722 -2.016075 -0.653990
C 48.136638 0.406461 0.339907
C 46.927698 0.393006 0.331459
C 45.506170 0.401825 0.319476
C 44.294500 0.409264 0.330339
C 49.553242 0.399786 0.340440
C 50.773938 0.409264 0.330339
C 62.533703 0.406461 0.339907
C 61.324764 0.393006 0.331459
C 59.903235 0.401825 0.319476
C 58.691565 0.409264 0.330339
C 63.950307 0.399786 0.340440
C 65.171003 0.409264 0.330339
C 76.930768 0.406461 0.339907
C 75.721829 0.393006 0.331459
C 74.300300 0.401825 0.319476
C 73.088630 0.409264 0.330339
C 78.347372 0.399786 0.340440
C 79.568068 0.409264 0.330339
Cu 54.440447 0.082730 -0.223979
C 51.606796 -0.477091 -0.389390
C 51.926025 0.568231 -1.154388
C 51.721864 1.968734 -0.779787
C 52.531016 2.720476 -1.507537
C 53.395991 1.830039 -2.285202
N 52.981216 0.478638 -2.104482
C 54.628526 2.167853 -2.703112
C 54.973192 3.583854 -3.001246
C 54.179640 4.316533 -3.800899
C 54.488187 5.746679 -4.162550
N 55.616541 6.287261 -3.398587
C 56.474707 5.466440 -2.604438
C 56.184695 4.185294 -2.407691
C 55.729189 1.201040 -2.510191
C 56.859144 1.001572 -3.419406
C 57.756169 0.263553 -2.782166
N 55.939879 0.646674 -1.359139
C 57.216762 0.028295 -1.444679
C 57.880251 -0.477091 -0.389390
C 57.277984 -0.525674 0.966072
C 57.956224 -0.531254 2.110333
C 56.982010 -0.588243 3.192358
C 55.774014 -0.624020 2.635107
N 55.876773 -0.582685 1.210231
C 54.485560 -0.767849 3.374840
C 54.499838 -1.200203 4.795351
C 55.078769 -2.361267 5.139780
C 55.148865 -2.823341 6.572054
N 54.206585 -2.105151 7.428740
C 53.679721 -0.824924 7.063659
C 53.820605 -0.378688 5.815217
C 53.310771 -0.601108 2.735143
C 51.980197 -0.997473 3.202484
C 51.179777 -0.924551 2.147309
C 51.976281 -0.431097 1.025320
N 53.209087 -0.255427 1.365164
H 51.042539 2.337461 -0.023363
H 52.632117 3.791140 -1.399846
H 53.303830 3.864862 -4.249423
H 54.722139 5.799168 -5.248920
H 53.587561 6.368015 -3.964858
H 55.858008 7.292515 -3.514644
H 57.354576 5.894332 -2.147627
H 56.837400 3.588855 -1.783742
H 56.964589 1.400686 -4.420482
H 58.714340 -0.042286 -3.180601
H 59.030507 -0.486308 2.222870
H 57.204081 -0.619184 4.252272
H 55.565216 -2.965761 4.388957
H 56.178363 -2.664245 6.951232
H 54.918663 -3.909004 6.610304
H 54.045690 -2.455264 8.400006
H 53.137326 -0.240753 7.788795
H 53.402362 0.586707 5.548699
H 51.701368 -1.365269 4.179977
H 50.139446 -1.209618 2.125209
Cu 68.837512 0.082730 -0.223979
C 66.003861 -0.477091 -0.389390
C 66.323090 0.568231 -1.154388
C 66.118929 1.968734 -0.779787
C 66.928081 2.720476 -1.507537
C 67.793056 1.830039 -2.285202
N 67.378281 0.478638 -2.104482
C 69.025592 2.167853 -2.703112
C 69.370257 3.583854 -3.001246
C 68.576705 4.316533 -3.800899
C 68.885252 5.746679 -4.162550
N 70.013606 6.287261 -3.398587
C 70.871772 5.466440 -2.604438
C 70.581761 4.185294 -2.407691
C 70.126254 1.201040 -2.510191
C 71.256209 1.001572 -3.419406
C 72.153234 0.263553 -2.782166
N 70.336944 0.646674 -1.359139
C 71.613827 0.028295 -1.444679
C 72.277316 -0.477091 -0.389390
C 71.675049 -0.525674 0.966072
C 72.353289 -0.531254 2.110333
C 71.379075 -0.588243 3.192358
C 70.171079 -0.624020 2.635107
N 70.273838 -0.582685 1.210231
C 68.882626 -0.767849 3.374840
C 68.896904 -1.200203 4.795351
C 69.475834 -2.361267 5.139780
C 69.545930 -2.823341 6.572054
N 68.603650 -2.105151 7.428740
C 68.076786 -0.824924 7.063659
C 68.217670 -0.378688 5.815217
C 67.707836 -0.601108 2.735143
C 66.377262 -0.997473 3.202484
C 65.576842 -0.924551 2.147309
C 66.373346 -0.431097 1.025320
N 67.606152 -0.255427 1.365164
H 65.439604 2.337461 -0.023363
H 67.029182 3.791140 -1.399846
H 67.700895 3.864862 -4.249423
H 69.119204 5.799168 -5.248920
H 67.984626 6.368015 -3.964858
H 70.255073 7.292515 -3.514644
H 71.751641 5.894332 -2.147627
H 71.234465 3.588855 -1.783742
H 71.361654 1.400686 -4.420482
H 73.111405 -0.042286 -3.180601
H 73.427572 -0.486308 2.222870
H 71.601146 -0.619184 4.252272
H 69.962281 -2.965761 4.388957
H 70.575428 -2.664245 6.951232
H 69.315728 -3.909004 6.610304
H 68.442755 -2.455264 8.400006
H 67.534391 -0.240753 7.788795
H 67.799427 0.586707 5.548699
H 66.098433 -1.365269 4.179977
H 64.536512 -1.209618 2.125209
