 xtb: 6.5.1 (b24c23e)
          07302200513D

122141  0     0  0            999 V2000
   12.6691   -0.0362   -0.0106 Co  0  0  0  0  0  0  0  0  0  0  0  0
    9.2984   -0.0562   -0.1495 C   0  0  0  0  0  0  0  0  0  0  0  0
    9.9528   -1.2466    0.0856 C   0  0  0  0  0  0  0  0  0  0  0  0
    9.2878   -2.4938    0.3106 C   0  0  0  0  0  0  0  0  0  0  0  0
   10.2461   -3.4504    0.3072 C   0  0  0  0  0  0  0  0  0  0  0  0
   11.4941   -2.7869    0.0652 C   0  0  0  0  0  0  0  0  0  0  0  0
   11.3103   -1.4290    0.0002 N   0  0  0  0  0  0  0  0  0  0  0  0
   12.6916   -3.4419   -0.1895 C   0  0  0  0  0  0  0  0  0  0  0  0
   12.7026   -4.9194   -0.2843 C   0  0  0  0  0  0  0  0  0  0  0  0
   11.9522   -5.5696   -1.1887 C   0  0  0  0  0  0  0  0  0  0  0  0
   11.9351   -7.0701   -1.3039 C   0  0  0  0  0  0  0  0  0  0  0  0
   13.0469   -7.6740   -0.5674 N   0  0  0  0  0  0  0  0  0  0  0  0
   13.6700   -7.0069    0.4502 C   0  0  0  0  0  0  0  0  0  0  0  0
   13.5631   -5.6745    0.6120 C   0  0  0  0  0  0  0  0  0  0  0  0
   13.8799   -2.7478   -0.3669 C   0  0  0  0  0  0  0  0  0  0  0  0
   15.1316   -3.3662   -0.6845 C   0  0  0  0  0  0  0  0  0  0  0  0
   16.0776   -2.3997   -0.6015 C   0  0  0  0  0  0  0  0  0  0  0  0
   14.0510   -1.3987   -0.1583 N   0  0  0  0  0  0  0  0  0  0  0  0
   15.4001   -1.1941   -0.2430 C   0  0  0  0  0  0  0  0  0  0  0  0
   16.0596   -0.0145    0.1097 C   0  0  0  0  0  0  0  0  0  0  0  0
   15.3620    1.1549    0.4197 C   0  0  0  0  0  0  0  0  0  0  0  0
   15.9969    2.3674    0.8291 C   0  0  0  0  0  0  0  0  0  0  0  0
   15.0345    3.3209    0.8508 C   0  0  0  0  0  0  0  0  0  0  0  0
   13.8164    2.6881    0.4432 C   0  0  0  0  0  0  0  0  0  0  0  0
   14.0194    1.3422    0.2421 N   0  0  0  0  0  0  0  0  0  0  0  0
   12.6363    3.3687    0.1800 C   0  0  0  0  0  0  0  0  0  0  0  0
   12.6219    4.8461    0.2775 C   0  0  0  0  0  0  0  0  0  0  0  0
   11.8008    5.4852    1.1265 C   0  0  0  0  0  0  0  0  0  0  0  0
   11.7546    6.9851    1.2416 C   0  0  0  0  0  0  0  0  0  0  0  0
   12.8956    7.6084    0.5688 N   0  0  0  0  0  0  0  0  0  0  0  0
   13.6004    6.9483   -0.3982 C   0  0  0  0  0  0  0  0  0  0  0  0
   13.5308    5.6132   -0.5585 C   0  0  0  0  0  0  0  0  0  0  0  0
   11.4703    2.7011   -0.1703 C   0  0  0  0  0  0  0  0  0  0  0  0
   10.2381    3.3513   -0.5098 C   0  0  0  0  0  0  0  0  0  0  0  0
    9.2958    2.3832   -0.5994 C   0  0  0  0  0  0  0  0  0  0  0  0
    9.9554    1.1426   -0.3269 C   0  0  0  0  0  0  0  0  0  0  0  0
   11.2988    1.3408   -0.1280 N   0  0  0  0  0  0  0  0  0  0  0  0
    8.2157   -0.0629   -0.1953 H   0  0  0  0  0  0  0  0  0  0  0  0
    8.2233   -2.6035    0.4453 H   0  0  0  0  0  0  0  0  0  0  0  0
   10.1317   -4.5125    0.4523 H   0  0  0  0  0  0  0  0  0  0  0  0
   11.3085   -5.0398   -1.8812 H   0  0  0  0  0  0  0  0  0  0  0  0
   12.0197   -7.3705   -2.3577 H   0  0  0  0  0  0  0  0  0  0  0  0
   10.9746   -7.4699   -0.9288 H   0  0  0  0  0  0  0  0  0  0  0  0
   13.0041   -8.6797   -0.4967 H   0  0  0  0  0  0  0  0  0  0  0  0
   14.3147   -7.6218    1.0700 H   0  0  0  0  0  0  0  0  0  0  0  0
   14.0988   -5.1595    1.3965 H   0  0  0  0  0  0  0  0  0  0  0  0
   15.2594   -4.4076   -0.9319 H   0  0  0  0  0  0  0  0  0  0  0  0
   17.1415   -2.4814   -0.7565 H   0  0  0  0  0  0  0  0  0  0  0  0
   17.0464    2.4614    1.0581 H   0  0  0  0  0  0  0  0  0  0  0  0
   15.1302    4.3627    1.1110 H   0  0  0  0  0  0  0  0  0  0  0  0
   11.1170    4.9460    1.7716 H   0  0  0  0  0  0  0  0  0  0  0  0
   11.7751    7.2851    2.2989 H   0  0  0  0  0  0  0  0  0  0  0  0
   10.8106    7.3707    0.8140 H   0  0  0  0  0  0  0  0  0  0  0  0
   12.8377    8.6126    0.4893 H   0  0  0  0  0  0  0  0  0  0  0  0
   14.2734    7.5728   -0.9770 H   0  0  0  0  0  0  0  0  0  0  0  0
   14.1294    5.1051   -1.3011 H   0  0  0  0  0  0  0  0  0  0  0  0
   10.1224    4.4131   -0.6564 H   0  0  0  0  0  0  0  0  0  0  0  0
    8.2448    2.4809   -0.8213 H   0  0  0  0  0  0  0  0  0  0  0  0
   28.6211    0.0372   -0.0033 Co  0  0  0  0  0  0  0  0  0  0  0  0
   31.9919    0.0847   -0.1313 C   0  0  0  0  0  0  0  0  0  0  0  0
   31.3377    1.1972    0.3532 C   0  0  0  0  0  0  0  0  0  0  0  0
   32.0028    2.3667    0.8413 C   0  0  0  0  0  0  0  0  0  0  0  0
   31.0449    3.3024    1.0420 C   0  0  0  0  0  0  0  0  0  0  0  0
   29.7970    2.7070    0.6620 C   0  0  0  0  0  0  0  0  0  0  0  0
   29.9803    1.3945    0.3074 N   0  0  0  0  0  0  0  0  0  0  0  0
   28.5998    3.4020    0.5527 C   0  0  0  0  0  0  0  0  0  0  0  0
   28.5893    4.8653    0.7775 C   0  0  0  0  0  0  0  0  0  0  0  0
   29.3406    5.6944    0.0346 C   0  0  0  0  0  0  0  0  0  0  0  0
   29.3581    7.1847    0.2446 C   0  0  0  0  0  0  0  0  0  0  0  0
   28.2457    7.6165    1.0926 N   0  0  0  0  0  0  0  0  0  0  0  0
   27.6215    6.7466    1.9426 C   0  0  0  0  0  0  0  0  0  0  0  0
   27.7281    5.4105    1.8143 C   0  0  0  0  0  0  0  0  0  0  0  0
   27.4116    2.7626    0.2295 C   0  0  0  0  0  0  0  0  0  0  0  0
   26.1603    3.4353    0.0510 C   0  0  0  0  0  0  0  0  0  0  0  0
   25.2139    2.4739   -0.0757 C   0  0  0  0  0  0  0  0  0  0  0  0
   27.2399    1.4002    0.1439 N   0  0  0  0  0  0  0  0  0  0  0  0
   25.8908    1.2192    0.0164 C   0  0  0  0  0  0  0  0  0  0  0  0
   25.2306   -0.0082    0.1077 C   0  0  0  0  0  0  0  0  0  0  0  0
   25.9275   -1.2173    0.1600 C   0  0  0  0  0  0  0  0  0  0  0  0
   25.2920   -2.4891    0.2995 C   0  0  0  0  0  0  0  0  0  0  0  0
   26.2541   -3.4255    0.1163 C   0  0  0  0  0  0  0  0  0  0  0  0
   27.4726   -2.7205   -0.1455 C   0  0  0  0  0  0  0  0  0  0  0  0
   27.2701   -1.3627   -0.0531 N   0  0  0  0  0  0  0  0  0  0  0  0
   28.6525   -3.3291   -0.5483 C   0  0  0  0  0  0  0  0  0  0  0  0
   28.6665   -4.7931   -0.7700 C   0  0  0  0  0  0  0  0  0  0  0  0
   29.4873   -5.5996   -0.0777 C   0  0  0  0  0  0  0  0  0  0  0  0
   29.5331   -7.0893   -0.2867 C   0  0  0  0  0  0  0  0  0  0  0  0
   28.3922   -7.5535   -1.0779 N   0  0  0  0  0  0  0  0  0  0  0  0
   27.6876   -6.7012   -1.8808 C   0  0  0  0  0  0  0  0  0  0  0  0
   27.7575   -5.3628   -1.7511 C   0  0  0  0  0  0  0  0  0  0  0  0
   29.8190   -2.6024   -0.7465 C   0  0  0  0  0  0  0  0  0  0  0  0
   31.0512   -3.1651   -1.2170 C   0  0  0  0  0  0  0  0  0  0  0  0
   31.9940   -2.2008   -1.0954 C   0  0  0  0  0  0  0  0  0  0  0  0
   31.3346   -1.0475   -0.5630 C   0  0  0  0  0  0  0  0  0  0  0  0
   29.9910   -1.2831   -0.4125 N   0  0  0  0  0  0  0  0  0  0  0  0
   33.0747    0.1004   -0.1734 H   0  0  0  0  0  0  0  0  0  0  0  0
   33.0672    2.4443    0.9976 H   0  0  0  0  0  0  0  0  0  0  0  0
   31.1596    4.3086    1.4116 H   0  0  0  0  0  0  0  0  0  0  0  0
   29.9848    5.3256   -0.7551 H   0  0  0  0  0  0  0  0  0  0  0  0
   29.2745    7.7045   -0.7201 H   0  0  0  0  0  0  0  0  0  0  0  0
   30.3183    7.4941    0.6977 H   0  0  0  0  0  0  0  0  0  0  0  0
   28.2884    8.5835    1.3777 H   0  0  0  0  0  0  0  0  0  0  0  0
   26.9764    7.2142    2.6795 H   0  0  0  0  0  0  0  0  0  0  0  0
   27.1916    4.7391    2.4695 H   0  0  0  0  0  0  0  0  0  0  0  0
   26.0331    4.5056    0.0323 H   0  0  0  0  0  0  0  0  0  0  0  0
   24.1502    2.5874   -0.2103 H   0  0  0  0  0  0  0  0  0  0  0  0
   24.2424   -2.6296    0.5027 H   0  0  0  0  0  0  0  0  0  0  0  0
   26.1578   -4.4988    0.1468 H   0  0  0  0  0  0  0  0  0  0  0  0
   30.1713   -5.2114    0.6680 H   0  0  0  0  0  0  0  0  0  0  0  0
   29.5120   -7.6088    0.6818 H   0  0  0  0  0  0  0  0  0  0  0  0
   30.4772   -7.3746   -0.7866 H   0  0  0  0  0  0  0  0  0  0  0  0
   28.4500   -8.5173   -1.3710 H   0  0  0  0  0  0  0  0  0  0  0  0
   27.0146   -7.1869   -2.5801 H   0  0  0  0  0  0  0  0  0  0  0  0
   27.1591   -4.7071   -2.3674 H   0  0  0  0  0  0  0  0  0  0  0  0
   31.1665   -4.1705   -1.5885 H   0  0  0  0  0  0  0  0  0  0  0  0
   33.0452   -2.2492   -1.3323 H   0  0  0  0  0  0  0  0  0  0  0  0
   21.2591   -0.0265    0.1802 C   0  0  0  0  0  0  0  0  0  0  0  0
   20.0310   -0.0159    0.1826 C   0  0  0  0  0  0  0  0  0  0  0  0
   18.6864   -0.0134    0.1701 C   0  0  0  0  0  0  0  0  0  0  0  0
   17.4629   -0.0057    0.1488 C   0  0  0  0  0  0  0  0  0  0  0  0
   22.6037   -0.0252    0.1666 C   0  0  0  0  0  0  0  0  0  0  0  0
   23.8272   -0.0245    0.1439 C   0  0  0  0  0  0  0  0  0  0  0  0
  2  3  4  0  0  0  0
  3  4  1  0  0  0  0
  4  5  2  0  0  0  0
  5  6  4  0  0  0  0
  1  7  1  0  0  0  0
  3  7  4  0  0  0  0
  6  7  4  0  0  0  0
  6  8  4  0  0  0  0
  8  9  1  0  0  0  0
  9 10  2  0  0  0  0
 10 11  1  0  0  0  0
 11 12  1  0  0  0  0
 12 13  1  0  0  0  0
  9 14  1  0  0  0  0
 13 14  2  0  0  0  0
  8 15  4  0  0  0  0
 15 16  4  0  0  0  0
 16 17  2  0  0  0  0
  1 18  1  0  0  0  0
 15 18  4  0  0  0  0
 17 19  4  0  0  0  0
 18 19  4  0  0  0  0
 19 20  4  0  0  0  0
 20 21  4  0  0  0  0
 21 22  4  0  0  0  0
 22 23  2  0  0  0  0
 23 24  4  0  0  0  0
  1 25  1  0  0  0  0
 21 25  4  0  0  0  0
 24 25  4  0  0  0  0
 24 26  4  0  0  0  0
 26 27  1  0  0  0  0
 27 28  2  0  0  0  0
 28 29  1  0  0  0  0
 29 30  1  0  0  0  0
 30 31  1  0  0  0  0
 27 32  1  0  0  0  0
 31 32  2  0  0  0  0
 26 33  4  0  0  0  0
 33 34  4  0  0  0  0
 34 35  2  0  0  0  0
  2 36  4  0  0  0  0
 35 36  1  0  0  0  0
  1 37  1  0  0  0  0
 33 37  4  0  0  0  0
 36 37  4  0  0  0  0
  2 38  1  0  0  0  0
  4 39  1  0  0  0  0
  5 40  1  0  0  0  0
 10 41  1  0  0  0  0
 11 42  1  0  0  0  0
 11 43  1  0  0  0  0
 12 44  1  0  0  0  0
 13 45  1  0  0  0  0
 14 46  1  0  0  0  0
 16 47  1  0  0  0  0
 17 48  1  0  0  0  0
 22 49  1  0  0  0  0
 23 50  1  0  0  0  0
 28 51  1  0  0  0  0
 29 52  1  0  0  0  0
 29 53  1  0  0  0  0
 30 54  1  0  0  0  0
 31 55  1  0  0  0  0
 32 56  1  0  0  0  0
 34 57  1  0  0  0  0
 35 58  1  0  0  0  0
 60 61  4  0  0  0  0
 61 62  1  0  0  0  0
 62 63  2  0  0  0  0
 63 64  4  0  0  0  0
 59 65  1  0  0  0  0
 61 65  4  0  0  0  0
 64 65  4  0  0  0  0
 64 66  4  0  0  0  0
 66 67  1  0  0  0  0
 67 68  2  0  0  0  0
 68 69  1  0  0  0  0
 69 70  1  0  0  0  0
 70 71  1  0  0  0  0
 67 72  1  0  0  0  0
 71 72  2  0  0  0  0
 66 73  4  0  0  0  0
 73 74  4  0  0  0  0
 74 75  2  0  0  0  0
 59 76  1  0  0  0  0
 73 76  4  0  0  0  0
 75 77  4  0  0  0  0
 76 77  4  0  0  0  0
 77 78  4  0  0  0  0
 78 79  4  0  0  0  0
 79 80  4  0  0  0  0
 80 81  2  0  0  0  0
 81 82  4  0  0  0  0
 59 83  1  0  0  0  0
 79 83  4  0  0  0  0
 82 83  4  0  0  0  0
 82 84  4  0  0  0  0
 84 85  1  0  0  0  0
 85 86  2  0  0  0  0
 86 87  1  0  0  0  0
 87 88  1  0  0  0  0
 88 89  1  0  0  0  0
 85 90  1  0  0  0  0
 89 90  2  0  0  0  0
 84 91  4  0  0  0  0
 91 92  4  0  0  0  0
 92 93  2  0  0  0  0
 60 94  4  0  0  0  0
 93 94  1  0  0  0  0
 59 95  1  0  0  0  0
 91 95  4  0  0  0  0
 94 95  4  0  0  0  0
 60 96  1  0  0  0  0
 62 97  1  0  0  0  0
 63 98  1  0  0  0  0
 68 99  1  0  0  0  0
 69100  1  0  0  0  0
 69101  1  0  0  0  0
 70102  1  0  0  0  0
 71103  1  0  0  0  0
 72104  1  0  0  0  0
 74105  1  0  0  0  0
 75106  1  0  0  0  0
 80107  1  0  0  0  0
 81108  1  0  0  0  0
 86109  1  0  0  0  0
 87110  1  0  0  0  0
 87111  1  0  0  0  0
 88112  1  0  0  0  0
 89113  1  0  0  0  0
 90114  1  0  0  0  0
 92115  1  0  0  0  0
 93116  1  0  0  0  0
117118  3  0  0  0  0
118119  4  0  0  0  0
 20120  4  0  0  0  0
119120  3  0  0  0  0
117121  4  0  0  0  0
 78122  4  0  0  0  0
121122  3  0  0  0  0
M  END
