402

C 65.697567 -0.041007 -0.171273
C 66.429882 -1.406102 0.006556
C 65.829800 -2.644220 0.030325
C 66.853188 -3.597069 0.272772
C 68.042851 -2.905981 0.397505
N 67.779844 -1.577115 0.178302
C 69.459985 -3.517403 0.755061
C 69.492787 -4.904209 1.270897
C 69.794176 -5.968659 0.410246
C 69.819136 -7.278804 0.891083
C 69.537786 -7.518248 2.243298
N 69.561478 -8.893047 2.754674
O 69.830928 -9.806604 1.959047
O 69.308756 -9.073162 3.956227
C 69.233401 -6.462097 3.113148
C 69.211918 -5.156242 2.620373
C 70.590847 -2.771399 0.637435
C 71.890287 -3.283670 1.022496
C 72.793175 -2.331092 0.821145
N 70.790701 -1.489909 0.198458
C 72.119404 -1.164793 0.285945
C 72.787796 -0.022981 -0.027219
C 72.012166 1.220075 -0.634444
C 72.552251 2.208672 -1.433221
C 71.526314 3.149178 -1.701113
C 70.387113 2.703238 -1.065608
N 70.678116 1.500425 -0.467088
C 68.978997 3.429793 -1.044677
C 68.953271 4.892840 -1.253269
C 68.591742 5.423801 -2.499248
C 68.576497 6.804971 -2.700408
C 68.929506 7.655307 -1.643540
N 68.915293 9.107883 -1.848138
O 68.600747 9.535633 -2.969959
O 69.219357 9.835324 -0.889781
C 69.296188 7.136391 -0.394259
C 69.307065 5.753168 -0.205743
C 67.850503 2.710696 -0.814156
C 66.528119 3.309790 -0.768945
C 65.640902 2.346330 -0.539072
C 66.362257 1.103601 -0.416331
N 67.684304 1.374655 -0.581340
H 64.618889 -0.026079 -0.070592
H 64.775631 -2.837854 -0.095769
H 66.728881 -4.664728 0.370423
H 68.475859 -0.836072 0.149396
H 70.013243 -5.756526 -0.635118
H 70.058835 -8.085377 0.203913
H 69.013934 -6.629689 4.163872
H 68.980415 -4.319132 3.277233
H 72.101210 -4.261186 1.417052
H 73.843750 -2.431492 1.024336
H 73.574331 2.257016 -1.777233
H 71.612053 4.051325 -2.287416
H 69.995420 0.891035 -0.024205
H 68.318490 4.742642 -3.303806
H 68.288712 7.190228 -3.674529
H 69.573013 7.780753 0.435483
H 69.587633 5.327525 0.756489
H 66.297194 4.351599 -0.896879
H 64.576399 2.466208 -0.449196
C 164.653774 -0.081455 -0.160100
C 163.921459 1.181358 -0.708197
C 164.521541 2.256120 -1.323331
C 163.498153 3.198310 -1.604363
C 162.308490 2.669240 -1.142577
N 162.571497 1.416281 -0.648586
C 160.891356 3.377502 -1.149567
C 160.858555 4.832448 -1.418729
C 160.557166 5.304189 -2.703733
C 160.532206 6.675379 -2.963580
C 160.813555 7.574971 -1.926009
N 160.789863 9.017324 -2.192834
O 160.520413 9.392944 -3.344580
O 161.042585 9.788663 -1.254109
C 161.117941 7.115075 -0.637371
C 161.139423 5.741438 -0.389970
C 159.760494 2.676899 -0.867587
C 158.461055 3.314186 -0.800076
C 157.558167 2.393324 -0.483914
N 159.560640 1.351787 -0.586524
C 158.231937 1.117678 -0.344558
C 157.563546 -0.022981 -0.027219
C 158.339176 -1.401471 0.089724
C 157.799090 -2.659907 -0.088339
C 158.825027 -3.604566 0.164522
C 159.964228 -2.895649 0.481012
N 159.673226 -1.556164 0.377255
C 161.372344 -3.508439 0.871920
C 161.398070 -4.871106 1.443895
C 161.759599 -5.966348 0.647133
C 161.774844 -7.254933 1.183459
C 161.421836 -7.442200 2.526952
N 161.436048 -8.793831 3.096980
O 161.750594 -9.736765 2.353793
O 161.131984 -8.926196 4.292846
C 161.055153 -6.355601 3.332730
C 161.044277 -5.071744 2.784499
C 162.500839 -2.772978 0.700638
C 163.823223 -3.263917 1.046956
C 164.710439 -2.319074 0.749685
C 163.989084 -1.189553 0.217123
N 162.667038 -1.506874 0.214645
H 165.732452 -0.042586 -0.066032
H 165.575710 2.357573 -1.530938
H 163.622460 4.164706 -2.068595
H 161.875482 0.765476 -0.293011
H 160.338098 4.585544 -3.491981
H 160.292506 7.014857 -3.967332
H 161.337407 7.798245 0.178341
H 161.370926 5.360195 0.603444
H 158.250132 4.355624 -0.963231
H 156.507592 2.583787 -0.361070
H 156.777011 -2.877980 -0.358757
H 158.739289 -4.679746 0.124430
H 160.355922 -0.805848 0.444536
H 162.032851 -5.794757 -0.392985
H 162.062629 -8.085584 0.545217
H 160.778328 -6.482685 4.375574
H 160.763708 -4.212536 3.391807
H 164.054147 -4.223673 1.471929
H 165.774942 -2.375821 0.888352
C 74.984012 -0.008291 -0.016944
C 76.442238 -0.030127 -0.034817
C 77.576166 -0.050881 -0.036308
C 78.937548 -0.063471 -0.038499
C 80.211766 -0.053164 -0.043264
C 81.400229 -0.034366 -0.049420
C 82.752590 -0.009582 -0.033552
C 83.852857 -0.008291 -0.016944
C 92.831621 -0.008291 -0.016944
C 94.289847 -0.030127 -0.034817
C 95.423775 -0.050881 -0.036308
C 96.785157 -0.063471 -0.038499
C 98.059376 -0.053164 -0.043264
C 99.247838 -0.034366 -0.049420
C 100.600199 -0.009582 -0.033552
C 101.700466 -0.008291 -0.016944
C 110.679230 -0.008291 -0.016944
C 112.137456 -0.030127 -0.034817
C 113.271384 -0.050881 -0.036308
C 114.632766 -0.063471 -0.038499
C 115.906985 -0.053164 -0.043264
C 117.095447 -0.034366 -0.049420
C 118.447808 -0.009582 -0.033552
C 119.548075 -0.008291 -0.016944
C 128.526839 -0.008291 -0.016944
C 129.985065 -0.030127 -0.034817
C 131.118993 -0.050881 -0.036308
C 132.480375 -0.063471 -0.038499
C 133.754594 -0.053164 -0.043264
C 134.943056 -0.034366 -0.049420
C 136.295417 -0.009582 -0.033552
C 137.395684 -0.008291 -0.016944
C 146.374448 -0.008291 -0.016944
C 147.832674 -0.030127 -0.034817
C 148.966602 -0.050881 -0.036308
C 150.327984 -0.063471 -0.038499
C 151.602203 -0.053164 -0.043264
C 152.790665 -0.034366 -0.049420
C 154.143026 -0.009582 -0.033552
C 155.243293 -0.008291 -0.016944
C 84.824598 0.013064 0.016661
C 85.620301 1.248752 -0.573776
C 85.120533 2.511351 -0.819187
C 86.159503 3.268126 -1.419395
C 87.261934 2.445077 -1.516266
N 86.946607 1.245712 -0.928982
C 88.648230 2.804542 -2.188367
C 88.635695 3.793261 -3.288690
C 89.073256 5.106350 -3.065363
C 89.050918 6.043628 -4.099535
C 88.582765 5.658691 -5.363378
N 88.556271 6.638988 -6.454445
O 88.151417 6.264292 -7.566058
O 88.939270 7.793905 -6.209829
C 88.138840 4.350239 -5.598184
C 88.166649 3.422031 -4.555693
C 89.785060 2.177928 -1.788141
C 91.070358 2.429137 -2.407364
C 91.979730 1.668324 -1.807716
N 89.995269 1.238397 -0.818279
C 91.319487 0.893243 -0.777034
C 91.983905 0.013064 0.016661
C 91.188150 -0.804598 1.115210
C 91.687651 -1.288289 2.307142
C 90.648702 -2.023340 2.933820
C 89.546545 -1.960307 2.107120
N 89.862015 -1.153065 1.043343
C 88.160334 -2.689258 2.330009
C 88.172915 -3.959735 3.087698
C 88.640906 -5.131462 2.478486
C 88.668702 -6.333541 3.187959
C 88.225870 -6.355515 4.517497
N 88.252403 -7.615297 5.268728
O 87.871042 -7.597906 6.449669
O 88.655656 -8.633994 4.685963
C 87.758778 -5.189531 5.139543
C 87.736375 -3.993879 4.419536
C 87.023492 -2.175630 1.792446
C 85.738192 -2.831654 1.919528
C 84.828802 -2.096448 1.288766
C 85.489043 -0.935586 0.727089
N 86.813274 -1.042702 1.057725
H 84.115672 2.846097 -0.610319
H 86.102284 4.290890 -1.759737
H 87.603276 0.492937 -0.744228
H 89.434957 5.381215 -2.075644
H 89.399435 7.053169 -3.900531
H 87.771876 4.035161 -6.571037
H 87.826127 2.400128 -4.715667
H 91.266672 3.105566 -3.219489
H 93.023961 1.642824 -2.061061
H 92.692317 -1.147351 2.676218
H 90.705747 -2.554136 3.871987
H 89.205455 -0.826994 0.340051
H 88.980585 -5.091323 1.444640
H 89.034826 -7.227452 2.690709
H 87.411133 -5.188993 6.168803
H 87.375444 -3.075671 4.880573
H 85.541878 -3.758994 2.426610
H 83.784556 -2.340072 1.214950
C 102.672207 0.013064 0.016661
C 103.467910 1.248752 -0.573776
C 102.968143 2.511351 -0.819187
C 104.007112 3.268126 -1.419395
C 105.109543 2.445077 -1.516266
N 104.794216 1.245712 -0.928982
C 106.495839 2.804542 -2.188367
C 106.483304 3.793261 -3.288690
C 106.920865 5.106350 -3.065363
C 106.898527 6.043628 -4.099535
C 106.430374 5.658691 -5.363378
N 106.403880 6.638988 -6.454445
O 105.999026 6.264292 -7.566058
O 106.786879 7.793905 -6.209829
C 105.986449 4.350239 -5.598184
C 106.014258 3.422031 -4.555693
C 107.632669 2.177928 -1.788141
C 108.917967 2.429137 -2.407364
C 109.827339 1.668324 -1.807716
N 107.842878 1.238397 -0.818279
C 109.167096 0.893243 -0.777034
C 109.831514 0.013064 0.016661
C 109.035759 -0.804598 1.115210
C 109.535260 -1.288289 2.307142
C 108.496311 -2.023340 2.933820
C 107.394154 -1.960307 2.107120
N 107.709624 -1.153065 1.043343
C 106.007943 -2.689258 2.330009
C 106.020524 -3.959735 3.087698
C 106.488515 -5.131462 2.478486
C 106.516311 -6.333541 3.187959
C 106.073479 -6.355515 4.517497
N 106.100012 -7.615297 5.268728
O 105.718651 -7.597906 6.449669
O 106.503265 -8.633994 4.685963
C 105.606387 -5.189531 5.139543
C 105.583984 -3.993879 4.419536
C 104.871101 -2.175630 1.792446
C 103.585801 -2.831654 1.919528
C 102.676411 -2.096448 1.288766
C 103.336652 -0.935586 0.727089
N 104.660883 -1.042702 1.057725
H 101.963281 2.846097 -0.610319
H 103.949893 4.290890 -1.759737
H 105.450885 0.492937 -0.744228
H 107.282566 5.381215 -2.075644
H 107.247044 7.053169 -3.900531
H 105.619485 4.035161 -6.571037
H 105.673736 2.400128 -4.715667
H 109.114281 3.105566 -3.219489
H 110.871570 1.642824 -2.061061
H 110.539926 -1.147351 2.676218
H 108.553356 -2.554136 3.871987
H 107.053064 -0.826994 0.340051
H 106.828194 -5.091323 1.444640
H 106.882435 -7.227452 2.690709
H 105.258742 -5.188993 6.168803
H 105.223053 -3.075671 4.880573
H 103.389487 -3.758994 2.426610
H 101.632165 -2.340072 1.214950
C 120.519816 0.013064 0.016661
C 121.315519 1.248752 -0.573776
C 120.815752 2.511351 -0.819187
C 121.854721 3.268126 -1.419395
C 122.957152 2.445077 -1.516266
N 122.641825 1.245712 -0.928982
C 124.343448 2.804542 -2.188367
C 124.330913 3.793261 -3.288690
C 124.768474 5.106350 -3.065363
C 124.746136 6.043628 -4.099535
C 124.277983 5.658691 -5.363378
N 124.251489 6.638988 -6.454445
O 123.846635 6.264292 -7.566058
O 124.634488 7.793905 -6.209829
C 123.834058 4.350239 -5.598184
C 123.861867 3.422031 -4.555693
C 125.480278 2.177928 -1.788141
C 126.765576 2.429137 -2.407364
C 127.674948 1.668324 -1.807716
N 125.690487 1.238397 -0.818279
C 127.014705 0.893243 -0.777034
C 127.679123 0.013064 0.016661
C 126.883368 -0.804598 1.115210
C 127.382869 -1.288289 2.307142
C 126.343920 -2.023340 2.933820
C 125.241763 -1.960307 2.107120
N 125.557233 -1.153065 1.043343
C 123.855552 -2.689258 2.330009
C 123.868133 -3.959735 3.087698
C 124.336124 -5.131462 2.478486
C 124.363920 -6.333541 3.187959
C 123.921088 -6.355515 4.517497
N 123.947621 -7.615297 5.268728
O 123.566260 -7.597906 6.449669
O 124.350874 -8.633994 4.685963
C 123.453996 -5.189531 5.139543
C 123.431593 -3.993879 4.419536
C 122.718710 -2.175630 1.792446
C 121.433410 -2.831654 1.919528
C 120.524020 -2.096448 1.288766
C 121.184261 -0.935586 0.727089
N 122.508492 -1.042702 1.057725
H 119.810890 2.846097 -0.610319
H 121.797502 4.290890 -1.759737
H 123.298495 0.492937 -0.744228
H 125.130175 5.381215 -2.075644
H 125.094653 7.053169 -3.900531
H 123.467094 4.035161 -6.571037
H 123.521345 2.400128 -4.715667
H 126.961890 3.105566 -3.219489
H 128.719179 1.642824 -2.061061
H 128.387535 -1.147351 2.676218
H 126.400965 -2.554136 3.871987
H 124.900673 -0.826994 0.340051
H 124.675803 -5.091323 1.444640
H 124.730044 -7.227452 2.690709
H 123.106351 -5.188993 6.168803
H 123.070662 -3.075671 4.880573
H 121.237096 -3.758994 2.426610
H 119.479774 -2.340072 1.214950
C 138.367425 0.013064 0.016661
C 139.163128 1.248752 -0.573776
C 138.663361 2.511351 -0.819187
C 139.702330 3.268126 -1.419395
C 140.804761 2.445077 -1.516266
N 140.489434 1.245712 -0.928982
C 142.191057 2.804542 -2.188367
C 142.178522 3.793261 -3.288690
C 142.616083 5.106350 -3.065363
C 142.593745 6.043628 -4.099535
C 142.125592 5.658691 -5.363378
N 142.099098 6.638988 -6.454445
O 141.694244 6.264292 -7.566058
O 142.482097 7.793905 -6.209829
C 141.681667 4.350239 -5.598184
C 141.709476 3.422031 -4.555693
C 143.327887 2.177928 -1.788141
C 144.613185 2.429137 -2.407364
C 145.522557 1.668324 -1.807716
N 143.538096 1.238397 -0.818279
C 144.862314 0.893243 -0.777034
C 145.526732 0.013064 0.016661
C 144.730977 -0.804598 1.115210
C 145.230478 -1.288289 2.307142
C 144.191529 -2.023340 2.933820
C 143.089372 -1.960307 2.107120
N 143.404842 -1.153065 1.043343
C 141.703161 -2.689258 2.330009
C 141.715742 -3.959735 3.087698
C 142.183733 -5.131462 2.478486
C 142.211529 -6.333541 3.187959
C 141.768697 -6.355515 4.517497
N 141.795230 -7.615297 5.268728
O 141.413869 -7.597906 6.449669
O 142.198483 -8.633994 4.685963
C 141.301605 -5.189531 5.139543
C 141.279202 -3.993879 4.419536
C 140.566319 -2.175630 1.792446
C 139.281019 -2.831654 1.919528
C 138.371629 -2.096448 1.288766
C 139.031870 -0.935586 0.727089
N 140.356101 -1.042702 1.057725
H 137.658500 2.846097 -0.610319
H 139.645111 4.290890 -1.759737
H 141.146104 0.492937 -0.744228
H 142.977784 5.381215 -2.075644
H 142.942262 7.053169 -3.900531
H 141.314704 4.035161 -6.571037
H 141.368954 2.400128 -4.715667
H 144.809499 3.105566 -3.219489
H 146.566788 1.642824 -2.061061
H 146.235144 -1.147351 2.676218
H 144.248574 -2.554136 3.871987
H 142.748282 -0.826994 0.340051
H 142.523412 -5.091323 1.444640
H 142.577653 -7.227452 2.690709
H 140.953960 -5.188993 6.168803
H 140.918271 -3.075671 4.880573
H 139.084705 -3.758994 2.426610
H 137.327383 -2.340072 1.214950
