 xtb: 6.5.1 (b24c23e)
          07302208443D

312351  0     0  0            999 V2000
   45.5701    0.0087   -0.0161 Cu  0  0  0  0  0  0  0  0  0  0  0  0
   42.1544    0.0647   -0.0245 C   0  0  0  0  0  0  0  0  0  0  0  0
   42.7989    1.1974    0.4507 C   0  0  0  0  0  0  0  0  0  0  0  0
   42.1372    2.3767    0.9333 C   0  0  0  0  0  0  0  0  0  0  0  0
   43.1062    3.2496    1.3059 C   0  0  0  0  0  0  0  0  0  0  0  0
   44.3687    2.6102    1.0539 C   0  0  0  0  0  0  0  0  0  0  0  0
   44.1515    1.3665    0.5347 N   0  0  0  0  0  0  0  0  0  0  0  0
   45.6155    3.1809    1.3064 C   0  0  0  0  0  0  0  0  0  0  0  0
   45.6333    4.5594    1.8780 C   0  0  0  0  0  0  0  0  0  0  0  0
   45.6433    5.6673    1.0257 C   0  0  0  0  0  0  0  0  0  0  0  0
   45.6398    5.4670   -0.4665 C   0  0  0  0  0  0  0  0  0  0  0  0
   45.6541    6.9468    1.5683 C   0  0  0  0  0  0  0  0  0  0  0  0
   45.6536    7.1388    2.9463 C   0  0  0  0  0  0  0  0  0  0  0  0
   45.6843    8.5299    3.5196 C   0  0  0  0  0  0  0  0  0  0  0  0
   45.6441    6.0292    3.7848 C   0  0  0  0  0  0  0  0  0  0  0  0
   45.6333    4.7404    3.2638 C   0  0  0  0  0  0  0  0  0  0  0  0
   45.6182    3.5438    4.1774 C   0  0  0  0  0  0  0  0  0  0  0  0
   46.8443    2.5686    1.0674 C   0  0  0  0  0  0  0  0  0  0  0  0
   48.1207    3.1684    1.3334 C   0  0  0  0  0  0  0  0  0  0  0  0
   49.0671    2.2671    0.9664 C   0  0  0  0  0  0  0  0  0  0  0  0
   47.0324    1.3160    0.5455 N   0  0  0  0  0  0  0  0  0  0  0  0
   48.3762    1.1123    0.4740 C   0  0  0  0  0  0  0  0  0  0  0  0
   49.0086   -0.0455   -0.0127 C   0  0  0  0  0  0  0  0  0  0  0  0
   48.3412   -1.1836   -0.4987 C   0  0  0  0  0  0  0  0  0  0  0  0
   48.9964   -2.3605   -0.9876 C   0  0  0  0  0  0  0  0  0  0  0  0
   48.0229   -3.2324   -1.3544 C   0  0  0  0  0  0  0  0  0  0  0  0
   46.7654   -2.5920   -1.0928 C   0  0  0  0  0  0  0  0  0  0  0  0
   46.9918   -1.3450   -0.5726 N   0  0  0  0  0  0  0  0  0  0  0  0
   45.5183   -3.1647   -1.3352 C   0  0  0  0  0  0  0  0  0  0  0  0
   45.4927   -4.5440   -1.9043 C   0  0  0  0  0  0  0  0  0  0  0  0
   45.5046   -4.7277   -3.2904 C   0  0  0  0  0  0  0  0  0  0  0  0
   45.5466   -3.5329   -4.2055 C   0  0  0  0  0  0  0  0  0  0  0  0
   45.4757   -6.0163   -3.8089 C   0  0  0  0  0  0  0  0  0  0  0  0
   45.4356   -7.1248   -2.9679 C   0  0  0  0  0  0  0  0  0  0  0  0
   45.3908   -8.5117   -3.5504 C   0  0  0  0  0  0  0  0  0  0  0  0
   45.4231   -6.9304   -1.5915 C   0  0  0  0  0  0  0  0  0  0  0  0
   45.4512   -5.6495   -1.0509 C   0  0  0  0  0  0  0  0  0  0  0  0
   45.4362   -5.4468    0.4410 C   0  0  0  0  0  0  0  0  0  0  0  0
   44.2896   -2.5531   -1.0891 C   0  0  0  0  0  0  0  0  0  0  0  0
   43.0082   -3.1507   -1.3477 C   0  0  0  0  0  0  0  0  0  0  0  0
   42.0664   -2.2459   -0.9814 C   0  0  0  0  0  0  0  0  0  0  0  0
   42.7639   -1.0887   -0.4959 C   0  0  0  0  0  0  0  0  0  0  0  0
   44.1107   -1.3024   -0.5722 N   0  0  0  0  0  0  0  0  0  0  0  0
   41.0694    0.0826   -0.0276 H   0  0  0  0  0  0  0  0  0  0  0  0
   41.0671    2.5057    0.9758 H   0  0  0  0  0  0  0  0  0  0  0  0
   42.9905    4.2400    1.7165 H   0  0  0  0  0  0  0  0  0  0  0  0
   44.7483    4.9161   -0.7725 H   0  0  0  0  0  0  0  0  0  0  0  0
   46.5119    4.8864   -0.7730 H   0  0  0  0  0  0  0  0  0  0  0  0
   45.6555    6.4235   -0.9880 H   0  0  0  0  0  0  0  0  0  0  0  0
   45.6607    7.8069    0.9067 H   0  0  0  0  0  0  0  0  0  0  0  0
   45.2492    8.5488    4.5190 H   0  0  0  0  0  0  0  0  0  0  0  0
   46.7168    8.8797    3.5911 H   0  0  0  0  0  0  0  0  0  0  0  0
   45.1356    9.2240    2.8823 H   0  0  0  0  0  0  0  0  0  0  0  0
   45.6428    6.1692    4.8609 H   0  0  0  0  0  0  0  0  0  0  0  0
   46.4898    2.9135    3.9909 H   0  0  0  0  0  0  0  0  0  0  0  0
   45.6264    3.8515    5.2226 H   0  0  0  0  0  0  0  0  0  0  0  0
   44.7261    2.9410    3.9968 H   0  0  0  0  0  0  0  0  0  0  0  0
   48.2630    4.1538    1.7476 H   0  0  0  0  0  0  0  0  0  0  0  0
   50.1396    2.3654    1.0197 H   0  0  0  0  0  0  0  0  0  0  0  0
   50.0655   -2.4925   -1.0381 H   0  0  0  0  0  0  0  0  0  0  0  0
   48.1349   -4.2229   -1.7657 H   0  0  0  0  0  0  0  0  0  0  0  0
   44.6812   -2.8910   -4.0300 H   0  0  0  0  0  0  0  0  0  0  0  0
   45.5465   -3.8421   -5.2503 H   0  0  0  0  0  0  0  0  0  0  0  0
   46.4443   -2.9414   -4.0155 H   0  0  0  0  0  0  0  0  0  0  0  0
   45.4850   -6.1598   -4.8845 H   0  0  0  0  0  0  0  0  0  0  0  0
   46.1264   -8.6166   -4.3491 H   0  0  0  0  0  0  0  0  0  0  0  0
   45.5917   -9.2631   -2.7868 H   0  0  0  0  0  0  0  0  0  0  0  0
   44.4035   -8.7076   -3.9745 H   0  0  0  0  0  0  0  0  0  0  0  0
   45.3915   -7.7881   -0.9275 H   0  0  0  0  0  0  0  0  0  0  0  0
   44.5550   -4.8737    0.7360 H   0  0  0  0  0  0  0  0  0  0  0  0
   46.3187   -4.8872    0.7567 H   0  0  0  0  0  0  0  0  0  0  0  0
   45.4222   -6.4025    0.9639 H   0  0  0  0  0  0  0  0  0  0  0  0
   42.8622   -4.1371   -1.7585 H   0  0  0  0  0  0  0  0  0  0  0  0
   40.9929   -2.3396   -1.0299 H   0  0  0  0  0  0  0  0  0  0  0  0
   93.7716   -0.0342   -0.0532 Cu  0  0  0  0  0  0  0  0  0  0  0  0
   97.1875   -0.0698   -0.0880 C   0  0  0  0  0  0  0  0  0  0  0  0
   96.5438   -1.2130   -0.5384 C   0  0  0  0  0  0  0  0  0  0  0  0
   97.2064   -2.3959   -1.0106 C   0  0  0  0  0  0  0  0  0  0  0  0
   96.2380   -3.2800   -1.3576 C   0  0  0  0  0  0  0  0  0  0  0  0
   94.9750   -2.6435   -1.1010 C   0  0  0  0  0  0  0  0  0  0  0  0
   95.1913   -1.3908   -0.6035 N   0  0  0  0  0  0  0  0  0  0  0  0
   93.7286   -3.2243   -1.3318 C   0  0  0  0  0  0  0  0  0  0  0  0
   93.7122   -4.6108   -1.8837 C   0  0  0  0  0  0  0  0  0  0  0  0
   93.7170   -4.8116   -3.2670 C   0  0  0  0  0  0  0  0  0  0  0  0
   93.7368   -3.6280   -4.1974 C   0  0  0  0  0  0  0  0  0  0  0  0
   93.7065   -6.1073   -3.7695 C   0  0  0  0  0  0  0  0  0  0  0  0
   93.6929   -7.2052   -2.9150 C   0  0  0  0  0  0  0  0  0  0  0  0
   93.6620   -8.6025   -3.4728 C   0  0  0  0  0  0  0  0  0  0  0  0
   93.6885   -6.9936   -1.5403 C   0  0  0  0  0  0  0  0  0  0  0  0
   93.6988   -5.7063   -1.0159 C   0  0  0  0  0  0  0  0  0  0  0  0
   93.6993   -5.4847    0.4733 C   0  0  0  0  0  0  0  0  0  0  0  0
   92.4992   -2.6149   -1.0888 C   0  0  0  0  0  0  0  0  0  0  0  0
   91.2231   -3.2238   -1.3353 C   0  0  0  0  0  0  0  0  0  0  0  0
   90.2761   -2.3219   -0.9716 C   0  0  0  0  0  0  0  0  0  0  0  0
   92.3101   -1.3564   -0.5817 N   0  0  0  0  0  0  0  0  0  0  0  0
   90.9661   -1.1576   -0.5008 C   0  0  0  0  0  0  0  0  0  0  0  0
   90.3330    0.0042   -0.0247 C   0  0  0  0  0  0  0  0  0  0  0  0
   90.9998    1.1511    0.4410 C   0  0  0  0  0  0  0  0  0  0  0  0
   90.3437    2.3307    0.9222 C   0  0  0  0  0  0  0  0  0  0  0  0
   91.3166    3.2105    1.2717 C   0  0  0  0  0  0  0  0  0  0  0  0
   92.5746    2.5728    1.0055 C   0  0  0  0  0  0  0  0  0  0  0  0
   92.3491    1.3192    0.5011 N   0  0  0  0  0  0  0  0  0  0  0  0
   93.8211    3.1542    1.2292 C   0  0  0  0  0  0  0  0  0  0  0  0
   93.8454    4.5395    1.7838 C   0  0  0  0  0  0  0  0  0  0  0  0
   93.8281    5.6374    0.9181 C   0  0  0  0  0  0  0  0  0  0  0  0
   93.7818    5.4186   -0.5708 C   0  0  0  0  0  0  0  0  0  0  0  0
   93.8553    6.9228    1.4445 C   0  0  0  0  0  0  0  0  0  0  0  0
   93.8990    7.1315    2.8200 C   0  0  0  0  0  0  0  0  0  0  0  0
   93.9418    8.5321    3.3689 C   0  0  0  0  0  0  0  0  0  0  0  0
   93.9170    6.0327    3.6714 C   0  0  0  0  0  0  0  0  0  0  0  0
   93.8906    4.7373    3.1662 C   0  0  0  0  0  0  0  0  0  0  0  0
   93.9111    3.5521    4.0945 C   0  0  0  0  0  0  0  0  0  0  0  0
   95.0503    2.5472    0.9746 C   0  0  0  0  0  0  0  0  0  0  0  0
   96.3313    3.1568    1.2063 C   0  0  0  0  0  0  0  0  0  0  0  0
   97.2737    2.2539    0.8370 C   0  0  0  0  0  0  0  0  0  0  0  0
   96.5772    1.0859    0.3766 C   0  0  0  0  0  0  0  0  0  0  0  0
   95.2303    1.2915    0.4702 N   0  0  0  0  0  0  0  0  0  0  0  0
   98.2725   -0.0809   -0.0998 H   0  0  0  0  0  0  0  0  0  0  0  0
   98.2767   -2.5198   -1.0638 H   0  0  0  0  0  0  0  0  0  0  0  0
   96.3544   -4.2766   -1.7531 H   0  0  0  0  0  0  0  0  0  0  0  0
   94.6303   -3.0252   -4.0239 H   0  0  0  0  0  0  0  0  0  0  0  0
   92.8667   -2.9927   -4.0214 H   0  0  0  0  0  0  0  0  0  0  0  0
   93.7297   -3.9505   -5.2382 H   0  0  0  0  0  0  0  0  0  0  0  0
   93.7112   -6.2632   -4.8434 H   0  0  0  0  0  0  0  0  0  0  0  0
   94.1003   -9.3118   -2.7704 H   0  0  0  0  0  0  0  0  0  0  0  0
   92.6291   -8.9046   -3.6613 H   0  0  0  0  0  0  0  0  0  0  0  0
   94.2073   -8.6561   -4.4155 H   0  0  0  0  0  0  0  0  0  0  0  0
   93.6794   -7.8439   -0.8661 H   0  0  0  0  0  0  0  0  0  0  0  0
   92.8254   -4.9017    0.7702 H   0  0  0  0  0  0  0  0  0  0  0  0
   93.6847   -6.4337    1.0084 H   0  0  0  0  0  0  0  0  0  0  0  0
   94.5891   -4.9276    0.7727 H   0  0  0  0  0  0  0  0  0  0  0  0
   91.0816   -4.2148   -1.7359 H   0  0  0  0  0  0  0  0  0  0  0  0
   89.2036   -2.4257   -1.0138 H   0  0  0  0  0  0  0  0  0  0  0  0
   89.2746    2.4589    0.9802 H   0  0  0  0  0  0  0  0  0  0  0  0
   91.2039    4.2044    1.6745 H   0  0  0  0  0  0  0  0  0  0  0  0
   94.6470    4.8371   -0.8951 H   0  0  0  0  0  0  0  0  0  0  0  0
   93.7791    6.3686   -1.1043 H   0  0  0  0  0  0  0  0  0  0  0  0
   92.8840    4.8610   -0.8442 H   0  0  0  0  0  0  0  0  0  0  0  0
   93.8417    7.7754    0.7733 H   0  0  0  0  0  0  0  0  0  0  0  0
   93.2051    9.1629    2.8694 H   0  0  0  0  0  0  0  0  0  0  0  0
   93.7412    8.5384    4.4402 H   0  0  0  0  0  0  0  0  0  0  0  0
   94.9284    8.9696    3.2011 H   0  0  0  0  0  0  0  0  0  0  0  0
   93.9514    6.1849    4.7452 H   0  0  0  0  0  0  0  0  0  0  0  0
   94.7931    2.9374    3.9038 H   0  0  0  0  0  0  0  0  0  0  0  0
   93.0294    2.9289    3.9336 H   0  0  0  0  0  0  0  0  0  0  0  0
   93.9278    3.8729    5.1356 H   0  0  0  0  0  0  0  0  0  0  0  0
   96.4766    4.1498    1.6012 H   0  0  0  0  0  0  0  0  0  0  0  0
   98.3472    2.3557    0.8677 H   0  0  0  0  0  0  0  0  0  0  0  0
   54.2132   -0.0965   -0.0176 C   0  0  0  0  0  0  0  0  0  0  0  0
   52.9853   -0.0899   -0.0157 C   0  0  0  0  0  0  0  0  0  0  0  0
   51.6392   -0.0793   -0.0160 C   0  0  0  0  0  0  0  0  0  0  0  0
   50.4158   -0.0652   -0.0137 C   0  0  0  0  0  0  0  0  0  0  0  0
   55.5591   -0.0997   -0.0190 C   0  0  0  0  0  0  0  0  0  0  0  0
   56.7828   -0.0988   -0.0199 C   0  0  0  0  0  0  0  0  0  0  0  0
   70.2851   -0.0367   -0.0309 C   0  0  0  0  0  0  0  0  0  0  0  0
   69.0564   -0.0408   -0.0320 C   0  0  0  0  0  0  0  0  0  0  0  0
   67.7117   -0.0448   -0.0325 C   0  0  0  0  0  0  0  0  0  0  0  0
   66.4874   -0.0492   -0.0323 C   0  0  0  0  0  0  0  0  0  0  0  0
   71.6297   -0.0332   -0.0283 C   0  0  0  0  0  0  0  0  0  0  0  0
   72.8540   -0.0286   -0.0264 C   0  0  0  0  0  0  0  0  0  0  0  0
   86.3562    0.0314   -0.0038 C   0  0  0  0  0  0  0  0  0  0  0  0
   85.1282    0.0318   -0.0016 C   0  0  0  0  0  0  0  0  0  0  0  0
   83.7823    0.0325   -0.0032 C   0  0  0  0  0  0  0  0  0  0  0  0
   82.5586    0.0248   -0.0057 C   0  0  0  0  0  0  0  0  0  0  0  0
   87.7023    0.0244   -0.0064 C   0  0  0  0  0  0  0  0  0  0  0  0
   88.9257    0.0191   -0.0143 C   0  0  0  0  0  0  0  0  0  0  0  0
   61.6355   -0.0745   -0.0261 Cu  0  0  0  0  0  0  0  0  0  0  0  0
   58.1894   -0.0949   -0.0212 C   0  0  0  0  0  0  0  0  0  0  0  0
   58.8412    0.0656    1.2149 C   0  0  0  0  0  0  0  0  0  0  0  0
   58.1700    0.2180    2.4716 C   0  0  0  0  0  0  0  0  0  0  0  0
   59.1321    0.3369    3.4222 C   0  0  0  0  0  0  0  0  0  0  0  0
   60.3974    0.2584    2.7500 C   0  0  0  0  0  0  0  0  0  0  0  0
   60.1878    0.0938    1.4068 N   0  0  0  0  0  0  0  0  0  0  0  0
   61.6377    0.3372    3.3812 C   0  0  0  0  0  0  0  0  0  0  0  0
   61.6400    0.5125    4.8634 C   0  0  0  0  0  0  0  0  0  0  0  0
   61.6396    1.7966    5.4147 C   0  0  0  0  0  0  0  0  0  0  0  0
   61.6318    3.0016    4.5121 C   0  0  0  0  0  0  0  0  0  0  0  0
   61.6451    1.9471    6.7968 C   0  0  0  0  0  0  0  0  0  0  0  0
   61.6500    0.8384    7.6361 C   0  0  0  0  0  0  0  0  0  0  0  0
   61.6772    1.0094    9.1310 C   0  0  0  0  0  0  0  0  0  0  0  0
   61.6495   -0.4355    7.0762 C   0  0  0  0  0  0  0  0  0  0  0  0
   61.6440   -0.6094    5.6975 C   0  0  0  0  0  0  0  0  0  0  0  0
   61.6417   -1.9905    5.0983 C   0  0  0  0  0  0  0  0  0  0  0  0
   62.8770    0.2644    2.7476 C   0  0  0  0  0  0  0  0  0  0  0  0
   64.1432    0.3475    3.4175 C   0  0  0  0  0  0  0  0  0  0  0  0
   65.1040    0.2374    2.4645 C   0  0  0  0  0  0  0  0  0  0  0  0
   63.0852    0.1052    1.4032 N   0  0  0  0  0  0  0  0  0  0  0  0
   64.4313    0.0865    1.2087 C   0  0  0  0  0  0  0  0  0  0  0  0
   65.0823   -0.0558   -0.0308 C   0  0  0  0  0  0  0  0  0  0  0  0
   64.4295   -0.2032   -1.2688 C   0  0  0  0  0  0  0  0  0  0  0  0
   65.1004   -0.3421   -2.5269 C   0  0  0  0  0  0  0  0  0  0  0  0
   64.1382   -0.4599   -3.4776 C   0  0  0  0  0  0  0  0  0  0  0  0
   62.8731   -0.3947   -2.8038 C   0  0  0  0  0  0  0  0  0  0  0  0
   63.0832   -0.2369   -1.4596 N   0  0  0  0  0  0  0  0  0  0  0  0
   61.6328   -0.4833   -3.4337 C   0  0  0  0  0  0  0  0  0  0  0  0
   61.6328   -0.6553   -4.9163 C   0  0  0  0  0  0  0  0  0  0  0  0
   61.5901    0.4678   -5.7477 C   0  0  0  0  0  0  0  0  0  0  0  0
   61.5398    1.8467   -5.1454 C   0  0  0  0  0  0  0  0  0  0  0  0
   61.5937    0.2972   -7.1269 C   0  0  0  0  0  0  0  0  0  0  0  0
   61.6379   -0.9745   -7.6898 C   0  0  0  0  0  0  0  0  0  0  0  0
   61.6624   -1.1414   -9.1853 C   0  0  0  0  0  0  0  0  0  0  0  0
   61.6790   -2.0846   -6.8531 C   0  0  0  0  0  0  0  0  0  0  0  0
   61.6764   -1.9373   -5.4707 C   0  0  0  0  0  0  0  0  0  0  0  0
   61.7188   -3.1437   -4.5709 C   0  0  0  0  0  0  0  0  0  0  0  0
   60.3936   -0.4236   -2.7984 C   0  0  0  0  0  0  0  0  0  0  0  0
   59.1274   -0.5219   -3.4664 C   0  0  0  0  0  0  0  0  0  0  0  0
   58.1667   -0.4143   -2.5131 C   0  0  0  0  0  0  0  0  0  0  0  0
   58.8396   -0.2499   -1.2588 C   0  0  0  0  0  0  0  0  0  0  0  0
   60.1859   -0.2605   -1.4547 N   0  0  0  0  0  0  0  0  0  0  0  0
   57.0993    0.2299    2.5994 H   0  0  0  0  0  0  0  0  0  0  0  0
   59.0066    0.4662    4.4853 H   0  0  0  0  0  0  0  0  0  0  0  0
   62.5085    2.9935    3.8616 H   0  0  0  0  0  0  0  0  0  0  0  0
   61.6358    3.9234    5.0929 H   0  0  0  0  0  0  0  0  0  0  0  0
   60.7446    2.9924    3.8760 H   0  0  0  0  0  0  0  0  0  0  0  0
   61.6445    2.9445    7.2242 H   0  0  0  0  0  0  0  0  0  0  0  0
   62.7039    0.9288    9.4958 H   0  0  0  0  0  0  0  0  0  0  0  0
   61.0838    0.2361    9.6200 H   0  0  0  0  0  0  0  0  0  0  0  0
   61.2893    1.9867    9.4188 H   0  0  0  0  0  0  0  0  0  0  0  0
   61.6522   -1.3062    7.7239 H   0  0  0  0  0  0  0  0  0  0  0  0
   60.7584   -2.1302    4.4721 H   0  0  0  0  0  0  0  0  0  0  0  0
   62.5223   -2.1318    4.4688 H   0  0  0  0  0  0  0  0  0  0  0  0
   61.6424   -2.7529    5.8767 H   0  0  0  0  0  0  0  0  0  0  0  0
   64.2702    0.4742    4.4807 H   0  0  0  0  0  0  0  0  0  0  0  0
   66.1749    0.2556    2.5902 H   0  0  0  0  0  0  0  0  0  0  0  0
   66.1710   -0.3472   -2.6557 H   0  0  0  0  0  0  0  0  0  0  0  0
   64.2637   -0.5799   -4.5418 H   0  0  0  0  0  0  0  0  0  0  0  0
   60.6445    1.9589   -4.5310 H   0  0  0  0  0  0  0  0  0  0  0  0
   61.5282    2.6108   -5.9221 H   0  0  0  0  0  0  0  0  0  0  0  0
   62.4074    2.0120   -4.5038 H   0  0  0  0  0  0  0  0  0  0  0  0
   61.5604    1.1688   -7.7725 H   0  0  0  0  0  0  0  0  0  0  0  0
   61.3047   -2.1300   -9.4732 H   0  0  0  0  0  0  0  0  0  0  0  0
   62.6840   -1.0270   -9.5553 H   0  0  0  0  0  0  0  0  0  0  0  0
   61.0418   -0.3865   -9.6692 H   0  0  0  0  0  0  0  0  0  0  0  0
   61.7123   -3.0804   -7.2829 H   0  0  0  0  0  0  0  0  0  0  0  0
   61.7306   -4.0642   -5.1538 H   0  0  0  0  0  0  0  0  0  0  0  0
   60.8479   -3.1565   -3.9129 H   0  0  0  0  0  0  0  0  0  0  0  0
   62.6111   -3.1161   -3.9425 H   0  0  0  0  0  0  0  0  0  0  0  0
   59.0004   -0.6569   -4.5286 H   0  0  0  0  0  0  0  0  0  0  0  0
   57.0959   -0.4422   -2.6374 H   0  0  0  0  0  0  0  0  0  0  0  0
   77.7059   -0.0064   -0.0156 Cu  0  0  0  0  0  0  0  0  0  0  0  0
   74.2591   -0.0240   -0.0230 C   0  0  0  0  0  0  0  0  0  0  0  0
   74.9076    0.1214    1.2175 C   0  0  0  0  0  0  0  0  0  0  0  0
   74.2323    0.2603    2.4733 C   0  0  0  0  0  0  0  0  0  0  0  0
   75.1912    0.3739    3.4278 C   0  0  0  0  0  0  0  0  0  0  0  0
   76.4587    0.3061    2.7587 C   0  0  0  0  0  0  0  0  0  0  0  0
   76.2533    0.1512    1.4134 N   0  0  0  0  0  0  0  0  0  0  0  0
   77.6968    0.3909    3.3934 C   0  0  0  0  0  0  0  0  0  0  0  0
   77.6924    0.5579    4.8765 C   0  0  0  0  0  0  0  0  0  0  0  0
   77.6821    1.8390    5.4347 C   0  0  0  0  0  0  0  0  0  0  0  0
   77.6799    3.0486    4.5383 C   0  0  0  0  0  0  0  0  0  0  0  0
   77.6730    1.9821    6.8174 C   0  0  0  0  0  0  0  0  0  0  0  0
   77.6732    0.8688    7.6509 C   0  0  0  0  0  0  0  0  0  0  0  0
   77.6803    1.0329    9.1468 C   0  0  0  0  0  0  0  0  0  0  0  0
   77.6867   -0.4019    7.0842 C   0  0  0  0  0  0  0  0  0  0  0  0
   77.6960   -0.5684    5.7046 C   0  0  0  0  0  0  0  0  0  0  0  0
   77.7094   -1.9464    5.0982 C   0  0  0  0  0  0  0  0  0  0  0  0
   78.9382    0.3333    2.7621 C   0  0  0  0  0  0  0  0  0  0  0  0
   80.2020    0.4284    3.4350 C   0  0  0  0  0  0  0  0  0  0  0  0
   81.1660    0.3265    2.4844 C   0  0  0  0  0  0  0  0  0  0  0  0
   79.1505    0.1767    1.4184 N   0  0  0  0  0  0  0  0  0  0  0  0
   80.4975    0.1678    1.2271 C   0  0  0  0  0  0  0  0  0  0  0  0
   81.1520    0.0183   -0.0090 C   0  0  0  0  0  0  0  0  0  0  0  0
   80.5045   -0.1402   -1.2476 C   0  0  0  0  0  0  0  0  0  0  0  0
   81.1800   -0.2884   -2.5024 C   0  0  0  0  0  0  0  0  0  0  0  0
   80.2213   -0.4071   -3.4564 C   0  0  0  0  0  0  0  0  0  0  0  0
   78.9536   -0.3329   -2.7881 C   0  0  0  0  0  0  0  0  0  0  0  0
   79.1586   -0.1707   -1.4439 N   0  0  0  0  0  0  0  0  0  0  0  0
   77.7156   -0.4135   -3.4235 C   0  0  0  0  0  0  0  0  0  0  0  0
   77.7186   -0.5897   -4.9055 C   0  0  0  0  0  0  0  0  0  0  0  0
   77.6905    0.5308   -5.7409 C   0  0  0  0  0  0  0  0  0  0  0  0
   77.6613    1.9125   -5.1434 C   0  0  0  0  0  0  0  0  0  0  0  0
   77.6884    0.3553   -7.1195 C   0  0  0  0  0  0  0  0  0  0  0  0
   77.7129   -0.9189   -7.6779 C   0  0  0  0  0  0  0  0  0  0  0  0
   77.7275   -1.0921   -9.1728 C   0  0  0  0  0  0  0  0  0  0  0  0
   77.7430   -2.0264   -6.8373 C   0  0  0  0  0  0  0  0  0  0  0  0
   77.7457   -1.8742   -5.4554 C   0  0  0  0  0  0  0  0  0  0  0  0
   77.7755   -3.0778   -4.5514 C   0  0  0  0  0  0  0  0  0  0  0  0
   76.4740   -0.3432   -2.7939 C   0  0  0  0  0  0  0  0  0  0  0  0
   75.2102   -0.4298   -3.4677 C   0  0  0  0  0  0  0  0  0  0  0  0
   74.2460   -0.3199   -2.5181 C   0  0  0  0  0  0  0  0  0  0  0  0
   74.9144   -0.1664   -1.2603 C   0  0  0  0  0  0  0  0  0  0  0  0
   76.2612   -0.1831   -1.4503 N   0  0  0  0  0  0  0  0  0  0  0  0
   73.1612    0.2684    2.5979 H   0  0  0  0  0  0  0  0  0  0  0  0
   75.0620    0.4939    4.4916 H   0  0  0  0  0  0  0  0  0  0  0  0
   78.5648    3.0477    3.8990 H   0  0  0  0  0  0  0  0  0  0  0  0
   77.6728    3.9675    5.1239 H   0  0  0  0  0  0  0  0  0  0  0  0
   76.8010    3.0390    3.8909 H   0  0  0  0  0  0  0  0  0  0  0  0
   77.6634    2.9771    7.2503 H   0  0  0  0  0  0  0  0  0  0  0  0
   78.7055    0.9854    9.5214 H   0  0  0  0  0  0  0  0  0  0  0  0
   77.1084    0.2378    9.6264 H   0  0  0  0  0  0  0  0  0  0  0  0
   77.2571    1.9953    9.4351 H   0  0  0  0  0  0  0  0  0  0  0  0
   77.6878   -1.2761    7.7272 H   0  0  0  0  0  0  0  0  0  0  0  0
   76.8310   -2.0911    4.4664 H   0  0  0  0  0  0  0  0  0  0  0  0
   78.5949   -2.0763    4.4731 H   0  0  0  0  0  0  0  0  0  0  0  0
   77.7129   -2.7127    5.8728 H   0  0  0  0  0  0  0  0  0  0  0  0
   80.3252    0.5567    4.4985 H   0  0  0  0  0  0  0  0  0  0  0  0
   82.2363    0.3546    2.6125 H   0  0  0  0  0  0  0  0  0  0  0  0
   82.2512   -0.2980   -2.6267 H   0  0  0  0  0  0  0  0  0  0  0  0
   80.3505   -0.5329   -4.5195 H   0  0  0  0  0  0  0  0  0  0  0  0
   76.7707    2.0388   -4.5247 H   0  0  0  0  0  0  0  0  0  0  0  0
   77.6559    2.6738   -5.9229 H   0  0  0  0  0  0  0  0  0  0  0  0
   78.5343    2.0686   -4.5070 H   0  0  0  0  0  0  0  0  0  0  0  0
   77.6651    1.2250   -7.7681 H   0  0  0  0  0  0  0  0  0  0  0  0
   77.3393   -2.0708   -9.4554 H   0  0  0  0  0  0  0  0  0  0  0  0
   78.7508   -1.0103   -9.5468 H   0  0  0  0  0  0  0  0  0  0  0  0
   77.1281   -0.3210   -9.6578 H   0  0  0  0  0  0  0  0  0  0  0  0
   77.7623   -3.0240   -7.2636 H   0  0  0  0  0  0  0  0  0  0  0  0
   77.7826   -4.0003   -5.1312 H   0  0  0  0  0  0  0  0  0  0  0  0
   76.9019   -3.0818   -3.8968 H   0  0  0  0  0  0  0  0  0  0  0  0
   78.6655   -3.0547   -3.9196 H   0  0  0  0  0  0  0  0  0  0  0  0
   75.0868   -0.5592   -4.5311 H   0  0  0  0  0  0  0  0  0  0  0  0
   73.1756   -0.3404   -2.6472 H   0  0  0  0  0  0  0  0  0  0  0  0
  2  3  4  0  0  0  0
  3  4  1  0  0  0  0
  4  5  2  0  0  0  0
  5  6  4  0  0  0  0
  1  7  1  0  0  0  0
  3  7  4  0  0  0  0
  6  7  4  0  0  0  0
  6  8  4  0  0  0  0
  8  9  1  0  0  0  0
  9 10  4  0  0  0  0
 10 11  1  0  0  0  0
 10 12  4  0  0  0  0
 12 13  4  0  0  0  0
 13 14  1  0  0  0  0
 13 15  4  0  0  0  0
  9 16  4  0  0  0  0
 15 16  4  0  0  0  0
 16 17  1  0  0  0  0
  8 18  4  0  0  0  0
 18 19  4  0  0  0  0
 19 20  2  0  0  0  0
  1 21  1  0  0  0  0
 18 21  4  0  0  0  0
 20 22  4  0  0  0  0
 21 22  4  0  0  0  0
 22 23  4  0  0  0  0
 23 24  4  0  0  0  0
 24 25  4  0  0  0  0
 25 26  2  0  0  0  0
 26 27  4  0  0  0  0
  1 28  1  0  0  0  0
 24 28  4  0  0  0  0
 27 28  4  0  0  0  0
 27 29  4  0  0  0  0
 29 30  1  0  0  0  0
 30 31  4  0  0  0  0
 31 32  1  0  0  0  0
 31 33  4  0  0  0  0
 33 34  4  0  0  0  0
 34 35  1  0  0  0  0
 34 36  4  0  0  0  0
 30 37  4  0  0  0  0
 36 37  4  0  0  0  0
 37 38  1  0  0  0  0
 29 39  4  0  0  0  0
 39 40  4  0  0  0  0
 40 41  2  0  0  0  0
  2 42  4  0  0  0  0
 41 42  1  0  0  0  0
  1 43  1  0  0  0  0
 39 43  4  0  0  0  0
 42 43  4  0  0  0  0
  2 44  1  0  0  0  0
  4 45  1  0  0  0  0
  5 46  1  0  0  0  0
 11 47  1  0  0  0  0
 11 48  1  0  0  0  0
 11 49  1  0  0  0  0
 12 50  1  0  0  0  0
 14 51  1  0  0  0  0
 14 52  1  0  0  0  0
 14 53  1  0  0  0  0
 15 54  1  0  0  0  0
 17 55  1  0  0  0  0
 17 56  1  0  0  0  0
 17 57  1  0  0  0  0
 19 58  1  0  0  0  0
 20 59  1  0  0  0  0
 25 60  1  0  0  0  0
 26 61  1  0  0  0  0
 32 62  1  0  0  0  0
 32 63  1  0  0  0  0
 32 64  1  0  0  0  0
 33 65  1  0  0  0  0
 35 66  1  0  0  0  0
 35 67  1  0  0  0  0
 35 68  1  0  0  0  0
 36 69  1  0  0  0  0
 38 70  1  0  0  0  0
 38 71  1  0  0  0  0
 38 72  1  0  0  0  0
 40 73  1  0  0  0  0
 41 74  1  0  0  0  0
 76 77  4  0  0  0  0
 77 78  1  0  0  0  0
 78 79  2  0  0  0  0
 79 80  4  0  0  0  0
 75 81  1  0  0  0  0
 77 81  4  0  0  0  0
 80 81  4  0  0  0  0
 80 82  4  0  0  0  0
 82 83  1  0  0  0  0
 83 84  4  0  0  0  0
 84 85  1  0  0  0  0
 84 86  4  0  0  0  0
 86 87  4  0  0  0  0
 87 88  1  0  0  0  0
 87 89  4  0  0  0  0
 83 90  4  0  0  0  0
 89 90  4  0  0  0  0
 90 91  1  0  0  0  0
 82 92  4  0  0  0  0
 92 93  4  0  0  0  0
 93 94  2  0  0  0  0
 75 95  1  0  0  0  0
 92 95  4  0  0  0  0
 94 96  4  0  0  0  0
 95 96  4  0  0  0  0
 96 97  4  0  0  0  0
 97 98  4  0  0  0  0
 98 99  4  0  0  0  0
 99100  2  0  0  0  0
100101  4  0  0  0  0
 75102  1  0  0  0  0
 98102  4  0  0  0  0
101102  4  0  0  0  0
101103  4  0  0  0  0
103104  1  0  0  0  0
104105  4  0  0  0  0
105106  1  0  0  0  0
105107  4  0  0  0  0
107108  4  0  0  0  0
108109  1  0  0  0  0
108110  4  0  0  0  0
104111  4  0  0  0  0
110111  4  0  0  0  0
111112  1  0  0  0  0
103113  4  0  0  0  0
113114  4  0  0  0  0
114115  2  0  0  0  0
 76116  4  0  0  0  0
115116  1  0  0  0  0
 75117  1  0  0  0  0
113117  4  0  0  0  0
116117  4  0  0  0  0
 76118  1  0  0  0  0
 78119  1  0  0  0  0
 79120  1  0  0  0  0
 85121  1  0  0  0  0
 85122  1  0  0  0  0
 85123  1  0  0  0  0
 86124  1  0  0  0  0
 88125  1  0  0  0  0
 88126  1  0  0  0  0
 88127  1  0  0  0  0
 89128  1  0  0  0  0
 91129  1  0  0  0  0
 91130  1  0  0  0  0
 91131  1  0  0  0  0
 93132  1  0  0  0  0
 94133  1  0  0  0  0
 99134  1  0  0  0  0
100135  1  0  0  0  0
106136  1  0  0  0  0
106137  1  0  0  0  0
106138  1  0  0  0  0
107139  1  0  0  0  0
109140  1  0  0  0  0
109141  1  0  0  0  0
109142  1  0  0  0  0
110143  1  0  0  0  0
112144  1  0  0  0  0
112145  1  0  0  0  0
112146  1  0  0  0  0
114147  1  0  0  0  0
115148  1  0  0  0  0
149150  3  0  0  0  0
150151  4  0  0  0  0
 23152  4  0  0  0  0
151152  3  0  0  0  0
149153  4  0  0  0  0
153154  3  0  0  0  0
155156  3  0  0  0  0
156157  4  0  0  0  0
157158  3  0  0  0  0
155159  4  0  0  0  0
159160  3  0  0  0  0
161162  3  0  0  0  0
162163  4  0  0  0  0
163164  3  0  0  0  0
161165  4  0  0  0  0
 97166  4  0  0  0  0
165166  3  0  0  0  0
154168  4  0  0  0  0
168169  4  0  0  0  0
169170  4  0  0  0  0
170171  2  0  0  0  0
171172  4  0  0  0  0
167173  1  0  0  0  0
169173  4  0  0  0  0
172173  4  0  0  0  0
172174  4  0  0  0  0
174175  1  0  0  0  0
175176  4  0  0  0  0
176177  1  0  0  0  0
176178  4  0  0  0  0
178179  4  0  0  0  0
179180  1  0  0  0  0
179181  4  0  0  0  0
175182  4  0  0  0  0
181182  4  0  0  0  0
182183  1  0  0  0  0
174184  4  0  0  0  0
184185  4  0  0  0  0
185186  2  0  0  0  0
167187  1  0  0  0  0
184187  4  0  0  0  0
186188  4  0  0  0  0
187188  4  0  0  0  0
158189  4  0  0  0  0
188189  4  0  0  0  0
189190  4  0  0  0  0
190191  4  0  0  0  0
191192  2  0  0  0  0
192193  4  0  0  0  0
167194  1  0  0  0  0
190194  4  0  0  0  0
193194  4  0  0  0  0
193195  4  0  0  0  0
195196  1  0  0  0  0
196197  4  0  0  0  0
197198  1  0  0  0  0
197199  4  0  0  0  0
199200  4  0  0  0  0
200201  1  0  0  0  0
200202  4  0  0  0  0
196203  4  0  0  0  0
202203  4  0  0  0  0
203204  1  0  0  0  0
195205  4  0  0  0  0
205206  4  0  0  0  0
206207  2  0  0  0  0
168208  4  0  0  0  0
207208  4  0  0  0  0
167209  1  0  0  0  0
205209  4  0  0  0  0
208209  4  0  0  0  0
170210  1  0  0  0  0
171211  1  0  0  0  0
177212  1  0  0  0  0
177213  1  0  0  0  0
177214  1  0  0  0  0
178215  1  0  0  0  0
180216  1  0  0  0  0
180217  1  0  0  0  0
180218  1  0  0  0  0
181219  1  0  0  0  0
183220  1  0  0  0  0
183221  1  0  0  0  0
183222  1  0  0  0  0
185223  1  0  0  0  0
186224  1  0  0  0  0
191225  1  0  0  0  0
192226  1  0  0  0  0
198227  1  0  0  0  0
198228  1  0  0  0  0
198229  1  0  0  0  0
199230  1  0  0  0  0
201231  1  0  0  0  0
201232  1  0  0  0  0
201233  1  0  0  0  0
202234  1  0  0  0  0
204235  1  0  0  0  0
204236  1  0  0  0  0
204237  1  0  0  0  0
206238  1  0  0  0  0
207239  1  0  0  0  0
160241  4  0  0  0  0
241242  4  0  0  0  0
242243  4  0  0  0  0
243244  2  0  0  0  0
244245  4  0  0  0  0
240246  1  0  0  0  0
242246  4  0  0  0  0
245246  4  0  0  0  0
245247  4  0  0  0  0
247248  1  0  0  0  0
248249  4  0  0  0  0
249250  1  0  0  0  0
249251  4  0  0  0  0
251252  4  0  0  0  0
252253  1  0  0  0  0
252254  4  0  0  0  0
248255  4  0  0  0  0
254255  4  0  0  0  0
255256  1  0  0  0  0
247257  4  0  0  0  0
257258  4  0  0  0  0
258259  2  0  0  0  0
240260  1  0  0  0  0
257260  4  0  0  0  0
259261  4  0  0  0  0
260261  4  0  0  0  0
164262  4  0  0  0  0
261262  4  0  0  0  0
262263  4  0  0  0  0
263264  4  0  0  0  0
264265  2  0  0  0  0
265266  4  0  0  0  0
240267  1  0  0  0  0
263267  4  0  0  0  0
266267  4  0  0  0  0
266268  4  0  0  0  0
268269  1  0  0  0  0
269270  4  0  0  0  0
270271  1  0  0  0  0
270272  4  0  0  0  0
272273  4  0  0  0  0
273274  1  0  0  0  0
273275  4  0  0  0  0
269276  4  0  0  0  0
275276  4  0  0  0  0
276277  1  0  0  0  0
268278  4  0  0  0  0
278279  4  0  0  0  0
279280  2  0  0  0  0
241281  4  0  0  0  0
280281  4  0  0  0  0
240282  1  0  0  0  0
278282  4  0  0  0  0
281282  4  0  0  0  0
243283  1  0  0  0  0
244284  1  0  0  0  0
250285  1  0  0  0  0
250286  1  0  0  0  0
250287  1  0  0  0  0
251288  1  0  0  0  0
253289  1  0  0  0  0
253290  1  0  0  0  0
253291  1  0  0  0  0
254292  1  0  0  0  0
256293  1  0  0  0  0
256294  1  0  0  0  0
256295  1  0  0  0  0
258296  1  0  0  0  0
259297  1  0  0  0  0
264298  1  0  0  0  0
265299  1  0  0  0  0
271300  1  0  0  0  0
271301  1  0  0  0  0
271302  1  0  0  0  0
272303  1  0  0  0  0
274304  1  0  0  0  0
274305  1  0  0  0  0
274306  1  0  0  0  0
275307  1  0  0  0  0
277308  1  0  0  0  0
277309  1  0  0  0  0
277310  1  0  0  0  0
279311  1  0  0  0  0
280312  1  0  0  0  0
M  END
