 xtb: 6.5.1 (b24c23e)
          07302206403D

209238  0     0  0            999 V2000
   33.4667    0.0413   -0.0428 Cu  0  0  0  0  0  0  0  0  0  0  0  0
   30.0616    0.0733   -0.0500 C   0  0  0  0  0  0  0  0  0  0  0  0
   30.6924    0.9880    0.7799 C   0  0  0  0  0  0  0  0  0  0  0  0
   30.0139    1.8869    1.6680 C   0  0  0  0  0  0  0  0  0  0  0  0
   30.9697    2.6067    2.3071 C   0  0  0  0  0  0  0  0  0  0  0  0
   32.2411    2.1648    1.8025 C   0  0  0  0  0  0  0  0  0  0  0  0
   32.0417    1.1759    0.8827 N   0  0  0  0  0  0  0  0  0  0  0  0
   33.4833    2.6633    2.2073 C   0  0  0  0  0  0  0  0  0  0  0  0
   33.4899    3.7830    3.1777 C   0  0  0  0  0  0  0  0  0  0  0  0
   32.8584    4.9934    2.8778 C   0  0  0  0  0  0  0  0  0  0  0  0
   32.8676    6.0389    3.7815 C   0  0  0  0  0  0  0  0  0  0  0  0
   33.5052    5.9029    5.0207 C   0  0  0  0  0  0  0  0  0  0  0  0
   33.4379    6.9588    5.9181 N   0  0  0  0  0  0  0  0  0  0  0  0
   34.4504    7.0849    6.9580 C   0  0  0  0  0  0  0  0  0  0  0  0
   34.1253    4.6895    5.3321 C   0  0  0  0  0  0  0  0  0  0  0  0
   34.1214    3.6516    4.4159 C   0  0  0  0  0  0  0  0  0  0  0  0
   34.7177    2.1812    1.7647 C   0  0  0  0  0  0  0  0  0  0  0  0
   35.9911    2.7432    2.1145 C   0  0  0  0  0  0  0  0  0  0  0  0
   36.9403    2.0036    1.4859 C   0  0  0  0  0  0  0  0  0  0  0  0
   34.9113    1.1198    0.9197 N   0  0  0  0  0  0  0  0  0  0  0  0
   36.2543    0.9916    0.7413 C   0  0  0  0  0  0  0  0  0  0  0  0
   36.8948    0.0151   -0.0428 C   0  0  0  0  0  0  0  0  0  0  0  0
   36.2397   -0.9534   -0.8248 C   0  0  0  0  0  0  0  0  0  0  0  0
   36.9103   -1.9782   -1.5658 C   0  0  0  0  0  0  0  0  0  0  0  0
   35.9498   -2.7073   -2.1895 C   0  0  0  0  0  0  0  0  0  0  0  0
   34.6851   -2.1252   -1.8412 C   0  0  0  0  0  0  0  0  0  0  0  0
   34.8949   -1.0626   -1.0017 N   0  0  0  0  0  0  0  0  0  0  0  0
   33.4433   -2.5913   -2.2800 C   0  0  0  0  0  0  0  0  0  0  0  0
   33.4322   -3.7232   -3.2364 C   0  0  0  0  0  0  0  0  0  0  0  0
   34.0610   -3.6174   -4.4783 C   0  0  0  0  0  0  0  0  0  0  0  0
   34.0518   -4.6699   -5.3779 C   0  0  0  0  0  0  0  0  0  0  0  0
   33.4217   -5.8723   -5.0449 C   0  0  0  0  0  0  0  0  0  0  0  0
   33.3447   -6.9429   -5.9239 N   0  0  0  0  0  0  0  0  0  0  0  0
   34.3548   -7.0935   -6.9630 C   0  0  0  0  0  0  0  0  0  0  0  0
   32.7847   -5.9818   -3.8027 C   0  0  0  0  0  0  0  0  0  0  0  0
   32.7880   -4.9217   -2.9161 C   0  0  0  0  0  0  0  0  0  0  0  0
   32.2091   -2.0684   -1.8820 C   0  0  0  0  0  0  0  0  0  0  0  0
   30.9318   -2.4912   -2.3879 C   0  0  0  0  0  0  0  0  0  0  0  0
   29.9870   -1.7478   -1.7594 C   0  0  0  0  0  0  0  0  0  0  0  0
   30.6786   -0.8554   -0.8748 C   0  0  0  0  0  0  0  0  0  0  0  0
   32.0246   -1.0691   -0.9706 N   0  0  0  0  0  0  0  0  0  0  0  0
   28.9764    0.0837   -0.0525 H   0  0  0  0  0  0  0  0  0  0  0  0
   28.9432    1.9399    1.7886 H   0  0  0  0  0  0  0  0  0  0  0  0
   30.8321    3.3606    3.0654 H   0  0  0  0  0  0  0  0  0  0  0  0
   32.3766    5.1203    1.9145 H   0  0  0  0  0  0  0  0  0  0  0  0
   32.3800    6.9757    3.5327 H   0  0  0  0  0  0  0  0  0  0  0  0
   33.2402    7.8431    5.4653 H   0  0  0  0  0  0  0  0  0  0  0  0
   35.4632    7.0484    6.5408 H   0  0  0  0  0  0  0  0  0  0  0  0
   34.3352    6.2856    7.6911 H   0  0  0  0  0  0  0  0  0  0  0  0
   34.3010    8.0414    7.4589 H   0  0  0  0  0  0  0  0  0  0  0  0
   34.6094    4.5472    6.2905 H   0  0  0  0  0  0  0  0  0  0  0  0
   34.5972    2.7115    4.6738 H   0  0  0  0  0  0  0  0  0  0  0  0
   36.1370    3.6055    2.7449 H   0  0  0  0  0  0  0  0  0  0  0  0
   38.0108    2.1308    1.5111 H   0  0  0  0  0  0  0  0  0  0  0  0
   37.9789   -2.1207   -1.5915 H   0  0  0  0  0  0  0  0  0  0  0  0
   36.0826   -3.5744   -2.8162 H   0  0  0  0  0  0  0  0  0  0  0  0
   34.5456   -2.6865   -4.7523 H   0  0  0  0  0  0  0  0  0  0  0  0
   34.5341   -4.5477   -6.3400 H   0  0  0  0  0  0  0  0  0  0  0  0
   33.1422   -7.8179   -5.4552 H   0  0  0  0  0  0  0  0  0  0  0  0
   34.2379   -6.3116   -7.7144 H   0  0  0  0  0  0  0  0  0  0  0  0
   34.2045   -8.0615   -7.4408 H   0  0  0  0  0  0  0  0  0  0  0  0
   35.3686   -7.0470   -6.5491 H   0  0  0  0  0  0  0  0  0  0  0  0
   32.2884   -6.9095   -3.5377 H   0  0  0  0  0  0  0  0  0  0  0  0
   32.3064   -5.0276   -1.9501 H   0  0  0  0  0  0  0  0  0  0  0  0
   30.7835   -3.2494   -3.1399 H   0  0  0  0  0  0  0  0  0  0  0  0
   28.9160   -1.7817   -1.8843 H   0  0  0  0  0  0  0  0  0  0  0  0
   65.5416    0.0144   -0.0120 Cu  0  0  0  0  0  0  0  0  0  0  0  0
   68.9457    0.0519   -0.0966 C   0  0  0  0  0  0  0  0  0  0  0  0
   68.3156   -0.9654   -0.7976 C   0  0  0  0  0  0  0  0  0  0  0  0
   68.9953   -2.0196   -1.4932 C   0  0  0  0  0  0  0  0  0  0  0  0
   68.0396   -2.8104   -2.0422 C   0  0  0  0  0  0  0  0  0  0  0  0
   66.7669   -2.2368   -1.6996 C   0  0  0  0  0  0  0  0  0  0  0  0
   66.9656   -1.1220   -0.9372 N   0  0  0  0  0  0  0  0  0  0  0  0
   65.5243   -2.7548   -2.0777 C   0  0  0  0  0  0  0  0  0  0  0  0
   65.5173   -3.9438   -2.9620 C   0  0  0  0  0  0  0  0  0  0  0  0
   66.1220   -3.9012   -4.2216 C   0  0  0  0  0  0  0  0  0  0  0  0
   66.1096   -5.0075   -5.0497 C   0  0  0  0  0  0  0  0  0  0  0  0
   65.4959   -6.1971   -4.6387 C   0  0  0  0  0  0  0  0  0  0  0  0
   65.5577   -7.2981   -5.4810 N   0  0  0  0  0  0  0  0  0  0  0  0
   64.5594   -8.3523   -5.3591 C   0  0  0  0  0  0  0  0  0  0  0  0
   64.9046   -6.2507   -3.3734 C   0  0  0  0  0  0  0  0  0  0  0  0
   64.9109   -5.1337   -2.5553 C   0  0  0  0  0  0  0  0  0  0  0  0
   64.2896   -2.2330   -1.6836 C   0  0  0  0  0  0  0  0  0  0  0  0
   63.0145   -2.7124   -2.1353 C   0  0  0  0  0  0  0  0  0  0  0  0
   62.0657   -1.9462   -1.5387 C   0  0  0  0  0  0  0  0  0  0  0  0
   64.0971   -1.1777   -0.8309 N   0  0  0  0  0  0  0  0  0  0  0  0
   62.7535   -0.9894   -0.7260 C   0  0  0  0  0  0  0  0  0  0  0  0
   62.1141   -0.0142    0.0608 C   0  0  0  0  0  0  0  0  0  0  0  0
   62.7701    0.9670    0.8262 C   0  0  0  0  0  0  0  0  0  0  0  0
   62.1019    1.9074    1.6735 C   0  0  0  0  0  0  0  0  0  0  0  0
   63.0625    2.6863    2.2338 C   0  0  0  0  0  0  0  0  0  0  0  0
   64.3247    2.2331    1.7228 C   0  0  0  0  0  0  0  0  0  0  0  0
   64.1136    1.1777    0.8746 N   0  0  0  0  0  0  0  0  0  0  0  0
   65.5658    2.7798    2.0590 C   0  0  0  0  0  0  0  0  0  0  0  0
   65.5765    3.9669    2.9457 C   0  0  0  0  0  0  0  0  0  0  0  0
   64.9193    5.1417    2.5756 C   0  0  0  0  0  0  0  0  0  0  0  0
   64.9273    6.2564    3.3969 C   0  0  0  0  0  0  0  0  0  0  0  0
   65.5859    6.2155    4.6290 C   0  0  0  0  0  0  0  0  0  0  0  0
   65.6625    7.3155    5.4714 N   0  0  0  0  0  0  0  0  0  0  0  0
   64.6303    8.3418    5.4071 C   0  0  0  0  0  0  0  0  0  0  0  0
   66.2518    5.0416    5.0024 C   0  0  0  0  0  0  0  0  0  0  0  0
   66.2485    3.9377    4.1710 C   0  0  0  0  0  0  0  0  0  0  0  0
   66.7992    2.2899    1.6182 C   0  0  0  0  0  0  0  0  0  0  0  0
   68.0743    2.8924    1.8964 C   0  0  0  0  0  0  0  0  0  0  0  0
   69.0186    2.1241    1.2980 C   0  0  0  0  0  0  0  0  0  0  0  0
   68.3287    1.0546    0.6366 C   0  0  0  0  0  0  0  0  0  0  0  0
   66.9844    1.1804    0.8448 N   0  0  0  0  0  0  0  0  0  0  0  0
   70.0306    0.0646   -0.1242 H   0  0  0  0  0  0  0  0  0  0  0  0
   70.0669   -2.1365   -1.5361 H   0  0  0  0  0  0  0  0  0  0  0  0
   68.1782   -3.7123   -2.6166 H   0  0  0  0  0  0  0  0  0  0  0  0
   66.5848   -2.9810   -4.5611 H   0  0  0  0  0  0  0  0  0  0  0  0
   66.5755   -4.9582   -6.0283 H   0  0  0  0  0  0  0  0  0  0  0  0
   65.7281   -7.0407   -6.4459 H   0  0  0  0  0  0  0  0  0  0  0  0
   63.5412   -7.9477   -5.3833 H   0  0  0  0  0  0  0  0  0  0  0  0
   64.7059   -8.9001   -4.4274 H   0  0  0  0  0  0  0  0  0  0  0  0
   64.6937   -9.0411   -6.1932 H   0  0  0  0  0  0  0  0  0  0  0  0
   64.4408   -7.1631   -3.0192 H   0  0  0  0  0  0  0  0  0  0  0  0
   64.4568   -5.1909   -1.5719 H   0  0  0  0  0  0  0  0  0  0  0  0
   62.8671   -3.5194   -2.8346 H   0  0  0  0  0  0  0  0  0  0  0  0
   60.9941   -2.0107   -1.6411 H   0  0  0  0  0  0  0  0  0  0  0  0
   61.0349    1.9518    1.8234 H   0  0  0  0  0  0  0  0  0  0  0  0
   62.9314    3.4858    2.9449 H   0  0  0  0  0  0  0  0  0  0  0  0
   64.4129    5.1895    1.6176 H   0  0  0  0  0  0  0  0  0  0  0  0
   64.4219    7.1572    3.0709 H   0  0  0  0  0  0  0  0  0  0  0  0
   65.8906    7.0599    6.4248 H   0  0  0  0  0  0  0  0  0  0  0  0
   64.7125    8.8969    4.4718 H   0  0  0  0  0  0  0  0  0  0  0  0
   64.7888    9.0310    6.2366 H   0  0  0  0  0  0  0  0  0  0  0  0
   63.6264    7.9087    5.4823 H   0  0  0  0  0  0  0  0  0  0  0  0
   66.7705    5.0026    5.9545 H   0  0  0  0  0  0  0  0  0  0  0  0
   66.7523    3.0291    4.4824 H   0  0  0  0  0  0  0  0  0  0  0  0
   68.2216    3.7972    2.4640 H   0  0  0  0  0  0  0  0  0  0  0  0
   70.0880    2.2656    1.2862 H   0  0  0  0  0  0  0  0  0  0  0  0
   42.0971   -0.0051   -0.0394 C   0  0  0  0  0  0  0  0  0  0  0  0
   40.8685   -0.0029   -0.0421 C   0  0  0  0  0  0  0  0  0  0  0  0
   39.5242    0.0018   -0.0436 C   0  0  0  0  0  0  0  0  0  0  0  0
   38.3001    0.0057   -0.0433 C   0  0  0  0  0  0  0  0  0  0  0  0
   43.4413   -0.0055   -0.0348 C   0  0  0  0  0  0  0  0  0  0  0  0
   44.6656   -0.0042   -0.0296 C   0  0  0  0  0  0  0  0  0  0  0  0
   58.1406   -0.0150    0.0904 C   0  0  0  0  0  0  0  0  0  0  0  0
   56.9120   -0.0103    0.0864 C   0  0  0  0  0  0  0  0  0  0  0  0
   55.5679   -0.0067    0.0763 C   0  0  0  0  0  0  0  0  0  0  0  0
   54.3437   -0.0035    0.0628 C   0  0  0  0  0  0  0  0  0  0  0  0
   59.4849   -0.0177    0.0880 C   0  0  0  0  0  0  0  0  0  0  0  0
   60.7090   -0.0180    0.0797 C   0  0  0  0  0  0  0  0  0  0  0  0
   49.5046    0.0045    0.0061 Cu  0  0  0  0  0  0  0  0  0  0  0  0
   46.0701   -0.0008   -0.0218 C   0  0  0  0  0  0  0  0  0  0  0  0
   46.7261   -1.0186   -0.7383 C   0  0  0  0  0  0  0  0  0  0  0  0
   46.0573   -2.0867   -1.4168 C   0  0  0  0  0  0  0  0  0  0  0  0
   47.0194   -2.8488   -1.9978 C   0  0  0  0  0  0  0  0  0  0  0  0
   48.2821   -2.2441   -1.6843 C   0  0  0  0  0  0  0  0  0  0  0  0
   48.0708   -1.1354   -0.9083 N   0  0  0  0  0  0  0  0  0  0  0  0
   49.5255   -2.7278   -2.0999 C   0  0  0  0  0  0  0  0  0  0  0  0
   49.5357   -3.8961   -3.0115 C   0  0  0  0  0  0  0  0  0  0  0  0
   50.1754   -5.0838   -2.6457 C   0  0  0  0  0  0  0  0  0  0  0  0
   50.1886   -6.1711   -3.4985 C   0  0  0  0  0  0  0  0  0  0  0  0
   49.5732   -6.0981   -4.7543 C   0  0  0  0  0  0  0  0  0  0  0  0
   49.5759   -7.2288   -5.5580 N   0  0  0  0  0  0  0  0  0  0  0  0
   49.4046   -7.0889   -6.9978 C   0  0  0  0  0  0  0  0  0  0  0  0
   48.9254   -4.9154   -5.1221 C   0  0  0  0  0  0  0  0  0  0  0  0
   48.9086   -3.8343   -4.2573 C   0  0  0  0  0  0  0  0  0  0  0  0
   50.7613   -2.1935   -1.7249 C   0  0  0  0  0  0  0  0  0  0  0  0
   52.0325   -2.6403   -2.2176 C   0  0  0  0  0  0  0  0  0  0  0  0
   52.9830   -1.8797   -1.6158 C   0  0  0  0  0  0  0  0  0  0  0  0
   50.9560   -1.1613   -0.8460 N   0  0  0  0  0  0  0  0  0  0  0  0
   52.2985   -0.9577   -0.7617 C   0  0  0  0  0  0  0  0  0  0  0  0
   52.9393    0.0001    0.0458 C   0  0  0  0  0  0  0  0  0  0  0  0
   52.2823    0.9618    0.8354 C   0  0  0  0  0  0  0  0  0  0  0  0
   52.9492    1.8851    1.7019 C   0  0  0  0  0  0  0  0  0  0  0  0
   51.9872    2.6532    2.2754 C   0  0  0  0  0  0  0  0  0  0  0  0
   50.7266    2.2088    1.7540 C   0  0  0  0  0  0  0  0  0  0  0  0
   50.9389    1.1707    0.8861 N   0  0  0  0  0  0  0  0  0  0  0  0
   49.4839    2.7495    2.0961 C   0  0  0  0  0  0  0  0  0  0  0  0
   49.4757    3.9310    2.9900 C   0  0  0  0  0  0  0  0  0  0  0  0
   48.8066    3.8971    4.2149 C   0  0  0  0  0  0  0  0  0  0  0  0
   48.7979    4.9956    5.0574 C   0  0  0  0  0  0  0  0  0  0  0  0
   49.4634    6.1682    4.6887 C   0  0  0  0  0  0  0  0  0  0  0  0
   49.4401    7.3164    5.4662 N   0  0  0  0  0  0  0  0  0  0  0  0
   49.1968    7.2135    6.8985 C   0  0  0  0  0  0  0  0  0  0  0  0
   50.1255    6.2118    3.4554 C   0  0  0  0  0  0  0  0  0  0  0  0
   50.1358    5.1078    2.6244 C   0  0  0  0  0  0  0  0  0  0  0  0
   48.2487    2.2614    1.6606 C   0  0  0  0  0  0  0  0  0  0  0  0
   46.9792    2.8660    1.9460 C   0  0  0  0  0  0  0  0  0  0  0  0
   46.0289    2.0943    1.3584 C   0  0  0  0  0  0  0  0  0  0  0  0
   46.7118    1.0222    0.7008 C   0  0  0  0  0  0  0  0  0  0  0  0
   48.0532    1.1448    0.8916 N   0  0  0  0  0  0  0  0  0  0  0  0
   44.9891   -2.2334   -1.4326 H   0  0  0  0  0  0  0  0  0  0  0  0
   46.8892   -3.7515   -2.5726 H   0  0  0  0  0  0  0  0  0  0  0  0
   50.6495   -5.1575   -1.6730 H   0  0  0  0  0  0  0  0  0  0  0  0
   50.6792   -7.0910   -3.1976 H   0  0  0  0  0  0  0  0  0  0  0  0
   50.3178   -7.8759   -5.3193 H   0  0  0  0  0  0  0  0  0  0  0  0
   48.3842   -6.7773   -7.2244 H   0  0  0  0  0  0  0  0  0  0  0  0
   50.1062   -6.3595   -7.4184 H   0  0  0  0  0  0  0  0  0  0  0  0
   49.5810   -8.0630   -7.4541 H   0  0  0  0  0  0  0  0  0  0  0  0
   48.4326   -4.8316   -6.0830 H   0  0  0  0  0  0  0  0  0  0  0  0
   48.4184   -2.9158   -4.5617 H   0  0  0  0  0  0  0  0  0  0  0  0
   52.1766   -3.4231   -2.9446 H   0  0  0  0  0  0  0  0  0  0  0  0
   54.0529   -1.9249   -1.7424 H   0  0  0  0  0  0  0  0  0  0  0  0
   54.0159    1.9265    1.8547 H   0  0  0  0  0  0  0  0  0  0  0  0
   52.1167    3.4389    3.0021 H   0  0  0  0  0  0  0  0  0  0  0  0
   48.3025    2.9868    4.5213 H   0  0  0  0  0  0  0  0  0  0  0  0
   48.2708    4.9334    6.0015 H   0  0  0  0  0  0  0  0  0  0  0  0
   50.1969    7.9531    5.2477 H   0  0  0  0  0  0  0  0  0  0  0  0
   49.8727    6.4922    7.3719 H   0  0  0  0  0  0  0  0  0  0  0  0
   49.3551    8.1981    7.3386 H   0  0  0  0  0  0  0  0  0  0  0  0
   48.1647    6.9117    7.0813 H   0  0  0  0  0  0  0  0  0  0  0  0
   50.6318    7.1228    3.1539 H   0  0  0  0  0  0  0  0  0  0  0  0
   50.6437    5.1602    1.6676 H   0  0  0  0  0  0  0  0  0  0  0  0
   46.8360    3.7749    2.5076 H   0  0  0  0  0  0  0  0  0  0  0  0
   44.9602    2.2379    1.3556 H   0  0  0  0  0  0  0  0  0  0  0  0
  2  3  4  0  0  0  0
  3  4  1  0  0  0  0
  4  5  2  0  0  0  0
  5  6  4  0  0  0  0
  1  7  1  0  0  0  0
  3  7  4  0  0  0  0
  6  7  4  0  0  0  0
  6  8  4  0  0  0  0
  8  9  1  0  0  0  0
  9 10  4  0  0  0  0
 10 11  4  0  0  0  0
 11 12  4  0  0  0  0
 12 13  1  0  0  0  0
 13 14  1  0  0  0  0
 12 15  4  0  0  0  0
  9 16  4  0  0  0  0
 15 16  4  0  0  0  0
  8 17  4  0  0  0  0
 17 18  4  0  0  0  0
 18 19  2  0  0  0  0
  1 20  1  0  0  0  0
 17 20  4  0  0  0  0
 19 21  4  0  0  0  0
 20 21  4  0  0  0  0
 21 22  4  0  0  0  0
 22 23  4  0  0  0  0
 23 24  4  0  0  0  0
 24 25  2  0  0  0  0
 25 26  4  0  0  0  0
  1 27  1  0  0  0  0
 23 27  4  0  0  0  0
 26 27  4  0  0  0  0
 26 28  4  0  0  0  0
 28 29  1  0  0  0  0
 29 30  4  0  0  0  0
 30 31  4  0  0  0  0
 31 32  4  0  0  0  0
 32 33  1  0  0  0  0
 33 34  1  0  0  0  0
 32 35  4  0  0  0  0
 29 36  4  0  0  0  0
 35 36  4  0  0  0  0
 28 37  4  0  0  0  0
 37 38  4  0  0  0  0
 38 39  2  0  0  0  0
  2 40  4  0  0  0  0
 39 40  1  0  0  0  0
  1 41  1  0  0  0  0
 37 41  4  0  0  0  0
 40 41  4  0  0  0  0
  2 42  1  0  0  0  0
  4 43  1  0  0  0  0
  5 44  1  0  0  0  0
 10 45  1  0  0  0  0
 11 46  1  0  0  0  0
 13 47  1  0  0  0  0
 14 48  1  0  0  0  0
 14 49  1  0  0  0  0
 14 50  1  0  0  0  0
 15 51  1  0  0  0  0
 16 52  1  0  0  0  0
 18 53  1  0  0  0  0
 19 54  1  0  0  0  0
 24 55  1  0  0  0  0
 25 56  1  0  0  0  0
 30 57  1  0  0  0  0
 31 58  1  0  0  0  0
 33 59  1  0  0  0  0
 34 60  1  0  0  0  0
 34 61  1  0  0  0  0
 34 62  1  0  0  0  0
 35 63  1  0  0  0  0
 36 64  1  0  0  0  0
 38 65  1  0  0  0  0
 39 66  1  0  0  0  0
 68 69  4  0  0  0  0
 69 70  1  0  0  0  0
 70 71  2  0  0  0  0
 71 72  4  0  0  0  0
 67 73  1  0  0  0  0
 69 73  4  0  0  0  0
 72 73  4  0  0  0  0
 72 74  4  0  0  0  0
 74 75  1  0  0  0  0
 75 76  4  0  0  0  0
 76 77  4  0  0  0  0
 77 78  4  0  0  0  0
 78 79  1  0  0  0  0
 79 80  1  0  0  0  0
 78 81  4  0  0  0  0
 75 82  4  0  0  0  0
 81 82  4  0  0  0  0
 74 83  4  0  0  0  0
 83 84  4  0  0  0  0
 84 85  2  0  0  0  0
 67 86  1  0  0  0  0
 83 86  4  0  0  0  0
 85 87  4  0  0  0  0
 86 87  4  0  0  0  0
 87 88  4  0  0  0  0
 88 89  4  0  0  0  0
 89 90  4  0  0  0  0
 90 91  2  0  0  0  0
 91 92  4  0  0  0  0
 67 93  1  0  0  0  0
 89 93  4  0  0  0  0
 92 93  4  0  0  0  0
 92 94  4  0  0  0  0
 94 95  1  0  0  0  0
 95 96  4  0  0  0  0
 96 97  4  0  0  0  0
 97 98  4  0  0  0  0
 98 99  1  0  0  0  0
 99100  1  0  0  0  0
 98101  4  0  0  0  0
 95102  4  0  0  0  0
101102  4  0  0  0  0
 94103  4  0  0  0  0
103104  4  0  0  0  0
104105  2  0  0  0  0
 68106  4  0  0  0  0
105106  1  0  0  0  0
 67107  1  0  0  0  0
103107  4  0  0  0  0
106107  4  0  0  0  0
 68108  1  0  0  0  0
 70109  1  0  0  0  0
 71110  1  0  0  0  0
 76111  1  0  0  0  0
 77112  1  0  0  0  0
 79113  1  0  0  0  0
 80114  1  0  0  0  0
 80115  1  0  0  0  0
 80116  1  0  0  0  0
 81117  1  0  0  0  0
 82118  1  0  0  0  0
 84119  1  0  0  0  0
 85120  1  0  0  0  0
 90121  1  0  0  0  0
 91122  1  0  0  0  0
 96123  1  0  0  0  0
 97124  1  0  0  0  0
 99125  1  0  0  0  0
100126  1  0  0  0  0
100127  1  0  0  0  0
100128  1  0  0  0  0
101129  1  0  0  0  0
102130  1  0  0  0  0
104131  1  0  0  0  0
105132  1  0  0  0  0
133134  3  0  0  0  0
134135  4  0  0  0  0
 22136  4  0  0  0  0
135136  3  0  0  0  0
133137  4  0  0  0  0
137138  3  0  0  0  0
139140  3  0  0  0  0
140141  4  0  0  0  0
141142  3  0  0  0  0
139143  4  0  0  0  0
 88144  4  0  0  0  0
143144  3  0  0  0  0
138146  4  0  0  0  0
146147  4  0  0  0  0
147148  4  0  0  0  0
148149  2  0  0  0  0
149150  4  0  0  0  0
145151  1  0  0  0  0
147151  4  0  0  0  0
150151  4  0  0  0  0
150152  4  0  0  0  0
152153  1  0  0  0  0
153154  4  0  0  0  0
154155  4  0  0  0  0
155156  4  0  0  0  0
156157  1  0  0  0  0
157158  1  0  0  0  0
156159  4  0  0  0  0
153160  4  0  0  0  0
159160  4  0  0  0  0
152161  4  0  0  0  0
161162  4  0  0  0  0
162163  2  0  0  0  0
145164  1  0  0  0  0
161164  4  0  0  0  0
163165  4  0  0  0  0
164165  4  0  0  0  0
142166  4  0  0  0  0
165166  4  0  0  0  0
166167  4  0  0  0  0
167168  4  0  0  0  0
168169  2  0  0  0  0
169170  4  0  0  0  0
145171  1  0  0  0  0
167171  4  0  0  0  0
170171  4  0  0  0  0
170172  4  0  0  0  0
172173  1  0  0  0  0
173174  4  0  0  0  0
174175  4  0  0  0  0
175176  4  0  0  0  0
176177  1  0  0  0  0
177178  1  0  0  0  0
176179  4  0  0  0  0
173180  4  0  0  0  0
179180  4  0  0  0  0
172181  4  0  0  0  0
181182  4  0  0  0  0
182183  2  0  0  0  0
146184  4  0  0  0  0
183184  4  0  0  0  0
145185  1  0  0  0  0
181185  4  0  0  0  0
184185  4  0  0  0  0
148186  1  0  0  0  0
149187  1  0  0  0  0
154188  1  0  0  0  0
155189  1  0  0  0  0
157190  1  0  0  0  0
158191  1  0  0  0  0
158192  1  0  0  0  0
158193  1  0  0  0  0
159194  1  0  0  0  0
160195  1  0  0  0  0
162196  1  0  0  0  0
163197  1  0  0  0  0
168198  1  0  0  0  0
169199  1  0  0  0  0
174200  1  0  0  0  0
175201  1  0  0  0  0
177202  1  0  0  0  0
178203  1  0  0  0  0
178204  1  0  0  0  0
178205  1  0  0  0  0
179206  1  0  0  0  0
180207  1  0  0  0  0
182208  1  0  0  0  0
183209  1  0  0  0  0
M  END
