 xtb: 6.5.1 (b24c23e)
          07302206433D

262301  0     0  0            999 V2000
   40.3144   -0.0004   -0.0137 Cu  0  0  0  0  0  0  0  0  0  0  0  0
   36.9094    0.0580   -0.0987 C   0  0  0  0  0  0  0  0  0  0  0  0
   37.5506    1.2773    0.0585 C   0  0  0  0  0  0  0  0  0  0  0  0
   36.8811    2.5358    0.2230 C   0  0  0  0  0  0  0  0  0  0  0  0
   37.8440    3.4796    0.3658 C   0  0  0  0  0  0  0  0  0  0  0  0
   39.1117    2.8065    0.2793 C   0  0  0  0  0  0  0  0  0  0  0  0
   38.9024    1.4696    0.1005 N   0  0  0  0  0  0  0  0  0  0  0  0
   40.3596    3.4239    0.3955 C   0  0  0  0  0  0  0  0  0  0  0  0
   40.3800    4.8952    0.5794 C   0  0  0  0  0  0  0  0  0  0  0  0
   40.9132    5.4546    1.7446 C   0  0  0  0  0  0  0  0  0  0  0  0
   40.9287    6.8252    1.9168 C   0  0  0  0  0  0  0  0  0  0  0  0
   40.4170    7.6689    0.9253 C   0  0  0  0  0  0  0  0  0  0  0  0
   40.4479    9.1283    1.1311 C   0  0  0  0  0  0  0  0  0  0  0  0
   40.8916    9.6557    2.1188 O   0  0  0  0  0  0  0  0  0  0  0  0
   39.8866    7.1113   -0.2406 C   0  0  0  0  0  0  0  0  0  0  0  0
   39.8660    5.7382   -0.4096 C   0  0  0  0  0  0  0  0  0  0  0  0
   41.5895    2.7641    0.3530 C   0  0  0  0  0  0  0  0  0  0  0  0
   42.8703    3.4092    0.4180 C   0  0  0  0  0  0  0  0  0  0  0  0
   43.8112    2.4361    0.3212 C   0  0  0  0  0  0  0  0  0  0  0  0
   41.7705    1.4143    0.2061 N   0  0  0  0  0  0  0  0  0  0  0  0
   43.1132    1.1926    0.1897 C   0  0  0  0  0  0  0  0  0  0  0  0
   43.7433   -0.0570    0.0521 C   0  0  0  0  0  0  0  0  0  0  0  0
   43.0783   -1.2862   -0.1008 C   0  0  0  0  0  0  0  0  0  0  0  0
   43.7406   -2.5456   -0.2617 C   0  0  0  0  0  0  0  0  0  0  0  0
   42.7724   -3.4883   -0.3858 C   0  0  0  0  0  0  0  0  0  0  0  0
   41.5104   -2.8100   -0.2948 C   0  0  0  0  0  0  0  0  0  0  0  0
   41.7297   -1.4681   -0.1296 N   0  0  0  0  0  0  0  0  0  0  0  0
   40.2621   -3.4274   -0.3975 C   0  0  0  0  0  0  0  0  0  0  0  0
   40.2397   -4.9021   -0.5518 C   0  0  0  0  0  0  0  0  0  0  0  0
   39.7023   -5.4846   -1.7029 C   0  0  0  0  0  0  0  0  0  0  0  0
   39.6802   -6.8604   -1.8476 C   0  0  0  0  0  0  0  0  0  0  0  0
   40.1901   -7.6822   -0.8396 C   0  0  0  0  0  0  0  0  0  0  0  0
   40.1736   -9.1509   -0.9668 C   0  0  0  0  0  0  0  0  0  0  0  0
   40.5964   -9.9005   -0.1243 O   0  0  0  0  0  0  0  0  0  0  0  0
   40.7261   -7.0996    0.3137 C   0  0  0  0  0  0  0  0  0  0  0  0
   40.7534   -5.7256    0.4546 C   0  0  0  0  0  0  0  0  0  0  0  0
   39.0325   -2.7651   -0.3640 C   0  0  0  0  0  0  0  0  0  0  0  0
   37.7460   -3.4044   -0.4275 C   0  0  0  0  0  0  0  0  0  0  0  0
   36.8105   -2.4262   -0.3481 C   0  0  0  0  0  0  0  0  0  0  0  0
   37.5157   -1.1825   -0.2249 C   0  0  0  0  0  0  0  0  0  0  0  0
   38.8614   -1.4172   -0.2331 N   0  0  0  0  0  0  0  0  0  0  0  0
   35.8245    0.0749   -0.1117 H   0  0  0  0  0  0  0  0  0  0  0  0
   35.8104    2.6649    0.2341 H   0  0  0  0  0  0  0  0  0  0  0  0
   37.7143    4.5374    0.5286 H   0  0  0  0  0  0  0  0  0  0  0  0
   41.3001    4.8027    2.5197 H   0  0  0  0  0  0  0  0  0  0  0  0
   41.3352    7.2668    2.8204 H   0  0  0  0  0  0  0  0  0  0  0  0
   40.0226    9.7164    0.2900 H   0  0  0  0  0  0  0  0  0  0  0  0
   39.4912    7.7587   -1.0166 H   0  0  0  0  0  0  0  0  0  0  0  0
   39.4648    5.3087   -1.3207 H   0  0  0  0  0  0  0  0  0  0  0  0
   43.0262    4.4716    0.5110 H   0  0  0  0  0  0  0  0  0  0  0  0
   44.8841    2.5419    0.3311 H   0  0  0  0  0  0  0  0  0  0  0  0
   44.8101   -2.6804   -0.2815 H   0  0  0  0  0  0  0  0  0  0  0  0
   42.8978   -4.5478   -0.5396 H   0  0  0  0  0  0  0  0  0  0  0  0
   39.3164   -4.8489   -2.4919 H   0  0  0  0  0  0  0  0  0  0  0  0
   39.2665   -7.3041   -2.7474 H   0  0  0  0  0  0  0  0  0  0  0  0
   39.7326   -9.5211   -1.9169 H   0  0  0  0  0  0  0  0  0  0  0  0
   41.1166   -7.7456    1.0927 H   0  0  0  0  0  0  0  0  0  0  0  0
   41.1588   -5.2771    1.3546 H   0  0  0  0  0  0  0  0  0  0  0  0
   37.5859   -4.4674   -0.5088 H   0  0  0  0  0  0  0  0  0  0  0  0
   35.7365   -2.5243   -0.3623 H   0  0  0  0  0  0  0  0  0  0  0  0
   96.1449   -0.0306   -0.0429 Cu  0  0  0  0  0  0  0  0  0  0  0  0
   99.5508   -0.0776   -0.0774 C   0  0  0  0  0  0  0  0  0  0  0  0
   98.9096   -1.3067   -0.1041 C   0  0  0  0  0  0  0  0  0  0  0  0
   99.5790   -2.5759   -0.1042 C   0  0  0  0  0  0  0  0  0  0  0  0
   98.6159   -3.5302   -0.1111 C   0  0  0  0  0  0  0  0  0  0  0  0
   97.3483   -2.8514   -0.1269 C   0  0  0  0  0  0  0  0  0  0  0  0
   97.5578   -1.5026   -0.1139 N   0  0  0  0  0  0  0  0  0  0  0  0
   96.0999   -3.4784   -0.1234 C   0  0  0  0  0  0  0  0  0  0  0  0
   96.0787   -4.9609   -0.1425 C   0  0  0  0  0  0  0  0  0  0  0  0
   95.5198   -5.6723    0.9235 C   0  0  0  0  0  0  0  0  0  0  0  0
   95.5041   -7.0536    0.9090 C   0  0  0  0  0  0  0  0  0  0  0  0
   96.0417   -7.7559   -0.1748 C   0  0  0  0  0  0  0  0  0  0  0  0
   96.0108   -9.2297   -0.1680 C   0  0  0  0  0  0  0  0  0  0  0  0
   95.5447   -9.8854    0.7284 O   0  0  0  0  0  0  0  0  0  0  0  0
   96.5973   -7.0463   -1.2421 C   0  0  0  0  0  0  0  0  0  0  0  0
   96.6179   -5.6629   -1.2240 C   0  0  0  0  0  0  0  0  0  0  0  0
   94.8695   -2.8183   -0.1002 C   0  0  0  0  0  0  0  0  0  0  0  0
   93.5893   -3.4654   -0.1564 C   0  0  0  0  0  0  0  0  0  0  0  0
   92.6482   -2.4881   -0.1336 C   0  0  0  0  0  0  0  0  0  0  0  0
   94.6882   -1.4614   -0.0572 N   0  0  0  0  0  0  0  0  0  0  0  0
   93.3456   -1.2389   -0.0697 C   0  0  0  0  0  0  0  0  0  0  0  0
   92.7153    0.0175   -0.0331 C   0  0  0  0  0  0  0  0  0  0  0  0
   93.3802    1.2556    0.0100 C   0  0  0  0  0  0  0  0  0  0  0  0
   92.7181    2.5253    0.0264 C   0  0  0  0  0  0  0  0  0  0  0  0
   93.6864    3.4754    0.0592 C   0  0  0  0  0  0  0  0  0  0  0  0
   94.9481    2.7905    0.0695 C   0  0  0  0  0  0  0  0  0  0  0  0
   94.7286    1.4390    0.0309 N   0  0  0  0  0  0  0  0  0  0  0  0
   96.1966    3.4157    0.0786 C   0  0  0  0  0  0  0  0  0  0  0  0
   96.2189    4.8969    0.1460 C   0  0  0  0  0  0  0  0  0  0  0  0
   96.7724    5.6447   -0.8969 C   0  0  0  0  0  0  0  0  0  0  0  0
   96.7957    7.0266   -0.8331 C   0  0  0  0  0  0  0  0  0  0  0  0
   96.2707    7.6886    0.2794 C   0  0  0  0  0  0  0  0  0  0  0  0
   96.2891    9.1597    0.3747 C   0  0  0  0  0  0  0  0  0  0  0  0
   95.8543    9.7749    1.3144 O   0  0  0  0  0  0  0  0  0  0  0  0
   95.7179    6.9405    1.3241 C   0  0  0  0  0  0  0  0  0  0  0  0
   95.6894    5.5609    1.2567 C   0  0  0  0  0  0  0  0  0  0  0  0
   97.4269    2.7551    0.0330 C   0  0  0  0  0  0  0  0  0  0  0  0
   98.7131    3.3964    0.0824 C   0  0  0  0  0  0  0  0  0  0  0  0
   99.6490    2.4166    0.0330 C   0  0  0  0  0  0  0  0  0  0  0  0
   98.9442    1.1685   -0.0356 C   0  0  0  0  0  0  0  0  0  0  0  0
   97.5984    1.4025   -0.0309 N   0  0  0  0  0  0  0  0  0  0  0  0
  100.6358   -0.0928   -0.0745 H   0  0  0  0  0  0  0  0  0  0  0  0
  100.6497   -2.7055   -0.0916 H   0  0  0  0  0  0  0  0  0  0  0  0
   98.7453   -4.6004   -0.0941 H   0  0  0  0  0  0  0  0  0  0  0  0
   95.1129   -5.1308    1.7701 H   0  0  0  0  0  0  0  0  0  0  0  0
   95.0779   -7.6129    1.7349 H   0  0  0  0  0  0  0  0  0  0  0  0
   96.4580   -9.6992   -1.0701 H   0  0  0  0  0  0  0  0  0  0  0  0
   97.0127   -7.5833   -2.0887 H   0  0  0  0  0  0  0  0  0  0  0  0
   97.0387   -5.1147   -2.0594 H   0  0  0  0  0  0  0  0  0  0  0  0
   93.4342   -4.5302   -0.2200 H   0  0  0  0  0  0  0  0  0  0  0  0
   91.5756   -2.5936   -0.1624 H   0  0  0  0  0  0  0  0  0  0  0  0
   91.6488    2.6620    0.0089 H   0  0  0  0  0  0  0  0  0  0  0  0
   93.5616    4.5461    0.0619 H   0  0  0  0  0  0  0  0  0  0  0  0
   97.1703    5.1340   -1.7666 H   0  0  0  0  0  0  0  0  0  0  0  0
   97.2224    7.5996   -1.6499 H   0  0  0  0  0  0  0  0  0  0  0  0
   96.7440    9.6677   -0.5023 H   0  0  0  0  0  0  0  0  0  0  0  0
   95.3156    7.4628    2.1854 H   0  0  0  0  0  0  0  0  0  0  0  0
   95.2711    4.9831    2.0731 H   0  0  0  0  0  0  0  0  0  0  0  0
   98.8725    4.4599    0.1585 H   0  0  0  0  0  0  0  0  0  0  0  0
  100.7229    2.5153    0.0495 H   0  0  0  0  0  0  0  0  0  0  0  0
   45.1487   -0.0756    0.0576 C   0  0  0  0  0  0  0  0  0  0  0  0
   46.3732   -0.0826    0.0656 C   0  0  0  0  0  0  0  0  0  0  0  0
   47.7159   -0.0883    0.0686 C   0  0  0  0  0  0  0  0  0  0  0  0
   48.9464   -0.0879    0.0681 C   0  0  0  0  0  0  0  0  0  0  0  0
   50.2842   -0.0853    0.0654 C   0  0  0  0  0  0  0  0  0  0  0  0
   51.5149   -0.0785    0.0627 C   0  0  0  0  0  0  0  0  0  0  0  0
   52.8573   -0.0712    0.0571 C   0  0  0  0  0  0  0  0  0  0  0  0
   54.0820   -0.0649    0.0497 C   0  0  0  0  0  0  0  0  0  0  0  0
   63.7625   -0.0357   -0.0303 C   0  0  0  0  0  0  0  0  0  0  0  0
   64.9873   -0.0348   -0.0296 C   0  0  0  0  0  0  0  0  0  0  0  0
   66.3296   -0.0344   -0.0264 C   0  0  0  0  0  0  0  0  0  0  0  0
   67.5604   -0.0339   -0.0201 C   0  0  0  0  0  0  0  0  0  0  0  0
   68.8979   -0.0335   -0.0136 C   0  0  0  0  0  0  0  0  0  0  0  0
   70.1287   -0.0336   -0.0050 C   0  0  0  0  0  0  0  0  0  0  0  0
   71.4710   -0.0328    0.0010 C   0  0  0  0  0  0  0  0  0  0  0  0
   72.6958   -0.0327    0.0077 C   0  0  0  0  0  0  0  0  0  0  0  0
   82.3765    0.0055   -0.0602 C   0  0  0  0  0  0  0  0  0  0  0  0
   83.6011    0.0150   -0.0664 C   0  0  0  0  0  0  0  0  0  0  0  0
   84.9436    0.0241   -0.0707 C   0  0  0  0  0  0  0  0  0  0  0  0
   86.1743    0.0334   -0.0704 C   0  0  0  0  0  0  0  0  0  0  0  0
   87.5121    0.0403   -0.0675 C   0  0  0  0  0  0  0  0  0  0  0  0
   88.7427    0.0449   -0.0614 C   0  0  0  0  0  0  0  0  0  0  0  0
   90.0854    0.0419   -0.0537 C   0  0  0  0  0  0  0  0  0  0  0  0
   91.3098    0.0351   -0.0456 C   0  0  0  0  0  0  0  0  0  0  0  0
   58.9223   -0.0481    0.0039 Cu  0  0  0  0  0  0  0  0  0  0  0  0
   55.4867   -0.0599    0.0379 C   0  0  0  0  0  0  0  0  0  0  0  0
   56.1346    1.1433    0.3714 C   0  0  0  0  0  0  0  0  0  0  0  0
   55.4559    2.3671    0.6744 C   0  0  0  0  0  0  0  0  0  0  0  0
   56.4114    3.2888    0.9574 C   0  0  0  0  0  0  0  0  0  0  0  0
   57.6803    2.6290    0.8371 C   0  0  0  0  0  0  0  0  0  0  0  0
   57.4792    1.3254    0.4699 N   0  0  0  0  0  0  0  0  0  0  0  0
   58.9212    3.2358    1.0446 C   0  0  0  0  0  0  0  0  0  0  0  0
   58.9217    4.6487    1.4939 C   0  0  0  0  0  0  0  0  0  0  0  0
   59.5091    5.6423    0.7048 C   0  0  0  0  0  0  0  0  0  0  0  0
   59.5091    6.9583    1.1253 C   0  0  0  0  0  0  0  0  0  0  0  0
   58.9271    7.3106    2.3476 C   0  0  0  0  0  0  0  0  0  0  0  0
   58.9449    8.7209    2.7770 C   0  0  0  0  0  0  0  0  0  0  0  0
   59.4377    9.6106    2.1320 O   0  0  0  0  0  0  0  0  0  0  0  0
   58.3414    6.3186    3.1378 C   0  0  0  0  0  0  0  0  0  0  0  0
   58.3364    5.0019    2.7130 C   0  0  0  0  0  0  0  0  0  0  0  0
   60.1624    2.6211    0.8647 C   0  0  0  0  0  0  0  0  0  0  0  0
   61.4309    3.2306    1.1465 C   0  0  0  0  0  0  0  0  0  0  0  0
   62.3869    2.3143    0.8487 C   0  0  0  0  0  0  0  0  0  0  0  0
   60.3644    1.3434    0.4154 N   0  0  0  0  0  0  0  0  0  0  0  0
   61.7091    1.1386    0.3921 C   0  0  0  0  0  0  0  0  0  0  0  0
   62.3580   -0.0378   -0.0248 C   0  0  0  0  0  0  0  0  0  0  0  0
   61.7091   -1.2170   -0.4340 C   0  0  0  0  0  0  0  0  0  0  0  0
   62.3860   -2.3871   -0.9059 C   0  0  0  0  0  0  0  0  0  0  0  0
   61.4305   -3.3091   -1.1878 C   0  0  0  0  0  0  0  0  0  0  0  0
   60.1636   -2.7091   -0.8798 C   0  0  0  0  0  0  0  0  0  0  0  0
   60.3656   -1.4307   -0.4327 N   0  0  0  0  0  0  0  0  0  0  0  0
   58.9235   -3.3334   -1.0324 C   0  0  0  0  0  0  0  0  0  0  0  0
   58.9237   -4.7483   -1.4752 C   0  0  0  0  0  0  0  0  0  0  0  0
   59.5393   -5.7312   -0.6952 C   0  0  0  0  0  0  0  0  0  0  0  0
   59.5364   -7.0534   -1.1024 C   0  0  0  0  0  0  0  0  0  0  0  0
   58.9219   -7.4186   -2.3027 C   0  0  0  0  0  0  0  0  0  0  0  0
   58.9057   -8.8202   -2.7596 C   0  0  0  0  0  0  0  0  0  0  0  0
   58.3886   -9.1839   -3.7847 O   0  0  0  0  0  0  0  0  0  0  0  0
   58.3092   -6.4346   -3.0857 C   0  0  0  0  0  0  0  0  0  0  0  0
   58.3076   -5.1154   -2.6755 C   0  0  0  0  0  0  0  0  0  0  0  0
   57.6828   -2.7351   -0.8003 C   0  0  0  0  0  0  0  0  0  0  0  0
   56.4163   -3.4040   -0.8931 C   0  0  0  0  0  0  0  0  0  0  0  0
   55.4603   -2.4882   -0.5936 C   0  0  0  0  0  0  0  0  0  0  0  0
   56.1364   -1.2590   -0.3068 C   0  0  0  0  0  0  0  0  0  0  0  0
   57.4801   -1.4321   -0.4314 N   0  0  0  0  0  0  0  0  0  0  0  0
   54.3857    2.4974    0.6615 H   0  0  0  0  0  0  0  0  0  0  0  0
   56.2729    4.3274    1.2106 H   0  0  0  0  0  0  0  0  0  0  0  0
   59.9509    5.3739   -0.2482 H   0  0  0  0  0  0  0  0  0  0  0  0
   59.9578    7.7358    0.5165 H   0  0  0  0  0  0  0  0  0  0  0  0
   58.4605    8.9043    3.7598 H   0  0  0  0  0  0  0  0  0  0  0  0
   57.8908    6.5827    4.0890 H   0  0  0  0  0  0  0  0  0  0  0  0
   57.8920    4.2321    3.3339 H   0  0  0  0  0  0  0  0  0  0  0  0
   61.5690    4.2260    1.5362 H   0  0  0  0  0  0  0  0  0  0  0  0
   63.4571    2.4141    0.9345 H   0  0  0  0  0  0  0  0  0  0  0  0
   63.4549   -2.4792   -1.0132 H   0  0  0  0  0  0  0  0  0  0  0  0
   61.5677   -4.3023   -1.5837 H   0  0  0  0  0  0  0  0  0  0  0  0
   60.0060   -5.4526    0.2430 H   0  0  0  0  0  0  0  0  0  0  0  0
   60.0111   -7.8109   -0.4872 H   0  0  0  0  0  0  0  0  0  0  0  0
   59.4162   -9.5292   -2.0734 H   0  0  0  0  0  0  0  0  0  0  0  0
   57.8380   -6.7267   -4.0181 H   0  0  0  0  0  0  0  0  0  0  0  0
   57.8423   -4.3533   -3.2904 H   0  0  0  0  0  0  0  0  0  0  0  0
   56.2796   -4.4440   -1.1411 H   0  0  0  0  0  0  0  0  0  0  0  0
   54.3915   -2.6258   -0.5592 H   0  0  0  0  0  0  0  0  0  0  0  0
   77.5361   -0.0189   -0.0111 Cu  0  0  0  0  0  0  0  0  0  0  0  0
   74.1003   -0.0303    0.0080 C   0  0  0  0  0  0  0  0  0  0  0  0
   74.7470    1.1704    0.3531 C   0  0  0  0  0  0  0  0  0  0  0  0
   74.0671    2.3916    0.6639 C   0  0  0  0  0  0  0  0  0  0  0  0
   75.0215    3.3113    0.9567 C   0  0  0  0  0  0  0  0  0  0  0  0
   76.2911    2.6533    0.8331 C   0  0  0  0  0  0  0  0  0  0  0  0
   76.0913    1.3521    0.4564 N   0  0  0  0  0  0  0  0  0  0  0  0
   77.5311    3.2608    1.0424 C   0  0  0  0  0  0  0  0  0  0  0  0
   77.5293    4.6712    1.4998 C   0  0  0  0  0  0  0  0  0  0  0  0
   78.1092    5.6715    0.7136 C   0  0  0  0  0  0  0  0  0  0  0  0
   78.1057    6.9850    1.1415 C   0  0  0  0  0  0  0  0  0  0  0  0
   77.5279    7.3281    2.3684 C   0  0  0  0  0  0  0  0  0  0  0  0
   77.5411    8.7363    2.8050 C   0  0  0  0  0  0  0  0  0  0  0  0
   78.0259    9.6317    2.1620 O   0  0  0  0  0  0  0  0  0  0  0  0
   76.9500    6.3293    3.1558 C   0  0  0  0  0  0  0  0  0  0  0  0
   76.9483    5.0151    2.7235 C   0  0  0  0  0  0  0  0  0  0  0  0
   78.7731    2.6500    0.8552 C   0  0  0  0  0  0  0  0  0  0  0  0
   80.0413    3.2622    1.1328 C   0  0  0  0  0  0  0  0  0  0  0  0
   80.9984    2.3498    0.8271 C   0  0  0  0  0  0  0  0  0  0  0  0
   78.9765    1.3743    0.4011 N   0  0  0  0  0  0  0  0  0  0  0  0
   80.3216    1.1732    0.3712 C   0  0  0  0  0  0  0  0  0  0  0  0
   80.9718   -0.0020   -0.0471 C   0  0  0  0  0  0  0  0  0  0  0  0
   80.3245   -1.1845   -0.4487 C   0  0  0  0  0  0  0  0  0  0  0  0
   81.0028   -2.3564   -0.9143 C   0  0  0  0  0  0  0  0  0  0  0  0
   80.0485   -3.2815   -1.1899 C   0  0  0  0  0  0  0  0  0  0  0  0
   78.7809   -2.6812   -0.8856 C   0  0  0  0  0  0  0  0  0  0  0  0
   78.9813   -1.4003   -0.4453 N   0  0  0  0  0  0  0  0  0  0  0  0
   77.5414   -3.3069   -1.0389 C   0  0  0  0  0  0  0  0  0  0  0  0
   77.5443   -4.7246   -1.4727 C   0  0  0  0  0  0  0  0  0  0  0  0
   78.1553   -5.7016   -0.6817 C   0  0  0  0  0  0  0  0  0  0  0  0
   78.1546   -7.0268   -1.0789 C   0  0  0  0  0  0  0  0  0  0  0  0
   77.5472   -7.4010   -2.2800 C   0  0  0  0  0  0  0  0  0  0  0  0
   77.5336   -8.8061   -2.7262 C   0  0  0  0  0  0  0  0  0  0  0  0
   77.0229   -9.1778   -3.7516 O   0  0  0  0  0  0  0  0  0  0  0  0
   76.9395   -6.4229   -3.0742 C   0  0  0  0  0  0  0  0  0  0  0  0
   76.9356   -5.1006   -2.6740 C   0  0  0  0  0  0  0  0  0  0  0  0
   76.2996   -2.7074   -0.8161 C   0  0  0  0  0  0  0  0  0  0  0  0
   75.0331   -3.3752   -0.9168 C   0  0  0  0  0  0  0  0  0  0  0  0
   74.0759   -2.4578   -0.6262 C   0  0  0  0  0  0  0  0  0  0  0  0
   74.7513   -1.2291   -0.3357 C   0  0  0  0  0  0  0  0  0  0  0  0
   76.0955   -1.4035   -0.4507 N   0  0  0  0  0  0  0  0  0  0  0  0
   72.9969    2.5214    0.6499 H   0  0  0  0  0  0  0  0  0  0  0  0
   74.8820    4.3476    1.2183 H   0  0  0  0  0  0  0  0  0  0  0  0
   78.5476    5.4101   -0.2429 H   0  0  0  0  0  0  0  0  0  0  0  0
   78.5483    7.7678    0.5349 H   0  0  0  0  0  0  0  0  0  0  0  0
   77.0611    8.9122    3.7914 H   0  0  0  0  0  0  0  0  0  0  0  0
   76.5027    6.5863    4.1105 H   0  0  0  0  0  0  0  0  0  0  0  0
   76.5096    4.2400    3.3419 H   0  0  0  0  0  0  0  0  0  0  0  0
   80.1784    4.2569    1.5247 H   0  0  0  0  0  0  0  0  0  0  0  0
   82.0686    2.4524    0.9081 H   0  0  0  0  0  0  0  0  0  0  0  0
   82.0718   -2.4474   -1.0216 H   0  0  0  0  0  0  0  0  0  0  0  0
   80.1867   -4.2769   -1.5797 H   0  0  0  0  0  0  0  0  0  0  0  0
   78.6166   -5.4158    0.2569 H   0  0  0  0  0  0  0  0  0  0  0  0
   78.6256   -7.7797   -0.4552 H   0  0  0  0  0  0  0  0  0  0  0  0
   78.0392   -9.5099   -2.0310 H   0  0  0  0  0  0  0  0  0  0  0  0
   76.4741   -6.7220   -4.0073 H   0  0  0  0  0  0  0  0  0  0  0  0
   76.4743   -4.3431   -3.2976 H   0  0  0  0  0  0  0  0  0  0  0  0
   74.8970   -4.4155   -1.1640 H   0  0  0  0  0  0  0  0  0  0  0  0
   73.0068   -2.5941   -0.5994 H   0  0  0  0  0  0  0  0  0  0  0  0
  2  3  4  0  0  0  0
  3  4  1  0  0  0  0
  4  5  2  0  0  0  0
  5  6  4  0  0  0  0
  1  7  1  0  0  0  0
  3  7  4  0  0  0  0
  6  7  4  0  0  0  0
  6  8  4  0  0  0  0
  8  9  1  0  0  0  0
  9 10  4  0  0  0  0
 10 11  4  0  0  0  0
 11 12  4  0  0  0  0
 12 13  1  0  0  0  0
 13 14  2  0  0  0  0
 12 15  4  0  0  0  0
  9 16  4  0  0  0  0
 15 16  4  0  0  0  0
  8 17  4  0  0  0  0
 17 18  4  0  0  0  0
 18 19  2  0  0  0  0
  1 20  1  0  0  0  0
 17 20  4  0  0  0  0
 19 21  4  0  0  0  0
 20 21  4  0  0  0  0
 21 22  4  0  0  0  0
 22 23  4  0  0  0  0
 23 24  4  0  0  0  0
 24 25  2  0  0  0  0
 25 26  4  0  0  0  0
  1 27  1  0  0  0  0
 23 27  4  0  0  0  0
 26 27  4  0  0  0  0
 26 28  4  0  0  0  0
 28 29  1  0  0  0  0
 29 30  4  0  0  0  0
 30 31  4  0  0  0  0
 31 32  4  0  0  0  0
 32 33  1  0  0  0  0
 33 34  2  0  0  0  0
 32 35  4  0  0  0  0
 29 36  4  0  0  0  0
 35 36  4  0  0  0  0
 28 37  4  0  0  0  0
 37 38  4  0  0  0  0
 38 39  2  0  0  0  0
  2 40  4  0  0  0  0
 39 40  1  0  0  0  0
  1 41  1  0  0  0  0
 37 41  4  0  0  0  0
 40 41  4  0  0  0  0
  2 42  1  0  0  0  0
  4 43  1  0  0  0  0
  5 44  1  0  0  0  0
 10 45  1  0  0  0  0
 11 46  1  0  0  0  0
 13 47  1  0  0  0  0
 15 48  1  0  0  0  0
 16 49  1  0  0  0  0
 18 50  1  0  0  0  0
 19 51  1  0  0  0  0
 24 52  1  0  0  0  0
 25 53  1  0  0  0  0
 30 54  1  0  0  0  0
 31 55  1  0  0  0  0
 33 56  1  0  0  0  0
 35 57  1  0  0  0  0
 36 58  1  0  0  0  0
 38 59  1  0  0  0  0
 39 60  1  0  0  0  0
 62 63  4  0  0  0  0
 63 64  1  0  0  0  0
 64 65  2  0  0  0  0
 65 66  4  0  0  0  0
 61 67  1  0  0  0  0
 63 67  4  0  0  0  0
 66 67  4  0  0  0  0
 66 68  4  0  0  0  0
 68 69  1  0  0  0  0
 69 70  4  0  0  0  0
 70 71  4  0  0  0  0
 71 72  4  0  0  0  0
 72 73  1  0  0  0  0
 73 74  2  0  0  0  0
 72 75  4  0  0  0  0
 69 76  4  0  0  0  0
 75 76  4  0  0  0  0
 68 77  4  0  0  0  0
 77 78  4  0  0  0  0
 78 79  2  0  0  0  0
 61 80  1  0  0  0  0
 77 80  4  0  0  0  0
 79 81  4  0  0  0  0
 80 81  4  0  0  0  0
 81 82  4  0  0  0  0
 82 83  4  0  0  0  0
 83 84  4  0  0  0  0
 84 85  2  0  0  0  0
 85 86  4  0  0  0  0
 61 87  1  0  0  0  0
 83 87  4  0  0  0  0
 86 87  4  0  0  0  0
 86 88  4  0  0  0  0
 88 89  1  0  0  0  0
 89 90  4  0  0  0  0
 90 91  4  0  0  0  0
 91 92  4  0  0  0  0
 92 93  1  0  0  0  0
 93 94  2  0  0  0  0
 92 95  4  0  0  0  0
 89 96  4  0  0  0  0
 95 96  4  0  0  0  0
 88 97  4  0  0  0  0
 97 98  4  0  0  0  0
 98 99  2  0  0  0  0
 62100  4  0  0  0  0
 99100  1  0  0  0  0
 61101  1  0  0  0  0
 97101  4  0  0  0  0
100101  4  0  0  0  0
 62102  1  0  0  0  0
 64103  1  0  0  0  0
 65104  1  0  0  0  0
 70105  1  0  0  0  0
 71106  1  0  0  0  0
 73107  1  0  0  0  0
 75108  1  0  0  0  0
 76109  1  0  0  0  0
 78110  1  0  0  0  0
 79111  1  0  0  0  0
 84112  1  0  0  0  0
 85113  1  0  0  0  0
 90114  1  0  0  0  0
 91115  1  0  0  0  0
 93116  1  0  0  0  0
 95117  1  0  0  0  0
 96118  1  0  0  0  0
 98119  1  0  0  0  0
 99120  1  0  0  0  0
 22121  4  0  0  0  0
121122  3  0  0  0  0
122123  4  0  0  0  0
123124  3  0  0  0  0
124125  4  0  0  0  0
125126  3  0  0  0  0
126127  4  0  0  0  0
127128  3  0  0  0  0
129130  3  0  0  0  0
130131  4  0  0  0  0
131132  3  0  0  0  0
132133  4  0  0  0  0
133134  3  0  0  0  0
134135  4  0  0  0  0
135136  3  0  0  0  0
137138  3  0  0  0  0
138139  4  0  0  0  0
139140  3  0  0  0  0
140141  4  0  0  0  0
141142  3  0  0  0  0
142143  4  0  0  0  0
 82144  4  0  0  0  0
143144  3  0  0  0  0
128146  4  0  0  0  0
146147  4  0  0  0  0
147148  4  0  0  0  0
148149  2  0  0  0  0
149150  4  0  0  0  0
145151  1  0  0  0  0
147151  4  0  0  0  0
150151  4  0  0  0  0
150152  4  0  0  0  0
152153  1  0  0  0  0
153154  4  0  0  0  0
154155  4  0  0  0  0
155156  4  0  0  0  0
156157  1  0  0  0  0
157158  2  0  0  0  0
156159  4  0  0  0  0
153160  4  0  0  0  0
159160  4  0  0  0  0
152161  4  0  0  0  0
161162  4  0  0  0  0
162163  2  0  0  0  0
145164  1  0  0  0  0
161164  4  0  0  0  0
163165  4  0  0  0  0
164165  4  0  0  0  0
129166  4  0  0  0  0
165166  4  0  0  0  0
166167  4  0  0  0  0
167168  4  0  0  0  0
168169  2  0  0  0  0
169170  4  0  0  0  0
145171  1  0  0  0  0
167171  4  0  0  0  0
170171  4  0  0  0  0
170172  4  0  0  0  0
172173  1  0  0  0  0
173174  4  0  0  0  0
174175  4  0  0  0  0
175176  4  0  0  0  0
176177  1  0  0  0  0
177178  2  0  0  0  0
176179  4  0  0  0  0
173180  4  0  0  0  0
179180  4  0  0  0  0
172181  4  0  0  0  0
181182  4  0  0  0  0
182183  2  0  0  0  0
146184  4  0  0  0  0
183184  4  0  0  0  0
145185  1  0  0  0  0
181185  4  0  0  0  0
184185  4  0  0  0  0
148186  1  0  0  0  0
149187  1  0  0  0  0
154188  1  0  0  0  0
155189  1  0  0  0  0
157190  1  0  0  0  0
159191  1  0  0  0  0
160192  1  0  0  0  0
162193  1  0  0  0  0
163194  1  0  0  0  0
168195  1  0  0  0  0
169196  1  0  0  0  0
174197  1  0  0  0  0
175198  1  0  0  0  0
177199  1  0  0  0  0
179200  1  0  0  0  0
180201  1  0  0  0  0
182202  1  0  0  0  0
183203  1  0  0  0  0
136205  4  0  0  0  0
205206  4  0  0  0  0
206207  4  0  0  0  0
207208  2  0  0  0  0
208209  4  0  0  0  0
204210  1  0  0  0  0
206210  4  0  0  0  0
209210  4  0  0  0  0
209211  4  0  0  0  0
211212  1  0  0  0  0
212213  4  0  0  0  0
213214  4  0  0  0  0
214215  4  0  0  0  0
215216  1  0  0  0  0
216217  2  0  0  0  0
215218  4  0  0  0  0
212219  4  0  0  0  0
218219  4  0  0  0  0
211220  4  0  0  0  0
220221  4  0  0  0  0
221222  2  0  0  0  0
204223  1  0  0  0  0
220223  4  0  0  0  0
222224  4  0  0  0  0
223224  4  0  0  0  0
137225  4  0  0  0  0
224225  4  0  0  0  0
225226  4  0  0  0  0
226227  4  0  0  0  0
227228  2  0  0  0  0
228229  4  0  0  0  0
204230  1  0  0  0  0
226230  4  0  0  0  0
229230  4  0  0  0  0
229231  4  0  0  0  0
231232  1  0  0  0  0
232233  4  0  0  0  0
233234  4  0  0  0  0
234235  4  0  0  0  0
235236  1  0  0  0  0
236237  2  0  0  0  0
235238  4  0  0  0  0
232239  4  0  0  0  0
238239  4  0  0  0  0
231240  4  0  0  0  0
240241  4  0  0  0  0
241242  2  0  0  0  0
205243  4  0  0  0  0
242243  4  0  0  0  0
204244  1  0  0  0  0
240244  4  0  0  0  0
243244  4  0  0  0  0
207245  1  0  0  0  0
208246  1  0  0  0  0
213247  1  0  0  0  0
214248  1  0  0  0  0
216249  1  0  0  0  0
218250  1  0  0  0  0
219251  1  0  0  0  0
221252  1  0  0  0  0
222253  1  0  0  0  0
227254  1  0  0  0  0
228255  1  0  0  0  0
233256  1  0  0  0  0
234257  1  0  0  0  0
236258  1  0  0  0  0
238259  1  0  0  0  0
239260  1  0  0  0  0
241261  1  0  0  0  0
242262  1  0  0  0  0
M  END
