428

C 57.367022 -0.018373 -0.015647
C 58.094978 1.357235 0.080329
C 57.487223 2.591760 0.061879
C 58.509582 3.560792 0.234118
C 59.706793 2.883116 0.360064
N 59.447519 1.543796 0.210702
C 61.128350 3.519729 0.652039
C 61.165124 4.934245 1.084581
C 61.452498 5.946020 0.169926
C 61.464042 7.253504 0.623644
N 61.209989 7.618005 1.902529
C 60.935785 6.609494 2.763545
C 60.900370 5.271721 2.410270
C 62.259560 2.771249 0.553025
C 63.563900 3.308380 0.883733
C 64.466765 2.348983 0.717891
N 62.456416 1.467714 0.181830
C 63.788090 1.152415 0.260990
C 64.456013 -0.002405 -0.001722
C 63.676548 -1.280923 -0.525847
C 64.211100 -2.313953 -1.270513
C 63.185634 -3.271439 -1.471058
C 62.051429 -2.791210 -0.851744
N 62.345200 -1.554650 -0.327513
C 60.645524 -3.520031 -0.774391
C 60.621013 -4.990676 -0.918691
C 61.017632 -5.805755 0.139097
C 60.992344 -7.177265 -0.046819
N 60.608024 -7.783989 -1.194777
C 60.230088 -6.962014 -2.201703
C 60.221074 -5.580583 -2.116874
C 59.519115 -2.792556 -0.559078
C 58.199902 -3.392290 -0.460113
C 57.313474 -2.420998 -0.262558
C 58.032241 -1.171561 -0.214754
N 59.352315 -1.446847 -0.388956
H 56.290313 -0.032441 0.104314
H 56.428972 2.773634 -0.045943
H 58.380724 4.631435 0.286191
H 60.147774 0.806201 0.201931
H 61.664727 5.702991 -0.865653
H 61.686507 8.069578 -0.055954
H 60.736876 6.913428 3.786022
H 60.675872 4.499031 3.137628
H 63.777501 4.307008 1.220779
H 65.520383 2.464436 0.895577
H 65.229643 -2.380924 -1.621695
H 63.268175 -4.207606 -2.002443
H 61.665491 -0.923399 0.088687
H 61.334900 -5.367883 1.079359
H 61.292564 -7.845844 0.753375
H 59.922198 -7.459023 -3.115737
H 59.908447 -4.963290 -2.952330
H 57.971124 -4.440418 -0.529613
H 56.251413 -2.539843 -0.146610
C 182.416342 0.018167 -0.006788
C 181.688387 -1.248636 -0.551506
C 182.296141 -2.337616 -1.133327
C 181.273783 -3.277923 -1.424038
C 180.076572 -2.733186 -1.001699
N 180.335845 -1.474191 -0.521057
C 178.655014 -3.432829 -1.033720
C 178.618241 -4.888369 -1.297069
C 178.330866 -5.368868 -2.573549
C 178.319323 -6.738961 -2.769053
N 178.573375 -7.648720 -1.799132
C 178.847579 -7.146556 -0.571829
C 178.882995 -5.795542 -0.273165
C 177.523805 -2.722120 -0.778930
C 176.219465 -3.351068 -0.730957
C 175.316599 -2.422257 -0.438972
N 177.326949 -1.393334 -0.511877
C 175.995275 -1.149305 -0.297098
C 175.327352 -0.002405 -0.001722
C 176.106816 1.374185 0.117927
C 175.572265 2.633557 -0.070910
C 176.597731 3.576564 0.189350
C 177.731936 2.866015 0.519940
N 177.438164 1.526676 0.419604
C 179.137840 3.478472 0.922508
C 179.162351 4.851891 1.467797
C 178.765732 5.091982 2.781428
C 178.791021 6.396335 3.244318
N 179.175341 7.461453 2.501724
C 179.553276 7.191937 1.230148
C 179.562290 5.925063 0.672854
C 180.264249 2.733170 0.780722
C 181.583463 3.220976 1.143379
C 182.469891 2.267066 0.874138
C 181.751124 1.134485 0.344383
N 180.431050 1.458986 0.315609
H 183.493051 -0.024270 0.106295
H 183.354392 -2.449909 -1.312475
H 181.402641 -4.253519 -1.868108
H 179.635591 -0.814489 -0.191032
H 178.118637 -4.678526 -3.382818
H 178.096857 -7.153149 -3.746948
H 179.046489 -7.885038 0.197897
H 179.107493 -5.441794 0.727316
H 176.005864 -4.393167 -0.888717
H 174.262982 -2.606269 -0.333897
H 174.553722 2.853934 -0.352420
H 176.515189 4.652147 0.145746
H 178.117874 0.774904 0.500468
H 178.448464 4.272090 3.416725
H 178.490800 6.624174 4.261862
H 179.861166 8.052386 0.645252
H 179.874918 5.758965 -0.352548
H 181.812241 4.184540 1.561646
H 183.531951 2.319608 1.031641
C 67.620457 0.010106 0.007030
C 69.078683 -0.011731 -0.010843
C 70.212611 -0.032484 -0.012334
C 71.573993 -0.045074 -0.014525
C 72.848212 -0.034768 -0.019290
C 74.036674 -0.015970 -0.025447
C 75.389035 0.008815 -0.009579
C 76.489303 0.010106 0.007030
C 86.734051 0.010106 0.007030
C 88.192277 -0.011731 -0.010843
C 89.326205 -0.032484 -0.012334
C 90.687587 -0.045074 -0.014525
C 91.961806 -0.034768 -0.019290
C 93.150268 -0.015970 -0.025447
C 94.502629 0.008815 -0.009579
C 95.602896 0.010106 0.007030
C 105.847645 0.010106 0.007030
C 107.305871 -0.011731 -0.010843
C 108.439799 -0.032484 -0.012334
C 109.801181 -0.045074 -0.014525
C 111.075400 -0.034768 -0.019290
C 112.263862 -0.015970 -0.025447
C 113.616223 0.008815 -0.009579
C 114.716490 0.010106 0.007030
C 124.961239 0.010106 0.007030
C 126.419465 -0.011731 -0.010843
C 127.553393 -0.032484 -0.012334
C 128.914775 -0.045074 -0.014525
C 130.188994 -0.034768 -0.019290
C 131.377456 -0.015970 -0.025447
C 132.729817 0.008815 -0.009579
C 133.830084 0.010106 0.007030
C 144.074832 0.010106 0.007030
C 145.533059 -0.011731 -0.010843
C 146.666987 -0.032484 -0.012334
C 148.028368 -0.045074 -0.014525
C 149.302587 -0.034768 -0.019290
C 150.491050 -0.015970 -0.025447
C 151.843410 0.008815 -0.009579
C 152.943678 0.010106 0.007030
C 163.188426 0.010106 0.007030
C 164.646652 -0.011731 -0.010843
C 165.780580 -0.032484 -0.012334
C 167.141962 -0.045074 -0.014525
C 168.416181 -0.034768 -0.019290
C 169.604643 -0.015970 -0.025447
C 170.957004 0.008815 -0.009579
C 172.057272 0.010106 0.007030
C 78.084660 -0.000817 -0.000548
C 78.880441 -1.246316 0.570563
C 78.380047 -2.241674 1.383082
C 79.418248 -3.187517 1.583827
C 80.521732 -2.736814 0.890249
N 80.206506 -1.519249 0.342937
C 81.910303 -3.482316 0.744263
C 81.902947 -4.958991 0.822364
C 82.320599 -5.609879 1.982510
C 82.279305 -6.993278 2.008440
N 81.854792 -7.761561 0.977840
C 81.455410 -7.096647 -0.132081
C 81.458736 -5.717832 -0.257979
C 83.045888 -2.773021 0.515035
C 84.332904 -3.409107 0.321138
C 85.241488 -2.461271 0.117152
N 83.254105 -1.426917 0.403356
C 84.579255 -1.173909 0.170018
C 85.242968 -0.000817 -0.000548
C 84.445848 1.365662 0.068463
C 84.938849 2.589033 0.472056
C 83.901011 3.541058 0.302484
C 82.804939 2.866750 -0.192330
N 83.123345 1.533711 -0.258976
C 81.419756 3.503730 -0.612425
C 81.431517 4.897285 -1.105715
C 81.035583 5.946528 -0.278507
C 81.078532 7.233010 -0.786968
N 81.484502 7.543059 -2.040073
C 81.863386 6.499920 -2.815431
C 81.857321 5.179055 -2.401775
C 80.283077 2.762163 -0.556984
C 78.996912 3.280718 -0.975089
C 78.087646 2.326421 -0.808896
C 78.748772 1.151471 -0.278170
N 80.073373 1.473155 -0.154060
H 77.376641 -2.293934 1.772900
H 79.360948 -4.101055 2.153281
H 80.865398 -0.894353 -0.114496
H 82.670367 -5.037320 2.835181
H 82.596851 -7.536247 2.891861
H 81.118137 -7.722933 -0.951886
H 81.127710 -5.232721 -1.169411
H 84.530092 -4.466356 0.328498
H 86.286494 -2.639540 -0.059212
H 85.938536 2.781069 0.829698
H 83.953766 4.600646 0.501997
H 82.469330 0.784622 -0.466164
H 80.700779 5.748044 0.733756
H 80.776446 8.076751 -0.175503
H 82.185453 6.760275 -3.817894
H 82.171523 4.378006 -3.061931
H 78.800671 4.264544 -1.362786
H 77.042560 2.427179 -1.038156
C 97.198254 -0.000817 -0.000548
C 97.994035 -1.246316 0.570563
C 97.493640 -2.241674 1.383082
C 98.531842 -3.187517 1.583827
C 99.635326 -2.736814 0.890249
N 99.320100 -1.519249 0.342937
C 101.023897 -3.482316 0.744263
C 101.016541 -4.958991 0.822364
C 101.434193 -5.609879 1.982510
C 101.392898 -6.993278 2.008440
N 100.968386 -7.761561 0.977840
C 100.569004 -7.096647 -0.132081
C 100.572329 -5.717832 -0.257979
C 102.159482 -2.773021 0.515035
C 103.446498 -3.409107 0.321138
C 104.355082 -2.461271 0.117152
N 102.367699 -1.426917 0.403356
C 103.692849 -1.173909 0.170018
C 104.356562 -0.000817 -0.000548
C 103.559442 1.365662 0.068463
C 104.052443 2.589033 0.472056
C 103.014605 3.541058 0.302484
C 101.918533 2.866750 -0.192330
N 102.236938 1.533711 -0.258976
C 100.533349 3.503730 -0.612425
C 100.545111 4.897285 -1.105715
C 100.149177 5.946528 -0.278507
C 100.192126 7.233010 -0.786968
N 100.598096 7.543059 -2.040073
C 100.976980 6.499920 -2.815431
C 100.970914 5.179055 -2.401775
C 99.396671 2.762163 -0.556984
C 98.110505 3.280718 -0.975089
C 97.201240 2.326421 -0.808896
C 97.862366 1.151471 -0.278170
N 99.186967 1.473155 -0.154060
H 96.490235 -2.293934 1.772900
H 98.474542 -4.101055 2.153281
H 99.978992 -0.894353 -0.114496
H 101.783961 -5.037320 2.835181
H 101.710445 -7.536247 2.891861
H 100.231731 -7.722933 -0.951886
H 100.241304 -5.232721 -1.169411
H 103.643686 -4.466356 0.328498
H 105.400088 -2.639540 -0.059212
H 105.052129 2.781069 0.829698
H 103.067360 4.600646 0.501997
H 101.582923 0.784622 -0.466164
H 99.814372 5.748044 0.733756
H 99.890040 8.076751 -0.175503
H 101.299047 6.760275 -3.817894
H 101.285117 4.378006 -3.061931
H 97.914264 4.264544 -1.362786
H 96.156154 2.427179 -1.038156
C 116.311848 -0.000817 -0.000548
C 117.107629 -1.246316 0.570563
C 116.607234 -2.241674 1.383082
C 117.645436 -3.187517 1.583827
C 118.748919 -2.736814 0.890249
N 118.433694 -1.519249 0.342937
C 120.137491 -3.482316 0.744263
C 120.130135 -4.958991 0.822364
C 120.547786 -5.609879 1.982510
C 120.506492 -6.993278 2.008440
N 120.081979 -7.761561 0.977840
C 119.682598 -7.096647 -0.132081
C 119.685923 -5.717832 -0.257979
C 121.273076 -2.773021 0.515035
C 122.560092 -3.409107 0.321138
C 123.468676 -2.461271 0.117152
N 121.481292 -1.426917 0.403356
C 122.806443 -1.173909 0.170018
C 123.470155 -0.000817 -0.000548
C 122.673036 1.365662 0.068463
C 123.166036 2.589033 0.472056
C 122.128199 3.541058 0.302484
C 121.032127 2.866750 -0.192330
N 121.350532 1.533711 -0.258976
C 119.646943 3.503730 -0.612425
C 119.658704 4.897285 -1.105715
C 119.262771 5.946528 -0.278507
C 119.305720 7.233010 -0.786968
N 119.711690 7.543059 -2.040073
C 120.090574 6.499920 -2.815431
C 120.084508 5.179055 -2.401775
C 118.510265 2.762163 -0.556984
C 117.224099 3.280718 -0.975089
C 116.314834 2.326421 -0.808896
C 116.975960 1.151471 -0.278170
N 118.300561 1.473155 -0.154060
H 115.603829 -2.293934 1.772900
H 117.588136 -4.101055 2.153281
H 119.092586 -0.894353 -0.114496
H 120.897555 -5.037320 2.835181
H 120.824039 -7.536247 2.891861
H 119.345325 -7.722933 -0.951886
H 119.354898 -5.232721 -1.169411
H 122.757280 -4.466356 0.328498
H 124.513682 -2.639540 -0.059212
H 124.165723 2.781069 0.829698
H 122.180954 4.600646 0.501997
H 120.696517 0.784622 -0.466164
H 118.927966 5.748044 0.733756
H 119.003633 8.076751 -0.175503
H 120.412641 6.760275 -3.817894
H 120.398711 4.378006 -3.061931
H 117.027858 4.264544 -1.362786
H 115.269748 2.427179 -1.038156
C 135.425442 -0.000817 -0.000548
C 136.221223 -1.246316 0.570563
C 135.720828 -2.241674 1.383082
C 136.759029 -3.187517 1.583827
C 137.862513 -2.736814 0.890249
N 137.547287 -1.519249 0.342937
C 139.251084 -3.482316 0.744263
C 139.243729 -4.958991 0.822364
C 139.661380 -5.609879 1.982510
C 139.620086 -6.993278 2.008440
N 139.195573 -7.761561 0.977840
C 138.796191 -7.096647 -0.132081
C 138.799517 -5.717832 -0.257979
C 140.386670 -2.773021 0.515035
C 141.673686 -3.409107 0.321138
C 142.582270 -2.461271 0.117152
N 140.594886 -1.426917 0.403356
C 141.920037 -1.173909 0.170018
C 142.583749 -0.000817 -0.000548
C 141.786629 1.365662 0.068463
C 142.279630 2.589033 0.472056
C 141.241793 3.541058 0.302484
C 140.145720 2.866750 -0.192330
N 140.464126 1.533711 -0.258976
C 138.760537 3.503730 -0.612425
C 138.772298 4.897285 -1.105715
C 138.376365 5.946528 -0.278507
C 138.419313 7.233010 -0.786968
N 138.825284 7.543059 -2.040073
C 139.204167 6.499920 -2.815431
C 139.198102 5.179055 -2.401775
C 137.623859 2.762163 -0.556984
C 136.337693 3.280718 -0.975089
C 135.428427 2.326421 -0.808896
C 136.089554 1.151471 -0.278170
N 137.414154 1.473155 -0.154060
H 134.717422 -2.293934 1.772900
H 136.701729 -4.101055 2.153281
H 138.206180 -0.894353 -0.114496
H 140.011148 -5.037320 2.835181
H 139.937633 -7.536247 2.891861
H 138.458919 -7.722933 -0.951886
H 138.468492 -5.232721 -1.169411
H 141.870873 -4.466356 0.328498
H 143.627276 -2.639540 -0.059212
H 143.279317 2.781069 0.829698
H 141.294548 4.600646 0.501997
H 139.810111 0.784622 -0.466164
H 138.041560 5.748044 0.733756
H 138.117227 8.076751 -0.175503
H 139.526235 6.760275 -3.817894
H 139.512304 4.378006 -3.061931
H 136.141452 4.264544 -1.362786
H 134.383342 2.427179 -1.038156
C 154.539036 -0.000817 -0.000548
C 155.334816 -1.246316 0.570563
C 154.834422 -2.241674 1.383082
C 155.872623 -3.187517 1.583827
C 156.976107 -2.736814 0.890249
N 156.660881 -1.519249 0.342937
C 158.364678 -3.482316 0.744263
C 158.357322 -4.958991 0.822364
C 158.774974 -5.609879 1.982510
C 158.733680 -6.993278 2.008440
N 158.309167 -7.761561 0.977840
C 157.909785 -7.096647 -0.132081
C 157.913111 -5.717832 -0.257979
C 159.500263 -2.773021 0.515035
C 160.787279 -3.409107 0.321138
C 161.695863 -2.461271 0.117152
N 159.708480 -1.426917 0.403356
C 161.033630 -1.173909 0.170018
C 161.697343 -0.000817 -0.000548
C 160.900223 1.365662 0.068463
C 161.393224 2.589033 0.472056
C 160.355386 3.541058 0.302484
C 159.259314 2.866750 -0.192330
N 159.577720 1.533711 -0.258976
C 157.874131 3.503730 -0.612425
C 157.885892 4.897285 -1.105715
C 157.489958 5.946528 -0.278507
C 157.532907 7.233010 -0.786968
N 157.938878 7.543059 -2.040073
C 158.317761 6.499920 -2.815431
C 158.311696 5.179055 -2.401775
C 156.737453 2.762163 -0.556984
C 155.451287 3.280718 -0.975089
C 154.542021 2.326421 -0.808896
C 155.203148 1.151471 -0.278170
N 156.527748 1.473155 -0.154060
H 153.831016 -2.293934 1.772900
H 155.815323 -4.101055 2.153281
H 157.319774 -0.894353 -0.114496
H 159.124742 -5.037320 2.835181
H 159.051226 -7.536247 2.891861
H 157.572513 -7.722933 -0.951886
H 157.582086 -5.232721 -1.169411
H 160.984467 -4.466356 0.328498
H 162.740869 -2.639540 -0.059212
H 162.392911 2.781069 0.829698
H 160.408142 4.600646 0.501997
H 158.923705 0.784622 -0.466164
H 157.155154 5.748044 0.733756
H 157.230821 8.076751 -0.175503
H 158.639828 6.760275 -3.817894
H 158.625898 4.378006 -3.061931
H 155.255046 4.264544 -1.362786
H 153.496935 2.427179 -1.038156
