660

C 123.050989 1.194799 -0.177711
C 123.950591 1.584152 -1.386968
C 123.861563 2.736097 -2.143081
C 124.948758 2.712935 -3.056438
C 125.627339 1.525173 -2.856837
N 125.057236 0.880901 -1.784536
C 126.919442 1.001365 -3.620204
C 126.791387 0.677419 -5.069100
C 127.094231 -0.609850 -5.535779
C 126.860975 -0.985009 -6.862682
C 126.245805 -0.103461 -7.747933
N 125.899341 -0.490096 -9.066397
C 125.026864 -1.656311 -9.092841
C 125.982336 1.199970 -7.311011
C 126.254149 1.580034 -5.988492
C 128.023820 0.727770 -2.868818
C 129.299491 0.361206 -3.450021
C 130.156795 0.122005 -2.463412
N 128.196651 0.715717 -1.508834
C 129.465538 0.301927 -1.197490
C 130.057845 0.056034 -0.001840
C 129.231184 0.130362 1.365956
C 129.764401 0.026801 2.633193
C 128.688457 0.004467 3.556347
C 127.524573 0.074828 2.824161
N 127.861938 0.219411 1.495238
C 126.052171 -0.030970 3.428403
C 125.918029 -0.495745 4.828889
C 125.681459 0.420981 5.859682
C 125.567576 -0.013756 7.183956
C 125.717965 -1.368746 7.516998
N 125.546811 -1.870868 8.821116
C 125.733364 -0.958289 9.934889
C 125.937874 -2.274525 6.470489
C 126.053442 -1.844499 5.144376
C 124.974150 0.255308 2.656314
C 123.603207 0.116291 3.120066
C 122.785405 0.455358 2.125535
C 123.605264 0.815582 0.989160
N 124.905590 0.679991 1.361345
H 121.977297 1.233927 -0.292866
H 123.131469 3.523747 -2.021822
H 125.205969 3.486418 -3.768864
H 125.488432 0.137350 -1.250076
H 127.486090 -1.347496 -4.833426
H 127.140928 -1.984115 -7.173548
H 125.473166 0.299056 -9.544122
H 124.164066 -1.531790 -8.427352
H 124.643958 -1.798428 -10.105069
H 125.563620 -2.572036 -8.815705
H 125.499941 1.911528 -7.971181
H 126.028505 2.591352 -5.665577
H 129.524197 0.323916 -4.496084
H 131.184934 -0.159944 -2.602672
H 130.812049 -0.058848 2.877652
H 128.762197 -0.106450 4.626531
H 127.198937 0.339584 0.730515
H 125.584619 1.480130 5.614690
H 125.373964 0.738319 7.947831
H 126.057376 -2.741295 8.929875
H 124.923921 -0.221926 9.982023
H 126.704399 -0.448237 9.883056
H 125.707826 -1.529272 10.871718
H 126.016212 -3.338007 6.671809
H 126.229255 -2.558661 4.342824
H 123.297223 -0.224379 4.092033
H 121.711845 0.435051 2.148861
C 279.608951 1.202280 0.115790
C 278.709349 1.652732 1.303641
C 278.798377 2.841701 2.000087
C 277.711182 2.865099 2.913438
C 277.032601 1.668711 2.774606
N 277.602704 0.970648 1.736519
C 275.740498 1.184473 3.563667
C 275.868553 0.934760 5.027185
C 275.565709 -0.327063 5.558837
C 275.798965 -0.634136 6.903129
C 276.414135 0.291366 7.742321
N 276.760600 -0.027599 9.078769
C 277.633076 -1.190953 9.164591
C 276.677604 1.570846 7.239563
C 276.405791 1.883041 5.899400
C 274.636120 0.872954 2.827194
C 273.360449 0.536475 3.426318
C 272.503145 0.247323 2.453175
N 274.463289 0.791633 1.469590
C 273.194402 0.362519 1.179731
C 272.602095 0.056034 -0.001840
C 273.428756 0.060584 -1.371646
C 272.895539 -0.107401 -2.631962
C 273.971483 -0.176736 -3.552779
C 275.135367 -0.069165 -2.825128
N 274.798002 0.142931 -1.505297
C 276.607769 -0.205608 -3.423196
C 276.741911 -0.741126 -4.798186
C 276.978481 0.121896 -5.874342
C 277.092364 -0.379741 -7.174749
C 276.941975 -1.749938 -7.438330
N 277.113129 -2.317846 -8.715174
C 276.926576 -1.463192 -9.873991
C 276.722066 -2.601227 -6.347035
C 276.606498 -2.104201 -5.044551
C 277.685790 0.119631 -2.666693
C 279.056733 -0.042831 -3.122761
C 279.874535 0.346462 -2.146795
C 279.054676 0.764110 -1.030247
N 277.754350 0.609734 -1.395041
H 280.682643 1.247223 0.228802
H 279.528471 3.622151 1.838860
H 277.453971 3.673872 3.585534
H 277.171508 0.200835 1.240633
H 275.173850 -1.099532 4.894975
H 275.519012 -1.616108 7.264490
H 277.186774 0.784865 9.515671
H 278.495874 -1.100496 8.493622
H 278.015982 -1.281317 10.182745
H 277.096320 -2.119607 8.934466
H 277.159999 2.315112 7.862626
H 276.631435 2.876595 5.525383
H 273.135743 0.552524 4.472922
H 271.475006 -0.027166 2.606618
H 271.847891 -0.205392 -2.871739
H 273.897743 -0.342029 -4.615923
H 275.461003 0.301906 -0.747689
H 277.075321 1.192150 -5.683626
H 277.285976 0.332443 -7.975946
H 276.602564 -3.192683 -8.779448
H 277.736019 -0.730186 -9.958578
H 275.955541 -0.951161 -9.848210
H 276.952114 -2.081159 -10.780516
H 276.643728 -3.673584 -6.493915
H 276.430685 -2.776601 -4.207658
H 279.362717 -0.432575 -4.076111
H 280.948095 0.324993 -2.169057
C 132.323671 0.071235 0.008794
C 133.781897 0.049398 -0.009080
C 134.915825 0.028645 -0.010571
C 136.277207 0.016055 -0.012762
C 137.551426 0.026361 -0.017527
C 138.739888 0.045159 -0.023683
C 140.092249 0.069944 -0.007815
C 141.192516 0.071235 0.008794
C 150.754443 0.071235 0.008794
C 152.212669 0.049398 -0.009080
C 153.346597 0.028645 -0.010571
C 154.707979 0.016055 -0.012762
C 155.982198 0.026361 -0.017527
C 157.170660 0.045159 -0.023683
C 158.523021 0.069944 -0.007815
C 159.623288 0.071235 0.008794
C 169.185214 0.071235 0.008794
C 170.643440 0.049398 -0.009080
C 171.777369 0.028645 -0.010571
C 173.138750 0.016055 -0.012762
C 174.412969 0.026361 -0.017527
C 175.601432 0.045159 -0.023683
C 176.953792 0.069944 -0.007815
C 178.054060 0.071235 0.008794
C 187.615986 0.071235 0.008794
C 189.074212 0.049398 -0.009080
C 190.208140 0.028645 -0.010571
C 191.569522 0.016055 -0.012762
C 192.843741 0.026361 -0.017527
C 194.032203 0.045159 -0.023683
C 195.384564 0.069944 -0.007815
C 196.484831 0.071235 0.008794
C 206.046758 0.071235 0.008794
C 207.504984 0.049398 -0.009080
C 208.638912 0.028645 -0.010571
C 210.000294 0.016055 -0.012762
C 211.274512 0.026361 -0.017527
C 212.462975 0.045159 -0.023683
C 213.815336 0.069944 -0.007815
C 214.915603 0.071235 0.008794
C 224.477529 0.071235 0.008794
C 225.935755 0.049398 -0.009080
C 227.069683 0.028645 -0.010571
C 228.431065 0.016055 -0.012762
C 229.705284 0.026361 -0.017527
C 230.893746 0.045159 -0.023683
C 232.246107 0.069944 -0.007815
C 233.346375 0.071235 0.008794
C 242.908301 0.071235 0.008794
C 244.366527 0.049398 -0.009080
C 245.500455 0.028645 -0.010571
C 246.861837 0.016055 -0.012762
C 248.136056 0.026361 -0.017527
C 249.324518 0.045159 -0.023683
C 250.676879 0.069944 -0.007815
C 251.777146 0.071235 0.008794
C 261.339072 0.071235 0.008794
C 262.797299 0.049398 -0.009080
C 263.931227 0.028645 -0.010571
C 265.292609 0.016055 -0.012762
C 266.566827 0.026361 -0.017527
C 267.755290 0.045159 -0.023683
C 269.107651 0.069944 -0.007815
C 270.207918 0.071235 0.008794
C 142.489416 -0.026120 -0.000685
C 143.264586 0.021146 1.385942
C 142.683479 0.035514 2.638398
C 143.725569 0.073052 3.592303
C 144.919512 0.081424 2.901015
N 144.630440 0.050497 1.557310
C 146.359580 0.117115 3.563031
C 146.421155 0.185382 5.044313
C 146.486714 -0.982106 5.807349
C 146.517845 -0.909713 7.204293
C 146.451178 0.323033 7.873098
N 146.527058 0.326208 9.277382
C 146.046951 1.498540 9.984065
C 146.440728 1.487055 7.094156
C 146.409673 1.420996 5.695564
C 147.487291 0.088311 2.805260
C 148.801140 0.115377 3.414734
C 149.711104 0.071541 2.450870
N 147.682162 0.033131 1.450016
C 149.026848 0.020479 1.174011
C 149.710556 -0.026120 -0.000685
C 148.935700 -0.067219 -1.387755
C 149.516527 -0.066965 -2.640786
C 148.474516 -0.106059 -3.594921
C 147.280793 -0.127498 -2.903271
N 147.570178 -0.103318 -1.559252
C 145.841455 -0.169244 -3.563949
C 145.773383 -0.237506 -5.044748
C 145.723812 0.932124 -5.806849
C 145.650853 0.866743 -7.203844
C 145.594739 -0.365202 -7.867992
N 145.563752 -0.494374 -9.268604
C 145.022517 0.609505 -10.039323
C 145.702312 -1.530858 -7.092951
C 145.774771 -1.471798 -5.697108
C 144.713166 -0.141730 -2.806245
C 143.398975 -0.171966 -3.415441
C 142.488693 -0.128419 -2.451958
C 143.172915 -0.073883 -1.175364
N 144.517612 -0.084483 -1.451232
H 141.626213 0.017747 2.853398
H 143.615146 0.089731 4.666464
H 145.317801 0.040779 0.807491
H 146.521513 -1.944659 5.302426
H 146.590517 -1.836741 7.764735
H 146.145937 -0.540499 9.647266
H 145.015840 1.741399 9.706445
H 146.062914 1.298084 11.060389
H 146.692204 2.365378 9.809618
H 146.455068 2.471324 7.547645
H 146.384652 2.331652 5.101154
H 149.017521 0.161363 4.467432
H 150.772468 0.077945 2.618256
H 150.573578 -0.039740 -2.856014
H 148.585049 -0.115004 -4.669556
H 146.883158 -0.101196 -0.809154
H 145.743746 1.894469 -5.300279
H 145.634797 1.803879 -7.748031
H 145.151370 -1.388496 -9.522422
H 145.677067 1.485975 -10.000279
H 144.950711 0.309580 -11.089993
H 144.016911 0.881653 -9.701541
H 145.722608 -2.507325 -7.566947
H 145.833051 -2.383572 -5.107362
H 143.182397 -0.219741 -4.467830
H 141.427327 -0.136696 -2.618913
C 160.920188 -0.026120 -0.000685
C 161.695358 0.021146 1.385942
C 161.114251 0.035514 2.638398
C 162.156341 0.073052 3.592303
C 163.350283 0.081424 2.901015
N 163.061211 0.050497 1.557310
C 164.790352 0.117115 3.563031
C 164.851927 0.185382 5.044313
C 164.917486 -0.982106 5.807349
C 164.948617 -0.909713 7.204293
C 164.881950 0.323033 7.873098
N 164.957830 0.326208 9.277382
C 164.477722 1.498540 9.984065
C 164.871499 1.487055 7.094156
C 164.840444 1.420996 5.695564
C 165.918063 0.088311 2.805260
C 167.231911 0.115377 3.414734
C 168.141875 0.071541 2.450870
N 166.112934 0.033131 1.450016
C 167.457620 0.020479 1.174011
C 168.141327 -0.026120 -0.000685
C 167.366472 -0.067219 -1.387755
C 167.947299 -0.066965 -2.640786
C 166.905288 -0.106059 -3.594921
C 165.711565 -0.127498 -2.903271
N 166.000949 -0.103318 -1.559252
C 164.272227 -0.169244 -3.563949
C 164.204154 -0.237506 -5.044748
C 164.154584 0.932124 -5.806849
C 164.081624 0.866743 -7.203844
C 164.025510 -0.365202 -7.867992
N 163.994524 -0.494374 -9.268604
C 163.453289 0.609505 -10.039323
C 164.133084 -1.530858 -7.092951
C 164.205543 -1.471798 -5.697108
C 163.143938 -0.141730 -2.806245
C 161.829747 -0.171966 -3.415441
C 160.919465 -0.128419 -2.451958
C 161.603687 -0.073883 -1.175364
N 162.948384 -0.084483 -1.451232
H 160.056985 0.017747 2.853398
H 162.045918 0.089731 4.666464
H 163.748573 0.040779 0.807491
H 164.952285 -1.944659 5.302426
H 165.021289 -1.836741 7.764735
H 164.576709 -0.540499 9.647266
H 163.446611 1.741399 9.706445
H 164.493686 1.298084 11.060389
H 165.122976 2.365378 9.809618
H 164.885840 2.471324 7.547645
H 164.815424 2.331652 5.101154
H 167.448293 0.161363 4.467432
H 169.203240 0.077945 2.618256
H 169.004350 -0.039740 -2.856014
H 167.015820 -0.115004 -4.669556
H 165.313929 -0.101196 -0.809154
H 164.174518 1.894469 -5.300279
H 164.065568 1.803879 -7.748031
H 163.582141 -1.388496 -9.522422
H 164.107839 1.485975 -10.000279
H 163.381482 0.309580 -11.089993
H 162.447683 0.881653 -9.701541
H 164.153380 -2.507325 -7.566947
H 164.263823 -2.383572 -5.107362
H 161.613168 -0.219741 -4.467830
H 159.858099 -0.136696 -2.618913
C 179.350960 -0.026120 -0.000685
C 180.126130 0.021146 1.385942
C 179.545022 0.035514 2.638398
C 180.587112 0.073052 3.592303
C 181.781055 0.081424 2.901015
N 181.491983 0.050497 1.557310
C 183.221123 0.117115 3.563031
C 183.282698 0.185382 5.044313
C 183.348257 -0.982106 5.807349
C 183.379389 -0.909713 7.204293
C 183.312721 0.323033 7.873098
N 183.388602 0.326208 9.277382
C 182.908494 1.498540 9.984065
C 183.302271 1.487055 7.094156
C 183.271216 1.420996 5.695564
C 184.348835 0.088311 2.805260
C 185.662683 0.115377 3.414734
C 186.572647 0.071541 2.450870
N 184.543705 0.033131 1.450016
C 185.888392 0.020479 1.174011
C 186.572099 -0.026120 -0.000685
C 185.797244 -0.067219 -1.387755
C 186.378071 -0.066965 -2.640786
C 185.336060 -0.106059 -3.594921
C 184.142337 -0.127498 -2.903271
N 184.431721 -0.103318 -1.559252
C 182.702998 -0.169244 -3.563949
C 182.634926 -0.237506 -5.044748
C 182.585355 0.932124 -5.806849
C 182.512396 0.866743 -7.203844
C 182.456282 -0.365202 -7.867992
N 182.425295 -0.494374 -9.268604
C 181.884061 0.609505 -10.039323
C 182.563856 -1.530858 -7.092951
C 182.636314 -1.471798 -5.697108
C 181.574709 -0.141730 -2.806245
C 180.260519 -0.171966 -3.415441
C 179.350236 -0.128419 -2.451958
C 180.034459 -0.073883 -1.175364
N 181.379155 -0.084483 -1.451232
H 178.487756 0.017747 2.853398
H 180.476689 0.089731 4.666464
H 182.179344 0.040779 0.807491
H 183.383056 -1.944659 5.302426
H 183.452060 -1.836741 7.764735
H 183.007481 -0.540499 9.647266
H 181.877383 1.741399 9.706445
H 182.924457 1.298084 11.060389
H 183.553747 2.365378 9.809618
H 183.316611 2.471324 7.547645
H 183.246195 2.331652 5.101154
H 185.879065 0.161363 4.467432
H 187.634011 0.077945 2.618256
H 187.435121 -0.039740 -2.856014
H 185.446592 -0.115004 -4.669556
H 183.744701 -0.101196 -0.809154
H 182.605289 1.894469 -5.300279
H 182.496340 1.803879 -7.748031
H 182.012913 -1.388496 -9.522422
H 182.538611 1.485975 -10.000279
H 181.812254 0.309580 -11.089993
H 180.878455 0.881653 -9.701541
H 182.584152 -2.507325 -7.566947
H 182.694595 -2.383572 -5.107362
H 180.043940 -0.219741 -4.467830
H 178.288870 -0.136696 -2.618913
C 197.781731 -0.026120 -0.000685
C 198.556901 0.021146 1.385942
C 197.975794 0.035514 2.638398
C 199.017884 0.073052 3.592303
C 200.211827 0.081424 2.901015
N 199.922755 0.050497 1.557310
C 201.651895 0.117115 3.563031
C 201.713470 0.185382 5.044313
C 201.779029 -0.982106 5.807349
C 201.810160 -0.909713 7.204293
C 201.743493 0.323033 7.873098
N 201.819373 0.326208 9.277382
C 201.339266 1.498540 9.984065
C 201.733042 1.487055 7.094156
C 201.701988 1.420996 5.695564
C 202.779606 0.088311 2.805260
C 204.093455 0.115377 3.414734
C 205.003419 0.071541 2.450870
N 202.974477 0.033131 1.450016
C 204.319163 0.020479 1.174011
C 205.002871 -0.026120 -0.000685
C 204.228015 -0.067219 -1.387755
C 204.808842 -0.066965 -2.640786
C 203.766831 -0.106059 -3.594921
C 202.573108 -0.127498 -2.903271
N 202.862493 -0.103318 -1.559252
C 201.133770 -0.169244 -3.563949
C 201.065698 -0.237506 -5.044748
C 201.016127 0.932124 -5.806849
C 200.943168 0.866743 -7.203844
C 200.887053 -0.365202 -7.867992
N 200.856067 -0.494374 -9.268604
C 200.314832 0.609505 -10.039323
C 200.994627 -1.530858 -7.092951
C 201.067086 -1.471798 -5.697108
C 200.005481 -0.141730 -2.806245
C 198.691290 -0.171966 -3.415441
C 197.781008 -0.128419 -2.451958
C 198.465230 -0.073883 -1.175364
N 199.809927 -0.084483 -1.451232
H 196.918528 0.017747 2.853398
H 198.907461 0.089731 4.666464
H 200.610116 0.040779 0.807491
H 201.813828 -1.944659 5.302426
H 201.882832 -1.836741 7.764735
H 201.438252 -0.540499 9.647266
H 200.308154 1.741399 9.706445
H 201.355229 1.298084 11.060389
H 201.984519 2.365378 9.809618
H 201.747383 2.471324 7.547645
H 201.676967 2.331652 5.101154
H 204.309836 0.161363 4.467432
H 206.064783 0.077945 2.618256
H 205.865893 -0.039740 -2.856014
H 203.877363 -0.115004 -4.669556
H 202.175473 -0.101196 -0.809154
H 201.036061 1.894469 -5.300279
H 200.927112 1.803879 -7.748031
H 200.443685 -1.388496 -9.522422
H 200.969382 1.485975 -10.000279
H 200.243026 0.309580 -11.089993
H 199.309226 0.881653 -9.701541
H 201.014923 -2.507325 -7.566947
H 201.125366 -2.383572 -5.107362
H 198.474712 -0.219741 -4.467830
H 196.719642 -0.136696 -2.618913
C 216.212503 -0.026120 -0.000685
C 216.987673 0.021146 1.385942
C 216.406566 0.035514 2.638398
C 217.448656 0.073052 3.592303
C 218.642598 0.081424 2.901015
N 218.353526 0.050497 1.557310
C 220.082666 0.117115 3.563031
C 220.144242 0.185382 5.044313
C 220.209801 -0.982106 5.807349
C 220.240932 -0.909713 7.204293
C 220.174264 0.323033 7.873098
N 220.250145 0.326208 9.277382
C 219.770037 1.498540 9.984065
C 220.163814 1.487055 7.094156
C 220.132759 1.420996 5.695564
C 221.210378 0.088311 2.805260
C 222.524226 0.115377 3.414734
C 223.434190 0.071541 2.450870
N 221.405249 0.033131 1.450016
C 222.749935 0.020479 1.174011
C 223.433642 -0.026120 -0.000685
C 222.658787 -0.067219 -1.387755
C 223.239614 -0.066965 -2.640786
C 222.197603 -0.106059 -3.594921
C 221.003880 -0.127498 -2.903271
N 221.293264 -0.103318 -1.559252
C 219.564542 -0.169244 -3.563949
C 219.496469 -0.237506 -5.044748
C 219.446899 0.932124 -5.806849
C 219.373939 0.866743 -7.203844
C 219.317825 -0.365202 -7.867992
N 219.286839 -0.494374 -9.268604
C 218.745604 0.609505 -10.039323
C 219.425399 -1.530858 -7.092951
C 219.497858 -1.471798 -5.697108
C 218.436253 -0.141730 -2.806245
C 217.122062 -0.171966 -3.415441
C 216.211780 -0.128419 -2.451958
C 216.896002 -0.073883 -1.175364
N 218.240699 -0.084483 -1.451232
H 215.349300 0.017747 2.853398
H 217.338233 0.089731 4.666464
H 219.040888 0.040779 0.807491
H 220.244600 -1.944659 5.302426
H 220.313603 -1.836741 7.764735
H 219.869024 -0.540499 9.647266
H 218.738926 1.741399 9.706445
H 219.786000 1.298084 11.060389
H 220.415291 2.365378 9.809618
H 220.178155 2.471324 7.547645
H 220.107739 2.331652 5.101154
H 222.740608 0.161363 4.467432
H 224.495554 0.077945 2.618256
H 224.296664 -0.039740 -2.856014
H 222.308135 -0.115004 -4.669556
H 220.606244 -0.101196 -0.809154
H 219.466833 1.894469 -5.300279
H 219.357883 1.803879 -7.748031
H 218.874456 -1.388496 -9.522422
H 219.400154 1.485975 -10.000279
H 218.673797 0.309580 -11.089993
H 217.739998 0.881653 -9.701541
H 219.445695 -2.507325 -7.566947
H 219.556138 -2.383572 -5.107362
H 216.905483 -0.219741 -4.467830
H 215.150414 -0.136696 -2.618913
C 234.643274 -0.026120 -0.000685
C 235.418445 0.021146 1.385942
C 234.837337 0.035514 2.638398
C 235.879427 0.073052 3.592303
C 237.073370 0.081424 2.901015
N 236.784298 0.050497 1.557310
C 238.513438 0.117115 3.563031
C 238.575013 0.185382 5.044313
C 238.640572 -0.982106 5.807349
C 238.671703 -0.909713 7.204293
C 238.605036 0.323033 7.873098
N 238.680917 0.326208 9.277382
C 238.200809 1.498540 9.984065
C 238.594586 1.487055 7.094156
C 238.563531 1.420996 5.695564
C 239.641150 0.088311 2.805260
C 240.954998 0.115377 3.414734
C 241.864962 0.071541 2.450870
N 239.836020 0.033131 1.450016
C 241.180706 0.020479 1.174011
C 241.864414 -0.026120 -0.000685
C 241.089559 -0.067219 -1.387755
C 241.670386 -0.066965 -2.640786
C 240.628375 -0.106059 -3.594921
C 239.434652 -0.127498 -2.903271
N 239.724036 -0.103318 -1.559252
C 237.995313 -0.169244 -3.563949
C 237.927241 -0.237506 -5.044748
C 237.877670 0.932124 -5.806849
C 237.804711 0.866743 -7.203844
C 237.748597 -0.365202 -7.867992
N 237.717610 -0.494374 -9.268604
C 237.176376 0.609505 -10.039323
C 237.856171 -1.530858 -7.092951
C 237.928629 -1.471798 -5.697108
C 236.867024 -0.141730 -2.806245
C 235.552834 -0.171966 -3.415441
C 234.642551 -0.128419 -2.451958
C 235.326774 -0.073883 -1.175364
N 236.671470 -0.084483 -1.451232
H 233.780071 0.017747 2.853398
H 235.769004 0.089731 4.666464
H 237.471659 0.040779 0.807491
H 238.675371 -1.944659 5.302426
H 238.744375 -1.836741 7.764735
H 238.299795 -0.540499 9.647266
H 237.169698 1.741399 9.706445
H 238.216772 1.298084 11.060389
H 238.846062 2.365378 9.809618
H 238.608926 2.471324 7.547645
H 238.538510 2.331652 5.101154
H 241.171379 0.161363 4.467432
H 242.926326 0.077945 2.618256
H 242.727436 -0.039740 -2.856014
H 240.738907 -0.115004 -4.669556
H 239.037016 -0.101196 -0.809154
H 237.897604 1.894469 -5.300279
H 237.788655 1.803879 -7.748031
H 237.305228 -1.388496 -9.522422
H 237.830925 1.485975 -10.000279
H 237.104569 0.309580 -11.089993
H 236.170770 0.881653 -9.701541
H 237.876467 -2.507325 -7.566947
H 237.986909 -2.383572 -5.107362
H 235.336255 -0.219741 -4.467830
H 233.581185 -0.136696 -2.618913
C 253.074046 -0.026120 -0.000685
C 253.849216 0.021146 1.385942
C 253.268109 0.035514 2.638398
C 254.310199 0.073052 3.592303
C 255.504142 0.081424 2.901015
N 255.215069 0.050497 1.557310
C 256.944210 0.117115 3.563031
C 257.005785 0.185382 5.044313
C 257.071344 -0.982106 5.807349
C 257.102475 -0.909713 7.204293
C 257.035808 0.323033 7.873098
N 257.111688 0.326208 9.277382
C 256.631581 1.498540 9.984065
C 257.025357 1.487055 7.094156
C 256.994303 1.420996 5.695564
C 258.071921 0.088311 2.805260
C 259.385770 0.115377 3.414734
C 260.295734 0.071541 2.450870
N 258.266792 0.033131 1.450016
C 259.611478 0.020479 1.174011
C 260.295186 -0.026120 -0.000685
C 259.520330 -0.067219 -1.387755
C 260.101157 -0.066965 -2.640786
C 259.059146 -0.106059 -3.594921
C 257.865423 -0.127498 -2.903271
N 258.154808 -0.103318 -1.559252
C 256.426085 -0.169244 -3.563949
C 256.358012 -0.237506 -5.044748
C 256.308442 0.932124 -5.806849
C 256.235482 0.866743 -7.203844
C 256.179368 -0.365202 -7.867992
N 256.148382 -0.494374 -9.268604
C 255.607147 0.609505 -10.039323
C 256.286942 -1.530858 -7.092951
C 256.359401 -1.471798 -5.697108
C 255.297796 -0.141730 -2.806245
C 253.983605 -0.171966 -3.415441
C 253.073323 -0.128419 -2.451958
C 253.757545 -0.073883 -1.175364
N 255.102242 -0.084483 -1.451232
H 252.210843 0.017747 2.853398
H 254.199776 0.089731 4.666464
H 255.902431 0.040779 0.807491
H 257.106143 -1.944659 5.302426
H 257.175147 -1.836741 7.764735
H 256.730567 -0.540499 9.647266
H 255.600469 1.741399 9.706445
H 256.647544 1.298084 11.060389
H 257.276834 2.365378 9.809618
H 257.039698 2.471324 7.547645
H 256.969282 2.331652 5.101154
H 259.602151 0.161363 4.467432
H 261.357098 0.077945 2.618256
H 261.158208 -0.039740 -2.856014
H 259.169678 -0.115004 -4.669556
H 257.467787 -0.101196 -0.809154
H 256.328376 1.894469 -5.300279
H 256.219427 1.803879 -7.748031
H 255.736000 -1.388496 -9.522422
H 256.261697 1.485975 -10.000279
H 255.535341 0.309580 -11.089993
H 254.601541 0.881653 -9.701541
H 256.307238 -2.507325 -7.566947
H 256.417681 -2.383572 -5.107362
H 253.767027 -0.219741 -4.467830
H 252.011957 -0.136696 -2.618913
