676

C 147.087302 0.038116 0.103007
C 147.817700 -1.339476 0.073792
C 147.212413 -2.572081 0.164086
C 148.235379 -3.547861 0.040581
C 149.431203 -2.876311 -0.125696
N 149.170260 -1.530786 -0.050493
C 150.853267 -3.526214 -0.385500
C 151.982278 -2.769150 -0.337115
C 153.286225 -3.320850 -0.643488
C 154.186385 -2.350007 -0.543567
N 152.177025 -1.445141 -0.044795
C 153.506954 -1.130787 -0.151787
C 154.173225 0.038910 0.040039
C 153.395900 1.343269 0.501461
C 153.938034 2.417652 1.178834
C 152.912448 3.381966 1.342280
C 151.769740 2.864691 0.770884
C 150.358430 3.581592 0.681707
C 150.321817 5.056274 0.787721
C 150.631577 5.850304 -0.322314
C 150.605124 7.243570 -0.221196
C 150.269760 7.851663 0.995509
C 150.251890 9.332808 1.059952
O 149.924573 9.803764 2.278463
O 150.497269 10.101120 0.147221
C 149.961731 7.059870 2.109481
C 149.989389 5.667427 2.003145
C 149.234048 2.840612 0.503807
C 147.910989 3.430379 0.400625
C 147.027055 2.448796 0.246984
C 147.750671 1.201413 0.240078
N 149.071676 1.488811 0.384399
N 152.060878 1.603001 0.307979
C 150.891393 -4.965518 -0.733034
C 150.624589 -5.379110 -2.043413
C 150.643091 -6.736753 -2.373021
C 150.932280 -7.690869 -1.388391
C 150.963645 -9.142250 -1.689355
O 150.697003 -9.420134 -2.979309
O 151.198299 -10.040183 -0.900168
C 151.201064 -7.280172 -0.076350
C 151.177566 -5.921818 0.248505
H 146.009259 0.043389 -0.003407
H 146.155026 -2.749051 0.286720
H 148.108786 -4.620226 0.046689
H 149.869839 -0.793404 -0.086476
H 153.499949 -4.337543 -0.920426
H 155.238970 -2.472564 -0.722635
H 154.961335 2.506659 1.510154
H 152.999912 4.345659 1.820175
H 150.889243 5.368587 -1.263414
H 150.845539 7.843885 -1.094811
H 149.955357 10.773622 2.157731
H 149.696920 7.507987 3.062135
H 149.748881 5.041392 2.860349
H 147.679232 4.479052 0.439272
H 145.963169 2.558404 0.140999
H 151.376909 0.949465 -0.064306
H 150.404387 -4.628741 -2.799857
H 150.431100 -7.030676 -3.396746
H 150.756189 -10.395864 -3.013484
H 151.430341 -8.007625 0.698241
H 151.384250 -5.591603 1.263990
C 294.958902 0.011387 0.096679
C 294.228504 1.255851 0.688223
C 294.833790 2.317134 1.321583
C 293.810825 3.244713 1.648688
C 292.615001 2.718999 1.198966
N 292.875944 1.482579 0.662906
C 291.192937 3.416401 1.258129
C 290.063926 2.718004 0.961941
C 288.759978 3.348508 0.935449
C 287.859819 2.435916 0.589476
N 289.869178 1.403470 0.629599
C 288.539249 1.170454 0.393020
C 287.872979 0.038910 0.040039
C 288.650304 -1.333878 -0.132340
C 288.108170 -2.597926 -0.008578
C 289.133755 -3.533163 -0.294842
C 290.276464 -2.814604 -0.573660
C 291.687774 -3.415426 -0.974801
C 291.724387 -4.781106 -1.541229
C 291.414627 -4.993157 -2.889448
C 291.441080 -6.283869 -3.423749
C 291.776444 -7.372937 -2.608838
C 291.794313 -8.725757 -3.215322
O 292.121630 -9.693054 -2.337310
O 291.548935 -9.003283 -4.375650
C 292.084473 -7.164651 -1.258103
C 292.056815 -5.872335 -0.728836
C 292.812156 -2.673334 -0.801592
C 294.135215 -3.154237 -1.158250
C 295.019149 -2.207959 -0.855479
C 294.295533 -1.089886 -0.302375
N 292.974528 -1.411485 -0.302232
N 289.985325 -1.479291 -0.421738
C 291.154811 4.858748 1.592811
C 291.421615 5.815960 0.606964
C 291.403112 7.177277 0.921055
C 291.113924 7.588648 2.228957
C 291.082559 9.020910 2.610681
O 291.349201 9.847661 1.582245
O 290.847905 9.469689 3.718695
C 290.845140 6.633278 3.217589
C 290.868638 5.273457 2.898930
H 296.036945 0.054386 -0.000803
H 295.891178 2.420335 1.510546
H 293.937417 4.200511 2.134953
H 292.176365 0.839600 0.300129
H 288.546255 4.381450 1.143752
H 286.807234 2.625752 0.484365
H 287.084869 -2.826035 0.247665
H 289.046292 -4.608833 -0.299755
H 291.156961 -4.140621 -3.514671
H 291.200665 -6.428768 -4.473789
H 292.090847 -10.505833 -2.880073
H 292.349283 -7.992334 -0.607487
H 292.297323 -5.697088 0.318068
H 294.366972 -4.108924 -1.593888
H 296.083034 -2.258413 -0.999358
H 290.669295 -0.728208 -0.461487
H 291.641817 5.484400 -0.405622
H 291.615104 7.898998 0.137779
H 291.290015 10.735142 1.989175
H 290.615863 6.936218 4.236121
H 290.661953 4.522990 3.658569
C 159.976408 0.040222 0.048471
C 158.767468 0.026767 0.040024
C 157.345939 0.035586 0.028041
C 156.134270 0.043025 0.038904
C 161.393012 0.033547 0.049004
C 162.613708 0.043025 0.038904
C 175.389061 0.040222 0.048471
C 174.180122 0.026767 0.040024
C 172.758593 0.035586 0.028041
C 171.546923 0.043025 0.038904
C 176.805666 0.033547 0.049004
C 178.026361 0.043025 0.038904
C 190.801715 0.040222 0.048471
C 189.592776 0.026767 0.040024
C 188.171247 0.035586 0.028041
C 186.959577 0.043025 0.038904
C 192.218319 0.033547 0.049004
C 193.439015 0.043025 0.038904
C 206.214368 0.040222 0.048471
C 205.005429 0.026767 0.040024
C 203.583900 0.035586 0.028041
C 202.372231 0.043025 0.038904
C 207.630973 0.033547 0.049004
C 208.851669 0.043025 0.038904
C 221.627022 0.040222 0.048471
C 220.418083 0.026767 0.040024
C 218.996554 0.035586 0.028041
C 217.784884 0.043025 0.038904
C 223.043626 0.033547 0.049004
C 224.264322 0.043025 0.038904
C 237.039676 0.040222 0.048471
C 235.830736 0.026767 0.040024
C 234.409207 0.035586 0.028041
C 233.197538 0.043025 0.038904
C 238.456280 0.033547 0.049004
C 239.676976 0.043025 0.038904
C 252.452329 0.040222 0.048471
C 251.243390 0.026767 0.040024
C 249.821861 0.035586 0.028041
C 248.610191 0.043025 0.038904
C 253.868934 0.033547 0.049004
C 255.089629 0.043025 0.038904
C 267.864983 0.040222 0.048471
C 266.656044 0.026767 0.040024
C 265.234515 0.035586 0.028041
C 264.022845 0.043025 0.038904
C 269.281587 0.033547 0.049004
C 270.502283 0.043025 0.038904
C 283.277636 0.040222 0.048471
C 282.068697 0.026767 0.040024
C 280.647168 0.035586 0.028041
C 279.435499 0.043025 0.038904
C 284.694241 0.033547 0.049004
C 285.914937 0.043025 0.038904
C 163.489945 -0.014569 -0.014407
C 164.284326 0.778438 -1.132511
C 163.780023 1.241635 -2.330691
C 164.817590 1.961634 -2.976542
C 165.924601 1.909540 -2.155608
N 165.612043 1.124269 -1.074352
C 167.313141 2.628486 -2.402541
C 168.448636 2.127302 -1.849476
C 169.735248 2.776232 -1.997166
C 170.643645 2.058288 -1.345462
N 168.657183 1.016046 -1.081004
C 169.981879 0.915217 -0.749699
C 170.646074 -0.014569 -0.014407
C 169.851397 -1.234650 0.609911
C 170.354199 -2.488248 0.893298
C 169.316219 -3.230546 1.512785
C 168.210770 -2.408897 1.582190
C 166.823157 -2.754923 2.260605
C 166.835668 -3.715810 3.386754
C 166.397299 -5.033401 3.203149
C 166.423944 -5.940087 4.265530
C 166.893836 -5.534070 5.521166
C 166.905912 -6.527661 6.621568
O 167.370081 -6.025452 7.781711
O 166.548084 -7.690148 6.550745
C 167.336678 -4.218219 5.707728
C 167.307730 -3.314916 4.642156
C 165.687141 -2.138111 1.842044
C 164.401238 -2.374597 2.465426
C 163.492682 -1.627671 1.847384
C 164.153881 -0.876775 0.799275
N 165.477906 -1.221923 0.849176
N 168.524104 -1.225551 0.961934
C 167.304748 3.870948 -3.207570
C 166.834737 5.066098 -2.650876
C 166.811839 6.237404 -3.412240
C 167.257877 6.219333 -4.740028
C 167.217055 7.484176 -5.512591
O 167.665017 7.346221 -6.775278
O 166.830828 8.567100 -5.109775
C 167.725706 5.024503 -5.302095
C 167.746170 3.855846 -4.536977
H 162.772832 1.098247 -2.691517
H 164.757490 2.476680 -3.923389
H 166.271443 0.811783 -0.367527
H 169.931344 3.688411 -2.531478
H 171.688161 2.302605 -1.279699
H 171.360505 -2.826062 0.697322
H 169.374836 -4.242455 1.884344
H 166.032153 -5.338278 2.224208
H 166.076384 -6.957034 4.104953
H 167.314500 -6.786519 8.393271
H 167.706196 -3.880342 6.671098
H 167.650475 -2.290739 4.777366
H 164.205423 -3.032368 3.293070
H 162.448437 -1.596417 2.099627
H 167.865364 -0.480232 0.755523
H 166.489140 5.071218 -1.618875
H 166.445021 7.155876 -2.961898
H 167.576473 8.248504 -7.142117
H 168.077119 4.985741 -6.328560
H 168.109313 2.922227 -4.962810
C 178.902599 -0.014569 -0.014407
C 179.696979 0.778438 -1.132511
C 179.192676 1.241635 -2.330691
C 180.230244 1.961634 -2.976542
C 181.337254 1.909540 -2.155608
N 181.024696 1.124269 -1.074352
C 182.725795 2.628486 -2.402541
C 183.861289 2.127302 -1.849476
C 185.147902 2.776232 -1.997166
C 186.056299 2.058288 -1.345462
N 184.069837 1.016046 -1.081004
C 185.394533 0.915217 -0.749699
C 186.058727 -0.014569 -0.014407
C 185.264050 -1.234650 0.609911
C 185.766852 -2.488248 0.893298
C 184.728872 -3.230546 1.512785
C 183.623424 -2.408897 1.582190
C 182.235810 -2.754923 2.260605
C 182.248321 -3.715810 3.386754
C 181.809953 -5.033401 3.203149
C 181.836597 -5.940087 4.265530
C 182.306490 -5.534070 5.521166
C 182.318566 -6.527661 6.621568
O 182.782735 -6.025452 7.781711
O 181.960737 -7.690148 6.550745
C 182.749331 -4.218219 5.707728
C 182.720383 -3.314916 4.642156
C 181.099795 -2.138111 1.842044
C 179.813891 -2.374597 2.465426
C 178.905336 -1.627671 1.847384
C 179.566535 -0.876775 0.799275
N 180.890560 -1.221923 0.849176
N 183.936758 -1.225551 0.961934
C 182.717402 3.870948 -3.207570
C 182.247391 5.066098 -2.650876
C 182.224493 6.237404 -3.412240
C 182.670531 6.219333 -4.740028
C 182.629709 7.484176 -5.512591
O 183.077670 7.346221 -6.775278
O 182.243482 8.567100 -5.109775
C 183.138360 5.024503 -5.302095
C 183.158824 3.855846 -4.536977
H 178.185485 1.098247 -2.691517
H 180.170144 2.476680 -3.923389
H 181.684097 0.811783 -0.367527
H 185.343997 3.688411 -2.531478
H 187.100815 2.302605 -1.279699
H 186.773158 -2.826062 0.697322
H 184.787489 -4.242455 1.884344
H 181.444806 -5.338278 2.224208
H 181.489038 -6.957034 4.104953
H 182.727154 -6.786519 8.393271
H 183.118850 -3.880342 6.671098
H 183.063129 -2.290739 4.777366
H 179.618077 -3.032368 3.293070
H 177.861091 -1.596417 2.099627
H 183.278018 -0.480232 0.755523
H 181.901793 5.071218 -1.618875
H 181.857675 7.155876 -2.961898
H 182.989127 8.248504 -7.142117
H 183.489773 4.985741 -6.328560
H 183.521966 2.922227 -4.962810
C 194.315252 -0.014569 -0.014407
C 195.109633 0.778438 -1.132511
C 194.605330 1.241635 -2.330691
C 195.642897 1.961634 -2.976542
C 196.749908 1.909540 -2.155608
N 196.437350 1.124269 -1.074352
C 198.138448 2.628486 -2.402541
C 199.273943 2.127302 -1.849476
C 200.560555 2.776232 -1.997166
C 201.468952 2.058288 -1.345462
N 199.482491 1.016046 -1.081004
C 200.807186 0.915217 -0.749699
C 201.471381 -0.014569 -0.014407
C 200.676704 -1.234650 0.609911
C 201.179506 -2.488248 0.893298
C 200.141526 -3.230546 1.512785
C 199.036078 -2.408897 1.582190
C 197.648464 -2.754923 2.260605
C 197.660975 -3.715810 3.386754
C 197.222606 -5.033401 3.203149
C 197.249251 -5.940087 4.265530
C 197.719143 -5.534070 5.521166
C 197.731219 -6.527661 6.621568
O 198.195389 -6.025452 7.781711
O 197.373391 -7.690148 6.550745
C 198.161985 -4.218219 5.707728
C 198.133037 -3.314916 4.642156
C 196.512449 -2.138111 1.842044
C 195.226545 -2.374597 2.465426
C 194.317989 -1.627671 1.847384
C 194.979189 -0.876775 0.799275
N 196.303213 -1.221923 0.849176
N 199.349412 -1.225551 0.961934
C 198.130056 3.870948 -3.207570
C 197.660044 5.066098 -2.650876
C 197.637146 6.237404 -3.412240
C 198.083184 6.219333 -4.740028
C 198.042362 7.484176 -5.512591
O 198.490324 7.346221 -6.775278
O 197.656136 8.567100 -5.109775
C 198.551014 5.024503 -5.302095
C 198.571477 3.855846 -4.536977
H 193.598139 1.098247 -2.691517
H 195.582797 2.476680 -3.923389
H 197.096750 0.811783 -0.367527
H 200.756651 3.688411 -2.531478
H 202.513468 2.302605 -1.279699
H 202.185812 -2.826062 0.697322
H 200.200143 -4.242455 1.884344
H 196.857460 -5.338278 2.224208
H 196.901692 -6.957034 4.104953
H 198.139807 -6.786519 8.393271
H 198.531504 -3.880342 6.671098
H 198.475783 -2.290739 4.777366
H 195.030730 -3.032368 3.293070
H 193.273744 -1.596417 2.099627
H 198.690671 -0.480232 0.755523
H 197.314447 5.071218 -1.618875
H 197.270328 7.155876 -2.961898
H 198.401781 8.248504 -7.142117
H 198.902427 4.985741 -6.328560
H 198.934620 2.922227 -4.962810
C 209.727906 -0.014569 -0.014407
C 210.522287 0.778438 -1.132511
C 210.017983 1.241635 -2.330691
C 211.055551 1.961634 -2.976542
C 212.162561 1.909540 -2.155608
N 211.850003 1.124269 -1.074352
C 213.551102 2.628486 -2.402541
C 214.686597 2.127302 -1.849476
C 215.973209 2.776232 -1.997166
C 216.881606 2.058288 -1.345462
N 214.895144 1.016046 -1.081004
C 216.219840 0.915217 -0.749699
C 216.884035 -0.014569 -0.014407
C 216.089357 -1.234650 0.609911
C 216.592159 -2.488248 0.893298
C 215.554179 -3.230546 1.512785
C 214.448731 -2.408897 1.582190
C 213.061117 -2.754923 2.260605
C 213.073628 -3.715810 3.386754
C 212.635260 -5.033401 3.203149
C 212.661905 -5.940087 4.265530
C 213.131797 -5.534070 5.521166
C 213.143873 -6.527661 6.621568
O 213.608042 -6.025452 7.781711
O 212.786044 -7.690148 6.550745
C 213.574638 -4.218219 5.707728
C 213.545691 -3.314916 4.642156
C 211.925102 -2.138111 1.842044
C 210.639199 -2.374597 2.465426
C 209.730643 -1.627671 1.847384
C 210.391842 -0.876775 0.799275
N 211.715867 -1.221923 0.849176
N 214.762065 -1.225551 0.961934
C 213.542709 3.870948 -3.207570
C 213.072698 5.066098 -2.650876
C 213.049800 6.237404 -3.412240
C 213.495838 6.219333 -4.740028
C 213.455016 7.484176 -5.512591
O 213.902977 7.346221 -6.775278
O 213.068789 8.567100 -5.109775
C 213.963667 5.024503 -5.302095
C 213.984131 3.855846 -4.536977
H 209.010793 1.098247 -2.691517
H 210.995451 2.476680 -3.923389
H 212.509404 0.811783 -0.367527
H 216.169304 3.688411 -2.531478
H 217.926122 2.302605 -1.279699
H 217.598466 -2.826062 0.697322
H 215.612797 -4.242455 1.884344
H 212.270114 -5.338278 2.224208
H 212.314345 -6.957034 4.104953
H 213.552461 -6.786519 8.393271
H 213.944157 -3.880342 6.671098
H 213.888436 -2.290739 4.777366
H 210.443384 -3.032368 3.293070
H 208.686398 -1.596417 2.099627
H 214.103325 -0.480232 0.755523
H 212.727101 5.071218 -1.618875
H 212.682982 7.155876 -2.961898
H 213.814434 8.248504 -7.142117
H 214.315080 4.985741 -6.328560
H 214.347274 2.922227 -4.962810
C 225.140560 -0.014569 -0.014407
C 225.934940 0.778438 -1.132511
C 225.430637 1.241635 -2.330691
C 226.468205 1.961634 -2.976542
C 227.575215 1.909540 -2.155608
N 227.262657 1.124269 -1.074352
C 228.963755 2.628486 -2.402541
C 230.099250 2.127302 -1.849476
C 231.385863 2.776232 -1.997166
C 232.294260 2.058288 -1.345462
N 230.307798 1.016046 -1.081004
C 231.632494 0.915217 -0.749699
C 232.296688 -0.014569 -0.014407
C 231.502011 -1.234650 0.609911
C 232.004813 -2.488248 0.893298
C 230.966833 -3.230546 1.512785
C 229.861385 -2.408897 1.582190
C 228.473771 -2.754923 2.260605
C 228.486282 -3.715810 3.386754
C 228.047914 -5.033401 3.203149
C 228.074558 -5.940087 4.265530
C 228.544450 -5.534070 5.521166
C 228.556527 -6.527661 6.621568
O 229.020696 -6.025452 7.781711
O 228.198698 -7.690148 6.550745
C 228.987292 -4.218219 5.707728
C 228.958344 -3.314916 4.642156
C 227.337756 -2.138111 1.842044
C 226.051852 -2.374597 2.465426
C 225.143297 -1.627671 1.847384
C 225.804496 -0.876775 0.799275
N 227.128520 -1.221923 0.849176
N 230.174719 -1.225551 0.961934
C 228.955363 3.870948 -3.207570
C 228.485352 5.066098 -2.650876
C 228.462453 6.237404 -3.412240
C 228.908491 6.219333 -4.740028
C 228.867669 7.484176 -5.512591
O 229.315631 7.346221 -6.775278
O 228.481443 8.567100 -5.109775
C 229.376321 5.024503 -5.302095
C 229.396785 3.855846 -4.536977
H 224.423446 1.098247 -2.691517
H 226.408104 2.476680 -3.923389
H 227.922058 0.811783 -0.367527
H 231.581958 3.688411 -2.531478
H 233.338775 2.302605 -1.279699
H 233.011119 -2.826062 0.697322
H 231.025450 -4.242455 1.884344
H 227.682767 -5.338278 2.224208
H 227.726999 -6.957034 4.104953
H 228.965114 -6.786519 8.393271
H 229.356811 -3.880342 6.671098
H 229.301090 -2.290739 4.777366
H 225.856037 -3.032368 3.293070
H 224.099051 -1.596417 2.099627
H 229.515978 -0.480232 0.755523
H 228.139754 5.071218 -1.618875
H 228.095635 7.155876 -2.961898
H 229.227088 8.248504 -7.142117
H 229.727734 4.985741 -6.328560
H 229.759927 2.922227 -4.962810
C 240.553213 -0.014569 -0.014407
C 241.347594 0.778438 -1.132511
C 240.843291 1.241635 -2.330691
C 241.880858 1.961634 -2.976542
C 242.987869 1.909540 -2.155608
N 242.675311 1.124269 -1.074352
C 244.376409 2.628486 -2.402541
C 245.511904 2.127302 -1.849476
C 246.798516 2.776232 -1.997166
C 247.706913 2.058288 -1.345462
N 245.720451 1.016046 -1.081004
C 247.045147 0.915217 -0.749699
C 247.709342 -0.014569 -0.014407
C 246.914665 -1.234650 0.609911
C 247.417467 -2.488248 0.893298
C 246.379486 -3.230546 1.512785
C 245.274038 -2.408897 1.582190
C 243.886425 -2.754923 2.260605
C 243.898935 -3.715810 3.386754
C 243.460567 -5.033401 3.203149
C 243.487212 -5.940087 4.265530
C 243.957104 -5.534070 5.521166
C 243.969180 -6.527661 6.621568
O 244.433349 -6.025452 7.781711
O 243.611352 -7.690148 6.550745
C 244.399946 -4.218219 5.707728
C 244.370998 -3.314916 4.642156
C 242.750409 -2.138111 1.842044
C 241.464506 -2.374597 2.465426
C 240.555950 -1.627671 1.847384
C 241.217149 -0.876775 0.799275
N 242.541174 -1.221923 0.849176
N 245.587372 -1.225551 0.961934
C 244.368016 3.870948 -3.207570
C 243.898005 5.066098 -2.650876
C 243.875107 6.237404 -3.412240
C 244.321145 6.219333 -4.740028
C 244.280323 7.484176 -5.512591
O 244.728285 7.346221 -6.775278
O 243.894096 8.567100 -5.109775
C 244.788974 5.024503 -5.302095
C 244.809438 3.855846 -4.536977
H 239.836100 1.098247 -2.691517
H 241.820758 2.476680 -3.923389
H 243.334711 0.811783 -0.367527
H 246.994612 3.688411 -2.531478
H 248.751429 2.302605 -1.279699
H 248.423773 -2.826062 0.697322
H 246.438104 -4.242455 1.884344
H 243.095421 -5.338278 2.224208
H 243.139652 -6.957034 4.104953
H 244.377768 -6.786519 8.393271
H 244.769464 -3.880342 6.671098
H 244.713743 -2.290739 4.777366
H 241.268691 -3.032368 3.293070
H 239.511705 -1.596417 2.099627
H 244.928632 -0.480232 0.755523
H 243.552408 5.071218 -1.618875
H 243.508289 7.155876 -2.961898
H 244.639741 8.248504 -7.142117
H 245.140387 4.985741 -6.328560
H 245.172581 2.922227 -4.962810
C 255.965867 -0.014569 -0.014407
C 256.760247 0.778438 -1.132511
C 256.255944 1.241635 -2.330691
C 257.293512 1.961634 -2.976542
C 258.400522 1.909540 -2.155608
N 258.087964 1.124269 -1.074352
C 259.789062 2.628486 -2.402541
C 260.924557 2.127302 -1.849476
C 262.211170 2.776232 -1.997166
C 263.119567 2.058288 -1.345462
N 261.133105 1.016046 -1.081004
C 262.457801 0.915217 -0.749699
C 263.121995 -0.014569 -0.014407
C 262.327318 -1.234650 0.609911
C 262.830120 -2.488248 0.893298
C 261.792140 -3.230546 1.512785
C 260.686692 -2.408897 1.582190
C 259.299078 -2.754923 2.260605
C 259.311589 -3.715810 3.386754
C 258.873221 -5.033401 3.203149
C 258.899865 -5.940087 4.265530
C 259.369758 -5.534070 5.521166
C 259.381834 -6.527661 6.621568
O 259.846003 -6.025452 7.781711
O 259.024005 -7.690148 6.550745
C 259.812599 -4.218219 5.707728
C 259.783651 -3.314916 4.642156
C 258.163063 -2.138111 1.842044
C 256.877159 -2.374597 2.465426
C 255.968604 -1.627671 1.847384
C 256.629803 -0.876775 0.799275
N 257.953828 -1.221923 0.849176
N 261.000026 -1.225551 0.961934
C 259.780670 3.870948 -3.207570
C 259.310659 5.066098 -2.650876
C 259.287760 6.237404 -3.412240
C 259.733798 6.219333 -4.740028
C 259.692977 7.484176 -5.512591
O 260.140938 7.346221 -6.775278
O 259.306750 8.567100 -5.109775
C 260.201628 5.024503 -5.302095
C 260.222092 3.855846 -4.536977
H 255.248753 1.098247 -2.691517
H 257.233412 2.476680 -3.923389
H 258.747365 0.811783 -0.367527
H 262.407265 3.688411 -2.531478
H 264.164083 2.302605 -1.279699
H 263.836426 -2.826062 0.697322
H 261.850757 -4.242455 1.884344
H 258.508074 -5.338278 2.224208
H 258.552306 -6.957034 4.104953
H 259.790422 -6.786519 8.393271
H 260.182118 -3.880342 6.671098
H 260.126397 -2.290739 4.777366
H 256.681344 -3.032368 3.293070
H 254.924358 -1.596417 2.099627
H 260.341286 -0.480232 0.755523
H 258.965061 5.071218 -1.618875
H 258.920943 7.155876 -2.961898
H 260.052395 8.248504 -7.142117
H 260.553041 4.985741 -6.328560
H 260.585234 2.922227 -4.962810
C 271.378520 -0.014569 -0.014407
C 272.172901 0.778438 -1.132511
C 271.668598 1.241635 -2.330691
C 272.706165 1.961634 -2.976542
C 273.813176 1.909540 -2.155608
N 273.500618 1.124269 -1.074352
C 275.201716 2.628486 -2.402541
C 276.337211 2.127302 -1.849476
C 277.623823 2.776232 -1.997166
C 278.532220 2.058288 -1.345462
N 276.545758 1.016046 -1.081004
C 277.870454 0.915217 -0.749699
C 278.534649 -0.014569 -0.014407
C 277.739972 -1.234650 0.609911
C 278.242774 -2.488248 0.893298
C 277.204794 -3.230546 1.512785
C 276.099346 -2.408897 1.582190
C 274.711732 -2.754923 2.260605
C 274.724243 -3.715810 3.386754
C 274.285874 -5.033401 3.203149
C 274.312519 -5.940087 4.265530
C 274.782411 -5.534070 5.521166
C 274.794487 -6.527661 6.621568
O 275.258657 -6.025452 7.781711
O 274.436659 -7.690148 6.550745
C 275.225253 -4.218219 5.707728
C 275.196305 -3.314916 4.642156
C 273.575717 -2.138111 1.842044
C 272.289813 -2.374597 2.465426
C 271.381257 -1.627671 1.847384
C 272.042457 -0.876775 0.799275
N 273.366481 -1.221923 0.849176
N 276.412679 -1.225551 0.961934
C 275.193324 3.870948 -3.207570
C 274.723312 5.066098 -2.650876
C 274.700414 6.237404 -3.412240
C 275.146452 6.219333 -4.740028
C 275.105630 7.484176 -5.512591
O 275.553592 7.346221 -6.775278
O 274.719404 8.567100 -5.109775
C 275.614281 5.024503 -5.302095
C 275.634745 3.855846 -4.536977
H 270.661407 1.098247 -2.691517
H 272.646065 2.476680 -3.923389
H 274.160018 0.811783 -0.367527
H 277.819919 3.688411 -2.531478
H 279.576736 2.302605 -1.279699
H 279.249080 -2.826062 0.697322
H 277.263411 -4.242455 1.884344
H 273.920728 -5.338278 2.224208
H 273.964959 -6.957034 4.104953
H 275.203075 -6.786519 8.393271
H 275.594771 -3.880342 6.671098
H 275.539050 -2.290739 4.777366
H 272.093998 -3.032368 3.293070
H 270.337012 -1.596417 2.099627
H 275.753939 -0.480232 0.755523
H 274.377715 5.071218 -1.618875
H 274.333596 7.155876 -2.961898
H 275.465048 8.248504 -7.142117
H 275.965695 4.985741 -6.328560
H 275.997888 2.922227 -4.962810
