 xtb: 6.5.1 (b24c23e)
          07302207033D

140159  0     0  0            999 V2000
   15.4734    0.0163   -0.0141 Cu  0  0  0  0  0  0  0  0  0  0  0  0
   12.0770    0.1635   -0.2356 C   0  0  0  0  0  0  0  0  0  0  0  0
   12.7298    1.3328    0.1254 C   0  0  0  0  0  0  0  0  0  0  0  0
   12.0752    2.5716    0.4360 C   0  0  0  0  0  0  0  0  0  0  0  0
   13.0458    3.4598    0.7652 C   0  0  0  0  0  0  0  0  0  0  0  0
   14.3039    2.7735    0.6504 C   0  0  0  0  0  0  0  0  0  0  0  0
   14.0800    1.4831    0.2644 N   0  0  0  0  0  0  0  0  0  0  0  0
   15.5527    3.3347    0.9248 C   0  0  0  0  0  0  0  0  0  0  0  0
   16.7711    2.6582    0.8448 C   0  0  0  0  0  0  0  0  0  0  0  0
   18.0567    3.2524    1.0801 C   0  0  0  0  0  0  0  0  0  0  0  0
   18.9865    2.2864    0.8707 C   0  0  0  0  0  0  0  0  0  0  0  0
   16.9392    1.3455    0.4916 N   0  0  0  0  0  0  0  0  0  0  0  0
   18.2776    1.0980    0.5006 C   0  0  0  0  0  0  0  0  0  0  0  0
   18.8945   -0.1202    0.1689 C   0  0  0  0  0  0  0  0  0  0  0  0
   18.2210   -1.2925   -0.2134 C   0  0  0  0  0  0  0  0  0  0  0  0
   18.8708   -2.5214   -0.5580 C   0  0  0  0  0  0  0  0  0  0  0  0
   17.8938   -3.4145   -0.8579 C   0  0  0  0  0  0  0  0  0  0  0  0
   16.6386   -2.7369   -0.6949 C   0  0  0  0  0  0  0  0  0  0  0  0
   15.3863   -3.3102   -0.9229 C   0  0  0  0  0  0  0  0  0  0  0  0
   15.3505   -4.7470   -1.2973 C   0  0  0  0  0  0  0  0  0  0  0  0
   14.8604   -5.1413   -2.5402 C   0  0  0  0  0  0  0  0  0  0  0  0
   14.8293   -6.4874   -2.8933 C   0  0  0  0  0  0  0  0  0  0  0  0
   14.2888   -6.9007   -4.2357 C   0  0  0  0  0  0  0  0  0  0  0  0
   15.2859   -7.4399   -1.9891 C   0  0  0  0  0  0  0  0  0  0  0  0
   15.7768   -7.0615   -0.7416 C   0  0  0  0  0  0  0  0  0  0  0  0
   16.2826   -8.1046    0.2180 C   0  0  0  0  0  0  0  0  0  0  0  0
   15.8098   -5.7142   -0.4031 C   0  0  0  0  0  0  0  0  0  0  0  0
   14.1664   -2.6374   -0.8251 C   0  0  0  0  0  0  0  0  0  0  0  0
   12.8742   -3.2332   -1.0306 C   0  0  0  0  0  0  0  0  0  0  0  0
   11.9507   -2.2575   -0.8450 C   0  0  0  0  0  0  0  0  0  0  0  0
   12.6685   -1.0598   -0.5136 C   0  0  0  0  0  0  0  0  0  0  0  0
   14.0092   -1.3197   -0.5033 N   0  0  0  0  0  0  0  0  0  0  0  0
   16.8717   -1.4433   -0.3102 N   0  0  0  0  0  0  0  0  0  0  0  0
   15.5910    4.7645    1.3256 C   0  0  0  0  0  0  0  0  0  0  0  0
   15.1775    5.7544    0.4354 C   0  0  0  0  0  0  0  0  0  0  0  0
   15.2209    7.0955    0.8006 C   0  0  0  0  0  0  0  0  0  0  0  0
   14.8014    8.1631   -0.1736 C   0  0  0  0  0  0  0  0  0  0  0  0
   15.6789    7.4428    2.0683 C   0  0  0  0  0  0  0  0  0  0  0  0
   16.0926    6.4660    2.9688 C   0  0  0  0  0  0  0  0  0  0  0  0
   16.5647    6.8502    4.3452 C   0  0  0  0  0  0  0  0  0  0  0  0
   16.0474    5.1280    2.5914 C   0  0  0  0  0  0  0  0  0  0  0  0
   10.9942    0.2069   -0.2946 H   0  0  0  0  0  0  0  0  0  0  0  0
   11.0079    2.7260    0.4086 H   0  0  0  0  0  0  0  0  0  0  0  0
   12.9276    4.4871    1.0706 H   0  0  0  0  0  0  0  0  0  0  0  0
   18.2232    4.2810    1.3563 H   0  0  0  0  0  0  0  0  0  0  0  0
   20.0590    2.3637    0.9509 H   0  0  0  0  0  0  0  0  0  0  0  0
   19.9387   -2.6707   -0.5692 H   0  0  0  0  0  0  0  0  0  0  0  0
   18.0085   -4.4385   -1.1749 H   0  0  0  0  0  0  0  0  0  0  0  0
   14.5177   -4.3891   -3.2424 H   0  0  0  0  0  0  0  0  0  0  0  0
   14.6167   -7.9072   -4.4957 H   0  0  0  0  0  0  0  0  0  0  0  0
   13.1967   -6.8903   -4.2165 H   0  0  0  0  0  0  0  0  0  0  0  0
   14.6185   -6.2104   -5.0129 H   0  0  0  0  0  0  0  0  0  0  0  0
   15.2614   -8.4911   -2.2575 H   0  0  0  0  0  0  0  0  0  0  0  0
   16.3735   -7.6974    1.2249 H   0  0  0  0  0  0  0  0  0  0  0  0
   15.6097   -8.9626    0.2441 H   0  0  0  0  0  0  0  0  0  0  0  0
   17.2663   -8.4572   -0.0998 H   0  0  0  0  0  0  0  0  0  0  0  0
   16.1799   -5.4068    0.5689 H   0  0  0  0  0  0  0  0  0  0  0  0
   12.7027   -4.2691   -1.2754 H   0  0  0  0  0  0  0  0  0  0  0  0
   10.8767   -2.3301   -0.9155 H   0  0  0  0  0  0  0  0  0  0  0  0
   14.8363    5.4720   -0.5546 H   0  0  0  0  0  0  0  0  0  0  0  0
   14.3278    8.9969    0.3454 H   0  0  0  0  0  0  0  0  0  0  0  0
   14.1051    7.7648   -0.9117 H   0  0  0  0  0  0  0  0  0  0  0  0
   15.6766    8.5469   -0.7030 H   0  0  0  0  0  0  0  0  0  0  0  0
   15.7147    8.4883    2.3571 H   0  0  0  0  0  0  0  0  0  0  0  0
   15.7168    6.8813    5.0334 H   0  0  0  0  0  0  0  0  0  0  0  0
   17.0296    7.8363    4.3352 H   0  0  0  0  0  0  0  0  0  0  0  0
   17.2837    6.1243    4.7257 H   0  0  0  0  0  0  0  0  0  0  0  0
   16.3565    4.3568    3.2885 H   0  0  0  0  0  0  0  0  0  0  0  0
   28.9231    0.0139   -0.0244 Cu  0  0  0  0  0  0  0  0  0  0  0  0
   32.3196    0.1925   -0.2191 C   0  0  0  0  0  0  0  0  0  0  0  0
   31.6709   -0.4833   -1.2420 C   0  0  0  0  0  0  0  0  0  0  0  0
   32.3297   -1.1279   -2.3420 C   0  0  0  0  0  0  0  0  0  0  0  0
   31.3620   -1.6929   -3.1060 C   0  0  0  0  0  0  0  0  0  0  0  0
   30.1016   -1.3911   -2.4837 C   0  0  0  0  0  0  0  0  0  0  0  0
   30.3211   -0.6597   -1.3518 N   0  0  0  0  0  0  0  0  0  0  0  0
   28.8545   -1.8107   -2.9511 C   0  0  0  0  0  0  0  0  0  0  0  0
   27.6339   -1.5461   -2.3279 C   0  0  0  0  0  0  0  0  0  0  0  0
   26.3501   -1.9373   -2.8380 C   0  0  0  0  0  0  0  0  0  0  0  0
   25.4173   -1.4704   -1.9701 C   0  0  0  0  0  0  0  0  0  0  0  0
   27.4616   -0.8440   -1.1645 N   0  0  0  0  0  0  0  0  0  0  0  0
   26.1225   -0.7862   -0.9278 C   0  0  0  0  0  0  0  0  0  0  0  0
   25.5020   -0.1335    0.1509 C   0  0  0  0  0  0  0  0  0  0  0  0
   26.1719    0.5596    1.1731 C   0  0  0  0  0  0  0  0  0  0  0  0
   25.5180    1.2286    2.2576 C   0  0  0  0  0  0  0  0  0  0  0  0
   26.4918    1.7689    3.0333 C   0  0  0  0  0  0  0  0  0  0  0  0
   27.7492    1.4295    2.4291 C   0  0  0  0  0  0  0  0  0  0  0  0
   28.9994    1.8136    2.9178 C   0  0  0  0  0  0  0  0  0  0  0  0
   29.0302    2.5731    4.1936 C   0  0  0  0  0  0  0  0  0  0  0  0
   29.5223    3.8759    4.2290 C   0  0  0  0  0  0  0  0  0  0  0  0
   29.5494    4.5892    5.4240 C   0  0  0  0  0  0  0  0  0  0  0  0
   30.0955    5.9915    5.4506 C   0  0  0  0  0  0  0  0  0  0  0  0
   29.0846    3.9871    6.5879 C   0  0  0  0  0  0  0  0  0  0  0  0
   28.5916    2.6845    6.5692 C   0  0  0  0  0  0  0  0  0  0  0  0
   28.0782    2.0539    7.8355 C   0  0  0  0  0  0  0  0  0  0  0  0
   28.5645    1.9841    5.3694 C   0  0  0  0  0  0  0  0  0  0  0  0
   30.2212    1.5370    2.3004 C   0  0  0  0  0  0  0  0  0  0  0  0
   31.5115    1.9050    2.8171 C   0  0  0  0  0  0  0  0  0  0  0  0
   32.4379    1.4570    1.9337 C   0  0  0  0  0  0  0  0  0  0  0  0
   31.7239    0.8013    0.8755 C   0  0  0  0  0  0  0  0  0  0  0  0
   30.3826    0.8602    1.1255 N   0  0  0  0  0  0  0  0  0  0  0  0
   27.5205    0.6999    1.2928 N   0  0  0  0  0  0  0  0  0  0  0  0
   28.8211   -2.5945   -4.2125 C   0  0  0  0  0  0  0  0  0  0  0  0
   29.2359   -2.0151   -5.4107 C   0  0  0  0  0  0  0  0  0  0  0  0
   29.1970   -2.7405   -6.5965 C   0  0  0  0  0  0  0  0  0  0  0  0
   29.6170   -2.1021   -7.8930 C   0  0  0  0  0  0  0  0  0  0  0  0
   28.7430   -4.0561   -6.5768 C   0  0  0  0  0  0  0  0  0  0  0  0
   28.3284   -4.6492   -5.3883 C   0  0  0  0  0  0  0  0  0  0  0  0
   27.8610   -6.0797   -5.3735 C   0  0  0  0  0  0  0  0  0  0  0  0
   28.3683   -3.9127   -4.2090 C   0  0  0  0  0  0  0  0  0  0  0  0
   33.4024    0.2391   -0.2744 H   0  0  0  0  0  0  0  0  0  0  0  0
   33.3975   -1.1445   -2.4940 H   0  0  0  0  0  0  0  0  0  0  0  0
   31.4834   -2.2734   -4.0065 H   0  0  0  0  0  0  0  0  0  0  0  0
   26.1872   -2.4868   -3.7510 H   0  0  0  0  0  0  0  0  0  0  0  0
   24.3450   -1.5696   -2.0255 H   0  0  0  0  0  0  0  0  0  0  0  0
   24.4498    1.2761    2.3969 H   0  0  0  0  0  0  0  0  0  0  0  0
   26.3732    2.3574    3.9288 H   0  0  0  0  0  0  0  0  0  0  0  0
   29.8701    4.3406    3.3128 H   0  0  0  0  0  0  0  0  0  0  0  0
   29.7686    6.5211    6.3454 H   0  0  0  0  0  0  0  0  0  0  0  0
   31.1875    5.9655    5.4474 H   0  0  0  0  0  0  0  0  0  0  0  0
   29.7693    6.5489    4.5718 H   0  0  0  0  0  0  0  0  0  0  0  0
   29.1050    4.5376    7.5230 H   0  0  0  0  0  0  0  0  0  0  0  0
   27.9843    0.9738    7.7236 H   0  0  0  0  0  0  0  0  0  0  0  0
   28.7482    2.2650    8.6699 H   0  0  0  0  0  0  0  0  0  0  0  0
   27.0947    2.4603    8.0818 H   0  0  0  0  0  0  0  0  0  0  0  0
   28.1939    0.9651    5.3431 H   0  0  0  0  0  0  0  0  0  0  0  0
   31.6800    2.4301    3.7436 H   0  0  0  0  0  0  0  0  0  0  0  0
   33.5115    1.5486    1.9855 H   0  0  0  0  0  0  0  0  0  0  0  0
   29.5746   -0.9848   -5.4152 H   0  0  0  0  0  0  0  0  0  0  0  0
   30.0952   -2.8317   -8.5472 H   0  0  0  0  0  0  0  0  0  0  0  0
   30.3094   -1.2791   -7.7155 H   0  0  0  0  0  0  0  0  0  0  0  0
   28.7414   -1.7050   -8.4117 H   0  0  0  0  0  0  0  0  0  0  0  0
   28.7111   -4.6257   -7.5000 H   0  0  0  0  0  0  0  0  0  0  0  0
   28.7111   -6.7462   -5.2106 H   0  0  0  0  0  0  0  0  0  0  0  0
   27.3979   -6.3469   -6.3236 H   0  0  0  0  0  0  0  0  0  0  0  0
   27.1419   -6.2448   -4.5709 H   0  0  0  0  0  0  0  0  0  0  0  0
   28.0579   -4.3672   -3.2745 H   0  0  0  0  0  0  0  0  0  0  0  0
   21.5226   -0.1731    0.2200 C   0  0  0  0  0  0  0  0  0  0  0  0
   20.3017   -0.1592    0.2038 C   0  0  0  0  0  0  0  0  0  0  0  0
   22.8740   -0.1752    0.2157 C   0  0  0  0  0  0  0  0  0  0  0  0
   24.0949   -0.1605    0.1974 C   0  0  0  0  0  0  0  0  0  0  0  0
  2  3  4  0  0  0  0
  3  4  1  0  0  0  0
  4  5  2  0  0  0  0
  5  6  4  0  0  0  0
  1  7  1  0  0  0  0
  3  7  4  0  0  0  0
  6  7  4  0  0  0  0
  6  8  4  0  0  0  0
  8  9  4  0  0  0  0
  9 10  4  0  0  0  0
 10 11  2  0  0  0  0
  1 12  1  0  0  0  0
  9 12  4  0  0  0  0
 11 13  4  0  0  0  0
 12 13  4  0  0  0  0
 13 14  4  0  0  0  0
 14 15  4  0  0  0  0
 15 16  4  0  0  0  0
 16 17  2  0  0  0  0
 17 18  4  0  0  0  0
 18 19  4  0  0  0  0
 19 20  1  0  0  0  0
 20 21  4  0  0  0  0
 21 22  4  0  0  0  0
 22 23  1  0  0  0  0
 22 24  4  0  0  0  0
 24 25  4  0  0  0  0
 25 26  1  0  0  0  0
 20 27  4  0  0  0  0
 25 27  4  0  0  0  0
 19 28  4  0  0  0  0
 28 29  4  0  0  0  0
 29 30  2  0  0  0  0
  2 31  4  0  0  0  0
 30 31  1  0  0  0  0
  1 32  1  0  0  0  0
 28 32  4  0  0  0  0
 31 32  4  0  0  0  0
  1 33  1  0  0  0  0
 15 33  4  0  0  0  0
 18 33  4  0  0  0  0
  8 34  1  0  0  0  0
 34 35  4  0  0  0  0
 35 36  4  0  0  0  0
 36 37  1  0  0  0  0
 36 38  4  0  0  0  0
 38 39  4  0  0  0  0
 39 40  1  0  0  0  0
 34 41  4  0  0  0  0
 39 41  4  0  0  0  0
  2 42  1  0  0  0  0
  4 43  1  0  0  0  0
  5 44  1  0  0  0  0
 10 45  1  0  0  0  0
 11 46  1  0  0  0  0
 16 47  1  0  0  0  0
 17 48  1  0  0  0  0
 21 49  1  0  0  0  0
 23 50  1  0  0  0  0
 23 51  1  0  0  0  0
 23 52  1  0  0  0  0
 24 53  1  0  0  0  0
 26 54  1  0  0  0  0
 26 55  1  0  0  0  0
 26 56  1  0  0  0  0
 27 57  1  0  0  0  0
 29 58  1  0  0  0  0
 30 59  1  0  0  0  0
 35 60  1  0  0  0  0
 37 61  1  0  0  0  0
 37 62  1  0  0  0  0
 37 63  1  0  0  0  0
 38 64  1  0  0  0  0
 40 65  1  0  0  0  0
 40 66  1  0  0  0  0
 40 67  1  0  0  0  0
 41 68  1  0  0  0  0
 70 71  4  0  0  0  0
 71 72  1  0  0  0  0
 72 73  2  0  0  0  0
 73 74  4  0  0  0  0
 69 75  1  0  0  0  0
 71 75  4  0  0  0  0
 74 75  4  0  0  0  0
 74 76  4  0  0  0  0
 76 77  4  0  0  0  0
 77 78  4  0  0  0  0
 78 79  2  0  0  0  0
 69 80  1  0  0  0  0
 77 80  4  0  0  0  0
 79 81  4  0  0  0  0
 80 81  4  0  0  0  0
 81 82  4  0  0  0  0
 82 83  4  0  0  0  0
 83 84  4  0  0  0  0
 84 85  2  0  0  0  0
 85 86  4  0  0  0  0
 86 87  4  0  0  0  0
 87 88  1  0  0  0  0
 88 89  4  0  0  0  0
 89 90  4  0  0  0  0
 90 91  1  0  0  0  0
 90 92  4  0  0  0  0
 92 93  4  0  0  0  0
 93 94  1  0  0  0  0
 88 95  4  0  0  0  0
 93 95  4  0  0  0  0
 87 96  4  0  0  0  0
 96 97  4  0  0  0  0
 97 98  2  0  0  0  0
 70 99  4  0  0  0  0
 98 99  1  0  0  0  0
 69100  1  0  0  0  0
 96100  4  0  0  0  0
 99100  4  0  0  0  0
 69101  1  0  0  0  0
 83101  4  0  0  0  0
 86101  4  0  0  0  0
 76102  1  0  0  0  0
102103  4  0  0  0  0
103104  4  0  0  0  0
104105  1  0  0  0  0
104106  4  0  0  0  0
106107  4  0  0  0  0
107108  1  0  0  0  0
102109  4  0  0  0  0
107109  4  0  0  0  0
 70110  1  0  0  0  0
 72111  1  0  0  0  0
 73112  1  0  0  0  0
 78113  1  0  0  0  0
 79114  1  0  0  0  0
 84115  1  0  0  0  0
 85116  1  0  0  0  0
 89117  1  0  0  0  0
 91118  1  0  0  0  0
 91119  1  0  0  0  0
 91120  1  0  0  0  0
 92121  1  0  0  0  0
 94122  1  0  0  0  0
 94123  1  0  0  0  0
 94124  1  0  0  0  0
 95125  1  0  0  0  0
 97126  1  0  0  0  0
 98127  1  0  0  0  0
103128  1  0  0  0  0
105129  1  0  0  0  0
105130  1  0  0  0  0
105131  1  0  0  0  0
106132  1  0  0  0  0
108133  1  0  0  0  0
108134  1  0  0  0  0
108135  1  0  0  0  0
109136  1  0  0  0  0
 14138  4  0  0  0  0
137138  3  0  0  0  0
137139  4  0  0  0  0
 82140  4  0  0  0  0
139140  3  0  0  0  0
M  END
