386

C 53.212827 -0.042214 -0.123633
C 53.940211 -0.238987 1.246153
C 53.338932 -0.591654 2.434465
C 54.359246 -0.626233 3.418655
C 55.540100 -0.263026 2.808059
N 55.283798 -0.087647 1.469997
C 56.958181 -0.115515 3.506362
C 58.092198 -0.059018 2.750478
C 59.404090 0.091262 3.347429
C 60.305798 0.152257 2.375503
N 58.286608 -0.099501 1.394192
C 59.620732 0.019983 1.103951
C 60.281012 0.028368 -0.083635
C 59.497215 -0.163296 -1.452092
C 60.009181 -0.712772 -2.610844
C 58.987328 -0.674575 -3.592382
C 57.883449 -0.099413 -3.008520
C 56.480938 0.165386 -3.713203
C 56.473996 0.378975 -5.191529
C 56.966052 1.568285 -5.767420
O 57.460391 2.653236 -5.091246
C 56.579219 3.220749 -4.121728
C 57.067513 1.693775 -7.160626
C 56.638137 0.668989 -7.999890
C 56.122250 -0.501313 -7.448401
C 56.058551 -0.664289 -6.057953
O 55.553857 -1.808037 -5.487449
C 55.800893 -3.030081 -6.177207
C 55.357786 0.191713 -2.948490
C 54.026758 0.354929 -3.505233
C 53.143118 0.273842 -2.513581
C 53.877433 0.083492 -1.286916
N 55.204237 0.066225 -1.595487
N 58.184645 0.156226 -1.689239
C 56.995462 -0.000458 4.996247
C 56.694920 1.213705 5.652994
O 56.231228 2.334179 5.011256
C 57.244852 3.008219 4.269309
C 56.727587 1.304995 7.049342
C 57.085653 0.200611 7.815811
C 57.372007 -1.011790 7.187747
C 57.326869 -1.123884 5.788792
O 57.532271 -2.311711 5.132888
C 58.317879 -3.297525 5.782912
H 52.121237 -0.005882 -0.118601
H 52.288897 -0.796782 2.576229
H 54.241150 -0.865027 4.462997
H 55.982014 0.110716 0.757087
H 59.617574 0.155040 4.398403
H 61.363733 0.262684 2.529807
H 61.002871 -1.110134 -2.733077
H 59.043628 -1.027557 -4.609643
H 57.091200 3.248153 -3.150510
H 56.366116 4.253103 -4.420553
H 55.629599 2.703336 -4.015778
H 57.484925 2.604131 -7.579600
H 56.705433 0.781018 -9.075535
H 55.775384 -1.284994 -8.113520
H 55.652130 -3.856325 -5.478542
H 55.082349 -3.155286 -6.994161
H 56.829385 -3.084705 -6.549026
H 53.789127 0.477563 -4.544317
H 52.071656 0.325857 -2.604584
H 57.508163 0.448738 -0.989317
H 57.525778 3.926046 4.795102
H 56.832686 3.295766 3.296874
H 58.145676 2.424078 4.097410
H 56.460145 2.240093 7.530458
H 57.114741 0.281708 8.898996
H 57.600068 -1.868581 7.809972
H 57.742101 -3.791240 6.568417
H 58.592039 -4.053181 5.043959
H 59.242921 -2.873910 6.189840
C 124.847598 -0.038400 -0.037552
C 124.120214 -0.355551 -1.384566
C 124.721493 -0.811936 -2.537030
C 123.701179 -0.933426 -3.514305
C 122.520325 -0.517639 -2.938225
N 122.776627 -0.224603 -1.620918
C 121.102244 -0.432466 -3.646838
C 119.968227 -0.309338 -2.898913
C 118.656335 -0.212443 -3.506817
C 117.754627 -0.065726 -2.544093
N 119.773817 -0.229705 -1.544362
C 118.439693 -0.085020 -1.265826
C 117.779413 0.028368 -0.083635
C 118.563211 -0.041513 1.296410
C 118.051244 -0.486350 2.499219
C 119.073097 -0.361491 3.473533
C 120.176976 0.159777 2.841089
C 121.579487 0.485865 3.519590
C 121.586429 0.829366 4.973232
C 121.094373 2.064949 5.441678
O 120.600034 3.085845 4.672196
C 121.481206 3.565386 3.656284
C 120.992912 2.313170 6.818325
C 121.422288 1.366628 7.744937
C 121.938175 0.152136 7.299116
C 122.001874 -0.133179 5.928531
O 122.506569 -1.322903 5.461421
C 122.259533 -2.479152 6.256559
C 122.702640 0.444453 2.755545
C 124.033667 0.656271 3.295671
C 124.917307 0.487796 2.315077
C 124.182992 0.189700 1.110055
N 122.856189 0.199792 1.418943
N 119.875781 0.297732 1.504368
C 121.064963 -0.449632 -5.141060
C 121.365506 0.701687 -5.902619
O 121.829197 1.874528 -5.362496
C 120.815573 2.611548 -4.683072
C 121.332838 0.669120 -7.301570
C 120.974772 -0.498727 -7.967358
C 120.688418 -1.650827 -7.234526
C 120.733557 -1.638752 -5.831138
O 120.528154 -2.763914 -5.072748
C 119.742546 -3.803355 -5.633036
H 125.939188 -0.002655 -0.045777
H 125.771528 -1.028798 -2.660096
H 123.819275 -1.263651 -4.533434
H 122.078412 0.036036 -0.928346
H 118.442852 -0.241868 -4.559312
H 116.696692 0.030622 -2.707560
H 117.057554 -0.871344 2.656118
H 119.016797 -0.623119 4.518026
H 120.969225 3.506783 2.686448
H 121.694310 4.620123 3.862632
H 122.430826 3.040629 3.596512
H 120.575500 3.257014 7.155142
H 121.354992 1.573353 8.806459
H 122.285041 -0.569648 8.030941
H 122.408295 -3.363951 5.633709
H 122.978076 -2.531612 7.081386
H 121.231040 -2.500677 6.631753
H 124.271298 0.870325 4.319837
H 125.988769 0.547655 2.401123
H 120.552262 0.527193 0.781318
H 120.534648 3.479274 -5.287981
H 121.227739 2.983974 -3.739880
H 119.914749 2.044899 -4.460182
H 121.600280 1.558001 -7.863505
H 120.945685 -0.513749 -9.053471
H 120.460357 -2.559293 -7.778533
H 120.318324 -4.364608 -6.371795
H 119.468387 -4.490694 -4.830145
H 118.817505 -3.417391 -6.075835
C 66.345134 0.029471 -0.075145
C 65.136195 0.016016 -0.083593
C 63.714666 0.024835 -0.095576
C 62.502996 0.032274 -0.084713
C 67.761738 0.022796 -0.074612
C 68.982434 0.032274 -0.084713
C 81.871082 0.029471 -0.075145
C 80.662143 0.016016 -0.083593
C 79.240614 0.024835 -0.095576
C 78.028945 0.032274 -0.084713
C 83.287687 0.022796 -0.074612
C 84.508383 0.032274 -0.084713
C 97.397031 0.029471 -0.075145
C 96.188091 0.016016 -0.083593
C 94.766562 0.024835 -0.095576
C 93.554893 0.032274 -0.084713
C 98.813635 0.022796 -0.074612
C 100.034331 0.032274 -0.084713
C 112.922979 0.029471 -0.075145
C 111.714040 0.016016 -0.083593
C 110.292511 0.024835 -0.095576
C 109.080841 0.032274 -0.084713
C 114.339583 0.022796 -0.074612
C 115.560279 0.032274 -0.084713
C 69.961010 -0.022761 0.065944
C 70.752172 1.233623 0.629328
C 70.223280 2.267935 1.373018
C 71.258172 3.215453 1.559664
C 72.392871 2.728892 0.947167
N 72.091838 1.490558 0.436813
C 73.800319 3.462225 0.851108
C 74.932323 2.740737 0.619819
C 76.233072 3.369258 0.498286
C 77.143177 2.422436 0.318085
N 75.137490 1.395665 0.462515
C 76.470075 1.140497 0.274223
C 77.139260 -0.022761 0.065944
C 76.337655 -1.386457 -0.037034
C 76.836446 -2.657497 0.194665
C 75.800561 -3.579630 -0.090435
C 74.701484 -2.841973 -0.494913
C 73.306702 -3.427590 -0.973168
C 73.312832 -4.774430 -1.623165
C 72.948912 -5.906470 -0.844671
O 72.624442 -5.690029 0.471269
C 71.685102 -6.580821 1.055133
C 72.991208 -7.196757 -1.392294
C 73.401513 -7.385222 -2.703378
C 73.766574 -6.285043 -3.471618
C 73.713426 -4.980398 -2.960366
O 74.124011 -4.053066 -3.888512
C 73.453667 -2.791710 -3.872483
C 72.169193 -2.699239 -0.803155
C 70.865179 -3.207750 -1.182689
C 69.952500 -2.290352 -0.889293
C 70.629893 -1.139351 -0.323143
N 71.966535 -1.442000 -0.301541
N 75.016854 -1.509717 -0.394486
C 73.829683 4.946683 1.002903
C 73.896458 5.783209 -0.129881
O 73.956782 5.224591 -1.384086
C 72.821700 5.580184 -2.176302
C 73.965821 7.177806 0.004912
C 73.934158 7.763450 1.268312
C 73.827716 6.958048 2.400147
C 73.794720 5.563577 2.272392
O 73.633943 4.858481 3.437704
C 74.869928 4.283080 3.867496
H 69.203539 2.352167 1.726791
H 71.187102 4.154343 2.085471
H 72.762340 0.858127 0.002720
H 76.437038 4.421923 0.557697
H 78.196189 2.594474 0.207371
H 77.839543 -2.900118 0.519665
H 75.852392 -4.659261 -0.022558
H 71.285739 -6.108795 1.959776
H 72.180025 -7.512244 1.358367
H 70.835743 -6.780803 0.385655
H 72.745343 -8.066453 -0.795867
H 73.451689 -8.383212 -3.126490
H 74.095443 -6.433913 -4.490955
H 73.458220 -2.448747 -4.922593
H 72.390087 -2.891057 -3.585418
H 73.995828 -2.048271 -3.273137
H 70.665089 -4.166353 -1.621693
H 68.898430 -2.404100 -1.060884
H 74.371035 -0.733332 -0.516953
H 73.049673 6.494886 -2.739868
H 71.912175 5.732832 -1.582642
H 72.642330 4.774713 -2.902474
H 74.061581 7.804351 -0.876272
H 73.992665 8.842719 1.368468
H 73.793983 7.402422 3.387077
H 75.616364 4.169669 3.078113
H 74.652814 3.296827 4.297732
H 75.295908 4.915119 4.655486
C 85.486958 -0.022761 0.065944
C 86.278121 1.233623 0.629328
C 85.749228 2.267935 1.373018
C 86.784120 3.215453 1.559664
C 87.918819 2.728892 0.947167
N 87.617787 1.490558 0.436813
C 89.326267 3.462225 0.851108
C 90.458271 2.740737 0.619819
C 91.759020 3.369258 0.498286
C 92.669125 2.422436 0.318085
N 90.663438 1.395665 0.462515
C 91.996023 1.140497 0.274223
C 92.665209 -0.022761 0.065944
C 91.863603 -1.386457 -0.037034
C 92.362394 -2.657497 0.194665
C 91.326509 -3.579630 -0.090435
C 90.227432 -2.841973 -0.494913
C 88.832651 -3.427590 -0.973168
C 88.838780 -4.774430 -1.623165
C 88.474860 -5.906470 -0.844671
O 88.150390 -5.690029 0.471269
C 87.211051 -6.580821 1.055133
C 88.517156 -7.196757 -1.392294
C 88.927462 -7.385222 -2.703378
C 89.292522 -6.285043 -3.471618
C 89.239375 -4.980398 -2.960366
O 89.649959 -4.053066 -3.888512
C 88.979615 -2.791710 -3.872483
C 87.695141 -2.699239 -0.803155
C 86.391128 -3.207750 -1.182689
C 85.478449 -2.290352 -0.889293
C 86.155842 -1.139351 -0.323143
N 87.492484 -1.442000 -0.301541
N 90.542803 -1.509717 -0.394486
C 89.355631 4.946683 1.002903
C 89.422407 5.783209 -0.129881
O 89.482731 5.224591 -1.384086
C 88.347649 5.580184 -2.176302
C 89.491769 7.177806 0.004912
C 89.460106 7.763450 1.268312
C 89.353664 6.958048 2.400147
C 89.320668 5.563577 2.272392
O 89.159891 4.858481 3.437704
C 90.395877 4.283080 3.867496
H 84.729487 2.352167 1.726791
H 86.713050 4.154343 2.085471
H 88.288288 0.858127 0.002720
H 91.962986 4.421923 0.557697
H 93.722138 2.594474 0.207371
H 93.365491 -2.900118 0.519665
H 91.378340 -4.659261 -0.022558
H 86.811687 -6.108795 1.959776
H 87.705973 -7.512244 1.358367
H 86.361691 -6.780803 0.385655
H 88.271291 -8.066453 -0.795867
H 88.977637 -8.383212 -3.126490
H 89.621391 -6.433913 -4.490955
H 88.984168 -2.448747 -4.922593
H 87.916035 -2.891057 -3.585418
H 89.521777 -2.048271 -3.273137
H 86.191037 -4.166353 -1.621693
H 84.424379 -2.404100 -1.060884
H 89.896983 -0.733332 -0.516953
H 88.575621 6.494886 -2.739868
H 87.438123 5.732832 -1.582642
H 88.168279 4.774713 -2.902474
H 89.587529 7.804351 -0.876272
H 89.518613 8.842719 1.368468
H 89.319931 7.402422 3.387077
H 91.142312 4.169669 3.078113
H 90.178763 3.296827 4.297732
H 90.821856 4.915119 4.655486
C 101.012906 -0.022761 0.065944
C 101.804069 1.233623 0.629328
C 101.275177 2.267935 1.373018
C 102.310069 3.215453 1.559664
C 103.444767 2.728892 0.947167
N 103.143735 1.490558 0.436813
C 104.852216 3.462225 0.851108
C 105.984219 2.740737 0.619819
C 107.284968 3.369258 0.498286
C 108.195074 2.422436 0.318085
N 106.189386 1.395665 0.462515
C 107.521972 1.140497 0.274223
C 108.191157 -0.022761 0.065944
C 107.389551 -1.386457 -0.037034
C 107.888342 -2.657497 0.194665
C 106.852457 -3.579630 -0.090435
C 105.753380 -2.841973 -0.494913
C 104.358599 -3.427590 -0.973168
C 104.364729 -4.774430 -1.623165
C 104.000809 -5.906470 -0.844671
O 103.676339 -5.690029 0.471269
C 102.736999 -6.580821 1.055133
C 104.043104 -7.196757 -1.392294
C 104.453410 -7.385222 -2.703378
C 104.818470 -6.285043 -3.471618
C 104.765323 -4.980398 -2.960366
O 105.175907 -4.053066 -3.888512
C 104.505563 -2.791710 -3.872483
C 103.221089 -2.699239 -0.803155
C 101.917076 -3.207750 -1.182689
C 101.004397 -2.290352 -0.889293
C 101.681790 -1.139351 -0.323143
N 103.018432 -1.442000 -0.301541
N 106.068751 -1.509717 -0.394486
C 104.881579 4.946683 1.002903
C 104.948355 5.783209 -0.129881
O 105.008679 5.224591 -1.384086
C 103.873597 5.580184 -2.176302
C 105.017717 7.177806 0.004912
C 104.986055 7.763450 1.268312
C 104.879613 6.958048 2.400147
C 104.846616 5.563577 2.272392
O 104.685839 4.858481 3.437704
C 105.921825 4.283080 3.867496
H 100.255436 2.352167 1.726791
H 102.238999 4.154343 2.085471
H 103.814236 0.858127 0.002720
H 107.488934 4.421923 0.557697
H 109.248086 2.594474 0.207371
H 108.891440 -2.900118 0.519665
H 106.904289 -4.659261 -0.022558
H 102.337636 -6.108795 1.959776
H 103.231921 -7.512244 1.358367
H 101.887639 -6.780803 0.385655
H 103.797240 -8.066453 -0.795867
H 104.503585 -8.383212 -3.126490
H 105.147339 -6.433913 -4.490955
H 104.510117 -2.448747 -4.922593
H 103.441984 -2.891057 -3.585418
H 105.047725 -2.048271 -3.273137
H 101.716986 -4.166353 -1.621693
H 99.950327 -2.404100 -1.060884
H 105.422931 -0.733332 -0.516953
H 104.101570 6.494886 -2.739868
H 102.964071 5.732832 -1.582642
H 103.694227 4.774713 -2.902474
H 105.113478 7.804351 -0.876272
H 105.044561 8.842719 1.368468
H 104.845880 7.402422 3.387077
H 106.668261 4.169669 3.078113
H 105.704711 3.296827 4.297732
H 106.347804 4.915119 4.655486
