324

C 53.295929 0.111359 0.274531
C 54.029374 1.284027 -0.446166
C 53.432407 2.411742 -0.961608
C 54.456650 3.181024 -1.572865
C 55.644348 2.491969 -1.416086
N 55.377992 1.361270 -0.685083
C 57.057841 2.904000 -1.990422
C 57.087032 3.962364 -2.957110
C 57.097189 4.849229 -3.767968
C 57.107346 5.900719 -4.734325
C 56.308869 5.812630 -5.869248
C 56.353281 6.857136 -6.776122
N 57.125120 7.957589 -6.625378
C 57.888767 8.007688 -5.510029
C 57.915370 7.016193 -4.544639
C 58.185933 2.250482 -1.607567
C 59.481681 2.586072 -2.162670
C 60.388718 1.776449 -1.628634
N 58.392560 1.223625 -0.723857
C 59.722035 0.889889 -0.695012
C 60.396249 -0.054982 0.013105
C 59.627287 -0.986355 1.041902
C 60.177558 -1.626499 2.135012
C 59.150139 -2.388438 2.745529
C 57.999402 -2.184788 2.013792
N 58.288180 -1.290463 1.010163
C 56.586962 -2.836691 2.290504
C 56.555967 -4.077185 3.004832
C 56.540600 -5.121338 3.599097
C 56.517132 -6.366204 4.298813
C 57.557353 -6.706227 5.156441
C 57.487155 -7.924360 5.810083
N 56.469179 -8.803120 5.665760
C 55.476264 -8.438823 4.822566
C 55.453509 -7.244602 4.123344
C 55.459432 -2.229672 1.843228
C 54.132830 -2.767400 2.089758
C 53.241619 -1.946719 1.541096
C 53.963933 -0.864753 0.917610
N 55.290834 -1.079551 1.123536
H 52.213653 0.084292 0.230143
H 52.379957 2.646675 -0.916413
H 54.336232 4.121609 -2.088853
H 56.069978 0.684545 -0.371713
H 55.671381 4.952037 -6.040297
H 55.748689 6.834640 -7.677286
H 58.501769 8.897678 -5.407632
H 58.547813 7.107515 -3.668190
H 59.683510 3.351341 -2.890593
H 61.437967 1.796648 -1.860399
H 61.206467 -1.562018 2.455008
H 59.239517 -3.015292 3.619627
H 57.602436 -0.874096 0.385649
H 58.398975 -6.039455 5.309038
H 58.274958 -8.235160 6.489359
H 54.669090 -9.157378 4.718143
H 54.631267 -7.002820 3.458386
H 53.906252 -3.668416 2.630201
H 52.173063 -2.063595 1.553104
C 136.574405 0.186786 0.206912
C 135.840960 -0.657261 1.294174
C 136.437927 -1.292380 2.359089
C 135.413684 -1.983733 3.057273
C 134.225986 -1.752890 2.389375
N 134.492342 -0.903165 1.344954
C 132.812493 -2.368658 2.736448
C 132.783302 -3.444795 3.683313
C 132.773145 -4.347361 4.476657
C 132.762988 -5.422420 5.416723
C 133.561465 -6.541013 5.205634
C 133.517052 -7.556182 6.145232
N 132.745214 -7.526105 7.255555
C 131.981566 -6.422835 7.426749
C 131.954963 -5.355267 6.546216
C 131.684400 -1.916950 2.128482
C 130.388653 -2.505281 2.401662
C 129.481615 -1.886299 1.654973
N 131.477774 -0.926728 1.203907
C 130.148298 -0.861732 0.875293
C 129.474085 -0.054982 0.013105
C 130.243047 1.069072 -0.800762
C 129.692776 2.225361 -1.318131
C 130.720195 2.915179 -2.009095
C 131.870932 2.165624 -1.886297
N 131.582154 1.070620 -1.106518
C 133.283372 2.511644 -2.504210
C 133.314366 3.356742 -3.659589
C 133.329734 4.061122 -4.632859
C 133.353201 4.892170 -5.794174
C 132.312980 5.781711 -6.038834
C 132.383178 6.564049 -7.178589
N 133.401154 6.516227 -8.067837
C 134.394070 5.638393 -7.797476
C 134.416825 4.813347 -6.686452
C 134.410901 2.000959 -1.949478
C 135.737504 2.304550 -2.457179
C 136.628714 1.669825 -1.701090
C 135.906400 0.932284 -0.693410
N 134.579500 1.160364 -0.884519
H 137.656681 0.145607 0.175174
H 137.490377 -1.273023 2.597546
H 135.534102 -2.599028 3.936112
H 133.800355 -0.518004 0.706356
H 134.198953 -6.617381 4.331536
H 134.121645 -8.449544 6.024788
H 131.368565 -6.417911 8.322597
H 131.322521 -4.493964 6.732387
H 130.186823 -3.312170 3.083159
H 128.432366 -2.118886 1.649826
H 128.663867 2.536438 -1.219205
H 130.630817 3.852310 -2.537091
H 132.267898 0.404499 -0.760595
H 131.471359 5.860831 -5.359415
H 131.595375 7.273117 -7.413612
H 135.201244 5.612797 -8.523128
H 135.239067 4.126024 -6.518479
H 135.964082 2.939847 -3.294022
H 137.697271 1.694483 -1.815964
C 62.852807 -0.040292 0.023381
C 64.311033 -0.062129 0.005508
C 65.444961 -0.082882 0.004017
C 66.806343 -0.095472 0.001826
C 68.080562 -0.085166 -0.002940
C 69.269024 -0.066368 -0.009096
C 70.621385 -0.041583 0.006772
C 71.721652 -0.040292 0.023381
C 81.243419 -0.040292 0.023381
C 82.701646 -0.062129 0.005508
C 83.835574 -0.082882 0.004017
C 85.196955 -0.095472 0.001826
C 86.471174 -0.085166 -0.002940
C 87.659637 -0.066368 -0.009096
C 89.011997 -0.041583 0.006772
C 90.112265 -0.040292 0.023381
C 99.634032 -0.040292 0.023381
C 101.092258 -0.062129 0.005508
C 102.226187 -0.082882 0.004017
C 103.587568 -0.095472 0.001826
C 104.861787 -0.085166 -0.002940
C 106.050249 -0.066368 -0.009096
C 107.402610 -0.041583 0.006772
C 108.502878 -0.040292 0.023381
C 118.024645 -0.040292 0.023381
C 119.482871 -0.062129 0.005508
C 120.616799 -0.082882 0.004017
C 121.978181 -0.095472 0.001826
C 123.252400 -0.085166 -0.002940
C 124.440862 -0.066368 -0.009096
C 125.793223 -0.041583 0.006772
C 126.893490 -0.040292 0.023381
C 72.972314 0.044697 -0.013187
C 73.769929 0.111796 -1.380160
C 73.280392 0.519006 -2.603798
C 74.322770 0.354273 -3.552135
C 75.416649 -0.144107 -2.876560
N 75.091705 -0.219691 -1.545769
C 76.801302 -0.557148 -3.506937
C 76.789414 -1.037686 -4.856289
C 76.763000 -1.449113 -5.984968
C 76.734029 -1.954270 -7.320312
C 77.491784 -3.070097 -7.658590
C 77.429039 -3.525334 -8.963778
N 76.676259 -2.951033 -9.929560
C 75.951976 -1.869389 -9.563456
C 75.946374 -1.337377 -8.285778
C 77.938038 -0.492345 -2.768679
C 79.226600 -0.876839 -3.307240
C 80.141646 -0.714297 -2.357584
N 78.153279 -0.104819 -1.474761
C 79.482591 -0.217824 -1.165860
C 80.153032 0.044697 -0.013187
C 79.358870 0.575425 1.253056
C 79.867924 1.330751 2.289623
C 78.827170 1.505100 3.237584
C 77.712031 0.858070 2.746821
N 78.026151 0.360039 1.506754
C 76.319081 0.708659 3.473436
C 76.312617 0.780383 4.904135
C 76.304287 0.863480 6.103131
C 76.277315 0.980066 7.526416
C 75.185844 1.570438 8.154778
C 75.206239 1.667901 9.535350
N 76.222555 1.224282 10.309827
C 77.265912 0.654529 9.663780
C 77.340780 0.509985 8.288952
C 75.185045 0.503146 2.757066
C 73.894228 0.337714 3.394469
C 72.980797 0.151822 2.447704
C 73.642312 0.195164 1.159238
N 74.973121 0.400821 1.410161
H 72.281251 0.877987 -2.797431
H 74.276741 0.561077 -4.610333
H 75.741086 -0.432342 -0.794249
H 78.112298 -3.570223 -6.922575
H 78.001787 -4.393042 -9.275903
H 75.353096 -1.424471 -10.351947
H 75.344932 -0.467330 -8.046771
H 79.417120 -1.232577 -4.303953
H 81.190324 -0.923587 -2.472237
H 80.880021 1.698965 2.367605
H 78.889384 2.030021 4.178968
H 77.368257 -0.071762 0.863029
H 74.344459 1.945698 7.581745
H 74.377677 2.121328 10.071189
H 78.070952 0.303973 10.302768
H 78.203074 0.045201 7.823063
H 73.700773 0.355547 4.451830
H 71.931872 -0.000717 2.626045
C 91.362927 0.044697 -0.013187
C 92.160541 0.111796 -1.380160
C 91.671005 0.519006 -2.603798
C 92.713383 0.354273 -3.552135
C 93.807262 -0.144107 -2.876560
N 93.482318 -0.219691 -1.545769
C 95.191915 -0.557148 -3.506937
C 95.180026 -1.037686 -4.856289
C 95.153613 -1.449113 -5.984968
C 95.124642 -1.954270 -7.320312
C 95.882396 -3.070097 -7.658590
C 95.819652 -3.525334 -8.963778
N 95.066871 -2.951033 -9.929560
C 94.342588 -1.869389 -9.563456
C 94.336986 -1.337377 -8.285778
C 96.328651 -0.492345 -2.768679
C 97.617213 -0.876839 -3.307240
C 98.532259 -0.714297 -2.357584
N 96.543891 -0.104819 -1.474761
C 97.873204 -0.217824 -1.165860
C 98.543645 0.044697 -0.013187
C 97.749483 0.575425 1.253056
C 98.258536 1.330751 2.289623
C 97.217783 1.505100 3.237584
C 96.102644 0.858070 2.746821
N 96.416763 0.360039 1.506754
C 94.709694 0.708659 3.473436
C 94.703230 0.780383 4.904135
C 94.694900 0.863480 6.103131
C 94.667928 0.980066 7.526416
C 93.576457 1.570438 8.154778
C 93.596852 1.667901 9.535350
N 94.613167 1.224282 10.309827
C 95.656524 0.654529 9.663780
C 95.731393 0.509985 8.288952
C 93.575658 0.503146 2.757066
C 92.284841 0.337714 3.394469
C 91.371410 0.151822 2.447704
C 92.032924 0.195164 1.159238
N 93.363734 0.400821 1.410161
H 90.671864 0.877987 -2.797431
H 92.667353 0.561077 -4.610333
H 94.131699 -0.432342 -0.794249
H 96.502911 -3.570223 -6.922575
H 96.392399 -4.393042 -9.275903
H 93.743709 -1.424471 -10.351947
H 93.735545 -0.467330 -8.046771
H 97.807733 -1.232577 -4.303953
H 99.580937 -0.923587 -2.472237
H 99.270634 1.698965 2.367605
H 97.279997 2.030021 4.178968
H 95.758869 -0.071762 0.863029
H 92.735072 1.945698 7.581745
H 92.768290 2.121328 10.071189
H 96.461564 0.303973 10.302768
H 96.593686 0.045201 7.823063
H 92.091386 0.355547 4.451830
H 90.322485 -0.000717 2.626045
C 109.753540 0.044697 -0.013187
C 110.551154 0.111796 -1.380160
C 110.061618 0.519006 -2.603798
C 111.103996 0.354273 -3.552135
C 112.197874 -0.144107 -2.876560
N 111.872931 -0.219691 -1.545769
C 113.582528 -0.557148 -3.506937
C 113.570639 -1.037686 -4.856289
C 113.544226 -1.449113 -5.984968
C 113.515255 -1.954270 -7.320312
C 114.273009 -3.070097 -7.658590
C 114.210265 -3.525334 -8.963778
N 113.457484 -2.951033 -9.929560
C 112.733201 -1.869389 -9.563456
C 112.727599 -1.337377 -8.285778
C 114.719264 -0.492345 -2.768679
C 116.007826 -0.876839 -3.307240
C 116.922872 -0.714297 -2.357584
N 114.934504 -0.104819 -1.474761
C 116.263817 -0.217824 -1.165860
C 116.934257 0.044697 -0.013187
C 116.140095 0.575425 1.253056
C 116.649149 1.330751 2.289623
C 115.608396 1.505100 3.237584
C 114.493256 0.858070 2.746821
N 114.807376 0.360039 1.506754
C 113.100307 0.708659 3.473436
C 113.093843 0.780383 4.904135
C 113.085513 0.863480 6.103131
C 113.058541 0.980066 7.526416
C 111.967070 1.570438 8.154778
C 111.987464 1.667901 9.535350
N 113.003780 1.224282 10.309827
C 114.047137 0.654529 9.663780
C 114.122006 0.509985 8.288952
C 111.966271 0.503146 2.757066
C 110.675454 0.337714 3.394469
C 109.762022 0.151822 2.447704
C 110.423537 0.195164 1.159238
N 111.754347 0.400821 1.410161
H 109.062477 0.877987 -2.797431
H 111.057966 0.561077 -4.610333
H 112.522312 -0.432342 -0.794249
H 114.893524 -3.570223 -6.922575
H 114.783012 -4.393042 -9.275903
H 112.134321 -1.424471 -10.351947
H 112.126158 -0.467330 -8.046771
H 116.198346 -1.232577 -4.303953
H 117.971549 -0.923587 -2.472237
H 117.661246 1.698965 2.367605
H 115.670610 2.030021 4.178968
H 114.149482 -0.071762 0.863029
H 111.125684 1.945698 7.581745
H 111.158902 2.121328 10.071189
H 114.852177 0.303973 10.302768
H 114.984299 0.045201 7.823063
H 110.481999 0.355547 4.451830
H 108.713098 -0.000717 2.626045
