252

Cu 53.263668 -0.063960 -0.036400
C 49.930529 0.087052 0.070010
C 50.597341 1.243998 0.048610
C 49.948970 2.549616 0.047406
C 50.892610 3.471686 0.039445
C 52.197757 2.796637 0.037377
N 52.017775 1.380411 0.042412
C 53.391707 3.421528 0.067294
C 53.429231 4.900231 0.074809
C 53.219892 5.615506 -1.112165
C 53.241546 7.013845 -1.109228
O 53.027269 7.695023 -2.307616
C 53.474610 7.709504 0.090924
O 53.490239 9.105037 0.086858
C 53.688385 6.993490 1.283016
O 53.921231 7.676189 2.475657
C 53.665909 5.592260 1.269623
C 54.689915 2.697423 0.105649
C 55.989188 3.366949 0.237073
C 56.923514 2.439779 0.222419
N 54.824538 1.409649 0.005064
C 56.230409 1.165878 0.070891
C 56.825618 -0.034831 -0.037506
C 56.072659 -1.300362 -0.217657
C 56.637948 -2.462303 -0.522784
C 55.590452 -3.461363 -0.552982
C 54.448762 -2.847196 -0.266925
N 54.662513 -1.450478 -0.040636
C 53.139652 -3.540910 -0.148456
C 53.120836 -5.019691 -0.167062
C 53.267466 -5.737694 1.026346
C 53.246182 -7.136156 1.017488
O 53.387911 -7.821440 2.224220
C 53.082855 -7.828122 -0.196497
O 53.066024 -9.223556 -0.197513
C 52.940951 -7.108341 -1.397041
O 52.783511 -7.787745 -2.604250
C 52.959123 -5.707029 -1.377027
C 51.976978 -2.875735 -0.026362
C 50.653048 -3.483906 0.092353
C 49.794037 -2.485263 0.144088
C 50.560148 -1.242632 0.064095
N 51.834881 -1.457384 -0.036349
H 48.847645 0.119836 0.094630
H 48.884343 2.745376 0.056519
H 50.708930 4.538336 0.046002
H 53.036160 5.085184 -2.038857
H 53.032243 8.706463 -2.360591
H 53.640612 9.645292 0.929865
H 54.077544 7.183863 3.347578
H 53.828635 5.041661 2.188282
H 56.172754 4.429509 0.326987
H 57.987302 2.622955 0.297174
H 57.687600 -2.647212 -0.704757
H 55.725346 -4.516129 -0.755925
H 53.394641 -5.209939 1.963795
H 53.369594 -8.832507 2.274587
H 52.952131 -9.761673 -1.047940
H 52.683673 -7.293445 -3.483668
H 52.848784 -5.153546 -2.302071
H 50.401156 -4.536065 0.126847
H 48.719039 -2.583066 0.227533
Cu 86.906817 -0.006015 -0.033105
C 90.239957 -0.168115 0.055502
C 89.573145 -1.315179 -0.096894
C 90.221516 -2.612247 -0.246077
C 89.277875 -3.527473 -0.358499
C 87.972729 -2.856539 -0.284040
N 88.152711 -1.450011 -0.118514
C 86.778778 -3.480794 -0.325144
C 86.741254 -4.950820 -0.485282
C 86.950594 -5.526947 -1.745680
C 86.928939 -6.916608 -1.901257
O 87.143216 -7.457564 -3.169131
C 86.695875 -7.743815 -0.787690
O 86.680247 -9.129894 -0.949907
C 86.482100 -7.167534 0.477877
O 86.249254 -7.981013 1.585451
C 86.504576 -5.773816 0.623393
C 85.480571 -2.765703 -0.204962
C 84.181297 -3.445811 -0.150273
C 83.246972 -2.522955 -0.059742
N 85.345947 -1.474827 -0.158936
C 83.940077 -1.240088 -0.065903
C 83.344868 -0.034831 -0.037506
C 84.097827 1.242964 -0.073053
C 83.532538 2.432002 -0.244514
C 84.580034 3.428047 -0.161278
C 85.721723 2.785414 0.053322
N 85.507972 1.372049 0.119841
C 87.030834 3.461230 0.249657
C 87.049649 4.932590 0.398784
C 86.903020 5.510698 1.665884
C 86.924304 6.901152 1.815593
O 86.782575 7.445242 3.092222
C 87.087631 7.726258 0.687863
O 87.104461 9.112815 0.845020
C 87.229535 7.147192 -0.586529
O 87.386975 7.959049 -1.708951
C 87.211362 5.752642 -0.725476
C 88.193507 2.786502 0.295570
C 89.517437 3.377298 0.482454
C 90.376448 2.379227 0.420663
C 89.610338 1.153670 0.200339
N 88.335605 1.378424 0.124883
H 91.322840 -0.203478 0.076247
H 91.286143 -2.807778 -0.259211
H 89.461556 -4.587992 -0.472884
H 87.134325 -4.895006 -2.606290
H 87.138242 -8.456481 -3.336407
H 86.529873 -9.762218 -0.173568
H 86.092941 -7.590689 2.507556
H 86.341850 -5.330891 1.598540
H 83.997731 -4.511714 -0.181375
H 82.183184 -2.713424 -0.006231
H 82.482886 2.636345 -0.404356
H 84.445140 4.499018 -0.243360
H 86.775844 4.880088 2.537473
H 86.800891 8.444084 3.256865
H 87.218354 9.743857 0.061066
H 87.486813 7.567613 -2.638728
H 87.321702 5.307576 -1.707294
H 89.769329 4.418767 0.635982
H 91.451447 2.466941 0.514656
C 58.784552 -0.034831 -0.037506
C 60.006470 -0.034831 -0.037506
C 69.474284 -0.034831 -0.037506
C 70.696202 -0.034831 -0.037506
C 80.164015 -0.034831 -0.037506
C 81.385933 -0.034831 -0.037506
Cu 64.701464 -0.047758 -0.056762
C 61.291833 0.037115 0.039965
C 61.948299 1.205752 0.159535
C 61.306710 2.504808 0.371967
C 62.244769 3.431220 0.394216
C 63.543582 2.779728 0.196917
N 63.365650 1.368119 0.055498
C 64.728536 3.423952 0.144881
C 64.758256 4.899615 0.248154
C 65.220752 5.512571 1.421584
C 65.263387 6.909726 1.520374
O 65.716325 7.520305 2.690298
C 64.848382 7.700562 0.439531
O 64.900903 9.089955 0.555289
C 64.385998 7.089570 -0.741565
O 63.974535 7.872605 -1.818996
C 64.341887 5.691468 -0.831878
C 66.029596 2.725513 -0.008360
C 67.302975 3.417224 -0.243425
C 68.256751 2.508405 -0.272905
N 66.195715 1.443652 0.097529
C 67.598105 1.226110 -0.061005
C 68.213152 0.037115 0.039965
C 67.464204 -1.221726 0.238354
C 68.002384 -2.353297 0.674725
C 66.969923 -3.370252 0.615604
C 65.871679 -2.790468 0.144907
N 66.093362 -1.405223 -0.114705
C 64.612982 -3.508891 -0.167311
C 64.674908 -4.973766 -0.390248
C 65.409684 -5.487827 -1.465596
C 65.481058 -6.866496 -1.680993
O 66.212297 -7.336649 -2.772473
C 64.822349 -7.755215 -0.809145
O 64.916608 -9.126264 -1.062478
C 64.090167 -7.238748 0.288515
O 63.418429 -8.056041 1.201121
C 64.026081 -5.854820 0.485962
C 63.436669 -2.860423 -0.270915
C 62.155247 -3.462326 -0.624616
C 61.265988 -2.492008 -0.566626
C 61.968058 -1.262759 -0.181664
N 63.237171 -1.470748 -0.009219
H 60.250309 2.703475 0.496880
H 62.059908 4.487164 0.542144
H 65.545995 4.904930 2.257940
H 66.007083 6.975851 3.498501
H 64.608293 9.704944 -0.197902
H 63.614696 7.458384 -2.671322
H 63.988165 5.221504 -1.743256
H 67.454472 4.481445 -0.369042
H 69.310147 2.706412 -0.422523
H 69.027441 -2.504688 0.987351
H 67.087214 -4.415101 0.872528
H 65.922991 -4.815261 -2.143495
H 66.295255 -8.324286 -2.983173
H 64.466549 -9.839763 -0.505375
H 63.409511 -9.064517 1.158433
H 63.469807 -5.464017 1.330155
H 61.948037 -4.490132 -0.891366
H 60.211087 -2.606215 -0.780089
Cu 75.391195 -0.047758 -0.056762
C 71.981565 0.037115 0.039965
C 72.638031 1.205752 0.159535
C 71.996442 2.504808 0.371967
C 72.934501 3.431220 0.394216
C 74.233314 2.779728 0.196917
N 74.055382 1.368119 0.055498
C 75.418268 3.423952 0.144881
C 75.447988 4.899615 0.248154
C 75.910484 5.512571 1.421584
C 75.953119 6.909726 1.520374
O 76.406057 7.520305 2.690298
C 75.538114 7.700562 0.439531
O 75.590634 9.089955 0.555289
C 75.075729 7.089570 -0.741565
O 74.664267 7.872605 -1.818996
C 75.031618 5.691468 -0.831878
C 76.719328 2.725513 -0.008360
C 77.992706 3.417224 -0.243425
C 78.946482 2.508405 -0.272905
N 76.885447 1.443652 0.097529
C 78.287837 1.226110 -0.061005
C 78.902884 0.037115 0.039965
C 78.153935 -1.221726 0.238354
C 78.692115 -2.353297 0.674725
C 77.659654 -3.370252 0.615604
C 76.561411 -2.790468 0.144907
N 76.783093 -1.405223 -0.114705
C 75.302713 -3.508891 -0.167311
C 75.364640 -4.973766 -0.390248
C 76.099416 -5.487827 -1.465596
C 76.170789 -6.866496 -1.680993
O 76.902029 -7.336649 -2.772473
C 75.512080 -7.755215 -0.809145
O 75.606340 -9.126264 -1.062478
C 74.779899 -7.238748 0.288515
O 74.108160 -8.056041 1.201121
C 74.715812 -5.854820 0.485962
C 74.126400 -2.860423 -0.270915
C 72.844978 -3.462326 -0.624616
C 71.955720 -2.492008 -0.566626
C 72.657790 -1.262759 -0.181664
N 73.926902 -1.470748 -0.009219
H 70.940040 2.703475 0.496880
H 72.749640 4.487164 0.542144
H 76.235726 4.904930 2.257940
H 76.696815 6.975851 3.498501
H 75.298024 9.704944 -0.197902
H 74.304427 7.458384 -2.671322
H 74.677897 5.221504 -1.743256
H 78.144203 4.481445 -0.369042
H 79.999879 2.706412 -0.422523
H 79.717172 -2.504688 0.987351
H 77.776945 -4.415101 0.872528
H 76.612723 -4.815261 -2.143495
H 76.984986 -8.324286 -2.983173
H 75.156281 -9.839763 -0.505375
H 74.099243 -9.064517 1.158433
H 74.159539 -5.464017 1.330155
H 72.637768 -4.490132 -0.891366
H 70.900818 -2.606215 -0.780089
