266

Fe 50.052491 0.004992 -0.067287
C 46.720614 0.094832 0.076662
C 47.375287 -0.236231 1.193441
C 46.716002 -0.636701 2.430507
C 47.650731 -0.864572 3.334449
C 48.960754 -0.606865 2.720474
N 48.792456 -0.217560 1.356701
C 50.149968 -0.703566 3.350870
C 50.192048 -1.076054 4.783577
C 49.710224 -0.192948 5.762410
C 49.766590 -0.542581 7.114555
C 50.315744 -1.772482 7.502831
S 50.378239 -2.220314 9.203773
O 50.417637 -0.981787 10.055425
O 49.014501 -3.125830 9.586716
O 51.616409 -3.031749 9.465656
C 50.797309 -2.654918 6.526385
C 50.739837 -2.307245 5.173730
C 51.445946 -0.442888 2.670981
C 52.727844 -0.320084 3.375849
C 53.667640 -0.126895 2.472880
N 51.594599 -0.324847 1.387164
C 52.992464 -0.121552 1.180949
C 53.592123 -0.011303 -0.015571
C 52.833050 -0.000380 -1.285701
C 53.364803 -0.247026 -2.476181
C 52.327576 -0.027238 -3.465485
C 51.231862 0.344172 -2.813340
N 51.461477 0.377712 -1.403886
C 49.960016 0.743257 -3.468945
C 49.991646 1.127184 -4.901339
C 49.298737 0.368736 -5.858741
C 49.350755 0.722442 -7.210106
C 50.096719 1.835955 -7.619442
S 50.177629 2.272093 -9.323418
O 50.335910 3.760046 -9.466620
O 51.480361 1.493708 -10.045623
O 48.908079 1.857057 -10.011916
C 50.802370 2.584403 -6.667808
C 50.750855 2.232088 -5.316145
C 48.796149 0.766161 -2.791308
C 47.495661 1.177299 -3.317668
C 46.628457 0.989200 -2.341668
C 47.366837 0.473297 -1.190136
N 48.630844 0.339203 -1.440696
H 45.636991 0.088005 0.094927
H 45.650999 -0.741573 2.593203
H 47.455825 -1.188252 4.348431
H 49.291841 0.764490 5.476715
H 49.382383 0.145968 7.856123
H 49.118770 -3.351913 10.545713
H 51.216161 -3.611700 6.811324
H 51.119234 -2.997022 4.429662
H 52.894040 -0.373604 4.443761
H 54.721863 -0.001714 2.681064
H 54.388056 -0.531449 -2.681801
H 52.439015 -0.122525 -4.537835
H 48.724476 -0.499035 -5.558038
H 48.814359 0.124642 -7.935917
H 52.272440 1.790970 -9.530351
H 51.395278 3.437754 -6.971611
H 51.301748 2.819815 -4.591971
H 47.262156 1.563028 -4.301198
H 45.566651 1.190503 -2.395696
Fe 92.319822 -0.015262 0.038507
C 95.651699 0.121394 -0.062082
C 94.997025 0.226215 -1.222173
C 95.656310 0.310965 -2.519680
C 94.721581 0.433071 -3.443870
C 93.411558 0.445789 -2.778125
N 93.579857 0.303865 -1.366993
C 92.222344 0.588758 -3.399663
C 92.180264 0.771770 -4.868643
C 92.662088 1.953961 -5.452096
C 92.605723 2.128457 -6.837769
C 92.056568 1.128927 -7.652847
S 91.994074 1.340993 -9.398925
O 91.954676 2.806500 -9.732916
O 93.357812 0.640942 -10.089238
O 90.755904 0.683657 -9.941990
C 91.575003 -0.051759 -7.071366
C 91.632476 -0.228265 -5.685943
C 90.926366 0.579892 -2.671567
C 89.644468 0.954352 -3.281239
C 88.704673 0.800374 -2.370763
N 90.777714 0.215416 -1.434927
C 89.379848 0.328172 -1.168208
C 88.780189 -0.011303 -0.015571
C 89.539263 -0.470268 1.168785
C 89.007510 -1.139172 2.183992
C 90.044736 -1.300318 3.184523
C 91.140450 -0.714304 2.715668
N 90.910835 -0.162561 1.418261
C 92.412297 -0.585581 3.472317
C 92.380666 -0.757847 4.945230
C 93.073576 -1.816278 5.554809
C 93.021557 -1.986701 6.941261
C 92.275593 -1.103108 7.732924
S 92.194684 -1.327162 9.477502
O 92.036403 0.002691 10.160145
O 90.891951 -2.317252 9.861150
O 93.464233 -1.967145 9.964026
C 91.569942 -0.056099 7.125013
C 91.621458 0.115725 5.738797
C 93.576164 -0.314015 2.851053
C 94.876651 -0.126355 3.492047
C 95.743856 0.059326 2.515584
C 95.005475 0.005213 1.254927
N 93.741468 -0.211942 1.438244
H 96.735322 0.121795 -0.081577
H 96.721313 0.273599 -2.709606
H 94.916488 0.506787 -4.505705
H 93.080471 2.738181 -4.832976
H 92.989930 3.042215 -7.272591
H 93.253543 0.785045 -11.063929
H 91.156152 -0.835649 -7.689540
H 91.253079 -1.144087 -5.249252
H 89.478272 1.299044 -4.293409
H 87.650449 0.993595 -2.517992
H 87.984256 -1.479428 2.270024
H 89.933297 -1.784934 4.145856
H 93.647837 -2.511628 4.954861
H 93.557953 -2.810306 7.394958
H 90.099873 -1.850696 9.492103
H 90.977034 0.624705 7.722516
H 91.070565 0.929366 5.282901
H 95.110157 -0.131162 4.548501
H 96.805662 0.226440 2.640142
C 57.040974 0.001134 -0.013129
C 55.788703 -0.018047 -0.017478
C 58.354642 0.000368 -0.011197
C 59.857776 -0.018047 -0.017478
C 70.448894 0.001134 -0.013129
C 69.196623 -0.018047 -0.017478
C 71.762562 0.000368 -0.011197
C 73.265695 -0.018047 -0.017478
C 83.856813 0.001134 -0.013129
C 82.604543 -0.018047 -0.017478
C 85.170481 0.000368 -0.011197
C 86.673615 -0.018047 -0.017478
Fe 64.454499 -0.029644 -0.032876
C 61.073013 0.013201 0.017483
C 61.728449 1.010605 0.639629
C 61.087486 2.073380 1.416775
C 62.024331 2.894884 1.846828
C 63.321970 2.410259 1.365178
N 63.143862 1.211119 0.607060
C 64.506933 3.015282 1.595356
C 64.543519 4.287409 2.353654
C 65.123138 4.328337 3.630651
C 65.169019 5.529034 4.344777
C 64.644303 6.702301 3.786356
S 64.686107 8.209921 4.695082
O 64.733782 9.379939 3.752375
O 63.318648 8.323183 5.665792
O 65.913952 8.241832 5.561185
C 64.064283 6.663182 2.511035
C 64.018493 5.463339 1.795460
C 65.803742 2.461419 1.129341
C 67.072226 3.200229 1.175834
C 68.024080 2.394895 0.749951
N 65.971202 1.253767 0.687804
C 67.369195 1.134500 0.423810
C 67.984563 0.013201 0.017483
C 67.234182 -1.215977 -0.313930
C 67.766051 -2.430432 -0.364769
C 66.733712 -3.330995 -0.841936
C 65.643171 -2.603036 -1.053575
N 65.869268 -1.232674 -0.729206
C 64.388953 -3.122460 -1.648525
C 64.450140 -4.367644 -2.451645
C 65.222685 -4.411213 -3.622187
C 65.291505 -5.585072 -4.378101
C 64.598582 -6.731681 -3.965026
S 64.665748 -8.212292 -4.916017
O 64.879417 -9.390742 -4.007332
O 63.228065 -8.402942 -5.766137
O 65.807149 -8.145237 -5.891878
C 63.832348 -6.692224 -2.792786
C 63.761029 -5.518514 -2.037159
C 63.217130 -2.477470 -1.491130
C 61.940815 -2.858627 -2.087193
C 61.052798 -1.998626 -1.631744
C 61.750962 -1.059065 -0.747323
N 63.016084 -1.331833 -0.663281
H 60.032542 2.190131 1.625451
H 61.837798 3.768367 2.457807
H 65.534549 3.429341 4.073039
H 65.610900 5.542167 5.332975
H 62.554294 8.253829 5.038808
H 63.646384 7.559444 2.071032
H 63.573140 5.448416 0.808328
H 67.221791 4.221696 1.500628
H 69.073292 2.647401 0.672605
H 68.786809 -2.700023 -0.128636
H 66.846325 -4.391198 -1.027836
H 65.764311 -3.533281 -3.952806
H 65.883231 -5.595851 -5.284213
H 62.527627 -8.478909 -5.069900
H 63.290447 -7.570172 -2.464579
H 63.170753 -5.505260 -1.129114
H 61.736522 -3.671077 -2.772166
H 60.001768 -2.001537 -1.887148
Fe 77.862419 -0.029644 -0.032876
C 74.480932 0.013201 0.017483
C 75.136369 1.010605 0.639629
C 74.495406 2.073380 1.416775
C 75.432250 2.894884 1.846828
C 76.729890 2.410259 1.365178
N 76.551782 1.211119 0.607060
C 77.914853 3.015282 1.595356
C 77.951439 4.287409 2.353654
C 78.531058 4.328337 3.630651
C 78.576939 5.529034 4.344777
C 78.052223 6.702301 3.786356
S 78.094027 8.209921 4.695082
O 78.141702 9.379939 3.752375
O 76.726568 8.323183 5.665792
O 79.321872 8.241832 5.561185
C 77.472202 6.663182 2.511035
C 77.426412 5.463339 1.795460
C 79.211662 2.461419 1.129341
C 80.480146 3.200229 1.175834
C 81.432000 2.394895 0.749951
N 79.379122 1.253767 0.687804
C 80.777114 1.134500 0.423810
C 81.392483 0.013201 0.017483
C 80.642102 -1.215977 -0.313930
C 81.173971 -2.430432 -0.364769
C 80.141631 -3.330995 -0.841936
C 79.051090 -2.603036 -1.053575
N 79.277187 -1.232674 -0.729206
C 77.796873 -3.122460 -1.648525
C 77.858059 -4.367644 -2.451645
C 78.630605 -4.411213 -3.622187
C 78.699424 -5.585072 -4.378101
C 78.006502 -6.731681 -3.965026
S 78.073667 -8.212292 -4.916017
O 78.287336 -9.390742 -4.007332
O 76.635985 -8.402942 -5.766137
O 79.215069 -8.145237 -5.891878
C 77.240268 -6.692224 -2.792786
C 77.168949 -5.518514 -2.037159
C 76.625050 -2.477470 -1.491130
C 75.348735 -2.858627 -2.087193
C 74.460718 -1.998626 -1.631744
C 75.158882 -1.059065 -0.747323
N 76.424004 -1.331833 -0.663281
H 73.440462 2.190131 1.625451
H 75.245718 3.768367 2.457807
H 78.942469 3.429341 4.073039
H 79.018820 5.542167 5.332975
H 75.962213 8.253829 5.038808
H 77.054304 7.559444 2.071032
H 76.981060 5.448416 0.808328
H 80.629711 4.221696 1.500628
H 82.481212 2.647401 0.672605
H 82.194729 -2.700023 -0.128636
H 80.254245 -4.391198 -1.027836
H 79.172231 -3.533281 -3.952806
H 79.291151 -5.595851 -5.284213
H 75.935546 -8.478909 -5.069900
H 76.698367 -7.570172 -2.464579
H 76.578673 -5.505260 -1.129114
H 75.144441 -3.671077 -2.772166
H 73.409688 -2.001537 -1.887148
