 xtb: 6.5.1 (b24c23e)
          07302203343D

140159  0     0  0            999 V2000
   15.0504    0.0289   -0.0008 Ni  0  0  0  0  0  0  0  0  0  0  0  0
   11.6630    0.0944   -0.0688 C   0  0  0  0  0  0  0  0  0  0  0  0
   12.3095    0.9009    0.8454 C   0  0  0  0  0  0  0  0  0  0  0  0
   11.6319    1.7272    1.7962 C   0  0  0  0  0  0  0  0  0  0  0  0
   12.5855    2.4453    2.4360 C   0  0  0  0  0  0  0  0  0  0  0  0
   13.8442    2.0693    1.8629 C   0  0  0  0  0  0  0  0  0  0  0  0
   13.6676    1.0879    0.9197 N   0  0  0  0  0  0  0  0  0  0  0  0
   15.0554    2.6755    2.1775 C   0  0  0  0  0  0  0  0  0  0  0  0
   15.0641    3.8105    3.1273 C   0  0  0  0  0  0  0  0  0  0  0  0
   14.3286    4.9703    2.8676 C   0  0  0  0  0  0  0  0  0  0  0  0
   14.3432    6.0296    3.7549 C   0  0  0  0  0  0  0  0  0  0  0  0
   15.0859    5.9558    4.9400 C   0  0  0  0  0  0  0  0  0  0  0  0
   15.1085    7.0623    5.7753 N   0  0  0  0  0  0  0  0  0  0  0  0
   15.4414    6.8975    7.1838 C   0  0  0  0  0  0  0  0  0  0  0  0
   15.8272    4.7999    5.2021 C   0  0  0  0  0  0  0  0  0  0  0  0
   15.8138    3.7471    4.3035 C   0  0  0  0  0  0  0  0  0  0  0  0
   16.2613    2.2537    1.6306 C   0  0  0  0  0  0  0  0  0  0  0  0
   17.5150    2.9025    1.8664 C   0  0  0  0  0  0  0  0  0  0  0  0
   18.4670    2.1468    1.2668 C   0  0  0  0  0  0  0  0  0  0  0  0
   16.4404    1.1356    0.8472 N   0  0  0  0  0  0  0  0  0  0  0  0
   17.7923    1.0449    0.6596 C   0  0  0  0  0  0  0  0  0  0  0  0
   18.4580   -0.0214    0.0475 C   0  0  0  0  0  0  0  0  0  0  0  0
   17.7785   -1.0728   -0.5757 C   0  0  0  0  0  0  0  0  0  0  0  0
   18.4366   -2.2008   -1.1521 C   0  0  0  0  0  0  0  0  0  0  0  0
   17.4791   -2.9366   -1.7675 C   0  0  0  0  0  0  0  0  0  0  0  0
   16.2396   -2.2469   -1.5764 C   0  0  0  0  0  0  0  0  0  0  0  0
   16.4303   -1.1260   -0.7995 N   0  0  0  0  0  0  0  0  0  0  0  0
   15.0396   -2.6317   -2.1620 C   0  0  0  0  0  0  0  0  0  0  0  0
   15.0403   -3.7756   -3.1009 C   0  0  0  0  0  0  0  0  0  0  0  0
   15.8393   -3.7559   -4.2459 C   0  0  0  0  0  0  0  0  0  0  0  0
   15.8449   -4.8178   -5.1339 C   0  0  0  0  0  0  0  0  0  0  0  0
   15.0447   -5.9385   -4.8930 C   0  0  0  0  0  0  0  0  0  0  0  0
   15.0540   -7.0530   -5.7176 N   0  0  0  0  0  0  0  0  0  0  0  0
   15.4514   -6.9164   -7.1123 C   0  0  0  0  0  0  0  0  0  0  0  0
   14.2514   -5.9686   -3.7392 C   0  0  0  0  0  0  0  0  0  0  0  0
   14.2459   -4.9006   -2.8622 C   0  0  0  0  0  0  0  0  0  0  0  0
   13.8412   -1.9765   -1.9001 C   0  0  0  0  0  0  0  0  0  0  0  0
   12.5933   -2.3053   -2.5236 C   0  0  0  0  0  0  0  0  0  0  0  0
   11.6439   -1.5441   -1.9290 C   0  0  0  0  0  0  0  0  0  0  0  0
   12.3141   -0.7399   -0.9542 C   0  0  0  0  0  0  0  0  0  0  0  0
   13.6654   -0.9819   -0.9708 N   0  0  0  0  0  0  0  0  0  0  0  0
   10.5796    0.1162   -0.0914 H   0  0  0  0  0  0  0  0  0  0  0  0
   10.5634    1.7410    1.9428 H   0  0  0  0  0  0  0  0  0  0  0  0
   12.4598    3.1652    3.2284 H   0  0  0  0  0  0  0  0  0  0  0  0
   13.7577    5.0468    1.9486 H   0  0  0  0  0  0  0  0  0  0  0  0
   13.7777    6.9291    3.5353 H   0  0  0  0  0  0  0  0  0  0  0  0
   14.3148    7.6758    5.6352 H   0  0  0  0  0  0  0  0  0  0  0  0
   16.4931    6.6287    7.2904 H   0  0  0  0  0  0  0  0  0  0  0  0
   14.8223    6.1267    7.6569 H   0  0  0  0  0  0  0  0  0  0  0  0
   15.2732    7.8516    7.6833 H   0  0  0  0  0  0  0  0  0  0  0  0
   16.4178    4.7159    6.1060 H   0  0  0  0  0  0  0  0  0  0  0  0
   16.3796    2.8490    4.5263 H   0  0  0  0  0  0  0  0  0  0  0  0
   17.6407    3.8222    2.4141 H   0  0  0  0  0  0  0  0  0  0  0  0
   19.5325    2.3073    1.2318 H   0  0  0  0  0  0  0  0  0  0  0  0
   19.4955   -2.3925   -1.0851 H   0  0  0  0  0  0  0  0  0  0  0  0
   17.5922   -3.8673   -2.2991 H   0  0  0  0  0  0  0  0  0  0  0  0
   16.4509   -2.8846   -4.4535 H   0  0  0  0  0  0  0  0  0  0  0  0
   16.4753   -4.7682   -6.0132 H   0  0  0  0  0  0  0  0  0  0  0  0
   14.2300   -7.6312   -5.6053 H   0  0  0  0  0  0  0  0  0  0  0  0
   14.8892   -6.1216   -7.6158 H   0  0  0  0  0  0  0  0  0  0  0  0
   15.2589   -7.8659   -7.6118 H   0  0  0  0  0  0  0  0  0  0  0  0
   16.5181   -6.6980   -7.1774 H   0  0  0  0  0  0  0  0  0  0  0  0
   13.6391   -6.8408   -3.5357 H   0  0  0  0  0  0  0  0  0  0  0  0
   13.6349   -4.9435   -1.9671 H   0  0  0  0  0  0  0  0  0  0  0  0
   12.4717   -3.0247   -3.3172 H   0  0  0  0  0  0  0  0  0  0  0  0
   10.5829   -1.5155   -2.1205 H   0  0  0  0  0  0  0  0  0  0  0  0
   33.6067   -0.0075   -0.0302 Ni  0  0  0  0  0  0  0  0  0  0  0  0
   36.9940    0.0502   -0.1111 C   0  0  0  0  0  0  0  0  0  0  0  0
   36.3490   -1.0192   -0.6980 C   0  0  0  0  0  0  0  0  0  0  0  0
   37.0281   -2.1267   -1.2966 C   0  0  0  0  0  0  0  0  0  0  0  0
   36.0753   -2.9103   -1.8558 C   0  0  0  0  0  0  0  0  0  0  0  0
   34.8157   -2.2709   -1.6135 C   0  0  0  0  0  0  0  0  0  0  0  0
   34.9909   -1.1353   -0.8628 N   0  0  0  0  0  0  0  0  0  0  0  0
   33.6050   -2.7124   -2.1358 C   0  0  0  0  0  0  0  0  0  0  0  0
   33.5977   -3.8870   -3.0361 C   0  0  0  0  0  0  0  0  0  0  0  0
   34.3339   -3.8855   -4.2242 C   0  0  0  0  0  0  0  0  0  0  0  0
   34.3204   -4.9821   -5.0651 C   0  0  0  0  0  0  0  0  0  0  0  0
   33.5780   -6.1230   -4.7357 C   0  0  0  0  0  0  0  0  0  0  0  0
   33.5563   -7.1790   -5.6339 N   0  0  0  0  0  0  0  0  0  0  0  0
   33.2229   -8.5179   -5.1668 C   0  0  0  0  0  0  0  0  0  0  0  0
   32.8359   -6.1277   -3.5510 C   0  0  0  0  0  0  0  0  0  0  0  0
   32.8484   -5.0216   -2.7187 C   0  0  0  0  0  0  0  0  0  0  0  0
   32.3983   -2.0877   -1.8442 C   0  0  0  0  0  0  0  0  0  0  0  0
   31.1452   -2.4609   -2.4263 C   0  0  0  0  0  0  0  0  0  0  0  0
   30.1924   -1.7108   -1.8212 C   0  0  0  0  0  0  0  0  0  0  0  0
   32.2179   -1.0784   -0.9252 N   0  0  0  0  0  0  0  0  0  0  0  0
   30.8659   -0.8761   -0.8790 C   0  0  0  0  0  0  0  0  0  0  0  0
   30.1990   -0.0454    0.0267 C   0  0  0  0  0  0  0  0  0  0  0  0
   30.8772    0.7927    0.9170 C   0  0  0  0  0  0  0  0  0  0  0  0
   30.2177    1.6011    1.8914 C   0  0  0  0  0  0  0  0  0  0  0  0
   31.1744    2.3623    2.4766 C   0  0  0  0  0  0  0  0  0  0  0  0
   32.4147    2.0255    1.8468 C   0  0  0  0  0  0  0  0  0  0  0  0
   32.2255    1.0228    0.9220 N   0  0  0  0  0  0  0  0  0  0  0  0
   33.6143    2.6811    2.0963 C   0  0  0  0  0  0  0  0  0  0  0  0
   33.6121    3.8469    3.0078 C   0  0  0  0  0  0  0  0  0  0  0  0
   32.8142    4.9602    2.7368 C   0  0  0  0  0  0  0  0  0  0  0  0
   32.8070    6.0588    3.5789 C   0  0  0  0  0  0  0  0  0  0  0  0
   33.6045    6.0682    4.7271 C   0  0  0  0  0  0  0  0  0  0  0  0
   33.5933    7.1161    5.6348 N   0  0  0  0  0  0  0  0  0  0  0  0
   33.1983    8.4478    5.1960 C   0  0  0  0  0  0  0  0  0  0  0  0
   34.3967    4.9485    5.0103 C   0  0  0  0  0  0  0  0  0  0  0  0
   34.4039    3.8594    4.1596 C   0  0  0  0  0  0  0  0  0  0  0  0
   34.8133    2.2838    1.5145 C   0  0  0  0  0  0  0  0  0  0  0  0
   36.0604    2.9651    1.7003 C   0  0  0  0  0  0  0  0  0  0  0  0
   37.0105    2.2212    1.0853 C   0  0  0  0  0  0  0  0  0  0  0  0
   36.3416    1.0945    0.5116 C   0  0  0  0  0  0  0  0  0  0  0  0
   34.9903    1.1612    0.7450 N   0  0  0  0  0  0  0  0  0  0  0  0
   38.0773    0.0696   -0.1384 H   0  0  0  0  0  0  0  0  0  0  0  0
   38.0968   -2.2706   -1.2790 H   0  0  0  0  0  0  0  0  0  0  0  0
   36.2022   -3.8412   -2.3843 H   0  0  0  0  0  0  0  0  0  0  0  0
   34.9045   -3.0049   -4.4986 H   0  0  0  0  0  0  0  0  0  0  0  0
   34.8865   -4.9632   -5.9904 H   0  0  0  0  0  0  0  0  0  0  0  0
   34.3504   -7.1757   -6.2626 H   0  0  0  0  0  0  0  0  0  0  0  0
   32.1699   -8.5644   -4.8858 H   0  0  0  0  0  0  0  0  0  0  0  0
   33.8385   -8.8105   -4.3085 H   0  0  0  0  0  0  0  0  0  0  0  0
   33.3955   -9.2136   -5.9880 H   0  0  0  0  0  0  0  0  0  0  0  0
   32.2454   -6.9919   -3.2728 H   0  0  0  0  0  0  0  0  0  0  0  0
   32.2820   -5.0440   -1.7940 H   0  0  0  0  0  0  0  0  0  0  0  0
   31.0205   -3.1970   -3.2036 H   0  0  0  0  0  0  0  0  0  0  0  0
   29.1270   -1.7125   -1.9863 H   0  0  0  0  0  0  0  0  0  0  0  0
   29.1586    1.5774    2.0915 H   0  0  0  0  0  0  0  0  0  0  0  0
   31.0601    3.0841    3.2687 H   0  0  0  0  0  0  0  0  0  0  0  0
   32.2046    4.9727    1.8396 H   0  0  0  0  0  0  0  0  0  0  0  0
   32.1777    6.9064    3.3368 H   0  0  0  0  0  0  0  0  0  0  0  0
   34.4157    7.1323    6.2257 H   0  0  0  0  0  0  0  0  0  0  0  0
   33.7659    8.7666    4.3142 H   0  0  0  0  0  0  0  0  0  0  0  0
   33.3858    9.1417    6.0154 H   0  0  0  0  0  0  0  0  0  0  0  0
   32.1330    8.4638    4.9622 H   0  0  0  0  0  0  0  0  0  0  0  0
   35.0069    4.9403    5.9074 H   0  0  0  0  0  0  0  0  0  0  0  0
   35.0142    2.9951    4.3983 H   0  0  0  0  0  0  0  0  0  0  0  0
   36.1811    3.8956    2.2311 H   0  0  0  0  0  0  0  0  0  0  0  0
   38.0713    2.4034    1.0155 H   0  0  0  0  0  0  0  0  0  0  0  0
   19.8618   -0.0374    0.0588 C   0  0  0  0  0  0  0  0  0  0  0  0
   21.0861   -0.0493    0.0628 C   0  0  0  0  0  0  0  0  0  0  0  0
   22.4289   -0.0576    0.0655 C   0  0  0  0  0  0  0  0  0  0  0  0
   23.6594   -0.0623    0.0649 C   0  0  0  0  0  0  0  0  0  0  0  0
   24.9976   -0.0647    0.0626 C   0  0  0  0  0  0  0  0  0  0  0  0
   26.2280   -0.0640    0.0583 C   0  0  0  0  0  0  0  0  0  0  0  0
   27.5709   -0.0612    0.0509 C   0  0  0  0  0  0  0  0  0  0  0  0
   28.7952   -0.0544    0.0438 C   0  0  0  0  0  0  0  0  0  0  0  0
  2  3  4  0  0  0  0
  3  4  4  0  0  0  0
  4  5  2  0  0  0  0
  5  6  4  0  0  0  0
  1  7  1  0  0  0  0
  3  7  4  0  0  0  0
  6  7  4  0  0  0  0
  6  8  4  0  0  0  0
  8  9  1  0  0  0  0
  9 10  4  0  0  0  0
 10 11  4  0  0  0  0
 11 12  4  0  0  0  0
 12 13  1  0  0  0  0
 13 14  1  0  0  0  0
 12 15  4  0  0  0  0
  9 16  4  0  0  0  0
 15 16  4  0  0  0  0
  8 17  4  0  0  0  0
 17 18  4  0  0  0  0
 18 19  2  0  0  0  0
  1 20  1  0  0  0  0
 17 20  4  0  0  0  0
 19 21  4  0  0  0  0
 20 21  4  0  0  0  0
 21 22  4  0  0  0  0
 22 23  4  0  0  0  0
 23 24  4  0  0  0  0
 24 25  2  0  0  0  0
 25 26  4  0  0  0  0
  1 27  1  0  0  0  0
 23 27  4  0  0  0  0
 26 27  4  0  0  0  0
 26 28  4  0  0  0  0
 28 29  1  0  0  0  0
 29 30  4  0  0  0  0
 30 31  4  0  0  0  0
 31 32  4  0  0  0  0
 32 33  1  0  0  0  0
 33 34  1  0  0  0  0
 32 35  4  0  0  0  0
 29 36  4  0  0  0  0
 35 36  4  0  0  0  0
 28 37  4  0  0  0  0
 37 38  4  0  0  0  0
 38 39  2  0  0  0  0
  2 40  4  0  0  0  0
 39 40  4  0  0  0  0
  1 41  1  0  0  0  0
 37 41  4  0  0  0  0
 40 41  4  0  0  0  0
  2 42  1  0  0  0  0
  4 43  1  0  0  0  0
  5 44  1  0  0  0  0
 10 45  1  0  0  0  0
 11 46  1  0  0  0  0
 13 47  1  0  0  0  0
 14 48  1  0  0  0  0
 14 49  1  0  0  0  0
 14 50  1  0  0  0  0
 15 51  1  0  0  0  0
 16 52  1  0  0  0  0
 18 53  1  0  0  0  0
 19 54  1  0  0  0  0
 24 55  1  0  0  0  0
 25 56  1  0  0  0  0
 30 57  1  0  0  0  0
 31 58  1  0  0  0  0
 33 59  1  0  0  0  0
 34 60  1  0  0  0  0
 34 61  1  0  0  0  0
 34 62  1  0  0  0  0
 35 63  1  0  0  0  0
 36 64  1  0  0  0  0
 38 65  1  0  0  0  0
 39 66  1  0  0  0  0
 68 69  4  0  0  0  0
 69 70  4  0  0  0  0
 70 71  2  0  0  0  0
 71 72  4  0  0  0  0
 67 73  1  0  0  0  0
 69 73  4  0  0  0  0
 72 73  4  0  0  0  0
 72 74  4  0  0  0  0
 74 75  1  0  0  0  0
 75 76  4  0  0  0  0
 76 77  4  0  0  0  0
 77 78  4  0  0  0  0
 78 79  1  0  0  0  0
 79 80  1  0  0  0  0
 78 81  4  0  0  0  0
 75 82  4  0  0  0  0
 81 82  4  0  0  0  0
 74 83  4  0  0  0  0
 83 84  4  0  0  0  0
 84 85  2  0  0  0  0
 67 86  1  0  0  0  0
 83 86  4  0  0  0  0
 85 87  4  0  0  0  0
 86 87  4  0  0  0  0
 87 88  4  0  0  0  0
 88 89  4  0  0  0  0
 89 90  4  0  0  0  0
 90 91  2  0  0  0  0
 91 92  4  0  0  0  0
 67 93  1  0  0  0  0
 89 93  4  0  0  0  0
 92 93  4  0  0  0  0
 92 94  4  0  0  0  0
 94 95  1  0  0  0  0
 95 96  4  0  0  0  0
 96 97  4  0  0  0  0
 97 98  4  0  0  0  0
 98 99  1  0  0  0  0
 99100  1  0  0  0  0
 98101  4  0  0  0  0
 95102  4  0  0  0  0
101102  4  0  0  0  0
 94103  4  0  0  0  0
103104  4  0  0  0  0
104105  2  0  0  0  0
 68106  4  0  0  0  0
105106  4  0  0  0  0
 67107  1  0  0  0  0
103107  4  0  0  0  0
106107  4  0  0  0  0
 68108  1  0  0  0  0
 70109  1  0  0  0  0
 71110  1  0  0  0  0
 76111  1  0  0  0  0
 77112  1  0  0  0  0
 79113  1  0  0  0  0
 80114  1  0  0  0  0
 80115  1  0  0  0  0
 80116  1  0  0  0  0
 81117  1  0  0  0  0
 82118  1  0  0  0  0
 84119  1  0  0  0  0
 85120  1  0  0  0  0
 90121  1  0  0  0  0
 91122  1  0  0  0  0
 96123  1  0  0  0  0
 97124  1  0  0  0  0
 99125  1  0  0  0  0
100126  1  0  0  0  0
100127  1  0  0  0  0
100128  1  0  0  0  0
101129  1  0  0  0  0
102130  1  0  0  0  0
104131  1  0  0  0  0
105132  1  0  0  0  0
 22133  4  0  0  0  0
133134  3  0  0  0  0
134135  4  0  0  0  0
135136  3  0  0  0  0
136137  4  0  0  0  0
137138  3  0  0  0  0
138139  4  0  0  0  0
 88140  4  0  0  0  0
139140  3  0  0  0  0
M  END
