 xtb: 6.5.1 (b24c23e)
          07302210163D

128147  0     0  0            999 V2000
   15.7335    0.0205    0.0069 Zn  0  0  0  0  0  0  0  0  0  0  0  0
   12.3279    0.0094    0.1697 C   0  0  0  0  0  0  0  0  0  0  0  0
   12.9499    1.2447    0.3033 C   0  0  0  0  0  0  0  0  0  0  0  0
   12.2683    2.4969    0.4784 C   0  0  0  0  0  0  0  0  0  0  0  0
   13.2206    3.4583    0.5676 C   0  0  0  0  0  0  0  0  0  0  0  0
   14.4977    2.8030    0.4588 C   0  0  0  0  0  0  0  0  0  0  0  0
   14.2976    1.4642    0.2898 N   0  0  0  0  0  0  0  0  0  0  0  0
   15.7445    3.4385    0.4950 C   0  0  0  0  0  0  0  0  0  0  0  0
   15.7485    4.9079    0.7082 C   0  0  0  0  0  0  0  0  0  0  0  0
   15.2283    5.4539    1.8783 C   0  0  0  0  0  0  0  0  0  0  0  0
   15.2314    6.8339    2.0783 C   0  0  0  0  0  0  0  0  0  0  0  0
   14.6637    7.3533    3.3473 C   0  0  0  0  0  0  0  0  0  0  0  0
   14.7139    8.6895    3.4506 O   0  0  0  0  0  0  0  0  0  0  0  0
   14.1964    6.6628    4.2168 O   0  0  0  0  0  0  0  0  0  0  0  0
   15.7561    7.6807    1.1020 C   0  0  0  0  0  0  0  0  0  0  0  0
   16.2737    7.1399   -0.0645 C   0  0  0  0  0  0  0  0  0  0  0  0
   16.2723    5.7662   -0.2616 C   0  0  0  0  0  0  0  0  0  0  0  0
   16.9871    2.8107    0.3533 C   0  0  0  0  0  0  0  0  0  0  0  0
   18.2635    3.4638    0.4493 C   0  0  0  0  0  0  0  0  0  0  0  0
   19.2145    2.5115    0.2714 C   0  0  0  0  0  0  0  0  0  0  0  0
   17.1874    1.4747    0.1314 N   0  0  0  0  0  0  0  0  0  0  0  0
   18.5303    1.2675    0.0736 C   0  0  0  0  0  0  0  0  0  0  0  0
   19.1670    0.0293   -0.1452 C   0  0  0  0  0  0  0  0  0  0  0  0
   18.5193   -1.2106   -0.3170 C   0  0  0  0  0  0  0  0  0  0  0  0
   19.1902   -2.4507   -0.5744 C   0  0  0  0  0  0  0  0  0  0  0  0
   18.2322   -3.4080   -0.6710 C   0  0  0  0  0  0  0  0  0  0  0  0
   16.9657   -2.7622   -0.4627 C   0  0  0  0  0  0  0  0  0  0  0  0
   17.1773   -1.4244   -0.2613 N   0  0  0  0  0  0  0  0  0  0  0  0
   15.7194   -3.3982   -0.4849 C   0  0  0  0  0  0  0  0  0  0  0  0
   15.7103   -4.8690   -0.6887 C   0  0  0  0  0  0  0  0  0  0  0  0
   16.3311   -5.7167    0.2315 C   0  0  0  0  0  0  0  0  0  0  0  0
   16.3160   -7.0926    0.0489 C   0  0  0  0  0  0  0  0  0  0  0  0
   15.6822   -7.6400   -1.0539 C   0  0  0  0  0  0  0  0  0  0  0  0
   15.0587   -6.8039   -1.9815 C   0  0  0  0  0  0  0  0  0  0  0  0
   14.3868   -7.4287   -3.1478 C   0  0  0  0  0  0  0  0  0  0  0  0
   13.8019   -6.5441   -3.9694 O   0  0  0  0  0  0  0  0  0  0  0  0
   14.3528   -8.6144   -3.3581 O   0  0  0  0  0  0  0  0  0  0  0  0
   15.0739   -5.4226   -1.7977 C   0  0  0  0  0  0  0  0  0  0  0  0
   14.4777   -2.7705   -0.3278 C   0  0  0  0  0  0  0  0  0  0  0  0
   13.2009   -3.4348   -0.3056 C   0  0  0  0  0  0  0  0  0  0  0  0
   12.2553   -2.4794   -0.1253 C   0  0  0  0  0  0  0  0  0  0  0  0
   12.9421   -1.2220   -0.0240 C   0  0  0  0  0  0  0  0  0  0  0  0
   14.2856   -1.4323   -0.1458 N   0  0  0  0  0  0  0  0  0  0  0  0
   11.2436    0.0057    0.2242 H   0  0  0  0  0  0  0  0  0  0  0  0
   11.1968    2.6138    0.5197 H   0  0  0  0  0  0  0  0  0  0  0  0
   13.0756    4.5199    0.6875 H   0  0  0  0  0  0  0  0  0  0  0  0
   14.8285    4.8103    2.6543 H   0  0  0  0  0  0  0  0  0  0  0  0
   14.3261    8.9469    4.3028 H   0  0  0  0  0  0  0  0  0  0  0  0
   15.7563    8.7527    1.2580 H   0  0  0  0  0  0  0  0  0  0  0  0
   16.6804    7.7923   -0.8291 H   0  0  0  0  0  0  0  0  0  0  0  0
   16.6672    5.3511   -1.1822 H   0  0  0  0  0  0  0  0  0  0  0  0
   18.4122    4.5140    0.6429 H   0  0  0  0  0  0  0  0  0  0  0  0
   20.2861    2.6320    0.2791 H   0  0  0  0  0  0  0  0  0  0  0  0
   20.2577   -2.5657   -0.6751 H   0  0  0  0  0  0  0  0  0  0  0  0
   18.3694   -4.4572   -0.8774 H   0  0  0  0  0  0  0  0  0  0  0  0
   16.8146   -5.2913    1.1039 H   0  0  0  0  0  0  0  0  0  0  0  0
   16.7987   -7.7376    0.7742 H   0  0  0  0  0  0  0  0  0  0  0  0
   15.6590   -8.7125   -1.2110 H   0  0  0  0  0  0  0  0  0  0  0  0
   13.3864   -7.0305   -4.6997 H   0  0  0  0  0  0  0  0  0  0  0  0
   14.6014   -4.7751   -2.5268 H   0  0  0  0  0  0  0  0  0  0  0  0
   13.0519   -4.4982   -0.4038 H   0  0  0  0  0  0  0  0  0  0  0  0
   11.1860   -2.6043   -0.0574 H   0  0  0  0  0  0  0  0  0  0  0  0
   29.2056   -0.0212   -0.0002 Zn  0  0  0  0  0  0  0  0  0  0  0  0
   32.6113   -0.0635    0.1581 C   0  0  0  0  0  0  0  0  0  0  0  0
   31.9896   -1.2750   -0.1182 C   0  0  0  0  0  0  0  0  0  0  0  0
   32.6714   -2.5160   -0.3600 C   0  0  0  0  0  0  0  0  0  0  0  0
   31.7193   -3.4539   -0.5896 C   0  0  0  0  0  0  0  0  0  0  0  0
   30.4421   -2.7989   -0.4802 C   0  0  0  0  0  0  0  0  0  0  0  0
   30.6420   -1.4782   -0.2035 N   0  0  0  0  0  0  0  0  0  0  0  0
   29.1953   -3.4114   -0.6543 C   0  0  0  0  0  0  0  0  0  0  0  0
   29.1916   -4.8699   -0.9320 C   0  0  0  0  0  0  0  0  0  0  0  0
   29.7118   -5.7675   -0.0039 C   0  0  0  0  0  0  0  0  0  0  0  0
   29.7089   -7.1373   -0.2646 C   0  0  0  0  0  0  0  0  0  0  0  0
   30.2763   -8.0420    0.7660 C   0  0  0  0  0  0  0  0  0  0  0  0
   30.2272   -9.3389    0.4275 O   0  0  0  0  0  0  0  0  0  0  0  0
   30.7439   -7.6725    1.8128 O   0  0  0  0  0  0  0  0  0  0  0  0
   29.1843   -7.6197   -1.4638 C   0  0  0  0  0  0  0  0  0  0  0  0
   28.6667   -6.7282   -2.3903 C   0  0  0  0  0  0  0  0  0  0  0  0
   28.6680   -5.3652   -2.1287 C   0  0  0  0  0  0  0  0  0  0  0  0
   27.9527   -2.7718   -0.5841 C   0  0  0  0  0  0  0  0  0  0  0  0
   26.6764   -3.4203   -0.7074 C   0  0  0  0  0  0  0  0  0  0  0  0
   25.7253   -2.4623   -0.5641 C   0  0  0  0  0  0  0  0  0  0  0  0
   27.7523   -1.4366   -0.3569 N   0  0  0  0  0  0  0  0  0  0  0  0
   26.4094   -1.2220   -0.3439 C   0  0  0  0  0  0  0  0  0  0  0  0
   25.7722    0.0194   -0.1460 C   0  0  0  0  0  0  0  0  0  0  0  0
   26.4193    1.2478    0.0961 C   0  0  0  0  0  0  0  0  0  0  0  0
   25.7483    2.5041    0.2570 C   0  0  0  0  0  0  0  0  0  0  0  0
   26.7062    3.4407    0.4767 C   0  0  0  0  0  0  0  0  0  0  0  0
   27.9728    2.7624    0.4630 C   0  0  0  0  0  0  0  0  0  0  0  0
   27.7613    1.4320    0.2179 N   0  0  0  0  0  0  0  0  0  0  0  0
   29.2191    3.3710    0.6492 C   0  0  0  0  0  0  0  0  0  0  0  0
   29.2278    4.8278    0.9364 C   0  0  0  0  0  0  0  0  0  0  0  0
   28.6061    5.3285    2.0826 C   0  0  0  0  0  0  0  0  0  0  0  0
   28.6204    6.6886    2.3590 C   0  0  0  0  0  0  0  0  0  0  0  0
   29.2542    7.5663    1.4956 C   0  0  0  0  0  0  0  0  0  0  0  0
   29.8786    7.0790    0.3462 C   0  0  0  0  0  0  0  0  0  0  0  0
   30.5504    8.0506   -0.5520 C   0  0  0  0  0  0  0  0  0  0  0  0
   31.1350    7.4829   -1.6176 O   0  0  0  0  0  0  0  0  0  0  0  0
   30.5844    9.2399   -0.3635 O   0  0  0  0  0  0  0  0  0  0  0  0
   29.8642    5.7134    0.0691 C   0  0  0  0  0  0  0  0  0  0  0  0
   30.4609    2.7266    0.5932 C   0  0  0  0  0  0  0  0  0  0  0  0
   31.7375    3.3474    0.8313 C   0  0  0  0  0  0  0  0  0  0  0  0
   32.6832    2.3856    0.6904 C   0  0  0  0  0  0  0  0  0  0  0  0
   31.9968    1.1638    0.3761 C   0  0  0  0  0  0  0  0  0  0  0  0
   30.6532    1.4021    0.3289 N   0  0  0  0  0  0  0  0  0  0  0  0
   33.6955   -0.0774    0.2114 H   0  0  0  0  0  0  0  0  0  0  0  0
   33.7429   -2.6400   -0.3580 H   0  0  0  0  0  0  0  0  0  0  0  0
   31.8646   -4.4967   -0.8220 H   0  0  0  0  0  0  0  0  0  0  0  0
   30.1113   -5.4120    0.9397 H   0  0  0  0  0  0  0  0  0  0  0  0
   30.6154   -9.8600    1.1489 H   0  0  0  0  0  0  0  0  0  0  0  0
   29.1842   -8.6839   -1.6657 H   0  0  0  0  0  0  0  0  0  0  0  0
   28.2601   -7.0957   -3.3258 H   0  0  0  0  0  0  0  0  0  0  0  0
   28.2733   -4.6728   -2.8640 H   0  0  0  0  0  0  0  0  0  0  0  0
   26.5278   -4.4759   -0.8685 H   0  0  0  0  0  0  0  0  0  0  0  0
   24.6537   -2.5785   -0.5963 H   0  0  0  0  0  0  0  0  0  0  0  0
   24.6807    2.6455    0.1998 H   0  0  0  0  0  0  0  0  0  0  0  0
   26.5690    4.5001    0.6229 H   0  0  0  0  0  0  0  0  0  0  0  0
   28.1225    4.6414    2.7680 H   0  0  0  0  0  0  0  0  0  0  0  0
   28.1369    7.0614    3.2549 H   0  0  0  0  0  0  0  0  0  0  0  0
   29.2767    8.6313    1.6971 H   0  0  0  0  0  0  0  0  0  0  0  0
   31.5505    8.1811   -2.1492 H   0  0  0  0  0  0  0  0  0  0  0  0
   30.3374    5.3395   -0.8312 H   0  0  0  0  0  0  0  0  0  0  0  0
   31.8862    4.3847    1.0854 H   0  0  0  0  0  0  0  0  0  0  0  0
   33.7525    2.4816    0.7958 H   0  0  0  0  0  0  0  0  0  0  0  0
   21.7946    0.0381   -0.2009 C   0  0  0  0  0  0  0  0  0  0  0  0
   20.5726    0.0302   -0.1845 C   0  0  0  0  0  0  0  0  0  0  0  0
   23.1445    0.0350   -0.1989 C   0  0  0  0  0  0  0  0  0  0  0  0
   24.3665    0.0309   -0.1828 C   0  0  0  0  0  0  0  0  0  0  0  0
  2  3  4  0  0  0  0
  3  4  1  0  0  0  0
  4  5  2  0  0  0  0
  5  6  4  0  0  0  0
  1  7  1  0  0  0  0
  3  7  4  0  0  0  0
  6  7  4  0  0  0  0
  6  8  4  0  0  0  0
  8  9  1  0  0  0  0
  9 10  4  0  0  0  0
 10 11  4  0  0  0  0
 11 12  1  0  0  0  0
 12 13  4  0  0  0  0
 12 14  2  0  0  0  0
 11 15  4  0  0  0  0
 15 16  4  0  0  0  0
  9 17  4  0  0  0  0
 16 17  4  0  0  0  0
  8 18  4  0  0  0  0
 18 19  4  0  0  0  0
 19 20  2  0  0  0  0
  1 21  1  0  0  0  0
 18 21  4  0  0  0  0
 20 22  4  0  0  0  0
 21 22  4  0  0  0  0
 22 23  4  0  0  0  0
 23 24  4  0  0  0  0
 24 25  4  0  0  0  0
 25 26  2  0  0  0  0
 26 27  4  0  0  0  0
  1 28  1  0  0  0  0
 24 28  4  0  0  0  0
 27 28  4  0  0  0  0
 27 29  4  0  0  0  0
 29 30  1  0  0  0  0
 30 31  4  0  0  0  0
 31 32  4  0  0  0  0
 32 33  4  0  0  0  0
 33 34  4  0  0  0  0
 34 35  1  0  0  0  0
 35 36  4  0  0  0  0
 35 37  2  0  0  0  0
 30 38  4  0  0  0  0
 34 38  4  0  0  0  0
 29 39  4  0  0  0  0
 39 40  4  0  0  0  0
 40 41  2  0  0  0  0
  2 42  4  0  0  0  0
 41 42  4  0  0  0  0
  1 43  1  0  0  0  0
 39 43  4  0  0  0  0
 42 43  4  0  0  0  0
  2 44  1  0  0  0  0
  4 45  1  0  0  0  0
  5 46  1  0  0  0  0
 10 47  1  0  0  0  0
 13 48  1  0  0  0  0
 15 49  1  0  0  0  0
 16 50  1  0  0  0  0
 17 51  1  0  0  0  0
 19 52  1  0  0  0  0
 20 53  1  0  0  0  0
 25 54  1  0  0  0  0
 26 55  1  0  0  0  0
 31 56  1  0  0  0  0
 32 57  1  0  0  0  0
 33 58  1  0  0  0  0
 36 59  1  0  0  0  0
 38 60  1  0  0  0  0
 40 61  1  0  0  0  0
 41 62  1  0  0  0  0
 64 65  4  0  0  0  0
 65 66  1  0  0  0  0
 66 67  2  0  0  0  0
 67 68  4  0  0  0  0
 63 69  1  0  0  0  0
 65 69  4  0  0  0  0
 68 69  4  0  0  0  0
 68 70  4  0  0  0  0
 70 71  1  0  0  0  0
 71 72  4  0  0  0  0
 72 73  4  0  0  0  0
 73 74  1  0  0  0  0
 74 75  4  0  0  0  0
 74 76  2  0  0  0  0
 73 77  4  0  0  0  0
 77 78  4  0  0  0  0
 71 79  4  0  0  0  0
 78 79  4  0  0  0  0
 70 80  4  0  0  0  0
 80 81  4  0  0  0  0
 81 82  2  0  0  0  0
 63 83  1  0  0  0  0
 80 83  4  0  0  0  0
 82 84  4  0  0  0  0
 83 84  4  0  0  0  0
 84 85  4  0  0  0  0
 85 86  4  0  0  0  0
 86 87  4  0  0  0  0
 87 88  2  0  0  0  0
 88 89  4  0  0  0  0
 63 90  1  0  0  0  0
 86 90  4  0  0  0  0
 89 90  4  0  0  0  0
 89 91  4  0  0  0  0
 91 92  1  0  0  0  0
 92 93  4  0  0  0  0
 93 94  4  0  0  0  0
 94 95  4  0  0  0  0
 95 96  4  0  0  0  0
 96 97  1  0  0  0  0
 97 98  4  0  0  0  0
 97 99  2  0  0  0  0
 92100  4  0  0  0  0
 96100  4  0  0  0  0
 91101  4  0  0  0  0
101102  4  0  0  0  0
102103  2  0  0  0  0
 64104  4  0  0  0  0
103104  4  0  0  0  0
 63105  1  0  0  0  0
101105  4  0  0  0  0
104105  4  0  0  0  0
 64106  1  0  0  0  0
 66107  1  0  0  0  0
 67108  1  0  0  0  0
 72109  1  0  0  0  0
 75110  1  0  0  0  0
 77111  1  0  0  0  0
 78112  1  0  0  0  0
 79113  1  0  0  0  0
 81114  1  0  0  0  0
 82115  1  0  0  0  0
 87116  1  0  0  0  0
 88117  1  0  0  0  0
 93118  1  0  0  0  0
 94119  1  0  0  0  0
 95120  1  0  0  0  0
 98121  1  0  0  0  0
100122  1  0  0  0  0
102123  1  0  0  0  0
103124  1  0  0  0  0
 23126  4  0  0  0  0
125126  3  0  0  0  0
125127  4  0  0  0  0
 85128  4  0  0  0  0
127128  3  0  0  0  0
M  END
