274

C 35.135502 -0.618143 0.567910
C 35.826047 -1.258018 -0.676414
C 35.176954 -1.786325 -1.766302
C 36.173572 -2.261452 -2.655881
C 37.398739 -2.018641 -2.075550
N 37.176041 -1.368380 -0.885829
C 38.821985 -2.431322 -2.645141
C 38.876942 -3.311382 -3.844982
C 39.443466 -2.800543 -5.029292
C 39.504443 -3.588664 -6.170580
O 40.059827 -3.131613 -7.332266
C 38.983812 -4.873722 -6.153179
O 39.031055 -5.646793 -7.283970
C 38.397002 -5.380667 -4.995925
O 37.860663 -6.637858 -5.011346
C 38.343882 -4.611997 -3.836891
C 39.952053 -1.939103 -2.061076
C 41.272545 -2.397450 -2.441276
C 42.170705 -1.747032 -1.711867
N 40.134824 -1.012276 -1.068644
C 41.472284 -0.828309 -0.836397
C 42.134980 0.008770 0.006183
C 41.342260 1.053285 0.899531
C 41.832999 2.249188 1.386240
C 40.816690 2.845611 2.174808
C 39.724942 2.005251 2.132691
N 40.038942 0.939948 1.319602
C 38.339797 2.216220 2.870491
C 38.262287 3.246796 3.929952
C 38.735686 2.994227 5.228044
C 38.648258 3.991278 6.187321
O 39.098515 3.766128 7.457639
C 38.103639 5.228420 5.863974
O 38.024676 6.199661 6.828595
C 37.647150 5.487998 4.576167
O 37.132041 6.729003 4.320082
C 37.721760 4.504327 3.603322
C 37.248462 1.508021 2.473685
C 35.961561 1.608498 3.141193
C 35.099026 0.816592 2.511390
C 35.797333 0.197203 1.410921
N 37.090730 0.614885 1.452637
H 34.084805 -0.826653 0.734235
H 34.107330 -1.823447 -1.908292
H 36.012482 -2.740173 -3.610246
H 37.902314 -0.998216 -0.281239
H 39.825392 -1.780416 -5.017299
H 40.373785 -2.234369 -7.139616
H 39.516945 -5.084651 -7.911724
H 38.102152 -6.972554 -5.892034
H 37.881879 -5.003571 -2.934040
H 41.500600 -3.162840 -3.160108
H 43.230603 -1.901919 -1.775563
H 42.817881 2.652655 1.198914
H 40.878372 3.781262 2.710823
H 39.380650 0.215306 1.038122
H 39.165118 2.025155 5.466588
H 38.928597 4.606973 7.922136
H 37.609537 6.952933 6.352529
H 36.898562 6.745118 3.372514
H 37.366311 4.668182 2.587903
H 35.737277 2.202470 4.008604
H 34.064698 0.669659 2.767719
C 99.654736 -0.691345 0.473511
C 98.964191 0.354500 1.403022
C 99.613284 1.278548 2.186029
C 98.616666 2.021833 2.867662
C 97.391499 1.520223 2.488020
N 97.614197 0.529847 1.562045
C 95.968253 1.969140 3.029511
C 95.913296 2.912108 4.180570
C 95.346772 4.186307 3.980655
C 95.285795 5.095454 5.028093
O 94.730411 6.334349 4.874640
C 95.806426 4.758677 6.268358
O 95.759183 5.661405 7.298606
C 96.393236 3.511654 6.471236
O 96.929574 3.213604 7.692684
C 96.446356 2.580477 5.438220
C 94.838185 1.526006 2.407383
C 93.517693 1.780127 2.945952
C 92.619533 1.235610 2.134422
N 94.655414 0.795560 1.262666
C 93.317954 0.616425 1.026672
C 92.655258 0.008770 0.006183
C 93.447978 -0.596413 -1.227850
C 92.957239 -0.770071 -2.507269
C 93.973548 -1.385327 -3.281232
C 95.065296 -1.553749 -2.456846
N 94.751296 -1.031474 -1.222661
C 96.450441 -2.215797 -2.844852
C 96.527951 -2.985333 -4.106739
C 96.054552 -4.305433 -4.185290
C 96.141980 -4.986285 -5.389767
O 95.691723 -6.272659 -5.487959
C 96.686599 -4.365125 -6.507457
O 96.765562 -5.057579 -7.688267
C 97.143088 -3.053241 -6.438255
O 97.658197 -2.496263 -7.576433
C 97.068478 -2.355917 -5.243360
C 97.541776 -2.007795 -2.060163
C 98.828677 -2.629273 -2.323657
C 99.691212 -2.216448 -1.399891
C 98.992905 -1.304828 -0.526035
N 97.699508 -1.241246 -0.940952
H 100.705433 -0.904343 0.634049
H 100.682908 1.406825 2.257331
H 98.777756 2.826969 3.568906
H 96.887924 0.036447 1.053019
H 94.964846 4.428658 2.989661
H 94.416453 6.371139 3.957685
H 95.273293 6.409342 6.910446
H 96.688086 3.983238 8.236094
H 96.908359 1.608567 5.592695
H 93.289638 2.285778 3.866201
H 91.559635 1.258740 2.300289
H 91.972357 -0.488197 -2.851396
H 93.911866 -1.671530 -4.320868
H 95.409588 -0.939260 -0.450758
H 95.625120 -4.777723 -3.306117
H 95.861641 -6.513198 -6.417969
H 97.180701 -4.408970 -8.299302
H 97.891676 -1.574518 -7.356138
H 97.423927 -1.331676 -5.149262
H 99.052961 -3.321499 -3.114874
H 100.725539 -2.501287 -1.321399
C 44.622381 0.022996 0.016133
C 46.080607 0.001159 -0.001740
C 47.214535 -0.019594 -0.003231
C 48.575917 -0.032184 -0.005422
C 49.850136 -0.021878 -0.010187
C 51.038598 -0.003080 -0.016343
C 52.390959 0.021705 -0.000475
C 53.491226 0.022996 0.016133
C 62.900639 0.022996 0.016133
C 64.358865 0.001159 -0.001740
C 65.492793 -0.019594 -0.003231
C 66.854175 -0.032184 -0.005422
C 68.128394 -0.021878 -0.010187
C 69.316856 -0.003080 -0.016343
C 70.669217 0.021705 -0.000475
C 71.769484 0.022996 0.016133
C 81.178897 0.022996 0.016133
C 82.637124 0.001159 -0.001740
C 83.771052 -0.019594 -0.003231
C 85.132433 -0.032184 -0.005422
C 86.406652 -0.021878 -0.010187
C 87.595115 -0.003080 -0.016343
C 88.947475 0.021705 -0.000475
C 90.047743 0.022996 0.016133
C 54.692250 -0.013362 -0.009405
C 55.476683 -1.360035 0.284081
C 54.942146 -2.529486 0.788666
C 55.979563 -3.494988 0.811257
C 57.119947 -2.882533 0.332674
N 56.820701 -1.565431 0.082648
C 58.521357 -3.574549 0.092333
C 58.528666 -5.038200 -0.135231
C 58.855333 -5.919304 0.913031
C 58.863580 -7.297193 0.688136
O 59.192825 -8.158409 1.703840
C 58.541847 -7.794304 -0.575304
O 58.542411 -9.140921 -0.829652
C 58.216370 -6.915871 -1.615898
O 57.914479 -7.451651 -2.847452
C 58.205628 -5.540745 -1.406414
C 59.657089 -2.831656 0.023029
C 60.948415 -3.426663 -0.254773
C 61.855356 -2.458332 -0.294525
N 59.864964 -1.486145 0.154528
C 61.191281 -1.196643 -0.032074
C 61.860631 -0.013362 -0.009405
C 61.078031 1.333733 0.282248
C 61.611757 2.497529 0.803337
C 60.576967 3.466236 0.819585
C 59.437759 2.860300 0.323409
N 59.738636 1.547400 0.054641
C 58.031418 3.549968 0.096505
C 57.989259 5.029417 0.042383
C 58.265700 5.722364 -1.147612
C 58.204233 7.110386 -1.154499
O 58.461998 7.800147 -2.308440
C 57.875985 7.806576 0.007541
O 57.812618 9.176088 -0.022510
C 57.610719 7.123275 1.189765
O 57.292239 7.854264 2.305081
C 57.666030 5.736447 1.216684
C 56.899166 2.802268 0.001285
C 55.601402 3.400444 -0.248055
C 54.694196 2.431394 -0.285259
C 55.364312 1.167528 -0.051255
N 56.696716 1.453156 0.098147
H 53.913842 -2.682808 1.083276
H 55.896779 -4.527156 1.122722
H 57.492061 -0.851764 -0.188863
H 59.104474 -5.497432 1.886083
H 59.448324 -7.618315 2.474781
H 58.297055 -9.193445 -1.776007
H 57.734564 -6.694322 -3.437552
H 57.959269 -4.837334 -2.200150
H 61.151058 -4.470642 -0.415440
H 62.901331 -2.607424 -0.491756
H 62.636653 2.645153 1.115687
H 60.661432 4.493875 1.141672
H 59.067294 0.837446 -0.229481
H 58.516239 5.169757 -2.050779
H 58.318259 8.734264 -2.057985
H 57.556203 9.403261 0.896678
H 57.146979 7.206700 3.020014
H 57.457856 5.168441 2.120327
H 55.397647 4.446268 -0.397030
H 53.643889 2.581094 -0.457230
C 72.970508 -0.013362 -0.009405
C 73.754942 -1.360035 0.284081
C 73.220404 -2.529486 0.788666
C 74.257822 -3.494988 0.811257
C 75.398205 -2.882533 0.332674
N 75.098959 -1.565431 0.082648
C 76.799615 -3.574549 0.092333
C 76.806924 -5.038200 -0.135231
C 77.133591 -5.919304 0.913031
C 77.141838 -7.297193 0.688136
O 77.471083 -8.158409 1.703840
C 76.820105 -7.794304 -0.575304
O 76.820669 -9.140921 -0.829652
C 76.494629 -6.915871 -1.615898
O 76.192738 -7.451651 -2.847452
C 76.483886 -5.540745 -1.406414
C 77.935347 -2.831656 0.023029
C 79.226673 -3.426663 -0.254773
C 80.133614 -2.458332 -0.294525
N 78.143222 -1.486145 0.154528
C 79.469539 -1.196643 -0.032074
C 80.138889 -0.013362 -0.009405
C 79.356290 1.333733 0.282248
C 79.890016 2.497529 0.803337
C 78.855225 3.466236 0.819585
C 77.716017 2.860300 0.323409
N 78.016894 1.547400 0.054641
C 76.309676 3.549968 0.096505
C 76.267517 5.029417 0.042383
C 76.543958 5.722364 -1.147612
C 76.482491 7.110386 -1.154499
O 76.740256 7.800147 -2.308440
C 76.154244 7.806576 0.007541
O 76.090876 9.176088 -0.022510
C 75.888978 7.123275 1.189765
O 75.570498 7.854264 2.305081
C 75.944288 5.736447 1.216684
C 75.177425 2.802268 0.001285
C 73.879660 3.400444 -0.248055
C 72.972454 2.431394 -0.285259
C 73.642570 1.167528 -0.051255
N 74.974974 1.453156 0.098147
H 72.192100 -2.682808 1.083276
H 74.175037 -4.527156 1.122722
H 75.770319 -0.851764 -0.188863
H 77.382732 -5.497432 1.886083
H 77.726582 -7.618315 2.474781
H 76.575313 -9.193445 -1.776007
H 76.012822 -6.694322 -3.437552
H 76.237527 -4.837334 -2.200150
H 79.429316 -4.470642 -0.415440
H 81.179589 -2.607424 -0.491756
H 80.914911 2.645153 1.115687
H 78.939691 4.493875 1.141672
H 77.345553 0.837446 -0.229481
H 76.794497 5.169757 -2.050779
H 76.596517 8.734264 -2.057985
H 75.834461 9.403261 0.896678
H 75.425238 7.206700 3.020014
H 75.736114 5.168441 2.120327
H 73.675905 4.446268 -0.397030
H 71.922147 2.581094 -0.457230
