 xtb: 6.5.1 (b24c23e)
          07302211343D

236275  0     0  0            999 V2000
   50.4997   -0.0187   -0.0591 Zn  0  0  0  0  0  0  0  0  0  0  0  0
   47.0885   -0.0382   -0.0642 C   0  0  0  0  0  0  0  0  0  0  0  0
   47.7143   -1.2792   -0.0739 C   0  0  0  0  0  0  0  0  0  0  0  0
   47.0360   -2.5446   -0.0416 C   0  0  0  0  0  0  0  0  0  0  0  0
   47.9918   -3.5073   -0.0348 C   0  0  0  0  0  0  0  0  0  0  0  0
   49.2669   -2.8414   -0.0740 C   0  0  0  0  0  0  0  0  0  0  0  0
   49.0627   -1.4923   -0.0913 N   0  0  0  0  0  0  0  0  0  0  0  0
   50.5157   -3.4744   -0.0620 C   0  0  0  0  0  0  0  0  0  0  0  0
   50.5248   -4.9591   -0.0410 C   0  0  0  0  0  0  0  0  0  0  0  0
   49.9724   -5.6901   -1.0929 C   0  0  0  0  0  0  0  0  0  0  0  0
   49.9817   -7.0766   -1.0746 C   0  0  0  0  0  0  0  0  0  0  0  0
   50.5422   -7.7497    0.0082 C   0  0  0  0  0  0  0  0  0  0  0  0
   50.5696   -9.1071    0.0680 O   0  0  0  0  0  0  0  0  0  0  0  0
   51.0947   -7.0321    1.0672 C   0  0  0  0  0  0  0  0  0  0  0  0
   51.0864   -5.6487    1.0365 C   0  0  0  0  0  0  0  0  0  0  0  0
   51.7570   -2.8278   -0.0600 C   0  0  0  0  0  0  0  0  0  0  0  0
   53.0335   -3.4860   -0.0912 C   0  0  0  0  0  0  0  0  0  0  0  0
   53.9837   -2.5164   -0.0915 C   0  0  0  0  0  0  0  0  0  0  0  0
   51.9568   -1.4730   -0.0558 N   0  0  0  0  0  0  0  0  0  0  0  0
   53.3002   -1.2569   -0.0717 C   0  0  0  0  0  0  0  0  0  0  0  0
   53.9359    0.0005   -0.0697 C   0  0  0  0  0  0  0  0  0  0  0  0
   53.2864    1.2508   -0.0568 C   0  0  0  0  0  0  0  0  0  0  0  0
   53.9549    2.5175   -0.1032 C   0  0  0  0  0  0  0  0  0  0  0  0
   52.9938    3.4763   -0.0918 C   0  0  0  0  0  0  0  0  0  0  0  0
   51.7257    2.8040   -0.0339 C   0  0  0  0  0  0  0  0  0  0  0  0
   51.9409    1.4517   -0.0233 N   0  0  0  0  0  0  0  0  0  0  0  0
   50.4770    3.4367   -0.0238 C   0  0  0  0  0  0  0  0  0  0  0  0
   50.4701    4.9210    0.0003 C   0  0  0  0  0  0  0  0  0  0  0  0
   51.0457    5.6156    1.0672 C   0  0  0  0  0  0  0  0  0  0  0  0
   51.0408    6.9989    1.0990 C   0  0  0  0  0  0  0  0  0  0  0  0
   50.4610    7.7118    0.0513 C   0  0  0  0  0  0  0  0  0  0  0  0
   50.4767    9.0693    0.1114 O   0  0  0  0  0  0  0  0  0  0  0  0
   49.8859    7.0339   -1.0208 C   0  0  0  0  0  0  0  0  0  0  0  0
   49.8900    5.6474   -1.0400 C   0  0  0  0  0  0  0  0  0  0  0  0
   49.2354    2.7894   -0.0335 C   0  0  0  0  0  0  0  0  0  0  0  0
   47.9529    3.4398    0.0205 C   0  0  0  0  0  0  0  0  0  0  0  0
   47.0081    2.4664    0.0016 C   0  0  0  0  0  0  0  0  0  0  0  0
   47.7006    1.2096   -0.0530 C   0  0  0  0  0  0  0  0  0  0  0  0
   49.0465    1.4383   -0.0702 N   0  0  0  0  0  0  0  0  0  0  0  0
   46.0030   -0.0443   -0.0481 H   0  0  0  0  0  0  0  0  0  0  0  0
   45.9645   -2.6686   -0.0176 H   0  0  0  0  0  0  0  0  0  0  0  0
   47.8503   -4.5755    0.0064 H   0  0  0  0  0  0  0  0  0  0  0  0
   49.5470   -5.1678   -1.9427 H   0  0  0  0  0  0  0  0  0  0  0  0
   49.5568   -7.6396   -1.8988 H   0  0  0  0  0  0  0  0  0  0  0  0
   50.1558   -9.5011   -0.7116 H   0  0  0  0  0  0  0  0  0  0  0  0
   51.5236   -7.5684    1.9047 H   0  0  0  0  0  0  0  0  0  0  0  0
   51.5052   -5.0904    1.8663 H   0  0  0  0  0  0  0  0  0  0  0  0
   53.1832   -4.5532   -0.1215 H   0  0  0  0  0  0  0  0  0  0  0  0
   55.0548   -2.6388   -0.1040 H   0  0  0  0  0  0  0  0  0  0  0  0
   55.0236    2.6516   -0.1522 H   0  0  0  0  0  0  0  0  0  0  0  0
   53.1306    4.5448   -0.1367 H   0  0  0  0  0  0  0  0  0  0  0  0
   51.4862    5.0610    1.8883 H   0  0  0  0  0  0  0  0  0  0  0  0
   51.4807    7.5390    1.9283 H   0  0  0  0  0  0  0  0  0  0  0  0
   50.0477    9.4599   -0.6616 H   0  0  0  0  0  0  0  0  0  0  0  0
   49.4395    7.5931   -1.8362 H   0  0  0  0  0  0  0  0  0  0  0  0
   49.4538    5.1216   -1.8821 H   0  0  0  0  0  0  0  0  0  0  0  0
   47.7990    4.5054    0.0800 H   0  0  0  0  0  0  0  0  0  0  0  0
   45.9354    2.5778    0.0306 H   0  0  0  0  0  0  0  0  0  0  0  0
   83.2565    0.0018   -0.0289 Zn  0  0  0  0  0  0  0  0  0  0  0  0
   86.6675    0.0266   -0.0669 C   0  0  0  0  0  0  0  0  0  0  0  0
   86.0388    1.2643   -0.1345 C   0  0  0  0  0  0  0  0  0  0  0  0
   86.7144    2.5308   -0.1764 C   0  0  0  0  0  0  0  0  0  0  0  0
   85.7565    3.4908   -0.2130 C   0  0  0  0  0  0  0  0  0  0  0  0
   84.4826    2.8214   -0.2035 C   0  0  0  0  0  0  0  0  0  0  0  0
   84.6897    1.4738   -0.1496 N   0  0  0  0  0  0  0  0  0  0  0  0
   83.2327    3.4523   -0.2169 C   0  0  0  0  0  0  0  0  0  0  0  0
   83.2213    4.9346   -0.3009 C   0  0  0  0  0  0  0  0  0  0  0  0
   83.7664    5.5861   -1.4077 C   0  0  0  0  0  0  0  0  0  0  0  0
   83.7539    6.9699   -1.4934 C   0  0  0  0  0  0  0  0  0  0  0  0
   83.1978    7.7209   -0.4608 C   0  0  0  0  0  0  0  0  0  0  0  0
   83.1675    9.0789   -0.5028 O   0  0  0  0  0  0  0  0  0  0  0  0
   82.6534    7.0835    0.6524 C   0  0  0  0  0  0  0  0  0  0  0  0
   82.6642    5.7017    0.7252 C   0  0  0  0  0  0  0  0  0  0  0  0
   81.9929    2.8052   -0.1608 C   0  0  0  0  0  0  0  0  0  0  0  0
   80.7146    3.4568   -0.2326 C   0  0  0  0  0  0  0  0  0  0  0  0
   79.7669    2.4870   -0.1691 C   0  0  0  0  0  0  0  0  0  0  0  0
   81.7968    1.4533   -0.0658 N   0  0  0  0  0  0  0  0  0  0  0  0
   80.4537    1.2334   -0.0638 C   0  0  0  0  0  0  0  0  0  0  0  0
   79.8216   -0.0240   -0.0062 C   0  0  0  0  0  0  0  0  0  0  0  0
   80.4727   -1.2716    0.0480 C   0  0  0  0  0  0  0  0  0  0  0  0
   79.8059   -2.5394    0.0939 C   0  0  0  0  0  0  0  0  0  0  0  0
   80.7690   -3.4947    0.1464 C   0  0  0  0  0  0  0  0  0  0  0  0
   82.0367   -2.8188    0.1427 C   0  0  0  0  0  0  0  0  0  0  0  0
   81.8191   -1.4687    0.0737 N   0  0  0  0  0  0  0  0  0  0  0  0
   83.2868   -3.4475    0.1777 C   0  0  0  0  0  0  0  0  0  0  0  0
   83.2989   -4.9285    0.2843 C   0  0  0  0  0  0  0  0  0  0  0  0
   82.7466   -5.5643    1.3989 C   0  0  0  0  0  0  0  0  0  0  0  0
   82.7595   -6.9437    1.5080 C   0  0  0  0  0  0  0  0  0  0  0  0
   83.3237   -7.7117    0.4913 C   0  0  0  0  0  0  0  0  0  0  0  0
   83.3170   -9.0637    0.6279 O   0  0  0  0  0  0  0  0  0  0  0  0
   83.8753   -7.0926   -0.6277 C   0  0  0  0  0  0  0  0  0  0  0  0
   83.8637   -5.7095   -0.7243 C   0  0  0  0  0  0  0  0  0  0  0  0
   84.5268   -2.7993    0.1246 C   0  0  0  0  0  0  0  0  0  0  0  0
   85.8111   -3.4442    0.2001 C   0  0  0  0  0  0  0  0  0  0  0  0
   86.7537   -2.4715    0.1242 C   0  0  0  0  0  0  0  0  0  0  0  0
   86.0582   -1.2200    0.0133 C   0  0  0  0  0  0  0  0  0  0  0  0
   84.7127   -1.4514    0.0195 N   0  0  0  0  0  0  0  0  0  0  0  0
   87.7531    0.0353   -0.0620 H   0  0  0  0  0  0  0  0  0  0  0  0
   87.7858    2.6579   -0.1693 H   0  0  0  0  0  0  0  0  0  0  0  0
   85.8957    4.5600   -0.2303 H   0  0  0  0  0  0  0  0  0  0  0  0
   84.1882    5.0022   -2.2183 H   0  0  0  0  0  0  0  0  0  0  0  0
   84.1727    7.4703   -2.3600 H   0  0  0  0  0  0  0  0  0  0  0  0
   83.5707    9.4138   -1.3149 H   0  0  0  0  0  0  0  0  0  0  0  0
   82.2280    7.6803    1.4498 H   0  0  0  0  0  0  0  0  0  0  0  0
   82.2511    5.2064    1.5969 H   0  0  0  0  0  0  0  0  0  0  0  0
   80.5624    4.5192   -0.3358 H   0  0  0  0  0  0  0  0  0  0  0  0
   78.6956    2.6043   -0.2039 H   0  0  0  0  0  0  0  0  0  0  0  0
   78.7363   -2.6762    0.0853 H   0  0  0  0  0  0  0  0  0  0  0  0
   80.6339   -4.5640    0.1730 H   0  0  0  0  0  0  0  0  0  0  0  0
   82.3183   -4.9665    2.1958 H   0  0  0  0  0  0  0  0  0  0  0  0
   82.3380   -7.4384    2.3743 H   0  0  0  0  0  0  0  0  0  0  0  0
   83.7323   -9.4952   -0.1308 H   0  0  0  0  0  0  0  0  0  0  0  0
   84.3098   -7.6947   -1.4186 H   0  0  0  0  0  0  0  0  0  0  0  0
   84.2824   -5.2295   -1.6019 H   0  0  0  0  0  0  0  0  0  0  0  0
   85.9675   -4.5054    0.3107 H   0  0  0  0  0  0  0  0  0  0  0  0
   87.8269   -2.5796    0.1492 H   0  0  0  0  0  0  0  0  0  0  0  0
   55.3454    0.0078   -0.0865 C   0  0  0  0  0  0  0  0  0  0  0  0
   56.5626    0.0122   -0.0958 C   0  0  0  0  0  0  0  0  0  0  0  0
   66.2691   -0.0057    0.0060 C   0  0  0  0  0  0  0  0  0  0  0  0
   67.4873   -0.0058    0.0076 C   0  0  0  0  0  0  0  0  0  0  0  0
   77.1942   -0.0298   -0.0123 C   0  0  0  0  0  0  0  0  0  0  0  0
   78.4110   -0.0323   -0.0119 C   0  0  0  0  0  0  0  0  0  0  0  0
   61.4147    0.0099   -0.0569 Zn  0  0  0  0  0  0  0  0  0  0  0  0
   57.9716    0.0156   -0.0943 C   0  0  0  0  0  0  0  0  0  0  0  0
   58.6127    1.1392    0.4641 C   0  0  0  0  0  0  0  0  0  0  0  0
   57.9361    2.2446    1.0742 C   0  0  0  0  0  0  0  0  0  0  0  0
   58.8904    3.1227    1.4772 C   0  0  0  0  0  0  0  0  0  0  0  0
   60.1609    2.5638    1.1101 C   0  0  0  0  0  0  0  0  0  0  0  0
   59.9561    1.3506    0.5092 N   0  0  0  0  0  0  0  0  0  0  0  0
   61.4050    3.1627    1.3393 C   0  0  0  0  0  0  0  0  0  0  0  0
   61.4021    4.5155    1.9493 C   0  0  0  0  0  0  0  0  0  0  0  0
   62.0294    4.7416    3.1772 C   0  0  0  0  0  0  0  0  0  0  0  0
   62.0237    5.9981    3.7566 C   0  0  0  0  0  0  0  0  0  0  0  0
   61.3910    7.0558    3.1063 C   0  0  0  0  0  0  0  0  0  0  0  0
   61.4061    8.2773    3.7010 O   0  0  0  0  0  0  0  0  0  0  0  0
   60.7655    6.8475    1.8794 C   0  0  0  0  0  0  0  0  0  0  0  0
   60.7705    5.5833    1.3105 C   0  0  0  0  0  0  0  0  0  0  0  0
   62.6519    2.5970    1.0484 C   0  0  0  0  0  0  0  0  0  0  0  0
   63.9174    3.2542    1.2122 C   0  0  0  0  0  0  0  0  0  0  0  0
   64.8774    2.3716    0.8330 C   0  0  0  0  0  0  0  0  0  0  0  0
   62.8657    1.3370    0.5561 N   0  0  0  0  0  0  0  0  0  0  0  0
   64.2104    1.1696    0.4317 C   0  0  0  0  0  0  0  0  0  0  0  0
   64.8608   -0.0028   -0.0060 C   0  0  0  0  0  0  0  0  0  0  0  0
   64.2146   -1.1715   -0.4600 C   0  0  0  0  0  0  0  0  0  0  0  0
   64.8835   -2.3801   -0.8373 C   0  0  0  0  0  0  0  0  0  0  0  0
   63.9289   -3.2538   -1.2492 C   0  0  0  0  0  0  0  0  0  0  0  0
   62.6648   -2.5848   -1.1286 C   0  0  0  0  0  0  0  0  0  0  0  0
   62.8733   -1.3269   -0.6287 N   0  0  0  0  0  0  0  0  0  0  0  0
   61.4236   -3.1394   -1.4620 C   0  0  0  0  0  0  0  0  0  0  0  0
   61.4310   -4.4898   -2.0773 C   0  0  0  0  0  0  0  0  0  0  0  0
   60.7780   -5.5573   -1.4601 C   0  0  0  0  0  0  0  0  0  0  0  0
   60.7844   -6.8196   -2.0332 C   0  0  0  0  0  0  0  0  0  0  0  0
   61.4430   -7.0260   -3.2430 C   0  0  0  0  0  0  0  0  0  0  0  0
   61.4703   -8.2457   -3.8413 O   0  0  0  0  0  0  0  0  0  0  0  0
   62.0971   -5.9683   -3.8720 C   0  0  0  0  0  0  0  0  0  0  0  0
   62.0916   -4.7140   -3.2880 C   0  0  0  0  0  0  0  0  0  0  0  0
   60.1775   -2.5332   -1.2665 C   0  0  0  0  0  0  0  0  0  0  0  0
   58.9136   -3.0846   -1.6664 C   0  0  0  0  0  0  0  0  0  0  0  0
   57.9537   -2.2058   -1.2784 C   0  0  0  0  0  0  0  0  0  0  0  0
   58.6205   -1.1066   -0.6469 C   0  0  0  0  0  0  0  0  0  0  0  0
   59.9638   -1.3219   -0.6647 N   0  0  0  0  0  0  0  0  0  0  0  0
   56.8674    2.3278    1.1907 H   0  0  0  0  0  0  0  0  0  0  0  0
   58.7468    4.0584    1.9931 H   0  0  0  0  0  0  0  0  0  0  0  0
   62.5101    3.9159    3.6900 H   0  0  0  0  0  0  0  0  0  0  0  0
   62.5027    6.1733    4.7120 H   0  0  0  0  0  0  0  0  0  0  0  0
   60.9339    8.9323    3.1697 H   0  0  0  0  0  0  0  0  0  0  0  0
   60.2784    7.6750    1.3745 H   0  0  0  0  0  0  0  0  0  0  0  0
   60.2940    5.4259    0.3492 H   0  0  0  0  0  0  0  0  0  0  0  0
   64.0538    4.2670    1.5555 H   0  0  0  0  0  0  0  0  0  0  0  0
   65.9441    2.5236    0.8119 H   0  0  0  0  0  0  0  0  0  0  0  0
   65.9471   -2.5432   -0.7771 H   0  0  0  0  0  0  0  0  0  0  0  0
   64.0672   -4.2683   -1.5870 H   0  0  0  0  0  0  0  0  0  0  0  0
   60.2755   -5.4013   -0.5118 H   0  0  0  0  0  0  0  0  0  0  0  0
   60.2810   -7.6472   -1.5448 H   0  0  0  0  0  0  0  0  0  0  0  0
   60.9843   -8.9013   -3.3234 H   0  0  0  0  0  0  0  0  0  0  0  0
   62.6018   -6.1422   -4.8143 H   0  0  0  0  0  0  0  0  0  0  0  0
   62.5903   -3.8885   -3.7837 H   0  0  0  0  0  0  0  0  0  0  0  0
   58.7785   -4.0164   -2.1917 H   0  0  0  0  0  0  0  0  0  0  0  0
   56.8876   -2.2839   -1.4199 H   0  0  0  0  0  0  0  0  0  0  0  0
   72.3420   -0.0135   -0.0083 Zn  0  0  0  0  0  0  0  0  0  0  0  0
   68.8957   -0.0080    0.0046 C   0  0  0  0  0  0  0  0  0  0  0  0
   69.5483    0.9998    0.7446 C   0  0  0  0  0  0  0  0  0  0  0  0
   68.8848    1.9820    1.5484 C   0  0  0  0  0  0  0  0  0  0  0  0
   69.8455    2.7892    2.0674 C   0  0  0  0  0  0  0  0  0  0  0  0
   71.1081    2.3085    1.5820 C   0  0  0  0  0  0  0  0  0  0  0  0
   70.8919    1.2086    0.7949 N   0  0  0  0  0  0  0  0  0  0  0  0
   72.3544    2.8715    1.8796 C   0  0  0  0  0  0  0  0  0  0  0  0
   72.3577    4.1138    2.6919 C   0  0  0  0  0  0  0  0  0  0  0  0
   72.9993    4.1534    3.9323 C   0  0  0  0  0  0  0  0  0  0  0  0
   73.0045    5.3098    4.6920 C   0  0  0  0  0  0  0  0  0  0  0  0
   72.3682    6.4537    4.2137 C   0  0  0  0  0  0  0  0  0  0  0  0
   72.3962    7.5736    4.9822 O   0  0  0  0  0  0  0  0  0  0  0  0
   71.7255    6.4305    2.9783 C   0  0  0  0  0  0  0  0  0  0  0  0
   71.7198    5.2648    2.2279 C   0  0  0  0  0  0  0  0  0  0  0  0
   73.5974    2.3654    1.4821 C   0  0  0  0  0  0  0  0  0  0  0  0
   74.8684    2.9755    1.7545 C   0  0  0  0  0  0  0  0  0  0  0  0
   75.8221    2.1641    1.2291 C   0  0  0  0  0  0  0  0  0  0  0  0
   73.8011    1.2101    0.7762 N   0  0  0  0  0  0  0  0  0  0  0  0
   75.1443    1.0594    0.6183 C   0  0  0  0  0  0  0  0  0  0  0  0
   75.7841   -0.0253   -0.0128 C   0  0  0  0  0  0  0  0  0  0  0  0
   75.1362   -1.1037   -0.6461 C   0  0  0  0  0  0  0  0  0  0  0  0
   75.8051   -2.2087   -1.2658 C   0  0  0  0  0  0  0  0  0  0  0  0
   74.8449   -3.0084   -1.7974 C   0  0  0  0  0  0  0  0  0  0  0  0
   73.5788   -2.3919   -1.5168 C   0  0  0  0  0  0  0  0  0  0  0  0
   73.7916   -1.2436   -0.8027 N   0  0  0  0  0  0  0  0  0  0  0  0
   72.3314   -2.8875   -1.9131 C   0  0  0  0  0  0  0  0  0  0  0  0
   72.3231   -4.1205   -2.7395 C   0  0  0  0  0  0  0  0  0  0  0  0
   71.6878   -5.2753   -2.2814 C   0  0  0  0  0  0  0  0  0  0  0  0
   71.6773   -6.4305   -3.0478 C   0  0  0  0  0  0  0  0  0  0  0  0
   72.3002   -6.4387   -4.2936 C   0  0  0  0  0  0  0  0  0  0  0  0
   72.3097   -7.5475   -5.0787 O   0  0  0  0  0  0  0  0  0  0  0  0
   72.9351   -5.2913   -4.7651 C   0  0  0  0  0  0  0  0  0  0  0  0
   72.9470   -4.1456   -3.9892 C   0  0  0  0  0  0  0  0  0  0  0  0
   71.0894   -2.3222   -1.6026 C   0  0  0  0  0  0  0  0  0  0  0  0
   69.8219   -2.7960   -2.0815 C   0  0  0  0  0  0  0  0  0  0  0  0
   68.8675   -1.9905   -1.5484 C   0  0  0  0  0  0  0  0  0  0  0  0
   69.5399   -1.0156   -0.7431 C   0  0  0  0  0  0  0  0  0  0  0  0
   70.8825   -1.2277   -0.8055 N   0  0  0  0  0  0  0  0  0  0  0  0
   67.8201    2.0346    1.7069 H   0  0  0  0  0  0  0  0  0  0  0  0
   69.7120    3.6257    2.7343 H   0  0  0  0  0  0  0  0  0  0  0  0
   73.4833    3.2600    4.3110 H   0  0  0  0  0  0  0  0  0  0  0  0
   73.4958    5.3407    5.6567 H   0  0  0  0  0  0  0  0  0  0  0  0
   71.9241    8.3026    4.5581 H   0  0  0  0  0  0  0  0  0  0  0  0
   71.2343    7.3242    2.6084 H   0  0  0  0  0  0  0  0  0  0  0  0
   71.2297    5.2519    1.2606 H   0  0  0  0  0  0  0  0  0  0  0  0
   75.0130    3.9103    2.2717 H   0  0  0  0  0  0  0  0  0  0  0  0
   76.8916    2.2994    1.2490 H   0  0  0  0  0  0  0  0  0  0  0  0
   76.8737   -2.3515   -1.2877 H   0  0  0  0  0  0  0  0  0  0  0  0
   74.9813   -3.9394   -2.3236 H   0  0  0  0  0  0  0  0  0  0  0  0
   71.2122   -5.2734   -1.3069 H   0  0  0  0  0  0  0  0  0  0  0  0
   71.1880   -7.3273   -2.6829 H   0  0  0  0  0  0  0  0  0  0  0  0
   71.8386   -8.2792   -4.6580 H   0  0  0  0  0  0  0  0  0  0  0  0
   73.4112   -5.3106   -5.7377 H   0  0  0  0  0  0  0  0  0  0  0  0
   73.4299   -3.2493   -4.3622 H   0  0  0  0  0  0  0  0  0  0  0  0
   69.6809   -3.6270   -2.7538 H   0  0  0  0  0  0  0  0  0  0  0  0
   67.8015   -2.0394   -1.6991 H   0  0  0  0  0  0  0  0  0  0  0  0
  2  3  4  0  0  0  0
  3  4  1  0  0  0  0
  4  5  2  0  0  0  0
  5  6  4  0  0  0  0
  1  7  1  0  0  0  0
  3  7  4  0  0  0  0
  6  7  4  0  0  0  0
  6  8  4  0  0  0  0
  8  9  1  0  0  0  0
  9 10  4  0  0  0  0
 10 11  4  0  0  0  0
 11 12  4  0  0  0  0
 12 13  1  0  0  0  0
 12 14  4  0  0  0  0
  9 15  4  0  0  0  0
 14 15  4  0  0  0  0
  8 16  4  0  0  0  0
 16 17  4  0  0  0  0
 17 18  2  0  0  0  0
  1 19  1  0  0  0  0
 16 19  4  0  0  0  0
 18 20  4  0  0  0  0
 19 20  4  0  0  0  0
 20 21  4  0  0  0  0
 21 22  4  0  0  0  0
 22 23  4  0  0  0  0
 23 24  2  0  0  0  0
 24 25  4  0  0  0  0
  1 26  1  0  0  0  0
 22 26  4  0  0  0  0
 25 26  4  0  0  0  0
 25 27  4  0  0  0  0
 27 28  1  0  0  0  0
 28 29  4  0  0  0  0
 29 30  4  0  0  0  0
 30 31  4  0  0  0  0
 31 32  1  0  0  0  0
 31 33  4  0  0  0  0
 28 34  4  0  0  0  0
 33 34  4  0  0  0  0
 27 35  4  0  0  0  0
 35 36  4  0  0  0  0
 36 37  2  0  0  0  0
  2 38  4  0  0  0  0
 37 38  1  0  0  0  0
  1 39  1  0  0  0  0
 35 39  4  0  0  0  0
 38 39  4  0  0  0  0
  2 40  1  0  0  0  0
  4 41  1  0  0  0  0
  5 42  1  0  0  0  0
 10 43  1  0  0  0  0
 11 44  1  0  0  0  0
 13 45  1  0  0  0  0
 14 46  1  0  0  0  0
 15 47  1  0  0  0  0
 17 48  1  0  0  0  0
 18 49  1  0  0  0  0
 23 50  1  0  0  0  0
 24 51  1  0  0  0  0
 29 52  1  0  0  0  0
 30 53  1  0  0  0  0
 32 54  1  0  0  0  0
 33 55  1  0  0  0  0
 34 56  1  0  0  0  0
 36 57  1  0  0  0  0
 37 58  1  0  0  0  0
 60 61  4  0  0  0  0
 61 62  1  0  0  0  0
 62 63  2  0  0  0  0
 63 64  4  0  0  0  0
 59 65  1  0  0  0  0
 61 65  4  0  0  0  0
 64 65  4  0  0  0  0
 64 66  4  0  0  0  0
 66 67  1  0  0  0  0
 67 68  4  0  0  0  0
 68 69  4  0  0  0  0
 69 70  4  0  0  0  0
 70 71  1  0  0  0  0
 70 72  4  0  0  0  0
 67 73  4  0  0  0  0
 72 73  4  0  0  0  0
 66 74  4  0  0  0  0
 74 75  4  0  0  0  0
 75 76  2  0  0  0  0
 59 77  1  0  0  0  0
 74 77  4  0  0  0  0
 76 78  4  0  0  0  0
 77 78  4  0  0  0  0
 78 79  4  0  0  0  0
 79 80  4  0  0  0  0
 80 81  4  0  0  0  0
 81 82  2  0  0  0  0
 82 83  4  0  0  0  0
 59 84  1  0  0  0  0
 80 84  4  0  0  0  0
 83 84  4  0  0  0  0
 83 85  4  0  0  0  0
 85 86  1  0  0  0  0
 86 87  4  0  0  0  0
 87 88  4  0  0  0  0
 88 89  4  0  0  0  0
 89 90  1  0  0  0  0
 89 91  4  0  0  0  0
 86 92  4  0  0  0  0
 91 92  4  0  0  0  0
 85 93  4  0  0  0  0
 93 94  4  0  0  0  0
 94 95  2  0  0  0  0
 60 96  4  0  0  0  0
 95 96  1  0  0  0  0
 59 97  1  0  0  0  0
 93 97  4  0  0  0  0
 96 97  4  0  0  0  0
 60 98  1  0  0  0  0
 62 99  1  0  0  0  0
 63100  1  0  0  0  0
 68101  1  0  0  0  0
 69102  1  0  0  0  0
 71103  1  0  0  0  0
 72104  1  0  0  0  0
 73105  1  0  0  0  0
 75106  1  0  0  0  0
 76107  1  0  0  0  0
 81108  1  0  0  0  0
 82109  1  0  0  0  0
 87110  1  0  0  0  0
 88111  1  0  0  0  0
 90112  1  0  0  0  0
 91113  1  0  0  0  0
 92114  1  0  0  0  0
 94115  1  0  0  0  0
 95116  1  0  0  0  0
 21117  4  0  0  0  0
117118  3  0  0  0  0
119120  3  0  0  0  0
 79122  4  0  0  0  0
121122  3  0  0  0  0
118124  4  0  0  0  0
124125  4  0  0  0  0
125126  4  0  0  0  0
126127  2  0  0  0  0
127128  4  0  0  0  0
123129  1  0  0  0  0
125129  4  0  0  0  0
128129  4  0  0  0  0
128130  4  0  0  0  0
130131  1  0  0  0  0
131132  4  0  0  0  0
132133  4  0  0  0  0
133134  4  0  0  0  0
134135  1  0  0  0  0
134136  4  0  0  0  0
131137  4  0  0  0  0
136137  4  0  0  0  0
130138  4  0  0  0  0
138139  4  0  0  0  0
139140  2  0  0  0  0
123141  1  0  0  0  0
138141  4  0  0  0  0
140142  4  0  0  0  0
141142  4  0  0  0  0
119143  4  0  0  0  0
142143  4  0  0  0  0
143144  4  0  0  0  0
144145  4  0  0  0  0
145146  2  0  0  0  0
146147  4  0  0  0  0
123148  1  0  0  0  0
144148  4  0  0  0  0
147148  4  0  0  0  0
147149  4  0  0  0  0
149150  1  0  0  0  0
150151  4  0  0  0  0
151152  4  0  0  0  0
152153  4  0  0  0  0
153154  1  0  0  0  0
153155  4  0  0  0  0
150156  4  0  0  0  0
155156  4  0  0  0  0
149157  4  0  0  0  0
157158  4  0  0  0  0
158159  2  0  0  0  0
124160  4  0  0  0  0
159160  4  0  0  0  0
123161  1  0  0  0  0
157161  4  0  0  0  0
160161  4  0  0  0  0
126162  1  0  0  0  0
127163  1  0  0  0  0
132164  1  0  0  0  0
133165  1  0  0  0  0
135166  1  0  0  0  0
136167  1  0  0  0  0
137168  1  0  0  0  0
139169  1  0  0  0  0
140170  1  0  0  0  0
145171  1  0  0  0  0
146172  1  0  0  0  0
151173  1  0  0  0  0
152174  1  0  0  0  0
154175  1  0  0  0  0
155176  1  0  0  0  0
156177  1  0  0  0  0
158178  1  0  0  0  0
159179  1  0  0  0  0
120181  4  0  0  0  0
181182  4  0  0  0  0
182183  4  0  0  0  0
183184  2  0  0  0  0
184185  4  0  0  0  0
180186  1  0  0  0  0
182186  4  0  0  0  0
185186  4  0  0  0  0
185187  4  0  0  0  0
187188  1  0  0  0  0
188189  4  0  0  0  0
189190  4  0  0  0  0
190191  4  0  0  0  0
191192  1  0  0  0  0
191193  4  0  0  0  0
188194  4  0  0  0  0
193194  4  0  0  0  0
187195  4  0  0  0  0
195196  4  0  0  0  0
196197  2  0  0  0  0
180198  1  0  0  0  0
195198  4  0  0  0  0
197199  4  0  0  0  0
198199  4  0  0  0  0
121200  4  0  0  0  0
199200  4  0  0  0  0
200201  4  0  0  0  0
201202  4  0  0  0  0
202203  2  0  0  0  0
203204  4  0  0  0  0
180205  1  0  0  0  0
201205  4  0  0  0  0
204205  4  0  0  0  0
204206  4  0  0  0  0
206207  1  0  0  0  0
207208  4  0  0  0  0
208209  4  0  0  0  0
209210  4  0  0  0  0
210211  1  0  0  0  0
210212  4  0  0  0  0
207213  4  0  0  0  0
212213  4  0  0  0  0
206214  4  0  0  0  0
214215  4  0  0  0  0
215216  2  0  0  0  0
181217  4  0  0  0  0
216217  4  0  0  0  0
180218  1  0  0  0  0
214218  4  0  0  0  0
217218  4  0  0  0  0
183219  1  0  0  0  0
184220  1  0  0  0  0
189221  1  0  0  0  0
190222  1  0  0  0  0
192223  1  0  0  0  0
193224  1  0  0  0  0
194225  1  0  0  0  0
196226  1  0  0  0  0
197227  1  0  0  0  0
202228  1  0  0  0  0
203229  1  0  0  0  0
208230  1  0  0  0  0
209231  1  0  0  0  0
211232  1  0  0  0  0
212233  1  0  0  0  0
213234  1  0  0  0  0
215235  1  0  0  0  0
216236  1  0  0  0  0
M  END
