 xtb: 6.5.1 (b24c23e)
          07302206313D

193222  0     0  0            999 V2000
   33.2932    0.0152   -0.0376 Ni  0  0  0  0  0  0  0  0  0  0  0  0
   29.8979    0.0567   -0.1316 C   0  0  0  0  0  0  0  0  0  0  0  0
   30.5577    1.2669   -0.1044 C   0  0  0  0  0  0  0  0  0  0  0  0
   29.8822    2.5283   -0.0911 C   0  0  0  0  0  0  0  0  0  0  0  0
   30.8415    3.4808   -0.0370 C   0  0  0  0  0  0  0  0  0  0  0  0
   32.1034    2.8001   -0.0278 C   0  0  0  0  0  0  0  0  0  0  0  0
   31.9186    1.4401   -0.0630 N   0  0  0  0  0  0  0  0  0  0  0  0
   33.3281    3.4501    0.0470 C   0  0  0  0  0  0  0  0  0  0  0  0
   33.3441    4.9344    0.0844 C   0  0  0  0  0  0  0  0  0  0  0  0
   32.8751    5.6659   -1.0064 C   0  0  0  0  0  0  0  0  0  0  0  0
   32.8931    7.0556   -0.9726 C   0  0  0  0  0  0  0  0  0  0  0  0
   32.4458    7.7770   -2.0291 O   0  0  0  0  0  0  0  0  0  0  0  0
   33.3754    7.7173    0.1577 C   0  0  0  0  0  0  0  0  0  0  0  0
   33.3780    9.0875    0.1634 O   0  0  0  0  0  0  0  0  0  0  0  0
   33.8405    6.9860    1.2476 C   0  0  0  0  0  0  0  0  0  0  0  0
   34.2951    7.7053    2.3213 O   0  0  0  0  0  0  0  0  0  0  0  0
   33.8300    5.5968    1.2144 C   0  0  0  0  0  0  0  0  0  0  0  0
   34.5381    2.7712    0.0865 C   0  0  0  0  0  0  0  0  0  0  0  0
   35.8105    3.4260    0.1242 C   0  0  0  0  0  0  0  0  0  0  0  0
   36.7521    2.4527    0.1265 C   0  0  0  0  0  0  0  0  0  0  0  0
   34.7008    1.4038    0.0545 N   0  0  0  0  0  0  0  0  0  0  0  0
   36.0541    1.2078    0.0810 C   0  0  0  0  0  0  0  0  0  0  0  0
   36.7084   -0.0261    0.0437 C   0  0  0  0  0  0  0  0  0  0  0  0
   36.0274   -1.2441   -0.0172 C   0  0  0  0  0  0  0  0  0  0  0  0
   36.6973   -2.5042   -0.0716 C   0  0  0  0  0  0  0  0  0  0  0  0
   35.7338   -3.4544   -0.1173 C   0  0  0  0  0  0  0  0  0  0  0  0
   34.4763   -2.7710   -0.0810 C   0  0  0  0  0  0  0  0  0  0  0  0
   34.6696   -1.4080   -0.0328 N   0  0  0  0  0  0  0  0  0  0  0  0
   33.2498   -3.4199   -0.1150 C   0  0  0  0  0  0  0  0  0  0  0  0
   33.2313   -4.9040   -0.1552 C   0  0  0  0  0  0  0  0  0  0  0  0
   33.7431   -5.6412    0.9123 C   0  0  0  0  0  0  0  0  0  0  0  0
   33.7231   -7.0306    0.8722 C   0  0  0  0  0  0  0  0  0  0  0  0
   34.2121   -7.7577    1.9061 O   0  0  0  0  0  0  0  0  0  0  0  0
   33.1958   -7.6866   -0.2413 C   0  0  0  0  0  0  0  0  0  0  0  0
   33.1926   -9.0570   -0.2542 O   0  0  0  0  0  0  0  0  0  0  0  0
   32.6874   -6.9497   -1.3077 C   0  0  0  0  0  0  0  0  0  0  0  0
   32.1901   -7.6635   -2.3664 O   0  0  0  0  0  0  0  0  0  0  0  0
   32.6999   -5.5609   -1.2679 C   0  0  0  0  0  0  0  0  0  0  0  0
   32.0391   -2.7396   -0.1192 C   0  0  0  0  0  0  0  0  0  0  0  0
   30.7615   -3.3902   -0.1174 C   0  0  0  0  0  0  0  0  0  0  0  0
   29.8240   -2.4143   -0.1277 C   0  0  0  0  0  0  0  0  0  0  0  0
   30.5288   -1.1694   -0.1243 C   0  0  0  0  0  0  0  0  0  0  0  0
   31.8856   -1.3754   -0.1091 N   0  0  0  0  0  0  0  0  0  0  0  0
   28.8143    0.0697   -0.1539 H   0  0  0  0  0  0  0  0  0  0  0  0
   28.8106    2.6475   -0.1126 H   0  0  0  0  0  0  0  0  0  0  0  0
   30.7189    4.5508    0.0027 H   0  0  0  0  0  0  0  0  0  0  0  0
   32.5113    5.1623   -1.8927 H   0  0  0  0  0  0  0  0  0  0  0  0
   32.5399    8.7202   -1.8161 H   0  0  0  0  0  0  0  0  0  0  0  0
   33.7410    9.3823    1.0138 H   0  0  0  0  0  0  0  0  0  0  0  0
   34.5956    7.1181    3.0273 H   0  0  0  0  0  0  0  0  0  0  0  0
   34.1820    5.0335    2.0707 H   0  0  0  0  0  0  0  0  0  0  0  0
   35.9557    4.4939    0.1341 H   0  0  0  0  0  0  0  0  0  0  0  0
   37.8253    2.5531    0.1483 H   0  0  0  0  0  0  0  0  0  0  0  0
   37.7681   -2.6286   -0.0782 H   0  0  0  0  0  0  0  0  0  0  0  0
   35.8539   -4.5235   -0.1781 H   0  0  0  0  0  0  0  0  0  0  0  0
   34.1428   -5.1423    1.7856 H   0  0  0  0  0  0  0  0  0  0  0  0
   34.1081   -8.6997    1.6928 H   0  0  0  0  0  0  0  0  0  0  0  0
   32.7953   -9.3466   -1.0908 H   0  0  0  0  0  0  0  0  0  0  0  0
   31.8566   -7.0720   -3.0537 H   0  0  0  0  0  0  0  0  0  0  0  0
   32.3145   -4.9933   -2.1067 H   0  0  0  0  0  0  0  0  0  0  0  0
   30.6138   -4.4578   -0.1001 H   0  0  0  0  0  0  0  0  0  0  0  0
   28.7496   -2.5082   -0.1302 H   0  0  0  0  0  0  0  0  0  0  0  0
   60.1581   -0.0515   -0.0001 Ni  0  0  0  0  0  0  0  0  0  0  0  0
   63.5539   -0.0848   -0.0971 C   0  0  0  0  0  0  0  0  0  0  0  0
   62.8927   -1.2891   -0.2127 C   0  0  0  0  0  0  0  0  0  0  0  0
   63.5666   -2.5439   -0.3496 C   0  0  0  0  0  0  0  0  0  0  0  0
   62.6060   -3.4946   -0.4135 C   0  0  0  0  0  0  0  0  0  0  0  0
   61.3449   -2.8181   -0.3242 C   0  0  0  0  0  0  0  0  0  0  0  0
   61.5314   -1.4641   -0.1951 N   0  0  0  0  0  0  0  0  0  0  0  0
   60.1195   -3.4710   -0.3271 C   0  0  0  0  0  0  0  0  0  0  0  0
   60.1018   -4.9490   -0.4685 C   0  0  0  0  0  0  0  0  0  0  0  0
   60.5653   -5.5448   -1.6411 C   0  0  0  0  0  0  0  0  0  0  0  0
   60.5438   -6.9283   -1.7748 C   0  0  0  0  0  0  0  0  0  0  0  0
   60.9855   -7.5183   -2.9121 O   0  0  0  0  0  0  0  0  0  0  0  0
   60.0639   -7.7203   -0.7304 C   0  0  0  0  0  0  0  0  0  0  0  0
   60.0574   -9.0814   -0.8897 O   0  0  0  0  0  0  0  0  0  0  0  0
   59.6052   -7.1246    0.4416 C   0  0  0  0  0  0  0  0  0  0  0  0
   59.1531   -7.9669    1.4232 O   0  0  0  0  0  0  0  0  0  0  0  0
   59.6191   -5.7417    0.5758 C   0  0  0  0  0  0  0  0  0  0  0  0
   58.9103   -2.8012   -0.2009 C   0  0  0  0  0  0  0  0  0  0  0  0
   57.6374   -3.4555   -0.2338 C   0  0  0  0  0  0  0  0  0  0  0  0
   56.6970   -2.4896   -0.1048 C   0  0  0  0  0  0  0  0  0  0  0  0
   58.7490   -1.4401   -0.0654 N   0  0  0  0  0  0  0  0  0  0  0  0
   57.3961   -1.2485   -0.0046 C   0  0  0  0  0  0  0  0  0  0  0  0
   56.7429   -0.0187    0.1095 C   0  0  0  0  0  0  0  0  0  0  0  0
   57.4250    1.1981    0.1819 C   0  0  0  0  0  0  0  0  0  0  0  0
   56.7563    2.4568    0.2734 C   0  0  0  0  0  0  0  0  0  0  0  0
   57.7207    3.4060    0.3228 C   0  0  0  0  0  0  0  0  0  0  0  0
   58.9774    2.7222    0.2717 C   0  0  0  0  0  0  0  0  0  0  0  0
   58.7828    1.3622    0.1719 N   0  0  0  0  0  0  0  0  0  0  0  0
   60.2040    3.3703    0.3012 C   0  0  0  0  0  0  0  0  0  0  0  0
   60.2244    4.8501    0.4233 C   0  0  0  0  0  0  0  0  0  0  0  0
   59.7350    5.4652    1.5751 C   0  0  0  0  0  0  0  0  0  0  0  0
   59.7586    6.8506    1.6880 C   0  0  0  0  0  0  0  0  0  0  0  0
   59.2927    7.4595    2.8054 O   0  0  0  0  0  0  0  0  0  0  0  0
   60.2656    7.6248    0.6431 C   0  0  0  0  0  0  0  0  0  0  0  0
   60.2725    8.9880    0.7812 O   0  0  0  0  0  0  0  0  0  0  0  0
   60.7506    7.0096   -0.5080 C   0  0  0  0  0  0  0  0  0  0  0  0
   61.2283    7.8352   -1.4917 O   0  0  0  0  0  0  0  0  0  0  0  0
   60.7361    5.6247   -0.6206 C   0  0  0  0  0  0  0  0  0  0  0  0
   61.4143    2.6942    0.2199 C   0  0  0  0  0  0  0  0  0  0  0  0
   62.6919    3.3407    0.2922 C   0  0  0  0  0  0  0  0  0  0  0  0
   63.6292    2.3710    0.1793 C   0  0  0  0  0  0  0  0  0  0  0  0
   62.9239    1.1333    0.0467 C   0  0  0  0  0  0  0  0  0  0  0  0
   61.5671    1.3371    0.0823 N   0  0  0  0  0  0  0  0  0  0  0  0
   64.6375   -0.0966   -0.1182 H   0  0  0  0  0  0  0  0  0  0  0  0
   64.6380   -2.6612   -0.3833 H   0  0  0  0  0  0  0  0  0  0  0  0
   62.7271   -4.5617   -0.5034 H   0  0  0  0  0  0  0  0  0  0  0  0
   60.9270   -4.9388   -2.4618 H   0  0  0  0  0  0  0  0  0  0  0  0
   60.8880   -8.4799   -2.8146 H   0  0  0  0  0  0  0  0  0  0  0  0
   59.6947   -9.4751   -0.0803 H   0  0  0  0  0  0  0  0  0  0  0  0
   58.8555   -7.4675    2.1949 H   0  0  0  0  0  0  0  0  0  0  0  0
   59.2719   -5.2847    1.4950 H   0  0  0  0  0  0  0  0  0  0  0  0
   57.4910   -4.5165   -0.3534 H   0  0  0  0  0  0  0  0  0  0  0  0
   55.6240   -2.5917   -0.0868 H   0  0  0  0  0  0  0  0  0  0  0  0
   55.6857    2.5815    0.2907 H   0  0  0  0  0  0  0  0  0  0  0  0
   57.6021    4.4755    0.3814 H   0  0  0  0  0  0  0  0  0  0  0  0
   59.3503    4.8732    2.3954 H   0  0  0  0  0  0  0  0  0  0  0  0
   59.3931    8.4194    2.6945 H   0  0  0  0  0  0  0  0  0  0  0  0
   60.6499    9.3687   -0.0277 H   0  0  0  0  0  0  0  0  0  0  0  0
   61.5401    7.3231   -2.2494 H   0  0  0  0  0  0  0  0  0  0  0  0
   61.1047    5.1521   -1.5235 H   0  0  0  0  0  0  0  0  0  0  0  0
   62.8392    4.4004    0.4233 H   0  0  0  0  0  0  0  0  0  0  0  0
   64.7035    2.4641    0.1886 H   0  0  0  0  0  0  0  0  0  0  0  0
   39.3356   -0.0434    0.0692 C   0  0  0  0  0  0  0  0  0  0  0  0
   38.1142   -0.0396    0.0599 C   0  0  0  0  0  0  0  0  0  0  0  0
   40.6858   -0.0428    0.0704 C   0  0  0  0  0  0  0  0  0  0  0  0
   41.9074   -0.0367    0.0650 C   0  0  0  0  0  0  0  0  0  0  0  0
   52.7656    0.0008    0.1498 C   0  0  0  0  0  0  0  0  0  0  0  0
   51.5441    0.0000    0.1380 C   0  0  0  0  0  0  0  0  0  0  0  0
   54.1159   -0.0010    0.1493 C   0  0  0  0  0  0  0  0  0  0  0  0
   55.3373   -0.0060    0.1367 C   0  0  0  0  0  0  0  0  0  0  0  0
   46.7263   -0.0125    0.0359 Ni  0  0  0  0  0  0  0  0  0  0  0  0
   43.3122   -0.0294    0.0523 C   0  0  0  0  0  0  0  0  0  0  0  0
   43.9802    1.1754    0.2901 C   0  0  0  0  0  0  0  0  0  0  0  0
   43.3061    2.4005    0.5776 C   0  0  0  0  0  0  0  0  0  0  0  0
   44.2557    3.3672    0.6133 C   0  0  0  0  0  0  0  0  0  0  0  0
   45.5068    2.7281    0.3426 C   0  0  0  0  0  0  0  0  0  0  0  0
   45.3296    1.3720    0.1854 N   0  0  0  0  0  0  0  0  0  0  0  0
   46.7113    3.4074    0.2098 C   0  0  0  0  0  0  0  0  0  0  0  0
   46.6978    4.8888    0.2660 C   0  0  0  0  0  0  0  0  0  0  0  0
   47.4071    5.5655    1.2587 C   0  0  0  0  0  0  0  0  0  0  0  0
   47.3952    6.9561    1.3253 C   0  0  0  0  0  0  0  0  0  0  0  0
   48.0721    7.6264    2.2938 O   0  0  0  0  0  0  0  0  0  0  0  0
   46.6729    7.6899    0.3787 C   0  0  0  0  0  0  0  0  0  0  0  0
   46.6464    9.0475    0.4133 O   0  0  0  0  0  0  0  0  0  0  0  0
   45.9695    7.0047   -0.6155 C   0  0  0  0  0  0  0  0  0  0  0  0
   45.2864    7.7831   -1.5141 O   0  0  0  0  0  0  0  0  0  0  0  0
   45.9702    5.6183   -0.6761 C   0  0  0  0  0  0  0  0  0  0  0  0
   47.9247    2.7552    0.0336 C   0  0  0  0  0  0  0  0  0  0  0  0
   49.1766    3.4272   -0.1357 C   0  0  0  0  0  0  0  0  0  0  0  0
   50.1361    2.4700   -0.1480 C   0  0  0  0  0  0  0  0  0  0  0  0
   48.1126    1.3915    0.0707 N   0  0  0  0  0  0  0  0  0  0  0  0
   49.4667    1.2175   -0.0041 C   0  0  0  0  0  0  0  0  0  0  0  0
   50.1394   -0.0028    0.1109 C   0  0  0  0  0  0  0  0  0  0  0  0
   49.4685   -1.2272    0.1758 C   0  0  0  0  0  0  0  0  0  0  0  0
   50.1388   -2.4812    0.3055 C   0  0  0  0  0  0  0  0  0  0  0  0
   49.1900   -3.4422    0.1944 C   0  0  0  0  0  0  0  0  0  0  0  0
   47.9429   -2.7703   -0.0075 C   0  0  0  0  0  0  0  0  0  0  0  0
   48.1208   -1.4057    0.0245 N   0  0  0  0  0  0  0  0  0  0  0  0
   46.7421   -3.4232   -0.2533 C   0  0  0  0  0  0  0  0  0  0  0  0
   46.7560   -4.9000   -0.3970 C   0  0  0  0  0  0  0  0  0  0  0  0
   47.4927   -5.4893   -1.4251 C   0  0  0  0  0  0  0  0  0  0  0  0
   47.4991   -6.8717   -1.5689 C   0  0  0  0  0  0  0  0  0  0  0  0
   48.1960   -7.4565   -2.5712 O   0  0  0  0  0  0  0  0  0  0  0  0
   46.7745   -7.6659   -0.6776 C   0  0  0  0  0  0  0  0  0  0  0  0
   46.8142   -9.0421   -0.8521 O   0  0  0  0  0  0  0  0  0  0  0  0
   46.0695   -7.0803    0.3721 C   0  0  0  0  0  0  0  0  0  0  0  0
   45.3899   -7.8535    1.2664 O   0  0  0  0  0  0  0  0  0  0  0  0
   46.0446   -5.6958    0.5009 C   0  0  0  0  0  0  0  0  0  0  0  0
   45.5313   -2.7527   -0.3618 C   0  0  0  0  0  0  0  0  0  0  0  0
   44.2830   -3.3955   -0.6382 C   0  0  0  0  0  0  0  0  0  0  0  0
   43.3226   -2.4450   -0.5370 C   0  0  0  0  0  0  0  0  0  0  0  0
   43.9880   -1.2230   -0.2166 C   0  0  0  0  0  0  0  0  0  0  0  0
   45.3413   -1.4061   -0.1457 N   0  0  0  0  0  0  0  0  0  0  0  0
   42.2426    2.4943    0.7267 H   0  0  0  0  0  0  0  0  0  0  0  0
   44.1299    4.4190    0.8117 H   0  0  0  0  0  0  0  0  0  0  0  0
   47.9597    5.0061    2.0052 H   0  0  0  0  0  0  0  0  0  0  0  0
   48.5296    7.0157    2.8866 H   0  0  0  0  0  0  0  0  0  0  0  0
   46.0961    9.3588   -0.3234 H   0  0  0  0  0  0  0  0  0  0  0  0
   44.8359    7.2364   -2.1708 H   0  0  0  0  0  0  0  0  0  0  0  0
   45.4256    5.1100   -1.4632 H   0  0  0  0  0  0  0  0  0  0  0  0
   49.2971    4.4936   -0.2338 H   0  0  0  0  0  0  0  0  0  0  0  0
   51.2033    2.5864   -0.2473 H   0  0  0  0  0  0  0  0  0  0  0  0
   51.2001   -2.5957    0.4567 H   0  0  0  0  0  0  0  0  0  0  0  0
   49.3132   -4.5115    0.2476 H   0  0  0  0  0  0  0  0  0  0  0  0
   48.0422   -4.8800   -2.1309 H   0  0  0  0  0  0  0  0  0  0  0  0
   48.0807   -8.4192   -2.5019 H   0  0  0  0  0  0  0  0  0  0  0  0
   45.9360   -9.4283   -0.7390 H   0  0  0  0  0  0  0  0  0  0  0  0
   45.6964   -8.7701    1.2186 H   0  0  0  0  0  0  0  0  0  0  0  0
   45.4938   -5.2514    1.3198 H   0  0  0  0  0  0  0  0  0  0  0  0
   44.1660   -4.4399   -0.8770 H   0  0  0  0  0  0  0  0  0  0  0  0
   42.2571   -2.5463   -0.6663 H   0  0  0  0  0  0  0  0  0  0  0  0
  2  3  4  0  0  0  0
  3  4  4  0  0  0  0
  4  5  2  0  0  0  0
  5  6  4  0  0  0  0
  1  7  1  0  0  0  0
  3  7  4  0  0  0  0
  6  7  4  0  0  0  0
  6  8  4  0  0  0  0
  8  9  1  0  0  0  0
  9 10  4  0  0  0  0
 10 11  4  0  0  0  0
 11 12  1  0  0  0  0
 11 13  4  0  0  0  0
 13 14  1  0  0  0  0
 13 15  4  0  0  0  0
 15 16  1  0  0  0  0
  9 17  4  0  0  0  0
 15 17  4  0  0  0  0
  8 18  4  0  0  0  0
 18 19  4  0  0  0  0
 19 20  2  0  0  0  0
  1 21  1  0  0  0  0
 18 21  4  0  0  0  0
 20 22  4  0  0  0  0
 21 22  4  0  0  0  0
 22 23  4  0  0  0  0
 23 24  4  0  0  0  0
 24 25  4  0  0  0  0
 25 26  2  0  0  0  0
 26 27  4  0  0  0  0
  1 28  1  0  0  0  0
 24 28  4  0  0  0  0
 27 28  4  0  0  0  0
 27 29  4  0  0  0  0
 29 30  1  0  0  0  0
 30 31  4  0  0  0  0
 31 32  4  0  0  0  0
 32 33  1  0  0  0  0
 32 34  4  0  0  0  0
 34 35  1  0  0  0  0
 34 36  4  0  0  0  0
 36 37  1  0  0  0  0
 30 38  4  0  0  0  0
 36 38  4  0  0  0  0
 29 39  4  0  0  0  0
 39 40  4  0  0  0  0
 40 41  2  0  0  0  0
  2 42  4  0  0  0  0
 41 42  4  0  0  0  0
  1 43  1  0  0  0  0
 39 43  4  0  0  0  0
 42 43  4  0  0  0  0
  2 44  1  0  0  0  0
  4 45  1  0  0  0  0
  5 46  1  0  0  0  0
 10 47  1  0  0  0  0
 12 48  1  0  0  0  0
 14 49  1  0  0  0  0
 16 50  1  0  0  0  0
 17 51  1  0  0  0  0
 19 52  1  0  0  0  0
 20 53  1  0  0  0  0
 25 54  1  0  0  0  0
 26 55  1  0  0  0  0
 31 56  1  0  0  0  0
 33 57  1  0  0  0  0
 35 58  1  0  0  0  0
 37 59  1  0  0  0  0
 38 60  1  0  0  0  0
 40 61  1  0  0  0  0
 41 62  1  0  0  0  0
 64 65  4  0  0  0  0
 65 66  4  0  0  0  0
 66 67  2  0  0  0  0
 67 68  4  0  0  0  0
 63 69  1  0  0  0  0
 65 69  4  0  0  0  0
 68 69  4  0  0  0  0
 68 70  4  0  0  0  0
 70 71  1  0  0  0  0
 71 72  4  0  0  0  0
 72 73  4  0  0  0  0
 73 74  1  0  0  0  0
 73 75  4  0  0  0  0
 75 76  1  0  0  0  0
 75 77  4  0  0  0  0
 77 78  1  0  0  0  0
 71 79  4  0  0  0  0
 77 79  4  0  0  0  0
 70 80  4  0  0  0  0
 80 81  4  0  0  0  0
 81 82  2  0  0  0  0
 63 83  1  0  0  0  0
 80 83  4  0  0  0  0
 82 84  4  0  0  0  0
 83 84  4  0  0  0  0
 84 85  4  0  0  0  0
 85 86  4  0  0  0  0
 86 87  4  0  0  0  0
 87 88  2  0  0  0  0
 88 89  4  0  0  0  0
 63 90  1  0  0  0  0
 86 90  4  0  0  0  0
 89 90  4  0  0  0  0
 89 91  4  0  0  0  0
 91 92  1  0  0  0  0
 92 93  4  0  0  0  0
 93 94  4  0  0  0  0
 94 95  1  0  0  0  0
 94 96  4  0  0  0  0
 96 97  1  0  0  0  0
 96 98  4  0  0  0  0
 98 99  1  0  0  0  0
 92100  4  0  0  0  0
 98100  4  0  0  0  0
 91101  4  0  0  0  0
101102  4  0  0  0  0
102103  2  0  0  0  0
 64104  4  0  0  0  0
103104  4  0  0  0  0
 63105  1  0  0  0  0
101105  4  0  0  0  0
104105  4  0  0  0  0
 64106  1  0  0  0  0
 66107  1  0  0  0  0
 67108  1  0  0  0  0
 72109  1  0  0  0  0
 74110  1  0  0  0  0
 76111  1  0  0  0  0
 78112  1  0  0  0  0
 79113  1  0  0  0  0
 81114  1  0  0  0  0
 82115  1  0  0  0  0
 87116  1  0  0  0  0
 88117  1  0  0  0  0
 93118  1  0  0  0  0
 95119  1  0  0  0  0
 97120  1  0  0  0  0
 99121  1  0  0  0  0
100122  1  0  0  0  0
102123  1  0  0  0  0
103124  1  0  0  0  0
 23126  4  0  0  0  0
125126  3  0  0  0  0
125127  4  0  0  0  0
127128  3  0  0  0  0
129130  3  0  0  0  0
129131  4  0  0  0  0
 85132  4  0  0  0  0
131132  3  0  0  0  0
128134  4  0  0  0  0
134135  4  0  0  0  0
135136  4  0  0  0  0
136137  2  0  0  0  0
137138  4  0  0  0  0
133139  1  0  0  0  0
135139  4  0  0  0  0
138139  4  0  0  0  0
138140  4  0  0  0  0
140141  1  0  0  0  0
141142  4  0  0  0  0
142143  4  0  0  0  0
143144  1  0  0  0  0
143145  4  0  0  0  0
145146  1  0  0  0  0
145147  4  0  0  0  0
147148  1  0  0  0  0
141149  4  0  0  0  0
147149  4  0  0  0  0
140150  4  0  0  0  0
150151  4  0  0  0  0
151152  2  0  0  0  0
133153  1  0  0  0  0
150153  4  0  0  0  0
152154  4  0  0  0  0
153154  4  0  0  0  0
130155  4  0  0  0  0
154155  4  0  0  0  0
155156  4  0  0  0  0
156157  4  0  0  0  0
157158  2  0  0  0  0
158159  4  0  0  0  0
133160  1  0  0  0  0
156160  4  0  0  0  0
159160  4  0  0  0  0
159161  4  0  0  0  0
161162  1  0  0  0  0
162163  4  0  0  0  0
163164  4  0  0  0  0
164165  1  0  0  0  0
164166  4  0  0  0  0
166167  1  0  0  0  0
166168  4  0  0  0  0
168169  1  0  0  0  0
162170  4  0  0  0  0
168170  4  0  0  0  0
161171  4  0  0  0  0
171172  4  0  0  0  0
172173  2  0  0  0  0
134174  4  0  0  0  0
173174  4  0  0  0  0
133175  1  0  0  0  0
171175  4  0  0  0  0
174175  4  0  0  0  0
136176  1  0  0  0  0
137177  1  0  0  0  0
142178  1  0  0  0  0
144179  1  0  0  0  0
146180  1  0  0  0  0
148181  1  0  0  0  0
149182  1  0  0  0  0
151183  1  0  0  0  0
152184  1  0  0  0  0
157185  1  0  0  0  0
158186  1  0  0  0  0
163187  1  0  0  0  0
165188  1  0  0  0  0
167189  1  0  0  0  0
169190  1  0  0  0  0
170191  1  0  0  0  0
172192  1  0  0  0  0
173193  1  0  0  0  0
M  END
