 xtb: 6.5.1 (b24c23e)
          07302206473D

207236  0     0  0            999 V2000
   33.5074    0.0517   -0.1026 Cu  0  0  0  0  0  0  0  0  0  0  0  0
   30.1058    0.1663   -0.3003 C   0  0  0  0  0  0  0  0  0  0  0  0
   30.7508    1.3422    0.0526 C   0  0  0  0  0  0  0  0  0  0  0  0
   30.0876    2.5771    0.3604 C   0  0  0  0  0  0  0  0  0  0  0  0
   31.0521    3.4729    0.6865 C   0  0  0  0  0  0  0  0  0  0  0  0
   32.3148    2.7950    0.5725 C   0  0  0  0  0  0  0  0  0  0  0  0
   32.1001    1.5020    0.1896 N   0  0  0  0  0  0  0  0  0  0  0  0
   33.5587    3.3636    0.8513 C   0  0  0  0  0  0  0  0  0  0  0  0
   34.7827    2.6983    0.7669 C   0  0  0  0  0  0  0  0  0  0  0  0
   36.0600    3.2973    1.0298 C   0  0  0  0  0  0  0  0  0  0  0  0
   36.9993    2.3433    0.8081 C   0  0  0  0  0  0  0  0  0  0  0  0
   34.9656    1.3954    0.3851 N   0  0  0  0  0  0  0  0  0  0  0  0
   36.3066    1.1589    0.3984 C   0  0  0  0  0  0  0  0  0  0  0  0
   36.9361   -0.0491    0.0518 C   0  0  0  0  0  0  0  0  0  0  0  0
   36.2687   -1.2258   -0.3289 C   0  0  0  0  0  0  0  0  0  0  0  0
   36.9243   -2.4403   -0.7105 C   0  0  0  0  0  0  0  0  0  0  0  0
   35.9529   -3.3424   -1.0010 C   0  0  0  0  0  0  0  0  0  0  0  0
   34.6936   -2.6841   -0.7995 C   0  0  0  0  0  0  0  0  0  0  0  0
   33.4450   -3.2731   -1.0097 C   0  0  0  0  0  0  0  0  0  0  0  0
   33.4215   -4.7093   -1.3862 C   0  0  0  0  0  0  0  0  0  0  0  0
   32.9000   -5.1100   -2.6143 C   0  0  0  0  0  0  0  0  0  0  0  0
   32.8773   -6.4562   -2.9678 C   0  0  0  0  0  0  0  0  0  0  0  0
   32.2998   -6.8753   -4.2930 C   0  0  0  0  0  0  0  0  0  0  0  0
   33.3760   -7.4025   -2.0797 C   0  0  0  0  0  0  0  0  0  0  0  0
   33.8991   -7.0179   -0.8472 C   0  0  0  0  0  0  0  0  0  0  0  0
   34.4485   -8.0545    0.0955 C   0  0  0  0  0  0  0  0  0  0  0  0
   33.9220   -5.6707   -0.5077 C   0  0  0  0  0  0  0  0  0  0  0  0
   32.2186   -2.6156   -0.8947 C   0  0  0  0  0  0  0  0  0  0  0  0
   30.9305   -3.2274   -1.0783 C   0  0  0  0  0  0  0  0  0  0  0  0
   29.9987   -2.2602   -0.8893 C   0  0  0  0  0  0  0  0  0  0  0  0
   30.7074   -1.0525   -0.5760 C   0  0  0  0  0  0  0  0  0  0  0  0
   32.0511   -1.2972   -0.5809 N   0  0  0  0  0  0  0  0  0  0  0  0
   34.9187   -1.3932   -0.4006 N   0  0  0  0  0  0  0  0  0  0  0  0
   33.5809    4.7891    1.2701 C   0  0  0  0  0  0  0  0  0  0  0  0
   33.1800    5.7873    0.3836 C   0  0  0  0  0  0  0  0  0  0  0  0
   33.1990    7.1233    0.7692 C   0  0  0  0  0  0  0  0  0  0  0  0
   32.7918    8.2000   -0.2003 C   0  0  0  0  0  0  0  0  0  0  0  0
   33.6189    7.4566    2.0536 C   0  0  0  0  0  0  0  0  0  0  0  0
   34.0201    6.4711    2.9504 C   0  0  0  0  0  0  0  0  0  0  0  0
   34.4473    6.8390    4.3457 C   0  0  0  0  0  0  0  0  0  0  0  0
   34.0011    5.1385    2.5520 C   0  0  0  0  0  0  0  0  0  0  0  0
   29.0224    0.1997   -0.3524 H   0  0  0  0  0  0  0  0  0  0  0  0
   29.0192    2.7236    0.3335 H   0  0  0  0  0  0  0  0  0  0  0  0
   30.9274    4.5004    0.9885 H   0  0  0  0  0  0  0  0  0  0  0  0
   36.2148    4.3191    1.3363 H   0  0  0  0  0  0  0  0  0  0  0  0
   38.0685    2.4268    0.9152 H   0  0  0  0  0  0  0  0  0  0  0  0
   37.9926   -2.5755   -0.7580 H   0  0  0  0  0  0  0  0  0  0  0  0
   36.0742   -4.3588   -1.3392 H   0  0  0  0  0  0  0  0  0  0  0  0
   32.5253   -4.3625   -3.3050 H   0  0  0  0  0  0  0  0  0  0  0  0
   32.6073   -7.8889   -4.5503 H   0  0  0  0  0  0  0  0  0  0  0  0
   31.2088   -6.8483   -4.2489 H   0  0  0  0  0  0  0  0  0  0  0  0
   32.6215   -6.1975   -5.0846 H   0  0  0  0  0  0  0  0  0  0  0  0
   33.3586   -8.4538   -2.3484 H   0  0  0  0  0  0  0  0  0  0  0  0
   34.5629   -7.6471    1.0999 H   0  0  0  0  0  0  0  0  0  0  0  0
   33.7894   -8.9224    0.1401 H   0  0  0  0  0  0  0  0  0  0  0  0
   35.4276   -8.3921   -0.2516 H   0  0  0  0  0  0  0  0  0  0  0  0
   34.3161   -5.3590    0.4534 H   0  0  0  0  0  0  0  0  0  0  0  0
   30.7668   -4.2673   -1.3111 H   0  0  0  0  0  0  0  0  0  0  0  0
   28.9248   -2.3451   -0.9453 H   0  0  0  0  0  0  0  0  0  0  0  0
   32.8656    5.5155   -0.6182 H   0  0  0  0  0  0  0  0  0  0  0  0
   32.3194    9.0330    0.3210 H   0  0  0  0  0  0  0  0  0  0  0  0
   32.0982    7.8103   -0.9456 H   0  0  0  0  0  0  0  0  0  0  0  0
   33.6724    8.5822   -0.7218 H   0  0  0  0  0  0  0  0  0  0  0  0
   33.6335    8.4978    2.3593 H   0  0  0  0  0  0  0  0  0  0  0  0
   33.5802    6.8412    5.0103 H   0  0  0  0  0  0  0  0  0  0  0  0
   34.8928    7.8338    4.3664 H   0  0  0  0  0  0  0  0  0  0  0  0
   35.1693    6.1199    4.7331 H   0  0  0  0  0  0  0  0  0  0  0  0
   34.3007    4.3603    3.2455 H   0  0  0  0  0  0  0  0  0  0  0  0
   55.3068    0.0287   -0.0821 Cu  0  0  0  0  0  0  0  0  0  0  0  0
   58.7048    0.1803   -0.2379 C   0  0  0  0  0  0  0  0  0  0  0  0
   58.0630   -0.5017   -1.2608 C   0  0  0  0  0  0  0  0  0  0  0  0
   58.7300   -1.1612   -2.3471 C   0  0  0  0  0  0  0  0  0  0  0  0
   57.7681   -1.7347   -3.1118 C   0  0  0  0  0  0  0  0  0  0  0  0
   56.5028   -1.4247   -2.5033 C   0  0  0  0  0  0  0  0  0  0  0  0
   56.7138   -0.6766   -1.3804 N   0  0  0  0  0  0  0  0  0  0  0  0
   55.2606   -1.8592   -2.9697 C   0  0  0  0  0  0  0  0  0  0  0  0
   54.0358   -1.5914   -2.3553 C   0  0  0  0  0  0  0  0  0  0  0  0
   52.7561   -2.0063   -2.8576 C   0  0  0  0  0  0  0  0  0  0  0  0
   51.8171   -1.5182   -2.0085 C   0  0  0  0  0  0  0  0  0  0  0  0
   53.8555   -0.8570   -1.2142 N   0  0  0  0  0  0  0  0  0  0  0  0
   52.5139   -0.7952   -0.9863 C   0  0  0  0  0  0  0  0  0  0  0  0
   51.8872   -0.0911    0.0521 C   0  0  0  0  0  0  0  0  0  0  0  0
   52.5448    0.6449    1.0483 C   0  0  0  0  0  0  0  0  0  0  0  0
   51.8809    1.3640    2.0945 C   0  0  0  0  0  0  0  0  0  0  0  0
   52.8481    1.9089    2.8750 C   0  0  0  0  0  0  0  0  0  0  0  0
   54.1117    1.5239    2.3119 C   0  0  0  0  0  0  0  0  0  0  0  0
   55.3588    1.8886    2.8242 C   0  0  0  0  0  0  0  0  0  0  0  0
   55.3766    2.6661    4.0892 C   0  0  0  0  0  0  0  0  0  0  0  0
   55.9093    3.9528    4.1219 C   0  0  0  0  0  0  0  0  0  0  0  0
   55.9245    4.6823    5.3074 C   0  0  0  0  0  0  0  0  0  0  0  0
   56.5161    6.0660    5.3312 C   0  0  0  0  0  0  0  0  0  0  0  0
   55.4051    4.1132    6.4647 C   0  0  0  0  0  0  0  0  0  0  0  0
   54.8700    2.8272    6.4487 C   0  0  0  0  0  0  0  0  0  0  0  0
   54.2958    2.2339    7.7070 C   0  0  0  0  0  0  0  0  0  0  0  0
   54.8567    2.1100    5.2586 C   0  0  0  0  0  0  0  0  0  0  0  0
   56.5869    1.5765    2.2372 C   0  0  0  0  0  0  0  0  0  0  0  0
   57.8744    1.9301    2.7711 C   0  0  0  0  0  0  0  0  0  0  0  0
   58.8078    1.4610    1.9063 C   0  0  0  0  0  0  0  0  0  0  0  0
   58.1013    0.8041    0.8439 C   0  0  0  0  0  0  0  0  0  0  0  0
   56.7573    0.8825    1.0734 N   0  0  0  0  0  0  0  0  0  0  0  0
   53.8940    0.7666    1.1926 N   0  0  0  0  0  0  0  0  0  0  0  0
   55.2381   -2.6598   -4.2208 C   0  0  0  0  0  0  0  0  0  0  0  0
   55.6547   -2.0908   -5.4234 C   0  0  0  0  0  0  0  0  0  0  0  0
   55.6271   -2.8293   -6.6014 C   0  0  0  0  0  0  0  0  0  0  0  0
   56.0499   -2.2021   -7.9025 C   0  0  0  0  0  0  0  0  0  0  0  0
   55.1820   -4.1477   -6.5694 C   0  0  0  0  0  0  0  0  0  0  0  0
   54.7658   -4.7305   -5.3764 C   0  0  0  0  0  0  0  0  0  0  0  0
   54.3088   -6.1642   -5.3490 C   0  0  0  0  0  0  0  0  0  0  0  0
   54.7948   -3.9811   -4.2049 C   0  0  0  0  0  0  0  0  0  0  0  0
   59.7885    0.2186   -0.2814 H   0  0  0  0  0  0  0  0  0  0  0  0
   59.7991   -1.1813   -2.4897 H   0  0  0  0  0  0  0  0  0  0  0  0
   57.8961   -2.3274   -4.0034 H   0  0  0  0  0  0  0  0  0  0  0  0
   52.5999   -2.5852   -3.7535 H   0  0  0  0  0  0  0  0  0  0  0  0
   50.7455   -1.6249   -2.0653 H   0  0  0  0  0  0  0  0  0  0  0  0
   50.8110    1.4379    2.2075 H   0  0  0  0  0  0  0  0  0  0  0  0
   52.7219    2.5285    3.7481 H   0  0  0  0  0  0  0  0  0  0  0  0
   56.2986    4.3932    3.2104 H   0  0  0  0  0  0  0  0  0  0  0  0
   56.1846    6.6175    6.2110 H   0  0  0  0  0  0  0  0  0  0  0  0
   57.6064    6.0039    5.3562 H   0  0  0  0  0  0  0  0  0  0  0  0
   56.2309    6.6224    4.4377 H   0  0  0  0  0  0  0  0  0  0  0  0
   55.4152    4.6765    7.3922 H   0  0  0  0  0  0  0  0  0  0  0  0
   54.1826    1.1539    7.6135 H   0  0  0  0  0  0  0  0  0  0  0  0
   54.9380    2.4484    8.5622 H   0  0  0  0  0  0  0  0  0  0  0  0
   53.3127    2.6658    7.9071 H   0  0  0  0  0  0  0  0  0  0  0  0
   54.4542    1.1031    5.2356 H   0  0  0  0  0  0  0  0  0  0  0  0
   58.0366    2.4615    3.6950 H   0  0  0  0  0  0  0  0  0  0  0  0
   59.8816    1.5389    1.9735 H   0  0  0  0  0  0  0  0  0  0  0  0
   55.9863   -1.0583   -5.4376 H   0  0  0  0  0  0  0  0  0  0  0  0
   56.5251   -2.9383   -8.5514 H   0  0  0  0  0  0  0  0  0  0  0  0
   56.7457   -1.3808   -7.7307 H   0  0  0  0  0  0  0  0  0  0  0  0
   55.1761   -1.8048   -8.4240 H   0  0  0  0  0  0  0  0  0  0  0  0
   55.1587   -4.7277   -7.4864 H   0  0  0  0  0  0  0  0  0  0  0  0
   55.1642   -6.8235   -5.1846 H   0  0  0  0  0  0  0  0  0  0  0  0
   53.8441   -6.4417   -6.2954 H   0  0  0  0  0  0  0  0  0  0  0  0
   53.5938   -6.3287   -4.5425 H   0  0  0  0  0  0  0  0  0  0  0  0
   54.4839   -4.4281   -3.2669 H   0  0  0  0  0  0  0  0  0  0  0  0
   38.3468   -0.0760    0.0768 C   0  0  0  0  0  0  0  0  0  0  0  0
   39.5634   -0.0850    0.0848 C   0  0  0  0  0  0  0  0  0  0  0  0
   49.2581   -0.1274    0.1039 C   0  0  0  0  0  0  0  0  0  0  0  0
   50.4726   -0.1119    0.0858 C   0  0  0  0  0  0  0  0  0  0  0  0
   44.4118   -0.1087    0.1015 Cu  0  0  0  0  0  0  0  0  0  0  0  0
   40.9743   -0.0929    0.0905 C   0  0  0  0  0  0  0  0  0  0  0  0
   41.6297    1.1400   -0.0732 C   0  0  0  0  0  0  0  0  0  0  0  0
   40.9614    2.3955   -0.2400 C   0  0  0  0  0  0  0  0  0  0  0  0
   41.9231    3.3472   -0.3457 C   0  0  0  0  0  0  0  0  0  0  0  0
   43.1888    2.6771   -0.2552 C   0  0  0  0  0  0  0  0  0  0  0  0
   42.9771    1.3335   -0.0932 N   0  0  0  0  0  0  0  0  0  0  0  0
   44.4308    3.3133   -0.2858 C   0  0  0  0  0  0  0  0  0  0  0  0
   45.6668    2.6771   -0.1581 C   0  0  0  0  0  0  0  0  0  0  0  0
   46.9413    3.3344   -0.2270 C   0  0  0  0  0  0  0  0  0  0  0  0
   47.8919    2.3734   -0.1071 C   0  0  0  0  0  0  0  0  0  0  0  0
   45.8606    1.3315   -0.0002 N   0  0  0  0  0  0  0  0  0  0  0  0
   47.2059    1.1224    0.0240 C   0  0  0  0  0  0  0  0  0  0  0  0
   47.8434   -0.1241    0.1113 C   0  0  0  0  0  0  0  0  0  0  0  0
   47.1938   -1.3641    0.1958 C   0  0  0  0  0  0  0  0  0  0  0  0
   47.8676   -2.6216    0.3261 C   0  0  0  0  0  0  0  0  0  0  0  0
   46.9076   -3.5747    0.4343 C   0  0  0  0  0  0  0  0  0  0  0  0
   45.6392   -2.9060    0.3583 C   0  0  0  0  0  0  0  0  0  0  0  0
   44.3963   -3.5331    0.4674 C   0  0  0  0  0  0  0  0  0  0  0  0
   44.3920   -5.0093    0.6338 C   0  0  0  0  0  0  0  0  0  0  0  0
   43.8859   -5.5854    1.7971 C   0  0  0  0  0  0  0  0  0  0  0  0
   43.8844   -6.9676    1.9587 C   0  0  0  0  0  0  0  0  0  0  0  0
   43.3550   -7.5782    3.2283 C   0  0  0  0  0  0  0  0  0  0  0  0
   44.3940   -7.7728    0.9457 C   0  0  0  0  0  0  0  0  0  0  0  0
   44.9009   -7.2120   -0.2239 C   0  0  0  0  0  0  0  0  0  0  0  0
   45.4626   -8.0966   -1.3042 C   0  0  0  0  0  0  0  0  0  0  0  0
   44.8985   -5.8303   -0.3735 C   0  0  0  0  0  0  0  0  0  0  0  0
   43.1598   -2.8859    0.4338 C   0  0  0  0  0  0  0  0  0  0  0  0
   41.8869   -3.5447    0.5059 C   0  0  0  0  0  0  0  0  0  0  0  0
   40.9350   -2.5829    0.4026 C   0  0  0  0  0  0  0  0  0  0  0  0
   41.6167   -1.3324    0.2542 C   0  0  0  0  0  0  0  0  0  0  0  0
   42.9621   -1.5388    0.2839 N   0  0  0  0  0  0  0  0  0  0  0  0
   45.8463   -1.5613    0.2107 N   0  0  0  0  0  0  0  0  0  0  0  0
   44.4388    4.7860   -0.4814 C   0  0  0  0  0  0  0  0  0  0  0  0
   44.9260    5.6284    0.5163 C   0  0  0  0  0  0  0  0  0  0  0  0
   44.9343    7.0074    0.3342 C   0  0  0  0  0  0  0  0  0  0  0  0
   45.4763    7.9111    1.4088 C   0  0  0  0  0  0  0  0  0  0  0  0
   44.4556    7.5410   -0.8585 C   0  0  0  0  0  0  0  0  0  0  0  0
   43.9665    6.7126   -1.8643 C   0  0  0  0  0  0  0  0  0  0  0  0
   43.4696    7.2986   -3.1584 C   0  0  0  0  0  0  0  0  0  0  0  0
   43.9599    5.3357   -1.6696 C   0  0  0  0  0  0  0  0  0  0  0  0
   39.8921    2.5261   -0.2721 H   0  0  0  0  0  0  0  0  0  0  0  0
   41.7909    4.4105   -0.4639 H   0  0  0  0  0  0  0  0  0  0  0  0
   47.0863    4.3940   -0.3625 H   0  0  0  0  0  0  0  0  0  0  0  0
   48.9639    2.4899   -0.1178 H   0  0  0  0  0  0  0  0  0  0  0  0
   48.9386   -2.7470    0.3440 H   0  0  0  0  0  0  0  0  0  0  0  0
   47.0426   -4.6360    0.5667 H   0  0  0  0  0  0  0  0  0  0  0  0
   43.5037   -4.9473    2.5865 H   0  0  0  0  0  0  0  0  0  0  0  0
   43.0544   -8.6136    3.0671 H   0  0  0  0  0  0  0  0  0  0  0  0
   44.1294   -7.5636    3.9987 H   0  0  0  0  0  0  0  0  0  0  0  0
   42.4983   -7.0154    3.6001 H   0  0  0  0  0  0  0  0  0  0  0  0
   44.3947   -8.8514    1.0658 H   0  0  0  0  0  0  0  0  0  0  0  0
   45.5319   -7.5607   -2.2507 H   0  0  0  0  0  0  0  0  0  0  0  0
   44.8383   -8.9799   -1.4435 H   0  0  0  0  0  0  0  0  0  0  0  0
   46.4644   -8.4319   -1.0261 H   0  0  0  0  0  0  0  0  0  0  0  0
   45.2768   -5.3818   -1.2856 H   0  0  0  0  0  0  0  0  0  0  0  0
   41.7429   -4.6079    0.6106 H   0  0  0  0  0  0  0  0  0  0  0  0
   39.8640   -2.7031    0.4217 H   0  0  0  0  0  0  0  0  0  0  0  0
   45.2837    5.2017    1.4470 H   0  0  0  0  0  0  0  0  0  0  0  0
   44.9789    8.8810    1.3886 H   0  0  0  0  0  0  0  0  0  0  0  0
   46.5450    8.0741    1.2513 H   0  0  0  0  0  0  0  0  0  0  0  0
   45.3431    7.4657    2.3948 H   0  0  0  0  0  0  0  0  0  0  0  0
   44.4605    8.6163   -1.0050 H   0  0  0  0  0  0  0  0  0  0  0  0
   43.0289    8.2824   -2.9951 H   0  0  0  0  0  0  0  0  0  0  0  0
   42.7244    6.6493   -3.6181 H   0  0  0  0  0  0  0  0  0  0  0  0
   44.3008    7.4111   -3.8583 H   0  0  0  0  0  0  0  0  0  0  0  0
   43.5921    4.6789   -2.4503 H   0  0  0  0  0  0  0  0  0  0  0  0
  2  3  4  0  0  0  0
  3  4  1  0  0  0  0
  4  5  2  0  0  0  0
  5  6  4  0  0  0  0
  1  7  1  0  0  0  0
  3  7  4  0  0  0  0
  6  7  4  0  0  0  0
  6  8  4  0  0  0  0
  8  9  4  0  0  0  0
  9 10  4  0  0  0  0
 10 11  2  0  0  0  0
  1 12  1  0  0  0  0
  9 12  4  0  0  0  0
 11 13  4  0  0  0  0
 12 13  4  0  0  0  0
 13 14  4  0  0  0  0
 14 15  4  0  0  0  0
 15 16  4  0  0  0  0
 16 17  2  0  0  0  0
 17 18  4  0  0  0  0
 18 19  4  0  0  0  0
 19 20  1  0  0  0  0
 20 21  4  0  0  0  0
 21 22  4  0  0  0  0
 22 23  1  0  0  0  0
 22 24  4  0  0  0  0
 24 25  4  0  0  0  0
 25 26  1  0  0  0  0
 20 27  4  0  0  0  0
 25 27  4  0  0  0  0
 19 28  4  0  0  0  0
 28 29  4  0  0  0  0
 29 30  2  0  0  0  0
  2 31  4  0  0  0  0
 30 31  1  0  0  0  0
  1 32  1  0  0  0  0
 28 32  4  0  0  0  0
 31 32  4  0  0  0  0
  1 33  1  0  0  0  0
 15 33  4  0  0  0  0
 18 33  4  0  0  0  0
  8 34  1  0  0  0  0
 34 35  4  0  0  0  0
 35 36  4  0  0  0  0
 36 37  1  0  0  0  0
 36 38  4  0  0  0  0
 38 39  4  0  0  0  0
 39 40  1  0  0  0  0
 34 41  4  0  0  0  0
 39 41  4  0  0  0  0
  2 42  1  0  0  0  0
  4 43  1  0  0  0  0
  5 44  1  0  0  0  0
 10 45  1  0  0  0  0
 11 46  1  0  0  0  0
 16 47  1  0  0  0  0
 17 48  1  0  0  0  0
 21 49  1  0  0  0  0
 23 50  1  0  0  0  0
 23 51  1  0  0  0  0
 23 52  1  0  0  0  0
 24 53  1  0  0  0  0
 26 54  1  0  0  0  0
 26 55  1  0  0  0  0
 26 56  1  0  0  0  0
 27 57  1  0  0  0  0
 29 58  1  0  0  0  0
 30 59  1  0  0  0  0
 35 60  1  0  0  0  0
 37 61  1  0  0  0  0
 37 62  1  0  0  0  0
 37 63  1  0  0  0  0
 38 64  1  0  0  0  0
 40 65  1  0  0  0  0
 40 66  1  0  0  0  0
 40 67  1  0  0  0  0
 41 68  1  0  0  0  0
 70 71  4  0  0  0  0
 71 72  1  0  0  0  0
 72 73  2  0  0  0  0
 73 74  4  0  0  0  0
 69 75  1  0  0  0  0
 71 75  4  0  0  0  0
 74 75  4  0  0  0  0
 74 76  4  0  0  0  0
 76 77  4  0  0  0  0
 77 78  4  0  0  0  0
 78 79  2  0  0  0  0
 69 80  1  0  0  0  0
 77 80  4  0  0  0  0
 79 81  4  0  0  0  0
 80 81  4  0  0  0  0
 81 82  4  0  0  0  0
 82 83  4  0  0  0  0
 83 84  4  0  0  0  0
 84 85  2  0  0  0  0
 85 86  4  0  0  0  0
 86 87  4  0  0  0  0
 87 88  1  0  0  0  0
 88 89  4  0  0  0  0
 89 90  4  0  0  0  0
 90 91  1  0  0  0  0
 90 92  4  0  0  0  0
 92 93  4  0  0  0  0
 93 94  1  0  0  0  0
 88 95  4  0  0  0  0
 93 95  4  0  0  0  0
 87 96  4  0  0  0  0
 96 97  4  0  0  0  0
 97 98  2  0  0  0  0
 70 99  4  0  0  0  0
 98 99  1  0  0  0  0
 69100  1  0  0  0  0
 96100  4  0  0  0  0
 99100  4  0  0  0  0
 69101  1  0  0  0  0
 83101  4  0  0  0  0
 86101  4  0  0  0  0
 76102  1  0  0  0  0
102103  4  0  0  0  0
103104  4  0  0  0  0
104105  1  0  0  0  0
104106  4  0  0  0  0
106107  4  0  0  0  0
107108  1  0  0  0  0
102109  4  0  0  0  0
107109  4  0  0  0  0
 70110  1  0  0  0  0
 72111  1  0  0  0  0
 73112  1  0  0  0  0
 78113  1  0  0  0  0
 79114  1  0  0  0  0
 84115  1  0  0  0  0
 85116  1  0  0  0  0
 89117  1  0  0  0  0
 91118  1  0  0  0  0
 91119  1  0  0  0  0
 91120  1  0  0  0  0
 92121  1  0  0  0  0
 94122  1  0  0  0  0
 94123  1  0  0  0  0
 94124  1  0  0  0  0
 95125  1  0  0  0  0
 97126  1  0  0  0  0
 98127  1  0  0  0  0
103128  1  0  0  0  0
105129  1  0  0  0  0
105130  1  0  0  0  0
105131  1  0  0  0  0
106132  1  0  0  0  0
108133  1  0  0  0  0
108134  1  0  0  0  0
108135  1  0  0  0  0
109136  1  0  0  0  0
 14137  4  0  0  0  0
137138  3  0  0  0  0
 82140  1  0  0  0  0
139140  3  0  0  0  0
138142  4  0  0  0  0
142143  4  0  0  0  0
143144  4  0  0  0  0
144145  2  0  0  0  0
145146  4  0  0  0  0
141147  1  0  0  0  0
143147  4  0  0  0  0
146147  4  0  0  0  0
146148  4  0  0  0  0
148149  4  0  0  0  0
149150  4  0  0  0  0
150151  2  0  0  0  0
141152  1  0  0  0  0
149152  4  0  0  0  0
151153  4  0  0  0  0
152153  4  0  0  0  0
139154  1  0  0  0  0
153154  4  0  0  0  0
154155  4  0  0  0  0
155156  4  0  0  0  0
156157  2  0  0  0  0
157158  4  0  0  0  0
158159  4  0  0  0  0
159160  1  0  0  0  0
160161  4  0  0  0  0
161162  4  0  0  0  0
162163  1  0  0  0  0
162164  4  0  0  0  0
164165  4  0  0  0  0
165166  1  0  0  0  0
160167  4  0  0  0  0
165167  4  0  0  0  0
159168  4  0  0  0  0
168169  4  0  0  0  0
169170  2  0  0  0  0
142171  4  0  0  0  0
170171  4  0  0  0  0
141172  1  0  0  0  0
168172  4  0  0  0  0
171172  4  0  0  0  0
141173  1  0  0  0  0
155173  4  0  0  0  0
158173  4  0  0  0  0
148174  1  0  0  0  0
174175  4  0  0  0  0
175176  4  0  0  0  0
176177  1  0  0  0  0
176178  4  0  0  0  0
178179  4  0  0  0  0
179180  1  0  0  0  0
174181  4  0  0  0  0
179181  4  0  0  0  0
144182  1  0  0  0  0
145183  1  0  0  0  0
150184  1  0  0  0  0
151185  1  0  0  0  0
156186  1  0  0  0  0
157187  1  0  0  0  0
161188  1  0  0  0  0
163189  1  0  0  0  0
163190  1  0  0  0  0
163191  1  0  0  0  0
164192  1  0  0  0  0
166193  1  0  0  0  0
166194  1  0  0  0  0
166195  1  0  0  0  0
167196  1  0  0  0  0
169197  1  0  0  0  0
170198  1  0  0  0  0
175199  1  0  0  0  0
177200  1  0  0  0  0
177201  1  0  0  0  0
177202  1  0  0  0  0
178203  1  0  0  0  0
180204  1  0  0  0  0
180205  1  0  0  0  0
180206  1  0  0  0  0
181207  1  0  0  0  0
M  END
