 xtb: 6.5.1 (b24c23e)
          07302205113D

191226  0     0  0            999 V2000
   29.7563   -0.0038   -0.0790 Ni  0  0  0  0  0  0  0  0  0  0  0  0
   26.3674   -0.0065   -0.2300 C   0  0  0  0  0  0  0  0  0  0  0  0
   27.0177   -1.2226   -0.2486 C   0  0  0  0  0  0  0  0  0  0  0  0
   26.3409   -2.4830   -0.2863 C   0  0  0  0  0  0  0  0  0  0  0  0
   27.2982   -3.4346   -0.3834 C   0  0  0  0  0  0  0  0  0  0  0  0
   28.5588   -2.7518   -0.4252 C   0  0  0  0  0  0  0  0  0  0  0  0
   28.3782   -1.3980   -0.2973 N   0  0  0  0  0  0  0  0  0  0  0  0
   29.7791   -3.3833   -0.6313 C   0  0  0  0  0  0  0  0  0  0  0  0
   29.7891   -4.8454   -0.8649 C   0  0  0  0  0  0  0  0  0  0  0  0
   30.4704   -5.6957    0.0111 C   0  0  0  0  0  0  0  0  0  0  0  0
   30.4737   -7.0630   -0.1973 C   0  0  0  0  0  0  0  0  0  0  0  0
   29.7948   -7.5840   -1.2951 C   0  0  0  0  0  0  0  0  0  0  0  0
   29.7936   -9.0194   -1.5180 N   0  0  0  0  0  0  0  0  0  0  0  0
   29.1875   -9.4346   -2.4722 O   0  0  0  0  0  0  0  0  0  0  0  0
   30.3980   -9.7056   -0.7346 O   0  0  0  0  0  0  0  0  0  0  0  0
   29.1158   -6.7541   -2.1826 C   0  0  0  0  0  0  0  0  0  0  0  0
   29.1140   -5.3889   -1.9621 C   0  0  0  0  0  0  0  0  0  0  0  0
   30.9882   -2.6991   -0.6410 C   0  0  0  0  0  0  0  0  0  0  0  0
   32.2488   -3.3114   -0.9337 C   0  0  0  0  0  0  0  0  0  0  0  0
   33.1945   -2.3550   -0.7726 C   0  0  0  0  0  0  0  0  0  0  0  0
   31.1573   -1.3664   -0.3438 N   0  0  0  0  0  0  0  0  0  0  0  0
   32.5096   -1.1621   -0.3878 C   0  0  0  0  0  0  0  0  0  0  0  0
   33.1688    0.0152   -0.0238 C   0  0  0  0  0  0  0  0  0  0  0  0
   32.4856    1.1788    0.3405 C   0  0  0  0  0  0  0  0  0  0  0  0
   33.1442    2.3673    0.7803 C   0  0  0  0  0  0  0  0  0  0  0  0
   32.1809    3.3030    0.9574 C   0  0  0  0  0  0  0  0  0  0  0  0
   30.9369    2.6859    0.6085 C   0  0  0  0  0  0  0  0  0  0  0  0
   31.1324    1.3665    0.2697 N   0  0  0  0  0  0  0  0  0  0  0  0
   29.7219    3.3580    0.5709 C   0  0  0  0  0  0  0  0  0  0  0  0
   29.6993    4.8087    0.8664 C   0  0  0  0  0  0  0  0  0  0  0  0
   28.9535    5.2944    1.9448 C   0  0  0  0  0  0  0  0  0  0  0  0
   28.9212    6.6485    2.2240 C   0  0  0  0  0  0  0  0  0  0  0  0
   29.6368    7.5256    1.4140 C   0  0  0  0  0  0  0  0  0  0  0  0
   29.6010    8.9495    1.6987 N   0  0  0  0  0  0  0  0  0  0  0  0
   28.9379    9.3140    2.6356 O   0  0  0  0  0  0  0  0  0  0  0  0
   30.2352    9.6780    0.9795 O   0  0  0  0  0  0  0  0  0  0  0  0
   30.3844    7.0626    0.3350 C   0  0  0  0  0  0  0  0  0  0  0  0
   30.4145    5.7059    0.0676 C   0  0  0  0  0  0  0  0  0  0  0  0
   28.5231    2.7288    0.2577 C   0  0  0  0  0  0  0  0  0  0  0  0
   27.2683    3.4120    0.1318 C   0  0  0  0  0  0  0  0  0  0  0  0
   26.3296    2.4665   -0.1052 C   0  0  0  0  0  0  0  0  0  0  0  0
   27.0116    1.2085   -0.1284 C   0  0  0  0  0  0  0  0  0  0  0  0
   28.3609    1.3819    0.0577 N   0  0  0  0  0  0  0  0  0  0  0  0
   25.2852   -0.0063   -0.2854 H   0  0  0  0  0  0  0  0  0  0  0  0
   25.2705   -2.6034   -0.2391 H   0  0  0  0  0  0  0  0  0  0  0  0
   27.1747   -4.5046   -0.4212 H   0  0  0  0  0  0  0  0  0  0  0  0
   30.9852   -5.2783    0.8686 H   0  0  0  0  0  0  0  0  0  0  0  0
   30.9921   -7.7310    0.4800 H   0  0  0  0  0  0  0  0  0  0  0  0
   28.5996   -7.1842   -3.0325 H   0  0  0  0  0  0  0  0  0  0  0  0
   28.5985   -4.7307   -2.6517 H   0  0  0  0  0  0  0  0  0  0  0  0
   32.3823   -4.3385   -1.2315 H   0  0  0  0  0  0  0  0  0  0  0  0
   34.2622   -2.4355   -0.8962 H   0  0  0  0  0  0  0  0  0  0  0  0
   34.2076    2.4576    0.9321 H   0  0  0  0  0  0  0  0  0  0  0  0
   32.2928    4.3198    1.2965 H   0  0  0  0  0  0  0  0  0  0  0  0
   28.4086    4.5997    2.5733 H   0  0  0  0  0  0  0  0  0  0  0  0
   28.3501    7.0339    3.0601 H   0  0  0  0  0  0  0  0  0  0  0  0
   30.9289    7.7667   -0.2826 H   0  0  0  0  0  0  0  0  0  0  0  0
   30.9818    5.3342   -0.7776 H   0  0  0  0  0  0  0  0  0  0  0  0
   27.1367    4.4790    0.2093 H   0  0  0  0  0  0  0  0  0  0  0  0
   25.2682    2.5890   -0.2495 H   0  0  0  0  0  0  0  0  0  0  0  0
   61.7619    0.0603   -0.0378 Ni  0  0  0  0  0  0  0  0  0  0  0  0
   65.1500    0.1097   -0.1805 C   0  0  0  0  0  0  0  0  0  0  0  0
   64.5029    1.2443    0.2626 C   0  0  0  0  0  0  0  0  0  0  0  0
   65.1824    2.4248    0.7015 C   0  0  0  0  0  0  0  0  0  0  0  0
   64.2278    3.3485    0.9602 C   0  0  0  0  0  0  0  0  0  0  0  0
   62.9658    2.7358    0.6613 C   0  0  0  0  0  0  0  0  0  0  0  0
   63.1430    1.4308    0.2777 N   0  0  0  0  0  0  0  0  0  0  0  0
   61.7477    3.4035    0.6984 C   0  0  0  0  0  0  0  0  0  0  0  0
   61.7428    4.8486    1.0205 C   0  0  0  0  0  0  0  0  0  0  0  0
   61.0546    5.3198    2.1425 C   0  0  0  0  0  0  0  0  0  0  0  0
   61.0573    6.6674    2.4537 C   0  0  0  0  0  0  0  0  0  0  0  0
   61.7494    7.5526    1.6321 C   0  0  0  0  0  0  0  0  0  0  0  0
   61.7578    8.9685    1.9557 N   0  0  0  0  0  0  0  0  0  0  0  0
   62.3743    9.7031    1.2274 O   0  0  0  0  0  0  0  0  0  0  0  0
   61.1467    9.3209    2.9317 O   0  0  0  0  0  0  0  0  0  0  0  0
   62.4353    7.1047    0.5068 C   0  0  0  0  0  0  0  0  0  0  0  0
   62.4307    5.7545    0.2074 C   0  0  0  0  0  0  0  0  0  0  0  0
   60.5372    2.7749    0.4342 C   0  0  0  0  0  0  0  0  0  0  0  0
   59.2783    3.4549    0.3840 C   0  0  0  0  0  0  0  0  0  0  0  0
   58.3304    2.5081    0.1832 C   0  0  0  0  0  0  0  0  0  0  0  0
   60.3646    1.4264    0.2225 N   0  0  0  0  0  0  0  0  0  0  0  0
   59.0120    1.2553    0.1066 C   0  0  0  0  0  0  0  0  0  0  0  0
   58.3502    0.0269    0.0230 C   0  0  0  0  0  0  0  0  0  0  0  0
   59.0324   -1.1906   -0.0606 C   0  0  0  0  0  0  0  0  0  0  0  0
   58.3741   -2.4580   -0.0771 C   0  0  0  0  0  0  0  0  0  0  0  0
   59.3352   -3.3931   -0.2697 C   0  0  0  0  0  0  0  0  0  0  0  0
   60.5771   -2.6903   -0.3867 C   0  0  0  0  0  0  0  0  0  0  0  0
   60.3838   -1.3391   -0.2119 N   0  0  0  0  0  0  0  0  0  0  0  0
   61.7868   -3.2988   -0.6967 C   0  0  0  0  0  0  0  0  0  0  0  0
   61.8040   -4.7533   -0.9726 C   0  0  0  0  0  0  0  0  0  0  0  0
   62.5675   -5.6116   -0.1755 C   0  0  0  0  0  0  0  0  0  0  0  0
   62.5956   -6.9702   -0.4324 C   0  0  0  0  0  0  0  0  0  0  0  0
   61.8579   -7.4744   -1.4997 C   0  0  0  0  0  0  0  0  0  0  0  0
   61.8907   -8.8993   -1.7794 N   0  0  0  0  0  0  0  0  0  0  0  0
   62.5711   -9.5917   -1.0667 O   0  0  0  0  0  0  0  0  0  0  0  0
   61.2363   -9.3005   -2.7073 O   0  0  0  0  0  0  0  0  0  0  0  0
   61.0916   -6.6370   -2.3053 C   0  0  0  0  0  0  0  0  0  0  0  0
   61.0657   -5.2806   -2.0363 C   0  0  0  0  0  0  0  0  0  0  0  0
   62.9846   -2.5978   -0.7685 C   0  0  0  0  0  0  0  0  0  0  0  0
   64.2347   -3.1823   -1.1593 C   0  0  0  0  0  0  0  0  0  0  0  0
   65.1770   -2.2210   -1.0200 C   0  0  0  0  0  0  0  0  0  0  0  0
   64.5014   -1.0492   -0.5522 C   0  0  0  0  0  0  0  0  0  0  0  0
   63.1522   -1.2772   -0.4389 N   0  0  0  0  0  0  0  0  0  0  0  0
   66.2323    0.1269   -0.2309 H   0  0  0  0  0  0  0  0  0  0  0  0
   66.2528    2.5147    0.7951 H   0  0  0  0  0  0  0  0  0  0  0  0
   64.3542    4.3553    1.3235 H   0  0  0  0  0  0  0  0  0  0  0  0
   60.5301    4.6186    2.7811 H   0  0  0  0  0  0  0  0  0  0  0  0
   60.5338    7.0413    3.3254 H   0  0  0  0  0  0  0  0  0  0  0  0
   62.9619    7.8148   -0.1195 H   0  0  0  0  0  0  0  0  0  0  0  0
   62.9516    5.3944   -0.6721 H   0  0  0  0  0  0  0  0  0  0  0  0
   59.1471    4.5200    0.4825 H   0  0  0  0  0  0  0  0  0  0  0  0
   57.2629    2.6308    0.0968 H   0  0  0  0  0  0  0  0  0  0  0  0
   57.3125   -2.5982    0.0464 H   0  0  0  0  0  0  0  0  0  0  0  0
   59.2232   -4.4635   -0.3253 H   0  0  0  0  0  0  0  0  0  0  0  0
   63.1298   -5.2074    0.6581 H   0  0  0  0  0  0  0  0  0  0  0  0
   63.1805   -7.6439    0.1823 H   0  0  0  0  0  0  0  0  0  0  0  0
   60.5295   -7.0541   -3.1322 H   0  0  0  0  0  0  0  0  0  0  0  0
   60.4839   -4.6161   -2.6643 H   0  0  0  0  0  0  0  0  0  0  0  0
   64.3609   -4.1967   -1.5008 H   0  0  0  0  0  0  0  0  0  0  0  0
   66.2368   -2.2811   -1.2086 H   0  0  0  0  0  0  0  0  0  0  0  0
   38.3709    0.0420    0.0103 C   0  0  0  0  0  0  0  0  0  0  0  0
   37.1431    0.0406    0.0019 C   0  0  0  0  0  0  0  0  0  0  0  0
   35.7977    0.0336   -0.0058 C   0  0  0  0  0  0  0  0  0  0  0  0
   34.5744    0.0254   -0.0121 C   0  0  0  0  0  0  0  0  0  0  0  0
   39.7162    0.0413    0.0133 C   0  0  0  0  0  0  0  0  0  0  0  0
   40.9397    0.0376    0.0123 C   0  0  0  0  0  0  0  0  0  0  0  0
   54.3765   -0.0108    0.0355 C   0  0  0  0  0  0  0  0  0  0  0  0
   53.1485   -0.0186    0.0348 C   0  0  0  0  0  0  0  0  0  0  0  0
   51.8034   -0.0227    0.0299 C   0  0  0  0  0  0  0  0  0  0  0  0
   50.5798   -0.0221    0.0206 C   0  0  0  0  0  0  0  0  0  0  0  0
   55.7216    0.0006    0.0337 C   0  0  0  0  0  0  0  0  0  0  0  0
   56.9450    0.0132    0.0314 C   0  0  0  0  0  0  0  0  0  0  0  0
   45.7601    0.0069   -0.0099 Ni  0  0  0  0  0  0  0  0  0  0  0  0
   42.3445    0.0300    0.0078 C   0  0  0  0  0  0  0  0  0  0  0  0
   43.0123   -1.1764    0.2393 C   0  0  0  0  0  0  0  0  0  0  0  0
   42.3399   -2.4031    0.5259 C   0  0  0  0  0  0  0  0  0  0  0  0
   43.2883   -3.3707    0.5463 C   0  0  0  0  0  0  0  0  0  0  0  0
   44.5367   -2.7306    0.2624 C   0  0  0  0  0  0  0  0  0  0  0  0
   44.3611   -1.3734    0.1230 N   0  0  0  0  0  0  0  0  0  0  0  0
   45.7372   -3.4085    0.0887 C   0  0  0  0  0  0  0  0  0  0  0  0
   45.7225   -4.8884    0.1232 C   0  0  0  0  0  0  0  0  0  0  0  0
   46.4687   -5.5812    1.0813 C   0  0  0  0  0  0  0  0  0  0  0  0
   46.4515   -6.9635    1.1202 C   0  0  0  0  0  0  0  0  0  0  0  0
   45.6857   -7.6594    0.1892 C   0  0  0  0  0  0  0  0  0  0  0  0
   45.6645   -9.1116    0.2253 N   0  0  0  0  0  0  0  0  0  0  0  0
   44.9863   -9.6795   -0.5916 O   0  0  0  0  0  0  0  0  0  0  0  0
   46.3281   -9.6574    1.0689 O   0  0  0  0  0  0  0  0  0  0  0  0
   44.9387   -6.9888   -0.7750 C   0  0  0  0  0  0  0  0  0  0  0  0
   44.9582   -5.6063   -0.8018 C   0  0  0  0  0  0  0  0  0  0  0  0
   46.9482   -2.7583   -0.1126 C   0  0  0  0  0  0  0  0  0  0  0  0
   48.1910   -3.4296   -0.3434 C   0  0  0  0  0  0  0  0  0  0  0  0
   49.1533   -2.4756   -0.3583 C   0  0  0  0  0  0  0  0  0  0  0  0
   47.1417   -1.3975   -0.0444 N   0  0  0  0  0  0  0  0  0  0  0  0
   48.4944   -1.2257   -0.1516 C   0  0  0  0  0  0  0  0  0  0  0  0
   49.1753   -0.0152    0.0106 C   0  0  0  0  0  0  0  0  0  0  0  0
   48.5075    1.2050    0.1539 C   0  0  0  0  0  0  0  0  0  0  0  0
   49.1804    2.4496    0.3476 C   0  0  0  0  0  0  0  0  0  0  0  0
   48.2323    3.4163    0.2966 C   0  0  0  0  0  0  0  0  0  0  0  0
   46.9834    2.7572    0.0637 C   0  0  0  0  0  0  0  0  0  0  0  0
   47.1588    1.3932    0.0237 N   0  0  0  0  0  0  0  0  0  0  0  0
   45.7822    3.4208   -0.1527 C   0  0  0  0  0  0  0  0  0  0  0  0
   45.7933    4.8997   -0.2209 C   0  0  0  0  0  0  0  0  0  0  0  0
   46.5438    5.5545   -1.2021 C   0  0  0  0  0  0  0  0  0  0  0  0
   46.5533    6.9355   -1.2742 C   0  0  0  0  0  0  0  0  0  0  0  0
   45.8109    7.6683   -0.3527 C   0  0  0  0  0  0  0  0  0  0  0  0
   45.8185    9.1194   -0.4230 N   0  0  0  0  0  0  0  0  0  0  0  0
   46.4812    9.6318   -1.2880 O   0  0  0  0  0  0  0  0  0  0  0  0
   45.1621    9.7200    0.3884 O   0  0  0  0  0  0  0  0  0  0  0  0
   45.0608    7.0359    0.6347 C   0  0  0  0  0  0  0  0  0  0  0  0
   45.0529    5.6542    0.6942 C   0  0  0  0  0  0  0  0  0  0  0  0
   44.5707    2.7581   -0.3043 C   0  0  0  0  0  0  0  0  0  0  0  0
   43.3275    3.4120   -0.5792 C   0  0  0  0  0  0  0  0  0  0  0  0
   42.3656    2.4589   -0.5289 C   0  0  0  0  0  0  0  0  0  0  0  0
   43.0250    1.2264   -0.2371 C   0  0  0  0  0  0  0  0  0  0  0  0
   44.3778    1.4055   -0.1422 N   0  0  0  0  0  0  0  0  0  0  0  0
   41.2780   -2.4967    0.6853 H   0  0  0  0  0  0  0  0  0  0  0  0
   43.1634   -4.4233    0.7408 H   0  0  0  0  0  0  0  0  0  0  0  0
   47.0507   -5.0273    1.8086 H   0  0  0  0  0  0  0  0  0  0  0  0
   47.0206   -7.5094    1.8631 H   0  0  0  0  0  0  0  0  0  0  0  0
   44.3541   -7.5541   -1.4908 H   0  0  0  0  0  0  0  0  0  0  0  0
   44.3895   -5.0721   -1.5539 H   0  0  0  0  0  0  0  0  0  0  0  0
   48.3036   -4.4928   -0.4788 H   0  0  0  0  0  0  0  0  0  0  0  0
   50.2161   -2.5922   -0.4948 H   0  0  0  0  0  0  0  0  0  0  0  0
   50.2426    2.5546    0.4979 H   0  0  0  0  0  0  0  0  0  0  0  0
   48.3576    4.4806    0.4105 H   0  0  0  0  0  0  0  0  0  0  0  0
   47.1085    4.9717   -1.9204 H   0  0  0  0  0  0  0  0  0  0  0  0
   47.1257    7.4522   -2.0352 H   0  0  0  0  0  0  0  0  0  0  0  0
   44.4955    7.6296    1.3429 H   0  0  0  0  0  0  0  0  0  0  0  0
   44.4819    5.1495    1.4647 H   0  0  0  0  0  0  0  0  0  0  0  0
   43.2145    4.4635   -0.7864 H   0  0  0  0  0  0  0  0  0  0  0  0
   41.3027    2.5656   -0.6730 H   0  0  0  0  0  0  0  0  0  0  0  0
  2  3  4  0  0  0  0
  3  4  4  0  0  0  0
  4  5  2  0  0  0  0
  5  6  4  0  0  0  0
  1  7  1  0  0  0  0
  3  7  4  0  0  0  0
  6  7  4  0  0  0  0
  6  8  4  0  0  0  0
  8  9  1  0  0  0  0
  9 10  4  0  0  0  0
 10 11  4  0  0  0  0
 11 12  4  0  0  0  0
 12 13  1  0  0  0  0
 13 14  2  0  0  0  0
 13 15  2  0  0  0  0
 14 15  1  0  0  0  0
 12 16  4  0  0  0  0
  9 17  4  0  0  0  0
 16 17  4  0  0  0  0
  8 18  4  0  0  0  0
 18 19  4  0  0  0  0
 19 20  2  0  0  0  0
  1 21  1  0  0  0  0
 18 21  4  0  0  0  0
 20 22  4  0  0  0  0
 21 22  4  0  0  0  0
 22 23  4  0  0  0  0
 23 24  4  0  0  0  0
 24 25  4  0  0  0  0
 25 26  2  0  0  0  0
 26 27  4  0  0  0  0
  1 28  1  0  0  0  0
 24 28  4  0  0  0  0
 27 28  4  0  0  0  0
 27 29  4  0  0  0  0
 29 30  1  0  0  0  0
 30 31  4  0  0  0  0
 31 32  4  0  0  0  0
 32 33  4  0  0  0  0
 33 34  1  0  0  0  0
 34 35  2  0  0  0  0
 34 36  2  0  0  0  0
 35 36  1  0  0  0  0
 33 37  4  0  0  0  0
 30 38  4  0  0  0  0
 37 38  4  0  0  0  0
 29 39  4  0  0  0  0
 39 40  4  0  0  0  0
 40 41  2  0  0  0  0
  2 42  4  0  0  0  0
 41 42  4  0  0  0  0
  1 43  1  0  0  0  0
 39 43  4  0  0  0  0
 42 43  4  0  0  0  0
  2 44  1  0  0  0  0
  4 45  1  0  0  0  0
  5 46  1  0  0  0  0
 10 47  1  0  0  0  0
 11 48  1  0  0  0  0
 16 49  1  0  0  0  0
 17 50  1  0  0  0  0
 19 51  1  0  0  0  0
 20 52  1  0  0  0  0
 25 53  1  0  0  0  0
 26 54  1  0  0  0  0
 31 55  1  0  0  0  0
 32 56  1  0  0  0  0
 37 57  1  0  0  0  0
 38 58  1  0  0  0  0
 40 59  1  0  0  0  0
 41 60  1  0  0  0  0
 62 63  4  0  0  0  0
 63 64  4  0  0  0  0
 64 65  2  0  0  0  0
 65 66  4  0  0  0  0
 61 67  1  0  0  0  0
 63 67  4  0  0  0  0
 66 67  4  0  0  0  0
 66 68  4  0  0  0  0
 68 69  1  0  0  0  0
 69 70  4  0  0  0  0
 70 71  4  0  0  0  0
 71 72  4  0  0  0  0
 72 73  1  0  0  0  0
 73 74  2  0  0  0  0
 73 75  2  0  0  0  0
 74 75  1  0  0  0  0
 72 76  4  0  0  0  0
 69 77  4  0  0  0  0
 76 77  4  0  0  0  0
 68 78  4  0  0  0  0
 78 79  4  0  0  0  0
 79 80  2  0  0  0  0
 61 81  1  0  0  0  0
 78 81  4  0  0  0  0
 80 82  4  0  0  0  0
 81 82  4  0  0  0  0
 82 83  4  0  0  0  0
 83 84  4  0  0  0  0
 84 85  4  0  0  0  0
 85 86  2  0  0  0  0
 86 87  4  0  0  0  0
 61 88  1  0  0  0  0
 84 88  4  0  0  0  0
 87 88  4  0  0  0  0
 87 89  4  0  0  0  0
 89 90  1  0  0  0  0
 90 91  4  0  0  0  0
 91 92  4  0  0  0  0
 92 93  4  0  0  0  0
 93 94  1  0  0  0  0
 94 95  2  0  0  0  0
 94 96  2  0  0  0  0
 95 96  1  0  0  0  0
 93 97  4  0  0  0  0
 90 98  4  0  0  0  0
 97 98  4  0  0  0  0
 89 99  4  0  0  0  0
 99100  4  0  0  0  0
100101  2  0  0  0  0
 62102  4  0  0  0  0
101102  4  0  0  0  0
 61103  1  0  0  0  0
 99103  4  0  0  0  0
102103  4  0  0  0  0
 62104  1  0  0  0  0
 64105  1  0  0  0  0
 65106  1  0  0  0  0
 70107  1  0  0  0  0
 71108  1  0  0  0  0
 76109  1  0  0  0  0
 77110  1  0  0  0  0
 79111  1  0  0  0  0
 80112  1  0  0  0  0
 85113  1  0  0  0  0
 86114  1  0  0  0  0
 91115  1  0  0  0  0
 92116  1  0  0  0  0
 97117  1  0  0  0  0
 98118  1  0  0  0  0
100119  1  0  0  0  0
101120  1  0  0  0  0
121122  3  0  0  0  0
122123  4  0  0  0  0
 23124  4  0  0  0  0
123124  3  0  0  0  0
121125  4  0  0  0  0
125126  3  0  0  0  0
127128  3  0  0  0  0
128129  4  0  0  0  0
129130  3  0  0  0  0
127131  4  0  0  0  0
 83132  4  0  0  0  0
131132  3  0  0  0  0
126134  4  0  0  0  0
134135  4  0  0  0  0
135136  4  0  0  0  0
136137  2  0  0  0  0
137138  4  0  0  0  0
133139  1  0  0  0  0
135139  4  0  0  0  0
138139  4  0  0  0  0
138140  4  0  0  0  0
140141  1  0  0  0  0
141142  4  0  0  0  0
142143  4  0  0  0  0
143144  4  0  0  0  0
144145  1  0  0  0  0
145146  2  0  0  0  0
145147  2  0  0  0  0
146147  1  0  0  0  0
144148  4  0  0  0  0
141149  4  0  0  0  0
148149  4  0  0  0  0
140150  4  0  0  0  0
150151  4  0  0  0  0
151152  2  0  0  0  0
133153  1  0  0  0  0
150153  4  0  0  0  0
152154  4  0  0  0  0
153154  4  0  0  0  0
130155  4  0  0  0  0
154155  4  0  0  0  0
155156  4  0  0  0  0
156157  4  0  0  0  0
157158  2  0  0  0  0
158159  4  0  0  0  0
133160  1  0  0  0  0
156160  4  0  0  0  0
159160  4  0  0  0  0
159161  4  0  0  0  0
161162  1  0  0  0  0
162163  4  0  0  0  0
163164  4  0  0  0  0
164165  4  0  0  0  0
165166  1  0  0  0  0
166167  2  0  0  0  0
166168  2  0  0  0  0
167168  1  0  0  0  0
165169  4  0  0  0  0
162170  4  0  0  0  0
169170  4  0  0  0  0
161171  4  0  0  0  0
171172  4  0  0  0  0
172173  2  0  0  0  0
134174  4  0  0  0  0
173174  4  0  0  0  0
133175  1  0  0  0  0
171175  4  0  0  0  0
174175  4  0  0  0  0
136176  1  0  0  0  0
137177  1  0  0  0  0
142178  1  0  0  0  0
143179  1  0  0  0  0
148180  1  0  0  0  0
149181  1  0  0  0  0
151182  1  0  0  0  0
152183  1  0  0  0  0
157184  1  0  0  0  0
158185  1  0  0  0  0
163186  1  0  0  0  0
164187  1  0  0  0  0
169188  1  0  0  0  0
170189  1  0  0  0  0
172190  1  0  0  0  0
173191  1  0  0  0  0
M  END
