177

Fe 18.280213 0.010073 -0.007955
C 14.914178 -0.104079 -0.039892
C 15.577116 -1.262505 0.017662
C 14.925481 -2.565435 0.076473
C 15.865339 -3.485807 0.183399
C 17.171501 -2.813032 0.197352
N 16.995342 -1.400119 0.087416
C 18.360396 -3.430964 0.350893
C 18.396172 -4.902157 0.501237
C 18.601445 -5.478617 1.761776
C 18.630114 -6.869919 1.882774
N 18.457452 -7.653747 0.785049
C 18.255512 -7.118796 -0.448707
C 18.222173 -5.732126 -0.614474
C 19.654638 -2.700214 0.390783
C 20.944654 -3.337907 0.680247
C 21.879283 -2.413665 0.596468
N 19.796495 -1.436053 0.131634
C 21.195657 -1.175935 0.243492
C 21.792044 0.001234 -0.008774
C 21.034180 1.217100 -0.382074
C 21.577474 2.290553 -0.941936
C 20.534802 3.290125 -1.060032
C 19.423147 2.763354 -0.561003
N 19.647897 1.426298 -0.110537
C 18.138040 3.496608 -0.424094
C 18.160888 4.979249 -0.471289
C 17.499175 5.673182 -1.494835
C 17.543385 7.069089 -1.517623
N 18.230020 7.746274 -0.558872
C 18.889222 7.098391 0.437663
C 18.870321 5.703056 0.498119
C 16.971149 2.847829 -0.246773
C 15.658943 3.464125 -0.056910
C 14.796702 2.470594 0.036897
C 15.549094 1.222648 -0.078480
N 16.817457 1.429816 -0.243965
H 13.831028 -0.132061 -0.040087
H 13.861095 -2.759972 0.051324
H 15.676803 -4.548788 0.260994
H 18.737846 -4.857205 2.638219
H 18.788928 -7.327064 2.850235
H 18.120340 -7.770358 -1.301634
H 18.060738 -5.309135 -1.598206
H 21.122749 -4.378628 0.914985
H 22.937041 -2.576790 0.750506
H 22.610653 2.415657 -1.235594
H 20.652787 4.289239 -1.457807
H 16.958532 5.138508 -2.265106
H 17.032726 7.614554 -2.299947
H 19.427479 7.666642 1.184803
H 19.395815 5.191956 1.295355
H 15.414418 4.516465 0.003917
H 13.729582 2.575104 0.183142
Fe 58.104273 -0.006985 -0.005421
C 61.470308 0.092951 -0.069166
C 60.807370 1.218070 -0.350894
C 61.459005 2.481816 -0.673431
C 60.519147 3.393519 -0.838708
C 59.212985 2.753863 -0.629758
N 59.389144 1.370020 -0.324161
C 58.024090 3.389741 -0.662504
C 57.988314 4.841094 -0.946382
C 57.783041 5.759136 0.092109
C 57.754372 7.125518 -0.196620
N 57.927034 7.556340 -1.474814
C 58.128974 6.685800 -2.499747
C 58.162313 5.310835 -2.255200
C 56.729848 2.702155 -0.411883
C 55.439832 3.396459 -0.320322
C 54.505203 2.487784 -0.131772
N 56.587991 1.417257 -0.292301
C 55.188829 1.200897 -0.109649
C 54.592442 0.001234 -0.008774
C 55.350306 -1.270642 -0.012453
C 54.807012 -2.460497 -0.236041
C 55.849684 -3.451226 -0.058425
C 56.961339 -2.802124 0.265897
N 56.736589 -1.391858 0.308175
C 58.246446 -3.463900 0.610075
C 58.223598 -4.896217 0.995974
C 58.885311 -5.857755 0.218393
C 58.841101 -7.199990 0.602428
N 58.154466 -7.569180 1.716647
C 57.495264 -6.659556 2.481772
C 57.514165 -5.306918 2.133944
C 59.413337 -2.791593 0.591113
C 60.725543 -3.326067 0.951954
C 61.587784 -2.348180 0.752854
C 60.835392 -1.187684 0.279639
N 59.567029 -1.434016 0.181533
H 62.553458 0.119668 -0.077488
H 62.523391 2.660638 -0.754052
H 60.707683 4.433143 -1.073511
H 57.646640 5.419381 1.111359
H 57.595558 7.844190 0.596141
H 58.264147 7.061241 -3.505262
H 58.323748 4.620111 -3.073459
H 55.261737 4.460472 -0.398299
H 53.447445 2.688647 -0.031815
H 53.773833 -2.665574 -0.480642
H 55.731700 -4.522829 -0.148540
H 59.425954 -5.570123 -0.674054
H 59.351760 -7.949341 0.012484
H 56.957007 -6.986040 3.361848
H 56.988671 -4.586111 2.748147
H 60.970068 -4.315265 1.316105
H 62.654904 -2.405657 0.923167
C 24.571853 0.013745 -0.000022
C 26.030079 -0.008091 -0.017896
C 27.164007 -0.028845 -0.019387
C 28.525389 -0.041435 -0.021578
C 29.799608 -0.031128 -0.026343
C 30.988070 -0.012330 -0.032499
C 32.340431 0.012454 -0.016631
C 33.440698 0.013745 -0.000022
C 42.838152 0.013745 -0.000022
C 44.296378 -0.008091 -0.017896
C 45.430306 -0.028845 -0.019387
C 46.791688 -0.041435 -0.021578
C 48.065907 -0.031128 -0.026343
C 49.254369 -0.012330 -0.032499
C 50.606730 0.012454 -0.016631
C 51.706998 0.013745 -0.000022
Fe 38.114539 0.027896 -0.051968
C 34.746896 -0.006665 0.017886
C 35.402217 -0.804957 0.880601
C 34.761340 -1.626571 1.909358
C 35.697653 -2.310924 2.535955
C 36.994904 -1.971322 1.942408
N 36.817127 -1.010012 0.898978
C 38.179295 -2.499037 2.319078
C 38.215360 -3.535439 3.377146
C 37.687780 -4.813148 3.140462
C 37.747338 -5.777717 4.149032
N 38.317888 -5.478377 5.346435
C 38.842029 -4.249458 5.599295
C 38.802409 -3.255293 4.618814
C 39.475932 -2.084966 1.724726
C 40.744056 -2.788137 1.957388
C 41.696089 -2.119162 1.339001
N 39.643781 -1.030947 0.988286
C 41.041503 -0.984379 0.701091
C 41.656465 -0.006665 0.017886
C 40.905404 1.093598 -0.621757
C 41.437899 2.251022 -0.992231
C 40.405791 2.994061 -1.690532
C 39.314777 2.236764 -1.702277
N 39.540234 1.001213 -1.025929
C 38.062064 2.577690 -2.418675
C 38.125031 3.566780 -3.522974
C 38.932017 3.321612 -4.643232
C 38.996480 4.271469 -5.665417
N 38.286225 5.426832 -5.569028
C 37.502417 5.693944 -4.490676
C 37.410006 4.771611 -3.445763
C 36.890754 1.994251 -2.098481
C 35.615836 2.195035 -2.779812
C 34.728110 1.486586 -2.112151
C 35.424997 0.823030 -1.004794
N 36.689077 1.112770 -0.993411
H 33.706665 -1.682247 2.143372
H 35.511051 -2.995160 3.353306
H 37.237953 -5.057551 2.186045
H 37.341512 -6.765934 3.978794
H 39.290702 -4.044001 6.561828
H 39.222576 -2.278244 4.823817
H 40.893476 -3.692825 2.531945
H 42.744947 -2.384200 1.327157
H 42.459671 2.571738 -0.838779
H 40.520173 3.966512 -2.151721
H 39.501216 2.403682 -4.724617
H 39.612820 4.090245 -6.535772
H 36.952897 6.624554 -4.442602
H 36.792367 4.994470 -2.584385
H 35.412179 2.789898 -3.660420
H 33.678379 1.415297 -2.363092
