124

Co 13.308275 0.028684 -0.004574
C 9.977990 -0.122046 -0.154371
C 10.644112 -1.279109 -0.121193
C 9.995022 -2.584396 -0.109856
C 10.934757 -3.504715 -0.006630
C 12.239332 -2.829572 0.046085
N 12.061545 -1.414550 -0.029643
C 13.428020 -3.449974 0.193803
C 13.462994 -4.925048 0.306803
C 13.270376 -5.726189 -0.829229
C 13.296132 -7.119512 -0.718521
C 13.518890 -7.722477 0.527359
O 13.544686 -9.109544 0.649998
C 13.716191 -6.924938 1.660027
C 13.686998 -5.531324 1.552322
C 14.723445 -2.721343 0.256939
C 16.017435 -3.376831 0.483970
C 16.952556 -2.450566 0.440744
N 14.862940 -1.442938 0.074383
C 16.265423 -1.191940 0.178354
C 16.862187 -0.001008 -0.000705
C 16.107000 1.244319 -0.277732
C 16.663520 2.371349 -0.702301
C 15.619164 3.373525 -0.765325
C 14.491029 2.795200 -0.373237
N 14.707592 1.420185 -0.047776
C 13.193380 3.506573 -0.239786
C 13.202637 4.988029 -0.189625
C 13.817638 5.650083 0.884906
C 13.835419 7.046739 0.934466
C 13.248272 7.793392 -0.091117
O 13.267912 9.184124 -0.024749
C 12.647230 7.136432 -1.174861
C 12.625757 5.740021 -1.224868
C 12.024771 2.843498 -0.153723
C 10.702240 3.445240 0.007829
C 9.842683 2.445422 0.019303
C 10.606504 1.207551 -0.121103
N 11.879854 1.426569 -0.223401
H 8.894831 -0.154496 -0.180749
H 8.931628 -2.780646 -0.158999
H 10.746829 -4.569547 0.041040
H 13.097279 -5.270682 -1.796758
H 13.142592 -7.729029 -1.600054
H 13.398829 -9.714383 -0.150470
H 13.890219 -7.385873 2.624421
H 13.839017 -4.924732 2.436844
H 16.197935 -4.430727 0.650884
H 18.013237 -2.624916 0.566322
H 17.706536 2.532184 -0.938420
H 15.746159 4.406289 -1.061367
H 14.273787 5.083893 1.686911
H 14.301168 7.549359 1.773614
H 12.844559 9.753534 -0.749126
H 12.198322 7.706758 -1.977798
H 12.162791 5.243842 -2.070213
H 10.449746 4.492770 0.104873
H 8.769707 2.539044 0.125198
Co 31.287970 -0.030948 -0.000274
C 34.618255 0.096732 -0.170147
C 33.952133 1.246583 -0.303322
C 34.601223 2.539992 -0.479377
C 33.661488 3.465601 -0.509262
C 32.356913 2.805005 -0.360226
N 32.534700 1.393759 -0.232151
C 31.168225 3.440182 -0.303048
C 31.133250 4.916208 -0.402853
C 31.325869 5.546069 -1.642075
C 31.300113 6.940860 -1.732419
C 31.077355 7.716339 -0.585939
O 31.051559 9.106651 -0.663577
C 30.880054 7.089560 0.649437
C 30.909247 5.694912 0.742794
C 29.872800 2.728148 -0.136025
C 28.578810 3.409428 -0.005390
C 27.643689 2.486544 0.084728
N 29.733305 1.436777 -0.133274
C 28.330822 1.203294 0.005633
C 27.734058 -0.001008 -0.000705
C 28.489245 -1.273197 -0.096193
C 27.932725 -2.449481 -0.354670
C 28.977081 -3.450331 -0.273254
C 30.105216 -2.821734 0.031802
N 29.888653 -1.414250 0.156616
C 31.402865 -3.506600 0.265936
C 31.393608 -4.965533 0.528130
C 30.778607 -5.466570 1.686531
C 30.760825 -6.841665 1.935963
C 31.347973 -7.727738 1.028117
O 31.328333 -9.094560 1.293332
C 31.949015 -7.233065 -0.138673
C 31.970488 -5.858276 -0.388511
C 32.571473 -2.838038 0.255974
C 33.894004 -3.410377 0.502190
C 34.753562 -2.419256 0.370097
C 33.989740 -1.214337 0.053540
N 32.716391 -1.445766 -0.016277
H 35.701414 0.125061 -0.200908
H 35.664617 2.727162 -0.556168
H 33.849416 4.526255 -0.614861
H 31.498966 4.956459 -2.534241
H 31.453653 7.417593 -2.692282
H 31.197415 9.590386 -1.542543
H 30.706026 7.684092 1.537721
H 30.757227 5.221502 1.705196
H 28.398310 4.476368 0.008590
H 26.583008 2.677108 0.183992
H 26.889709 -2.642529 -0.565270
H 28.850086 -4.514885 -0.418058
H 30.322458 -4.791170 2.399005
H 30.295077 -7.218688 2.838542
H 31.751685 -9.762008 0.658146
H 32.397923 -7.912691 -0.851474
H 32.433454 -5.488516 -1.296300
H 34.146499 -4.433145 0.748523
H 35.826538 -2.496716 0.488329
C 17.797759 0.014612 0.010221
C 19.255985 -0.007225 -0.007652
C 20.389913 -0.027979 -0.009143
C 21.751295 -0.040568 -0.011334
C 23.025514 -0.030262 -0.016100
C 24.213976 -0.011464 -0.022256
C 25.566337 0.013321 -0.006388
C 26.666604 0.014612 0.010221
