 xtb: 6.5.1 (b24c23e)
          07292222463D

169198  0     0  0            999 V2000
   24.8036   -0.0199   -0.0164 Co  0  0  0  0  0  0  0  0  0  0  0  0
   21.4366   -0.0527   -0.0454 C   0  0  0  0  0  0  0  0  0  0  0  0
   22.1053   -1.2510   -0.1783 C   0  0  0  0  0  0  0  0  0  0  0  0
   21.4561   -2.5177   -0.3317 C   0  0  0  0  0  0  0  0  0  0  0  0
   22.4159   -3.4641   -0.2079 C   0  0  0  0  0  0  0  0  0  0  0  0
   23.6529   -2.7748    0.0177 C   0  0  0  0  0  0  0  0  0  0  0  0
   23.4581   -1.4175   -0.0196 N   0  0  0  0  0  0  0  0  0  0  0  0
   24.8308   -3.3937    0.4147 C   0  0  0  0  0  0  0  0  0  0  0  0
   24.8451   -4.8641    0.5969 C   0  0  0  0  0  0  0  0  0  0  0  0
   25.0265   -5.4366    1.8545 C   0  0  0  0  0  0  0  0  0  0  0  0
   25.0366   -6.8179    1.9715 C   0  0  0  0  0  0  0  0  0  0  0  0
   24.8848   -7.6337    0.9334 N   0  0  0  0  0  0  0  0  0  0  0  0
   24.7123   -7.0948   -0.2691 C   0  0  0  0  0  0  0  0  0  0  0  0
   24.6826   -5.7261   -0.4863 C   0  0  0  0  0  0  0  0  0  0  0  0
   25.9955   -2.6775    0.6450 C   0  0  0  0  0  0  0  0  0  0  0  0
   27.2383   -3.2650    1.0474 C   0  0  0  0  0  0  0  0  0  0  0  0
   28.1832   -2.3012    0.9315 C   0  0  0  0  0  0  0  0  0  0  0  0
   26.1744   -1.3487    0.3334 N   0  0  0  0  0  0  0  0  0  0  0  0
   27.5179   -1.1308    0.4526 C   0  0  0  0  0  0  0  0  0  0  0  0
   28.1878    0.0068   -0.0050 C   0  0  0  0  0  0  0  0  0  0  0  0
   27.5002    1.1352   -0.4580 C   0  0  0  0  0  0  0  0  0  0  0  0
   28.1433    2.3093   -0.9574 C   0  0  0  0  0  0  0  0  0  0  0  0
   27.1840    3.2602   -1.0676 C   0  0  0  0  0  0  0  0  0  0  0  0
   25.9586    2.6640   -0.6274 C   0  0  0  0  0  0  0  0  0  0  0  0
   26.1552    1.3367   -0.3237 N   0  0  0  0  0  0  0  0  0  0  0  0
   24.7761    3.3601   -0.4229 C   0  0  0  0  0  0  0  0  0  0  0  0
   24.7707    4.8294   -0.5906 C   0  0  0  0  0  0  0  0  0  0  0  0
   23.9233    5.4546   -1.5048 C   0  0  0  0  0  0  0  0  0  0  0  0
   23.9608    6.8347   -1.6265 C   0  0  0  0  0  0  0  0  0  0  0  0
   24.7685    7.6042   -0.9041 N   0  0  0  0  0  0  0  0  0  0  0  0
   25.5776    7.0168   -0.0283 C   0  0  0  0  0  0  0  0  0  0  0  0
   25.6172    5.6446    0.1607 C   0  0  0  0  0  0  0  0  0  0  0  0
   23.5992    2.7120   -0.0694 C   0  0  0  0  0  0  0  0  0  0  0  0
   22.3541    3.3744    0.1889 C   0  0  0  0  0  0  0  0  0  0  0  0
   21.4093    2.4091    0.2835 C   0  0  0  0  0  0  0  0  0  0  0  0
   22.0800    1.1580    0.0998 C   0  0  0  0  0  0  0  0  0  0  0  0
   23.4304    1.3513   -0.0491 N   0  0  0  0  0  0  0  0  0  0  0  0
   20.3531   -0.0638   -0.0496 H   0  0  0  0  0  0  0  0  0  0  0  0
   20.3974   -2.6456   -0.4921 H   0  0  0  0  0  0  0  0  0  0  0  0
   22.3066   -4.5360   -0.2405 H   0  0  0  0  0  0  0  0  0  0  0  0
   25.1436   -4.8100    2.7306 H   0  0  0  0  0  0  0  0  0  0  0  0
   25.1730   -7.2884    2.9408 H   0  0  0  0  0  0  0  0  0  0  0  0
   24.5934   -7.7874   -1.0973 H   0  0  0  0  0  0  0  0  0  0  0  0
   24.5510   -5.3310   -1.4864 H   0  0  0  0  0  0  0  0  0  0  0  0
   27.3647   -4.2903    1.3545 H   0  0  0  0  0  0  0  0  0  0  0  0
   29.2414   -2.3669    1.1269 H   0  0  0  0  0  0  0  0  0  0  0  0
   29.1958    2.3833   -1.1790 H   0  0  0  0  0  0  0  0  0  0  0  0
   27.2858    4.2760   -1.4133 H   0  0  0  0  0  0  0  0  0  0  0  0
   23.2573    4.8670   -2.1254 H   0  0  0  0  0  0  0  0  0  0  0  0
   23.3137    7.3436   -2.3349 H   0  0  0  0  0  0  0  0  0  0  0  0
   26.2242    7.6720    0.5481 H   0  0  0  0  0  0  0  0  0  0  0  0
   26.2852    5.2105    0.8951 H   0  0  0  0  0  0  0  0  0  0  0  0
   22.2320    4.4416    0.2793 H   0  0  0  0  0  0  0  0  0  0  0  0
   20.3499    2.5149    0.4553 H   0  0  0  0  0  0  0  0  0  0  0  0
   51.5542    0.0422   -0.0093 Co  0  0  0  0  0  0  0  0  0  0  0  0
   54.9307    0.0604   -0.0255 C   0  0  0  0  0  0  0  0  0  0  0  0
   54.2689    1.1703   -0.5042 C   0  0  0  0  0  0  0  0  0  0  0  0
   54.9338    2.3348   -1.0050 C   0  0  0  0  0  0  0  0  0  0  0  0
   53.9780    3.2722   -1.2024 C   0  0  0  0  0  0  0  0  0  0  0  0
   52.7289    2.6766   -0.8270 C   0  0  0  0  0  0  0  0  0  0  0  0
   52.9131    1.3732   -0.4411 N   0  0  0  0  0  0  0  0  0  0  0  0
   51.5384    3.3810   -0.7126 C   0  0  0  0  0  0  0  0  0  0  0  0
   51.5322    4.8337   -1.0058 C   0  0  0  0  0  0  0  0  0  0  0  0
   51.2983    5.7704   -0.0004 C   0  0  0  0  0  0  0  0  0  0  0  0
   51.3014    7.1189   -0.3208 C   0  0  0  0  0  0  0  0  0  0  0  0
   51.5138    7.5698   -1.5529 N   0  0  0  0  0  0  0  0  0  0  0  0
   51.7357    6.6824   -2.5170 C   0  0  0  0  0  0  0  0  0  0  0  0
   51.7573    5.3143   -2.2944 C   0  0  0  0  0  0  0  0  0  0  0  0
   50.3553    2.7717   -0.3264 C   0  0  0  0  0  0  0  0  0  0  0  0
   49.1029    3.4581   -0.2177 C   0  0  0  0  0  0  0  0  0  0  0  0
   48.1548    2.5120   -0.0191 C   0  0  0  0  0  0  0  0  0  0  0  0
   50.1773    1.4168   -0.1577 N   0  0  0  0  0  0  0  0  0  0  0  0
   48.8291    1.2523   -0.0125 C   0  0  0  0  0  0  0  0  0  0  0  0
   48.1590    0.0270    0.0119 C   0  0  0  0  0  0  0  0  0  0  0  0
   48.8414   -1.1915    0.0296 C   0  0  0  0  0  0  0  0  0  0  0  0
   48.1840   -2.4597    0.0051 C   0  0  0  0  0  0  0  0  0  0  0  0
   49.1441   -3.3975    0.1882 C   0  0  0  0  0  0  0  0  0  0  0  0
   50.3834   -2.6952    0.3364 C   0  0  0  0  0  0  0  0  0  0  0  0
   50.1912   -1.3415    0.1767 N   0  0  0  0  0  0  0  0  0  0  0  0
   51.5790   -3.2991    0.6931 C   0  0  0  0  0  0  0  0  0  0  0  0
   51.5899   -4.7495    0.9872 C   0  0  0  0  0  0  0  0  0  0  0  0
   52.3682   -5.6333    0.2406 C   0  0  0  0  0  0  0  0  0  0  0  0
   52.3380   -6.9846    0.5475 C   0  0  0  0  0  0  0  0  0  0  0  0
   51.6021   -7.4873    1.5333 N   0  0  0  0  0  0  0  0  0  0  0  0
   50.8609   -6.6510    2.2530 C   0  0  0  0  0  0  0  0  0  0  0  0
   50.8191   -5.2858    2.0181 C   0  0  0  0  0  0  0  0  0  0  0  0
   52.7662   -2.5840    0.7780 C   0  0  0  0  0  0  0  0  0  0  0  0
   54.0174   -3.1511    1.1882 C   0  0  0  0  0  0  0  0  0  0  0  0
   54.9621   -2.2040    0.9811 C   0  0  0  0  0  0  0  0  0  0  0  0
   54.2849   -1.0575    0.4560 C   0  0  0  0  0  0  0  0  0  0  0  0
   52.9323   -1.2798    0.3889 N   0  0  0  0  0  0  0  0  0  0  0  0
   56.0143    0.0687   -0.0249 H   0  0  0  0  0  0  0  0  0  0  0  0
   55.9982    2.4107   -1.1599 H   0  0  0  0  0  0  0  0  0  0  0  0
   54.0959    4.2857   -1.5500 H   0  0  0  0  0  0  0  0  0  0  0  0
   51.1300    5.4481    1.0202 H   0  0  0  0  0  0  0  0  0  0  0  0
   51.1253    7.8684    0.4452 H   0  0  0  0  0  0  0  0  0  0  0  0
   51.9033    7.0819   -3.5129 H   0  0  0  0  0  0  0  0  0  0  0  0
   51.9316    4.6270   -3.1136 H   0  0  0  0  0  0  0  0  0  0  0  0
   48.9747    4.5245   -0.3058 H   0  0  0  0  0  0  0  0  0  0  0  0
   47.0902    2.6368    0.0969 H   0  0  0  0  0  0  0  0  0  0  0  0
   47.1234   -2.5968   -0.1310 H   0  0  0  0  0  0  0  0  0  0  0  0
   49.0350   -4.4691    0.2225 H   0  0  0  0  0  0  0  0  0  0  0  0
   52.9749   -5.2700   -0.5803 H   0  0  0  0  0  0  0  0  0  0  0  0
   52.9302   -7.6932   -0.0242 H   0  0  0  0  0  0  0  0  0  0  0  0
   50.2733   -7.0914    3.0532 H   0  0  0  0  0  0  0  0  0  0  0  0
   50.2076   -4.6403    2.6372 H   0  0  0  0  0  0  0  0  0  0  0  0
   54.1418   -4.1475    1.5801 H   0  0  0  0  0  0  0  0  0  0  0  0
   56.0249   -2.2590    1.1549 H   0  0  0  0  0  0  0  0  0  0  0  0
   30.8131    0.0221   -0.0115 C   0  0  0  0  0  0  0  0  0  0  0  0
   29.5909    0.0155   -0.0104 C   0  0  0  0  0  0  0  0  0  0  0  0
   32.1616    0.0245   -0.0139 C   0  0  0  0  0  0  0  0  0  0  0  0
   33.3841    0.0237   -0.0175 C   0  0  0  0  0  0  0  0  0  0  0  0
   44.1859    0.0065    0.0082 C   0  0  0  0  0  0  0  0  0  0  0  0
   42.9631    0.0043    0.0046 C   0  0  0  0  0  0  0  0  0  0  0  0
   45.5338    0.0117    0.0135 C   0  0  0  0  0  0  0  0  0  0  0  0
   46.7563    0.0201    0.0130 C   0  0  0  0  0  0  0  0  0  0  0  0
   38.1743    0.0262    0.0055 Co  0  0  0  0  0  0  0  0  0  0  0  0
   34.7861    0.0173   -0.0201 C   0  0  0  0  0  0  0  0  0  0  0  0
   35.4646   -0.6662    0.9937 C   0  0  0  0  0  0  0  0  0  0  0  0
   34.8156   -1.3269    2.0807 C   0  0  0  0  0  0  0  0  0  0  0  0
   35.7694   -2.0453    2.7234 C   0  0  0  0  0  0  0  0  0  0  0  0
   36.9947   -1.8280    2.0164 C   0  0  0  0  0  0  0  0  0  0  0  0
   36.8053   -0.9264    0.9959 N   0  0  0  0  0  0  0  0  0  0  0  0
   38.1680   -2.5376    2.2365 C   0  0  0  0  0  0  0  0  0  0  0  0
   38.1675   -3.6338    3.2288 C   0  0  0  0  0  0  0  0  0  0  0  0
   37.2982   -4.7180    3.1115 C   0  0  0  0  0  0  0  0  0  0  0  0
   37.3345   -5.7193    4.0689 C   0  0  0  0  0  0  0  0  0  0  0  0
   38.1610   -5.6967    5.1096 N   0  0  0  0  0  0  0  0  0  0  0  0
   38.9912   -4.6658    5.2302 C   0  0  0  0  0  0  0  0  0  0  0  0
   39.0341   -3.6204    4.3214 C   0  0  0  0  0  0  0  0  0  0  0  0
   39.3420   -2.2428    1.5569 C   0  0  0  0  0  0  0  0  0  0  0  0
   40.5665   -2.9705    1.6988 C   0  0  0  0  0  0  0  0  0  0  0  0
   41.5237   -2.2508    1.0635 C   0  0  0  0  0  0  0  0  0  0  0  0
   39.5339   -1.1324    0.7680 N   0  0  0  0  0  0  0  0  0  0  0  0
   40.8779   -1.0949    0.5277 C   0  0  0  0  0  0  0  0  0  0  0  0
   41.5620    0.0019   -0.0061 C   0  0  0  0  0  0  0  0  0  0  0  0
   40.8827    1.0950   -0.5535 C   0  0  0  0  0  0  0  0  0  0  0  0
   41.5311    2.2493   -1.0892 C   0  0  0  0  0  0  0  0  0  0  0  0
   40.5811    2.9562   -1.7501 C   0  0  0  0  0  0  0  0  0  0  0  0
   39.3578    2.2251   -1.6188 C   0  0  0  0  0  0  0  0  0  0  0  0
   39.5441    1.1188   -0.8247 N   0  0  0  0  0  0  0  0  0  0  0  0
   38.1888    2.5132   -2.3110 C   0  0  0  0  0  0  0  0  0  0  0  0
   38.2023    3.5957   -3.3183 C   0  0  0  0  0  0  0  0  0  0  0  0
   39.0750    3.5568   -4.4055 C   0  0  0  0  0  0  0  0  0  0  0  0
   39.0501    4.5898   -5.3290 C   0  0  0  0  0  0  0  0  0  0  0  0
   38.2325    5.6327   -5.2267 N   0  0  0  0  0  0  0  0  0  0  0  0
   37.4012    5.6801   -4.1909 C   0  0  0  0  0  0  0  0  0  0  0  0
   37.3465    4.6923   -3.2202 C   0  0  0  0  0  0  0  0  0  0  0  0
   37.0102    1.8163   -2.0823 C   0  0  0  0  0  0  0  0  0  0  0  0
   35.7837    2.0454   -2.7841 C   0  0  0  0  0  0  0  0  0  0  0  0
   34.8227    1.3516   -2.1263 C   0  0  0  0  0  0  0  0  0  0  0  0
   35.4688    0.6894   -1.0381 C   0  0  0  0  0  0  0  0  0  0  0  0
   36.8151    0.9198   -1.0572 N   0  0  0  0  0  0  0  0  0  0  0  0
   33.7642   -1.2481    2.3055 H   0  0  0  0  0  0  0  0  0  0  0  0
   35.6623   -2.6693    3.5956 H   0  0  0  0  0  0  0  0  0  0  0  0
   36.6156   -4.7842    2.2728 H   0  0  0  0  0  0  0  0  0  0  0  0
   36.6705   -6.5757    3.9970 H   0  0  0  0  0  0  0  0  0  0  0  0
   39.6519   -4.6749    6.0921 H   0  0  0  0  0  0  0  0  0  0  0  0
   39.7186   -2.7934    4.4674 H   0  0  0  0  0  0  0  0  0  0  0  0
   40.6707   -3.9062    2.2236 H   0  0  0  0  0  0  0  0  0  0  0  0
   42.5763   -2.4636    0.9679 H   0  0  0  0  0  0  0  0  0  0  0  0
   42.5805    2.4696   -0.9775 H   0  0  0  0  0  0  0  0  0  0  0  0
   40.6888    3.8876   -2.2817 H   0  0  0  0  0  0  0  0  0  0  0  0
   39.7506    2.7198   -4.5352 H   0  0  0  0  0  0  0  0  0  0  0  0
   39.7157    4.5789   -6.1870 H   0  0  0  0  0  0  0  0  0  0  0  0
   36.7484    6.5462   -4.1337 H   0  0  0  0  0  0  0  0  0  0  0  0
   36.6607    4.7794   -2.3860 H   0  0  0  0  0  0  0  0  0  0  0  0
   35.6806    2.6636   -3.6609 H   0  0  0  0  0  0  0  0  0  0  0  0
   33.7681    1.2897   -2.3413 H   0  0  0  0  0  0  0  0  0  0  0  0
  2  3  4  0  0  0  0
  3  4  1  0  0  0  0
  4  5  2  0  0  0  0
  5  6  4  0  0  0  0
  1  7  1  0  0  0  0
  3  7  4  0  0  0  0
  6  7  4  0  0  0  0
  6  8  4  0  0  0  0
  8  9  1  0  0  0  0
  9 10  4  0  0  0  0
 10 11  4  0  0  0  0
 11 12  4  0  0  0  0
 12 13  4  0  0  0  0
  9 14  4  0  0  0  0
 13 14  4  0  0  0  0
  8 15  4  0  0  0  0
 15 16  4  0  0  0  0
 16 17  2  0  0  0  0
  1 18  1  0  0  0  0
 15 18  4  0  0  0  0
 17 19  4  0  0  0  0
 18 19  4  0  0  0  0
 19 20  4  0  0  0  0
 20 21  4  0  0  0  0
 21 22  4  0  0  0  0
 22 23  2  0  0  0  0
 23 24  4  0  0  0  0
  1 25  1  0  0  0  0
 21 25  4  0  0  0  0
 24 25  4  0  0  0  0
 24 26  4  0  0  0  0
 26 27  1  0  0  0  0
 27 28  4  0  0  0  0
 28 29  4  0  0  0  0
 29 30  4  0  0  0  0
 30 31  4  0  0  0  0
 27 32  4  0  0  0  0
 31 32  4  0  0  0  0
 26 33  4  0  0  0  0
 33 34  4  0  0  0  0
 34 35  2  0  0  0  0
  2 36  4  0  0  0  0
 35 36  1  0  0  0  0
  1 37  1  0  0  0  0
 33 37  4  0  0  0  0
 36 37  4  0  0  0  0
  2 38  1  0  0  0  0
  4 39  1  0  0  0  0
  5 40  1  0  0  0  0
 10 41  1  0  0  0  0
 11 42  1  0  0  0  0
 13 43  1  0  0  0  0
 14 44  1  0  0  0  0
 16 45  1  0  0  0  0
 17 46  1  0  0  0  0
 22 47  1  0  0  0  0
 23 48  1  0  0  0  0
 28 49  1  0  0  0  0
 29 50  1  0  0  0  0
 31 51  1  0  0  0  0
 32 52  1  0  0  0  0
 34 53  1  0  0  0  0
 35 54  1  0  0  0  0
 56 57  4  0  0  0  0
 57 58  1  0  0  0  0
 58 59  2  0  0  0  0
 59 60  4  0  0  0  0
 55 61  1  0  0  0  0
 57 61  4  0  0  0  0
 60 61  4  0  0  0  0
 60 62  4  0  0  0  0
 62 63  1  0  0  0  0
 63 64  4  0  0  0  0
 64 65  4  0  0  0  0
 65 66  4  0  0  0  0
 66 67  4  0  0  0  0
 63 68  4  0  0  0  0
 67 68  4  0  0  0  0
 62 69  4  0  0  0  0
 69 70  4  0  0  0  0
 70 71  2  0  0  0  0
 55 72  1  0  0  0  0
 69 72  4  0  0  0  0
 71 73  4  0  0  0  0
 72 73  4  0  0  0  0
 73 74  4  0  0  0  0
 74 75  4  0  0  0  0
 75 76  4  0  0  0  0
 76 77  2  0  0  0  0
 77 78  4  0  0  0  0
 55 79  1  0  0  0  0
 75 79  4  0  0  0  0
 78 79  4  0  0  0  0
 78 80  4  0  0  0  0
 80 81  1  0  0  0  0
 81 82  4  0  0  0  0
 82 83  4  0  0  0  0
 83 84  4  0  0  0  0
 84 85  4  0  0  0  0
 81 86  4  0  0  0  0
 85 86  4  0  0  0  0
 80 87  4  0  0  0  0
 87 88  4  0  0  0  0
 88 89  2  0  0  0  0
 56 90  4  0  0  0  0
 89 90  1  0  0  0  0
 55 91  1  0  0  0  0
 87 91  4  0  0  0  0
 90 91  4  0  0  0  0
 56 92  1  0  0  0  0
 58 93  1  0  0  0  0
 59 94  1  0  0  0  0
 64 95  1  0  0  0  0
 65 96  1  0  0  0  0
 67 97  1  0  0  0  0
 68 98  1  0  0  0  0
 70 99  1  0  0  0  0
 71100  1  0  0  0  0
 76101  1  0  0  0  0
 77102  1  0  0  0  0
 82103  1  0  0  0  0
 83104  1  0  0  0  0
 85105  1  0  0  0  0
 86106  1  0  0  0  0
 88107  1  0  0  0  0
 89108  1  0  0  0  0
 20110  4  0  0  0  0
109110  3  0  0  0  0
109111  4  0  0  0  0
111112  3  0  0  0  0
113114  3  0  0  0  0
113115  4  0  0  0  0
 74116  4  0  0  0  0
115116  3  0  0  0  0
112118  4  0  0  0  0
118119  4  0  0  0  0
119120  4  0  0  0  0
120121  2  0  0  0  0
121122  4  0  0  0  0
117123  1  0  0  0  0
119123  4  0  0  0  0
122123  4  0  0  0  0
122124  4  0  0  0  0
124125  1  0  0  0  0
125126  4  0  0  0  0
126127  4  0  0  0  0
127128  4  0  0  0  0
128129  4  0  0  0  0
125130  4  0  0  0  0
129130  4  0  0  0  0
124131  4  0  0  0  0
131132  4  0  0  0  0
132133  2  0  0  0  0
117134  1  0  0  0  0
131134  4  0  0  0  0
133135  4  0  0  0  0
134135  4  0  0  0  0
114136  4  0  0  0  0
135136  4  0  0  0  0
136137  4  0  0  0  0
137138  4  0  0  0  0
138139  2  0  0  0  0
139140  4  0  0  0  0
117141  1  0  0  0  0
137141  4  0  0  0  0
140141  4  0  0  0  0
140142  4  0  0  0  0
142143  1  0  0  0  0
143144  4  0  0  0  0
144145  4  0  0  0  0
145146  4  0  0  0  0
146147  4  0  0  0  0
143148  4  0  0  0  0
147148  4  0  0  0  0
142149  4  0  0  0  0
149150  4  0  0  0  0
150151  2  0  0  0  0
118152  4  0  0  0  0
151152  4  0  0  0  0
117153  1  0  0  0  0
149153  4  0  0  0  0
152153  4  0  0  0  0
120154  1  0  0  0  0
121155  1  0  0  0  0
126156  1  0  0  0  0
127157  1  0  0  0  0
129158  1  0  0  0  0
130159  1  0  0  0  0
132160  1  0  0  0  0
133161  1  0  0  0  0
138162  1  0  0  0  0
139163  1  0  0  0  0
144164  1  0  0  0  0
145165  1  0  0  0  0
147166  1  0  0  0  0
148167  1  0  0  0  0
150168  1  0  0  0  0
151169  1  0  0  0  0
M  END
