205

Fe 34.865951 1.973395 1.620745
C 31.114860 0.079911 -0.038895
C 31.764492 0.933112 0.758213
C 31.099786 1.851751 1.674553
C 32.029991 2.564910 2.281818
C 33.342222 2.143920 1.771703
N 33.180424 1.099744 0.810812
C 34.527635 2.674209 2.138283
C 34.561498 3.787692 3.114174
C 34.073696 5.054798 2.763504
C 34.121895 6.106651 3.682213
C 34.662952 5.912201 4.962994
N 34.699407 7.015522 5.886988
C 35.240819 6.917977 7.238510
C 35.158373 4.639921 5.308482
C 35.108771 3.588153 4.389097
C 35.826774 2.195690 1.596670
C 37.103576 2.889773 1.804487
C 38.048030 2.180037 1.221216
N 35.982932 1.106052 0.909163
C 37.381039 1.025518 0.631968
C 37.987821 0.014146 -0.010259
C 37.237201 -1.119330 -0.594752
C 37.778934 -2.286756 -0.918141
C 36.746868 -3.078049 -1.559560
C 35.643908 -2.338975 -1.589855
N 35.863576 -1.065971 -0.980174
C 34.373354 -2.754652 -2.237476
C 34.411907 -3.855679 -3.230688
C 35.157623 -3.712302 -4.409351
C 35.214656 -4.753103 -5.340700
C 34.528768 -5.959865 -5.103480
N 34.567509 -7.050213 -6.042664
C 35.304234 -7.004567 -7.301382
C 33.791198 -6.100970 -3.917509
C 33.735494 -5.060244 -2.986663
C 33.204590 -2.152381 -1.945098
C 31.904214 -2.449152 -2.543649
C 31.031916 -1.672896 -1.930084
C 31.766669 -0.872193 -0.952168
N 33.033550 -1.143210 -0.952060
H 30.031261 0.082889 -0.020425
H 30.034345 1.941196 1.843637
H 31.830626 3.323916 3.026901
H 33.657967 5.226846 1.778187
H 33.738112 7.077212 3.393924
H 34.319828 7.941265 5.583774
H 36.313133 6.633176 7.196734
H 34.670818 6.163807 7.820769
H 35.154847 7.899612 7.750581
H 35.584885 4.452026 6.284241
H 35.495869 2.616379 4.670604
H 37.263433 3.818675 2.335986
H 39.100204 2.430986 1.201910
H 38.805662 -2.589513 -0.761906
H 36.866187 -4.075615 -1.962071
H 35.692685 -2.791575 -4.607950
H 35.796009 -4.608081 -6.240881
H 34.042492 -7.926738 -5.821167
H 34.915862 -6.181462 -7.937288
H 35.177698 -7.963474 -7.847011
H 36.385501 -6.851070 -7.101379
H 33.259937 -7.021822 -3.712080
H 33.168415 -5.193663 -2.073479
H 31.673899 -3.154778 -3.330925
H 29.968689 -1.641163 -2.128773
Fe 64.139584 -2.005065 -1.566414
C 67.890675 0.027742 -0.080688
C 67.241042 -0.936327 -0.739402
C 67.905749 -2.031035 -1.435961
C 66.975544 -2.779278 -1.999431
C 65.663313 -2.189594 -1.699892
N 65.825111 -1.024018 -0.890542
C 64.477900 -2.663050 -2.137416
C 64.444037 -3.858388 -3.011130
C 64.931839 -3.792649 -4.324220
C 64.883640 -4.918734 -5.150266
C 64.342583 -6.126225 -4.681035
N 64.306128 -7.268699 -5.556156
C 63.764716 -8.566370 -5.166060
C 63.847162 -6.185777 -3.364027
C 63.896764 -5.059051 -2.538211
C 63.178761 -2.030075 -1.788607
C 61.901959 -2.384333 -2.420619
C 60.957505 -1.660252 -1.855254
N 63.022603 -1.121376 -0.875237
C 61.624495 -0.833287 -0.857128
C 61.017713 0.014146 -0.010259
C 61.768333 0.831878 0.968369
C 61.226600 1.402207 2.037101
C 62.258666 2.200830 2.669370
C 63.361627 2.069129 1.941494
N 63.141959 1.196371 0.832196
C 64.632180 2.791846 2.205845
C 64.593628 4.001369 3.063623
C 63.847911 5.120346 2.666518
C 63.790879 6.256356 3.479019
C 64.476767 6.288167 4.708465
N 64.438026 7.442634 5.567611
C 63.701301 8.661062 5.248413
C 65.214337 5.161562 5.104948
C 65.270041 4.026059 4.292409
C 65.800944 2.375098 1.681883
C 67.101321 3.023982 1.840899
C 67.973619 2.255822 1.217227
C 67.238866 1.126757 0.649198
N 65.971985 1.185788 0.913709
H 68.974274 0.009067 -0.079564
H 68.971190 -2.215561 -1.486357
H 67.174908 -3.672021 -2.577571
H 65.347567 -2.868615 -4.707117
H 65.267423 -4.849168 -6.160345
H 64.685707 -7.174788 -6.525753
H 62.692402 -8.463458 -4.897237
H 64.334717 -8.970040 -4.303014
H 63.850688 -9.280296 -6.012309
H 63.420650 -7.097026 -2.967749
H 63.509666 -5.121734 -1.528428
H 61.742102 -3.105711 -3.211166
H 59.905331 -1.696168 -2.104370
H 60.199873 1.315798 2.366653
H 62.139348 2.811310 3.555071
H 63.312849 5.113258 1.724642
H 63.209526 7.103203 3.141073
H 64.963043 7.417731 6.471346
H 64.089673 9.102044 4.306388
H 63.827837 9.402777 6.065159
H 62.620033 8.432385 5.142255
H 65.745598 5.162012 6.048436
H 65.837120 3.163991 4.621869
H 67.331636 3.946255 2.357740
H 69.036846 2.442800 1.142905
C 41.773654 0.026582 -0.007817
C 40.521384 0.007401 -0.012166
C 43.087322 0.025816 -0.005885
C 44.590456 0.007401 -0.012166
C 55.757355 0.026582 -0.007817
C 54.505085 0.007401 -0.012166
C 57.071023 0.025816 -0.005885
C 58.574157 0.007401 -0.012166
Fe 49.829960 -2.033534 -1.585386
C 46.066308 -0.029637 0.022331
C 46.723270 -0.988217 -0.656079
C 46.081583 -2.094138 -1.370735
C 47.020552 -2.804589 -1.963160
C 48.319750 -2.197235 -1.659812
N 48.141406 -1.048747 -0.827827
C 49.503428 -2.639272 -2.131370
C 49.529835 -3.811344 -3.031047
C 49.614334 -5.104828 -2.500038
C 49.644238 -6.212629 -3.351499
C 49.592795 -6.044522 -4.744852
N 49.624639 -7.205336 -5.595903
C 49.574822 -7.137918 -7.052648
C 49.511239 -4.740627 -5.272711
C 49.479900 -3.633470 -4.419901
C 50.803854 -2.008727 -1.794784
C 52.078282 -2.381397 -2.421469
C 53.031347 -1.675642 -1.847796
N 50.969960 -1.112908 -0.872215
C 52.372365 -0.847685 -0.845735
C 52.987494 -0.029637 0.022331
C 52.238754 0.772727 1.013219
C 52.775973 1.314561 2.098937
C 51.742944 2.103302 2.741324
C 50.645013 1.992046 2.002392
N 50.867635 1.145116 0.875749
C 49.385548 2.731766 2.256821
C 49.443740 3.958060 3.088878
C 48.783946 4.011923 4.325453
C 48.854251 5.164309 5.113766
C 49.592213 6.281785 4.677916
N 49.681891 7.484364 5.464456
C 49.037563 7.648264 6.763398
C 50.258137 6.217464 3.443983
C 50.188674 5.064398 2.657596
C 48.210926 2.325346 1.737856
C 46.930918 3.012541 1.874248
C 46.042178 2.255977 1.264126
C 46.742957 1.083555 0.728703
N 48.011182 1.119664 0.999477
H 45.023892 -2.314456 -1.428047
H 46.835821 -3.682337 -2.569016
H 49.656032 -5.254236 -1.427781
H 49.707673 -7.205386 -2.923398
H 49.686801 -8.152021 -5.157594
H 48.631696 -6.649692 -7.377081
H 50.447442 -6.567351 -7.434876
H 49.607919 -8.163229 -7.478474
H 49.471754 -4.570337 -6.339961
H 49.418576 -2.637082 -4.840948
H 52.231790 -3.107470 -3.208721
H 54.084766 -1.731166 -2.087446
H 53.799727 1.215141 2.433819
H 51.859759 2.700206 3.636463
H 48.217871 3.159002 4.679730
H 48.332747 5.173807 6.060886
H 50.234430 8.290244 5.093254
H 49.426404 6.891354 7.476469
H 49.253880 8.660049 7.167051
H 47.938177 7.538175 6.656417
H 50.834286 7.063293 3.089946
H 50.711260 5.035384 1.709164
H 46.724866 3.955723 2.362797
H 44.989085 2.486833 1.178733
