 xtb: 6.5.1 (b24c23e)
          07302208173D

229258  0     0  0            999 V2000
   32.9562    0.0167   -0.0162 Cu  0  0  0  0  0  0  0  0  0  0  0  0
   29.5419    0.0768   -0.0251 C   0  0  0  0  0  0  0  0  0  0  0  0
   30.1866    1.2067    0.4568 C   0  0  0  0  0  0  0  0  0  0  0  0
   29.5258    2.3841    0.9457 C   0  0  0  0  0  0  0  0  0  0  0  0
   30.4954    3.2544    1.3229 C   0  0  0  0  0  0  0  0  0  0  0  0
   31.7575    2.6155    1.0675 C   0  0  0  0  0  0  0  0  0  0  0  0
   31.5391    1.3747    0.5416 N   0  0  0  0  0  0  0  0  0  0  0  0
   33.0050    3.1831    1.3223 C   0  0  0  0  0  0  0  0  0  0  0  0
   33.0305    4.5587    1.9003 C   0  0  0  0  0  0  0  0  0  0  0  0
   33.0524    5.6706    1.0535 C   0  0  0  0  0  0  0  0  0  0  0  0
   33.0460    5.4774   -0.4397 C   0  0  0  0  0  0  0  0  0  0  0  0
   33.0796    6.9472    1.6022 C   0  0  0  0  0  0  0  0  0  0  0  0
   33.0847    7.1324    2.9811 C   0  0  0  0  0  0  0  0  0  0  0  0
   33.1364    8.5198    3.5617 C   0  0  0  0  0  0  0  0  0  0  0  0
   33.0631    6.0189    3.8143 C   0  0  0  0  0  0  0  0  0  0  0  0
   33.0358    4.7330    3.2870 C   0  0  0  0  0  0  0  0  0  0  0  0
   33.0113    3.5321    4.1947 C   0  0  0  0  0  0  0  0  0  0  0  0
   34.2327    2.5694    1.0803 C   0  0  0  0  0  0  0  0  0  0  0  0
   35.5102    3.1666    1.3483 C   0  0  0  0  0  0  0  0  0  0  0  0
   36.4551    2.2651    0.9785 C   0  0  0  0  0  0  0  0  0  0  0  0
   34.4186    1.3187    0.5545 N   0  0  0  0  0  0  0  0  0  0  0  0
   35.7623    1.1129    0.4823 C   0  0  0  0  0  0  0  0  0  0  0  0
   36.3923   -0.0425   -0.0101 C   0  0  0  0  0  0  0  0  0  0  0  0
   35.7260   -1.1770   -0.5031 C   0  0  0  0  0  0  0  0  0  0  0  0
   36.3810   -2.3538   -0.9930 C   0  0  0  0  0  0  0  0  0  0  0  0
   35.4071   -3.2238   -1.3633 C   0  0  0  0  0  0  0  0  0  0  0  0
   34.1498   -2.5822   -1.1028 C   0  0  0  0  0  0  0  0  0  0  0  0
   34.3765   -1.3370   -0.5799 N   0  0  0  0  0  0  0  0  0  0  0  0
   32.9019   -3.1519   -1.3492 C   0  0  0  0  0  0  0  0  0  0  0  0
   32.8776   -4.5302   -1.9211 C   0  0  0  0  0  0  0  0  0  0  0  0
   32.8955   -4.7122   -3.3073 C   0  0  0  0  0  0  0  0  0  0  0  0
   32.9361   -3.5164   -4.2212 C   0  0  0  0  0  0  0  0  0  0  0  0
   32.8733   -6.0002   -3.8273 C   0  0  0  0  0  0  0  0  0  0  0  0
   32.8339   -7.1101   -2.9877 C   0  0  0  0  0  0  0  0  0  0  0  0
   32.8045   -8.4957   -3.5744 C   0  0  0  0  0  0  0  0  0  0  0  0
   32.8150   -6.9174   -1.6113 C   0  0  0  0  0  0  0  0  0  0  0  0
   32.8367   -5.6369   -1.0692 C   0  0  0  0  0  0  0  0  0  0  0  0
   32.8155   -5.4360    0.4228 C   0  0  0  0  0  0  0  0  0  0  0  0
   31.6743   -2.5389   -1.1026 C   0  0  0  0  0  0  0  0  0  0  0  0
   30.3919   -3.1327   -1.3659 C   0  0  0  0  0  0  0  0  0  0  0  0
   29.4514   -2.2282   -0.9955 C   0  0  0  0  0  0  0  0  0  0  0  0
   30.1504   -1.0748   -0.5028 C   0  0  0  0  0  0  0  0  0  0  0  0
   31.4967   -1.2904   -0.5792 N   0  0  0  0  0  0  0  0  0  0  0  0
   28.4569    0.0953   -0.0285 H   0  0  0  0  0  0  0  0  0  0  0  0
   28.4557    2.5138    0.9891 H   0  0  0  0  0  0  0  0  0  0  0  0
   30.3806    4.2429    1.7386 H   0  0  0  0  0  0  0  0  0  0  0  0
   32.1416    4.9500   -0.7492 H   0  0  0  0  0  0  0  0  0  0  0  0
   33.9040    4.8770   -0.7479 H   0  0  0  0  0  0  0  0  0  0  0  0
   33.0858    6.4357   -0.9568 H   0  0  0  0  0  0  0  0  0  0  0  0
   33.0965    7.8104    0.9448 H   0  0  0  0  0  0  0  0  0  0  0  0
   32.6922    8.5421    4.5571 H   0  0  0  0  0  0  0  0  0  0  0  0
   34.1748    8.8491    3.6452 H   0  0  0  0  0  0  0  0  0  0  0  0
   32.6076    9.2278    2.9229 H   0  0  0  0  0  0  0  0  0  0  0  0
   33.0669    6.1537    4.8910 H   0  0  0  0  0  0  0  0  0  0  0  0
   33.8722    2.8904    3.9976 H   0  0  0  0  0  0  0  0  0  0  0  0
   33.0328    3.8344    5.2414 H   0  0  0  0  0  0  0  0  0  0  0  0
   32.1092    2.9429    4.0189 H   0  0  0  0  0  0  0  0  0  0  0  0
   35.6542    4.1505    1.7651 H   0  0  0  0  0  0  0  0  0  0  0  0
   37.5278    2.3618    1.0315 H   0  0  0  0  0  0  0  0  0  0  0  0
   37.4501   -2.4870   -1.0412 H   0  0  0  0  0  0  0  0  0  0  0  0
   35.5191   -4.2138   -1.7757 H   0  0  0  0  0  0  0  0  0  0  0  0
   32.0568   -2.8890   -4.0622 H   0  0  0  0  0  0  0  0  0  0  0  0
   32.9607   -3.8253   -5.2658 H   0  0  0  0  0  0  0  0  0  0  0  0
   33.8200   -2.9102   -4.0140 H   0  0  0  0  0  0  0  0  0  0  0  0
   32.8877   -6.1427   -4.9030 H   0  0  0  0  0  0  0  0  0  0  0  0
   33.6257   -8.6281   -4.2808 H   0  0  0  0  0  0  0  0  0  0  0  0
   32.8884   -9.2527   -2.7948 H   0  0  0  0  0  0  0  0  0  0  0  0
   31.8686   -8.6563   -4.1136 H   0  0  0  0  0  0  0  0  0  0  0  0
   32.7839   -7.7759   -0.9483 H   0  0  0  0  0  0  0  0  0  0  0  0
   31.9268   -4.8737    0.7160 H   0  0  0  0  0  0  0  0  0  0  0  0
   33.6904   -4.8664    0.7415 H   0  0  0  0  0  0  0  0  0  0  0  0
   32.8112   -6.3924    0.9448 H   0  0  0  0  0  0  0  0  0  0  0  0
   30.2450   -4.1165   -1.7825 H   0  0  0  0  0  0  0  0  0  0  0  0
   28.3778   -2.3199   -1.0458 H   0  0  0  0  0  0  0  0  0  0  0  0
   59.9338   -0.0284   -0.0580 Cu  0  0  0  0  0  0  0  0  0  0  0  0
   63.3480   -0.0628   -0.0999 C   0  0  0  0  0  0  0  0  0  0  0  0
   62.7048   -1.2067   -0.5498 C   0  0  0  0  0  0  0  0  0  0  0  0
   63.3672   -2.3899   -1.0220 C   0  0  0  0  0  0  0  0  0  0  0  0
   62.3988   -3.2727   -1.3724 C   0  0  0  0  0  0  0  0  0  0  0  0
   61.1358   -2.6350   -1.1189 C   0  0  0  0  0  0  0  0  0  0  0  0
   61.3524   -1.3837   -0.6176 N   0  0  0  0  0  0  0  0  0  0  0  0
   59.8890   -3.2103   -1.3598 C   0  0  0  0  0  0  0  0  0  0  0  0
   59.8653   -4.5950   -1.9159 C   0  0  0  0  0  0  0  0  0  0  0  0
   59.8788   -4.7931   -3.2994 C   0  0  0  0  0  0  0  0  0  0  0  0
   59.9218   -3.6081   -4.2271 C   0  0  0  0  0  0  0  0  0  0  0  0
   59.8528   -6.0877   -3.8048 C   0  0  0  0  0  0  0  0  0  0  0  0
   59.8143   -7.1868   -2.9528 C   0  0  0  0  0  0  0  0  0  0  0  0
   59.7643   -8.5828   -3.5126 C   0  0  0  0  0  0  0  0  0  0  0  0
   59.8007   -6.9778   -1.5776 C   0  0  0  0  0  0  0  0  0  0  0  0
   59.8260   -5.6919   -1.0506 C   0  0  0  0  0  0  0  0  0  0  0  0
   59.8120   -5.4735    0.4390 C   0  0  0  0  0  0  0  0  0  0  0  0
   58.6604   -2.5968   -1.1215 C   0  0  0  0  0  0  0  0  0  0  0  0
   57.3836   -3.1979   -1.3839 C   0  0  0  0  0  0  0  0  0  0  0  0
   56.4376   -2.2979   -1.0136 C   0  0  0  0  0  0  0  0  0  0  0  0
   58.4730   -1.3443   -0.6006 N   0  0  0  0  0  0  0  0  0  0  0  0
   57.1291   -1.1428   -0.5219 C   0  0  0  0  0  0  0  0  0  0  0  0
   56.4980    0.0081   -0.0209 C   0  0  0  0  0  0  0  0  0  0  0  0
   57.1629    1.1456    0.4667 C   0  0  0  0  0  0  0  0  0  0  0  0
   56.5065    2.3149    0.9725 C   0  0  0  0  0  0  0  0  0  0  0  0
   57.4791    3.1941    1.3240 C   0  0  0  0  0  0  0  0  0  0  0  0
   58.7371    2.5659    1.0354 C   0  0  0  0  0  0  0  0  0  0  0  0
   58.5121    1.3182    0.5178 N   0  0  0  0  0  0  0  0  0  0  0  0
   59.9838    3.1516    1.2479 C   0  0  0  0  0  0  0  0  0  0  0  0
   60.0049    4.5347    1.8078 C   0  0  0  0  0  0  0  0  0  0  0  0
   59.9750    5.6355    0.9459 C   0  0  0  0  0  0  0  0  0  0  0  0
   59.9242    5.4217   -0.5436 C   0  0  0  0  0  0  0  0  0  0  0  0
   59.9935    6.9191    1.4766 C   0  0  0  0  0  0  0  0  0  0  0  0
   60.0407    7.1235    2.8529 C   0  0  0  0  0  0  0  0  0  0  0  0
   60.0665    8.5237    3.4042 C   0  0  0  0  0  0  0  0  0  0  0  0
   60.0707    6.0221    3.7003 C   0  0  0  0  0  0  0  0  0  0  0  0
   60.0529    4.7282    3.1906 C   0  0  0  0  0  0  0  0  0  0  0  0
   60.0853    3.5399    4.1145 C   0  0  0  0  0  0  0  0  0  0  0  0
   61.2122    2.5503    0.9772 C   0  0  0  0  0  0  0  0  0  0  0  0
   62.4936    3.1620    1.2012 C   0  0  0  0  0  0  0  0  0  0  0  0
   63.4353    2.2613    0.8246 C   0  0  0  0  0  0  0  0  0  0  0  0
   62.7380    1.0926    0.3665 C   0  0  0  0  0  0  0  0  0  0  0  0
   61.3915    1.2962    0.4680 N   0  0  0  0  0  0  0  0  0  0  0  0
   64.4330   -0.0729   -0.1135 H   0  0  0  0  0  0  0  0  0  0  0  0
   64.4375   -2.5150   -1.0729 H   0  0  0  0  0  0  0  0  0  0  0  0
   62.5150   -4.2690   -1.7687 H   0  0  0  0  0  0  0  0  0  0  0  0
   60.8331   -3.0303   -4.0606 H   0  0  0  0  0  0  0  0  0  0  0  0
   59.0711   -2.9499   -4.0411 H   0  0  0  0  0  0  0  0  0  0  0  0
   59.8963   -3.9274   -5.2685 H   0  0  0  0  0  0  0  0  0  0  0  0
   59.8634   -6.2413   -4.8789 H   0  0  0  0  0  0  0  0  0  0  0  0
   60.2082   -9.2964   -2.8181 H   0  0  0  0  0  0  0  0  0  0  0  0
   58.7262   -8.8770   -3.6847 H   0  0  0  0  0  0  0  0  0  0  0  0
   60.2942   -8.6392   -4.4638 H   0  0  0  0  0  0  0  0  0  0  0  0
   59.7707   -7.8293   -0.9055 H   0  0  0  0  0  0  0  0  0  0  0  0
   58.9444   -4.8764    0.7263 H   0  0  0  0  0  0  0  0  0  0  0  0
   59.7745   -6.4233    0.9717 H   0  0  0  0  0  0  0  0  0  0  0  0
   60.7073   -4.9321    0.7509 H   0  0  0  0  0  0  0  0  0  0  0  0
   57.2407   -4.1828   -1.7990 H   0  0  0  0  0  0  0  0  0  0  0  0
   55.3649   -2.3972   -1.0632 H   0  0  0  0  0  0  0  0  0  0  0  0
   55.4374    2.4372    1.0435 H   0  0  0  0  0  0  0  0  0  0  0  0
   57.3658    4.1816    1.7420 H   0  0  0  0  0  0  0  0  0  0  0  0
   60.8022    4.8644   -0.8761 H   0  0  0  0  0  0  0  0  0  0  0  0
   59.8935    6.3737   -1.0728 H   0  0  0  0  0  0  0  0  0  0  0  0
   59.0394    4.8420   -0.8136 H   0  0  0  0  0  0  0  0  0  0  0  0
   59.9699    7.7740    0.8086 H   0  0  0  0  0  0  0  0  0  0  0  0
   59.2443    9.1109    2.9921 H   0  0  0  0  0  0  0  0  0  0  0  0
   59.9821    8.5181    4.4908 H   0  0  0  0  0  0  0  0  0  0  0  0
   61.0015    9.0178    3.1321 H   0  0  0  0  0  0  0  0  0  0  0  0
   60.1074    6.1708    4.7745 H   0  0  0  0  0  0  0  0  0  0  0  0
   60.9759    2.9376    3.9248 H   0  0  0  0  0  0  0  0  0  0  0  0
   59.2125    2.9059    3.9478 H   0  0  0  0  0  0  0  0  0  0  0  0
   60.0938    3.8568    5.1569 H   0  0  0  0  0  0  0  0  0  0  0  0
   62.6391    4.1545    1.5972 H   0  0  0  0  0  0  0  0  0  0  0  0
   64.5087    2.3650    0.8491 H   0  0  0  0  0  0  0  0  0  0  0  0
   39.0221   -0.0725   -0.0012 C   0  0  0  0  0  0  0  0  0  0  0  0
   37.8012   -0.0634   -0.0070 C   0  0  0  0  0  0  0  0  0  0  0  0
   40.3743   -0.0769    0.0050 C   0  0  0  0  0  0  0  0  0  0  0  0
   41.5953   -0.0837    0.0044 C   0  0  0  0  0  0  0  0  0  0  0  0
   52.5160    0.0237    0.0093 C   0  0  0  0  0  0  0  0  0  0  0  0
   51.2951    0.0180    0.0159 C   0  0  0  0  0  0  0  0  0  0  0  0
   53.8682    0.0242    0.0044 C   0  0  0  0  0  0  0  0  0  0  0  0
   55.0890    0.0205   -0.0070 C   0  0  0  0  0  0  0  0  0  0  0  0
   46.4452   -0.0407    0.0123 Cu  0  0  0  0  0  0  0  0  0  0  0  0
   43.0039   -0.0769    0.0083 C   0  0  0  0  0  0  0  0  0  0  0  0
   43.6487    0.1127    1.2427 C   0  0  0  0  0  0  0  0  0  0  0  0
   42.9721    0.2894    2.4937 C   0  0  0  0  0  0  0  0  0  0  0  0
   43.9300    0.4238    3.4462 C   0  0  0  0  0  0  0  0  0  0  0  0
   45.1984    0.3320    2.7810 C   0  0  0  0  0  0  0  0  0  0  0  0
   44.9946    0.1437    1.4404 N   0  0  0  0  0  0  0  0  0  0  0  0
   46.4363    0.4216    3.4154 C   0  0  0  0  0  0  0  0  0  0  0  0
   46.4338    0.6104    4.8958 C   0  0  0  0  0  0  0  0  0  0  0  0
   46.4433    1.8990    5.4365 C   0  0  0  0  0  0  0  0  0  0  0  0
   46.4531    3.0962    4.5236 C   0  0  0  0  0  0  0  0  0  0  0  0
   46.4421    2.0611    6.8173 C   0  0  0  0  0  0  0  0  0  0  0  0
   46.4306    0.9593    7.6658 C   0  0  0  0  0  0  0  0  0  0  0  0
   46.4489    1.1424    9.1595 C   0  0  0  0  0  0  0  0  0  0  0  0
   46.4214   -0.3191    7.1165 C   0  0  0  0  0  0  0  0  0  0  0  0
   46.4224   -0.5044    5.7393 C   0  0  0  0  0  0  0  0  0  0  0  0
   46.4113   -1.8905    5.1517 C   0  0  0  0  0  0  0  0  0  0  0  0
   47.6770    0.3481    2.7845 C   0  0  0  0  0  0  0  0  0  0  0  0
   48.9420    0.4460    3.4554 C   0  0  0  0  0  0  0  0  0  0  0  0
   49.9048    0.3335    2.5050 C   0  0  0  0  0  0  0  0  0  0  0  0
   47.8876    0.1770    1.4427 N   0  0  0  0  0  0  0  0  0  0  0  0
   49.2346    0.1647    1.2495 C   0  0  0  0  0  0  0  0  0  0  0  0
   49.8865    0.0040    0.0151 C   0  0  0  0  0  0  0  0  0  0  0  0
   49.2416   -0.1727   -1.2212 C   0  0  0  0  0  0  0  0  0  0  0  0
   49.9180   -0.3225   -2.4757 C   0  0  0  0  0  0  0  0  0  0  0  0
   48.9601   -0.4611   -3.4277 C   0  0  0  0  0  0  0  0  0  0  0  0
   47.6921   -0.3985   -2.7585 C   0  0  0  0  0  0  0  0  0  0  0  0
   47.8959   -0.2215   -1.4164 N   0  0  0  0  0  0  0  0  0  0  0  0
   46.4544   -0.5065   -3.3904 C   0  0  0  0  0  0  0  0  0  0  0  0
   46.4578   -0.6960   -4.8707 C   0  0  0  0  0  0  0  0  0  0  0  0
   46.4086    0.4173   -5.7148 C   0  0  0  0  0  0  0  0  0  0  0  0
   46.3533    1.8028   -5.1283 C   0  0  0  0  0  0  0  0  0  0  0  0
   46.4108    0.2313   -7.0920 C   0  0  0  0  0  0  0  0  0  0  0  0
   46.4600   -1.0464   -7.6406 C   0  0  0  0  0  0  0  0  0  0  0  0
   46.4806   -1.2306   -9.1341 C   0  0  0  0  0  0  0  0  0  0  0  0
   46.5099   -2.1467   -6.7915 C   0  0  0  0  0  0  0  0  0  0  0  0
   46.5089   -1.9839   -5.4108 C   0  0  0  0  0  0  0  0  0  0  0  0
   46.5610   -3.1796   -4.4975 C   0  0  0  0  0  0  0  0  0  0  0  0
   45.2140   -0.4480   -2.7574 C   0  0  0  0  0  0  0  0  0  0  0  0
   43.9494   -0.5707   -3.4249 C   0  0  0  0  0  0  0  0  0  0  0  0
   42.9866   -0.4534   -2.4750 C   0  0  0  0  0  0  0  0  0  0  0  0
   43.6564   -0.2581   -1.2232 C   0  0  0  0  0  0  0  0  0  0  0  0
   45.0032   -0.2612   -1.4176 N   0  0  0  0  0  0  0  0  0  0  0  0
   41.9009    0.3054    2.6167 H   0  0  0  0  0  0  0  0  0  0  0  0
   43.8000    0.5734    4.5061 H   0  0  0  0  0  0  0  0  0  0  0  0
   47.3389    3.0789    3.8857 H   0  0  0  0  0  0  0  0  0  0  0  0
   46.4531    4.0230    5.0965 H   0  0  0  0  0  0  0  0  0  0  0  0
   45.5750    3.0850    3.8751 H   0  0  0  0  0  0  0  0  0  0  0  0
   46.4487    3.0619    7.2365 H   0  0  0  0  0  0  0  0  0  0  0  0
   47.4715    1.0511    9.5329 H   0  0  0  0  0  0  0  0  0  0  0  0
   45.8414    0.3811    9.6501 H   0  0  0  0  0  0  0  0  0  0  0  0
   46.0719    2.1271    9.4364 H   0  0  0  0  0  0  0  0  0  0  0  0
   46.4120   -1.1843    7.7715 H   0  0  0  0  0  0  0  0  0  0  0  0
   45.5264   -2.0303    4.5279 H   0  0  0  0  0  0  0  0  0  0  0  0
   47.2902   -2.0421    4.5222 H   0  0  0  0  0  0  0  0  0  0  0  0
   46.4086   -2.6464    5.9364 H   0  0  0  0  0  0  0  0  0  0  0  0
   49.0664    0.5827    4.5178 H   0  0  0  0  0  0  0  0  0  0  0  0
   50.9753    0.3595    2.6318 H   0  0  0  0  0  0  0  0  0  0  0  0
   50.9890   -0.3185   -2.6017 H   0  0  0  0  0  0  0  0  0  0  0  0
   49.0901   -0.5932   -4.4899 H   0  0  0  0  0  0  0  0  0  0  0  0
   45.4583    1.9185   -4.5139 H   0  0  0  0  0  0  0  0  0  0  0  0
   46.3375    2.5579   -5.9138 H   0  0  0  0  0  0  0  0  0  0  0  0
   47.2210    1.9792   -4.4899 H   0  0  0  0  0  0  0  0  0  0  0  0
   46.3718    1.0954   -7.7472 H   0  0  0  0  0  0  0  0  0  0  0  0
   46.1116   -2.2185   -9.4101 H   0  0  0  0  0  0  0  0  0  0  0  0
   47.5029   -1.1321   -9.5069 H   0  0  0  0  0  0  0  0  0  0  0  0
   45.8676   -0.4746   -9.6260 H   0  0  0  0  0  0  0  0  0  0  0  0
   46.5484   -3.1471   -7.2102 H   0  0  0  0  0  0  0  0  0  0  0  0
   46.5826   -4.1064   -5.0700 H   0  0  0  0  0  0  0  0  0  0  0  0
   45.6890   -3.1934   -3.8409 H   0  0  0  0  0  0  0  0  0  0  0  0
   47.4518   -3.1365   -3.8678 H   0  0  0  0  0  0  0  0  0  0  0  0
   43.8252   -0.7274   -4.4844 H   0  0  0  0  0  0  0  0  0  0  0  0
   41.9163   -0.4935   -2.6002 H   0  0  0  0  0  0  0  0  0  0  0  0
  2  3  4  0  0  0  0
  3  4  1  0  0  0  0
  4  5  2  0  0  0  0
  5  6  4  0  0  0  0
  1  7  1  0  0  0  0
  3  7  4  0  0  0  0
  6  7  4  0  0  0  0
  6  8  4  0  0  0  0
  8  9  1  0  0  0  0
  9 10  4  0  0  0  0
 10 11  1  0  0  0  0
 10 12  4  0  0  0  0
 12 13  4  0  0  0  0
 13 14  1  0  0  0  0
 13 15  4  0  0  0  0
  9 16  4  0  0  0  0
 15 16  4  0  0  0  0
 16 17  1  0  0  0  0
  8 18  4  0  0  0  0
 18 19  4  0  0  0  0
 19 20  2  0  0  0  0
  1 21  1  0  0  0  0
 18 21  4  0  0  0  0
 20 22  4  0  0  0  0
 21 22  4  0  0  0  0
 22 23  4  0  0  0  0
 23 24  4  0  0  0  0
 24 25  4  0  0  0  0
 25 26  2  0  0  0  0
 26 27  4  0  0  0  0
  1 28  1  0  0  0  0
 24 28  4  0  0  0  0
 27 28  4  0  0  0  0
 27 29  4  0  0  0  0
 29 30  1  0  0  0  0
 30 31  4  0  0  0  0
 31 32  1  0  0  0  0
 31 33  4  0  0  0  0
 33 34  4  0  0  0  0
 34 35  1  0  0  0  0
 34 36  4  0  0  0  0
 30 37  4  0  0  0  0
 36 37  4  0  0  0  0
 37 38  1  0  0  0  0
 29 39  4  0  0  0  0
 39 40  4  0  0  0  0
 40 41  2  0  0  0  0
  2 42  4  0  0  0  0
 41 42  1  0  0  0  0
  1 43  1  0  0  0  0
 39 43  4  0  0  0  0
 42 43  4  0  0  0  0
  2 44  1  0  0  0  0
  4 45  1  0  0  0  0
  5 46  1  0  0  0  0
 11 47  1  0  0  0  0
 11 48  1  0  0  0  0
 11 49  1  0  0  0  0
 12 50  1  0  0  0  0
 14 51  1  0  0  0  0
 14 52  1  0  0  0  0
 14 53  1  0  0  0  0
 15 54  1  0  0  0  0
 17 55  1  0  0  0  0
 17 56  1  0  0  0  0
 17 57  1  0  0  0  0
 19 58  1  0  0  0  0
 20 59  1  0  0  0  0
 25 60  1  0  0  0  0
 26 61  1  0  0  0  0
 32 62  1  0  0  0  0
 32 63  1  0  0  0  0
 32 64  1  0  0  0  0
 33 65  1  0  0  0  0
 35 66  1  0  0  0  0
 35 67  1  0  0  0  0
 35 68  1  0  0  0  0
 36 69  1  0  0  0  0
 38 70  1  0  0  0  0
 38 71  1  0  0  0  0
 38 72  1  0  0  0  0
 40 73  1  0  0  0  0
 41 74  1  0  0  0  0
 76 77  4  0  0  0  0
 77 78  1  0  0  0  0
 78 79  2  0  0  0  0
 79 80  4  0  0  0  0
 75 81  1  0  0  0  0
 77 81  4  0  0  0  0
 80 81  4  0  0  0  0
 80 82  4  0  0  0  0
 82 83  1  0  0  0  0
 83 84  4  0  0  0  0
 84 85  1  0  0  0  0
 84 86  4  0  0  0  0
 86 87  4  0  0  0  0
 87 88  1  0  0  0  0
 87 89  4  0  0  0  0
 83 90  4  0  0  0  0
 89 90  4  0  0  0  0
 90 91  1  0  0  0  0
 82 92  4  0  0  0  0
 92 93  4  0  0  0  0
 93 94  2  0  0  0  0
 75 95  1  0  0  0  0
 92 95  4  0  0  0  0
 94 96  4  0  0  0  0
 95 96  4  0  0  0  0
 96 97  4  0  0  0  0
 97 98  4  0  0  0  0
 98 99  4  0  0  0  0
 99100  2  0  0  0  0
100101  4  0  0  0  0
 75102  1  0  0  0  0
 98102  4  0  0  0  0
101102  4  0  0  0  0
101103  4  0  0  0  0
103104  1  0  0  0  0
104105  4  0  0  0  0
105106  1  0  0  0  0
105107  4  0  0  0  0
107108  4  0  0  0  0
108109  1  0  0  0  0
108110  4  0  0  0  0
104111  4  0  0  0  0
110111  4  0  0  0  0
111112  1  0  0  0  0
103113  4  0  0  0  0
113114  4  0  0  0  0
114115  2  0  0  0  0
 76116  4  0  0  0  0
115116  1  0  0  0  0
 75117  1  0  0  0  0
113117  4  0  0  0  0
116117  4  0  0  0  0
 76118  1  0  0  0  0
 78119  1  0  0  0  0
 79120  1  0  0  0  0
 85121  1  0  0  0  0
 85122  1  0  0  0  0
 85123  1  0  0  0  0
 86124  1  0  0  0  0
 88125  1  0  0  0  0
 88126  1  0  0  0  0
 88127  1  0  0  0  0
 89128  1  0  0  0  0
 91129  1  0  0  0  0
 91130  1  0  0  0  0
 91131  1  0  0  0  0
 93132  1  0  0  0  0
 94133  1  0  0  0  0
 99134  1  0  0  0  0
100135  1  0  0  0  0
106136  1  0  0  0  0
106137  1  0  0  0  0
106138  1  0  0  0  0
107139  1  0  0  0  0
109140  1  0  0  0  0
109141  1  0  0  0  0
109142  1  0  0  0  0
110143  1  0  0  0  0
112144  1  0  0  0  0
112145  1  0  0  0  0
112146  1  0  0  0  0
114147  1  0  0  0  0
115148  1  0  0  0  0
 23150  4  0  0  0  0
149150  3  0  0  0  0
149151  4  0  0  0  0
151152  3  0  0  0  0
153154  3  0  0  0  0
153155  4  0  0  0  0
 97156  4  0  0  0  0
155156  3  0  0  0  0
152158  4  0  0  0  0
158159  4  0  0  0  0
159160  4  0  0  0  0
160161  2  0  0  0  0
161162  4  0  0  0  0
157163  1  0  0  0  0
159163  4  0  0  0  0
162163  4  0  0  0  0
162164  4  0  0  0  0
164165  1  0  0  0  0
165166  4  0  0  0  0
166167  1  0  0  0  0
166168  4  0  0  0  0
168169  4  0  0  0  0
169170  1  0  0  0  0
169171  4  0  0  0  0
165172  4  0  0  0  0
171172  4  0  0  0  0
172173  1  0  0  0  0
164174  4  0  0  0  0
174175  4  0  0  0  0
175176  2  0  0  0  0
157177  1  0  0  0  0
174177  4  0  0  0  0
176178  4  0  0  0  0
177178  4  0  0  0  0
154179  4  0  0  0  0
178179  4  0  0  0  0
179180  4  0  0  0  0
180181  4  0  0  0  0
181182  2  0  0  0  0
182183  4  0  0  0  0
157184  1  0  0  0  0
180184  4  0  0  0  0
183184  4  0  0  0  0
183185  4  0  0  0  0
185186  1  0  0  0  0
186187  4  0  0  0  0
187188  1  0  0  0  0
187189  4  0  0  0  0
189190  4  0  0  0  0
190191  1  0  0  0  0
190192  4  0  0  0  0
186193  4  0  0  0  0
192193  4  0  0  0  0
193194  1  0  0  0  0
185195  4  0  0  0  0
195196  4  0  0  0  0
196197  2  0  0  0  0
158198  4  0  0  0  0
197198  4  0  0  0  0
157199  1  0  0  0  0
195199  4  0  0  0  0
198199  4  0  0  0  0
160200  1  0  0  0  0
161201  1  0  0  0  0
167202  1  0  0  0  0
167203  1  0  0  0  0
167204  1  0  0  0  0
168205  1  0  0  0  0
170206  1  0  0  0  0
170207  1  0  0  0  0
170208  1  0  0  0  0
171209  1  0  0  0  0
173210  1  0  0  0  0
173211  1  0  0  0  0
173212  1  0  0  0  0
175213  1  0  0  0  0
176214  1  0  0  0  0
181215  1  0  0  0  0
182216  1  0  0  0  0
188217  1  0  0  0  0
188218  1  0  0  0  0
188219  1  0  0  0  0
189220  1  0  0  0  0
191221  1  0  0  0  0
191222  1  0  0  0  0
191223  1  0  0  0  0
192224  1  0  0  0  0
194225  1  0  0  0  0
194226  1  0  0  0  0
194227  1  0  0  0  0
196228  1  0  0  0  0
197229  1  0  0  0  0
M  END
