 xtb: 6.5.1 (b24c23e)
          07302204453D

181210  0     0  0            999 V2000
   32.3421    0.0025   -0.0407 Ni  0  0  0  0  0  0  0  0  0  0  0  0
   28.9401    0.0925   -0.1366 C   0  0  0  0  0  0  0  0  0  0  0  0
   29.5839    0.9345    0.7451 C   0  0  0  0  0  0  0  0  0  0  0  0
   28.8976    1.8350    1.6202 C   0  0  0  0  0  0  0  0  0  0  0  0
   29.8486    2.4697    2.3458 C   0  0  0  0  0  0  0  0  0  0  0  0
   31.1106    1.9581    1.9062 C   0  0  0  0  0  0  0  0  0  0  0  0
   30.9441    1.0194    0.9261 N   0  0  0  0  0  0  0  0  0  0  0  0
   32.3331    2.3866    2.4244 C   0  0  0  0  0  0  0  0  0  0  0  0
   32.3301    3.3675    3.4405 C   0  0  0  0  0  0  0  0  0  0  0  0
   32.3256    4.2147    4.3090 C   0  0  0  0  0  0  0  0  0  0  0  0
   32.3265    5.2063    5.3169 C   0  0  0  0  0  0  0  0  0  0  0  0
   33.5242    5.7005    5.8464 C   0  0  0  0  0  0  0  0  0  0  0  0
   33.4716    6.6736    6.8285 C   0  0  0  0  0  0  0  0  0  0  0  0
   32.3307    7.1690    7.3012 N   0  0  0  0  0  0  0  0  0  0  0  0
   31.1878    6.7036    6.8036 C   0  0  0  0  0  0  0  0  0  0  0  0
   31.1309    5.7321    5.8202 C   0  0  0  0  0  0  0  0  0  0  0  0
   33.5591    1.9003    1.9697 C   0  0  0  0  0  0  0  0  0  0  0  0
   34.8154    2.3521    2.4787 C   0  0  0  0  0  0  0  0  0  0  0  0
   35.7750    1.6875    1.7903 C   0  0  0  0  0  0  0  0  0  0  0  0
   33.7384    0.9630    0.9851 N   0  0  0  0  0  0  0  0  0  0  0  0
   35.0980    0.8308    0.8695 C   0  0  0  0  0  0  0  0  0  0  0  0
   35.7655   -0.0155   -0.0164 C   0  0  0  0  0  0  0  0  0  0  0  0
   35.1001   -0.8724   -0.8948 C   0  0  0  0  0  0  0  0  0  0  0  0
   35.7800   -1.7645   -1.7794 C   0  0  0  0  0  0  0  0  0  0  0  0
   34.8230   -2.4582   -2.4420 C   0  0  0  0  0  0  0  0  0  0  0  0
   33.5651   -1.9797   -1.9628 C   0  0  0  0  0  0  0  0  0  0  0  0
   33.7410   -1.0044   -1.0151 N   0  0  0  0  0  0  0  0  0  0  0  0
   32.3406   -2.4605   -2.4272 C   0  0  0  0  0  0  0  0  0  0  0  0
   32.3414   -3.4871   -3.3971 C   0  0  0  0  0  0  0  0  0  0  0  0
   32.3410   -4.3727   -4.2264 C   0  0  0  0  0  0  0  0  0  0  0  0
   32.3415   -5.4049   -5.1928 C   0  0  0  0  0  0  0  0  0  0  0  0
   33.5380   -5.9549   -5.6671 C   0  0  0  0  0  0  0  0  0  0  0  0
   33.4833   -6.9642   -6.6119 C   0  0  0  0  0  0  0  0  0  0  0  0
   32.3416   -7.4440   -7.0985 N   0  0  0  0  0  0  0  0  0  0  0  0
   31.1998   -6.9260   -6.6529 C   0  0  0  0  0  0  0  0  0  0  0  0
   31.1450   -5.9152   -5.7099 C   0  0  0  0  0  0  0  0  0  0  0  0
   31.1157   -1.9612   -1.9839 C   0  0  0  0  0  0  0  0  0  0  0  0
   29.8544   -2.4196   -2.4804 C   0  0  0  0  0  0  0  0  0  0  0  0
   28.9011   -1.6942   -1.8489 C   0  0  0  0  0  0  0  0  0  0  0  0
   29.5854   -0.8018   -0.9641 C   0  0  0  0  0  0  0  0  0  0  0  0
   30.9464   -0.9733   -1.0539 N   0  0  0  0  0  0  0  0  0  0  0  0
   27.8573    0.1268   -0.1723 H   0  0  0  0  0  0  0  0  0  0  0  0
   27.8260    1.9485    1.6612 H   0  0  0  0  0  0  0  0  0  0  0  0
   29.7265    3.2192    3.1111 H   0  0  0  0  0  0  0  0  0  0  0  0
   34.4758    5.3251    5.4898 H   0  0  0  0  0  0  0  0  0  0  0  0
   34.3855    7.0758    7.2562 H   0  0  0  0  0  0  0  0  0  0  0  0
   30.2757    7.1297    7.2117 H   0  0  0  0  0  0  0  0  0  0  0  0
   30.1777    5.3818    5.4428 H   0  0  0  0  0  0  0  0  0  0  0  0
   34.9311    3.0864    3.2596 H   0  0  0  0  0  0  0  0  0  0  0  0
   36.8465    1.7578    1.8855 H   0  0  0  0  0  0  0  0  0  0  0  0
   36.8516   -1.8416   -1.8671 H   0  0  0  0  0  0  0  0  0  0  0  0
   34.9415   -3.2244   -3.1910 H   0  0  0  0  0  0  0  0  0  0  0  0
   34.4902   -5.5938   -5.2976 H   0  0  0  0  0  0  0  0  0  0  0  0
   34.3961   -7.4094   -6.9972 H   0  0  0  0  0  0  0  0  0  0  0  0
   30.2870   -7.3406   -7.0711 H   0  0  0  0  0  0  0  0  0  0  0  0
   30.1928   -5.5221   -5.3745 H   0  0  0  0  0  0  0  0  0  0  0  0
   29.7347   -3.1946   -3.2205 H   0  0  0  0  0  0  0  0  0  0  0  0
   27.8293   -1.7456   -1.9558 H   0  0  0  0  0  0  0  0  0  0  0  0
   59.1910   -0.1229   -0.0699 Ni  0  0  0  0  0  0  0  0  0  0  0  0
   62.5929   -0.1535   -0.1856 C   0  0  0  0  0  0  0  0  0  0  0  0
   61.9261   -1.3217   -0.4886 C   0  0  0  0  0  0  0  0  0  0  0  0
   62.5877   -2.5386   -0.8482 C   0  0  0  0  0  0  0  0  0  0  0  0
   61.6189   -3.4679   -1.0261 C   0  0  0  0  0  0  0  0  0  0  0  0
   60.3711   -2.8137   -0.7760 C   0  0  0  0  0  0  0  0  0  0  0  0
   60.5631   -1.4982   -0.4568 N   0  0  0  0  0  0  0  0  0  0  0  0
   59.1386   -3.4649   -0.8356 C   0  0  0  0  0  0  0  0  0  0  0  0
   59.1145   -4.8383   -1.1636 C   0  0  0  0  0  0  0  0  0  0  0  0
   59.0952   -6.0151   -1.4580 C   0  0  0  0  0  0  0  0  0  0  0  0
   59.0719   -7.3848   -1.8081 C   0  0  0  0  0  0  0  0  0  0  0  0
   57.8650   -8.0833   -1.9288 C   0  0  0  0  0  0  0  0  0  0  0  0
   57.8973   -9.4209   -2.2813 C   0  0  0  0  0  0  0  0  0  0  0  0
   59.0268  -10.0849   -2.5135 N   0  0  0  0  0  0  0  0  0  0  0  0
   60.1784   -9.4280   -2.4001 C   0  0  0  0  0  0  0  0  0  0  0  0
   60.2554   -8.0908   -2.0537 C   0  0  0  0  0  0  0  0  0  0  0  0
   57.9277   -2.8128   -0.6018 C   0  0  0  0  0  0  0  0  0  0  0  0
   56.6616   -3.4714   -0.6653 C   0  0  0  0  0  0  0  0  0  0  0  0
   55.7193   -2.5231   -0.4430 C   0  0  0  0  0  0  0  0  0  0  0  0
   57.7718   -1.4780   -0.3279 N   0  0  0  0  0  0  0  0  0  0  0  0
   56.4165   -1.2926   -0.2430 C   0  0  0  0  0  0  0  0  0  0  0  0
   55.7687   -0.0739   -0.0304 C   0  0  0  0  0  0  0  0  0  0  0  0
   56.4550    1.1213    0.1891 C   0  0  0  0  0  0  0  0  0  0  0  0
   55.7973    2.3652    0.4344 C   0  0  0  0  0  0  0  0  0  0  0  0
   56.7707    3.2787    0.6687 C   0  0  0  0  0  0  0  0  0  0  0  0
   58.0162    2.5874    0.5581 C   0  0  0  0  0  0  0  0  0  0  0  0
   57.8166    1.2654    0.2534 N   0  0  0  0  0  0  0  0  0  0  0  0
   59.2518    3.2038    0.7576 C   0  0  0  0  0  0  0  0  0  0  0  0
   59.2768    4.5702    1.1138 C   0  0  0  0  0  0  0  0  0  0  0  0
   59.3007    5.7422    1.4263 C   0  0  0  0  0  0  0  0  0  0  0  0
   59.3265    7.1082    1.7906 C   0  0  0  0  0  0  0  0  0  0  0  0
   58.1429    7.8337    1.9690 C   0  0  0  0  0  0  0  0  0  0  0  0
   58.2222    9.1676    2.3277 C   0  0  0  0  0  0  0  0  0  0  0  0
   59.3763    9.8035    2.5135 N   0  0  0  0  0  0  0  0  0  0  0  0
   60.5059    9.1208    2.3452 C   0  0  0  0  0  0  0  0  0  0  0  0
   60.5361    7.7846    1.9876 C   0  0  0  0  0  0  0  0  0  0  0  0
   60.4649    2.5302    0.6104 C   0  0  0  0  0  0  0  0  0  0  0  0
   61.7386    3.1585    0.7851 C   0  0  0  0  0  0  0  0  0  0  0  0
   62.6759    2.2204    0.5108 C   0  0  0  0  0  0  0  0  0  0  0  0
   61.9693    1.0221    0.1753 C   0  0  0  0  0  0  0  0  0  0  0  0
   60.6108    1.2201    0.2477 N   0  0  0  0  0  0  0  0  0  0  0  0
   63.6759   -0.1619   -0.2266 H   0  0  0  0  0  0  0  0  0  0  0  0
   63.6563   -2.6478   -0.9423 H   0  0  0  0  0  0  0  0  0  0  0  0
   61.7201   -4.5061   -1.2987 H   0  0  0  0  0  0  0  0  0  0  0  0
   56.9220   -7.5810   -1.7495 H   0  0  0  0  0  0  0  0  0  0  0  0
   56.9759   -9.9872   -2.3830 H   0  0  0  0  0  0  0  0  0  0  0  0
   61.0807  -10.0000   -2.5966 H   0  0  0  0  0  0  0  0  0  0  0  0
   61.2149   -7.5942   -1.9736 H   0  0  0  0  0  0  0  0  0  0  0  0
   56.5277   -4.5232   -0.8604 H   0  0  0  0  0  0  0  0  0  0  0  0
   54.6471   -2.6312   -0.4159 H   0  0  0  0  0  0  0  0  0  0  0  0
   54.7281    2.5026    0.4315 H   0  0  0  0  0  0  0  0  0  0  0  0
   56.6712    4.3277    0.8969 H   0  0  0  0  0  0  0  0  0  0  0  0
   57.1814    7.3548    1.8280 H   0  0  0  0  0  0  0  0  0  0  0  0
   57.3198    9.7544    2.4735 H   0  0  0  0  0  0  0  0  0  0  0  0
   61.4293    9.6703    2.5048 H   0  0  0  0  0  0  0  0  0  0  0  0
   61.4792    7.2667    1.8613 H   0  0  0  0  0  0  0  0  0  0  0  0
   61.8773    4.1878    1.0746 H   0  0  0  0  0  0  0  0  0  0  0  0
   63.7502    2.3112    0.5277 H   0  0  0  0  0  0  0  0  0  0  0  0
   38.3948   -0.0550   -0.0398 C   0  0  0  0  0  0  0  0  0  0  0  0
   37.1750   -0.0240   -0.0177 C   0  0  0  0  0  0  0  0  0  0  0  0
   39.7460   -0.1169   -0.0782 C   0  0  0  0  0  0  0  0  0  0  0  0
   40.9622   -0.2005   -0.1374 C   0  0  0  0  0  0  0  0  0  0  0  0
   51.7888   -0.1204   -0.1060 C   0  0  0  0  0  0  0  0  0  0  0  0
   50.5718   -0.1939   -0.1660 C   0  0  0  0  0  0  0  0  0  0  0  0
   53.1399   -0.0732   -0.0649 C   0  0  0  0  0  0  0  0  0  0  0  0
   54.3601   -0.0584   -0.0381 C   0  0  0  0  0  0  0  0  0  0  0  0
   45.7667   -0.5421   -0.4046 Ni  0  0  0  0  0  0  0  0  0  0  0  0
   42.3632   -0.3187   -0.2268 C   0  0  0  0  0  0  0  0  0  0  0  0
   43.0136    0.2583   -1.3202 C   0  0  0  0  0  0  0  0  0  0  0  0
   42.3259    0.8951   -2.3978 C   0  0  0  0  0  0  0  0  0  0  0  0
   43.2707    1.2648   -3.2974 C   0  0  0  0  0  0  0  0  0  0  0  0
   44.5318    0.8820   -2.7467 C   0  0  0  0  0  0  0  0  0  0  0  0
   44.3657    0.2520   -1.5407 N   0  0  0  0  0  0  0  0  0  0  0  0
   45.7562    1.2136   -3.3287 C   0  0  0  0  0  0  0  0  0  0  0  0
   45.7562    1.8605   -4.5836 C   0  0  0  0  0  0  0  0  0  0  0  0
   45.7570    2.3999   -5.6704 C   0  0  0  0  0  0  0  0  0  0  0  0
   45.7575    3.0293   -6.9365 C   0  0  0  0  0  0  0  0  0  0  0  0
   46.9528    3.4110   -7.5571 C   0  0  0  0  0  0  0  0  0  0  0  0
   46.8983    4.0214   -8.7976 C   0  0  0  0  0  0  0  0  0  0  0  0
   45.7579    4.2670   -9.4379 N   0  0  0  0  0  0  0  0  0  0  0  0
   44.6172    3.9073   -8.8544 C   0  0  0  0  0  0  0  0  0  0  0  0
   44.5623    3.2915   -7.6167 C   0  0  0  0  0  0  0  0  0  0  0  0
   46.9779    0.9912   -2.6910 C   0  0  0  0  0  0  0  0  0  0  0  0
   48.2228    1.4947   -3.1770 C   0  0  0  0  0  0  0  0  0  0  0  0
   49.1684    1.1272   -2.2772 C   0  0  0  0  0  0  0  0  0  0  0  0
   47.1531    0.3104   -1.5147 N   0  0  0  0  0  0  0  0  0  0  0  0
   48.4994    0.3720   -1.2662 C   0  0  0  0  0  0  0  0  0  0  0  0
   49.1709   -0.3098   -0.2488 C   0  0  0  0  0  0  0  0  0  0  0  0
   48.5206   -1.1841    0.6259 C   0  0  0  0  0  0  0  0  0  0  0  0
   49.2086   -2.0241    1.5536 C   0  0  0  0  0  0  0  0  0  0  0  0
   48.2630   -2.7663    2.1811 C   0  0  0  0  0  0  0  0  0  0  0  0
   47.0016   -2.3511    1.6552 C   0  0  0  0  0  0  0  0  0  0  0  0
   47.1681   -1.3915    0.6904 N   0  0  0  0  0  0  0  0  0  0  0  0
   45.7772   -2.8021    2.1505 C   0  0  0  0  0  0  0  0  0  0  0  0
   45.7785   -3.7929    3.1564 C   0  0  0  0  0  0  0  0  0  0  0  0
   45.7799   -4.6495    4.0156 C   0  0  0  0  0  0  0  0  0  0  0  0
   45.7839   -5.6438    5.0209 C   0  0  0  0  0  0  0  0  0  0  0  0
   44.5898   -6.1370    5.5593 C   0  0  0  0  0  0  0  0  0  0  0  0
   44.6491   -7.1083    6.5429 C   0  0  0  0  0  0  0  0  0  0  0  0
   45.7932   -7.6029    7.0086 N   0  0  0  0  0  0  0  0  0  0  0  0
   46.9328   -7.1392    6.5017 C   0  0  0  0  0  0  0  0  0  0  0  0
   46.9829   -6.1696    5.5161 C   0  0  0  0  0  0  0  0  0  0  0  0
   44.5552   -2.2642    1.7431 C   0  0  0  0  0  0  0  0  0  0  0  0
   43.3095   -2.5795    2.3666 C   0  0  0  0  0  0  0  0  0  0  0  0
   42.3636   -1.8333    1.7443 C   0  0  0  0  0  0  0  0  0  0  0  0
   43.0333   -1.0927    0.7230 C   0  0  0  0  0  0  0  0  0  0  0  0
   44.3800   -1.3470    0.7401 N   0  0  0  0  0  0  0  0  0  0  0  0
   41.2568    1.0228   -2.4516 H   0  0  0  0  0  0  0  0  0  0  0  0
   43.1424    1.7699   -4.2411 H   0  0  0  0  0  0  0  0  0  0  0  0
   47.9039    3.2296   -7.0709 H   0  0  0  0  0  0  0  0  0  0  0  0
   47.8101    4.3278   -9.3023 H   0  0  0  0  0  0  0  0  0  0  0  0
   43.7056    4.1225   -9.4046 H   0  0  0  0  0  0  0  0  0  0  0  0
   43.6112    3.0148   -7.1779 H   0  0  0  0  0  0  0  0  0  0  0  0
   48.3403    2.0663   -4.0835 H   0  0  0  0  0  0  0  0  0  0  0  0
   50.2283    1.3235   -2.2939 H   0  0  0  0  0  0  0  0  0  0  0  0
   50.2782   -2.0417    1.6871 H   0  0  0  0  0  0  0  0  0  0  0  0
   48.3914   -3.5152    2.9459 H   0  0  0  0  0  0  0  0  0  0  0  0
   43.6358   -5.7619    5.2090 H   0  0  0  0  0  0  0  0  0  0  0  0
   43.7383   -7.5095    6.9779 H   0  0  0  0  0  0  0  0  0  0  0  0
   47.8476   -7.5640    6.9049 H   0  0  0  0  0  0  0  0  0  0  0  0
   47.9334   -5.8198    5.1316 H   0  0  0  0  0  0  0  0  0  0  0  0
   43.1918   -3.2737    3.1830 H   0  0  0  0  0  0  0  0  0  0  0  0
   41.3033   -1.7928    1.9344 H   0  0  0  0  0  0  0  0  0  0  0  0
  2  3  4  0  0  0  0
  3  4  4  0  0  0  0
  4  5  2  0  0  0  0
  5  6  4  0  0  0  0
  1  7  1  0  0  0  0
  3  7  4  0  0  0  0
  6  7  4  0  0  0  0
  6  8  4  0  0  0  0
  8  9  1  0  0  0  0
  9 10  3  0  0  0  0
 10 11  1  0  0  0  0
 11 12  4  0  0  0  0
 12 13  4  0  0  0  0
 13 14  4  0  0  0  0
 14 15  4  0  0  0  0
 11 16  4  0  0  0  0
 15 16  4  0  0  0  0
  8 17  4  0  0  0  0
 17 18  4  0  0  0  0
 18 19  2  0  0  0  0
  1 20  1  0  0  0  0
 17 20  4  0  0  0  0
 19 21  4  0  0  0  0
 20 21  4  0  0  0  0
 21 22  4  0  0  0  0
 22 23  4  0  0  0  0
 23 24  4  0  0  0  0
 24 25  2  0  0  0  0
 25 26  4  0  0  0  0
  1 27  1  0  0  0  0
 23 27  4  0  0  0  0
 26 27  4  0  0  0  0
 26 28  4  0  0  0  0
 28 29  1  0  0  0  0
 29 30  3  0  0  0  0
 30 31  1  0  0  0  0
 31 32  4  0  0  0  0
 32 33  4  0  0  0  0
 33 34  4  0  0  0  0
 34 35  4  0  0  0  0
 31 36  4  0  0  0  0
 35 36  4  0  0  0  0
 28 37  4  0  0  0  0
 37 38  4  0  0  0  0
 38 39  2  0  0  0  0
  2 40  4  0  0  0  0
 39 40  4  0  0  0  0
  1 41  1  0  0  0  0
 37 41  4  0  0  0  0
 40 41  4  0  0  0  0
  2 42  1  0  0  0  0
  4 43  1  0  0  0  0
  5 44  1  0  0  0  0
 12 45  1  0  0  0  0
 13 46  1  0  0  0  0
 15 47  1  0  0  0  0
 16 48  1  0  0  0  0
 18 49  1  0  0  0  0
 19 50  1  0  0  0  0
 24 51  1  0  0  0  0
 25 52  1  0  0  0  0
 32 53  1  0  0  0  0
 33 54  1  0  0  0  0
 35 55  1  0  0  0  0
 36 56  1  0  0  0  0
 38 57  1  0  0  0  0
 39 58  1  0  0  0  0
 60 61  4  0  0  0  0
 61 62  4  0  0  0  0
 62 63  2  0  0  0  0
 63 64  4  0  0  0  0
 59 65  1  0  0  0  0
 61 65  4  0  0  0  0
 64 65  4  0  0  0  0
 64 66  4  0  0  0  0
 66 67  1  0  0  0  0
 67 68  3  0  0  0  0
 68 69  1  0  0  0  0
 69 70  4  0  0  0  0
 70 71  4  0  0  0  0
 71 72  4  0  0  0  0
 72 73  4  0  0  0  0
 69 74  4  0  0  0  0
 73 74  4  0  0  0  0
 66 75  4  0  0  0  0
 75 76  4  0  0  0  0
 76 77  2  0  0  0  0
 59 78  1  0  0  0  0
 75 78  4  0  0  0  0
 77 79  4  0  0  0  0
 78 79  4  0  0  0  0
 79 80  4  0  0  0  0
 80 81  4  0  0  0  0
 81 82  4  0  0  0  0
 82 83  2  0  0  0  0
 83 84  4  0  0  0  0
 59 85  1  0  0  0  0
 81 85  4  0  0  0  0
 84 85  4  0  0  0  0
 84 86  4  0  0  0  0
 86 87  1  0  0  0  0
 87 88  3  0  0  0  0
 88 89  1  0  0  0  0
 89 90  4  0  0  0  0
 90 91  4  0  0  0  0
 91 92  4  0  0  0  0
 92 93  4  0  0  0  0
 89 94  4  0  0  0  0
 93 94  4  0  0  0  0
 86 95  4  0  0  0  0
 95 96  4  0  0  0  0
 96 97  2  0  0  0  0
 60 98  4  0  0  0  0
 97 98  4  0  0  0  0
 59 99  1  0  0  0  0
 95 99  4  0  0  0  0
 98 99  4  0  0  0  0
 60100  1  0  0  0  0
 62101  1  0  0  0  0
 63102  1  0  0  0  0
 70103  1  0  0  0  0
 71104  1  0  0  0  0
 73105  1  0  0  0  0
 74106  1  0  0  0  0
 76107  1  0  0  0  0
 77108  1  0  0  0  0
 82109  1  0  0  0  0
 83110  1  0  0  0  0
 90111  1  0  0  0  0
 91112  1  0  0  0  0
 93113  1  0  0  0  0
 94114  1  0  0  0  0
 96115  1  0  0  0  0
 97116  1  0  0  0  0
 22118  1  0  0  0  0
117118  3  0  0  0  0
117119  4  0  0  0  0
119120  3  0  0  0  0
121122  3  0  0  0  0
121123  4  0  0  0  0
 80124  1  0  0  0  0
123124  3  0  0  0  0
120126  1  0  0  0  0
126127  4  0  0  0  0
127128  4  0  0  0  0
128129  2  0  0  0  0
129130  4  0  0  0  0
125131  1  0  0  0  0
127131  4  0  0  0  0
130131  4  0  0  0  0
130132  4  0  0  0  0
132133  1  0  0  0  0
133134  3  0  0  0  0
134135  1  0  0  0  0
135136  4  0  0  0  0
136137  4  0  0  0  0
137138  4  0  0  0  0
138139  4  0  0  0  0
135140  4  0  0  0  0
139140  4  0  0  0  0
132141  4  0  0  0  0
141142  4  0  0  0  0
142143  2  0  0  0  0
125144  1  0  0  0  0
141144  4  0  0  0  0
143145  4  0  0  0  0
144145  4  0  0  0  0
122146  1  0  0  0  0
145146  4  0  0  0  0
146147  4  0  0  0  0
147148  4  0  0  0  0
148149  2  0  0  0  0
149150  4  0  0  0  0
125151  1  0  0  0  0
147151  4  0  0  0  0
150151  4  0  0  0  0
150152  4  0  0  0  0
152153  1  0  0  0  0
153154  3  0  0  0  0
154155  1  0  0  0  0
155156  4  0  0  0  0
156157  4  0  0  0  0
157158  4  0  0  0  0
158159  4  0  0  0  0
155160  4  0  0  0  0
159160  4  0  0  0  0
152161  4  0  0  0  0
161162  4  0  0  0  0
162163  2  0  0  0  0
126164  4  0  0  0  0
163164  4  0  0  0  0
125165  1  0  0  0  0
161165  4  0  0  0  0
164165  4  0  0  0  0
128166  1  0  0  0  0
129167  1  0  0  0  0
136168  1  0  0  0  0
137169  1  0  0  0  0
139170  1  0  0  0  0
140171  1  0  0  0  0
142172  1  0  0  0  0
143173  1  0  0  0  0
148174  1  0  0  0  0
149175  1  0  0  0  0
156176  1  0  0  0  0
157177  1  0  0  0  0
159178  1  0  0  0  0
160179  1  0  0  0  0
162180  1  0  0  0  0
163181  1  0  0  0  0
M  END
