404

C 52.469329 -0.023552 -0.019526
C 53.194517 -1.402323 0.023657
C 52.576873 -2.628220 0.117285
C 53.598797 -3.611122 0.088429
C 54.807178 -2.951329 -0.022064
N 54.550133 -1.603788 -0.029788
C 56.240900 -3.621412 -0.143790
C 56.292979 -5.107295 -0.291277
C 56.222338 -5.699551 -1.573434
C 56.112169 -4.853632 -2.815223
C 56.260707 -7.098753 -1.692743
C 56.375237 -7.917796 -0.564408
C 56.379387 -9.409217 -0.706815
C 56.428780 -7.327024 0.702473
C 56.394274 -5.931018 0.854149
C 56.463916 -5.334337 2.235742
C 57.367163 -2.856829 -0.140784
C 58.680072 -3.446260 -0.301541
C 59.581551 -2.472292 -0.285788
N 57.556739 -1.504412 -0.015281
C 58.893846 -1.209212 -0.097324
C 59.565523 -0.028151 -0.030592
C 58.793517 1.339790 0.218828
C 59.363923 2.530094 0.628079
C 58.336465 3.502085 0.686396
C 57.161828 2.878387 0.324575
N 57.442770 1.554606 0.074481
C 55.734405 3.570083 0.219878
C 55.676956 5.061221 0.213964
C 55.812130 5.771081 -1.001190
C 56.008314 5.044945 -2.306445
C 55.752658 7.174714 -0.993856
C 55.571218 7.884309 0.197859
C 55.467379 9.378983 0.186335
C 55.427261 7.176257 1.395795
C 55.487844 5.773087 1.421569
C 55.321949 5.050657 2.732952
C 54.615015 2.804862 0.127861
C 53.285682 3.380689 0.023589
C 52.403878 2.388073 -0.035094
C 53.134534 1.145762 0.021489
N 54.458356 1.446474 0.110598
H 51.388271 -0.022721 -0.094314
H 51.513568 -2.796379 0.187092
H 53.468018 -4.681765 0.129282
H 55.255595 -0.870703 -0.064738
H 55.210801 -4.234132 -2.783746
H 56.043887 -5.475354 -3.714702
H 56.995423 -4.217789 -2.927887
H 56.202175 -7.549140 -2.680477
H 55.354778 -9.791847 -0.673143
H 56.838050 -9.710513 -1.654370
H 56.958329 -9.877726 0.096012
H 56.500094 -7.955951 1.586287
H 55.562706 -4.751911 2.450472
H 56.534594 -6.114206 3.001886
H 57.348780 -4.698923 2.339186
H 58.896559 -4.492717 -0.422653
H 60.640581 -2.622628 -0.387483
H 60.407168 2.692262 0.852046
H 58.441725 4.541853 0.958522
H 56.748163 0.845372 -0.147838
H 56.092157 5.747508 -3.142891
H 56.930655 4.456312 -2.287241
H 55.155462 4.392031 -2.516789
H 55.845503 7.714691 -1.932770
H 55.910603 9.806098 1.091437
H 54.417158 9.680656 0.130872
H 56.000824 9.805076 -0.669297
H 55.263375 7.718270 2.323734
H 55.304325 5.754181 3.572777
H 54.378728 4.496457 2.749925
H 56.156550 4.366011 2.910694
H 53.052124 4.430057 0.000470
H 51.336744 2.487577 -0.113759
C 134.686749 -0.032182 -0.019306
C 133.961561 1.347001 -0.046260
C 134.579205 2.576072 -0.015063
C 133.557281 3.556237 -0.093841
C 132.348900 2.891681 -0.170655
N 132.605945 1.545489 -0.109876
C 130.915178 3.554710 -0.326283
C 130.863098 5.031176 -0.549105
C 130.933740 5.557497 -1.859708
C 131.043909 4.649553 -3.056895
C 130.895371 6.948826 -2.049982
C 130.780841 7.824162 -0.964736
C 130.776690 9.306417 -1.182766
C 130.727298 7.298547 0.330535
C 130.761803 5.912055 0.552972
C 130.692161 5.386369 1.963108
C 129.788915 2.791268 -0.284419
C 128.476005 3.371766 -0.474928
C 127.574526 2.399858 -0.409690
N 129.599339 1.446980 -0.090336
C 128.262231 1.147990 -0.157269
C 127.590555 -0.028151 -0.030592
C 128.362561 -1.381647 0.288036
C 127.792154 -2.549611 0.757259
C 128.819613 -3.517381 0.864905
C 129.994250 -2.912881 0.471851
N 129.713308 -1.603522 0.154795
C 131.421673 -3.609003 0.402446
C 131.479121 -5.098515 0.472333
C 131.343948 -5.869222 -0.705170
C 131.147764 -5.210368 -2.045645
C 131.403419 -7.270667 -0.626500
C 131.584859 -7.918772 0.599741
C 131.688699 -9.412100 0.664204
C 131.728816 -7.150747 1.760140
C 131.668234 -5.748081 1.714560
C 131.834129 -4.959929 2.987527
C 132.541063 -2.849449 0.271654
C 133.870396 -3.429832 0.196785
C 134.752199 -2.441481 0.087725
C 134.021544 -1.197900 0.081090
N 132.697722 -1.493694 0.185368
H 135.767807 -0.036814 -0.093955
H 135.642510 2.747562 0.046106
H 133.688059 4.627573 -0.107460
H 131.900482 0.811576 -0.107520
H 131.945277 4.032454 -2.993971
H 131.112191 5.224753 -3.986813
H 130.160655 4.008805 -3.137094
H 130.953903 7.348426 -3.059332
H 131.801299 9.690264 -1.168585
H 130.318028 9.559161 -2.144410
H 130.197749 9.815126 -0.404790
H 130.655984 7.971584 1.181239
H 131.593372 4.815610 2.207164
H 130.621484 6.204172 2.688622
H 129.807298 4.757035 2.098715
H 128.259519 4.410715 -0.649073
H 126.515497 2.544831 -0.518895
H 126.748910 -2.700185 0.989179
H 128.714352 -4.541974 1.189530
H 130.407915 -0.906505 -0.103287
H 131.063921 -5.954539 -2.845300
H 130.225422 -4.621520 -2.056386
H 132.000616 -4.568989 -2.288905
H 131.310574 -7.857670 -1.536755
H 131.245474 -9.792658 1.589846
H 132.738919 -9.716202 0.624146
H 131.155254 -9.881133 -0.168664
H 131.892703 -7.644893 2.714429
H 131.851753 -5.619856 3.862026
H 132.777349 -4.405582 2.976310
H 130.999527 -4.267133 3.130240
H 134.103954 -4.479018 0.227034
H 135.819334 -2.544855 0.014219
C 61.893790 -0.013461 -0.020316
C 63.352017 -0.035298 -0.038189
C 64.485945 -0.056051 -0.039680
C 65.847327 -0.068641 -0.041871
C 67.121545 -0.058335 -0.046636
C 68.310008 -0.039537 -0.052792
C 69.662369 -0.014752 -0.036924
C 70.762636 -0.013461 -0.020316
C 80.018995 -0.013461 -0.020316
C 81.477222 -0.035298 -0.038189
C 82.611150 -0.056051 -0.039680
C 83.972531 -0.068641 -0.041871
C 85.246750 -0.058335 -0.046636
C 86.435213 -0.039537 -0.052792
C 87.787573 -0.014752 -0.036924
C 88.887841 -0.013461 -0.020316
C 98.144200 -0.013461 -0.020316
C 99.602426 -0.035298 -0.038189
C 100.736355 -0.056051 -0.039680
C 102.097736 -0.068641 -0.041871
C 103.371955 -0.058335 -0.046636
C 104.560418 -0.039537 -0.052792
C 105.912778 -0.014752 -0.036924
C 107.013046 -0.013461 -0.020316
C 116.269405 -0.013461 -0.020316
C 117.727631 -0.035298 -0.038189
C 118.861559 -0.056051 -0.039680
C 120.222941 -0.068641 -0.041871
C 121.497160 -0.058335 -0.046636
C 122.685622 -0.039537 -0.052792
C 124.037983 -0.014752 -0.036924
C 125.138250 -0.013461 -0.020316
C 71.864508 0.020962 0.023599
C 72.652896 -0.764036 1.153609
C 72.125388 -1.261745 2.327902
C 73.160901 -1.964763 2.993542
C 74.292431 -1.863931 2.213053
N 73.990929 -1.074516 1.130708
C 75.691497 -2.555325 2.493262
C 75.698867 -3.787366 3.336736
C 75.439080 -5.048333 2.751376
C 75.156578 -5.177150 1.277051
C 75.458639 -6.202194 3.552939
C 75.721682 -6.125828 4.924580
C 75.783089 -7.370458 5.755883
C 75.988673 -4.877450 5.496516
C 75.970208 -3.704670 4.722688
C 76.269857 -2.382673 5.380462
C 76.824081 -2.056772 1.929494
C 78.115891 -2.683632 2.121109
C 79.024696 -1.984556 1.450995
N 77.030226 -0.973527 1.119649
C 78.357945 -0.877012 0.795456
C 79.024845 0.020962 0.023599
C 78.236405 1.209526 -0.668085
C 78.760902 2.424000 -1.061457
C 77.725750 3.142161 -1.711663
C 76.596496 2.350875 -1.683357
N 76.900001 1.207034 -0.987283
C 75.197523 2.684008 -2.352219
C 75.191733 3.631435 -3.506294
C 75.461261 3.160002 -4.811981
C 75.743405 1.702468 -5.070900
C 75.464466 4.063245 -5.887948
C 75.194407 5.422080 -5.692388
C 75.234440 6.376831 -6.846719
C 74.941949 5.885734 -4.396985
C 74.933251 5.007275 -3.300431
C 74.646822 5.547287 -1.923464
C 74.065481 2.079601 -1.902517
C 72.773765 2.322373 -2.510375
C 71.865452 1.598319 -1.866537
C 72.532137 0.857088 -0.814438
N 73.860434 1.183757 -0.889257
H 71.104095 -1.155097 2.659839
H 73.085275 -2.502945 3.926460
H 74.660727 -0.749289 0.439135
H 74.265757 -4.605628 1.002051
H 76.012742 -4.833791 0.689881
H 74.967973 -6.218776 0.998954
H 75.269806 -7.169776 3.094797
H 75.454886 -7.171730 6.781216
H 75.125237 -8.145252 5.349472
H 76.807473 -7.753203 5.780760
H 76.217377 -4.810068 6.557173
H 75.471356 -1.659726 5.186938
H 76.345301 -2.490354 6.468565
H 77.224087 -1.983237 5.023494
H 78.312432 -3.566856 2.702919
H 80.073116 -2.218276 1.413830
H 79.780911 2.750353 -0.922382
H 77.801279 4.117609 -2.168516
H 76.232194 0.488084 -0.723154
H 75.915315 1.515334 -6.135563
H 74.891843 1.085417 -4.769432
H 76.642709 1.381818 -4.537283
H 75.677794 3.695679 -6.888797
H 74.905859 5.887547 -7.769774
H 76.252714 6.751401 -6.986171
H 74.565964 7.227134 -6.675526
H 74.747656 6.942771 -4.232736
H 75.484912 5.351521 -1.246440
H 74.499800 6.633780 -1.946594
H 73.731050 5.106605 -1.518349
H 72.577583 2.974981 -3.342434
H 70.817293 1.581151 -2.102177
C 89.989713 0.020962 0.023599
C 90.778101 -0.764036 1.153609
C 90.250593 -1.261745 2.327902
C 91.286106 -1.964763 2.993542
C 92.417636 -1.863931 2.213053
N 92.116134 -1.074516 1.130708
C 93.816702 -2.555325 2.493262
C 93.824072 -3.787366 3.336736
C 93.564285 -5.048333 2.751376
C 93.281783 -5.177150 1.277051
C 93.583844 -6.202194 3.552939
C 93.846887 -6.125828 4.924580
C 93.908293 -7.370458 5.755883
C 94.113877 -4.877450 5.496516
C 94.095413 -3.704670 4.722688
C 94.395061 -2.382673 5.380462
C 94.949286 -2.056772 1.929494
C 96.241096 -2.683632 2.121109
C 97.149901 -1.984556 1.450995
N 95.155431 -0.973527 1.119649
C 96.483150 -0.877012 0.795456
C 97.150050 0.020962 0.023599
C 96.361610 1.209526 -0.668085
C 96.886107 2.424000 -1.061457
C 95.850955 3.142161 -1.711663
C 94.721701 2.350875 -1.683357
N 95.025206 1.207034 -0.987283
C 93.322728 2.684008 -2.352219
C 93.316938 3.631435 -3.506294
C 93.586466 3.160002 -4.811981
C 93.868610 1.702468 -5.070900
C 93.589671 4.063245 -5.887948
C 93.319612 5.422080 -5.692388
C 93.359645 6.376831 -6.846719
C 93.067154 5.885734 -4.396985
C 93.058456 5.007275 -3.300431
C 92.772027 5.547287 -1.923464
C 92.190686 2.079601 -1.902517
C 90.898970 2.322373 -2.510375
C 89.990657 1.598319 -1.866537
C 90.657342 0.857088 -0.814438
N 91.985638 1.183757 -0.889257
H 89.229300 -1.155097 2.659839
H 91.210480 -2.502945 3.926460
H 92.785932 -0.749289 0.439135
H 92.390962 -4.605628 1.002051
H 94.137947 -4.833791 0.689881
H 93.093178 -6.218776 0.998954
H 93.395011 -7.169776 3.094797
H 93.580091 -7.171730 6.781216
H 93.250442 -8.145252 5.349472
H 94.932678 -7.753203 5.780760
H 94.342582 -4.810068 6.557173
H 93.596561 -1.659726 5.186938
H 94.470506 -2.490354 6.468565
H 95.349292 -1.983237 5.023494
H 96.437637 -3.566856 2.702919
H 98.198320 -2.218276 1.413830
H 97.906115 2.750353 -0.922382
H 95.926484 4.117609 -2.168516
H 94.357399 0.488084 -0.723154
H 94.040520 1.515334 -6.135563
H 93.017048 1.085417 -4.769432
H 94.767914 1.381818 -4.537283
H 93.802998 3.695679 -6.888797
H 93.031064 5.887547 -7.769774
H 94.377918 6.751401 -6.986171
H 92.691169 7.227134 -6.675526
H 92.872860 6.942771 -4.232736
H 93.610117 5.351521 -1.246440
H 92.625005 6.633780 -1.946594
H 91.856255 5.106605 -1.518349
H 90.702788 2.974981 -3.342434
H 88.942497 1.581151 -2.102177
C 108.114917 0.020962 0.023599
C 108.903306 -0.764036 1.153609
C 108.375798 -1.261745 2.327902
C 109.411311 -1.964763 2.993542
C 110.542840 -1.863931 2.213053
N 110.241339 -1.074516 1.130708
C 111.941906 -2.555325 2.493262
C 111.949276 -3.787366 3.336736
C 111.689490 -5.048333 2.751376
C 111.406988 -5.177150 1.277051
C 111.709049 -6.202194 3.552939
C 111.972092 -6.125828 4.924580
C 112.033498 -7.370458 5.755883
C 112.239082 -4.877450 5.496516
C 112.220618 -3.704670 4.722688
C 112.520266 -2.382673 5.380462
C 113.074491 -2.056772 1.929494
C 114.366301 -2.683632 2.121109
C 115.275106 -1.984556 1.450995
N 113.280635 -0.973527 1.119649
C 114.608355 -0.877012 0.795456
C 115.275254 0.020962 0.023599
C 114.486815 1.209526 -0.668085
C 115.011312 2.424000 -1.061457
C 113.976160 3.142161 -1.711663
C 112.846906 2.350875 -1.683357
N 113.150411 1.207034 -0.987283
C 111.447932 2.684008 -2.352219
C 111.442143 3.631435 -3.506294
C 111.711671 3.160002 -4.811981
C 111.993815 1.702468 -5.070900
C 111.714876 4.063245 -5.887948
C 111.444817 5.422080 -5.692388
C 111.484850 6.376831 -6.846719
C 111.192359 5.885734 -4.396985
C 111.183661 5.007275 -3.300431
C 110.897232 5.547287 -1.923464
C 110.315891 2.079601 -1.902517
C 109.024175 2.322373 -2.510375
C 108.115862 1.598319 -1.866537
C 108.782547 0.857088 -0.814438
N 110.110843 1.183757 -0.889257
H 107.354505 -1.155097 2.659839
H 109.335684 -2.502945 3.926460
H 110.911136 -0.749289 0.439135
H 110.516167 -4.605628 1.002051
H 112.263152 -4.833791 0.689881
H 111.218382 -6.218776 0.998954
H 111.520216 -7.169776 3.094797
H 111.705296 -7.171730 6.781216
H 111.375647 -8.145252 5.349472
H 113.057882 -7.753203 5.780760
H 112.467787 -4.810068 6.557173
H 111.721766 -1.659726 5.186938
H 112.595711 -2.490354 6.468565
H 113.474497 -1.983237 5.023494
H 114.562842 -3.566856 2.702919
H 116.323525 -2.218276 1.413830
H 116.031320 2.750353 -0.922382
H 114.051689 4.117609 -2.168516
H 112.482604 0.488084 -0.723154
H 112.165725 1.515334 -6.135563
H 111.142252 1.085417 -4.769432
H 112.893119 1.381818 -4.537283
H 111.928203 3.695679 -6.888797
H 111.156268 5.887547 -7.769774
H 112.503123 6.751401 -6.986171
H 110.816374 7.227134 -6.675526
H 110.998065 6.942771 -4.232736
H 111.735322 5.351521 -1.246440
H 110.750210 6.633780 -1.946594
H 109.981459 5.106605 -1.518349
H 108.827993 2.974981 -3.342434
H 107.067702 1.581151 -2.102177
