 xtb: 6.5.1 (b24c23e)
          07302211263D

278317  0     0  0            999 V2000
   43.3645    0.0794    0.0193 Ni  0  0  0  0  0  0  0  0  0  0  0  0
   39.9759    0.2079    0.0764 C   0  0  0  0  0  0  0  0  0  0  0  0
   40.6261   -0.2525    1.2025 C   0  0  0  0  0  0  0  0  0  0  0  0
   39.9502   -0.7145    2.3764 C   0  0  0  0  0  0  0  0  0  0  0  0
   40.9075   -0.9912    3.2921 C   0  0  0  0  0  0  0  0  0  0  0  0
   42.1675   -0.6803    2.6817 C   0  0  0  0  0  0  0  0  0  0  0  0
   41.9863   -0.2693    1.3853 N   0  0  0  0  0  0  0  0  0  0  0  0
   43.3866   -0.7281    3.3456 C   0  0  0  0  0  0  0  0  0  0  0  0
   43.3995   -1.0883    4.7831 C   0  0  0  0  0  0  0  0  0  0  0  0
   42.7349   -0.2889    5.7164 C   0  0  0  0  0  0  0  0  0  0  0  0
   42.7444   -0.6225    7.0607 C   0  0  0  0  0  0  0  0  0  0  0  0
   43.4199   -1.7651    7.4576 C   0  0  0  0  0  0  0  0  0  0  0  0
   43.4386   -2.1912    9.1581 S   0  0  0  0  0  0  0  0  0  0  0  0
   43.1994   -1.0394    9.9771 O   0  0  0  0  0  0  0  0  0  0  0  0
   42.1018   -3.1129    9.1826 O   0  0  0  0  0  0  0  0  0  0  0  0
   44.5657   -3.0230    9.4607 O   0  0  0  0  0  0  0  0  0  0  0  0
   44.0909   -2.5756    6.5563 C   0  0  0  0  0  0  0  0  0  0  0  0
   44.0793   -2.2298    5.2151 C   0  0  0  0  0  0  0  0  0  0  0  0
   44.5943   -0.4431    2.7216 C   0  0  0  0  0  0  0  0  0  0  0  0
   45.8540   -0.4045    3.4009 C   0  0  0  0  0  0  0  0  0  0  0  0
   46.8000   -0.1820    2.4571 C   0  0  0  0  0  0  0  0  0  0  0  0
   44.7642   -0.2030    1.3776 N   0  0  0  0  0  0  0  0  0  0  0  0
   46.1163   -0.0814    1.2071 C   0  0  0  0  0  0  0  0  0  0  0  0
   46.7758    0.0247   -0.0205 C   0  0  0  0  0  0  0  0  0  0  0  0
   46.0920    0.1331   -1.2347 C   0  0  0  0  0  0  0  0  0  0  0  0
   46.7486    0.1821   -2.5020 C   0  0  0  0  0  0  0  0  0  0  0  0
   45.7860    0.3970   -3.4307 C   0  0  0  0  0  0  0  0  0  0  0  0
   44.5445    0.4925   -2.7239 C   0  0  0  0  0  0  0  0  0  0  0  0
   44.7400    0.2855   -1.3775 N   0  0  0  0  0  0  0  0  0  0  0  0
   43.3336    0.8127   -3.3240 C   0  0  0  0  0  0  0  0  0  0  0  0
   43.3202    1.1267   -4.7722 C   0  0  0  0  0  0  0  0  0  0  0  0
   42.5780    0.3407   -5.6569 C   0  0  0  0  0  0  0  0  0  0  0  0
   42.5619    0.6309   -7.0113 C   0  0  0  0  0  0  0  0  0  0  0  0
   43.2921    1.7162   -7.4674 C   0  0  0  0  0  0  0  0  0  0  0  0
   43.2646    2.0984   -9.1784 S   0  0  0  0  0  0  0  0  0  0  0  0
   43.5576    3.4842   -9.4006 O   0  0  0  0  0  0  0  0  0  0  0  0
   44.5641    1.2377   -9.6350 O   0  0  0  0  0  0  0  0  0  0  0  0
   42.1034    1.5357   -9.8010 O   0  0  0  0  0  0  0  0  0  0  0  0
   44.0326    2.5179   -6.6138 C   0  0  0  0  0  0  0  0  0  0  0  0
   44.0454    2.2157   -5.2622 C   0  0  0  0  0  0  0  0  0  0  0  0
   42.1358    0.8603   -2.6221 C   0  0  0  0  0  0  0  0  0  0  0  0
   40.8823    1.2515   -3.1987 C   0  0  0  0  0  0  0  0  0  0  0  0
   39.9416    1.0861   -2.2400 C   0  0  0  0  0  0  0  0  0  0  0  0
   40.6213    0.6016   -1.0772 C   0  0  0  0  0  0  0  0  0  0  0  0
   41.9709    0.5020   -1.3082 N   0  0  0  0  0  0  0  0  0  0  0  0
   38.8934    0.2543    0.0960 H   0  0  0  0  0  0  0  0  0  0  0  0
   38.8801   -0.8101    2.4675 H   0  0  0  0  0  0  0  0  0  0  0  0
   40.7850   -1.3727    4.2927 H   0  0  0  0  0  0  0  0  0  0  0  0
   42.2223    0.6069    5.3860 H   0  0  0  0  0  0  0  0  0  0  0  0
   42.2416   -0.0048    7.7943 H   0  0  0  0  0  0  0  0  0  0  0  0
   41.9124   -3.4037   10.0829 H   0  0  0  0  0  0  0  0  0  0  0  0
   44.6142   -3.4580    6.9025 H   0  0  0  0  0  0  0  0  0  0  0  0
   44.5896   -2.8549    4.4917 H   0  0  0  0  0  0  0  0  0  0  0  0
   45.9864   -0.5257    4.4635 H   0  0  0  0  0  0  0  0  0  0  0  0
   47.8675   -0.0957    2.5799 H   0  0  0  0  0  0  0  0  0  0  0  0
   47.8104    0.0649   -2.6464 H   0  0  0  0  0  0  0  0  0  0  0  0
   45.8966    0.4812   -4.4994 H   0  0  0  0  0  0  0  0  0  0  0  0
   42.0216   -0.5097   -5.2804 H   0  0  0  0  0  0  0  0  0  0  0  0
   41.9898    0.0290   -7.7061 H   0  0  0  0  0  0  0  0  0  0  0  0
   44.8035    1.4529  -10.5447 H   0  0  0  0  0  0  0  0  0  0  0  0
   44.5816    3.3662   -7.0030 H   0  0  0  0  0  0  0  0  0  0  0  0
   44.6082    2.8371   -4.5754 H   0  0  0  0  0  0  0  0  0  0  0  0
   40.7531    1.6098   -4.2070 H   0  0  0  0  0  0  0  0  0  0  0  0
   38.8801    1.2669   -2.2962 H   0  0  0  0  0  0  0  0  0  0  0  0
   99.0660    0.0659   -0.0066 Ni  0  0  0  0  0  0  0  0  0  0  0  0
  102.4555    0.2002   -0.0191 C   0  0  0  0  0  0  0  0  0  0  0  0
  101.8025    0.1964   -1.2341 C   0  0  0  0  0  0  0  0  0  0  0  0
  102.4763    0.2093   -2.4966 C   0  0  0  0  0  0  0  0  0  0  0  0
  101.5174    0.2971   -3.4476 C   0  0  0  0  0  0  0  0  0  0  0  0
  100.2585    0.3544   -2.7630 C   0  0  0  0  0  0  0  0  0  0  0  0
  100.4419    0.2497   -1.4074 N   0  0  0  0  0  0  0  0  0  0  0  0
   99.0377    0.5504   -3.3958 C   0  0  0  0  0  0  0  0  0  0  0  0
   99.0239    0.7532   -4.8638 C   0  0  0  0  0  0  0  0  0  0  0  0
   99.6815    1.8482   -5.4297 C   0  0  0  0  0  0  0  0  0  0  0  0
   99.6738    2.0406   -6.8014 C   0  0  0  0  0  0  0  0  0  0  0  0
   99.0068    1.1238   -7.5976 C   0  0  0  0  0  0  0  0  0  0  0  0
   98.9926    1.3619   -9.3345 S   0  0  0  0  0  0  0  0  0  0  0  0
   99.2255    2.7374   -9.6635 O   0  0  0  0  0  0  0  0  0  0  0  0
  100.3344    0.5212   -9.6955 O   0  0  0  0  0  0  0  0  0  0  0  0
   97.8719    0.6967   -9.9307 O   0  0  0  0  0  0  0  0  0  0  0  0
   98.3422    0.0309   -7.0655 C   0  0  0  0  0  0  0  0  0  0  0  0
   98.3521   -0.1491   -5.6921 C   0  0  0  0  0  0  0  0  0  0  0  0
   97.8301    0.5725   -2.7101 C   0  0  0  0  0  0  0  0  0  0  0  0
   96.5676    0.8472   -3.3270 C   0  0  0  0  0  0  0  0  0  0  0  0
   95.6233    0.6985   -2.3673 C   0  0  0  0  0  0  0  0  0  0  0  0
   97.6632    0.2989   -1.3720 N   0  0  0  0  0  0  0  0  0  0  0  0
   96.3109    0.3394   -1.1679 C   0  0  0  0  0  0  0  0  0  0  0  0
   95.6544   -0.0091    0.0155 C   0  0  0  0  0  0  0  0  0  0  0  0
   96.3401   -0.3439    1.1862 C   0  0  0  0  0  0  0  0  0  0  0  0
   95.6853   -0.7569    2.3864 C   0  0  0  0  0  0  0  0  0  0  0  0
   96.6496   -0.8942    3.3279 C   0  0  0  0  0  0  0  0  0  0  0  0
   97.8902   -0.5509    2.7012 C   0  0  0  0  0  0  0  0  0  0  0  0
   97.6925   -0.2543    1.3721 N   0  0  0  0  0  0  0  0  0  0  0  0
   99.1031   -0.4769    3.3736 C   0  0  0  0  0  0  0  0  0  0  0  0
   99.1202   -0.7161    4.8361 C   0  0  0  0  0  0  0  0  0  0  0  0
   99.8549   -1.7792    5.3668 C   0  0  0  0  0  0  0  0  0  0  0  0
   99.8763   -2.0061    6.7332 C   0  0  0  0  0  0  0  0  0  0  0  0
   99.1590   -1.1564    7.5594 C   0  0  0  0  0  0  0  0  0  0  0  0
   99.1948   -1.4280    9.2913 S   0  0  0  0  0  0  0  0  0  0  0  0
   98.9161   -0.2178   10.0080 O   0  0  0  0  0  0  0  0  0  0  0  0
   97.8877   -2.3848    9.4097 O   0  0  0  0  0  0  0  0  0  0  0  0
  100.3522   -2.1891    9.6565 O   0  0  0  0  0  0  0  0  0  0  0  0
   98.4258   -0.0906    7.0633 C   0  0  0  0  0  0  0  0  0  0  0  0
   98.4074    0.1240    5.6950 C   0  0  0  0  0  0  0  0  0  0  0  0
  100.3006   -0.1813    2.7348 C   0  0  0  0  0  0  0  0  0  0  0  0
  101.5566   -0.0369    3.4119 C   0  0  0  0  0  0  0  0  0  0  0  0
  102.4960    0.1568    2.4573 C   0  0  0  0  0  0  0  0  0  0  0  0
  101.8129    0.1390    1.1996 C   0  0  0  0  0  0  0  0  0  0  0  0
  100.4629   -0.0320    1.3808 N   0  0  0  0  0  0  0  0  0  0  0  0
  103.5381    0.2470   -0.0226 H   0  0  0  0  0  0  0  0  0  0  0  0
  103.5463    0.1553   -2.6188 H   0  0  0  0  0  0  0  0  0  0  0  0
  101.6383    0.3199   -4.5184 H   0  0  0  0  0  0  0  0  0  0  0  0
  100.1877    2.5595   -4.7876 H   0  0  0  0  0  0  0  0  0  0  0  0
  100.1716    2.8910   -7.2502 H   0  0  0  0  0  0  0  0  0  0  0  0
  100.5062    0.5568  -10.6444 H   0  0  0  0  0  0  0  0  0  0  0  0
   97.8254   -0.6623   -7.7173 H   0  0  0  0  0  0  0  0  0  0  0  0
   97.8472   -1.0030   -5.2557 H   0  0  0  0  0  0  0  0  0  0  0  0
   96.4322    1.1241   -4.3597 H   0  0  0  0  0  0  0  0  0  0  0  0
   94.5548    0.8146   -2.4492 H   0  0  0  0  0  0  0  0  0  0  0  0
   94.6235   -0.9176    2.4804 H   0  0  0  0  0  0  0  0  0  0  0  0
   96.5409   -1.2029    4.3548 H   0  0  0  0  0  0  0  0  0  0  0  0
  100.4016   -2.4374    4.7016 H   0  0  0  0  0  0  0  0  0  0  0  0
  100.4428   -2.8264    7.1557 H   0  0  0  0  0  0  0  0  0  0  0  0
   97.6424   -2.5010   10.3357 H   0  0  0  0  0  0  0  0  0  0  0  0
   97.8868    0.5612    7.7394 H   0  0  0  0  0  0  0  0  0  0  0  0
   97.8501    0.9590    5.2869 H   0  0  0  0  0  0  0  0  0  0  0  0
  101.6882   -0.0756    4.4810 H   0  0  0  0  0  0  0  0  0  0  0  0
  103.5586    0.2983    2.5734 H   0  0  0  0  0  0  0  0  0  0  0  0
   48.1807    0.0118   -0.0356 C   0  0  0  0  0  0  0  0  0  0  0  0
   49.4046    0.0050   -0.0479 C   0  0  0  0  0  0  0  0  0  0  0  0
   50.7479   -0.0065   -0.0574 C   0  0  0  0  0  0  0  0  0  0  0  0
   51.9781   -0.0118   -0.0634 C   0  0  0  0  0  0  0  0  0  0  0  0
   53.3166   -0.0188   -0.0667 C   0  0  0  0  0  0  0  0  0  0  0  0
   54.5469   -0.0192   -0.0661 C   0  0  0  0  0  0  0  0  0  0  0  0
   55.8900   -0.0207   -0.0630 C   0  0  0  0  0  0  0  0  0  0  0  0
   57.1142   -0.0207   -0.0590 C   0  0  0  0  0  0  0  0  0  0  0  0
   66.7479   -0.0402   -0.0083 C   0  0  0  0  0  0  0  0  0  0  0  0
   67.9723   -0.0427   -0.0026 C   0  0  0  0  0  0  0  0  0  0  0  0
   69.3149   -0.0449    0.0020 C   0  0  0  0  0  0  0  0  0  0  0  0
   70.5454   -0.0463    0.0045 C   0  0  0  0  0  0  0  0  0  0  0  0
   71.8833   -0.0467    0.0055 C   0  0  0  0  0  0  0  0  0  0  0  0
   73.1138   -0.0464    0.0044 C   0  0  0  0  0  0  0  0  0  0  0  0
   74.4564   -0.0453    0.0015 C   0  0  0  0  0  0  0  0  0  0  0  0
   75.6808   -0.0433   -0.0015 C   0  0  0  0  0  0  0  0  0  0  0  0
   85.3157   -0.0709    0.0251 C   0  0  0  0  0  0  0  0  0  0  0  0
   86.5397   -0.0749    0.0321 C   0  0  0  0  0  0  0  0  0  0  0  0
   87.8831   -0.0767    0.0387 C   0  0  0  0  0  0  0  0  0  0  0  0
   89.1133   -0.0748    0.0386 C   0  0  0  0  0  0  0  0  0  0  0  0
   90.4519   -0.0675    0.0402 C   0  0  0  0  0  0  0  0  0  0  0  0
   91.6820   -0.0574    0.0371 C   0  0  0  0  0  0  0  0  0  0  0  0
   93.0255   -0.0447    0.0324 C   0  0  0  0  0  0  0  0  0  0  0  0
   94.2492   -0.0300    0.0259 C   0  0  0  0  0  0  0  0  0  0  0  0
   61.9313   -0.0262   -0.0396 Ni  0  0  0  0  0  0  0  0  0  0  0  0
   58.5184   -0.0210   -0.0545 C   0  0  0  0  0  0  0  0  0  0  0  0
   59.1903    0.9333    0.7156 C   0  0  0  0  0  0  0  0  0  0  0  0
   58.5234    1.8939    1.5351 C   0  0  0  0  0  0  0  0  0  0  0  0
   59.4778    2.7331    2.0059 C   0  0  0  0  0  0  0  0  0  0  0  0
   60.7242    2.2862    1.4628 C   0  0  0  0  0  0  0  0  0  0  0  0
   60.5408    1.1498    0.7089 N   0  0  0  0  0  0  0  0  0  0  0  0
   61.9289    2.9595    1.6202 C   0  0  0  0  0  0  0  0  0  0  0  0
   61.9299    4.2538    2.3414 C   0  0  0  0  0  0  0  0  0  0  0  0
   62.6769    4.4052    3.5123 C   0  0  0  0  0  0  0  0  0  0  0  0
   62.6841    5.6131    4.1902 C   0  0  0  0  0  0  0  0  0  0  0  0
   61.9404    6.6654    3.6816 C   0  0  0  0  0  0  0  0  0  0  0  0
   61.9592    8.2024    4.5256 S   0  0  0  0  0  0  0  0  0  0  0  0
   61.6509    9.2826    3.6347 O   0  0  0  0  0  0  0  0  0  0  0  0
   60.6673    7.9663    5.4806 O   0  0  0  0  0  0  0  0  0  0  0  0
   63.1254    8.3063    5.3509 O   0  0  0  0  0  0  0  0  0  0  0  0
   61.1940    6.5472    2.5204 C   0  0  0  0  0  0  0  0  0  0  0  0
   61.1896    5.3333    1.8533 C   0  0  0  0  0  0  0  0  0  0  0  0
   63.1342    2.4711    1.1327 C   0  0  0  0  0  0  0  0  0  0  0  0
   64.3802    3.1691    1.2268 C   0  0  0  0  0  0  0  0  0  0  0  0
   65.3361    2.3251    0.7682 C   0  0  0  0  0  0  0  0  0  0  0  0
   63.3195    1.2298    0.5683 N   0  0  0  0  0  0  0  0  0  0  0  0
   64.6706    1.1209    0.3862 C   0  0  0  0  0  0  0  0  0  0  0  0
   65.3443   -0.0365   -0.0161 C   0  0  0  0  0  0  0  0  0  0  0  0
   64.6694   -1.1897   -0.4287 C   0  0  0  0  0  0  0  0  0  0  0  0
   65.3329   -2.3970   -0.8044 C   0  0  0  0  0  0  0  0  0  0  0  0
   64.3786   -3.2333   -1.2802 C   0  0  0  0  0  0  0  0  0  0  0  0
   63.1358   -2.5278   -1.2019 C   0  0  0  0  0  0  0  0  0  0  0  0
   63.3205   -1.2897   -0.6307 N   0  0  0  0  0  0  0  0  0  0  0  0
   61.9343   -3.0072   -1.7079 C   0  0  0  0  0  0  0  0  0  0  0  0
   61.9386   -4.2974   -2.4362 C   0  0  0  0  0  0  0  0  0  0  0  0
   62.7021   -4.4462   -3.5967 C   0  0  0  0  0  0  0  0  0  0  0  0
   62.7125   -5.6499   -4.2820 C   0  0  0  0  0  0  0  0  0  0  0  0
   61.9552   -6.7008   -3.7909 C   0  0  0  0  0  0  0  0  0  0  0  0
   61.9767   -8.2326   -4.6441 S   0  0  0  0  0  0  0  0  0  0  0  0
   61.6650   -9.3181   -3.7608 O   0  0  0  0  0  0  0  0  0  0  0  0
   60.6877   -7.9903   -5.6020 O   0  0  0  0  0  0  0  0  0  0  0  0
   63.1453   -8.3324   -5.4665 O   0  0  0  0  0  0  0  0  0  0  0  0
   61.1926   -6.5855   -2.6400 C   0  0  0  0  0  0  0  0  0  0  0  0
   61.1852   -5.3757   -1.9655 C   0  0  0  0  0  0  0  0  0  0  0  0
   60.7310   -2.3291   -1.5612 C   0  0  0  0  0  0  0  0  0  0  0  0
   59.4883   -2.7693   -2.1179 C   0  0  0  0  0  0  0  0  0  0  0  0
   58.5321   -1.9303   -1.6506 C   0  0  0  0  0  0  0  0  0  0  0  0
   59.1945   -0.9753   -0.8209 C   0  0  0  0  0  0  0  0  0  0  0  0
   60.5443   -1.1955   -0.8037 N   0  0  0  0  0  0  0  0  0  0  0  0
   57.4607    1.9133    1.7146 H   0  0  0  0  0  0  0  0  0  0  0  0
   59.3582    3.5785    2.6636 H   0  0  0  0  0  0  0  0  0  0  0  0
   63.2442    3.5662    3.8979 H   0  0  0  0  0  0  0  0  0  0  0  0
   63.2601    5.7420    5.0979 H   0  0  0  0  0  0  0  0  0  0  0  0
   60.4032    8.7970    5.8947 H   0  0  0  0  0  0  0  0  0  0  0  0
   60.6342    7.3944    2.1445 H   0  0  0  0  0  0  0  0  0  0  0  0
   60.6224    5.2231    0.9364 H   0  0  0  0  0  0  0  0  0  0  0  0
   64.4986    4.1753    1.5940 H   0  0  0  0  0  0  0  0  0  0  0  0
   66.3990    2.4879    0.6922 H   0  0  0  0  0  0  0  0  0  0  0  0
   66.3935   -2.5669   -0.7132 H   0  0  0  0  0  0  0  0  0  0  0  0
   64.4960   -4.2392   -1.6488 H   0  0  0  0  0  0  0  0  0  0  0  0
   63.2799   -3.6082   -3.9686 H   0  0  0  0  0  0  0  0  0  0  0  0
   63.3010   -5.7766   -5.1819 H   0  0  0  0  0  0  0  0  0  0  0  0
   60.4275   -8.8178   -6.0248 H   0  0  0  0  0  0  0  0  0  0  0  0
   60.6225   -7.4317   -2.2776 H   0  0  0  0  0  0  0  0  0  0  0  0
   60.6053   -5.2679   -1.0564 H   0  0  0  0  0  0  0  0  0  0  0  0
   59.3721   -3.6105   -2.7815 H   0  0  0  0  0  0  0  0  0  0  0  0
   57.4709   -1.9457   -1.8394 H   0  0  0  0  0  0  0  0  0  0  0  0
   80.4980   -0.0454   -0.0088 Ni  0  0  0  0  0  0  0  0  0  0  0  0
   77.0845   -0.0421   -0.0057 C   0  0  0  0  0  0  0  0  0  0  0  0
   77.7601    0.9238    0.7467 C   0  0  0  0  0  0  0  0  0  0  0  0
   77.0962    1.8952    1.5559 C   0  0  0  0  0  0  0  0  0  0  0  0
   78.0523    2.7405    2.0117 C   0  0  0  0  0  0  0  0  0  0  0  0
   79.2969    2.2856    1.4706 C   0  0  0  0  0  0  0  0  0  0  0  0
   79.1104    1.1397    0.7319 N   0  0  0  0  0  0  0  0  0  0  0  0
   80.5029    2.9580    1.6195 C   0  0  0  0  0  0  0  0  0  0  0  0
   80.5048    4.2594    2.3278 C   0  0  0  0  0  0  0  0  0  0  0  0
   81.2462    4.4203    3.5009 C   0  0  0  0  0  0  0  0  0  0  0  0
   81.2473    5.6327    4.1709 C   0  0  0  0  0  0  0  0  0  0  0  0
   80.5034    6.6797    3.6519 C   0  0  0  0  0  0  0  0  0  0  0  0
   80.5079    8.2202    4.4898 S   0  0  0  0  0  0  0  0  0  0  0  0
   80.2024    9.2954    3.5919 O   0  0  0  0  0  0  0  0  0  0  0  0
   79.2080    7.9813    5.4332 O   0  0  0  0  0  0  0  0  0  0  0  0
   81.6656    8.3330    5.3257 O   0  0  0  0  0  0  0  0  0  0  0  0
   79.7644    6.5528    2.4868 C   0  0  0  0  0  0  0  0  0  0  0  0
   79.7660    5.3346    1.8278 C   0  0  0  0  0  0  0  0  0  0  0  0
   81.7074    2.4605    1.1390 C   0  0  0  0  0  0  0  0  0  0  0  0
   82.9557    3.1548    1.2306 C   0  0  0  0  0  0  0  0  0  0  0  0
   83.9098    2.3030    0.7828 C   0  0  0  0  0  0  0  0  0  0  0  0
   81.8895    1.2135    0.5867 N   0  0  0  0  0  0  0  0  0  0  0  0
   83.2409    1.0982    0.4088 C   0  0  0  0  0  0  0  0  0  0  0  0
   83.9113   -0.0637    0.0147 C   0  0  0  0  0  0  0  0  0  0  0  0
   83.2340   -1.2159   -0.3956 C   0  0  0  0  0  0  0  0  0  0  0  0
   83.8952   -2.4241   -0.7727 C   0  0  0  0  0  0  0  0  0  0  0  0
   82.9393   -3.2580   -1.2492 C   0  0  0  0  0  0  0  0  0  0  0  0
   81.6976   -2.5509   -1.1686 C   0  0  0  0  0  0  0  0  0  0  0  0
   81.8845   -1.3134   -0.5973 N   0  0  0  0  0  0  0  0  0  0  0  0
   80.4941   -3.0313   -1.6689 C   0  0  0  0  0  0  0  0  0  0  0  0
   80.4947   -4.3211   -2.3981 C   0  0  0  0  0  0  0  0  0  0  0  0
   81.2473   -4.4668   -3.5660 C   0  0  0  0  0  0  0  0  0  0  0  0
   81.2480   -5.6676   -4.2566 C   0  0  0  0  0  0  0  0  0  0  0  0
   80.4926   -6.7186   -3.7630 C   0  0  0  0  0  0  0  0  0  0  0  0
   80.4961   -8.2446   -4.6269 S   0  0  0  0  0  0  0  0  0  0  0  0
   80.1793   -9.3333   -3.7495 O   0  0  0  0  0  0  0  0  0  0  0  0
   79.2048   -7.9821   -5.5757 O   0  0  0  0  0  0  0  0  0  0  0  0
   81.6592   -8.3495   -5.4566 O   0  0  0  0  0  0  0  0  0  0  0  0
   79.7430   -6.6072   -2.6032 C   0  0  0  0  0  0  0  0  0  0  0  0
   79.7451   -5.4003   -1.9235 C   0  0  0  0  0  0  0  0  0  0  0  0
   79.2908   -2.3554   -1.5152 C   0  0  0  0  0  0  0  0  0  0  0  0
   78.0445   -2.8010   -2.0600 C   0  0  0  0  0  0  0  0  0  0  0  0
   77.0899   -1.9637   -1.5866 C   0  0  0  0  0  0  0  0  0  0  0  0
   77.7569   -1.0035   -0.7668 C   0  0  0  0  0  0  0  0  0  0  0  0
   79.1071   -1.2197   -0.7598 N   0  0  0  0  0  0  0  0  0  0  0  0
   76.0342    1.9171    1.7391 H   0  0  0  0  0  0  0  0  0  0  0  0
   77.9352    3.5944    2.6586 H   0  0  0  0  0  0  0  0  0  0  0  0
   81.8127    3.5849    3.8953 H   0  0  0  0  0  0  0  0  0  0  0  0
   81.8177    5.7687    5.0811 H   0  0  0  0  0  0  0  0  0  0  0  0
   78.9297    8.8137    5.8342 H   0  0  0  0  0  0  0  0  0  0  0  0
   79.2045    7.3962    2.1027 H   0  0  0  0  0  0  0  0  0  0  0  0
   79.2036    5.2168    0.9089 H   0  0  0  0  0  0  0  0  0  0  0  0
   83.0765    4.1638    1.5893 H   0  0  0  0  0  0  0  0  0  0  0  0
   84.9735    2.4611    0.7087 H   0  0  0  0  0  0  0  0  0  0  0  0
   84.9556   -2.5956   -0.6824 H   0  0  0  0  0  0  0  0  0  0  0  0
   83.0545   -4.2635   -1.6196 H   0  0  0  0  0  0  0  0  0  0  0  0
   81.8230   -3.6284   -3.9402 H   0  0  0  0  0  0  0  0  0  0  0  0
   81.8269   -5.7916   -5.1631 H   0  0  0  0  0  0  0  0  0  0  0  0
   78.9377   -8.8011   -6.0105 H   0  0  0  0  0  0  0  0  0  0  0  0
   79.1745   -7.4537   -2.2390 H   0  0  0  0  0  0  0  0  0  0  0  0
   79.1747   -5.2952   -1.0080 H   0  0  0  0  0  0  0  0  0  0  0  0
   77.9248   -3.6445   -2.7200 H   0  0  0  0  0  0  0  0  0  0  0  0
   76.0271   -1.9828   -1.7662 H   0  0  0  0  0  0  0  0  0  0  0  0
  2  3  4  0  0  0  0
  3  4  4  0  0  0  0
  4  5  2  0  0  0  0
  5  6  4  0  0  0  0
  1  7  1  0  0  0  0
  3  7  4  0  0  0  0
  6  7  4  0  0  0  0
  6  8  4  0  0  0  0
  8  9  1  0  0  0  0
  9 10  4  0  0  0  0
 10 11  4  0  0  0  0
 11 12  4  0  0  0  0
 12 13  1  0  0  0  0
 13 14  2  0  0  0  0
 13 15  1  0  0  0  0
 13 16  2  0  0  0  0
 12 17  4  0  0  0  0
  9 18  4  0  0  0  0
 17 18  4  0  0  0  0
  8 19  4  0  0  0  0
 19 20  4  0  0  0  0
 20 21  2  0  0  0  0
  1 22  1  0  0  0  0
 19 22  4  0  0  0  0
 21 23  4  0  0  0  0
 22 23  4  0  0  0  0
 23 24  4  0  0  0  0
 24 25  4  0  0  0  0
 25 26  4  0  0  0  0
 26 27  2  0  0  0  0
 27 28  4  0  0  0  0
  1 29  1  0  0  0  0
 25 29  4  0  0  0  0
 28 29  4  0  0  0  0
 28 30  4  0  0  0  0
 30 31  1  0  0  0  0
 31 32  4  0  0  0  0
 32 33  4  0  0  0  0
 33 34  4  0  0  0  0
 34 35  1  0  0  0  0
 35 36  2  0  0  0  0
 35 37  1  0  0  0  0
 35 38  2  0  0  0  0
 34 39  4  0  0  0  0
 31 40  4  0  0  0  0
 39 40  4  0  0  0  0
 30 41  4  0  0  0  0
 41 42  4  0  0  0  0
 42 43  2  0  0  0  0
  2 44  4  0  0  0  0
 43 44  4  0  0  0  0
  1 45  1  0  0  0  0
 41 45  4  0  0  0  0
 44 45  4  0  0  0  0
  2 46  1  0  0  0  0
  4 47  1  0  0  0  0
  5 48  1  0  0  0  0
 10 49  1  0  0  0  0
 11 50  1  0  0  0  0
 15 51  1  0  0  0  0
 17 52  1  0  0  0  0
 18 53  1  0  0  0  0
 20 54  1  0  0  0  0
 21 55  1  0  0  0  0
 26 56  1  0  0  0  0
 27 57  1  0  0  0  0
 32 58  1  0  0  0  0
 33 59  1  0  0  0  0
 37 60  1  0  0  0  0
 39 61  1  0  0  0  0
 40 62  1  0  0  0  0
 42 63  1  0  0  0  0
 43 64  1  0  0  0  0
 66 67  4  0  0  0  0
 67 68  4  0  0  0  0
 68 69  2  0  0  0  0
 69 70  4  0  0  0  0
 65 71  1  0  0  0  0
 67 71  4  0  0  0  0
 70 71  4  0  0  0  0
 70 72  4  0  0  0  0
 72 73  1  0  0  0  0
 73 74  4  0  0  0  0
 74 75  4  0  0  0  0
 75 76  4  0  0  0  0
 76 77  1  0  0  0  0
 77 78  2  0  0  0  0
 77 79  1  0  0  0  0
 77 80  2  0  0  0  0
 76 81  4  0  0  0  0
 73 82  4  0  0  0  0
 81 82  4  0  0  0  0
 72 83  4  0  0  0  0
 83 84  4  0  0  0  0
 84 85  2  0  0  0  0
 65 86  1  0  0  0  0
 83 86  4  0  0  0  0
 85 87  4  0  0  0  0
 86 87  4  0  0  0  0
 87 88  4  0  0  0  0
 88 89  4  0  0  0  0
 89 90  4  0  0  0  0
 90 91  2  0  0  0  0
 91 92  4  0  0  0  0
 65 93  1  0  0  0  0
 89 93  4  0  0  0  0
 92 93  4  0  0  0  0
 92 94  4  0  0  0  0
 94 95  1  0  0  0  0
 95 96  4  0  0  0  0
 96 97  4  0  0  0  0
 97 98  4  0  0  0  0
 98 99  1  0  0  0  0
 99100  2  0  0  0  0
 99101  1  0  0  0  0
 99102  2  0  0  0  0
 98103  4  0  0  0  0
 95104  4  0  0  0  0
103104  4  0  0  0  0
 94105  4  0  0  0  0
105106  4  0  0  0  0
106107  2  0  0  0  0
 66108  4  0  0  0  0
107108  4  0  0  0  0
 65109  1  0  0  0  0
105109  4  0  0  0  0
108109  4  0  0  0  0
 66110  1  0  0  0  0
 68111  1  0  0  0  0
 69112  1  0  0  0  0
 74113  1  0  0  0  0
 75114  1  0  0  0  0
 79115  1  0  0  0  0
 81116  1  0  0  0  0
 82117  1  0  0  0  0
 84118  1  0  0  0  0
 85119  1  0  0  0  0
 90120  1  0  0  0  0
 91121  1  0  0  0  0
 96122  1  0  0  0  0
 97123  1  0  0  0  0
101124  1  0  0  0  0
103125  1  0  0  0  0
104126  1  0  0  0  0
106127  1  0  0  0  0
107128  1  0  0  0  0
 24129  4  0  0  0  0
129130  3  0  0  0  0
130131  4  0  0  0  0
131132  3  0  0  0  0
132133  4  0  0  0  0
133134  3  0  0  0  0
134135  4  0  0  0  0
135136  3  0  0  0  0
137138  3  0  0  0  0
138139  4  0  0  0  0
139140  3  0  0  0  0
140141  4  0  0  0  0
141142  3  0  0  0  0
142143  4  0  0  0  0
143144  3  0  0  0  0
145146  3  0  0  0  0
146147  4  0  0  0  0
147148  3  0  0  0  0
148149  4  0  0  0  0
149150  3  0  0  0  0
150151  4  0  0  0  0
 88152  4  0  0  0  0
151152  3  0  0  0  0
136154  4  0  0  0  0
154155  4  0  0  0  0
155156  4  0  0  0  0
156157  2  0  0  0  0
157158  4  0  0  0  0
153159  1  0  0  0  0
155159  4  0  0  0  0
158159  4  0  0  0  0
158160  4  0  0  0  0
160161  1  0  0  0  0
161162  4  0  0  0  0
162163  4  0  0  0  0
163164  4  0  0  0  0
164165  1  0  0  0  0
165166  2  0  0  0  0
165167  1  0  0  0  0
165168  2  0  0  0  0
164169  4  0  0  0  0
161170  4  0  0  0  0
169170  4  0  0  0  0
160171  4  0  0  0  0
171172  4  0  0  0  0
172173  2  0  0  0  0
153174  1  0  0  0  0
171174  4  0  0  0  0
173175  4  0  0  0  0
174175  4  0  0  0  0
137176  4  0  0  0  0
175176  4  0  0  0  0
176177  4  0  0  0  0
177178  4  0  0  0  0
178179  2  0  0  0  0
179180  4  0  0  0  0
153181  1  0  0  0  0
177181  4  0  0  0  0
180181  4  0  0  0  0
180182  4  0  0  0  0
182183  1  0  0  0  0
183184  4  0  0  0  0
184185  4  0  0  0  0
185186  4  0  0  0  0
186187  1  0  0  0  0
187188  2  0  0  0  0
187189  1  0  0  0  0
187190  2  0  0  0  0
186191  4  0  0  0  0
183192  4  0  0  0  0
191192  4  0  0  0  0
182193  4  0  0  0  0
193194  4  0  0  0  0
194195  2  0  0  0  0
154196  4  0  0  0  0
195196  4  0  0  0  0
153197  1  0  0  0  0
193197  4  0  0  0  0
196197  4  0  0  0  0
156198  1  0  0  0  0
157199  1  0  0  0  0
162200  1  0  0  0  0
163201  1  0  0  0  0
167202  1  0  0  0  0
169203  1  0  0  0  0
170204  1  0  0  0  0
172205  1  0  0  0  0
173206  1  0  0  0  0
178207  1  0  0  0  0
179208  1  0  0  0  0
184209  1  0  0  0  0
185210  1  0  0  0  0
189211  1  0  0  0  0
191212  1  0  0  0  0
192213  1  0  0  0  0
194214  1  0  0  0  0
195215  1  0  0  0  0
144217  4  0  0  0  0
217218  4  0  0  0  0
218219  4  0  0  0  0
219220  2  0  0  0  0
220221  4  0  0  0  0
216222  1  0  0  0  0
218222  4  0  0  0  0
221222  4  0  0  0  0
221223  4  0  0  0  0
223224  1  0  0  0  0
224225  4  0  0  0  0
225226  4  0  0  0  0
226227  4  0  0  0  0
227228  1  0  0  0  0
228229  2  0  0  0  0
228230  1  0  0  0  0
228231  2  0  0  0  0
227232  4  0  0  0  0
224233  4  0  0  0  0
232233  4  0  0  0  0
223234  4  0  0  0  0
234235  4  0  0  0  0
235236  2  0  0  0  0
216237  1  0  0  0  0
234237  4  0  0  0  0
236238  4  0  0  0  0
237238  4  0  0  0  0
145239  4  0  0  0  0
238239  4  0  0  0  0
239240  4  0  0  0  0
240241  4  0  0  0  0
241242  2  0  0  0  0
242243  4  0  0  0  0
216244  1  0  0  0  0
240244  4  0  0  0  0
243244  4  0  0  0  0
243245  4  0  0  0  0
245246  1  0  0  0  0
246247  4  0  0  0  0
247248  4  0  0  0  0
248249  4  0  0  0  0
249250  1  0  0  0  0
250251  2  0  0  0  0
250252  1  0  0  0  0
250253  2  0  0  0  0
249254  4  0  0  0  0
246255  4  0  0  0  0
254255  4  0  0  0  0
245256  4  0  0  0  0
256257  4  0  0  0  0
257258  2  0  0  0  0
217259  4  0  0  0  0
258259  4  0  0  0  0
216260  1  0  0  0  0
256260  4  0  0  0  0
259260  4  0  0  0  0
219261  1  0  0  0  0
220262  1  0  0  0  0
225263  1  0  0  0  0
226264  1  0  0  0  0
230265  1  0  0  0  0
232266  1  0  0  0  0
233267  1  0  0  0  0
235268  1  0  0  0  0
236269  1  0  0  0  0
241270  1  0  0  0  0
242271  1  0  0  0  0
247272  1  0  0  0  0
248273  1  0  0  0  0
252274  1  0  0  0  0
254275  1  0  0  0  0
255276  1  0  0  0  0
257277  1  0  0  0  0
258278  1  0  0  0  0
M  END
