446

C 94.420523 0.017048 -0.122687
C 95.155279 -1.265189 -0.620175
C 94.560195 -2.358161 -1.206980
C 95.585654 -3.308552 -1.451289
C 96.771821 -2.764144 -0.998293
N 96.505332 -1.496168 -0.546583
C 98.189623 -3.471145 -0.973865
C 98.218812 -4.941963 -1.142252
C 98.512697 -5.513058 -2.387772
C 98.528301 -6.901102 -2.539308
C 98.248252 -7.716772 -1.439665
C 98.259481 -9.187026 -1.576197
O 98.497498 -9.760541 -2.632890
C 97.953569 -7.157698 -0.192226
C 97.938927 -5.770142 -0.047745
C 99.319553 -2.754039 -0.731592
C 100.620359 -3.384545 -0.636421
C 101.521621 -2.447629 -0.365964
N 99.517126 -1.415905 -0.516065
C 100.844998 -1.168407 -0.282378
C 101.510693 -0.014310 -0.011090
C 100.732589 1.367058 0.055011
C 101.274690 2.619633 -0.156194
C 100.248127 3.571972 0.061371
C 99.104894 2.873651 0.387332
N 99.396371 1.531001 0.328537
C 97.692520 3.499805 0.743383
C 97.652358 4.905742 1.200144
C 97.949213 5.229245 2.529913
C 97.920753 6.559873 2.953780
C 97.596805 7.567133 2.040751
C 97.562632 8.980828 2.465755
O 97.801953 9.343171 3.611981
C 97.299555 7.256141 0.709907
C 97.328917 5.925002 0.293342
C 96.567756 2.749534 0.615426
C 95.243105 3.257169 0.927209
C 94.358565 2.295960 0.678569
C 95.083285 1.140660 0.209661
N 96.405780 1.456713 0.203396
H 93.341043 -0.016909 -0.035835
H 93.507712 -2.466432 -1.419928
H 95.466519 -4.289458 -1.885985
H 97.199554 -0.832489 -0.211362
H 98.732351 -4.861219 -3.231190
H 98.759816 -7.334091 -3.508339
H 98.036681 -9.758865 -0.660021
H 97.735329 -7.777367 0.671253
H 97.713692 -5.313986 0.914540
H 100.832925 -4.431984 -0.753698
H 102.572893 -2.630007 -0.237771
H 102.299139 2.829754 -0.423610
H 100.336128 4.645561 -0.007542
H 98.713160 0.783315 0.418597
H 98.199069 4.431776 3.227085
H 98.150748 6.799728 3.987868
H 97.305625 9.714450 1.682983
H 97.044488 8.026679 -0.010871
H 97.097909 5.659598 -0.737271
H 95.011011 4.238892 1.298588
H 93.293690 2.359277 0.808177
C 181.204513 0.021503 -0.121339
C 180.469758 1.364340 0.176003
C 181.064841 2.599246 0.294041
C 180.039382 3.525534 0.617959
C 178.853216 2.821281 0.692881
N 179.119704 1.515702 0.365361
C 177.435414 3.395985 1.105388
C 177.406225 4.713174 1.781164
C 177.112339 5.879255 1.061632
C 177.096735 7.118225 1.705512
C 177.376784 7.186912 3.072924
C 177.365555 8.485961 3.774891
O 177.127538 9.549311 3.213814
C 177.671467 6.029769 3.800720
C 177.686109 4.795118 3.151241
C 176.305484 2.664931 0.909182
C 175.004677 3.136746 1.338118
C 174.103415 2.207167 1.043431
N 176.107910 1.431992 0.346231
C 174.780039 1.096433 0.403378
C 174.114344 -0.014310 -0.011090
C 174.892447 -1.200334 -0.722353
C 174.350346 -2.125372 -1.592903
C 175.376909 -3.038444 -1.940154
C 176.520143 -2.638226 -1.281574
N 176.228666 -1.488470 -0.585709
C 177.932516 -3.356718 -1.332659
C 177.972678 -4.779889 -1.732505
C 177.675823 -5.786696 -0.805531
C 177.704283 -7.128959 -1.190972
C 178.028231 -7.460574 -2.509390
C 178.062405 -8.872583 -2.939963
O 177.823083 -9.809892 -2.187250
C 178.325481 -6.463579 -3.444197
C 178.296119 -5.124942 -3.052398
C 179.057280 -2.661482 -1.022940
C 180.381932 -3.256806 -1.045114
C 181.266471 -2.319116 -0.718799
C 180.541751 -1.097748 -0.468092
N 179.219256 -1.357242 -0.648623
H 182.283994 0.001578 -0.030237
H 182.117324 2.807458 0.176918
H 180.158517 4.582820 0.800394
H 178.425482 0.777542 0.276129
H 176.892685 5.804751 -0.001711
H 176.865221 8.016023 1.139421
H 177.588356 8.453542 4.854394
H 177.889707 6.066378 4.862910
H 177.911345 3.881786 3.698868
H 174.792111 4.073314 1.821566
H 173.052143 2.287803 1.251261
H 173.325898 -2.151863 -1.931961
H 175.288908 -3.893489 -2.593025
H 176.911876 -0.916321 -0.096025
H 177.425968 -5.509897 0.216911
H 177.474289 -7.902149 -0.463617
H 178.319411 -9.048774 -3.998211
H 178.580549 -6.704876 -4.471342
H 178.527128 -4.332421 -3.762689
H 180.614025 -4.279649 -1.280686
H 182.331346 -2.443693 -0.646082
C 104.638648 -0.001874 -0.008648
C 103.386378 -0.021055 -0.012997
C 105.952316 -0.002640 -0.006716
C 107.455450 -0.021055 -0.012997
C 117.613291 -0.001874 -0.008648
C 116.361021 -0.021055 -0.012997
C 118.926959 -0.002640 -0.006716
C 120.430093 -0.021055 -0.012997
C 130.587934 -0.001874 -0.008648
C 129.335664 -0.021055 -0.012997
C 131.901602 -0.002640 -0.006716
C 133.404736 -0.021055 -0.012997
C 143.562577 -0.001874 -0.008648
C 142.310307 -0.021055 -0.012997
C 144.876245 -0.002640 -0.006716
C 146.379379 -0.021055 -0.012997
C 156.537220 -0.001874 -0.008648
C 155.284950 -0.021055 -0.012997
C 157.850888 -0.002640 -0.006716
C 159.354022 -0.021055 -0.012997
C 169.511863 -0.001874 -0.008648
C 168.259593 -0.021055 -0.012997
C 170.825531 -0.002640 -0.006716
C 172.328665 -0.021055 -0.012997
C 108.265932 0.007504 0.005550
C 109.050641 0.876896 -1.061345
C 108.509107 1.473732 -2.174688
C 109.548155 2.171204 -2.837093
C 110.699339 1.975653 -2.113181
N 110.397581 1.149421 -1.056674
C 112.117691 2.592156 -2.449187
C 112.155365 3.772688 -3.348217
C 112.380352 3.617407 -4.721213
C 112.423047 4.731956 -5.562563
C 112.235471 6.007172 -5.026416
C 112.278480 7.200458 -5.896295
O 112.439776 7.138493 -7.109559
C 112.003738 6.175892 -3.658739
C 111.964152 5.057382 -2.823376
C 113.248530 2.071969 -1.902356
C 114.554747 2.621799 -2.196862
C 115.466246 1.919477 -1.534377
N 113.447701 1.029179 -1.035926
C 114.788118 0.886460 -0.776865
C 115.470212 0.007504 0.005550
C 114.694113 -1.101479 0.841036
C 115.273256 -2.113661 1.584516
C 114.232061 -2.838472 2.208856
C 113.039782 -2.250431 1.831573
N 113.328938 -1.215095 0.972445
C 111.605790 -2.684038 2.339243
C 111.542919 -3.780300 3.333395
C 111.418696 -5.102603 2.886442
C 111.385885 -6.151522 3.804000
C 111.463475 -5.871197 5.173164
C 111.417083 -6.995601 6.127746
O 111.485412 -6.845500 7.341551
C 111.577763 -4.555511 5.630785
C 111.622479 -3.510052 4.706433
C 110.476967 -2.090849 1.874431
C 109.168964 -2.455254 2.377355
C 108.261733 -1.707993 1.762900
C 108.941489 -0.849235 0.815299
N 110.280788 -1.114740 0.937408
H 107.477845 1.420261 -2.479278
H 109.462418 2.753535 -3.739819
H 111.070236 0.761869 -0.405624
H 112.529095 2.619200 -5.121856
H 112.605673 4.598295 -6.623806
H 112.150200 8.174574 -5.393065
H 111.853394 7.159853 -3.228240
H 111.790822 5.169212 -1.753779
H 114.767212 3.453406 -2.843008
H 116.523177 2.106028 -1.572175
H 116.329426 -2.305537 1.688734
H 114.344040 -3.683141 2.876257
H 112.640074 -0.617318 0.519371
H 111.347948 -5.292775 1.815622
H 111.300500 -7.168382 3.434595
H 111.315892 -8.000949 5.686077
H 111.633248 -4.338976 6.694376
H 111.715576 -2.479306 5.039146
H 108.956432 -3.194583 3.128169
H 107.204453 -1.759915 1.945197
C 121.240575 0.007504 0.005550
C 122.025284 0.876896 -1.061345
C 121.483750 1.473732 -2.174688
C 122.522798 2.171204 -2.837093
C 123.673982 1.975653 -2.113181
N 123.372224 1.149421 -1.056674
C 125.092334 2.592156 -2.449187
C 125.130008 3.772688 -3.348217
C 125.354995 3.617407 -4.721213
C 125.397690 4.731956 -5.562563
C 125.210114 6.007172 -5.026416
C 125.253123 7.200458 -5.896295
O 125.414419 7.138493 -7.109559
C 124.978381 6.175892 -3.658739
C 124.938795 5.057382 -2.823376
C 126.223173 2.071969 -1.902356
C 127.529390 2.621799 -2.196862
C 128.440889 1.919477 -1.534377
N 126.422344 1.029179 -1.035926
C 127.762761 0.886460 -0.776865
C 128.444855 0.007504 0.005550
C 127.668756 -1.101479 0.841036
C 128.247899 -2.113661 1.584516
C 127.206704 -2.838472 2.208856
C 126.014425 -2.250431 1.831573
N 126.303581 -1.215095 0.972445
C 124.580433 -2.684038 2.339243
C 124.517562 -3.780300 3.333395
C 124.393339 -5.102603 2.886442
C 124.360528 -6.151522 3.804000
C 124.438118 -5.871197 5.173164
C 124.391726 -6.995601 6.127746
O 124.460055 -6.845500 7.341551
C 124.552406 -4.555511 5.630785
C 124.597122 -3.510052 4.706433
C 123.451610 -2.090849 1.874431
C 122.143607 -2.455254 2.377355
C 121.236376 -1.707993 1.762900
C 121.916132 -0.849235 0.815299
N 123.255431 -1.114740 0.937408
H 120.452488 1.420261 -2.479278
H 122.437061 2.753535 -3.739819
H 124.044879 0.761869 -0.405624
H 125.503738 2.619200 -5.121856
H 125.580316 4.598295 -6.623806
H 125.124843 8.174574 -5.393065
H 124.828038 7.159853 -3.228240
H 124.765465 5.169212 -1.753779
H 127.741855 3.453406 -2.843008
H 129.497820 2.106028 -1.572175
H 129.304069 -2.305537 1.688734
H 127.318684 -3.683141 2.876257
H 125.614717 -0.617318 0.519371
H 124.322591 -5.292775 1.815622
H 124.275143 -7.168382 3.434595
H 124.290536 -8.000949 5.686077
H 124.607891 -4.338976 6.694376
H 124.690219 -2.479306 5.039146
H 121.931075 -3.194583 3.128169
H 120.179096 -1.759915 1.945197
C 134.215218 0.007504 0.005550
C 134.999927 0.876896 -1.061345
C 134.458393 1.473732 -2.174688
C 135.497441 2.171204 -2.837093
C 136.648625 1.975653 -2.113181
N 136.346867 1.149421 -1.056674
C 138.066977 2.592156 -2.449187
C 138.104651 3.772688 -3.348217
C 138.329638 3.617407 -4.721213
C 138.372333 4.731956 -5.562563
C 138.184757 6.007172 -5.026416
C 138.227766 7.200458 -5.896295
O 138.389062 7.138493 -7.109559
C 137.953024 6.175892 -3.658739
C 137.913438 5.057382 -2.823376
C 139.197816 2.071969 -1.902356
C 140.504033 2.621799 -2.196862
C 141.415532 1.919477 -1.534377
N 139.396987 1.029179 -1.035926
C 140.737404 0.886460 -0.776865
C 141.419498 0.007504 0.005550
C 140.643399 -1.101479 0.841036
C 141.222542 -2.113661 1.584516
C 140.181347 -2.838472 2.208856
C 138.989068 -2.250431 1.831573
N 139.278225 -1.215095 0.972445
C 137.555076 -2.684038 2.339243
C 137.492205 -3.780300 3.333395
C 137.367982 -5.102603 2.886442
C 137.335171 -6.151522 3.804000
C 137.412761 -5.871197 5.173164
C 137.366369 -6.995601 6.127746
O 137.434698 -6.845500 7.341551
C 137.527049 -4.555511 5.630785
C 137.571765 -3.510052 4.706433
C 136.426253 -2.090849 1.874431
C 135.118250 -2.455254 2.377355
C 134.211019 -1.707993 1.762900
C 134.890775 -0.849235 0.815299
N 136.230075 -1.114740 0.937408
H 133.427131 1.420261 -2.479278
H 135.411704 2.753535 -3.739819
H 137.019522 0.761869 -0.405624
H 138.478381 2.619200 -5.121856
H 138.554959 4.598295 -6.623806
H 138.099486 8.174574 -5.393065
H 137.802681 7.159853 -3.228240
H 137.740108 5.169212 -1.753779
H 140.716498 3.453406 -2.843008
H 142.472463 2.106028 -1.572175
H 142.278712 -2.305537 1.688734
H 140.293327 -3.683141 2.876257
H 138.589360 -0.617318 0.519371
H 137.297234 -5.292775 1.815622
H 137.249786 -7.168382 3.434595
H 137.265179 -8.000949 5.686077
H 137.582534 -4.338976 6.694376
H 137.664862 -2.479306 5.039146
H 134.905718 -3.194583 3.128169
H 133.153739 -1.759915 1.945197
C 147.189861 0.007504 0.005550
C 147.974570 0.876896 -1.061345
C 147.433036 1.473732 -2.174688
C 148.472084 2.171204 -2.837093
C 149.623268 1.975653 -2.113181
N 149.321510 1.149421 -1.056674
C 151.041620 2.592156 -2.449187
C 151.079294 3.772688 -3.348217
C 151.304281 3.617407 -4.721213
C 151.346976 4.731956 -5.562563
C 151.159400 6.007172 -5.026416
C 151.202409 7.200458 -5.896295
O 151.363705 7.138493 -7.109559
C 150.927667 6.175892 -3.658739
C 150.888081 5.057382 -2.823376
C 152.172459 2.071969 -1.902356
C 153.478676 2.621799 -2.196862
C 154.390175 1.919477 -1.534377
N 152.371630 1.029179 -1.035926
C 153.712047 0.886460 -0.776865
C 154.394141 0.007504 0.005550
C 153.618042 -1.101479 0.841036
C 154.197185 -2.113661 1.584516
C 153.155990 -2.838472 2.208856
C 151.963711 -2.250431 1.831573
N 152.252868 -1.215095 0.972445
C 150.529719 -2.684038 2.339243
C 150.466848 -3.780300 3.333395
C 150.342625 -5.102603 2.886442
C 150.309814 -6.151522 3.804000
C 150.387404 -5.871197 5.173164
C 150.341012 -6.995601 6.127746
O 150.409341 -6.845500 7.341551
C 150.501692 -4.555511 5.630785
C 150.546408 -3.510052 4.706433
C 149.400896 -2.090849 1.874431
C 148.092893 -2.455254 2.377355
C 147.185662 -1.707993 1.762900
C 147.865418 -0.849235 0.815299
N 149.204718 -1.114740 0.937408
H 146.401774 1.420261 -2.479278
H 148.386347 2.753535 -3.739819
H 149.994165 0.761869 -0.405624
H 151.453024 2.619200 -5.121856
H 151.529602 4.598295 -6.623806
H 151.074129 8.174574 -5.393065
H 150.777324 7.159853 -3.228240
H 150.714751 5.169212 -1.753779
H 153.691141 3.453406 -2.843008
H 155.447106 2.106028 -1.572175
H 155.253355 -2.305537 1.688734
H 153.267970 -3.683141 2.876257
H 151.564003 -0.617318 0.519371
H 150.271877 -5.292775 1.815622
H 150.224429 -7.168382 3.434595
H 150.239822 -8.000949 5.686077
H 150.557177 -4.338976 6.694376
H 150.639505 -2.479306 5.039146
H 147.880361 -3.194583 3.128169
H 146.128382 -1.759915 1.945197
C 160.164504 0.007504 0.005550
C 160.949213 0.876896 -1.061345
C 160.407679 1.473732 -2.174688
C 161.446727 2.171204 -2.837093
C 162.597911 1.975653 -2.113181
N 162.296153 1.149421 -1.056674
C 164.016263 2.592156 -2.449187
C 164.053937 3.772688 -3.348217
C 164.278924 3.617407 -4.721213
C 164.321619 4.731956 -5.562563
C 164.134043 6.007172 -5.026416
C 164.177053 7.200458 -5.896295
O 164.338348 7.138493 -7.109559
C 163.902310 6.175892 -3.658739
C 163.862724 5.057382 -2.823376
C 165.147102 2.071969 -1.902356
C 166.453319 2.621799 -2.196862
C 167.364818 1.919477 -1.534377
N 165.346273 1.029179 -1.035926
C 166.686690 0.886460 -0.776865
C 167.368784 0.007504 0.005550
C 166.592685 -1.101479 0.841036
C 167.171828 -2.113661 1.584516
C 166.130633 -2.838472 2.208856
C 164.938354 -2.250431 1.831573
N 165.227511 -1.215095 0.972445
C 163.504362 -2.684038 2.339243
C 163.441491 -3.780300 3.333395
C 163.317268 -5.102603 2.886442
C 163.284457 -6.151522 3.804000
C 163.362047 -5.871197 5.173164
C 163.315655 -6.995601 6.127746
O 163.383984 -6.845500 7.341551
C 163.476335 -4.555511 5.630785
C 163.521051 -3.510052 4.706433
C 162.375539 -2.090849 1.874431
C 161.067536 -2.455254 2.377355
C 160.160305 -1.707993 1.762900
C 160.840061 -0.849235 0.815299
N 162.179361 -1.114740 0.937408
H 159.376417 1.420261 -2.479278
H 161.360990 2.753535 -3.739819
H 162.968808 0.761869 -0.405624
H 164.427667 2.619200 -5.121856
H 164.504245 4.598295 -6.623806
H 164.048772 8.174574 -5.393065
H 163.751967 7.159853 -3.228240
H 163.689394 5.169212 -1.753779
H 166.665784 3.453406 -2.843008
H 168.421749 2.106028 -1.572175
H 168.227998 -2.305537 1.688734
H 166.242613 -3.683141 2.876257
H 164.538646 -0.617318 0.519371
H 163.246521 -5.292775 1.815622
H 163.199072 -7.168382 3.434595
H 163.214465 -8.000949 5.686077
H 163.531820 -4.338976 6.694376
H 163.614148 -2.479306 5.039146
H 160.855004 -3.194583 3.128169
H 159.103025 -1.759915 1.945197
