136

Ni 18.288510 1.959462 1.631064
C 14.537419 0.065978 -0.028576
C 15.187051 0.919180 0.768532
C 14.522344 1.837819 1.684873
C 15.452550 2.550977 2.292138
C 16.764781 2.129988 1.782023
N 16.602983 1.085812 0.821131
C 17.950194 2.660277 2.148602
C 17.984056 3.773760 3.124494
C 17.496255 5.040866 2.773823
C 17.544454 6.092719 3.692532
C 18.085510 5.898268 4.973313
N 18.121966 7.001590 5.897307
C 18.663378 6.904045 7.248829
C 18.580931 4.625989 5.318801
C 18.531330 3.574220 4.399417
C 19.249332 2.181758 1.606990
C 20.526135 2.875840 1.814806
C 21.470588 2.166104 1.231535
N 19.405491 1.092119 0.919483
C 20.803598 1.011586 0.642287
C 21.410380 0.000213 0.000060
C 20.659760 -1.133263 -0.584432
C 21.201493 -2.300689 -0.907821
C 20.169427 -3.091982 -1.549240
C 19.066467 -2.352908 -1.579535
N 19.286134 -1.079903 -0.969855
C 17.795913 -2.768584 -2.227157
C 17.834466 -3.869611 -3.220368
C 18.580182 -3.726235 -4.399031
C 18.637214 -4.767035 -5.330380
C 17.951326 -5.973797 -5.093161
N 17.990067 -7.064146 -6.032345
C 18.726792 -7.018499 -7.291063
C 17.213757 -6.114902 -3.907190
C 17.158052 -5.074176 -2.976343
C 16.627149 -2.166313 -1.934779
C 15.326773 -2.463084 -2.533330
C 14.454475 -1.686829 -1.919765
C 15.189228 -0.886125 -0.941849
N 16.456109 -1.157143 -0.941741
H 13.453820 0.068957 -0.010106
H 13.456904 1.927264 1.853956
H 15.253185 3.309983 3.037220
H 17.080526 5.212914 1.788507
H 17.160671 7.063280 3.404243
H 17.742386 7.927333 5.594094
H 19.735692 6.619244 7.207054
H 18.093376 6.149874 7.831088
H 18.577406 7.885680 7.760901
H 19.007443 4.438093 6.294560
H 18.918428 2.602446 4.680924
H 20.685991 3.804743 2.346306
H 22.522763 2.417054 1.212229
H 22.228221 -2.603445 -0.751587
H 20.288746 -4.089547 -1.951751
H 19.115244 -2.805507 -4.597630
H 19.218568 -4.622013 -6.230561
H 17.465050 -7.940670 -5.810847
H 18.338421 -6.195395 -7.926969
H 18.600257 -7.977406 -7.836692
H 19.808060 -6.865002 -7.091060
H 16.682496 -7.035754 -3.701760
H 16.590974 -5.207595 -2.063160
H 15.096458 -3.168711 -3.320606
H 13.391247 -1.655095 -2.118454
Ni 30.353999 -2.018998 -1.556095
C 34.105090 0.013809 -0.070369
C 33.455457 -0.950260 -0.729083
C 34.120164 -2.044967 -1.425642
C 33.189959 -2.793210 -1.989111
C 31.877728 -2.203527 -1.689573
N 32.039526 -1.037951 -0.880223
C 30.692315 -2.676982 -2.127096
C 30.658452 -3.872320 -3.000811
C 31.146254 -3.806581 -4.313900
C 31.098055 -4.932667 -5.139947
C 30.556998 -6.140157 -4.670716
N 30.520543 -7.282631 -5.545837
C 29.979131 -8.580303 -5.155741
C 30.061577 -6.199710 -3.353708
C 30.111179 -5.072984 -2.527891
C 29.393176 -2.044008 -1.778287
C 28.116374 -2.398265 -2.410300
C 27.171920 -1.674185 -1.844935
N 29.237018 -1.135308 -0.864918
C 27.838910 -0.847219 -0.846809
C 27.232129 0.000213 0.000060
C 27.982748 0.817946 0.978688
C 27.441015 1.388274 2.047421
C 28.473081 2.186897 2.679690
C 29.576042 2.055197 1.951814
N 29.356374 1.182438 0.842515
C 30.846595 2.777913 2.216164
C 30.808043 3.987436 3.073943
C 30.062326 5.106414 2.676837
C 30.005294 6.242423 3.489339
C 30.691182 6.274235 4.718784
N 30.652441 7.428702 5.577931
C 29.915716 8.647130 5.258732
C 31.428752 5.147629 5.115267
C 31.484456 4.012127 4.302729
C 32.015359 2.361166 1.692202
C 33.315736 3.010049 1.851218
C 34.188034 2.241890 1.227547
C 33.453281 1.112825 0.659517
N 32.186400 1.171855 0.924028
H 35.188689 -0.004865 -0.069245
H 35.185605 -2.229493 -1.476037
H 33.389323 -3.685954 -2.567252
H 31.561983 -2.882547 -4.696798
H 31.481838 -4.863100 -6.150025
H 30.900122 -7.188720 -6.515434
H 28.906817 -8.477391 -4.886918
H 30.549132 -8.983973 -4.292694
H 30.065103 -9.294228 -6.001989
H 29.635065 -7.110959 -2.957429
H 29.724081 -5.135667 -1.518108
H 27.956517 -3.119644 -3.200847
H 26.119746 -1.710101 -2.094050
H 26.414288 1.301865 2.376973
H 28.353763 2.797377 3.565391
H 29.527265 5.099325 1.734961
H 29.423941 7.089270 3.151393
H 31.177458 7.403798 6.481665
H 30.304088 9.088112 4.316707
H 30.042252 9.388844 6.075478
H 28.834448 8.418453 5.152575
H 31.960013 5.148080 6.058755
H 32.051535 3.150059 4.632189
H 33.546051 3.932323 2.368059
H 35.251261 2.428867 1.153224
C 23.587357 0.012145 0.002359
C 22.335087 -0.007036 -0.001989
C 24.901025 0.011379 0.004292
C 26.404159 -0.007036 -0.001989
