 xtb: 6.5.1 (b24c23e)
          07302202473D

136155  0     0  0            999 V2000
   17.6154    0.0370    0.0091 Ni  0  0  0  0  0  0  0  0  0  0  0  0
   14.2309    0.1099   -0.0679 C   0  0  0  0  0  0  0  0  0  0  0  0
   14.8765    0.8882    0.8713 C   0  0  0  0  0  0  0  0  0  0  0  0
   14.2008    1.6866    1.8471 C   0  0  0  0  0  0  0  0  0  0  0  0
   15.1542    2.3972    2.4958 C   0  0  0  0  0  0  0  0  0  0  0  0
   16.4111    2.0451    1.9037 C   0  0  0  0  0  0  0  0  0  0  0  0
   16.2341    1.0806    0.9432 N   0  0  0  0  0  0  0  0  0  0  0  0
   17.6190    2.6630    2.2094 C   0  0  0  0  0  0  0  0  0  0  0  0
   17.6254    3.7974    3.1589 C   0  0  0  0  0  0  0  0  0  0  0  0
   16.8575    4.9399    2.9153 C   0  0  0  0  0  0  0  0  0  0  0  0
   16.8738    6.0040    3.7967 C   0  0  0  0  0  0  0  0  0  0  0  0
   17.6526    5.9538    4.9597 C   0  0  0  0  0  0  0  0  0  0  0  0
   17.6781    7.0672    5.7850 N   0  0  0  0  0  0  0  0  0  0  0  0
   18.0743    6.9279    7.1794 C   0  0  0  0  0  0  0  0  0  0  0  0
   18.4240    4.8144    5.2073 C   0  0  0  0  0  0  0  0  0  0  0  0
   18.4072    3.7561    4.3152 C   0  0  0  0  0  0  0  0  0  0  0  0
   18.8232    2.2554    1.6469 C   0  0  0  0  0  0  0  0  0  0  0  0
   20.0750    2.9126    1.8701 C   0  0  0  0  0  0  0  0  0  0  0  0
   21.0272    2.1591    1.2675 C   0  0  0  0  0  0  0  0  0  0  0  0
   19.0032    1.1372    0.8643 N   0  0  0  0  0  0  0  0  0  0  0  0
   20.3546    1.0513    0.6691 C   0  0  0  0  0  0  0  0  0  0  0  0
   21.0192   -0.0174    0.0612 C   0  0  0  0  0  0  0  0  0  0  0  0
   20.3391   -1.0716   -0.5554 C   0  0  0  0  0  0  0  0  0  0  0  0
   20.9927   -2.2095   -1.1171 C   0  0  0  0  0  0  0  0  0  0  0  0
   20.0345   -2.9417   -1.7364 C   0  0  0  0  0  0  0  0  0  0  0  0
   18.7997   -2.2387   -1.5644 C   0  0  0  0  0  0  0  0  0  0  0  0
   18.9922   -1.1168   -0.7897 N   0  0  0  0  0  0  0  0  0  0  0  0
   17.6044   -2.6041   -2.1728 C   0  0  0  0  0  0  0  0  0  0  0  0
   17.6058   -3.7460   -3.1134 C   0  0  0  0  0  0  0  0  0  0  0  0
   18.4401   -3.7470   -4.2332 C   0  0  0  0  0  0  0  0  0  0  0  0
   18.4549   -4.8137   -5.1152 C   0  0  0  0  0  0  0  0  0  0  0  0
   17.6276   -5.9187   -4.8940 C   0  0  0  0  0  0  0  0  0  0  0  0
   17.6466   -7.0410   -5.7080 N   0  0  0  0  0  0  0  0  0  0  0  0
   18.1052   -6.9288   -7.0858 C   0  0  0  0  0  0  0  0  0  0  0  0
   16.7946   -5.9261   -3.7682 C   0  0  0  0  0  0  0  0  0  0  0  0
   16.7811   -4.8537   -2.8968 C   0  0  0  0  0  0  0  0  0  0  0  0
   16.4118   -1.9324   -1.9267 C   0  0  0  0  0  0  0  0  0  0  0  0
   15.1696   -2.2328   -2.5752 C   0  0  0  0  0  0  0  0  0  0  0  0
   14.2199   -1.4743   -1.9771 C   0  0  0  0  0  0  0  0  0  0  0  0
   14.8843   -0.6998   -0.9747 C   0  0  0  0  0  0  0  0  0  0  0  0
   16.2337   -0.9533   -0.9814 N   0  0  0  0  0  0  0  0  0  0  0  0
   13.1476    0.1342   -0.0934 H   0  0  0  0  0  0  0  0  0  0  0  0
   13.1335    1.6888    2.0027 H   0  0  0  0  0  0  0  0  0  0  0  0
   15.0296    3.0968    3.3064 H   0  0  0  0  0  0  0  0  0  0  0  0
   16.2603    4.9999    2.0119 H   0  0  0  0  0  0  0  0  0  0  0  0
   16.2829    6.8899    3.5887 H   0  0  0  0  0  0  0  0  0  0  0  0
   16.8668    7.6621    5.6698 H   0  0  0  0  0  0  0  0  0  0  0  0
   19.1342    6.6785    7.2436 H   0  0  0  0  0  0  0  0  0  0  0  0
   17.4900    6.1537    7.6899 H   0  0  0  0  0  0  0  0  0  0  0  0
   17.9114    7.8861    7.6729 H   0  0  0  0  0  0  0  0  0  0  0  0
   19.0411    4.7476    6.0949 H   0  0  0  0  0  0  0  0  0  0  0  0
   18.9968    2.8709    4.5280 H   0  0  0  0  0  0  0  0  0  0  0  0
   20.1999    3.8358    2.4119 H   0  0  0  0  0  0  0  0  0  0  0  0
   22.0916    2.3252    1.2250 H   0  0  0  0  0  0  0  0  0  0  0  0
   22.0490   -2.4103   -1.0382 H   0  0  0  0  0  0  0  0  0  0  0  0
   20.1449   -3.8779   -2.2588 H   0  0  0  0  0  0  0  0  0  0  0  0
   19.0740   -2.8881   -4.4257 H   0  0  0  0  0  0  0  0  0  0  0  0
   19.1142   -4.7805   -5.9739 H   0  0  0  0  0  0  0  0  0  0  0  0
   16.8074   -7.6017   -5.6238 H   0  0  0  0  0  0  0  0  0  0  0  0
   17.5761   -6.1339   -7.6239 H   0  0  0  0  0  0  0  0  0  0  0  0
   17.9214   -7.8826   -7.5803 H   0  0  0  0  0  0  0  0  0  0  0  0
   19.1766   -6.7254   -7.1076 H   0  0  0  0  0  0  0  0  0  0  0  0
   16.1592   -6.7854   -3.5810 H   0  0  0  0  0  0  0  0  0  0  0  0
   16.1409   -4.8805   -2.0218 H   0  0  0  0  0  0  0  0  0  0  0  0
   15.0517   -2.9328   -3.3866 H   0  0  0  0  0  0  0  0  0  0  0  0
   13.1621   -1.4299   -2.1830 H   0  0  0  0  0  0  0  0  0  0  0  0
   31.0263   -0.0159   -0.0342 Ni  0  0  0  0  0  0  0  0  0  0  0  0
   34.4107    0.0440   -0.1238 C   0  0  0  0  0  0  0  0  0  0  0  0
   33.7651   -1.0429   -0.6775 C   0  0  0  0  0  0  0  0  0  0  0  0
   34.4407   -2.1697   -1.2432 C   0  0  0  0  0  0  0  0  0  0  0  0
   33.4871   -2.9587   -1.7935 C   0  0  0  0  0  0  0  0  0  0  0  0
   32.2303   -2.3040   -1.5790 C   0  0  0  0  0  0  0  0  0  0  0  0
   32.4074   -1.1555   -0.8485 N   0  0  0  0  0  0  0  0  0  0  0  0
   31.0224   -2.7372   -2.1155 C   0  0  0  0  0  0  0  0  0  0  0  0
   31.0161   -3.9118   -3.0150 C   0  0  0  0  0  0  0  0  0  0  0  0
   31.7832   -3.9228   -4.1836 C   0  0  0  0  0  0  0  0  0  0  0  0
   31.7668   -5.0151   -5.0298 C   0  0  0  0  0  0  0  0  0  0  0  0
   30.9887   -6.1395   -4.7265 C   0  0  0  0  0  0  0  0  0  0  0  0
   30.9627   -7.1875   -5.6333 N   0  0  0  0  0  0  0  0  0  0  0  0
   30.5669   -8.5182   -5.1937 C   0  0  0  0  0  0  0  0  0  0  0  0
   30.2183   -6.1331   -3.5599 C   0  0  0  0  0  0  0  0  0  0  0  0
   30.2352   -5.0315   -2.7217 C   0  0  0  0  0  0  0  0  0  0  0  0
   29.8184   -2.0985   -1.8418 C   0  0  0  0  0  0  0  0  0  0  0  0
   28.5669   -2.4593   -2.4353 C   0  0  0  0  0  0  0  0  0  0  0  0
   27.6146   -1.7064   -1.8321 C   0  0  0  0  0  0  0  0  0  0  0  0
   29.6383   -1.0906   -0.9216 N   0  0  0  0  0  0  0  0  0  0  0  0
   28.2870   -0.8810   -0.8810 C   0  0  0  0  0  0  0  0  0  0  0  0
   27.6225   -0.0548    0.0296 C   0  0  0  0  0  0  0  0  0  0  0  0
   28.3027    0.7771    0.9236 C   0  0  0  0  0  0  0  0  0  0  0  0
   27.6489    1.5737    1.9112 C   0  0  0  0  0  0  0  0  0  0  0  0
   28.6070    2.3371    2.4916 C   0  0  0  0  0  0  0  0  0  0  0  0
   29.8422    2.0155    1.8438 C   0  0  0  0  0  0  0  0  0  0  0  0
   29.6498    1.0152    0.9174 N   0  0  0  0  0  0  0  0  0  0  0  0
   31.0376    2.6883    2.0689 C   0  0  0  0  0  0  0  0  0  0  0  0
   31.0362    3.8551    2.9784 C   0  0  0  0  0  0  0  0  0  0  0  0
   30.2008    4.9474    2.7357 C   0  0  0  0  0  0  0  0  0  0  0  0
   30.1859    6.0411    3.5841 C   0  0  0  0  0  0  0  0  0  0  0  0
   31.0143    6.0673    4.7098 C   0  0  0  0  0  0  0  0  0  0  0  0
   30.9956    7.1070    5.6270 N   0  0  0  0  0  0  0  0  0  0  0  0
   30.5366    8.4267    5.2160 C   0  0  0  0  0  0  0  0  0  0  0  0
   31.8485    4.9709    4.9621 C   0  0  0  0  0  0  0  0  0  0  0  0
   31.8619    3.8863    4.1059 C   0  0  0  0  0  0  0  0  0  0  0  0
   32.2304    2.3018    1.4670 C   0  0  0  0  0  0  0  0  0  0  0  0
   33.4726    3.0003    1.6185 C   0  0  0  0  0  0  0  0  0  0  0  0
   34.4220    2.2521    1.0071 C   0  0  0  0  0  0  0  0  0  0  0  0
   33.7575    1.1051    0.4695 C   0  0  0  0  0  0  0  0  0  0  0  0
   32.4083    1.1664    0.7166 N   0  0  0  0  0  0  0  0  0  0  0  0
   35.4940    0.0640   -0.1542 H   0  0  0  0  0  0  0  0  0  0  0  0
   35.5081   -2.3217   -1.2121 H   0  0  0  0  0  0  0  0  0  0  0  0
   33.6115   -3.9030   -2.2984 H   0  0  0  0  0  0  0  0  0  0  0  0
   32.3799   -3.0540   -4.4395 H   0  0  0  0  0  0  0  0  0  0  0  0
   32.3569   -5.0051   -5.9402 H   0  0  0  0  0  0  0  0  0  0  0  0
   31.7734   -7.2044   -6.2400 H   0  0  0  0  0  0  0  0  0  0  0  0
   29.5071   -8.5267   -4.9359 H   0  0  0  0  0  0  0  0  0  0  0  0
   31.1516   -8.8480   -4.3272 H   0  0  0  0  0  0  0  0  0  0  0  0
   30.7295   -9.2084   -6.0217 H   0  0  0  0  0  0  0  0  0  0  0  0
   29.6021   -6.9852   -3.3004 H   0  0  0  0  0  0  0  0  0  0  0  0
   29.6461   -5.0463   -1.8111 H   0  0  0  0  0  0  0  0  0  0  0  0
   28.4423   -3.1895   -3.2181 H   0  0  0  0  0  0  0  0  0  0  0  0
   26.5503   -1.7006   -2.0042 H   0  0  0  0  0  0  0  0  0  0  0  0
   26.5924    1.5412    2.1235 H   0  0  0  0  0  0  0  0  0  0  0  0
   28.4963    3.0509    3.2915 H   0  0  0  0  0  0  0  0  0  0  0  0
   29.5662    4.9474    1.8560 H   0  0  0  0  0  0  0  0  0  0  0  0
   29.5256    6.8711    3.3649 H   0  0  0  0  0  0  0  0  0  0  0  0
   31.8354    7.1479    6.1916 H   0  0  0  0  0  0  0  0  0  0  0  0
   31.0655    8.7779    4.3225 H   0  0  0  0  0  0  0  0  0  0  0  0
   30.7201    9.1181    6.0384 H   0  0  0  0  0  0  0  0  0  0  0  0
   29.4651    8.4032    5.0128 H   0  0  0  0  0  0  0  0  0  0  0  0
   32.4848    4.9764    5.8409 H   0  0  0  0  0  0  0  0  0  0  0  0
   32.5030    3.0388    4.3226 H   0  0  0  0  0  0  0  0  0  0  0  0
   33.5906    3.9444    2.1254 H   0  0  0  0  0  0  0  0  0  0  0  0
   35.4796    2.4438    0.9181 H   0  0  0  0  0  0  0  0  0  0  0  0
   23.6456   -0.0467    0.0661 C   0  0  0  0  0  0  0  0  0  0  0  0
   22.4243   -0.0337    0.0685 C   0  0  0  0  0  0  0  0  0  0  0  0
   24.9960   -0.0555    0.0595 C   0  0  0  0  0  0  0  0  0  0  0  0
   26.2174   -0.0602    0.0482 C   0  0  0  0  0  0  0  0  0  0  0  0
  2  3  4  0  0  0  0
  3  4  4  0  0  0  0
  4  5  2  0  0  0  0
  5  6  4  0  0  0  0
  1  7  1  0  0  0  0
  3  7  4  0  0  0  0
  6  7  4  0  0  0  0
  6  8  4  0  0  0  0
  8  9  1  0  0  0  0
  9 10  4  0  0  0  0
 10 11  4  0  0  0  0
 11 12  4  0  0  0  0
 12 13  1  0  0  0  0
 13 14  1  0  0  0  0
 12 15  4  0  0  0  0
  9 16  4  0  0  0  0
 15 16  4  0  0  0  0
  8 17  4  0  0  0  0
 17 18  4  0  0  0  0
 18 19  2  0  0  0  0
  1 20  1  0  0  0  0
 17 20  4  0  0  0  0
 19 21  4  0  0  0  0
 20 21  4  0  0  0  0
 21 22  4  0  0  0  0
 22 23  4  0  0  0  0
 23 24  4  0  0  0  0
 24 25  2  0  0  0  0
 25 26  4  0  0  0  0
  1 27  1  0  0  0  0
 23 27  4  0  0  0  0
 26 27  4  0  0  0  0
 26 28  4  0  0  0  0
 28 29  1  0  0  0  0
 29 30  4  0  0  0  0
 30 31  4  0  0  0  0
 31 32  4  0  0  0  0
 32 33  1  0  0  0  0
 33 34  1  0  0  0  0
 32 35  4  0  0  0  0
 29 36  4  0  0  0  0
 35 36  4  0  0  0  0
 28 37  4  0  0  0  0
 37 38  4  0  0  0  0
 38 39  2  0  0  0  0
  2 40  4  0  0  0  0
 39 40  4  0  0  0  0
  1 41  1  0  0  0  0
 37 41  4  0  0  0  0
 40 41  4  0  0  0  0
  2 42  1  0  0  0  0
  4 43  1  0  0  0  0
  5 44  1  0  0  0  0
 10 45  1  0  0  0  0
 11 46  1  0  0  0  0
 13 47  1  0  0  0  0
 14 48  1  0  0  0  0
 14 49  1  0  0  0  0
 14 50  1  0  0  0  0
 15 51  1  0  0  0  0
 16 52  1  0  0  0  0
 18 53  1  0  0  0  0
 19 54  1  0  0  0  0
 24 55  1  0  0  0  0
 25 56  1  0  0  0  0
 30 57  1  0  0  0  0
 31 58  1  0  0  0  0
 33 59  1  0  0  0  0
 34 60  1  0  0  0  0
 34 61  1  0  0  0  0
 34 62  1  0  0  0  0
 35 63  1  0  0  0  0
 36 64  1  0  0  0  0
 38 65  1  0  0  0  0
 39 66  1  0  0  0  0
 68 69  4  0  0  0  0
 69 70  4  0  0  0  0
 70 71  2  0  0  0  0
 71 72  4  0  0  0  0
 67 73  1  0  0  0  0
 69 73  4  0  0  0  0
 72 73  4  0  0  0  0
 72 74  4  0  0  0  0
 74 75  1  0  0  0  0
 75 76  4  0  0  0  0
 76 77  4  0  0  0  0
 77 78  4  0  0  0  0
 78 79  1  0  0  0  0
 79 80  1  0  0  0  0
 78 81  4  0  0  0  0
 75 82  4  0  0  0  0
 81 82  4  0  0  0  0
 74 83  4  0  0  0  0
 83 84  4  0  0  0  0
 84 85  2  0  0  0  0
 67 86  1  0  0  0  0
 83 86  4  0  0  0  0
 85 87  4  0  0  0  0
 86 87  4  0  0  0  0
 87 88  4  0  0  0  0
 88 89  4  0  0  0  0
 89 90  4  0  0  0  0
 90 91  2  0  0  0  0
 91 92  4  0  0  0  0
 67 93  1  0  0  0  0
 89 93  4  0  0  0  0
 92 93  4  0  0  0  0
 92 94  4  0  0  0  0
 94 95  1  0  0  0  0
 95 96  4  0  0  0  0
 96 97  4  0  0  0  0
 97 98  4  0  0  0  0
 98 99  1  0  0  0  0
 99100  1  0  0  0  0
 98101  4  0  0  0  0
 95102  4  0  0  0  0
101102  4  0  0  0  0
 94103  4  0  0  0  0
103104  4  0  0  0  0
104105  2  0  0  0  0
 68106  4  0  0  0  0
105106  4  0  0  0  0
 67107  1  0  0  0  0
103107  4  0  0  0  0
106107  4  0  0  0  0
 68108  1  0  0  0  0
 70109  1  0  0  0  0
 71110  1  0  0  0  0
 76111  1  0  0  0  0
 77112  1  0  0  0  0
 79113  1  0  0  0  0
 80114  1  0  0  0  0
 80115  1  0  0  0  0
 80116  1  0  0  0  0
 81117  1  0  0  0  0
 82118  1  0  0  0  0
 84119  1  0  0  0  0
 85120  1  0  0  0  0
 90121  1  0  0  0  0
 91122  1  0  0  0  0
 96123  1  0  0  0  0
 97124  1  0  0  0  0
 99125  1  0  0  0  0
100126  1  0  0  0  0
100127  1  0  0  0  0
100128  1  0  0  0  0
101129  1  0  0  0  0
102130  1  0  0  0  0
104131  1  0  0  0  0
105132  1  0  0  0  0
 22134  4  0  0  0  0
133134  3  0  0  0  0
133135  4  0  0  0  0
 88136  4  0  0  0  0
135136  3  0  0  0  0
M  END
