 xtb: 6.5.1 (b24c23e)
          07302208493D

254293  0     0  0            999 V2000
   34.0668    0.2814    0.2316 Zn  0  0  0  0  0  0  0  0  0  0  0  0
   30.6575    0.2530    0.1838 C   0  0  0  0  0  0  0  0  0  0  0  0
   31.2872   -0.9857    0.1509 C   0  0  0  0  0  0  0  0  0  0  0  0
   30.6129   -2.2533    0.1272 C   0  0  0  0  0  0  0  0  0  0  0  0
   31.5719   -3.2126    0.0986 C   0  0  0  0  0  0  0  0  0  0  0  0
   32.8451   -2.5424    0.0945 C   0  0  0  0  0  0  0  0  0  0  0  0
   32.6364   -1.1944    0.1364 N   0  0  0  0  0  0  0  0  0  0  0  0
   34.0959   -3.1720    0.0743 C   0  0  0  0  0  0  0  0  0  0  0  0
   34.1124   -4.6542   -0.0091 C   0  0  0  0  0  0  0  0  0  0  0  0
   33.6053   -5.3047   -1.0667 C   0  0  0  0  0  0  0  0  0  0  0  0
   33.5974   -6.8082   -1.1650 C   0  0  0  0  0  0  0  0  0  0  0  0
   34.5271   -7.4067   -0.2031 N   0  0  0  0  0  0  0  0  0  0  0  0
   34.8614   -6.7408    0.9482 C   0  0  0  0  0  0  0  0  0  0  0  0
   34.7144   -5.4107    1.0799 C   0  0  0  0  0  0  0  0  0  0  0  0
   35.3341   -2.5226    0.1241 C   0  0  0  0  0  0  0  0  0  0  0  0
   36.6139   -3.1730    0.0684 C   0  0  0  0  0  0  0  0  0  0  0  0
   37.5604   -2.2018    0.1286 C   0  0  0  0  0  0  0  0  0  0  0  0
   35.5280   -1.1689    0.2059 N   0  0  0  0  0  0  0  0  0  0  0  0
   36.8697   -0.9486    0.2135 C   0  0  0  0  0  0  0  0  0  0  0  0
   37.5000    0.3097    0.2909 C   0  0  0  0  0  0  0  0  0  0  0  0
   36.8461    1.5575    0.3431 C   0  0  0  0  0  0  0  0  0  0  0  0
   37.5124    2.8226    0.4464 C   0  0  0  0  0  0  0  0  0  0  0  0
   36.5485    3.7781    0.4665 C   0  0  0  0  0  0  0  0  0  0  0  0
   35.2825    3.1059    0.3691 C   0  0  0  0  0  0  0  0  0  0  0  0
   35.5015    1.7554    0.3021 N   0  0  0  0  0  0  0  0  0  0  0  0
   34.0333    3.7357    0.3728 C   0  0  0  0  0  0  0  0  0  0  0  0
   34.0266    5.2191    0.4341 C   0  0  0  0  0  0  0  0  0  0  0  0
   33.4800    5.8815    1.4642 C   0  0  0  0  0  0  0  0  0  0  0  0
   33.4511    7.3865    1.5346 C   0  0  0  0  0  0  0  0  0  0  0  0
   34.4029    7.9796    0.5912 N   0  0  0  0  0  0  0  0  0  0  0  0
   34.7804    7.2977   -0.5372 C   0  0  0  0  0  0  0  0  0  0  0  0
   34.6526    5.9640   -0.6495 C   0  0  0  0  0  0  0  0  0  0  0  0
   32.7941    3.0856    0.3220 C   0  0  0  0  0  0  0  0  0  0  0  0
   31.5103    3.7339    0.2808 C   0  0  0  0  0  0  0  0  0  0  0  0
   30.5688    2.7582    0.2325 C   0  0  0  0  0  0  0  0  0  0  0  0
   31.2650    1.5022    0.2318 C   0  0  0  0  0  0  0  0  0  0  0  0
   32.6096    1.7339    0.2816 N   0  0  0  0  0  0  0  0  0  0  0  0
   29.5719    0.2438    0.1691 H   0  0  0  0  0  0  0  0  0  0  0  0
   29.5416   -2.3815    0.1394 H   0  0  0  0  0  0  0  0  0  0  0  0
   31.4341   -4.2821    0.0928 H   0  0  0  0  0  0  0  0  0  0  0  0
   33.1582   -4.7766   -1.9009 H   0  0  0  0  0  0  0  0  0  0  0  0
   33.9027   -7.1232   -2.1720 H   0  0  0  0  0  0  0  0  0  0  0  0
   32.5753   -7.1969   -0.9973 H   0  0  0  0  0  0  0  0  0  0  0  0
   34.4450   -8.4105   -0.1286 H   0  0  0  0  0  0  0  0  0  0  0  0
   35.3312   -7.3562    1.7089 H   0  0  0  0  0  0  0  0  0  0  0  0
   35.0306   -4.8946    1.9753 H   0  0  0  0  0  0  0  0  0  0  0  0
   36.7662   -4.2372   -0.0133 H   0  0  0  0  0  0  0  0  0  0  0  0
   38.6329   -2.3150    0.1112 H   0  0  0  0  0  0  0  0  0  0  0  0
   38.5813    2.9547    0.5021 H   0  0  0  0  0  0  0  0  0  0  0  0
   36.6801    4.8451    0.5479 H   0  0  0  0  0  0  0  0  0  0  0  0
   33.0150    5.3629    2.2945 H   0  0  0  0  0  0  0  0  0  0  0  0
   33.7211    7.7232    2.5446 H   0  0  0  0  0  0  0  0  0  0  0  0
   32.4301    7.7592    1.3284 H   0  0  0  0  0  0  0  0  0  0  0  0
   34.3108    8.9807    0.4959 H   0  0  0  0  0  0  0  0  0  0  0  0
   35.2668    7.9051   -1.2939 H   0  0  0  0  0  0  0  0  0  0  0  0
   35.0029    5.4359   -1.5250 H   0  0  0  0  0  0  0  0  0  0  0  0
   31.3544    4.8009    0.2782 H   0  0  0  0  0  0  0  0  0  0  0  0
   29.4962    2.8679    0.1921 H   0  0  0  0  0  0  0  0  0  0  0  0
   89.7970    0.2633    0.2541 Zn  0  0  0  0  0  0  0  0  0  0  0  0
   93.1997    0.4645    0.3182 C   0  0  0  0  0  0  0  0  0  0  0  0
   92.5066    1.6570    0.4901 C   0  0  0  0  0  0  0  0  0  0  0  0
   93.1135    2.9382    0.7185 C   0  0  0  0  0  0  0  0  0  0  0  0
   92.1062    3.8394    0.8362 C   0  0  0  0  0  0  0  0  0  0  0  0
   90.8705    3.1212    0.6701 C   0  0  0  0  0  0  0  0  0  0  0  0
   91.1489    1.8000    0.4716 N   0  0  0  0  0  0  0  0  0  0  0  0
   89.5889    3.6826    0.7250 C   0  0  0  0  0  0  0  0  0  0  0  0
   89.4917    5.1505    0.9251 C   0  0  0  0  0  0  0  0  0  0  0  0
   89.9855    6.0197    0.0310 C   0  0  0  0  0  0  0  0  0  0  0  0
   89.9084    7.5119    0.2254 C   0  0  0  0  0  0  0  0  0  0  0  0
   88.9205    7.8625    1.2496 N   0  0  0  0  0  0  0  0  0  0  0  0
   88.5978    6.9691    2.2388 C   0  0  0  0  0  0  0  0  0  0  0  0
   88.8203    5.6487    2.1176 C   0  0  0  0  0  0  0  0  0  0  0  0
   88.3868    2.9763    0.6097 C   0  0  0  0  0  0  0  0  0  0  0  0
   87.0763    3.5646    0.6264 C   0  0  0  0  0  0  0  0  0  0  0  0
   86.1816    2.5549    0.4768 C   0  0  0  0  0  0  0  0  0  0  0  0
   88.2631    1.6229    0.4382 N   0  0  0  0  0  0  0  0  0  0  0  0
   86.9353    1.3411    0.3598 C   0  0  0  0  0  0  0  0  0  0  0  0
   86.3701    0.0596    0.1973 C   0  0  0  0  0  0  0  0  0  0  0  0
   87.0867   -1.1449    0.0516 C   0  0  0  0  0  0  0  0  0  0  0  0
   86.4855   -2.4384   -0.0904 C   0  0  0  0  0  0  0  0  0  0  0  0
   87.4978   -3.3350   -0.2101 C   0  0  0  0  0  0  0  0  0  0  0  0
   88.7287   -2.5964   -0.1484 C   0  0  0  0  0  0  0  0  0  0  0  0
   88.4405   -1.2676    0.0173 N   0  0  0  0  0  0  0  0  0  0  0  0
   90.0095   -3.1553   -0.2174 C   0  0  0  0  0  0  0  0  0  0  0  0
   90.0963   -4.6243   -0.4139 C   0  0  0  0  0  0  0  0  0  0  0  0
   90.6611   -5.4262    0.5008 C   0  0  0  0  0  0  0  0  0  0  0  0
   90.7754   -6.9165    0.3102 C   0  0  0  0  0  0  0  0  0  0  0  0
   89.8733   -7.3861   -0.7448 N   0  0  0  0  0  0  0  0  0  0  0  0
   89.4782   -6.5395   -1.7489 C   0  0  0  0  0  0  0  0  0  0  0  0
   89.5328   -5.2016   -1.6264 C   0  0  0  0  0  0  0  0  0  0  0  0
   91.2132   -2.4466   -0.1162 C   0  0  0  0  0  0  0  0  0  0  0  0
   92.5302   -3.0140   -0.2344 C   0  0  0  0  0  0  0  0  0  0  0  0
   93.4195   -2.0010   -0.0802 C   0  0  0  0  0  0  0  0  0  0  0  0
   92.6581   -0.8006    0.1226 C   0  0  0  0  0  0  0  0  0  0  0  0
   91.3269   -1.1023    0.0898 N   0  0  0  0  0  0  0  0  0  0  0  0
   94.2834    0.5282    0.3389 H   0  0  0  0  0  0  0  0  0  0  0  0
   94.1760    3.1131    0.7866 H   0  0  0  0  0  0  0  0  0  0  0  0
   92.1872    4.8971    1.0295 H   0  0  0  0  0  0  0  0  0  0  0  0
   90.4817    5.6882   -0.8737 H   0  0  0  0  0  0  0  0  0  0  0  0
   89.6118    8.0007   -0.7124 H   0  0  0  0  0  0  0  0  0  0  0  0
   90.9014    7.9132    0.5028 H   0  0  0  0  0  0  0  0  0  0  0  0
   88.9420    8.8355    1.5190 H   0  0  0  0  0  0  0  0  0  0  0  0
   88.0732    7.3992    3.0862 H   0  0  0  0  0  0  0  0  0  0  0  0
   88.5125    4.9525    2.8849 H   0  0  0  0  0  0  0  0  0  0  0  0
   86.8698    4.6175    0.7320 H   0  0  0  0  0  0  0  0  0  0  0  0
   85.1056    2.6196    0.4420 H   0  0  0  0  0  0  0  0  0  0  0  0
   85.4238   -2.6280   -0.0922 H   0  0  0  0  0  0  0  0  0  0  0  0
   87.4208   -4.4045   -0.3232 H   0  0  0  0  0  0  0  0  0  0  0  0
   91.0812   -5.0359    1.4206 H   0  0  0  0  0  0  0  0  0  0  0  0
   90.5105   -7.4385    1.2395 H   0  0  0  0  0  0  0  0  0  0  0  0
   91.8192   -7.1916    0.0675 H   0  0  0  0  0  0  0  0  0  0  0  0
   90.0231   -8.3493   -1.0087 H   0  0  0  0  0  0  0  0  0  0  0  0
   89.0403   -7.0311   -2.6118 H   0  0  0  0  0  0  0  0  0  0  0  0
   89.1694   -4.5489   -2.4075 H   0  0  0  0  0  0  0  0  0  0  0  0
   92.7428   -4.0541   -0.4229 H   0  0  0  0  0  0  0  0  0  0  0  0
   94.4970   -2.0496   -0.1078 H   0  0  0  0  0  0  0  0  0  0  0  0
   38.9049    0.3262    0.3177 C   0  0  0  0  0  0  0  0  0  0  0  0
   40.1289    0.3583    0.3432 C   0  0  0  0  0  0  0  0  0  0  0  0
   41.4705    0.4034    0.3757 C   0  0  0  0  0  0  0  0  0  0  0  0
   42.6994    0.4647    0.4061 C   0  0  0  0  0  0  0  0  0  0  0  0
   44.0350    0.5348    0.4473 C   0  0  0  0  0  0  0  0  0  0  0  0
   45.2630    0.6064    0.4904 C   0  0  0  0  0  0  0  0  0  0  0  0
   46.6020    0.6939    0.5374 C   0  0  0  0  0  0  0  0  0  0  0  0
   47.8230    0.7785    0.5840 C   0  0  0  0  0  0  0  0  0  0  0  0
   57.4916    1.3157    0.9302 C   0  0  0  0  0  0  0  0  0  0  0  0
   58.7163    1.3518    0.9539 C   0  0  0  0  0  0  0  0  0  0  0  0
   60.0578    1.3773    0.9738 C   0  0  0  0  0  0  0  0  0  0  0  0
   61.2892    1.3858    0.9814 C   0  0  0  0  0  0  0  0  0  0  0  0
   62.6264    1.3721    0.9859 C   0  0  0  0  0  0  0  0  0  0  0  0
   63.8576    1.3498    0.9768 C   0  0  0  0  0  0  0  0  0  0  0  0
   65.1985    1.2983    0.9591 C   0  0  0  0  0  0  0  0  0  0  0  0
   66.4222    1.2384    0.9360 C   0  0  0  0  0  0  0  0  0  0  0  0
   76.0492    0.2784    0.4303 C   0  0  0  0  0  0  0  0  0  0  0  0
   77.2675    0.1693    0.3656 C   0  0  0  0  0  0  0  0  0  0  0  0
   78.6051    0.0700    0.3061 C   0  0  0  0  0  0  0  0  0  0  0  0
   79.8331    0.0002    0.2597 C   0  0  0  0  0  0  0  0  0  0  0  0
   81.1698   -0.0469    0.2224 C   0  0  0  0  0  0  0  0  0  0  0  0
   82.4000   -0.0669    0.1974 C   0  0  0  0  0  0  0  0  0  0  0  0
   83.7427   -0.0512    0.1856 C   0  0  0  0  0  0  0  0  0  0  0  0
   84.9669   -0.0162    0.1859 C   0  0  0  0  0  0  0  0  0  0  0  0
   52.6547    1.0728    0.7748 Zn  0  0  0  0  0  0  0  0  0  0  0  0
   49.2237    0.8666    0.6407 C   0  0  0  0  0  0  0  0  0  0  0  0
   49.8596    1.6600   -0.3362 C   0  0  0  0  0  0  0  0  0  0  0  0
   49.1758    2.4013   -1.3538 C   0  0  0  0  0  0  0  0  0  0  0  0
   50.1263    3.0237   -2.0976 C   0  0  0  0  0  0  0  0  0  0  0  0
   51.4011    2.6596   -1.5459 C   0  0  0  0  0  0  0  0  0  0  0  0
   51.2011    1.8373   -0.4689 N   0  0  0  0  0  0  0  0  0  0  0  0
   52.6429    3.0894   -2.0256 C   0  0  0  0  0  0  0  0  0  0  0  0
   52.6450    3.9478   -3.2370 C   0  0  0  0  0  0  0  0  0  0  0  0
   52.1863    3.5001   -4.4153 C   0  0  0  0  0  0  0  0  0  0  0  0
   52.2301    4.3323   -5.6698 C   0  0  0  0  0  0  0  0  0  0  0  0
   52.4449    5.7482   -5.3598 N   0  0  0  0  0  0  0  0  0  0  0  0
   53.0594    6.1245   -4.1939 C   0  0  0  0  0  0  0  0  0  0  0  0
   53.1591    5.3056   -3.1319 C   0  0  0  0  0  0  0  0  0  0  0  0
   53.8884    2.7773   -1.4699 C   0  0  0  0  0  0  0  0  0  0  0  0
   55.1579    3.1838   -2.0033 C   0  0  0  0  0  0  0  0  0  0  0  0
   56.1169    2.6711   -1.1897 C   0  0  0  0  0  0  0  0  0  0  0  0
   54.0993    2.0166   -0.3507 N   0  0  0  0  0  0  0  0  0  0  0  0
   55.4429    1.9415   -0.1571 C   0  0  0  0  0  0  0  0  0  0  0  0
   56.0895    1.2577    0.8933 C   0  0  0  0  0  0  0  0  0  0  0  0
   55.4487    0.5106    1.9038 C   0  0  0  0  0  0  0  0  0  0  0  0
   56.1250   -0.1455    2.9829 C   0  0  0  0  0  0  0  0  0  0  0  0
   55.1737   -0.7619    3.7309 C   0  0  0  0  0  0  0  0  0  0  0  0
   53.9074   -0.4961    3.1085 C   0  0  0  0  0  0  0  0  0  0  0  0
   54.1109    0.2913    2.0061 N   0  0  0  0  0  0  0  0  0  0  0  0
   52.6684   -0.9577    3.5655 C   0  0  0  0  0  0  0  0  0  0  0  0
   52.6688   -1.8421    4.7584 C   0  0  0  0  0  0  0  0  0  0  0  0
   53.2644   -3.0436    4.7426 C   0  0  0  0  0  0  0  0  0  0  0  0
   53.2882   -3.9524    5.9439 C   0  0  0  0  0  0  0  0  0  0  0  0
   52.3009   -3.5374    6.9444 N   0  0  0  0  0  0  0  0  0  0  0  0
   51.8659   -2.2386    7.0005 C   0  0  0  0  0  0  0  0  0  0  0  0
   51.9853   -1.3920    5.9627 C   0  0  0  0  0  0  0  0  0  0  0  0
   51.4246   -0.6640    2.9961 C   0  0  0  0  0  0  0  0  0  0  0  0
   50.1636   -1.1782    3.4513 C   0  0  0  0  0  0  0  0  0  0  0  0
   49.2055   -0.6706    2.6339 C   0  0  0  0  0  0  0  0  0  0  0  0
   49.8723    0.1520    1.6683 C   0  0  0  0  0  0  0  0  0  0  0  0
   51.2111    0.1362    1.9054 N   0  0  0  0  0  0  0  0  0  0  0  0
   48.1048    2.4414   -1.4737 H   0  0  0  0  0  0  0  0  0  0  0  0
   49.9791    3.6801   -2.9400 H   0  0  0  0  0  0  0  0  0  0  0  0
   51.8262    2.4851   -4.5381 H   0  0  0  0  0  0  0  0  0  0  0  0
   53.0275    3.9659   -6.3436 H   0  0  0  0  0  0  0  0  0  0  0  0
   51.2804    4.2441   -6.2150 H   0  0  0  0  0  0  0  0  0  0  0  0
   52.6365    6.3194   -6.1701 H   0  0  0  0  0  0  0  0  0  0  0  0
   53.3829    7.1603   -4.1661 H   0  0  0  0  0  0  0  0  0  0  0  0
   53.5772    5.6467   -2.1955 H   0  0  0  0  0  0  0  0  0  0  0  0
   55.2968    3.7771   -2.8929 H   0  0  0  0  0  0  0  0  0  0  0  0
   57.1872    2.7696   -1.2781 H   0  0  0  0  0  0  0  0  0  0  0  0
   57.1908   -0.1260    3.1464 H   0  0  0  0  0  0  0  0  0  0  0  0
   55.3146   -1.3369    4.6319 H   0  0  0  0  0  0  0  0  0  0  0  0
   53.7755   -3.4154    3.8621 H   0  0  0  0  0  0  0  0  0  0  0  0
   54.2994   -3.9657    6.3922 H   0  0  0  0  0  0  0  0  0  0  0  0
   53.0540   -4.9827    5.6432 H   0  0  0  0  0  0  0  0  0  0  0  0
   52.3918   -4.0154    7.8292 H   0  0  0  0  0  0  0  0  0  0  0  0
   51.3440   -1.9738    7.9147 H   0  0  0  0  0  0  0  0  0  0  0  0
   51.5898   -0.3871    6.0063 H   0  0  0  0  0  0  0  0  0  0  0  0
   50.0310   -1.8476    4.2860 H   0  0  0  0  0  0  0  0  0  0  0  0
   48.1408   -0.8379    2.6720 H   0  0  0  0  0  0  0  0  0  0  0  0
   71.2426    0.8105    0.7227 Zn  0  0  0  0  0  0  0  0  0  0  0  0
   67.8218    1.1393    0.8908 C   0  0  0  0  0  0  0  0  0  0  0  0
   68.4842    1.8287   -0.1464 C   0  0  0  0  0  0  0  0  0  0  0  0
   67.8371    2.6771   -1.1025 C   0  0  0  0  0  0  0  0  0  0  0  0
   68.8048    3.1583   -1.9248 C   0  0  0  0  0  0  0  0  0  0  0  0
   70.0509    2.5947   -1.4872 C   0  0  0  0  0  0  0  0  0  0  0  0
   69.8201    1.7996   -0.3955 N   0  0  0  0  0  0  0  0  0  0  0  0
   71.2972    2.8284   -2.0772 C   0  0  0  0  0  0  0  0  0  0  0  0
   71.3330    3.7106   -3.2708 C   0  0  0  0  0  0  0  0  0  0  0  0
   70.7054    3.3847   -4.4105 C   0  0  0  0  0  0  0  0  0  0  0  0
   70.7739    4.2454   -5.6447 C   0  0  0  0  0  0  0  0  0  0  0  0
   71.2311    5.5994   -5.3210 N   0  0  0  0  0  0  0  0  0  0  0  0
   72.0040    5.8293   -4.2127 C   0  0  0  0  0  0  0  0  0  0  0  0
   72.0690    4.9639   -3.1856 C   0  0  0  0  0  0  0  0  0  0  0  0
   72.5201    2.3047   -1.6434 C   0  0  0  0  0  0  0  0  0  0  0  0
   73.7826    2.5015   -2.2981 C   0  0  0  0  0  0  0  0  0  0  0  0
   74.7159    1.8260   -1.5792 C   0  0  0  0  0  0  0  0  0  0  0  0
   72.7067    1.5045   -0.5480 N   0  0  0  0  0  0  0  0  0  0  0  0
   74.0319    1.2070   -0.4828 C   0  0  0  0  0  0  0  0  0  0  0  0
   74.6545    0.4244    0.5110 C   0  0  0  0  0  0  0  0  0  0  0  0
   74.0010   -0.2076    1.5886 C   0  0  0  0  0  0  0  0  0  0  0  0
   74.6629   -0.9575    2.6143 C   0  0  0  0  0  0  0  0  0  0  0  0
   73.7024   -1.3920    3.4703 C   0  0  0  0  0  0  0  0  0  0  0  0
   72.4423   -0.9216    2.9675 C   0  0  0  0  0  0  0  0  0  0  0  0
   72.6622   -0.1968    1.8262 N   0  0  0  0  0  0  0  0  0  0  0  0
   71.1959   -1.1531    3.5596 C   0  0  0  0  0  0  0  0  0  0  0  0
   71.1680   -1.9857    4.7887 C   0  0  0  0  0  0  0  0  0  0  0  0
   71.5570   -3.2691    4.7836 C   0  0  0  0  0  0  0  0  0  0  0  0
   71.5494   -4.1215    6.0261 C   0  0  0  0  0  0  0  0  0  0  0  0
   70.7280   -3.5175    7.0788 N   0  0  0  0  0  0  0  0  0  0  0  0
   70.5178   -2.1630    7.1075 C   0  0  0  0  0  0  0  0  0  0  0  0
   70.6820   -1.3851    6.0231 C   0  0  0  0  0  0  0  0  0  0  0  0
   69.9673   -0.6683    3.0975 C   0  0  0  0  0  0  0  0  0  0  0  0
   68.6895   -0.9638    3.6817 C   0  0  0  0  0  0  0  0  0  0  0  0
   67.7503   -0.3323    2.9316 C   0  0  0  0  0  0  0  0  0  0  0  0
   68.4445    0.3531    1.8822 C   0  0  0  0  0  0  0  0  0  0  0  0
   69.7807    0.1320    2.0017 N   0  0  0  0  0  0  0  0  0  0  0  0
   66.7788    2.8829   -1.1283 H   0  0  0  0  0  0  0  0  0  0  0  0
   68.6885    3.8416   -2.7505 H   0  0  0  0  0  0  0  0  0  0  0  0
   70.1749    2.4461   -4.5212 H   0  0  0  0  0  0  0  0  0  0  0  0
   71.4457    3.7866   -6.3946 H   0  0  0  0  0  0  0  0  0  0  0  0
   69.7800    4.3242   -6.1058 H   0  0  0  0  0  0  0  0  0  0  0  0
   71.4329    6.1668   -6.1316 H   0  0  0  0  0  0  0  0  0  0  0  0
   72.4900    6.7996   -4.1915 H   0  0  0  0  0  0  0  0  0  0  0  0
   72.6223    5.1970   -2.2869 H   0  0  0  0  0  0  0  0  0  0  0  0
   73.9322    3.0743   -3.1993 H   0  0  0  0  0  0  0  0  0  0  0  0
   75.7741    1.7454   -1.7712 H   0  0  0  0  0  0  0  0  0  0  0  0
   75.7277   -1.1191    2.6712 H   0  0  0  0  0  0  0  0  0  0  0  0
   73.8358   -1.9710    4.3699 H   0  0  0  0  0  0  0  0  0  0  0  0
   71.9136   -3.7543    3.8825 H   0  0  0  0  0  0  0  0  0  0  0  0
   72.5826   -4.2732    6.3912 H   0  0  0  0  0  0  0  0  0  0  0  0
   71.1361   -5.1140    5.8014 H   0  0  0  0  0  0  0  0  0  0  0  0
   70.8153   -3.9737    7.9754 H   0  0  0  0  0  0  0  0  0  0  0  0
   70.1285   -1.7831    8.0468 H   0  0  0  0  0  0  0  0  0  0  0  0
   70.4619   -0.3273    6.0492 H   0  0  0  0  0  0  0  0  0  0  0  0
   68.5323   -1.5833    4.5500 H   0  0  0  0  0  0  0  0  0  0  0  0
   66.6807   -0.3278    3.0696 H   0  0  0  0  0  0  0  0  0  0  0  0
  2  3  4  0  0  0  0
  3  4  1  0  0  0  0
  4  5  2  0  0  0  0
  5  6  4  0  0  0  0
  1  7  1  0  0  0  0
  3  7  4  0  0  0  0
  6  7  4  0  0  0  0
  6  8  4  0  0  0  0
  8  9  1  0  0  0  0
  9 10  2  0  0  0  0
 10 11  1  0  0  0  0
 11 12  1  0  0  0  0
 12 13  1  0  0  0  0
  9 14  1  0  0  0  0
 13 14  2  0  0  0  0
  8 15  4  0  0  0  0
 15 16  4  0  0  0  0
 16 17  2  0  0  0  0
  1 18  1  0  0  0  0
 15 18  4  0  0  0  0
 17 19  4  0  0  0  0
 18 19  4  0  0  0  0
 19 20  4  0  0  0  0
 20 21  4  0  0  0  0
 21 22  4  0  0  0  0
 22 23  2  0  0  0  0
 23 24  4  0  0  0  0
  1 25  1  0  0  0  0
 21 25  4  0  0  0  0
 24 25  4  0  0  0  0
 24 26  4  0  0  0  0
 26 27  1  0  0  0  0
 27 28  2  0  0  0  0
 28 29  1  0  0  0  0
 29 30  1  0  0  0  0
 30 31  1  0  0  0  0
 27 32  1  0  0  0  0
 31 32  2  0  0  0  0
 26 33  4  0  0  0  0
 33 34  4  0  0  0  0
 34 35  2  0  0  0  0
  2 36  4  0  0  0  0
 35 36  1  0  0  0  0
  1 37  1  0  0  0  0
 33 37  4  0  0  0  0
 36 37  4  0  0  0  0
  2 38  1  0  0  0  0
  4 39  1  0  0  0  0
  5 40  1  0  0  0  0
 10 41  1  0  0  0  0
 11 42  1  0  0  0  0
 11 43  1  0  0  0  0
 12 44  1  0  0  0  0
 13 45  1  0  0  0  0
 14 46  1  0  0  0  0
 16 47  1  0  0  0  0
 17 48  1  0  0  0  0
 22 49  1  0  0  0  0
 23 50  1  0  0  0  0
 28 51  1  0  0  0  0
 29 52  1  0  0  0  0
 29 53  1  0  0  0  0
 30 54  1  0  0  0  0
 31 55  1  0  0  0  0
 32 56  1  0  0  0  0
 34 57  1  0  0  0  0
 35 58  1  0  0  0  0
 60 61  4  0  0  0  0
 61 62  1  0  0  0  0
 62 63  2  0  0  0  0
 63 64  4  0  0  0  0
 59 65  1  0  0  0  0
 61 65  4  0  0  0  0
 64 65  4  0  0  0  0
 64 66  4  0  0  0  0
 66 67  1  0  0  0  0
 67 68  2  0  0  0  0
 68 69  1  0  0  0  0
 69 70  1  0  0  0  0
 70 71  1  0  0  0  0
 67 72  1  0  0  0  0
 71 72  2  0  0  0  0
 66 73  4  0  0  0  0
 73 74  4  0  0  0  0
 74 75  2  0  0  0  0
 59 76  1  0  0  0  0
 73 76  4  0  0  0  0
 75 77  4  0  0  0  0
 76 77  4  0  0  0  0
 77 78  4  0  0  0  0
 78 79  4  0  0  0  0
 79 80  4  0  0  0  0
 80 81  2  0  0  0  0
 81 82  4  0  0  0  0
 59 83  1  0  0  0  0
 79 83  4  0  0  0  0
 82 83  4  0  0  0  0
 82 84  4  0  0  0  0
 84 85  1  0  0  0  0
 85 86  2  0  0  0  0
 86 87  1  0  0  0  0
 87 88  1  0  0  0  0
 88 89  1  0  0  0  0
 85 90  1  0  0  0  0
 89 90  2  0  0  0  0
 84 91  4  0  0  0  0
 91 92  4  0  0  0  0
 92 93  2  0  0  0  0
 60 94  4  0  0  0  0
 93 94  1  0  0  0  0
 59 95  1  0  0  0  0
 91 95  4  0  0  0  0
 94 95  4  0  0  0  0
 60 96  1  0  0  0  0
 62 97  1  0  0  0  0
 63 98  1  0  0  0  0
 68 99  1  0  0  0  0
 69100  1  0  0  0  0
 69101  1  0  0  0  0
 70102  1  0  0  0  0
 71103  1  0  0  0  0
 72104  1  0  0  0  0
 74105  1  0  0  0  0
 75106  1  0  0  0  0
 80107  1  0  0  0  0
 81108  1  0  0  0  0
 86109  1  0  0  0  0
 87110  1  0  0  0  0
 87111  1  0  0  0  0
 88112  1  0  0  0  0
 89113  1  0  0  0  0
 90114  1  0  0  0  0
 92115  1  0  0  0  0
 93116  1  0  0  0  0
 20117  4  0  0  0  0
117118  3  0  0  0  0
118119  4  0  0  0  0
119120  3  0  0  0  0
120121  4  0  0  0  0
121122  3  0  0  0  0
122123  4  0  0  0  0
123124  3  0  0  0  0
125126  3  0  0  0  0
126127  4  0  0  0  0
127128  3  0  0  0  0
128129  4  0  0  0  0
129130  3  0  0  0  0
130131  4  0  0  0  0
131132  3  0  0  0  0
133134  3  0  0  0  0
134135  4  0  0  0  0
135136  3  0  0  0  0
136137  4  0  0  0  0
137138  3  0  0  0  0
138139  4  0  0  0  0
 78140  4  0  0  0  0
139140  3  0  0  0  0
124142  4  0  0  0  0
142143  4  0  0  0  0
143144  4  0  0  0  0
144145  2  0  0  0  0
145146  4  0  0  0  0
141147  1  0  0  0  0
143147  4  0  0  0  0
146147  4  0  0  0  0
146148  4  0  0  0  0
148149  1  0  0  0  0
149150  2  0  0  0  0
150151  1  0  0  0  0
151152  1  0  0  0  0
152153  1  0  0  0  0
149154  1  0  0  0  0
153154  2  0  0  0  0
148155  4  0  0  0  0
155156  4  0  0  0  0
156157  2  0  0  0  0
141158  1  0  0  0  0
155158  4  0  0  0  0
157159  4  0  0  0  0
158159  4  0  0  0  0
125160  4  0  0  0  0
159160  4  0  0  0  0
160161  4  0  0  0  0
161162  4  0  0  0  0
162163  2  0  0  0  0
163164  4  0  0  0  0
141165  1  0  0  0  0
161165  4  0  0  0  0
164165  4  0  0  0  0
164166  4  0  0  0  0
166167  1  0  0  0  0
167168  2  0  0  0  0
168169  1  0  0  0  0
169170  1  0  0  0  0
170171  1  0  0  0  0
167172  1  0  0  0  0
171172  2  0  0  0  0
166173  4  0  0  0  0
173174  4  0  0  0  0
174175  2  0  0  0  0
142176  4  0  0  0  0
175176  4  0  0  0  0
141177  1  0  0  0  0
173177  4  0  0  0  0
176177  4  0  0  0  0
144178  1  0  0  0  0
145179  1  0  0  0  0
150180  1  0  0  0  0
151181  1  0  0  0  0
151182  1  0  0  0  0
152183  1  0  0  0  0
153184  1  0  0  0  0
154185  1  0  0  0  0
156186  1  0  0  0  0
157187  1  0  0  0  0
162188  1  0  0  0  0
163189  1  0  0  0  0
168190  1  0  0  0  0
169191  1  0  0  0  0
169192  1  0  0  0  0
170193  1  0  0  0  0
171194  1  0  0  0  0
172195  1  0  0  0  0
174196  1  0  0  0  0
175197  1  0  0  0  0
132199  4  0  0  0  0
199200  4  0  0  0  0
200201  4  0  0  0  0
201202  2  0  0  0  0
202203  4  0  0  0  0
198204  1  0  0  0  0
200204  4  0  0  0  0
203204  4  0  0  0  0
203205  4  0  0  0  0
205206  1  0  0  0  0
206207  2  0  0  0  0
207208  1  0  0  0  0
208209  1  0  0  0  0
209210  1  0  0  0  0
206211  1  0  0  0  0
210211  2  0  0  0  0
205212  4  0  0  0  0
212213  4  0  0  0  0
213214  2  0  0  0  0
198215  1  0  0  0  0
212215  4  0  0  0  0
214216  4  0  0  0  0
215216  4  0  0  0  0
133217  4  0  0  0  0
216217  4  0  0  0  0
217218  4  0  0  0  0
218219  4  0  0  0  0
219220  2  0  0  0  0
220221  4  0  0  0  0
198222  1  0  0  0  0
218222  4  0  0  0  0
221222  4  0  0  0  0
221223  4  0  0  0  0
223224  1  0  0  0  0
224225  2  0  0  0  0
225226  1  0  0  0  0
226227  1  0  0  0  0
227228  1  0  0  0  0
224229  1  0  0  0  0
228229  2  0  0  0  0
223230  4  0  0  0  0
230231  4  0  0  0  0
231232  2  0  0  0  0
199233  4  0  0  0  0
232233  4  0  0  0  0
198234  1  0  0  0  0
230234  4  0  0  0  0
233234  4  0  0  0  0
201235  1  0  0  0  0
202236  1  0  0  0  0
207237  1  0  0  0  0
208238  1  0  0  0  0
208239  1  0  0  0  0
209240  1  0  0  0  0
210241  1  0  0  0  0
211242  1  0  0  0  0
213243  1  0  0  0  0
214244  1  0  0  0  0
219245  1  0  0  0  0
220246  1  0  0  0  0
225247  1  0  0  0  0
226248  1  0  0  0  0
226249  1  0  0  0  0
227250  1  0  0  0  0
228251  1  0  0  0  0
229252  1  0  0  0  0
231253  1  0  0  0  0
232254  1  0  0  0  0
M  END
