254

Zn 36.579444 0.402087 0.301744
C 33.244901 0.275922 0.260085
C 33.905793 -0.885477 0.260853
C 33.253908 -2.188159 0.311250
C 34.192602 -3.115048 0.256394
C 35.497487 -2.447041 0.157142
N 35.321888 -1.029654 0.171519
C 36.687925 -3.073246 0.042279
C 36.739167 -4.553895 -0.007001
C 36.268465 -5.214549 -1.075815
C 36.257605 -6.720189 -1.150006
N 37.061267 -7.337652 -0.091880
C 37.508020 -6.609369 1.056448
C 37.358837 -5.288019 1.113079
C 37.978316 -2.338702 -0.034909
C 39.258596 -2.968235 -0.382384
C 40.193100 -2.040767 -0.322106
N 38.124085 -1.075596 0.224340
C 39.517102 -0.808565 0.063705
C 40.113113 0.371113 0.303298
C 39.349090 1.580394 0.678636
C 39.873222 2.642000 1.278567
C 38.831114 3.647851 1.361894
C 37.741183 3.134113 0.802140
N 37.979329 1.802269 0.344578
C 36.470057 3.874871 0.601526
C 36.509278 5.358766 0.606857
C 35.832611 6.057204 1.533872
C 35.808182 7.564260 1.545150
N 36.814971 8.147385 0.654559
C 37.491254 7.378994 -0.346498
C 37.352694 6.055666 -0.384390
C 35.308714 3.226476 0.387975
C 34.007275 3.839468 0.126510
C 33.143968 2.845216 0.042118
C 33.885868 1.600282 0.234217
N 35.147880 1.810358 0.436489
H 32.161675 0.250931 0.274899
H 32.191011 -2.379188 0.384375
H 34.003271 -4.179791 0.279197
H 35.821438 -4.664474 -1.896054
H 36.654908 -7.036278 -2.138263
H 35.209088 -7.074225 -1.061407
H 37.212082 -8.370545 -0.118636
H 37.989763 -7.134178 1.871974
H 37.718033 -4.745997 1.980123
H 39.425998 -4.004855 -0.644528
H 41.244248 -2.195827 -0.523438
H 40.894653 2.755521 1.616871
H 38.935102 4.643078 1.775037
H 35.233001 5.535117 2.270518
H 35.993132 7.917647 2.581242
H 34.800522 7.907810 1.229641
H 36.957649 9.181189 0.670720
H 38.132071 7.876132 -1.064021
H 37.881123 5.485020 -1.138667
H 33.769125 4.889329 0.018842
H 32.081544 2.947618 -0.139407
Zn 87.293117 0.341194 0.295132
C 90.627660 0.473361 0.281524
C 89.966768 1.607527 0.531557
C 90.618653 2.869030 0.860387
C 89.679959 3.786091 1.005757
C 88.375074 3.154956 0.765437
N 88.550673 1.767518 0.475251
C 87.184636 3.791221 0.787660
C 87.133393 5.247938 1.057335
C 87.604096 6.122605 0.155235
C 87.614956 7.609077 0.405943
N 86.811294 7.985033 1.571939
C 86.364541 7.027247 2.537185
C 86.513724 5.724538 2.308882
C 85.894245 3.090364 0.554608
C 84.613965 3.779807 0.350355
C 83.679460 2.861017 0.210157
N 85.748475 1.801052 0.536702
C 84.355459 1.574723 0.322496
C 83.759448 0.371113 0.303298
C 84.523471 -0.890546 0.410328
C 83.999339 -2.056178 0.768413
C 85.041447 -3.056471 0.633902
C 86.131378 -2.434561 0.197463
N 85.893232 -1.035548 0.036432
C 87.402504 -3.114995 -0.157471
C 87.363283 -4.565450 -0.470768
C 88.039950 -5.446584 0.284728
C 88.064379 -6.920936 -0.027731
N 87.057590 -7.299314 -1.022727
C 86.381307 -6.333965 -1.835525
C 86.519867 -5.033346 -1.588494
C 88.563847 -2.435875 -0.226874
C 89.865286 -2.978460 -0.613817
C 90.728593 -1.989267 -0.482836
C 89.986693 -0.814580 -0.028002
N 88.724681 -1.063176 0.124465
H 91.710886 0.494590 0.301357
H 91.681549 3.039911 0.972810
H 89.869290 4.821124 1.256565
H 88.051123 5.761406 -0.763956
H 87.217653 8.129918 -0.491435
H 88.663473 7.935845 0.568468
H 86.660479 8.999596 1.767508
H 85.882798 7.364780 3.446350
H 86.154527 5.009046 3.039378
H 84.446563 4.848533 0.316821
H 82.628312 3.055677 0.046799
H 82.977908 -2.239667 1.074466
H 84.937459 -4.117180 0.823801
H 88.639560 -5.094778 1.116266
H 87.879429 -7.488474 0.908362
H 89.072039 -7.188758 -0.409626
H 86.914912 -8.312492 -1.228839
H 85.740490 -6.665507 -2.643030
H 85.991437 -4.314101 -2.202708
H 90.103436 -3.980742 -0.944318
H 91.791017 -2.050320 -0.682110
C 41.443100 0.385803 0.313573
C 42.901327 0.363967 0.295700
C 44.035255 0.343213 0.294209
C 45.396636 0.330623 0.292018
C 46.670855 0.340930 0.287253
C 47.859318 0.359728 0.281097
C 49.211678 0.384512 0.296965
C 50.311946 0.385803 0.313573
C 57.439839 0.385803 0.313573
C 58.898066 0.363967 0.295700
C 60.031994 0.343213 0.294209
C 61.393375 0.330623 0.292018
C 62.667594 0.340930 0.287253
C 63.856057 0.359728 0.281097
C 65.208417 0.384512 0.296965
C 66.308685 0.385803 0.313573
C 73.436578 0.385803 0.313573
C 74.894805 0.363967 0.295700
C 76.028733 0.343213 0.294209
C 77.390114 0.330623 0.292018
C 78.664333 0.340930 0.287253
C 79.852796 0.359728 0.281097
C 81.205156 0.384512 0.296965
C 82.305424 0.385803 0.313573
Zn 53.646306 0.100975 -0.209223
C 50.812655 -0.458846 -0.374634
C 51.131884 0.586476 -1.139632
C 50.927723 1.986979 -0.765031
C 51.736875 2.738721 -1.492781
C 52.601850 1.848284 -2.270446
N 52.187075 0.496883 -2.089726
C 53.834385 2.186098 -2.688356
C 54.179051 3.602099 -2.986490
C 53.385499 4.334777 -3.786143
C 53.694046 5.764924 -4.147794
N 54.822400 6.305506 -3.383831
C 55.680566 5.484685 -2.589682
C 55.390554 4.203538 -2.392935
C 54.935048 1.219285 -2.495435
C 56.065003 1.019817 -3.404650
C 56.962028 0.281798 -2.767410
N 55.145738 0.664919 -1.344383
C 56.422621 0.046540 -1.429923
C 57.086110 -0.458846 -0.374634
C 56.483843 -0.507429 0.980828
C 57.162083 -0.513009 2.125089
C 56.187869 -0.569998 3.207114
C 54.979873 -0.605775 2.649863
N 55.082632 -0.564440 1.224987
C 53.691420 -0.749604 3.389596
C 53.705697 -1.181958 4.810107
C 54.284628 -2.343022 5.154536
C 54.354724 -2.805096 6.586810
N 53.412444 -2.086906 7.443496
C 52.885580 -0.806679 7.078415
C 53.026464 -0.360443 5.829973
C 52.516630 -0.582863 2.749898
C 51.186056 -0.979228 3.217240
C 50.385636 -0.906306 2.162065
C 51.182140 -0.412852 1.040076
N 52.414946 -0.237182 1.379920
H 50.248398 2.355706 -0.008607
H 51.837976 3.809385 -1.385090
H 52.509689 3.883107 -4.234667
H 53.927998 5.817413 -5.234164
H 52.793420 6.386259 -3.950102
H 55.063867 7.310760 -3.499888
H 56.560435 5.912577 -2.132871
H 56.043259 3.607100 -1.768986
H 56.170448 1.418931 -4.405726
H 57.920199 -0.024041 -3.165845
H 58.236366 -0.468063 2.237626
H 56.409940 -0.600939 4.267028
H 54.771075 -2.947516 4.403713
H 55.384222 -2.646000 6.965988
H 54.124522 -3.890759 6.625060
H 53.251549 -2.437019 8.414762
H 52.343185 -0.222508 7.803551
H 52.608221 0.604952 5.563455
H 50.907227 -1.347024 4.194733
H 49.345306 -1.191373 2.139965
Zn 69.643045 0.100975 -0.209223
C 66.809394 -0.458846 -0.374634
C 67.128623 0.586476 -1.139632
C 66.924462 1.986979 -0.765031
C 67.733614 2.738721 -1.492781
C 68.598589 1.848284 -2.270446
N 68.183814 0.496883 -2.089726
C 69.831124 2.186098 -2.688356
C 70.175790 3.602099 -2.986490
C 69.382238 4.334777 -3.786143
C 69.690785 5.764924 -4.147794
N 70.819139 6.305506 -3.383831
C 71.677305 5.484685 -2.589682
C 71.387293 4.203538 -2.392935
C 70.931787 1.219285 -2.495435
C 72.061742 1.019817 -3.404650
C 72.958767 0.281798 -2.767410
N 71.142477 0.664919 -1.344383
C 72.419360 0.046540 -1.429923
C 73.082849 -0.458846 -0.374634
C 72.480582 -0.507429 0.980828
C 73.158822 -0.513009 2.125089
C 72.184608 -0.569998 3.207114
C 70.976612 -0.605775 2.649863
N 71.079371 -0.564440 1.224987
C 69.688159 -0.749604 3.389596
C 69.702436 -1.181958 4.810107
C 70.281367 -2.343022 5.154536
C 70.351463 -2.805096 6.586810
N 69.409183 -2.086906 7.443496
C 68.882319 -0.806679 7.078415
C 69.023203 -0.360443 5.829973
C 68.513369 -0.582863 2.749898
C 67.182795 -0.979228 3.217240
C 66.382375 -0.906306 2.162065
C 67.178879 -0.412852 1.040076
N 68.411685 -0.237182 1.379920
H 66.245137 2.355706 -0.008607
H 67.834715 3.809385 -1.385090
H 68.506428 3.883107 -4.234667
H 69.924737 5.817413 -5.234164
H 68.790159 6.386259 -3.950102
H 71.060606 7.310760 -3.499888
H 72.557174 5.912577 -2.132871
H 72.039998 3.607100 -1.768986
H 72.167187 1.418931 -4.405726
H 73.916938 -0.024041 -3.165845
H 74.233105 -0.468063 2.237626
H 72.406679 -0.600939 4.267028
H 70.767814 -2.947516 4.403713
H 71.380961 -2.646000 6.965988
H 70.121261 -3.890759 6.625060
H 69.248288 -2.437019 8.414762
H 68.339924 -0.222508 7.803551
H 68.604960 0.604952 5.563455
H 66.903966 -1.347024 4.194733
H 65.342045 -1.191373 2.139965
