 xtb: 6.5.1 (b24c23e)
          07302205593D

242281  0     0  0            999 V2000
   41.7218    0.5356    0.3486 Cu  0  0  0  0  0  0  0  0  0  0  0  0
   38.3186    0.4435    0.2457 C   0  0  0  0  0  0  0  0  0  0  0  0
   38.9759   -0.7778    0.2570 C   0  0  0  0  0  0  0  0  0  0  0  0
   38.3232   -2.0554    0.2697 C   0  0  0  0  0  0  0  0  0  0  0  0
   39.2990   -2.9971    0.2906 C   0  0  0  0  0  0  0  0  0  0  0  0
   40.5580   -2.3033    0.2791 C   0  0  0  0  0  0  0  0  0  0  0  0
   40.3298   -0.9567    0.2642 N   0  0  0  0  0  0  0  0  0  0  0  0
   41.8133   -2.9150    0.3039 C   0  0  0  0  0  0  0  0  0  0  0  0
   41.8602   -4.3984    0.2762 C   0  0  0  0  0  0  0  0  0  0  0  0
   41.3883   -5.0984   -0.7659 C   0  0  0  0  0  0  0  0  0  0  0  0
   41.4156   -6.6043   -0.8085 C   0  0  0  0  0  0  0  0  0  0  0  0
   42.3341   -7.1462    0.1965 N   0  0  0  0  0  0  0  0  0  0  0  0
   42.6329   -6.4303    1.3267 C   0  0  0  0  0  0  0  0  0  0  0  0
   42.4561   -5.0996    1.4047 C   0  0  0  0  0  0  0  0  0  0  0  0
   43.0327   -2.2360    0.3515 C   0  0  0  0  0  0  0  0  0  0  0  0
   44.3222   -2.8659    0.3259 C   0  0  0  0  0  0  0  0  0  0  0  0
   45.2505   -1.8765    0.3625 C   0  0  0  0  0  0  0  0  0  0  0  0
   43.1961   -0.8768    0.3974 N   0  0  0  0  0  0  0  0  0  0  0  0
   44.5361   -0.6360    0.4042 C   0  0  0  0  0  0  0  0  0  0  0  0
   45.1478    0.6285    0.4380 C   0  0  0  0  0  0  0  0  0  0  0  0
   44.4675    1.8578    0.4418 C   0  0  0  0  0  0  0  0  0  0  0  0
   45.1106    3.1347    0.5254 C   0  0  0  0  0  0  0  0  0  0  0  0
   44.1294    4.0722    0.5202 C   0  0  0  0  0  0  0  0  0  0  0  0
   42.8790    3.3742    0.4244 C   0  0  0  0  0  0  0  0  0  0  0  0
   43.1179    2.0260    0.3805 N   0  0  0  0  0  0  0  0  0  0  0  0
   41.6236    3.9858    0.4089 C   0  0  0  0  0  0  0  0  0  0  0  0
   41.5865    5.4690    0.4524 C   0  0  0  0  0  0  0  0  0  0  0  0
   41.0149    6.1280    1.4712 C   0  0  0  0  0  0  0  0  0  0  0  0
   40.9545    7.6323    1.5302 C   0  0  0  0  0  0  0  0  0  0  0  0
   41.8986    8.2379    0.5872 N   0  0  0  0  0  0  0  0  0  0  0  0
   42.3035    7.5546   -0.5302 C   0  0  0  0  0  0  0  0  0  0  0  0
   42.2074    6.2172   -0.6315 C   0  0  0  0  0  0  0  0  0  0  0  0
   40.4042    3.3069    0.3562 C   0  0  0  0  0  0  0  0  0  0  0  0
   39.1125    3.9321    0.2696 C   0  0  0  0  0  0  0  0  0  0  0  0
   38.1896    2.9392    0.2260 C   0  0  0  0  0  0  0  0  0  0  0  0
   38.9084    1.6984    0.2751 C   0  0  0  0  0  0  0  0  0  0  0  0
   40.2486    1.9500    0.3521 N   0  0  0  0  0  0  0  0  0  0  0  0
   37.2342    0.4142    0.2122 H   0  0  0  0  0  0  0  0  0  0  0  0
   37.2540   -2.1989    0.2733 H   0  0  0  0  0  0  0  0  0  0  0  0
   39.1838   -4.0686    0.3234 H   0  0  0  0  0  0  0  0  0  0  0  0
   40.9475   -4.6115   -1.6280 H   0  0  0  0  0  0  0  0  0  0  0  0
   41.7519   -6.9486   -1.7958 H   0  0  0  0  0  0  0  0  0  0  0  0
   40.3984   -7.0096   -0.6507 H   0  0  0  0  0  0  0  0  0  0  0  0
   42.2744   -8.1483    0.3055 H   0  0  0  0  0  0  0  0  0  0  0  0
   43.1003   -7.0062    2.1192 H   0  0  0  0  0  0  0  0  0  0  0  0
   42.7448   -4.5431    2.2850 H   0  0  0  0  0  0  0  0  0  0  0  0
   44.4909   -3.9295    0.2761 H   0  0  0  0  0  0  0  0  0  0  0  0
   46.3249   -1.9680    0.3546 H   0  0  0  0  0  0  0  0  0  0  0  0
   46.1767    3.2837    0.5886 H   0  0  0  0  0  0  0  0  0  0  0  0
   44.2377    5.1429    0.5844 H   0  0  0  0  0  0  0  0  0  0  0  0
   40.5518    5.6060    2.3005 H   0  0  0  0  0  0  0  0  0  0  0  0
   41.2119    7.9819    2.5392 H   0  0  0  0  0  0  0  0  0  0  0  0
   39.9271    7.9822    1.3160 H   0  0  0  0  0  0  0  0  0  0  0  0
   41.7880    9.2363    0.4840 H   0  0  0  0  0  0  0  0  0  0  0  0
   42.7833    8.1660   -1.2878 H   0  0  0  0  0  0  0  0  0  0  0  0
   42.5781    5.6893   -1.4986 H   0  0  0  0  0  0  0  0  0  0  0  0
   38.9418    4.9961    0.2334 H   0  0  0  0  0  0  0  0  0  0  0  0
   37.1165    3.0251    0.1562 H   0  0  0  0  0  0  0  0  0  0  0  0
   82.1316    0.4709    0.3822 Cu  0  0  0  0  0  0  0  0  0  0  0  0
   85.5346    0.4687    0.2575 C   0  0  0  0  0  0  0  0  0  0  0  0
   84.9178    1.6969    0.4437 C   0  0  0  0  0  0  0  0  0  0  0  0
   85.6118    2.9390    0.6283 C   0  0  0  0  0  0  0  0  0  0  0  0
   84.6671    3.9009    0.7765 C   0  0  0  0  0  0  0  0  0  0  0  0
   83.3861    3.2569    0.6707 C   0  0  0  0  0  0  0  0  0  0  0  0
   83.5704    1.9174    0.4781 N   0  0  0  0  0  0  0  0  0  0  0  0
   82.1509    3.9022    0.7653 C   0  0  0  0  0  0  0  0  0  0  0  0
   82.1529    5.3770    0.9307 C   0  0  0  0  0  0  0  0  0  0  0  0
   82.6704    6.1908   -0.0014 C   0  0  0  0  0  0  0  0  0  0  0  0
   82.6988    7.6889    0.1564 C   0  0  0  0  0  0  0  0  0  0  0  0
   81.7858    8.1290    1.2149 N   0  0  0  0  0  0  0  0  0  0  0  0
   81.4368    7.2800    2.2333 C   0  0  0  0  0  0  0  0  0  0  0  0
   81.5597    5.9448    2.1333 C   0  0  0  0  0  0  0  0  0  0  0  0
   80.9100    3.2630    0.7185 C   0  0  0  0  0  0  0  0  0  0  0  0
   79.6413    3.9331    0.7594 C   0  0  0  0  0  0  0  0  0  0  0  0
   78.6819    2.9763    0.6813 C   0  0  0  0  0  0  0  0  0  0  0  0
   80.7034    1.9138    0.6061 N   0  0  0  0  0  0  0  0  0  0  0  0
   79.3564    1.7163    0.5864 C   0  0  0  0  0  0  0  0  0  0  0  0
   78.7060    0.4736    0.5060 C   0  0  0  0  0  0  0  0  0  0  0  0
   79.3469   -0.7700    0.3796 C   0  0  0  0  0  0  0  0  0  0  0  0
   78.6651   -2.0287    0.3329 C   0  0  0  0  0  0  0  0  0  0  0  0
   79.6147   -2.9871    0.1857 C   0  0  0  0  0  0  0  0  0  0  0  0
   80.8844   -2.3193    0.1350 C   0  0  0  0  0  0  0  0  0  0  0  0
   80.6887   -0.9698    0.2628 N   0  0  0  0  0  0  0  0  0  0  0  0
   82.1178   -2.9601   -0.0031 C   0  0  0  0  0  0  0  0  0  0  0  0
   82.1071   -4.4348   -0.1695 C   0  0  0  0  0  0  0  0  0  0  0  0
   82.6977   -5.2490    0.7178 C   0  0  0  0  0  0  0  0  0  0  0  0
   82.7170   -6.7467    0.5553 C   0  0  0  0  0  0  0  0  0  0  0  0
   81.7225   -7.1873   -0.4268 N   0  0  0  0  0  0  0  0  0  0  0  0
   81.2931   -6.3377   -1.4136 C   0  0  0  0  0  0  0  0  0  0  0  0
   81.4219   -5.0024   -1.3222 C   0  0  0  0  0  0  0  0  0  0  0  0
   83.3576   -2.3164    0.0009 C   0  0  0  0  0  0  0  0  0  0  0  0
   84.6266   -2.9616   -0.2005 C   0  0  0  0  0  0  0  0  0  0  0  0
   85.5809   -2.0012   -0.1206 C   0  0  0  0  0  0  0  0  0  0  0  0
   84.9041   -0.7586    0.1165 C   0  0  0  0  0  0  0  0  0  0  0  0
   83.5575   -0.9774    0.1811 N   0  0  0  0  0  0  0  0  0  0  0  0
   86.6191    0.4680    0.2176 H   0  0  0  0  0  0  0  0  0  0  0  0
   86.6851    3.0457    0.6505 H   0  0  0  0  0  0  0  0  0  0  0  0
   84.8175    4.9537    0.9537 H   0  0  0  0  0  0  0  0  0  0  0  0
   83.1114    5.8062   -0.9137 H   0  0  0  0  0  0  0  0  0  0  0  0
   82.3912    8.1739   -0.7800 H   0  0  0  0  0  0  0  0  0  0  0  0
   83.7278    8.0297    0.3773 H   0  0  0  0  0  0  0  0  0  0  0  0
   81.8874    9.1028    1.4618 H   0  0  0  0  0  0  0  0  0  0  0  0
   80.9768    7.7629    3.0896 H   0  0  0  0  0  0  0  0  0  0  0  0
   81.2317    5.2876    2.9261 H   0  0  0  0  0  0  0  0  0  0  0  0
   79.5067    5.0004    0.8298 H   0  0  0  0  0  0  0  0  0  0  0  0
   77.6111    3.1029    0.6822 H   0  0  0  0  0  0  0  0  0  0  0  0
   77.5966   -2.1526    0.4092 H   0  0  0  0  0  0  0  0  0  0  0  0
   79.4734   -4.0541    0.1249 H   0  0  0  0  0  0  0  0  0  0  0  0
   83.2085   -4.8650    1.5931 H   0  0  0  0  0  0  0  0  0  0  0  0
   82.4875   -7.2343    1.5125 H   0  0  0  0  0  0  0  0  0  0  0  0
   83.7257   -7.0843    0.2511 H   0  0  0  0  0  0  0  0  0  0  0  0
   81.8066   -8.1605   -0.6828 H   0  0  0  0  0  0  0  0  0  0  0  0
   80.7676   -6.8204   -2.2314 H   0  0  0  0  0  0  0  0  0  0  0  0
   81.0319   -4.3451   -2.0864 H   0  0  0  0  0  0  0  0  0  0  0  0
   84.7625   -4.0141   -0.3908 H   0  0  0  0  0  0  0  0  0  0  0  0
   86.6495   -2.1091   -0.2222 H   0  0  0  0  0  0  0  0  0  0  0  0
   47.7762    0.6979    0.5031 C   0  0  0  0  0  0  0  0  0  0  0  0
   46.5557    0.6667    0.4720 C   0  0  0  0  0  0  0  0  0  0  0  0
   49.1272    0.7335    0.5350 C   0  0  0  0  0  0  0  0  0  0  0  0
   50.3479    0.7648    0.5637 C   0  0  0  0  0  0  0  0  0  0  0  0
   61.2519    0.8936    0.7286 C   0  0  0  0  0  0  0  0  0  0  0  0
   60.0295    0.8998    0.7201 C   0  0  0  0  0  0  0  0  0  0  0  0
   62.6015    0.8782    0.7340 C   0  0  0  0  0  0  0  0  0  0  0  0
   63.8237    0.8584    0.7381 C   0  0  0  0  0  0  0  0  0  0  0  0
   74.7254    0.5281    0.6264 C   0  0  0  0  0  0  0  0  0  0  0  0
   73.5051    0.5668    0.6517 C   0  0  0  0  0  0  0  0  0  0  0  0
   76.0770    0.4999    0.5913 C   0  0  0  0  0  0  0  0  0  0  0  0
   77.2973    0.4786    0.5530 C   0  0  0  0  0  0  0  0  0  0  0  0
   55.1888    0.8609    0.6631 Cu  0  0  0  0  0  0  0  0  0  0  0  0
   51.7552    0.7970    0.5954 C   0  0  0  0  0  0  0  0  0  0  0  0
   52.4058    1.6276   -0.3335 C   0  0  0  0  0  0  0  0  0  0  0  0
   51.7318    2.4766   -1.2690 C   0  0  0  0  0  0  0  0  0  0  0  0
   52.6914    3.0954   -2.0033 C   0  0  0  0  0  0  0  0  0  0  0  0
   53.9587    2.6201   -1.5264 C   0  0  0  0  0  0  0  0  0  0  0  0
   53.7520    1.7347   -0.5020 N   0  0  0  0  0  0  0  0  0  0  0  0
   55.2008    3.0090   -2.0315 C   0  0  0  0  0  0  0  0  0  0  0  0
   55.2115    3.9264   -3.1982 C   0  0  0  0  0  0  0  0  0  0  0  0
   54.6856    3.5665   -4.3785 C   0  0  0  0  0  0  0  0  0  0  0  0
   54.7327    4.4593   -5.5905 C   0  0  0  0  0  0  0  0  0  0  0  0
   55.0337    5.8437   -5.2167 N   0  0  0  0  0  0  0  0  0  0  0  0
   55.7131    6.1242   -4.0597 C   0  0  0  0  0  0  0  0  0  0  0  0
   55.8072    5.2458   -3.0458 C   0  0  0  0  0  0  0  0  0  0  0  0
   56.4380    2.5988   -1.5307 C   0  0  0  0  0  0  0  0  0  0  0  0
   57.7086    2.9470   -2.0987 C   0  0  0  0  0  0  0  0  0  0  0  0
   58.6622    2.3535   -1.3356 C   0  0  0  0  0  0  0  0  0  0  0  0
   56.6363    1.7933   -0.4408 N   0  0  0  0  0  0  0  0  0  0  0  0
   57.9805    1.6356   -0.3014 C   0  0  0  0  0  0  0  0  0  0  0  0
   58.6241    0.8977    0.7084 C   0  0  0  0  0  0  0  0  0  0  0  0
   57.9690    0.1550    1.7079 C   0  0  0  0  0  0  0  0  0  0  0  0
   58.6387   -0.5342    2.7685 C   0  0  0  0  0  0  0  0  0  0  0  0
   57.6787   -1.1372    3.5158 C   0  0  0  0  0  0  0  0  0  0  0  0
   56.4160   -0.8301    2.9076 C   0  0  0  0  0  0  0  0  0  0  0  0
   56.6254   -0.0305    1.8148 N   0  0  0  0  0  0  0  0  0  0  0  0
   55.1752   -1.2776    3.3666 C   0  0  0  0  0  0  0  0  0  0  0  0
   55.1635   -2.1971    4.5312 C   0  0  0  0  0  0  0  0  0  0  0  0
   55.7591   -3.3982    4.4876 C   0  0  0  0  0  0  0  0  0  0  0  0
   55.7749   -4.3377    5.6652 C   0  0  0  0  0  0  0  0  0  0  0  0
   54.7728   -3.9547    6.6636 N   0  0  0  0  0  0  0  0  0  0  0  0
   54.3367   -2.6581    6.7526 C   0  0  0  0  0  0  0  0  0  0  0  0
   54.4685   -1.7817    5.7414 C   0  0  0  0  0  0  0  0  0  0  0  0
   53.9402   -0.9288    2.8151 C   0  0  0  0  0  0  0  0  0  0  0  0
   52.6737   -1.4487    3.2450 C   0  0  0  0  0  0  0  0  0  0  0  0
   51.7216   -0.8738    2.4668 C   0  0  0  0  0  0  0  0  0  0  0  0
   52.3998   -0.0040    1.5535 C   0  0  0  0  0  0  0  0  0  0  0  0
   53.7413   -0.0569    1.7780 N   0  0  0  0  0  0  0  0  0  0  0  0
   50.6614    2.5851   -1.3415 H   0  0  0  0  0  0  0  0  0  0  0  0
   52.5583    3.8187   -2.7914 H   0  0  0  0  0  0  0  0  0  0  0  0
   54.2623    2.5814   -4.5372 H   0  0  0  0  0  0  0  0  0  0  0  0
   55.4861    4.0876   -6.3104 H   0  0  0  0  0  0  0  0  0  0  0  0
   53.7619    4.4497   -6.1045 H   0  0  0  0  0  0  0  0  0  0  0  0
   55.2229    6.4475   -6.0035 H   0  0  0  0  0  0  0  0  0  0  0  0
   56.0949    7.1379   -3.9926 H   0  0  0  0  0  0  0  0  0  0  0  0
   56.2804    5.5128   -2.1116 H   0  0  0  0  0  0  0  0  0  0  0  0
   57.8487    3.5573   -2.9764 H   0  0  0  0  0  0  0  0  0  0  0  0
   59.7331    2.3882   -1.4580 H   0  0  0  0  0  0  0  0  0  0  0  0
   59.7062   -0.5417    2.9210 H   0  0  0  0  0  0  0  0  0  0  0  0
   57.8104   -1.7265    4.4088 H   0  0  0  0  0  0  0  0  0  0  0  0
   56.2763   -3.7471    3.6013 H   0  0  0  0  0  0  0  0  0  0  0  0
   56.7809   -4.3553    6.1251 H   0  0  0  0  0  0  0  0  0  0  0  0
   55.5515   -5.3615    5.3358 H   0  0  0  0  0  0  0  0  0  0  0  0
   54.8516   -4.4596    7.5344 H   0  0  0  0  0  0  0  0  0  0  0  0
   53.8037   -2.4199    7.6676 H   0  0  0  0  0  0  0  0  0  0  0  0
   54.0729   -0.7783    5.8102 H   0  0  0  0  0  0  0  0  0  0  0  0
   52.5355   -2.1690    4.0351 H   0  0  0  0  0  0  0  0  0  0  0  0
   50.6541   -1.0231    2.4971 H   0  0  0  0  0  0  0  0  0  0  0  0
   68.6638    0.7267    0.7079 Cu  0  0  0  0  0  0  0  0  0  0  0  0
   65.2290    0.8275    0.7345 C   0  0  0  0  0  0  0  0  0  0  0  0
   65.8918    1.5665   -0.2626 C   0  0  0  0  0  0  0  0  0  0  0  0
   65.2304    2.3859   -1.2326 C   0  0  0  0  0  0  0  0  0  0  0  0
   66.1970    2.9272   -2.0176 C   0  0  0  0  0  0  0  0  0  0  0  0
   67.4555    2.4343   -1.5358 C   0  0  0  0  0  0  0  0  0  0  0  0
   67.2366    1.6123   -0.4616 N   0  0  0  0  0  0  0  0  0  0  0  0
   68.7012    2.7608   -2.0740 C   0  0  0  0  0  0  0  0  0  0  0  0
   68.7264    3.6205   -3.2837 C   0  0  0  0  0  0  0  0  0  0  0  0
   68.1815    3.2175   -4.4412 C   0  0  0  0  0  0  0  0  0  0  0  0
   68.2498    4.0418   -5.6998 C   0  0  0  0  0  0  0  0  0  0  0  0
   68.6266    5.4277   -5.4090 N   0  0  0  0  0  0  0  0  0  0  0  0
   69.3134    5.7453   -4.2666 C   0  0  0  0  0  0  0  0  0  0  0  0
   69.3686    4.9242   -3.2031 C   0  0  0  0  0  0  0  0  0  0  0  0
   69.9330    2.3356   -1.5717 C   0  0  0  0  0  0  0  0  0  0  0  0
   71.2053    2.6246   -2.1692 C   0  0  0  0  0  0  0  0  0  0  0  0
   72.1513    2.0271   -1.4008 C   0  0  0  0  0  0  0  0  0  0  0  0
   70.1225    1.5619   -0.4581 N   0  0  0  0  0  0  0  0  0  0  0  0
   71.4632    1.3621   -0.3354 C   0  0  0  0  0  0  0  0  0  0  0  0
   72.0972    0.6142    0.6713 C   0  0  0  0  0  0  0  0  0  0  0  0
   71.4375   -0.0903    1.6925 C   0  0  0  0  0  0  0  0  0  0  0  0
   72.1036   -0.8006    2.7419 C   0  0  0  0  0  0  0  0  0  0  0  0
   71.1376   -1.3381    3.5299 C   0  0  0  0  0  0  0  0  0  0  0  0
   69.8737   -0.9679    2.9595 C   0  0  0  0  0  0  0  0  0  0  0  0
   70.0894   -0.2023    1.8446 N   0  0  0  0  0  0  0  0  0  0  0  0
   68.6265   -1.3219    3.4792 C   0  0  0  0  0  0  0  0  0  0  0  0
   68.6058   -2.2083    4.6695 C   0  0  0  0  0  0  0  0  0  0  0  0
   69.1074   -3.4515    4.6309 C   0  0  0  0  0  0  0  0  0  0  0  0
   69.1133   -4.3600    5.8327 C   0  0  0  0  0  0  0  0  0  0  0  0
   68.1946   -3.8776    6.8676 N   0  0  0  0  0  0  0  0  0  0  0  0
   67.8631   -2.5491    6.9415 C   0  0  0  0  0  0  0  0  0  0  0  0
   68.0074   -1.7108    5.9003 C   0  0  0  0  0  0  0  0  0  0  0  0
   67.3944   -0.9079    2.9688 C   0  0  0  0  0  0  0  0  0  0  0  0
   66.1169   -1.3242    3.4724 C   0  0  0  0  0  0  0  0  0  0  0  0
   65.1712   -0.7259    2.7041 C   0  0  0  0  0  0  0  0  0  0  0  0
   65.8637    0.0545    1.7234 C   0  0  0  0  0  0  0  0  0  0  0  0
   67.2069   -0.0698    1.9015 N   0  0  0  0  0  0  0  0  0  0  0  0
   64.1634    2.5299   -1.2923 H   0  0  0  0  0  0  0  0  0  0  0  0
   66.0748    3.6104   -2.8424 H   0  0  0  0  0  0  0  0  0  0  0  0
   67.7264    2.2395   -4.5463 H   0  0  0  0  0  0  0  0  0  0  0  0
   68.9704    3.5942   -6.4098 H   0  0  0  0  0  0  0  0  0  0  0  0
   67.2704    4.0528   -6.1978 H   0  0  0  0  0  0  0  0  0  0  0  0
   68.8473    5.9727   -6.2299 H   0  0  0  0  0  0  0  0  0  0  0  0
   69.7387    6.7439   -4.2569 H   0  0  0  0  0  0  0  0  0  0  0  0
   69.8502    5.2255   -2.2837 H   0  0  0  0  0  0  0  0  0  0  0  0
   71.3512    3.2010   -3.0687 H   0  0  0  0  0  0  0  0  0  0  0  0
   73.2206    2.0229   -1.5404 H   0  0  0  0  0  0  0  0  0  0  0  0
   73.1737   -0.8645    2.8593 H   0  0  0  0  0  0  0  0  0  0  0  0
   71.2662   -1.9215    4.4271 H   0  0  0  0  0  0  0  0  0  0  0  0
   69.5521   -3.8599    3.7308 H   0  0  0  0  0  0  0  0  0  0  0  0
   70.1373   -4.4425    6.2430 H   0  0  0  0  0  0  0  0  0  0  0  0
   68.7977   -5.3718    5.5440 H   0  0  0  0  0  0  0  0  0  0  0  0
   68.2817   -4.3643    7.7480 H   0  0  0  0  0  0  0  0  0  0  0  0
   67.3982   -2.2483    7.8750 H   0  0  0  0  0  0  0  0  0  0  0  0
   67.6930   -0.6785    5.9596 H   0  0  0  0  0  0  0  0  0  0  0  0
   65.9670   -1.9971    4.3013 H   0  0  0  0  0  0  0  0  0  0  0  0
   64.0986   -0.8051    2.7826 H   0  0  0  0  0  0  0  0  0  0  0  0
  2  3  4  0  0  0  0
  3  4  1  0  0  0  0
  4  5  2  0  0  0  0
  5  6  4  0  0  0  0
  1  7  1  0  0  0  0
  3  7  4  0  0  0  0
  6  7  4  0  0  0  0
  6  8  4  0  0  0  0
  8  9  1  0  0  0  0
  9 10  2  0  0  0  0
 10 11  1  0  0  0  0
 11 12  1  0  0  0  0
 12 13  1  0  0  0  0
  9 14  1  0  0  0  0
 13 14  2  0  0  0  0
  8 15  4  0  0  0  0
 15 16  4  0  0  0  0
 16 17  2  0  0  0  0
  1 18  1  0  0  0  0
 15 18  4  0  0  0  0
 17 19  4  0  0  0  0
 18 19  4  0  0  0  0
 19 20  4  0  0  0  0
 20 21  4  0  0  0  0
 21 22  4  0  0  0  0
 22 23  2  0  0  0  0
 23 24  4  0  0  0  0
  1 25  1  0  0  0  0
 21 25  4  0  0  0  0
 24 25  4  0  0  0  0
 24 26  4  0  0  0  0
 26 27  1  0  0  0  0
 27 28  2  0  0  0  0
 28 29  1  0  0  0  0
 29 30  1  0  0  0  0
 30 31  1  0  0  0  0
 27 32  1  0  0  0  0
 31 32  2  0  0  0  0
 26 33  4  0  0  0  0
 33 34  4  0  0  0  0
 34 35  2  0  0  0  0
  2 36  4  0  0  0  0
 35 36  1  0  0  0  0
  1 37  1  0  0  0  0
 33 37  4  0  0  0  0
 36 37  4  0  0  0  0
  2 38  1  0  0  0  0
  4 39  1  0  0  0  0
  5 40  1  0  0  0  0
 10 41  1  0  0  0  0
 11 42  1  0  0  0  0
 11 43  1  0  0  0  0
 12 44  1  0  0  0  0
 13 45  1  0  0  0  0
 14 46  1  0  0  0  0
 16 47  1  0  0  0  0
 17 48  1  0  0  0  0
 22 49  1  0  0  0  0
 23 50  1  0  0  0  0
 28 51  1  0  0  0  0
 29 52  1  0  0  0  0
 29 53  1  0  0  0  0
 30 54  1  0  0  0  0
 31 55  1  0  0  0  0
 32 56  1  0  0  0  0
 34 57  1  0  0  0  0
 35 58  1  0  0  0  0
 60 61  4  0  0  0  0
 61 62  1  0  0  0  0
 62 63  2  0  0  0  0
 63 64  4  0  0  0  0
 59 65  1  0  0  0  0
 61 65  4  0  0  0  0
 64 65  4  0  0  0  0
 64 66  4  0  0  0  0
 66 67  1  0  0  0  0
 67 68  2  0  0  0  0
 68 69  1  0  0  0  0
 69 70  1  0  0  0  0
 70 71  1  0  0  0  0
 67 72  1  0  0  0  0
 71 72  2  0  0  0  0
 66 73  4  0  0  0  0
 73 74  4  0  0  0  0
 74 75  2  0  0  0  0
 59 76  1  0  0  0  0
 73 76  4  0  0  0  0
 75 77  4  0  0  0  0
 76 77  4  0  0  0  0
 77 78  4  0  0  0  0
 78 79  4  0  0  0  0
 79 80  4  0  0  0  0
 80 81  2  0  0  0  0
 81 82  4  0  0  0  0
 59 83  1  0  0  0  0
 79 83  4  0  0  0  0
 82 83  4  0  0  0  0
 82 84  4  0  0  0  0
 84 85  1  0  0  0  0
 85 86  2  0  0  0  0
 86 87  1  0  0  0  0
 87 88  1  0  0  0  0
 88 89  1  0  0  0  0
 85 90  1  0  0  0  0
 89 90  2  0  0  0  0
 84 91  4  0  0  0  0
 91 92  4  0  0  0  0
 92 93  2  0  0  0  0
 60 94  4  0  0  0  0
 93 94  1  0  0  0  0
 59 95  1  0  0  0  0
 91 95  4  0  0  0  0
 94 95  4  0  0  0  0
 60 96  1  0  0  0  0
 62 97  1  0  0  0  0
 63 98  1  0  0  0  0
 68 99  1  0  0  0  0
 69100  1  0  0  0  0
 69101  1  0  0  0  0
 70102  1  0  0  0  0
 71103  1  0  0  0  0
 72104  1  0  0  0  0
 74105  1  0  0  0  0
 75106  1  0  0  0  0
 80107  1  0  0  0  0
 81108  1  0  0  0  0
 86109  1  0  0  0  0
 87110  1  0  0  0  0
 87111  1  0  0  0  0
 88112  1  0  0  0  0
 89113  1  0  0  0  0
 90114  1  0  0  0  0
 92115  1  0  0  0  0
 93116  1  0  0  0  0
 20118  4  0  0  0  0
117118  3  0  0  0  0
117119  4  0  0  0  0
119120  3  0  0  0  0
121122  3  0  0  0  0
121123  4  0  0  0  0
123124  3  0  0  0  0
125126  3  0  0  0  0
125127  4  0  0  0  0
 78128  4  0  0  0  0
127128  3  0  0  0  0
120130  4  0  0  0  0
130131  4  0  0  0  0
131132  4  0  0  0  0
132133  2  0  0  0  0
133134  4  0  0  0  0
129135  1  0  0  0  0
131135  4  0  0  0  0
134135  4  0  0  0  0
134136  4  0  0  0  0
136137  1  0  0  0  0
137138  2  0  0  0  0
138139  1  0  0  0  0
139140  1  0  0  0  0
140141  1  0  0  0  0
137142  1  0  0  0  0
141142  2  0  0  0  0
136143  4  0  0  0  0
143144  4  0  0  0  0
144145  2  0  0  0  0
129146  1  0  0  0  0
143146  4  0  0  0  0
145147  4  0  0  0  0
146147  4  0  0  0  0
122148  4  0  0  0  0
147148  4  0  0  0  0
148149  4  0  0  0  0
149150  4  0  0  0  0
150151  2  0  0  0  0
151152  4  0  0  0  0
129153  1  0  0  0  0
149153  4  0  0  0  0
152153  4  0  0  0  0
152154  4  0  0  0  0
154155  1  0  0  0  0
155156  2  0  0  0  0
156157  1  0  0  0  0
157158  1  0  0  0  0
158159  1  0  0  0  0
155160  1  0  0  0  0
159160  2  0  0  0  0
154161  4  0  0  0  0
161162  4  0  0  0  0
162163  2  0  0  0  0
130164  4  0  0  0  0
163164  4  0  0  0  0
129165  1  0  0  0  0
161165  4  0  0  0  0
164165  4  0  0  0  0
132166  1  0  0  0  0
133167  1  0  0  0  0
138168  1  0  0  0  0
139169  1  0  0  0  0
139170  1  0  0  0  0
140171  1  0  0  0  0
141172  1  0  0  0  0
142173  1  0  0  0  0
144174  1  0  0  0  0
145175  1  0  0  0  0
150176  1  0  0  0  0
151177  1  0  0  0  0
156178  1  0  0  0  0
157179  1  0  0  0  0
157180  1  0  0  0  0
158181  1  0  0  0  0
159182  1  0  0  0  0
160183  1  0  0  0  0
162184  1  0  0  0  0
163185  1  0  0  0  0
124187  4  0  0  0  0
187188  4  0  0  0  0
188189  4  0  0  0  0
189190  2  0  0  0  0
190191  4  0  0  0  0
186192  1  0  0  0  0
188192  4  0  0  0  0
191192  4  0  0  0  0
191193  4  0  0  0  0
193194  1  0  0  0  0
194195  2  0  0  0  0
195196  1  0  0  0  0
196197  1  0  0  0  0
197198  1  0  0  0  0
194199  1  0  0  0  0
198199  2  0  0  0  0
193200  4  0  0  0  0
200201  4  0  0  0  0
201202  2  0  0  0  0
186203  1  0  0  0  0
200203  4  0  0  0  0
202204  4  0  0  0  0
203204  4  0  0  0  0
126205  4  0  0  0  0
204205  4  0  0  0  0
205206  4  0  0  0  0
206207  4  0  0  0  0
207208  2  0  0  0  0
208209  4  0  0  0  0
186210  1  0  0  0  0
206210  4  0  0  0  0
209210  4  0  0  0  0
209211  4  0  0  0  0
211212  1  0  0  0  0
212213  2  0  0  0  0
213214  1  0  0  0  0
214215  1  0  0  0  0
215216  1  0  0  0  0
212217  1  0  0  0  0
216217  2  0  0  0  0
211218  4  0  0  0  0
218219  4  0  0  0  0
219220  2  0  0  0  0
187221  4  0  0  0  0
220221  4  0  0  0  0
186222  1  0  0  0  0
218222  4  0  0  0  0
221222  4  0  0  0  0
189223  1  0  0  0  0
190224  1  0  0  0  0
195225  1  0  0  0  0
196226  1  0  0  0  0
196227  1  0  0  0  0
197228  1  0  0  0  0
198229  1  0  0  0  0
199230  1  0  0  0  0
201231  1  0  0  0  0
202232  1  0  0  0  0
207233  1  0  0  0  0
208234  1  0  0  0  0
213235  1  0  0  0  0
214236  1  0  0  0  0
214237  1  0  0  0  0
215238  1  0  0  0  0
216239  1  0  0  0  0
217240  1  0  0  0  0
219241  1  0  0  0  0
220242  1  0  0  0  0
M  END
