122

C 10.380661 -0.025863 0.077284
C 11.114537 1.197196 0.708446
C 10.520467 2.217700 1.415467
C 11.545552 3.139323 1.754751
C 12.729970 2.654477 1.233836
N 12.462758 1.441925 0.648670
C 14.150112 3.359400 1.271531
C 14.141846 4.794029 1.592099
C 13.832268 5.685976 0.626489
C 13.763336 7.166923 0.832572
N 14.210134 7.556136 2.168184
C 14.448784 6.626188 3.153361
C 14.442637 5.307687 2.922976
C 15.276111 2.660004 0.968018
C 16.575529 3.297785 0.938575
C 17.478367 2.391129 0.582867
N 15.473973 1.347389 0.628566
C 16.802989 1.123935 0.376889
C 17.469305 0.000221 0.000063
C 16.691466 -1.369627 -0.196957
C 17.231317 -2.637090 -0.097591
C 16.205301 -3.564413 -0.407870
C 15.063965 -2.838635 -0.677976
N 15.356763 -1.507319 -0.492170
C 13.650743 -3.421396 -1.101997
C 13.660625 -4.755746 -1.715275
C 13.269082 -5.826865 -0.990658
C 13.198480 -7.226031 -1.518257
N 13.756181 -7.335882 -2.865440
C 14.060135 -6.217744 -3.610050
C 14.042031 -4.978761 -3.103937
C 12.529377 -2.679356 -0.905777
C 11.209024 -3.143426 -1.292980
C 10.322856 -2.210225 -0.956894
C 11.043648 -1.114552 -0.355952
N 12.364733 -1.437311 -0.358776
H 9.303476 0.025105 -0.024419
H 9.470016 2.297086 1.648631
H 11.429276 4.065420 2.297118
H 13.157661 0.819581 0.243747
H 13.605047 5.316827 -0.370082
H 12.731619 7.505015 0.684534
H 14.391889 7.671040 0.091110
H 13.907951 8.466803 2.489296
H 14.654727 7.031573 4.137756
H 14.650214 4.581090 3.701275
H 16.778756 4.331582 1.156097
H 18.529772 2.586156 0.474871
H 18.254092 -2.872352 0.155975
H 16.290196 -4.640484 -0.439108
H 14.673935 -0.754558 -0.515989
H 12.960375 -5.672137 0.040633
H 12.153502 -7.554711 -1.530884
H 13.754016 -7.896607 -0.854559
H 13.431317 -8.128846 -3.404032
H 14.322663 -6.405065 -4.645464
H 14.293008 -4.105960 -3.697750
H 10.985315 -4.078080 -1.774334
H 9.260155 -2.252613 -1.112823
C 30.947088 -0.018317 0.079434
C 30.213212 -1.390360 -0.028898
C 30.807282 -2.630260 0.034004
C 29.782197 -3.592291 -0.163473
C 28.597779 -2.905690 -0.350575
N 28.864990 -1.566822 -0.208694
C 27.177637 -3.524601 -0.690117
C 27.185903 -4.912717 -1.173910
C 27.495481 -5.161704 -2.464638
C 27.564412 -6.528835 -3.070136
N 27.117615 -7.563604 -2.140299
C 26.878965 -7.292638 -0.812913
C 26.885112 -6.050744 -0.313693
C 26.051638 -2.770272 -0.579379
C 24.752219 -3.296735 -0.940583
C 23.849382 -2.338765 -0.764951
N 25.853776 -1.475888 -0.175948
C 24.524760 -1.153336 -0.272036
C 23.858444 0.000221 0.000063
C 24.636283 1.268163 0.554701
C 24.096432 2.292870 1.307238
C 25.122448 3.244456 1.532368
C 26.263784 2.770070 0.920266
N 25.970986 1.540784 0.376409
C 27.677006 3.488805 0.867117
C 27.667124 4.945996 1.049309
C 28.058667 5.474272 2.229685
C 28.129269 6.941381 2.518852
N 27.571568 7.744850 1.431928
C 27.267614 7.187155 0.209776
C 27.285718 5.867495 -0.013215
C 28.798372 2.754793 0.642725
C 30.118725 3.353257 0.558298
C 31.004893 2.383072 0.352000
C 30.284101 1.135210 0.285135
N 28.963015 1.410977 0.452865
H 32.024272 -0.008020 -0.033858
H 31.857733 -2.820625 0.190301
H 29.898473 -4.665173 -0.190729
H 28.170088 -0.824517 -0.224751
H 27.722702 -4.322697 -3.116936
H 28.596130 -6.738111 -3.374151
H 26.935860 -6.566397 -3.965954
H 27.419798 -8.506747 -2.347444
H 26.673022 -8.156020 -0.190062
H 26.677535 -5.843537 0.730700
H 24.548993 -4.289909 -1.300661
H 22.797977 -2.447572 -0.959528
H 23.073657 2.359137 1.646727
H 25.037552 4.175362 2.073033
H 26.653814 0.913646 -0.040621
H 28.367374 4.799179 3.024512
H 29.174247 7.227348 2.681374
H 27.573733 7.161390 3.436330
H 27.896432 8.702606 1.392216
H 27.005086 7.892120 -0.571375
H 27.034741 5.438799 -0.977900
H 30.342434 4.401250 0.641914
H 32.067594 2.501285 0.241836
C 19.926612 0.012658 0.002504
C 18.674341 -0.006523 -0.001844
C 21.240280 0.011892 0.004437
C 22.743414 -0.006523 -0.001844
