 xtb: 6.5.1 (b24c23e)
          07272222033D

122135  0     0  0            999 V2000
   10.5784    0.0736    0.1047 C   0  0  0  0  0  0  0  0  0  0  0  0
   11.1811    1.2585    0.5070 C   0  0  0  0  0  0  0  0  0  0  0  0
   10.5219    2.4406    0.9469 C   0  0  0  0  0  0  0  0  0  0  0  0
   11.4776    3.3753    1.2311 C   0  0  0  0  0  0  0  0  0  0  0  0
   12.7519    2.7973    0.9674 C   0  0  0  0  0  0  0  0  0  0  0  0
   12.5220    1.5184    0.5436 N   0  0  0  0  0  0  0  0  0  0  0  0
   14.0104    3.3882    1.1248 C   0  0  0  0  0  0  0  0  0  0  0  0
   14.0357    4.8059    1.5615 C   0  0  0  0  0  0  0  0  0  0  0  0
   13.4824    5.7794    0.8227 C   0  0  0  0  0  0  0  0  0  0  0  0
   13.4841    7.2229    1.2548 C   0  0  0  0  0  0  0  0  0  0  0  0
   14.4685    7.4564    2.3147 N   0  0  0  0  0  0  0  0  0  0  0  0
   14.8510    6.4352    3.1457 C   0  0  0  0  0  0  0  0  0  0  0  0
   14.6956    5.1410    2.8153 C   0  0  0  0  0  0  0  0  0  0  0  0
   15.2289    2.7420    0.9016 C   0  0  0  0  0  0  0  0  0  0  0  0
   16.5232    3.3847    1.0375 C   0  0  0  0  0  0  0  0  0  0  0  0
   17.4486    2.4485    0.7414 C   0  0  0  0  0  0  0  0  0  0  0  0
   15.3895    1.4468    0.5130 N   0  0  0  0  0  0  0  0  0  0  0  0
   16.7181    1.2391    0.4148 C   0  0  0  0  0  0  0  0  0  0  0  0
   17.3606    0.0382    0.0520 C   0  0  0  0  0  0  0  0  0  0  0  0
   16.7314   -1.1631   -0.3283 C   0  0  0  0  0  0  0  0  0  0  0  0
   17.3835   -2.3718   -0.6881 C   0  0  0  0  0  0  0  0  0  0  0  0
   16.4224   -3.2897   -1.0110 C   0  0  0  0  0  0  0  0  0  0  0  0
   15.1529   -2.6667   -0.8625 C   0  0  0  0  0  0  0  0  0  0  0  0
   15.3916   -1.3847   -0.4419 N   0  0  0  0  0  0  0  0  0  0  0  0
   13.8952   -3.2444   -1.0707 C   0  0  0  0  0  0  0  0  0  0  0  0
   13.8811   -4.6461   -1.5535 C   0  0  0  0  0  0  0  0  0  0  0  0
   13.3128   -5.6327   -0.8442 C   0  0  0  0  0  0  0  0  0  0  0  0
   13.2783   -7.0591   -1.3276 C   0  0  0  0  0  0  0  0  0  0  0  0
   14.2536   -7.2788   -2.3992 N   0  0  0  0  0  0  0  0  0  0  0  0
   14.6534   -6.2382   -3.1975 C   0  0  0  0  0  0  0  0  0  0  0  0
   14.5281   -4.9532   -2.8220 C   0  0  0  0  0  0  0  0  0  0  0  0
   12.6755   -2.5950   -0.8549 C   0  0  0  0  0  0  0  0  0  0  0  0
   11.3729   -3.1876   -1.1139 C   0  0  0  0  0  0  0  0  0  0  0  0
   10.4554   -2.2599   -0.7729 C   0  0  0  0  0  0  0  0  0  0  0  0
   11.1963   -1.0954   -0.3220 C   0  0  0  0  0  0  0  0  0  0  0  0
   12.5291   -1.3301   -0.3919 N   0  0  0  0  0  0  0  0  0  0  0  0
    9.4931    0.0722    0.1215 H   0  0  0  0  0  0  0  0  0  0  0  0
    9.4523    2.5472    1.0347 H   0  0  0  0  0  0  0  0  0  0  0  0
   11.3206    4.3758    1.6004 H   0  0  0  0  0  0  0  0  0  0  0  0
   13.2523    0.8602    0.2931 H   0  0  0  0  0  0  0  0  0  0  0  0
   12.9932    5.5720   -0.1220 H   0  0  0  0  0  0  0  0  0  0  0  0
   12.4759    7.5196    1.6008 H   0  0  0  0  0  0  0  0  0  0  0  0
   13.7394    7.8717    0.4062 H   0  0  0  0  0  0  0  0  0  0  0  0
   14.4065    8.3730    2.7338 H   0  0  0  0  0  0  0  0  0  0  0  0
   15.3645    6.7512    4.0483 H   0  0  0  0  0  0  0  0  0  0  0  0
   15.0487    4.3484    3.4594 H   0  0  0  0  0  0  0  0  0  0  0  0
   16.6803    4.4145    1.3148 H   0  0  0  0  0  0  0  0  0  0  0  0
   18.5228    2.5436    0.7300 H   0  0  0  0  0  0  0  0  0  0  0  0
   18.4524   -2.5126   -0.6931 H   0  0  0  0  0  0  0  0  0  0  0  0
   16.5754   -4.3111   -1.3192 H   0  0  0  0  0  0  0  0  0  0  0  0
   14.6645   -0.7070   -0.2375 H   0  0  0  0  0  0  0  0  0  0  0  0
   12.8353   -5.4475    0.1108 H   0  0  0  0  0  0  0  0  0  0  0  0
   12.2623   -7.3187   -1.6800 H   0  0  0  0  0  0  0  0  0  0  0  0
   13.5207   -7.7437   -0.5038 H   0  0  0  0  0  0  0  0  0  0  0  0
   14.1662   -8.1779   -2.8506 H   0  0  0  0  0  0  0  0  0  0  0  0
   15.1546   -6.5338   -4.1137 H   0  0  0  0  0  0  0  0  0  0  0  0
   14.8931   -4.1471   -3.4426 H   0  0  0  0  0  0  0  0  0  0  0  0
   11.2072   -4.1751   -1.5139 H   0  0  0  0  0  0  0  0  0  0  0  0
    9.3795   -2.3242   -0.8220 H   0  0  0  0  0  0  0  0  0  0  0  0
   30.7494   -0.1170    0.0458 C   0  0  0  0  0  0  0  0  0  0  0  0
   30.1464   -1.3361   -0.2359 C   0  0  0  0  0  0  0  0  0  0  0  0
   30.8049   -2.5728   -0.4856 C   0  0  0  0  0  0  0  0  0  0  0  0
   29.8486   -3.5168   -0.7348 C   0  0  0  0  0  0  0  0  0  0  0  0
   28.5746   -2.8862   -0.6528 C   0  0  0  0  0  0  0  0  0  0  0  0
   28.8053   -1.5759   -0.3397 N   0  0  0  0  0  0  0  0  0  0  0  0
   27.3157   -3.4710   -0.8288 C   0  0  0  0  0  0  0  0  0  0  0  0
   27.2900   -4.9062   -1.2042 C   0  0  0  0  0  0  0  0  0  0  0  0
   27.8397   -5.3440   -2.3468 C   0  0  0  0  0  0  0  0  0  0  0  0
   27.8378   -6.7986   -2.7397 C   0  0  0  0  0  0  0  0  0  0  0  0
   26.8558   -7.5558   -1.9592 N   0  0  0  0  0  0  0  0  0  0  0  0
   26.4778   -7.1261   -0.7132 C   0  0  0  0  0  0  0  0  0  0  0  0
   26.6339   -5.8520   -0.3127 C   0  0  0  0  0  0  0  0  0  0  0  0
   26.0974   -2.8042   -0.6776 C   0  0  0  0  0  0  0  0  0  0  0  0
   24.8031   -3.4223   -0.8999 C   0  0  0  0  0  0  0  0  0  0  0  0
   23.8776   -2.4704   -0.6591 C   0  0  0  0  0  0  0  0  0  0  0  0
   25.9368   -1.4983   -0.3265 N   0  0  0  0  0  0  0  0  0  0  0  0
   24.6082   -1.2701   -0.3006 C   0  0  0  0  0  0  0  0  0  0  0  0
   23.9657   -0.0580    0.0230 C   0  0  0  0  0  0  0  0  0  0  0  0
   24.5951    1.1632    0.3326 C   0  0  0  0  0  0  0  0  0  0  0  0
   23.9436    2.3804    0.6637 C   0  0  0  0  0  0  0  0  0  0  0  0
   24.9053    3.3300    0.8735 C   0  0  0  0  0  0  0  0  0  0  0  0
   26.1745    2.7214    0.6720 C   0  0  0  0  0  0  0  0  0  0  0  0
   25.9351    1.4105    0.3534 N   0  0  0  0  0  0  0  0  0  0  0  0
   27.4325    3.3212    0.8002 C   0  0  0  0  0  0  0  0  0  0  0  0
   27.4469    4.7666    1.1301 C   0  0  0  0  0  0  0  0  0  0  0  0
   28.0129    5.2297    2.2546 C   0  0  0  0  0  0  0  0  0  0  0  0
   28.0467    6.6963    2.5974 C   0  0  0  0  0  0  0  0  0  0  0  0
   27.0724    7.4484    1.8020 N   0  0  0  0  0  0  0  0  0  0  0  0
   26.6756    6.9867    0.5734 C   0  0  0  0  0  0  0  0  0  0  0  0
   26.8020    5.6973    0.2136 C   0  0  0  0  0  0  0  0  0  0  0  0
   28.6521    2.6556    0.6406 C   0  0  0  0  0  0  0  0  0  0  0  0
   29.9547    3.2959    0.7327 C   0  0  0  0  0  0  0  0  0  0  0  0
   30.8722    2.3282    0.5316 C   0  0  0  0  0  0  0  0  0  0  0  0
   30.1314    1.1009    0.3005 C   0  0  0  0  0  0  0  0  0  0  0  0
   28.7986    1.3369    0.3661 N   0  0  0  0  0  0  0  0  0  0  0  0
   31.8348   -0.1243    0.0593 H   0  0  0  0  0  0  0  0  0  0  0  0
   31.8745   -2.7102   -0.4687 H   0  0  0  0  0  0  0  0  0  0  0  0
   30.0050   -4.5619   -0.9481 H   0  0  0  0  0  0  0  0  0  0  0  0
   28.0756   -0.8841   -0.2052 H   0  0  0  0  0  0  0  0  0  0  0  0
   28.3260   -4.6697   -3.0421 H   0  0  0  0  0  0  0  0  0  0  0  0
   28.8465   -7.2325   -2.6046 H   0  0  0  0  0  0  0  0  0  0  0  0
   27.5797   -6.9036   -3.8020 H   0  0  0  0  0  0  0  0  0  0  0  0
   26.9182   -8.5557   -2.0860 H   0  0  0  0  0  0  0  0  0  0  0  0
   25.9666   -7.8705   -0.1109 H   0  0  0  0  0  0  0  0  0  0  0  0
   26.2839   -5.5178    0.6536 H   0  0  0  0  0  0  0  0  0  0  0  0
   24.6463   -4.4441   -1.2059 H   0  0  0  0  0  0  0  0  0  0  0  0
   22.8035   -2.5453   -0.7187 H   0  0  0  0  0  0  0  0  0  0  0  0
   22.8748    2.5036    0.7330 H   0  0  0  0  0  0  0  0  0  0  0  0
   24.7528    4.3606    1.1498 H   0  0  0  0  0  0  0  0  0  0  0  0
   26.6614    0.7260    0.1702 H   0  0  0  0  0  0  0  0  0  0  0  0
   28.4888    4.5680    2.9688 H   0  0  0  0  0  0  0  0  0  0  0  0
   29.0629    7.1030    2.4368 H   0  0  0  0  0  0  0  0  0  0  0  0
   27.8026    6.8425    3.6581 H   0  0  0  0  0  0  0  0  0  0  0  0
   27.1590    8.4503    1.8941 H   0  0  0  0  0  0  0  0  0  0  0  0
   26.1755    7.7215   -0.0494 H   0  0  0  0  0  0  0  0  0  0  0  0
   26.4392    5.3406   -0.7399 H   0  0  0  0  0  0  0  0  0  0  0  0
   30.1201    4.3457    0.9146 H   0  0  0  0  0  0  0  0  0  0  0  0
   31.9481    2.4089    0.5229 H   0  0  0  0  0  0  0  0  0  0  0  0
   19.9885   -0.0015    0.0516 C   0  0  0  0  0  0  0  0  0  0  0  0
   18.7665    0.0242    0.0547 C   0  0  0  0  0  0  0  0  0  0  0  0
   21.3377   -0.0216    0.0467 C   0  0  0  0  0  0  0  0  0  0  0  0
   22.5597   -0.0480    0.0342 C   0  0  0  0  0  0  0  0  0  0  0  0
  1  2  4  0  0  0  0
  2  3  4  0  0  0  0
  3  4  2  0  0  0  0
  4  5  4  0  0  0  0
  2  6  4  0  0  0  0
  5  6  4  0  0  0  0
  5  7  4  0  0  0  0
  7  8  1  0  0  0  0
  8  9  2  0  0  0  0
  9 10  1  0  0  0  0
 10 11  1  0  0  0  0
 11 12  1  0  0  0  0
  8 13  1  0  0  0  0
 12 13  2  0  0  0  0
  7 14  4  0  0  0  0
 14 15  1  0  0  0  0
 15 16  2  0  0  0  0
 14 17  4  0  0  0  0
 16 18  1  0  0  0  0
 17 18  4  0  0  0  0
 18 19  4  0  0  0  0
 19 20  4  0  0  0  0
 20 21  4  0  0  0  0
 21 22  2  0  0  0  0
 22 23  4  0  0  0  0
 20 24  4  0  0  0  0
 23 24  4  0  0  0  0
 23 25  4  0  0  0  0
 25 26  1  0  0  0  0
 26 27  2  0  0  0  0
 27 28  1  0  0  0  0
 28 29  1  0  0  0  0
 29 30  1  0  0  0  0
 26 31  1  0  0  0  0
 30 31  2  0  0  0  0
 25 32  4  0  0  0  0
 32 33  1  0  0  0  0
 33 34  2  0  0  0  0
  1 35  4  0  0  0  0
 34 35  1  0  0  0  0
 32 36  4  0  0  0  0
 35 36  4  0  0  0  0
  1 37  1  0  0  0  0
  3 38  1  0  0  0  0
  4 39  1  0  0  0  0
  6 40  1  0  0  0  0
  9 41  1  0  0  0  0
 10 42  1  0  0  0  0
 10 43  1  0  0  0  0
 11 44  1  0  0  0  0
 12 45  1  0  0  0  0
 13 46  1  0  0  0  0
 15 47  1  0  0  0  0
 16 48  1  0  0  0  0
 21 49  1  0  0  0  0
 22 50  1  0  0  0  0
 24 51  1  0  0  0  0
 27 52  1  0  0  0  0
 28 53  1  0  0  0  0
 28 54  1  0  0  0  0
 29 55  1  0  0  0  0
 30 56  1  0  0  0  0
 31 57  1  0  0  0  0
 33 58  1  0  0  0  0
 34 59  1  0  0  0  0
 60 61  4  0  0  0  0
 61 62  4  0  0  0  0
 62 63  2  0  0  0  0
 63 64  4  0  0  0  0
 61 65  4  0  0  0  0
 64 65  4  0  0  0  0
 64 66  4  0  0  0  0
 66 67  1  0  0  0  0
 67 68  2  0  0  0  0
 68 69  1  0  0  0  0
 69 70  1  0  0  0  0
 70 71  1  0  0  0  0
 67 72  1  0  0  0  0
 71 72  2  0  0  0  0
 66 73  4  0  0  0  0
 73 74  1  0  0  0  0
 74 75  2  0  0  0  0
 73 76  4  0  0  0  0
 75 77  1  0  0  0  0
 76 77  4  0  0  0  0
 77 78  4  0  0  0  0
 78 79  4  0  0  0  0
 79 80  4  0  0  0  0
 80 81  2  0  0  0  0
 81 82  4  0  0  0  0
 79 83  4  0  0  0  0
 82 83  4  0  0  0  0
 82 84  4  0  0  0  0
 84 85  1  0  0  0  0
 85 86  2  0  0  0  0
 86 87  1  0  0  0  0
 87 88  1  0  0  0  0
 88 89  1  0  0  0  0
 85 90  1  0  0  0  0
 89 90  2  0  0  0  0
 84 91  4  0  0  0  0
 91 92  1  0  0  0  0
 92 93  2  0  0  0  0
 60 94  4  0  0  0  0
 93 94  1  0  0  0  0
 91 95  4  0  0  0  0
 94 95  4  0  0  0  0
 60 96  1  0  0  0  0
 62 97  1  0  0  0  0
 63 98  1  0  0  0  0
 65 99  1  0  0  0  0
 68100  1  0  0  0  0
 69101  1  0  0  0  0
 69102  1  0  0  0  0
 70103  1  0  0  0  0
 71104  1  0  0  0  0
 72105  1  0  0  0  0
 74106  1  0  0  0  0
 75107  1  0  0  0  0
 80108  1  0  0  0  0
 81109  1  0  0  0  0
 83110  1  0  0  0  0
 86111  1  0  0  0  0
 87112  1  0  0  0  0
 87113  1  0  0  0  0
 88114  1  0  0  0  0
 89115  1  0  0  0  0
 90116  1  0  0  0  0
 92117  1  0  0  0  0
 93118  1  0  0  0  0
 19120  4  0  0  0  0
119120  3  0  0  0  0
119121  4  0  0  0  0
 78122  4  0  0  0  0
121122  3  0  0  0  0
M  END
