608

C 130.236160 0.037055 0.101922
C 130.966558 -1.340537 0.072707
C 130.361272 -2.573142 0.163001
C 131.384237 -3.548922 0.039496
C 132.580061 -2.877373 -0.126781
N 132.319118 -1.531847 -0.051578
C 134.002125 -3.527275 -0.386585
C 135.131136 -2.770211 -0.338200
C 136.435084 -3.321911 -0.644573
C 137.335243 -2.351068 -0.544652
N 135.325884 -1.446202 -0.045880
C 136.655813 -1.131848 -0.152872
C 137.322083 0.037849 0.038954
C 136.544758 1.342208 0.500376
C 137.086892 2.416591 1.177749
C 136.061307 3.380905 1.341194
C 134.918598 2.863630 0.769799
C 133.507288 3.580531 0.680622
C 133.470675 5.055213 0.786636
C 133.780435 5.849243 -0.323399
C 133.753982 7.242509 -0.222281
C 133.418618 7.850602 0.994424
C 133.400749 9.331747 1.058867
O 133.073432 9.802703 2.277378
O 133.646127 10.100059 0.146136
C 133.110589 7.058809 2.108396
C 133.138247 5.666366 2.002059
C 132.382906 2.839551 0.502722
C 131.059847 3.429318 0.399539
C 130.175913 2.447735 0.245899
C 130.899529 1.200352 0.238993
N 132.220534 1.487750 0.383314
N 135.209736 1.601940 0.306893
C 134.040251 -4.966579 -0.734119
C 133.773447 -5.380171 -2.044498
C 133.791949 -6.737814 -2.374106
C 134.081138 -7.691930 -1.389477
C 134.112503 -9.143311 -1.690440
O 133.845861 -9.421195 -2.980394
O 134.347157 -10.041244 -0.901254
C 134.349922 -7.281233 -0.077435
C 134.326424 -5.922879 0.247420
H 129.158117 0.042328 -0.004492
H 129.303884 -2.750112 0.285635
H 131.257644 -4.621287 0.045603
H 133.018697 -0.794465 -0.087561
H 136.648807 -4.338604 -0.921511
H 138.387828 -2.473625 -0.723721
H 138.110193 2.505598 1.509068
H 136.148770 4.344598 1.819090
H 134.038101 5.367526 -1.264499
H 133.994397 7.842824 -1.095896
H 133.104215 10.772561 2.156646
H 132.845779 7.506926 3.061050
H 132.897739 5.040331 2.859264
H 130.828090 4.477991 0.438187
H 129.112028 2.557343 0.139913
H 134.525767 0.948404 -0.065391
H 133.553245 -4.629802 -2.800942
H 133.579958 -7.031737 -3.397831
H 133.905047 -10.396925 -3.014569
H 134.579199 -8.008686 0.697156
H 134.533108 -5.592664 1.262905
C 262.695106 0.010326 0.095594
C 261.964709 1.254790 0.687138
C 262.569995 2.316073 1.320498
C 261.547029 3.243652 1.647603
C 260.351205 2.717938 1.197880
N 260.612149 1.481518 0.661820
C 258.929142 3.415340 1.257044
C 257.800131 2.716943 0.960856
C 256.496183 3.347447 0.934364
C 255.596024 2.434855 0.588391
N 257.605383 1.402408 0.628514
C 256.275454 1.169393 0.391935
C 255.609184 0.037849 0.038954
C 256.386508 -1.334939 -0.133425
C 255.844375 -2.598987 -0.009664
C 256.869960 -3.534224 -0.295927
C 258.012669 -2.815665 -0.574746
C 259.423979 -3.416487 -0.975886
C 259.460591 -4.782167 -1.542315
C 259.150831 -4.994218 -2.890534
C 259.177284 -6.284930 -3.424834
C 259.512648 -7.373998 -2.609923
C 259.530518 -8.726818 -3.216407
O 259.857835 -9.694115 -2.338395
O 259.285139 -9.004344 -4.376735
C 259.820677 -7.165712 -1.259188
C 259.793019 -5.873396 -0.729921
C 260.548361 -2.674395 -0.802677
C 261.871419 -3.155298 -1.159335
C 262.755353 -2.209020 -0.856564
C 262.031738 -1.090947 -0.303460
N 260.710733 -1.412546 -0.303317
N 257.721530 -1.480352 -0.422824
C 258.891016 4.857687 1.591726
C 259.157819 5.814899 0.605878
C 259.139317 7.176216 0.919970
C 258.850128 7.587587 2.227872
C 258.818764 9.019848 2.609596
O 259.085405 9.846600 1.581159
O 258.584109 9.468628 3.717610
C 258.581345 6.632217 3.216504
C 258.604843 5.272396 2.897845
H 263.773150 0.053325 -0.001888
H 263.627383 2.419274 1.509461
H 261.673622 4.199450 2.133868
H 259.912570 0.838539 0.299044
H 256.282460 4.380389 1.142667
H 254.543439 2.624691 0.483280
H 254.821073 -2.827096 0.246580
H 256.782496 -4.609894 -0.300840
H 258.893165 -4.141682 -3.515756
H 258.936869 -6.429830 -4.474874
H 259.827051 -10.506894 -2.881158
H 260.085488 -7.993395 -0.608573
H 260.033528 -5.698149 0.316983
H 262.103176 -4.109985 -1.594973
H 263.819239 -2.259474 -1.000444
H 258.405499 -0.729269 -0.462572
H 259.378022 5.483339 -0.406708
H 259.351309 7.897937 0.136694
H 259.026219 10.734081 1.988090
H 258.352068 6.935157 4.235035
H 258.398158 4.521929 3.657483
C 143.125266 0.039161 0.047386
C 141.916327 0.025706 0.038939
C 140.494798 0.034525 0.026956
C 139.283128 0.041964 0.037819
C 144.541870 0.032486 0.047919
C 145.762566 0.041964 0.037819
C 158.537919 0.039161 0.047386
C 157.328980 0.025706 0.038939
C 155.907451 0.034525 0.026956
C 154.695782 0.041964 0.037819
C 159.954524 0.032486 0.047919
C 161.175220 0.041964 0.037819
C 173.950573 0.039161 0.047386
C 172.741634 0.025706 0.038939
C 171.320105 0.034525 0.026956
C 170.108435 0.041964 0.037819
C 175.367177 0.032486 0.047919
C 176.587873 0.041964 0.037819
C 189.363227 0.039161 0.047386
C 188.154287 0.025706 0.038939
C 186.732758 0.034525 0.026956
C 185.521089 0.041964 0.037819
C 190.779831 0.032486 0.047919
C 192.000527 0.041964 0.037819
C 204.775880 0.039161 0.047386
C 203.566941 0.025706 0.038939
C 202.145412 0.034525 0.026956
C 200.933742 0.041964 0.037819
C 206.192485 0.032486 0.047919
C 207.413180 0.041964 0.037819
C 220.188534 0.039161 0.047386
C 218.979594 0.025706 0.038939
C 217.558066 0.034525 0.026956
C 216.346396 0.041964 0.037819
C 221.605138 0.032486 0.047919
C 222.825834 0.041964 0.037819
C 235.601187 0.039161 0.047386
C 234.392248 0.025706 0.038939
C 232.970719 0.034525 0.026956
C 231.759050 0.041964 0.037819
C 237.017792 0.032486 0.047919
C 238.238488 0.041964 0.037819
C 251.013841 0.039161 0.047386
C 249.804902 0.025706 0.038939
C 248.383373 0.034525 0.026956
C 247.171703 0.041964 0.037819
C 252.430445 0.032486 0.047919
C 253.651141 0.041964 0.037819
C 146.638803 -0.015630 -0.015492
C 147.433184 0.777377 -1.133597
C 146.928881 1.240574 -2.331776
C 147.966448 1.960573 -2.977628
C 149.073459 1.908479 -2.156694
N 148.760901 1.123208 -1.075437
C 150.461999 2.627425 -2.403626
C 151.597494 2.126241 -1.850561
C 152.884106 2.775171 -1.998251
C 153.792503 2.057227 -1.346547
N 151.806042 1.014985 -1.082090
C 153.130737 0.914156 -0.750784
C 153.794932 -0.015630 -0.015492
C 153.000255 -1.235711 0.608826
C 153.503057 -2.489309 0.892213
C 152.465077 -3.231607 1.511700
C 151.359629 -2.409958 1.581105
C 149.972015 -2.755984 2.259520
C 149.984526 -3.716871 3.385668
C 149.546157 -5.034462 3.202064
C 149.572802 -5.941148 4.264445
C 150.042694 -5.535131 5.520080
C 150.054770 -6.528722 6.620482
O 150.518940 -6.026513 7.780626
O 149.696942 -7.691209 6.549659
C 150.485536 -4.219280 5.706643
C 150.456588 -3.315977 4.641071
C 148.836000 -2.139173 1.840959
C 147.550096 -2.375658 2.464341
C 146.641540 -1.628732 1.846299
C 147.302740 -0.877836 0.798189
N 148.626764 -1.222984 0.848091
N 151.672963 -1.226612 0.960849
C 150.453607 3.869887 -3.208655
C 149.983595 5.065037 -2.651962
C 149.960697 6.236343 -3.413325
C 150.406735 6.218272 -4.741113
C 150.365913 7.483115 -5.513677
O 150.813875 7.345160 -6.776363
O 149.979687 8.566039 -5.110861
C 150.874565 5.023442 -5.303181
C 150.895028 3.854785 -4.538062
H 145.921690 1.097185 -2.692602
H 147.906348 2.475619 -3.924474
H 149.420301 0.810722 -0.368612
H 153.080202 3.687350 -2.532563
H 154.837019 2.301544 -1.280784
H 154.509363 -2.827123 0.696237
H 152.523694 -4.243516 1.883259
H 149.181011 -5.339339 2.223123
H 149.225243 -6.958095 4.103868
H 150.463358 -6.787580 8.392186
H 150.855055 -3.881403 6.670013
H 150.799333 -2.291800 4.776281
H 147.354281 -3.033429 3.291985
H 145.597295 -1.597478 2.098542
H 151.014222 -0.481293 0.754438
H 149.637998 5.070157 -1.619960
H 149.593879 7.154815 -2.962983
H 150.725331 8.247443 -7.143202
H 151.225978 4.984680 -6.329645
H 151.258171 2.921166 -4.963895
C 162.051457 -0.015630 -0.015492
C 162.845838 0.777377 -1.133597
C 162.341534 1.240574 -2.331776
C 163.379102 1.960573 -2.977628
C 164.486112 1.908479 -2.156694
N 164.173554 1.123208 -1.075437
C 165.874653 2.627425 -2.403626
C 167.010148 2.126241 -1.850561
C 168.296760 2.775171 -1.998251
C 169.205157 2.057227 -1.346547
N 167.218695 1.014985 -1.082090
C 168.543391 0.914156 -0.750784
C 169.207586 -0.015630 -0.015492
C 168.412908 -1.235711 0.608826
C 168.915710 -2.489309 0.892213
C 167.877730 -3.231607 1.511700
C 166.772282 -2.409958 1.581105
C 165.384668 -2.755984 2.259520
C 165.397179 -3.716871 3.385668
C 164.958811 -5.034462 3.202064
C 164.985456 -5.941148 4.264445
C 165.455348 -5.535131 5.520080
C 165.467424 -6.528722 6.620482
O 165.931593 -6.026513 7.780626
O 165.109595 -7.691209 6.549659
C 165.898189 -4.219280 5.706643
C 165.869242 -3.315977 4.641071
C 164.248653 -2.139173 1.840959
C 162.962750 -2.375658 2.464341
C 162.054194 -1.628732 1.846299
C 162.715393 -0.877836 0.798189
N 164.039418 -1.222984 0.848091
N 167.085616 -1.226612 0.960849
C 165.866260 3.869887 -3.208655
C 165.396249 5.065037 -2.651962
C 165.373351 6.236343 -3.413325
C 165.819389 6.218272 -4.741113
C 165.778567 7.483115 -5.513677
O 166.226528 7.345160 -6.776363
O 165.392340 8.566039 -5.110861
C 166.287218 5.023442 -5.303181
C 166.307682 3.854785 -4.538062
H 161.334344 1.097185 -2.692602
H 163.319002 2.475619 -3.924474
H 164.832955 0.810722 -0.368612
H 168.492855 3.687350 -2.532563
H 170.249673 2.301544 -1.280784
H 169.922017 -2.827123 0.696237
H 167.936348 -4.243516 1.883259
H 164.593665 -5.339339 2.223123
H 164.637896 -6.958095 4.103868
H 165.876012 -6.787580 8.392186
H 166.267708 -3.881403 6.670013
H 166.211987 -2.291800 4.776281
H 162.766935 -3.033429 3.291985
H 161.009949 -1.597478 2.098542
H 166.426876 -0.481293 0.754438
H 165.050652 5.070157 -1.619960
H 165.006533 7.154815 -2.962983
H 166.137985 8.247443 -7.143202
H 166.638631 4.984680 -6.329645
H 166.670825 2.921166 -4.963895
C 177.464111 -0.015630 -0.015492
C 178.258491 0.777377 -1.133597
C 177.754188 1.240574 -2.331776
C 178.791756 1.960573 -2.977628
C 179.898766 1.908479 -2.156694
N 179.586208 1.123208 -1.075437
C 181.287306 2.627425 -2.403626
C 182.422801 2.126241 -1.850561
C 183.709414 2.775171 -1.998251
C 184.617811 2.057227 -1.346547
N 182.631349 1.014985 -1.082090
C 183.956045 0.914156 -0.750784
C 184.620239 -0.015630 -0.015492
C 183.825562 -1.235711 0.608826
C 184.328364 -2.489309 0.892213
C 183.290384 -3.231607 1.511700
C 182.184936 -2.409958 1.581105
C 180.797322 -2.755984 2.259520
C 180.809833 -3.716871 3.385668
C 180.371464 -5.034462 3.202064
C 180.398109 -5.941148 4.264445
C 180.868001 -5.535131 5.520080
C 180.880078 -6.528722 6.620482
O 181.344247 -6.026513 7.780626
O 180.522249 -7.691209 6.549659
C 181.310843 -4.219280 5.706643
C 181.281895 -3.315977 4.641071
C 179.661307 -2.139173 1.840959
C 178.375403 -2.375658 2.464341
C 177.466848 -1.628732 1.846299
C 178.128047 -0.877836 0.798189
N 179.452071 -1.222984 0.848091
N 182.498270 -1.226612 0.960849
C 181.278914 3.869887 -3.208655
C 180.808903 5.065037 -2.651962
C 180.786004 6.236343 -3.413325
C 181.232042 6.218272 -4.741113
C 181.191220 7.483115 -5.513677
O 181.639182 7.345160 -6.776363
O 180.804994 8.566039 -5.110861
C 181.699872 5.023442 -5.303181
C 181.720335 3.854785 -4.538062
H 176.746997 1.097185 -2.692602
H 178.731655 2.475619 -3.924474
H 180.245609 0.810722 -0.368612
H 183.905509 3.687350 -2.532563
H 185.662326 2.301544 -1.280784
H 185.334670 -2.827123 0.696237
H 183.349001 -4.243516 1.883259
H 180.006318 -5.339339 2.223123
H 180.050550 -6.958095 4.103868
H 181.288665 -6.787580 8.392186
H 181.680362 -3.881403 6.670013
H 181.624641 -2.291800 4.776281
H 178.179588 -3.033429 3.291985
H 176.422602 -1.597478 2.098542
H 181.839529 -0.481293 0.754438
H 180.463305 5.070157 -1.619960
H 180.419186 7.154815 -2.962983
H 181.550639 8.247443 -7.143202
H 182.051285 4.984680 -6.329645
H 182.083478 2.921166 -4.963895
C 192.876764 -0.015630 -0.015492
C 193.671145 0.777377 -1.133597
C 193.166842 1.240574 -2.331776
C 194.204409 1.960573 -2.977628
C 195.311420 1.908479 -2.156694
N 194.998862 1.123208 -1.075437
C 196.699960 2.627425 -2.403626
C 197.835455 2.126241 -1.850561
C 199.122067 2.775171 -1.998251
C 200.030464 2.057227 -1.346547
N 198.044002 1.014985 -1.082090
C 199.368698 0.914156 -0.750784
C 200.032893 -0.015630 -0.015492
C 199.238215 -1.235711 0.608826
C 199.741018 -2.489309 0.892213
C 198.703037 -3.231607 1.511700
C 197.597589 -2.409958 1.581105
C 196.209975 -2.755984 2.259520
C 196.222486 -3.716871 3.385668
C 195.784118 -5.034462 3.202064
C 195.810763 -5.941148 4.264445
C 196.280655 -5.535131 5.520080
C 196.292731 -6.528722 6.620482
O 196.756900 -6.026513 7.780626
O 195.934903 -7.691209 6.549659
C 196.723497 -4.219280 5.706643
C 196.694549 -3.315977 4.641071
C 195.073960 -2.139173 1.840959
C 193.788057 -2.375658 2.464341
C 192.879501 -1.628732 1.846299
C 193.540700 -0.877836 0.798189
N 194.864725 -1.222984 0.848091
N 197.910923 -1.226612 0.960849
C 196.691567 3.869887 -3.208655
C 196.221556 5.065037 -2.651962
C 196.198658 6.236343 -3.413325
C 196.644696 6.218272 -4.741113
C 196.603874 7.483115 -5.513677
O 197.051836 7.345160 -6.776363
O 196.217647 8.566039 -5.110861
C 197.112525 5.023442 -5.303181
C 197.132989 3.854785 -4.538062
H 192.159651 1.097185 -2.692602
H 194.144309 2.475619 -3.924474
H 195.658262 0.810722 -0.368612
H 199.318163 3.687350 -2.532563
H 201.074980 2.301544 -1.280784
H 200.747324 -2.827123 0.696237
H 198.761655 -4.243516 1.883259
H 195.418972 -5.339339 2.223123
H 195.463203 -6.958095 4.103868
H 196.701319 -6.787580 8.392186
H 197.093015 -3.881403 6.670013
H 197.037294 -2.291800 4.776281
H 193.592242 -3.033429 3.291985
H 191.835256 -1.597478 2.098542
H 197.252183 -0.481293 0.754438
H 195.875959 5.070157 -1.619960
H 195.831840 7.154815 -2.962983
H 196.963292 8.247443 -7.143202
H 197.463938 4.984680 -6.329645
H 197.496132 2.921166 -4.963895
C 208.289418 -0.015630 -0.015492
C 209.083798 0.777377 -1.133597
C 208.579495 1.240574 -2.331776
C 209.617063 1.960573 -2.977628
C 210.724073 1.908479 -2.156694
N 210.411515 1.123208 -1.075437
C 212.112613 2.627425 -2.403626
C 213.248108 2.126241 -1.850561
C 214.534721 2.775171 -1.998251
C 215.443118 2.057227 -1.346547
N 213.456656 1.014985 -1.082090
C 214.781352 0.914156 -0.750784
C 215.445546 -0.015630 -0.015492
C 214.650869 -1.235711 0.608826
C 215.153671 -2.489309 0.892213
C 214.115691 -3.231607 1.511700
C 213.010243 -2.409958 1.581105
C 211.622629 -2.755984 2.259520
C 211.635140 -3.716871 3.385668
C 211.196772 -5.034462 3.202064
C 211.223416 -5.941148 4.264445
C 211.693309 -5.535131 5.520080
C 211.705385 -6.528722 6.620482
O 212.169554 -6.026513 7.780626
O 211.347556 -7.691209 6.549659
C 212.136150 -4.219280 5.706643
C 212.107202 -3.315977 4.641071
C 210.486614 -2.139173 1.840959
C 209.200710 -2.375658 2.464341
C 208.292155 -1.628732 1.846299
C 208.953354 -0.877836 0.798189
N 210.277378 -1.222984 0.848091
N 213.323577 -1.226612 0.960849
C 212.104221 3.869887 -3.208655
C 211.634210 5.065037 -2.651962
C 211.611311 6.236343 -3.413325
C 212.057349 6.218272 -4.741113
C 212.016528 7.483115 -5.513677
O 212.464489 7.345160 -6.776363
O 211.630301 8.566039 -5.110861
C 212.525179 5.023442 -5.303181
C 212.545643 3.854785 -4.538062
H 207.572304 1.097185 -2.692602
H 209.556963 2.475619 -3.924474
H 211.070916 0.810722 -0.368612
H 214.730816 3.687350 -2.532563
H 216.487633 2.301544 -1.280784
H 216.159977 -2.827123 0.696237
H 214.174308 -4.243516 1.883259
H 210.831625 -5.339339 2.223123
H 210.875857 -6.958095 4.103868
H 212.113973 -6.787580 8.392186
H 212.505669 -3.881403 6.670013
H 212.449948 -2.291800 4.776281
H 209.004895 -3.033429 3.291985
H 207.247909 -1.597478 2.098542
H 212.664837 -0.481293 0.754438
H 211.288612 5.070157 -1.619960
H 211.244494 7.154815 -2.962983
H 212.375946 8.247443 -7.143202
H 212.876592 4.984680 -6.329645
H 212.908785 2.921166 -4.963895
C 223.702071 -0.015630 -0.015492
C 224.496452 0.777377 -1.133597
C 223.992149 1.240574 -2.331776
C 225.029716 1.960573 -2.977628
C 226.136727 1.908479 -2.156694
N 225.824169 1.123208 -1.075437
C 227.525267 2.627425 -2.403626
C 228.660762 2.126241 -1.850561
C 229.947374 2.775171 -1.998251
C 230.855771 2.057227 -1.346547
N 228.869309 1.014985 -1.082090
C 230.194005 0.914156 -0.750784
C 230.858200 -0.015630 -0.015492
C 230.063523 -1.235711 0.608826
C 230.566325 -2.489309 0.892213
C 229.528345 -3.231607 1.511700
C 228.422897 -2.409958 1.581105
C 227.035283 -2.755984 2.259520
C 227.047794 -3.716871 3.385668
C 226.609425 -5.034462 3.202064
C 226.636070 -5.941148 4.264445
C 227.105962 -5.535131 5.520080
C 227.118038 -6.528722 6.620482
O 227.582208 -6.026513 7.780626
O 226.760210 -7.691209 6.549659
C 227.548804 -4.219280 5.706643
C 227.519856 -3.315977 4.641071
C 225.899268 -2.139173 1.840959
C 224.613364 -2.375658 2.464341
C 223.704808 -1.628732 1.846299
C 224.366008 -0.877836 0.798189
N 225.690032 -1.222984 0.848091
N 228.736230 -1.226612 0.960849
C 227.516875 3.869887 -3.208655
C 227.046863 5.065037 -2.651962
C 227.023965 6.236343 -3.413325
C 227.470003 6.218272 -4.741113
C 227.429181 7.483115 -5.513677
O 227.877143 7.345160 -6.776363
O 227.042955 8.566039 -5.110861
C 227.937832 5.023442 -5.303181
C 227.958296 3.854785 -4.538062
H 222.984958 1.097185 -2.692602
H 224.969616 2.475619 -3.924474
H 226.483569 0.810722 -0.368612
H 230.143470 3.687350 -2.532563
H 231.900287 2.301544 -1.280784
H 231.572631 -2.827123 0.696237
H 229.586962 -4.243516 1.883259
H 226.244279 -5.339339 2.223123
H 226.288510 -6.958095 4.103868
H 227.526626 -6.787580 8.392186
H 227.918322 -3.881403 6.670013
H 227.862601 -2.291800 4.776281
H 224.417549 -3.033429 3.291985
H 222.660563 -1.597478 2.098542
H 228.077490 -0.481293 0.754438
H 226.701266 5.070157 -1.619960
H 226.657147 7.154815 -2.962983
H 227.788599 8.247443 -7.143202
H 228.289246 4.984680 -6.329645
H 228.321439 2.921166 -4.963895
C 239.114725 -0.015630 -0.015492
C 239.909105 0.777377 -1.133597
C 239.404802 1.240574 -2.331776
C 240.442370 1.960573 -2.977628
C 241.549380 1.908479 -2.156694
N 241.236822 1.123208 -1.075437
C 242.937921 2.627425 -2.403626
C 244.073416 2.126241 -1.850561
C 245.360028 2.775171 -1.998251
C 246.268425 2.057227 -1.346547
N 244.281963 1.014985 -1.082090
C 245.606659 0.914156 -0.750784
C 246.270853 -0.015630 -0.015492
C 245.476176 -1.235711 0.608826
C 245.978978 -2.489309 0.892213
C 244.940998 -3.231607 1.511700
C 243.835550 -2.409958 1.581105
C 242.447936 -2.755984 2.259520
C 242.460447 -3.716871 3.385668
C 242.022079 -5.034462 3.202064
C 242.048724 -5.941148 4.264445
C 242.518616 -5.535131 5.520080
C 242.530692 -6.528722 6.620482
O 242.994861 -6.026513 7.780626
O 242.172863 -7.691209 6.549659
C 242.961457 -4.219280 5.706643
C 242.932509 -3.315977 4.641071
C 241.311921 -2.139173 1.840959
C 240.026017 -2.375658 2.464341
C 239.117462 -1.628732 1.846299
C 239.778661 -0.877836 0.798189
N 241.102686 -1.222984 0.848091
N 244.148884 -1.226612 0.960849
C 242.929528 3.869887 -3.208655
C 242.459517 5.065037 -2.651962
C 242.436619 6.236343 -3.413325
C 242.882657 6.218272 -4.741113
C 242.841835 7.483115 -5.513677
O 243.289796 7.345160 -6.776363
O 242.455608 8.566039 -5.110861
C 243.350486 5.023442 -5.303181
C 243.370950 3.854785 -4.538062
H 238.397611 1.097185 -2.692602
H 240.382270 2.475619 -3.924474
H 241.896223 0.810722 -0.368612
H 245.556123 3.687350 -2.532563
H 247.312941 2.301544 -1.280784
H 246.985285 -2.827123 0.696237
H 244.999616 -4.243516 1.883259
H 241.656933 -5.339339 2.223123
H 241.701164 -6.958095 4.103868
H 242.939280 -6.787580 8.392186
H 243.330976 -3.881403 6.670013
H 243.275255 -2.291800 4.776281
H 239.830203 -3.033429 3.291985
H 238.073217 -1.597478 2.098542
H 243.490144 -0.481293 0.754438
H 242.113919 5.070157 -1.619960
H 242.069801 7.154815 -2.962983
H 243.201253 8.247443 -7.143202
H 243.701899 4.984680 -6.329645
H 243.734093 2.921166 -4.963895
