 xtb: 6.5.1 (b24c23e)
          07302205063D

177206  0     0  0            999 V2000
   19.5826   -0.0208   -0.0090 Cu  0  0  0  0  0  0  0  0  0  0  0  0
   16.1760   -0.0552   -0.0295 C   0  0  0  0  0  0  0  0  0  0  0  0
   16.8117   -1.2809    0.0984 C   0  0  0  0  0  0  0  0  0  0  0  0
   16.1372   -2.5386    0.2496 C   0  0  0  0  0  0  0  0  0  0  0  0
   17.0964   -3.4903    0.3619 C   0  0  0  0  0  0  0  0  0  0  0  0
   18.3667   -2.8227    0.2726 C   0  0  0  0  0  0  0  0  0  0  0  0
   18.1626   -1.4817    0.1184 N   0  0  0  0  0  0  0  0  0  0  0  0
   19.6117   -3.4486    0.3668 C   0  0  0  0  0  0  0  0  0  0  0  0
   19.6257   -4.9231    0.5279 C   0  0  0  0  0  0  0  0  0  0  0  0
   20.1480   -5.5213    1.6738 C   0  0  0  0  0  0  0  0  0  0  0  0
   20.1395   -6.9032    1.7785 C   0  0  0  0  0  0  0  0  0  0  0  0
   19.6579   -7.6986    0.8288 N   0  0  0  0  0  0  0  0  0  0  0  0
   19.1598   -7.1364   -0.2677 C   0  0  0  0  0  0  0  0  0  0  0  0
   19.1188   -5.7646   -0.4613 C   0  0  0  0  0  0  0  0  0  0  0  0
   20.8448   -2.7959    0.3214 C   0  0  0  0  0  0  0  0  0  0  0  0
   22.1223   -3.4484    0.3774 C   0  0  0  0  0  0  0  0  0  0  0  0
   23.0682   -2.4802    0.2816 C   0  0  0  0  0  0  0  0  0  0  0  0
   21.0330   -1.4462    0.1815 N   0  0  0  0  0  0  0  0  0  0  0  0
   22.3767   -1.2322    0.1580 C   0  0  0  0  0  0  0  0  0  0  0  0
   23.0125    0.0134    0.0129 C   0  0  0  0  0  0  0  0  0  0  0  0
   22.3534    1.2460   -0.1387 C   0  0  0  0  0  0  0  0  0  0  0  0
   23.0214    2.5000   -0.3181 C   0  0  0  0  0  0  0  0  0  0  0  0
   22.0576    3.4486   -0.4306 C   0  0  0  0  0  0  0  0  0  0  0  0
   20.7926    2.7800   -0.3124 C   0  0  0  0  0  0  0  0  0  0  0  0
   21.0060    1.4371   -0.1454 N   0  0  0  0  0  0  0  0  0  0  0  0
   19.5474    3.4071   -0.3846 C   0  0  0  0  0  0  0  0  0  0  0  0
   19.5341    4.8817   -0.5415 C   0  0  0  0  0  0  0  0  0  0  0  0
   18.9770    5.4867   -1.6675 C   0  0  0  0  0  0  0  0  0  0  0  0
   18.9921    6.8689   -1.7694 C   0  0  0  0  0  0  0  0  0  0  0  0
   19.5127    7.6586   -0.8356 N   0  0  0  0  0  0  0  0  0  0  0  0
   20.0436    7.0901    0.2423 C   0  0  0  0  0  0  0  0  0  0  0  0
   20.0796    5.7178    0.4321 C   0  0  0  0  0  0  0  0  0  0  0  0
   18.3140    2.7547   -0.3194 C   0  0  0  0  0  0  0  0  0  0  0  0
   17.0314    3.4040   -0.3500 C   0  0  0  0  0  0  0  0  0  0  0  0
   16.0904    2.4325   -0.2536 C   0  0  0  0  0  0  0  0  0  0  0  0
   16.7885    1.1826   -0.1540 C   0  0  0  0  0  0  0  0  0  0  0  0
   18.1353    1.4075   -0.1905 N   0  0  0  0  0  0  0  0  0  0  0  0
   15.0909   -0.0647   -0.0226 H   0  0  0  0  0  0  0  0  0  0  0  0
   15.0658   -2.6619    0.2719 H   0  0  0  0  0  0  0  0  0  0  0  0
   16.9635   -4.5506    0.5047 H   0  0  0  0  0  0  0  0  0  0  0  0
   20.5420   -4.9117    2.4782 H   0  0  0  0  0  0  0  0  0  0  0  0
   20.5388   -7.3920    2.6624 H   0  0  0  0  0  0  0  0  0  0  0  0
   18.7749   -7.8125   -1.0256 H   0  0  0  0  0  0  0  0  0  0  0  0
   18.7127   -5.3512   -1.3768 H   0  0  0  0  0  0  0  0  0  0  0  0
   22.2723   -4.5122    0.4656 H   0  0  0  0  0  0  0  0  0  0  0  0
   24.1406   -2.5918    0.2864 H   0  0  0  0  0  0  0  0  0  0  0  0
   24.0913    2.6272   -0.3579 H   0  0  0  0  0  0  0  0  0  0  0  0
   22.1876    4.5063   -0.5929 H   0  0  0  0  0  0  0  0  0  0  0  0
   18.5527    4.8823   -2.4604 H   0  0  0  0  0  0  0  0  0  0  0  0
   18.5687    7.3625   -2.6392 H   0  0  0  0  0  0  0  0  0  0  0  0
   20.4588    7.7614    0.9884 H   0  0  0  0  0  0  0  0  0  0  0  0
   20.5124    5.2991    1.3329 H   0  0  0  0  0  0  0  0  0  0  0  0
   16.8781    4.4686   -0.4235 H   0  0  0  0  0  0  0  0  0  0  0  0
   15.0171    2.5389   -0.2428 H   0  0  0  0  0  0  0  0  0  0  0  0
   56.8052    0.0259   -0.0076 Cu  0  0  0  0  0  0  0  0  0  0  0  0
   60.2118    0.0448   -0.0509 C   0  0  0  0  0  0  0  0  0  0  0  0
   59.5782    1.2559   -0.2845 C   0  0  0  0  0  0  0  0  0  0  0  0
   60.2547    2.5013   -0.5101 C   0  0  0  0  0  0  0  0  0  0  0  0
   59.2970    3.4460   -0.6799 C   0  0  0  0  0  0  0  0  0  0  0  0
   58.0256    2.7840   -0.5669 C   0  0  0  0  0  0  0  0  0  0  0  0
   58.2276    1.4566   -0.3207 N   0  0  0  0  0  0  0  0  0  0  0  0
   56.7816    3.4119   -0.6607 C   0  0  0  0  0  0  0  0  0  0  0  0
   56.7697    4.8685   -0.9406 C   0  0  0  0  0  0  0  0  0  0  0  0
   56.2499    5.7781   -0.0206 C   0  0  0  0  0  0  0  0  0  0  0  0
   56.2602    7.1297   -0.3269 C   0  0  0  0  0  0  0  0  0  0  0  0
   56.7415    7.6099   -1.4690 N   0  0  0  0  0  0  0  0  0  0  0  0
   57.2371    6.7493   -2.3523 C   0  0  0  0  0  0  0  0  0  0  0  0
   57.2759    5.3811   -2.1342 C   0  0  0  0  0  0  0  0  0  0  0  0
   55.5476    2.7767   -0.5115 C   0  0  0  0  0  0  0  0  0  0  0  0
   54.2711    3.4186   -0.6513 C   0  0  0  0  0  0  0  0  0  0  0  0
   53.3237    2.4673   -0.4543 C   0  0  0  0  0  0  0  0  0  0  0  0
   55.3573    1.4467   -0.2440 N   0  0  0  0  0  0  0  0  0  0  0  0
   54.0133    1.2380   -0.2008 C   0  0  0  0  0  0  0  0  0  0  0  0
   53.3753    0.0082    0.0391 C   0  0  0  0  0  0  0  0  0  0  0  0
   54.0324   -1.2145    0.2627 C   0  0  0  0  0  0  0  0  0  0  0  0
   53.3621   -2.4631    0.4691 C   0  0  0  0  0  0  0  0  0  0  0  0
   54.3243   -3.4057    0.6343 C   0  0  0  0  0  0  0  0  0  0  0  0
   55.5906   -2.7361    0.5384 C   0  0  0  0  0  0  0  0  0  0  0  0
   55.3796   -1.4033    0.3025 N   0  0  0  0  0  0  0  0  0  0  0  0
   56.8349   -3.3608    0.6421 C   0  0  0  0  0  0  0  0  0  0  0  0
   56.8466   -4.8172    0.9213 C   0  0  0  0  0  0  0  0  0  0  0  0
   57.3927   -5.7246    0.0143 C   0  0  0  0  0  0  0  0  0  0  0  0
   57.3765   -7.0768    0.3181 C   0  0  0  0  0  0  0  0  0  0  0  0
   56.8649   -7.5599    1.4457 N   0  0  0  0  0  0  0  0  0  0  0  0
   56.3447   -6.7015    2.3171 C   0  0  0  0  0  0  0  0  0  0  0  0
   56.3107   -5.3329    2.1007 C   0  0  0  0  0  0  0  0  0  0  0  0
   58.0692   -2.7215    0.5038 C   0  0  0  0  0  0  0  0  0  0  0  0
   59.3509   -3.3550    0.6564 C   0  0  0  0  0  0  0  0  0  0  0  0
   60.2934   -2.4003    0.4598 C   0  0  0  0  0  0  0  0  0  0  0  0
   59.5972   -1.1739    0.1939 C   0  0  0  0  0  0  0  0  0  0  0  0
   58.2499   -1.3960    0.2319 N   0  0  0  0  0  0  0  0  0  0  0  0
   61.2969    0.0532   -0.0513 H   0  0  0  0  0  0  0  0  0  0  0  0
   61.3262    2.6236   -0.5274 H   0  0  0  0  0  0  0  0  0  0  0  0
   59.4316    4.5013   -0.8549 H   0  0  0  0  0  0  0  0  0  0  0  0
   55.8565    5.4327    0.9280 H   0  0  0  0  0  0  0  0  0  0  0  0
   55.8638    7.8576    0.3750 H   0  0  0  0  0  0  0  0  0  0  0  0
   57.6214    7.1719   -3.2761 H   0  0  0  0  0  0  0  0  0  0  0  0
   57.6798    4.7159   -2.8882 H   0  0  0  0  0  0  0  0  0  0  0  0
   54.1230    4.4607   -0.8833 H   0  0  0  0  0  0  0  0  0  0  0  0
   52.2514    2.5772   -0.4820 H   0  0  0  0  0  0  0  0  0  0  0  0
   52.2918   -2.5930    0.4776 H   0  0  0  0  0  0  0  0  0  0  0  0
   54.1922   -4.4635    0.7937 H   0  0  0  0  0  0  0  0  0  0  0  0
   57.8096   -5.3776   -0.9237 H   0  0  0  0  0  0  0  0  0  0  0  0
   57.7916   -7.8029   -0.3748 H   0  0  0  0  0  0  0  0  0  0  0  0
   55.9367   -7.1260    3.2297 H   0  0  0  0  0  0  0  0  0  0  0  0
   55.8867   -4.6696    2.8453 H   0  0  0  0  0  0  0  0  0  0  0  0
   59.5027   -4.3951    0.8960 H   0  0  0  0  0  0  0  0  0  0  0  0
   61.3667   -2.5018    0.4952 H   0  0  0  0  0  0  0  0  0  0  0  0
   24.4183    0.0250    0.0073 C   0  0  0  0  0  0  0  0  0  0  0  0
   25.6427    0.0320    0.0078 C   0  0  0  0  0  0  0  0  0  0  0  0
   26.9857    0.0390    0.0011 C   0  0  0  0  0  0  0  0  0  0  0  0
   28.2161    0.0437   -0.0056 C   0  0  0  0  0  0  0  0  0  0  0  0
   29.5542    0.0430   -0.0119 C   0  0  0  0  0  0  0  0  0  0  0  0
   30.7848    0.0412   -0.0199 C   0  0  0  0  0  0  0  0  0  0  0  0
   32.1275    0.0373   -0.0272 C   0  0  0  0  0  0  0  0  0  0  0  0
   33.3521    0.0308   -0.0327 C   0  0  0  0  0  0  0  0  0  0  0  0
   43.0360   -0.0062   -0.0151 C   0  0  0  0  0  0  0  0  0  0  0  0
   44.2605   -0.0096   -0.0012 C   0  0  0  0  0  0  0  0  0  0  0  0
   45.6031   -0.0117    0.0123 C   0  0  0  0  0  0  0  0  0  0  0  0
   46.8337   -0.0100    0.0243 C   0  0  0  0  0  0  0  0  0  0  0  0
   48.1717   -0.0113    0.0368 C   0  0  0  0  0  0  0  0  0  0  0  0
   49.4023   -0.0107    0.0421 C   0  0  0  0  0  0  0  0  0  0  0  0
   50.7452   -0.0053    0.0467 C   0  0  0  0  0  0  0  0  0  0  0  0
   51.9695   -0.0010    0.0422 C   0  0  0  0  0  0  0  0  0  0  0  0
   38.1940    0.0041   -0.0340 Cu  0  0  0  0  0  0  0  0  0  0  0  0
   34.7572    0.0226   -0.0348 C   0  0  0  0  0  0  0  0  0  0  0  0
   35.4007   -0.8792    0.8320 C   0  0  0  0  0  0  0  0  0  0  0  0
   34.7176   -1.7577    1.7334 C   0  0  0  0  0  0  0  0  0  0  0  0
   35.6700   -2.4602    2.3980 C   0  0  0  0  0  0  0  0  0  0  0  0
   36.9417   -2.0192    1.8998 C   0  0  0  0  0  0  0  0  0  0  0  0
   36.7447   -1.0528    0.9497 N   0  0  0  0  0  0  0  0  0  0  0  0
   38.1802   -2.4863    2.3439 C   0  0  0  0  0  0  0  0  0  0  0  0
   38.1740   -3.5602    3.3675 C   0  0  0  0  0  0  0  0  0  0  0  0
   37.6364   -4.8172    3.0940 C   0  0  0  0  0  0  0  0  0  0  0  0
   37.6566   -5.7898    4.0812 C   0  0  0  0  0  0  0  0  0  0  0  0
   38.1627   -5.5820    5.2925 N   0  0  0  0  0  0  0  0  0  0  0  0
   38.6742   -4.3853    5.5623 C   0  0  0  0  0  0  0  0  0  0  0  0
   38.7055   -3.3517    4.6394 C   0  0  0  0  0  0  0  0  0  0  0  0
   39.4237   -2.0274    1.9058 C   0  0  0  0  0  0  0  0  0  0  0  0
   40.6902   -2.5510    2.3321 C   0  0  0  0  0  0  0  0  0  0  0  0
   41.6504   -1.8577    1.6692 C   0  0  0  0  0  0  0  0  0  0  0  0
   39.6316   -1.0341    0.9863 N   0  0  0  0  0  0  0  0  0  0  0  0
   40.9774   -0.9134    0.8288 C   0  0  0  0  0  0  0  0  0  0  0  0
   41.6310   -0.0055   -0.0241 C   0  0  0  0  0  0  0  0  0  0  0  0
   40.9876    0.9029   -0.8839 C   0  0  0  0  0  0  0  0  0  0  0  0
   41.6707    1.8393   -1.7252 C   0  0  0  0  0  0  0  0  0  0  0  0
   40.7181    2.5334   -2.3983 C   0  0  0  0  0  0  0  0  0  0  0  0
   39.4463    2.0198   -1.9754 C   0  0  0  0  0  0  0  0  0  0  0  0
   39.6435    1.0302   -1.0497 N   0  0  0  0  0  0  0  0  0  0  0  0
   38.2079    2.4859   -2.4204 C   0  0  0  0  0  0  0  0  0  0  0  0
   38.2144    3.5515   -3.4529 C   0  0  0  0  0  0  0  0  0  0  0  0
   38.7381    3.3224   -4.7245 C   0  0  0  0  0  0  0  0  0  0  0  0
   38.7183    4.3470   -5.6577 C   0  0  0  0  0  0  0  0  0  0  0  0
   38.2262    5.5539   -5.3978 N   0  0  0  0  0  0  0  0  0  0  0  0
   37.7286    5.7816   -4.1865 C   0  0  0  0  0  0  0  0  0  0  0  0
   37.6972    4.8190   -3.1897 C   0  0  0  0  0  0  0  0  0  0  0  0
   36.9643    2.0335   -1.9759 C   0  0  0  0  0  0  0  0  0  0  0  0
   35.6976    2.4873   -2.4755 C   0  0  0  0  0  0  0  0  0  0  0  0
   34.7373    1.7985   -1.8079 C   0  0  0  0  0  0  0  0  0  0  0  0
   35.4105    0.9152   -0.9037 C   0  0  0  0  0  0  0  0  0  0  0  0
   36.7564    1.0729   -1.0223 N   0  0  0  0  0  0  0  0  0  0  0  0
   33.6465   -1.8169    1.8423 H   0  0  0  0  0  0  0  0  0  0  0  0
   35.5282   -3.2024    3.1667 H   0  0  0  0  0  0  0  0  0  0  0  0
   37.2223   -5.0345    2.1167 H   0  0  0  0  0  0  0  0  0  0  0  0
   37.2488   -6.7782    3.8903 H   0  0  0  0  0  0  0  0  0  0  0  0
   39.0773   -4.2455    6.5611 H   0  0  0  0  0  0  0  0  0  0  0  0
   39.1237   -2.3886    4.9069 H   0  0  0  0  0  0  0  0  0  0  0  0
   40.8236   -3.3543    3.0385 H   0  0  0  0  0  0  0  0  0  0  0  0
   42.7206   -1.9734    1.7314 H   0  0  0  0  0  0  0  0  0  0  0  0
   42.7419    1.9485   -1.7819 H   0  0  0  0  0  0  0  0  0  0  0  0
   40.8594    3.3313   -3.1091 H   0  0  0  0  0  0  0  0  0  0  0  0
   39.1413    2.3506   -4.9835 H   0  0  0  0  0  0  0  0  0  0  0  0
   39.1150    4.1911   -6.6567 H   0  0  0  0  0  0  0  0  0  0  0  0
   37.3368    6.7779   -4.0039 H   0  0  0  0  0  0  0  0  0  0  0  0
   37.2899    5.0523   -2.2131 H   0  0  0  0  0  0  0  0  0  0  0  0
   35.5644    3.2289   -3.2464 H   0  0  0  0  0  0  0  0  0  0  0  0
   33.6669    1.8696   -1.9165 H   0  0  0  0  0  0  0  0  0  0  0  0
  2  3  4  0  0  0  0
  3  4  1  0  0  0  0
  4  5  2  0  0  0  0
  5  6  4  0  0  0  0
  1  7  1  0  0  0  0
  3  7  4  0  0  0  0
  6  7  4  0  0  0  0
  6  8  4  0  0  0  0
  8  9  1  0  0  0  0
  9 10  4  0  0  0  0
 10 11  4  0  0  0  0
 11 12  4  0  0  0  0
 12 13  4  0  0  0  0
  9 14  4  0  0  0  0
 13 14  4  0  0  0  0
  8 15  4  0  0  0  0
 15 16  4  0  0  0  0
 16 17  2  0  0  0  0
  1 18  1  0  0  0  0
 15 18  4  0  0  0  0
 17 19  4  0  0  0  0
 18 19  4  0  0  0  0
 19 20  4  0  0  0  0
 20 21  4  0  0  0  0
 21 22  4  0  0  0  0
 22 23  2  0  0  0  0
 23 24  4  0  0  0  0
  1 25  1  0  0  0  0
 21 25  4  0  0  0  0
 24 25  4  0  0  0  0
 24 26  4  0  0  0  0
 26 27  1  0  0  0  0
 27 28  4  0  0  0  0
 28 29  4  0  0  0  0
 29 30  4  0  0  0  0
 30 31  4  0  0  0  0
 27 32  4  0  0  0  0
 31 32  4  0  0  0  0
 26 33  4  0  0  0  0
 33 34  4  0  0  0  0
 34 35  2  0  0  0  0
  2 36  4  0  0  0  0
 35 36  1  0  0  0  0
  1 37  1  0  0  0  0
 33 37  4  0  0  0  0
 36 37  4  0  0  0  0
  2 38  1  0  0  0  0
  4 39  1  0  0  0  0
  5 40  1  0  0  0  0
 10 41  1  0  0  0  0
 11 42  1  0  0  0  0
 13 43  1  0  0  0  0
 14 44  1  0  0  0  0
 16 45  1  0  0  0  0
 17 46  1  0  0  0  0
 22 47  1  0  0  0  0
 23 48  1  0  0  0  0
 28 49  1  0  0  0  0
 29 50  1  0  0  0  0
 31 51  1  0  0  0  0
 32 52  1  0  0  0  0
 34 53  1  0  0  0  0
 35 54  1  0  0  0  0
 56 57  4  0  0  0  0
 57 58  1  0  0  0  0
 58 59  2  0  0  0  0
 59 60  4  0  0  0  0
 55 61  1  0  0  0  0
 57 61  4  0  0  0  0
 60 61  4  0  0  0  0
 60 62  4  0  0  0  0
 62 63  1  0  0  0  0
 63 64  4  0  0  0  0
 64 65  4  0  0  0  0
 65 66  4  0  0  0  0
 66 67  4  0  0  0  0
 63 68  4  0  0  0  0
 67 68  4  0  0  0  0
 62 69  4  0  0  0  0
 69 70  4  0  0  0  0
 70 71  2  0  0  0  0
 55 72  1  0  0  0  0
 69 72  4  0  0  0  0
 71 73  4  0  0  0  0
 72 73  4  0  0  0  0
 73 74  4  0  0  0  0
 74 75  4  0  0  0  0
 75 76  4  0  0  0  0
 76 77  2  0  0  0  0
 77 78  4  0  0  0  0
 55 79  1  0  0  0  0
 75 79  4  0  0  0  0
 78 79  4  0  0  0  0
 78 80  4  0  0  0  0
 80 81  1  0  0  0  0
 81 82  4  0  0  0  0
 82 83  4  0  0  0  0
 83 84  4  0  0  0  0
 84 85  4  0  0  0  0
 81 86  4  0  0  0  0
 85 86  4  0  0  0  0
 80 87  4  0  0  0  0
 87 88  4  0  0  0  0
 88 89  2  0  0  0  0
 56 90  4  0  0  0  0
 89 90  1  0  0  0  0
 55 91  1  0  0  0  0
 87 91  4  0  0  0  0
 90 91  4  0  0  0  0
 56 92  1  0  0  0  0
 58 93  1  0  0  0  0
 59 94  1  0  0  0  0
 64 95  1  0  0  0  0
 65 96  1  0  0  0  0
 67 97  1  0  0  0  0
 68 98  1  0  0  0  0
 70 99  1  0  0  0  0
 71100  1  0  0  0  0
 76101  1  0  0  0  0
 77102  1  0  0  0  0
 82103  1  0  0  0  0
 83104  1  0  0  0  0
 85105  1  0  0  0  0
 86106  1  0  0  0  0
 88107  1  0  0  0  0
 89108  1  0  0  0  0
 20109  4  0  0  0  0
109110  3  0  0  0  0
110111  4  0  0  0  0
111112  3  0  0  0  0
112113  4  0  0  0  0
113114  3  0  0  0  0
114115  4  0  0  0  0
115116  3  0  0  0  0
117118  3  0  0  0  0
118119  4  0  0  0  0
119120  3  0  0  0  0
120121  4  0  0  0  0
121122  3  0  0  0  0
122123  4  0  0  0  0
 74124  4  0  0  0  0
123124  3  0  0  0  0
116126  4  0  0  0  0
126127  4  0  0  0  0
127128  4  0  0  0  0
128129  2  0  0  0  0
129130  4  0  0  0  0
125131  1  0  0  0  0
127131  4  0  0  0  0
130131  4  0  0  0  0
130132  4  0  0  0  0
132133  1  0  0  0  0
133134  4  0  0  0  0
134135  4  0  0  0  0
135136  4  0  0  0  0
136137  4  0  0  0  0
133138  4  0  0  0  0
137138  4  0  0  0  0
132139  4  0  0  0  0
139140  4  0  0  0  0
140141  2  0  0  0  0
125142  1  0  0  0  0
139142  4  0  0  0  0
141143  4  0  0  0  0
142143  4  0  0  0  0
117144  4  0  0  0  0
143144  4  0  0  0  0
144145  4  0  0  0  0
145146  4  0  0  0  0
146147  2  0  0  0  0
147148  4  0  0  0  0
125149  1  0  0  0  0
145149  4  0  0  0  0
148149  4  0  0  0  0
148150  4  0  0  0  0
150151  1  0  0  0  0
151152  4  0  0  0  0
152153  4  0  0  0  0
153154  4  0  0  0  0
154155  4  0  0  0  0
151156  4  0  0  0  0
155156  4  0  0  0  0
150157  4  0  0  0  0
157158  4  0  0  0  0
158159  2  0  0  0  0
126160  4  0  0  0  0
159160  4  0  0  0  0
125161  1  0  0  0  0
157161  4  0  0  0  0
160161  4  0  0  0  0
128162  1  0  0  0  0
129163  1  0  0  0  0
134164  1  0  0  0  0
135165  1  0  0  0  0
137166  1  0  0  0  0
138167  1  0  0  0  0
140168  1  0  0  0  0
141169  1  0  0  0  0
146170  1  0  0  0  0
147171  1  0  0  0  0
152172  1  0  0  0  0
153173  1  0  0  0  0
155174  1  0  0  0  0
156175  1  0  0  0  0
158176  1  0  0  0  0
159177  1  0  0  0  0
M  END
