256

C 45.967439 -0.613434 0.571220
C 46.657984 -1.253309 -0.673104
C 46.008891 -1.781616 -1.762992
C 47.005509 -2.256744 -2.652571
C 48.230676 -2.013933 -2.072240
N 48.007978 -1.363672 -0.882519
C 49.653922 -2.426614 -2.641831
C 49.708879 -3.306674 -3.841672
C 50.275403 -2.795835 -5.025982
C 50.336380 -3.583956 -6.167270
O 50.891764 -3.126905 -7.328956
C 49.815749 -4.869014 -6.149869
O 49.862992 -5.642085 -7.280660
C 49.228939 -5.375959 -4.992615
O 48.692601 -6.633150 -5.008036
C 49.175819 -4.607289 -3.833581
C 50.783990 -1.934395 -2.057766
C 52.104482 -2.392742 -2.437966
C 53.002642 -1.742324 -1.708557
N 50.966761 -1.007568 -1.065334
C 52.304221 -0.823601 -0.833087
C 52.966917 0.013478 0.009492
C 52.174197 1.057994 0.902841
C 52.664936 2.253897 1.389550
C 51.648627 2.850320 2.178118
C 50.556879 2.009959 2.136001
N 50.870879 0.944656 1.322912
C 49.171734 2.220928 2.873801
C 49.094224 3.251504 3.933262
C 49.567623 2.998935 5.231354
C 49.480195 3.995987 6.190631
O 49.930452 3.770836 7.460949
C 48.935576 5.233128 5.867284
O 48.856613 6.204369 6.831905
C 48.479088 5.492706 4.579477
O 47.963978 6.733711 4.323392
C 48.553698 4.509035 3.606632
C 48.080399 1.512729 2.476995
C 46.793498 1.613206 3.144503
C 45.930963 0.821300 2.514700
C 46.629270 0.201911 1.414231
N 47.922668 0.619594 1.455947
H 44.916742 -0.821945 0.737545
H 44.939267 -1.818738 -1.904982
H 46.844419 -2.735465 -3.606936
H 48.734251 -0.993508 -0.277929
H 50.657329 -1.775708 -5.013989
H 51.205722 -2.229661 -7.136306
H 50.348882 -5.079943 -7.908414
H 48.934090 -6.967846 -5.888724
H 48.713816 -4.998863 -2.930730
H 52.332537 -3.158132 -3.156798
H 54.062540 -1.897211 -1.772254
H 53.649818 2.657363 1.202224
H 51.710309 3.785971 2.714133
H 50.212587 0.220014 1.041432
H 49.997055 2.029863 5.469898
H 49.760534 4.611681 7.925446
H 48.441474 6.957641 6.355839
H 47.730499 6.749826 3.375824
H 48.198248 4.672890 2.591213
H 46.569214 2.207178 4.011914
H 44.896636 0.674367 2.771029
C 88.805880 -0.686637 0.476821
C 88.115335 0.359209 1.406332
C 88.764428 1.283256 2.189339
C 87.767810 2.026541 2.870972
C 86.542643 1.524931 2.491330
N 86.765340 0.534555 1.565355
C 85.119397 1.973849 3.032821
C 85.064439 2.916816 4.183880
C 84.497915 4.191015 3.983965
C 84.436939 5.100162 5.031403
O 83.881554 6.339057 4.877950
C 84.957570 4.763386 6.271668
O 84.910327 5.666113 7.301916
C 85.544379 3.516362 6.474546
O 86.080718 3.218312 7.695994
C 85.597500 2.585185 5.441530
C 83.989329 1.530714 2.410692
C 82.668837 1.784835 2.949262
C 81.770676 1.240318 2.137731
N 83.806558 0.800268 1.265976
C 82.469098 0.621133 1.029981
C 81.806401 0.013478 0.009492
C 82.599122 -0.591705 -1.224540
C 82.108382 -0.765363 -2.503959
C 83.124692 -1.380619 -3.277922
C 84.216440 -1.549041 -2.453536
N 83.902440 -1.026765 -1.219351
C 85.601585 -2.211089 -2.841542
C 85.679094 -2.980625 -4.103429
C 85.205695 -4.300725 -4.181980
C 85.293124 -4.981576 -5.386457
O 84.842867 -6.267951 -5.484649
C 85.837743 -4.360417 -6.504147
O 85.916706 -5.052871 -7.684957
C 86.294231 -3.048533 -6.434945
O 86.809341 -2.491555 -7.573123
C 86.219621 -2.351209 -5.240050
C 86.692920 -2.003087 -2.056853
C 87.979821 -2.624564 -2.320347
C 88.842356 -2.211740 -1.396581
C 88.144049 -1.300120 -0.522725
N 86.850651 -1.236538 -0.937642
H 89.856576 -0.899635 0.637359
H 89.834052 1.411534 2.260641
H 87.928899 2.831677 3.572216
H 86.039068 0.041155 1.056329
H 84.115989 4.433366 2.992971
H 83.567597 6.375847 3.960995
H 84.424437 6.414050 6.913756
H 85.839229 3.987947 8.239404
H 86.059503 1.613276 5.596005
H 82.440782 2.290487 3.869511
H 80.710779 1.263448 2.303599
H 81.123500 -0.483489 -2.848087
H 83.063010 -1.666822 -4.317559
H 84.560731 -0.934552 -0.447448
H 84.776264 -4.773015 -3.302807
H 85.012784 -6.508490 -6.414659
H 86.331844 -4.404262 -8.295992
H 87.042820 -1.569810 -7.352829
H 86.575071 -1.326968 -5.145952
H 88.204104 -3.316791 -3.111564
H 89.876683 -2.496579 -1.318089
C 55.354400 0.013478 0.009492
C 56.576318 0.013478 0.009492
C 66.775701 0.013478 0.009492
C 67.997618 0.013478 0.009492
C 78.197001 0.013478 0.009492
C 79.418918 0.013478 0.009492
C 58.117531 -0.014348 -0.010105
C 58.901964 -1.361020 0.283381
C 58.367427 -2.530471 0.787966
C 59.404844 -3.495974 0.810557
C 60.545227 -2.883519 0.331974
N 60.245981 -1.566417 0.081948
C 61.946638 -3.575534 0.091633
C 61.953946 -5.039186 -0.135931
C 62.280614 -5.920289 0.912331
C 62.288860 -7.298179 0.687436
O 62.618106 -8.159394 1.703140
C 61.967127 -7.795289 -0.576004
O 61.967691 -9.141907 -0.830352
C 61.641651 -6.916857 -1.616598
O 61.339760 -7.452636 -2.848152
C 61.630908 -5.541731 -1.407114
C 63.082369 -2.832642 0.022329
C 64.373695 -3.427649 -0.255473
C 65.280637 -2.459317 -0.295225
N 63.290244 -1.487130 0.153828
C 64.616562 -1.197628 -0.032774
C 65.285912 -0.014348 -0.010105
C 64.503312 1.332748 0.281548
C 65.037038 2.496544 0.802637
C 64.002247 3.465250 0.818885
C 62.863039 2.859315 0.322709
N 63.163917 1.546414 0.053941
C 61.456699 3.548983 0.095805
C 61.414540 5.028432 0.041683
C 61.690981 5.721378 -1.148312
C 61.629513 7.109401 -1.155199
O 61.887279 7.799162 -2.309140
C 61.301266 7.805591 0.006841
O 61.237898 9.175102 -0.023209
C 61.036000 7.122290 1.189065
O 60.717520 7.853278 2.304381
C 61.091311 5.735461 1.215984
C 60.324447 2.801282 0.000585
C 59.026682 3.399458 -0.248755
C 58.119476 2.430409 -0.285959
C 58.789593 1.166543 -0.051955
N 60.121997 1.452171 0.097447
H 57.339122 -2.683794 1.082576
H 59.322059 -4.528142 1.122022
H 60.917342 -0.852750 -0.189563
H 62.529754 -5.498418 1.885383
H 62.873604 -7.619301 2.474081
H 61.722336 -9.194431 -1.776707
H 61.159845 -6.695308 -3.438252
H 61.384550 -4.838319 -2.200850
H 64.576338 -4.471627 -0.416140
H 66.326611 -2.608410 -0.492456
H 66.061933 2.644168 1.114987
H 64.086713 4.492890 1.140972
H 62.492575 0.836461 -0.230181
H 61.941519 5.168771 -2.051479
H 61.743539 8.733278 -2.058685
H 60.981484 9.402275 0.895978
H 60.572260 7.205715 3.019314
H 60.883136 5.167455 2.119627
H 58.822927 4.445282 -0.397730
H 57.069169 2.580108 -0.457930
C 69.538831 -0.014348 -0.010105
C 70.323264 -1.361020 0.283381
C 69.788727 -2.530471 0.787966
C 70.826144 -3.495974 0.810557
C 71.966527 -2.883519 0.331974
N 71.667282 -1.566417 0.081948
C 73.367938 -3.575534 0.091633
C 73.375247 -5.039186 -0.135931
C 73.701914 -5.920289 0.912331
C 73.710160 -7.298179 0.687436
O 74.039406 -8.159394 1.703140
C 73.388428 -7.795289 -0.576004
O 73.388992 -9.141907 -0.830352
C 73.062951 -6.916857 -1.616598
O 72.761060 -7.452636 -2.848152
C 73.052209 -5.541731 -1.407114
C 74.503670 -2.832642 0.022329
C 75.794996 -3.427649 -0.255473
C 76.701937 -2.459317 -0.295225
N 74.711544 -1.487130 0.153828
C 76.037862 -1.197628 -0.032774
C 76.707212 -0.014348 -0.010105
C 75.924612 1.332748 0.281548
C 76.458338 2.496544 0.802637
C 75.423548 3.465250 0.818885
C 74.284339 2.859315 0.322709
N 74.585217 1.546414 0.053941
C 72.877999 3.548983 0.095805
C 72.835840 5.028432 0.041683
C 73.112281 5.721378 -1.148312
C 73.050813 7.109401 -1.155199
O 73.308579 7.799162 -2.309140
C 72.722566 7.805591 0.006841
O 72.659198 9.175102 -0.023209
C 72.457300 7.122290 1.189065
O 72.138820 7.853278 2.304381
C 72.512611 5.735461 1.215984
C 71.745747 2.801282 0.000585
C 70.447982 3.399458 -0.248755
C 69.540776 2.430409 -0.285959
C 70.210893 1.166543 -0.051955
N 71.543297 1.452171 0.097447
H 68.760423 -2.683794 1.082576
H 70.743359 -4.528142 1.122022
H 72.338642 -0.852750 -0.189563
H 73.951054 -5.498418 1.885383
H 74.294905 -7.619301 2.474081
H 73.143636 -9.194431 -1.776707
H 72.581145 -6.695308 -3.438252
H 72.805850 -4.838319 -2.200850
H 75.997638 -4.471627 -0.416140
H 77.747912 -2.608410 -0.492456
H 77.483233 2.644168 1.114987
H 75.508013 4.492890 1.140972
H 73.913875 0.836461 -0.230181
H 73.362820 5.168771 -2.051479
H 73.164840 8.733278 -2.058685
H 72.402784 9.402275 0.895978
H 71.993560 7.205715 3.019314
H 72.304436 5.167455 2.119627
H 70.244228 4.445282 -0.397730
H 68.490470 2.580108 -0.457930
