456

C 82.373313 0.101403 0.277065
C 83.106758 1.274070 -0.443632
C 82.509791 2.401785 -0.959074
C 83.534034 3.171068 -1.570331
C 84.721731 2.482012 -1.413552
N 84.455376 1.351313 -0.682549
C 86.135224 2.894043 -1.987887
C 86.164416 3.952408 -2.954576
C 86.174573 4.839273 -3.765433
C 86.184730 5.890763 -4.731791
C 85.386253 5.802674 -5.866713
C 85.430665 6.847180 -6.773588
N 86.202504 7.947633 -6.622843
C 86.966151 7.997732 -5.507495
C 86.992754 7.006237 -4.542105
C 87.263317 2.240526 -1.605032
C 88.559065 2.576115 -2.160136
C 89.466102 1.766493 -1.626099
N 87.469944 1.213669 -0.721323
C 88.799419 0.879933 -0.692478
C 89.473633 -0.064939 0.015639
C 88.704671 -0.996311 1.044437
C 89.254942 -1.636455 2.137547
C 88.227523 -2.398394 2.748063
C 87.076786 -2.194745 2.016326
N 87.365564 -1.300420 1.012697
C 85.664346 -2.846648 2.293038
C 85.633351 -4.087142 3.007366
C 85.617984 -5.131294 3.601632
C 85.594516 -6.376160 4.301347
C 86.634737 -6.716183 5.158976
C 86.564539 -7.934316 5.812617
N 85.546563 -8.813077 5.668294
C 84.553648 -8.448779 4.825101
C 84.530893 -7.254558 4.125878
C 84.536816 -2.239629 1.845763
C 83.210214 -2.777356 2.092293
C 82.319003 -1.956676 1.543630
C 83.041317 -0.874710 0.920144
N 84.368218 -1.089507 1.126070
H 81.291037 0.074336 0.232677
H 81.457340 2.636719 -0.913879
H 83.413615 4.111653 -2.086319
H 85.147362 0.674588 -0.369179
H 84.748765 4.942080 -6.037763
H 84.826073 6.824683 -7.674752
H 87.579153 8.887722 -5.405097
H 87.625197 7.097559 -3.665656
H 88.760894 3.341384 -2.888059
H 90.515351 1.786691 -1.857865
H 90.283851 -1.571975 2.457543
H 88.316901 -3.025249 3.622161
H 86.679820 -0.884052 0.388183
H 87.476359 -6.049412 5.311573
H 87.352342 -8.245116 6.491893
H 83.746474 -9.167334 4.720678
H 83.708651 -7.012776 3.460920
H 82.983636 -3.678373 2.632735
H 81.250446 -2.073552 1.555638
C 202.433014 0.176830 0.209446
C 201.699569 -0.667217 1.296708
C 202.296536 -1.302336 2.361623
C 201.272293 -1.993690 3.059808
C 200.084596 -1.762846 2.391909
N 200.350951 -0.913122 1.347488
C 198.671103 -2.378615 2.738982
C 198.641911 -3.454751 3.685847
C 198.631754 -4.357317 4.479191
C 198.621597 -5.432376 5.419257
C 199.420074 -6.550969 5.208169
C 199.375662 -7.566139 6.147767
N 198.603823 -7.536062 7.258089
C 197.840176 -6.432792 7.429283
C 197.813573 -5.365224 6.548750
C 197.543010 -1.926906 2.131017
C 196.247262 -2.515237 2.404196
C 195.340225 -1.896255 1.657507
N 197.336383 -0.936685 1.206441
C 196.006908 -0.871688 0.877828
C 195.332694 -0.064939 0.015639
C 196.101656 1.059116 -0.798228
C 195.551385 2.215405 -1.315596
C 196.578804 2.905223 -2.006561
C 197.729541 2.155668 -1.883762
N 197.440763 1.060664 -1.103984
C 199.141981 2.501688 -2.501676
C 199.172976 3.346786 -3.657054
C 199.188343 4.051165 -4.630325
C 199.211811 4.882213 -5.791640
C 198.171590 5.771755 -6.036300
C 198.241788 6.554093 -7.176055
N 199.259764 6.506271 -8.065303
C 200.252679 5.628436 -7.794942
C 200.275434 4.803391 -6.683917
C 200.269511 1.991002 -1.946944
C 201.596113 2.294594 -2.454645
C 202.487324 1.659868 -1.698555
C 201.765010 0.922327 -0.690876
N 200.438109 1.150408 -0.881985
H 203.515290 0.135651 0.177709
H 203.348986 -1.282979 2.600080
H 201.392711 -2.608985 3.938646
H 199.658965 -0.527960 0.708890
H 200.057562 -6.627337 4.334070
H 199.980254 -8.459501 6.027323
H 197.227174 -6.427868 8.325131
H 197.181130 -4.503921 6.734921
H 196.045433 -3.322127 3.085693
H 194.290976 -2.128842 1.652360
H 194.522476 2.526482 -1.216671
H 196.489426 3.842354 -2.534556
H 198.126507 0.394543 -0.758061
H 197.329968 5.850875 -5.356881
H 197.453985 7.263161 -7.411077
H 201.059853 5.602840 -8.520593
H 201.097676 4.116067 -6.515945
H 201.822691 2.929891 -3.291488
H 203.555880 1.684526 -1.813430
C 91.930190 -0.050249 0.025915
C 93.388417 -0.072085 0.008042
C 94.522345 -0.092839 0.006551
C 95.883727 -0.105429 0.004360
C 97.157945 -0.095122 -0.000405
C 98.346408 -0.076324 -0.006561
C 99.698769 -0.051540 0.009307
C 100.799036 -0.050249 0.025915
C 110.320803 -0.050249 0.025915
C 111.779029 -0.072085 0.008042
C 112.912958 -0.092839 0.006551
C 114.274339 -0.105429 0.004360
C 115.548558 -0.095122 -0.000405
C 116.737021 -0.076324 -0.006561
C 118.089381 -0.051540 0.009307
C 119.189649 -0.050249 0.025915
C 128.711416 -0.050249 0.025915
C 130.169642 -0.072085 0.008042
C 131.303570 -0.092839 0.006551
C 132.664952 -0.105429 0.004360
C 133.939171 -0.095122 -0.000405
C 135.127633 -0.076324 -0.006561
C 136.479994 -0.051540 0.009307
C 137.580261 -0.050249 0.025915
C 147.102029 -0.050249 0.025915
C 148.560255 -0.072085 0.008042
C 149.694183 -0.092839 0.006551
C 151.055565 -0.105429 0.004360
C 152.329784 -0.095122 -0.000405
C 153.518246 -0.076324 -0.006561
C 154.870607 -0.051540 0.009307
C 155.970874 -0.050249 0.025915
C 165.492642 -0.050249 0.025915
C 166.950868 -0.072085 0.008042
C 168.084796 -0.092839 0.006551
C 169.446178 -0.105429 0.004360
C 170.720396 -0.095122 -0.000405
C 171.908859 -0.076324 -0.006561
C 173.261220 -0.051540 0.009307
C 174.361487 -0.050249 0.025915
C 183.883254 -0.050249 0.025915
C 185.341481 -0.072085 0.008042
C 186.475409 -0.092839 0.006551
C 187.836790 -0.105429 0.004360
C 189.111009 -0.095122 -0.000405
C 190.299472 -0.076324 -0.006561
C 191.651832 -0.051540 0.009307
C 192.752100 -0.050249 0.025915
C 102.049698 0.034740 -0.010653
C 102.847312 0.101840 -1.377626
C 102.357776 0.509050 -2.601264
C 103.400154 0.344317 -3.549601
C 104.494033 -0.154063 -2.874026
N 104.169089 -0.229648 -1.543234
C 105.878686 -0.567104 -3.504403
C 105.866797 -1.047643 -4.853755
C 105.840384 -1.459070 -5.982434
C 105.811413 -1.964227 -7.317778
C 106.569167 -3.080053 -7.656055
C 106.506423 -3.535291 -8.961243
N 105.753642 -2.960990 -9.927026
C 105.029360 -1.879345 -9.560922
C 105.023757 -1.347334 -8.283244
C 107.015422 -0.502301 -2.766145
C 108.303984 -0.886795 -3.304705
C 109.219030 -0.724253 -2.355050
N 107.230662 -0.114775 -1.472226
C 108.559975 -0.227780 -1.163326
C 109.230416 0.034740 -0.010653
C 108.436254 0.565469 1.255590
C 108.945307 1.320794 2.292157
C 107.904554 1.495144 3.240118
C 106.789415 0.848114 2.749355
N 107.103534 0.350083 1.509288
C 105.396465 0.698702 3.475971
C 105.390001 0.770426 4.906669
C 105.381671 0.853523 6.105665
C 105.354699 0.970110 7.528950
C 104.263228 1.560482 8.157312
C 104.283623 1.657945 9.537884
N 105.299939 1.214325 10.312361
C 106.343295 0.644573 9.666314
C 106.418164 0.500028 8.291486
C 104.262429 0.493189 2.759600
C 102.971612 0.327757 3.397003
C 102.058181 0.141866 2.450238
C 102.719695 0.185207 1.161772
N 104.050505 0.390865 1.412696
H 101.358635 0.868031 -2.794897
H 103.354124 0.551120 -4.607799
H 104.818470 -0.442298 -0.791714
H 107.189682 -3.580180 -6.920040
H 107.079170 -4.402998 -9.273369
H 104.430480 -1.434428 -10.349413
H 104.422316 -0.477287 -8.044237
H 108.494504 -1.242534 -4.301418
H 110.267708 -0.933543 -2.469703
H 109.957405 1.689008 2.370139
H 107.966768 2.020064 4.181503
H 106.445640 -0.081718 0.865563
H 103.421843 1.935741 7.584280
H 103.455061 2.111372 10.073723
H 107.148335 0.294016 10.305302
H 107.280457 0.035245 7.825597
H 102.778157 0.345591 4.454365
H 101.009256 -0.010674 2.628579
C 120.440311 0.034740 -0.010653
C 121.237925 0.101840 -1.377626
C 120.748389 0.509050 -2.601264
C 121.790767 0.344317 -3.549601
C 122.884645 -0.154063 -2.874026
N 122.559702 -0.229648 -1.543234
C 124.269299 -0.567104 -3.504403
C 124.257410 -1.047643 -4.853755
C 124.230997 -1.459070 -5.982434
C 124.202026 -1.964227 -7.317778
C 124.959780 -3.080053 -7.656055
C 124.897036 -3.535291 -8.961243
N 124.144255 -2.960990 -9.927026
C 123.419972 -1.879345 -9.560922
C 123.414370 -1.347334 -8.283244
C 125.406035 -0.502301 -2.766145
C 126.694597 -0.886795 -3.304705
C 127.609643 -0.724253 -2.355050
N 125.621275 -0.114775 -1.472226
C 126.950588 -0.227780 -1.163326
C 127.621029 0.034740 -0.010653
C 126.826866 0.565469 1.255590
C 127.335920 1.320794 2.292157
C 126.295167 1.495144 3.240118
C 125.180027 0.848114 2.749355
N 125.494147 0.350083 1.509288
C 123.787078 0.698702 3.475971
C 123.780614 0.770426 4.906669
C 123.772284 0.853523 6.105665
C 123.745312 0.970110 7.528950
C 122.653841 1.560482 8.157312
C 122.674236 1.657945 9.537884
N 123.690551 1.214325 10.312361
C 124.733908 0.644573 9.666314
C 124.808777 0.500028 8.291486
C 122.653042 0.493189 2.759600
C 121.362225 0.327757 3.397003
C 120.448794 0.141866 2.450238
C 121.110308 0.185207 1.161772
N 122.441118 0.390865 1.412696
H 119.749248 0.868031 -2.794897
H 121.744737 0.551120 -4.607799
H 123.209083 -0.442298 -0.791714
H 125.580295 -3.580180 -6.920040
H 125.469783 -4.402998 -9.273369
H 122.821092 -1.434428 -10.349413
H 122.812929 -0.477287 -8.044237
H 126.885117 -1.242534 -4.301418
H 128.658321 -0.933543 -2.469703
H 128.348017 1.689008 2.370139
H 126.357381 2.020064 4.181503
H 124.836253 -0.081718 0.865563
H 121.812456 1.935741 7.584280
H 121.845673 2.111372 10.073723
H 125.538948 0.294016 10.305302
H 125.671070 0.035245 7.825597
H 121.168770 0.345591 4.454365
H 119.399869 -0.010674 2.628579
C 138.830924 0.034740 -0.010653
C 139.628538 0.101840 -1.377626
C 139.139001 0.509050 -2.601264
C 140.181380 0.344317 -3.549601
C 141.275258 -0.154063 -2.874026
N 140.950315 -0.229648 -1.543234
C 142.659912 -0.567104 -3.504403
C 142.648023 -1.047643 -4.853755
C 142.621609 -1.459070 -5.982434
C 142.592638 -1.964227 -7.317778
C 143.350393 -3.080053 -7.656055
C 143.287648 -3.535291 -8.961243
N 142.534868 -2.960990 -9.927026
C 141.810585 -1.879345 -9.560922
C 141.804983 -1.347334 -8.283244
C 143.796648 -0.502301 -2.766145
C 145.085210 -0.886795 -3.304705
C 146.000256 -0.724253 -2.355050
N 144.011888 -0.114775 -1.472226
C 145.341201 -0.227780 -1.163326
C 146.011641 0.034740 -0.010653
C 145.217479 0.565469 1.255590
C 145.726533 1.320794 2.292157
C 144.685780 1.495144 3.240118
C 143.570640 0.848114 2.749355
N 143.884760 0.350083 1.509288
C 142.177691 0.698702 3.475971
C 142.171227 0.770426 4.906669
C 142.162897 0.853523 6.105665
C 142.135925 0.970110 7.528950
C 141.044453 1.560482 8.157312
C 141.064848 1.657945 9.537884
N 142.081164 1.214325 10.312361
C 143.124521 0.644573 9.666314
C 143.199390 0.500028 8.291486
C 141.043655 0.493189 2.759600
C 139.752838 0.327757 3.397003
C 138.839406 0.141866 2.450238
C 139.500921 0.185207 1.161772
N 140.831731 0.390865 1.412696
H 138.139861 0.868031 -2.794897
H 140.135350 0.551120 -4.607799
H 141.599696 -0.442298 -0.791714
H 143.970908 -3.580180 -6.920040
H 143.860396 -4.402998 -9.273369
H 141.211705 -1.434428 -10.349413
H 141.203542 -0.477287 -8.044237
H 145.275729 -1.242534 -4.301418
H 147.048933 -0.933543 -2.469703
H 146.738630 1.689008 2.370139
H 144.747994 2.020064 4.181503
H 143.226866 -0.081718 0.865563
H 140.203068 1.935741 7.584280
H 140.236286 2.111372 10.073723
H 143.929561 0.294016 10.305302
H 144.061683 0.035245 7.825597
H 139.559383 0.345591 4.454365
H 137.790482 -0.010674 2.628579
C 157.221536 0.034740 -0.010653
C 158.019151 0.101840 -1.377626
C 157.529614 0.509050 -2.601264
C 158.571992 0.344317 -3.549601
C 159.665871 -0.154063 -2.874026
N 159.340927 -0.229648 -1.543234
C 161.050524 -0.567104 -3.504403
C 161.038636 -1.047643 -4.853755
C 161.012222 -1.459070 -5.982434
C 160.983251 -1.964227 -7.317778
C 161.741006 -3.080053 -7.656055
C 161.678261 -3.535291 -8.961243
N 160.925481 -2.960990 -9.927026
C 160.201198 -1.879345 -9.560922
C 160.195596 -1.347334 -8.283244
C 162.187260 -0.502301 -2.766145
C 163.475822 -0.886795 -3.304705
C 164.390868 -0.724253 -2.355050
N 162.402501 -0.114775 -1.472226
C 163.731814 -0.227780 -1.163326
C 164.402254 0.034740 -0.010653
C 163.608092 0.565469 1.255590
C 164.117146 1.320794 2.292157
C 163.076392 1.495144 3.240118
C 161.961253 0.848114 2.749355
N 162.275373 0.350083 1.509288
C 160.568304 0.698702 3.475971
C 160.561839 0.770426 4.906669
C 160.553509 0.853523 6.105665
C 160.526537 0.970110 7.528950
C 159.435066 1.560482 8.157312
C 159.455461 1.657945 9.537884
N 160.471777 1.214325 10.312361
C 161.515134 0.644573 9.666314
C 161.590002 0.500028 8.291486
C 159.434268 0.493189 2.759600
C 158.143450 0.327757 3.397003
C 157.230019 0.141866 2.450238
C 157.891534 0.185207 1.161772
N 159.222343 0.390865 1.412696
H 156.530474 0.868031 -2.794897
H 158.525963 0.551120 -4.607799
H 159.990309 -0.442298 -0.791714
H 162.361521 -3.580180 -6.920040
H 162.251009 -4.402998 -9.273369
H 159.602318 -1.434428 -10.349413
H 159.594154 -0.477287 -8.044237
H 163.666342 -1.242534 -4.301418
H 165.439546 -0.933543 -2.469703
H 165.129243 1.689008 2.370139
H 163.138606 2.020064 4.181503
H 161.617479 -0.081718 0.865563
H 158.593681 1.935741 7.584280
H 158.626899 2.111372 10.073723
H 162.320174 0.294016 10.305302
H 162.452296 0.035245 7.825597
H 157.949995 0.345591 4.454365
H 156.181094 -0.010674 2.628579
C 175.612149 0.034740 -0.010653
C 176.409763 0.101840 -1.377626
C 175.920227 0.509050 -2.601264
C 176.962605 0.344317 -3.549601
C 178.056484 -0.154063 -2.874026
N 177.731540 -0.229648 -1.543234
C 179.441137 -0.567104 -3.504403
C 179.429249 -1.047643 -4.853755
C 179.402835 -1.459070 -5.982434
C 179.373864 -1.964227 -7.317778
C 180.131618 -3.080053 -7.656055
C 180.068874 -3.535291 -8.961243
N 179.316093 -2.960990 -9.927026
C 178.591811 -1.879345 -9.560922
C 178.586209 -1.347334 -8.283244
C 180.577873 -0.502301 -2.766145
C 181.866435 -0.886795 -3.304705
C 182.781481 -0.724253 -2.355050
N 180.793113 -0.114775 -1.472226
C 182.122426 -0.227780 -1.163326
C 182.792867 0.034740 -0.010653
C 181.998705 0.565469 1.255590
C 182.507758 1.320794 2.292157
C 181.467005 1.495144 3.240118
C 180.351866 0.848114 2.749355
N 180.665985 0.350083 1.509288
C 178.958916 0.698702 3.475971
C 178.952452 0.770426 4.906669
C 178.944122 0.853523 6.105665
C 178.917150 0.970110 7.528950
C 177.825679 1.560482 8.157312
C 177.846074 1.657945 9.537884
N 178.862390 1.214325 10.312361
C 179.905746 0.644573 9.666314
C 179.980615 0.500028 8.291486
C 177.824880 0.493189 2.759600
C 176.534063 0.327757 3.397003
C 175.620632 0.141866 2.450238
C 176.282146 0.185207 1.161772
N 177.612956 0.390865 1.412696
H 174.921086 0.868031 -2.794897
H 176.916576 0.551120 -4.607799
H 178.380921 -0.442298 -0.791714
H 180.752133 -3.580180 -6.920040
H 180.641621 -4.402998 -9.273369
H 177.992931 -1.434428 -10.349413
H 177.984767 -0.477287 -8.044237
H 182.056955 -1.242534 -4.301418
H 183.830159 -0.933543 -2.469703
H 183.519856 1.689008 2.370139
H 181.529219 2.020064 4.181503
H 180.008091 -0.081718 0.865563
H 176.984294 1.935741 7.584280
H 177.017512 2.111372 10.073723
H 180.710786 0.294016 10.305302
H 180.842908 0.035245 7.825597
H 176.340608 0.345591 4.454365
H 174.571707 -0.010674 2.628579
