556

C 100.917116 0.072868 0.116614
C 101.646380 -1.293645 -0.064441
C 101.043220 -2.530504 -0.091235
C 102.065397 -3.485675 -0.328673
C 103.258025 -2.797929 -0.446088
N 102.996886 -1.468015 -0.230027
C 104.677359 -3.413610 -0.792103
C 104.709062 -4.802163 -1.303832
C 104.504273 -5.053712 -2.667187
C 104.495613 -6.363365 -3.147962
C 104.691207 -7.419002 -2.253147
S 104.586252 -9.091525 -2.818213
O 103.999056 -9.094978 -4.143037
O 103.454631 -9.742748 -1.864168
O 105.842394 -9.751661 -2.538809
C 104.907034 -7.183065 -0.891769
C 104.917927 -5.870649 -0.420994
C 105.808668 -2.671230 -0.660520
C 107.110205 -3.187308 -1.031833
C 108.013556 -2.237140 -0.820532
N 106.007434 -1.391753 -0.215016
C 107.338067 -1.071239 -0.286129
C 108.006671 0.065380 0.044281
C 107.229716 1.301129 0.665100
C 107.764915 2.268628 1.492527
C 106.739643 3.206336 1.771552
C 105.605588 2.780486 1.113075
N 105.898620 1.591027 0.489112
C 104.199372 3.513673 1.094596
C 104.180472 4.970542 1.345892
C 104.558049 5.859120 0.330782
C 104.593448 7.231695 0.575329
C 104.245851 7.709476 1.843070
S 104.410005 9.437823 2.181749
O 103.349189 10.141036 1.496398
O 105.812676 9.837367 1.482807
O 104.644507 9.600748 3.602148
C 103.857846 6.836783 2.863366
C 103.824913 5.465643 2.608760
C 103.071813 2.803990 0.834485
C 101.752977 3.409506 0.785754
C 100.865079 2.454718 0.523979
C 101.582875 1.211140 0.386883
N 102.903920 1.473740 0.571335
H 99.839912 0.093848 0.002489
H 99.988054 -2.720959 0.031226
H 101.939839 -4.553196 -0.425790
H 103.695239 -0.729203 -0.194745
H 104.347245 -4.213152 -3.340976
H 104.326657 -6.540731 -4.206246
H 102.579441 -9.514036 -2.238903
H 105.063014 -8.004389 -0.197818
H 105.083044 -5.659451 0.634209
H 107.321054 -4.166294 -1.423660
H 109.065988 -2.341104 -1.011982
H 108.783115 2.302796 1.850157
H 106.821241 4.092827 2.381830
H 105.217797 0.993783 0.026774
H 104.830260 5.462079 -0.645777
H 104.894858 7.908722 -0.219271
H 106.538327 9.518566 2.058127
H 103.594239 7.202813 3.851734
H 103.532830 4.763096 3.387757
H 101.526080 4.450018 0.932220
H 99.802510 2.581731 0.423025
C 223.545985 0.020565 0.101550
C 222.816721 1.274041 0.675081
C 223.419881 2.335673 1.310278
C 222.397704 3.270812 1.617270
C 221.205076 2.750877 1.152029
N 221.466214 1.509774 0.627609
C 219.785742 3.456286 1.186502
C 219.754039 4.904311 1.491739
C 219.958828 5.842494 0.471040
C 219.967488 7.207241 0.760522
C 219.771893 7.625209 2.079752
S 219.876849 9.342072 2.490865
O 220.464045 10.049671 1.370833
O 221.008470 9.386074 3.645143
O 218.620707 9.752464 3.078593
C 219.556067 6.701298 3.107080
C 219.545174 5.339530 2.807661
C 218.654433 2.757644 0.903055
C 217.352896 3.392164 0.863128
C 216.449544 2.475164 0.536664
N 218.455667 1.437211 0.599756
C 217.125034 1.203622 0.369056
C 216.456430 0.065380 0.044281
C 217.233385 -1.311275 -0.087301
C 216.698186 -2.570668 0.098757
C 217.723457 -3.513139 -0.163731
C 218.857513 -2.802282 -0.494823
N 218.564481 -1.463154 -0.390526
C 220.263729 -3.413321 -0.900454
C 220.282629 -4.780672 -1.462564
C 219.905052 -4.993189 -2.794802
C 219.869653 -6.285569 -3.317791
C 220.217250 -7.364469 -2.498392
S 220.053096 -9.008189 -3.130905
O 221.113912 -9.239136 -4.085304
O 218.650424 -8.974758 -3.935292
O 219.818594 -9.901666 -2.014762
C 220.605255 -7.168163 -1.170212
C 220.638188 -5.871648 -0.656504
C 221.391288 -2.674003 -0.743237
C 222.710124 -3.160839 -1.106577
C 223.598022 -2.213079 -0.820398
C 222.880226 -1.087087 -0.275031
N 221.559181 -1.407569 -0.258514
H 224.623189 0.063502 -0.006251
H 224.475047 2.431815 1.515281
H 222.523262 4.226453 2.102845
H 220.767862 0.865377 0.264511
H 220.115856 5.489090 -0.546624
H 220.136444 7.920337 -0.041299
H 221.883660 9.391721 3.206162
H 219.400087 7.027687 4.131585
H 219.380057 4.599422 3.588877
H 217.142047 4.429589 1.052049
H 215.397112 2.665034 0.429840
H 215.679986 -2.789825 0.383426
H 217.641860 -4.588433 -0.118469
H 219.245304 -0.711486 -0.464362
H 219.632840 -4.137539 -3.410573
H 219.568243 -6.436231 -4.350775
H 217.924773 -9.010808 -3.278536
H 220.868862 -8.003834 -0.527947
H 220.930271 -5.691075 0.376841
H 222.937021 -4.119857 -1.535998
H 224.660591 -2.266938 -0.973444
C 114.333778 0.066483 0.052771
C 113.124839 0.053028 0.044324
C 111.703310 0.061847 0.032341
C 110.491641 0.069286 0.043204
C 115.750383 0.059808 0.053304
C 116.971079 0.069286 0.043204
C 130.500984 0.066483 0.052771
C 129.292044 0.053028 0.044324
C 127.870516 0.061847 0.032341
C 126.658846 0.069286 0.043204
C 131.917588 0.059808 0.053304
C 133.138284 0.069286 0.043204
C 146.668189 0.066483 0.052771
C 145.459250 0.053028 0.044324
C 144.037721 0.061847 0.032341
C 142.826051 0.069286 0.043204
C 148.084793 0.059808 0.053304
C 149.305489 0.069286 0.043204
C 162.835394 0.066483 0.052771
C 161.626455 0.053028 0.044324
C 160.204926 0.061847 0.032341
C 158.993257 0.069286 0.043204
C 164.251999 0.059808 0.053304
C 165.472694 0.069286 0.043204
C 179.002600 0.066483 0.052771
C 177.793660 0.053028 0.044324
C 176.372131 0.061847 0.032341
C 175.160462 0.069286 0.043204
C 180.419204 0.059808 0.053304
C 181.639900 0.069286 0.043204
C 195.169805 0.066483 0.052771
C 193.960866 0.053028 0.044324
C 192.539337 0.061847 0.032341
C 191.327667 0.069286 0.043204
C 196.586409 0.059808 0.053304
C 197.807105 0.069286 0.043204
C 211.337010 0.066483 0.052771
C 210.128071 0.053028 0.044324
C 208.706542 0.061847 0.032341
C 207.494872 0.069286 0.043204
C 212.753614 0.059808 0.053304
C 213.974310 0.069286 0.043204
C 118.307815 -0.029712 -0.019716
C 119.104993 0.438924 -1.304921
C 118.608477 0.556169 -2.586985
C 119.648168 1.082547 -3.396407
C 120.747353 1.264429 -2.583664
N 120.430146 0.797234 -1.333338
C 122.133163 1.900484 -3.002280
C 122.119512 2.921075 -4.072836
C 122.442863 2.570508 -5.390755
C 122.394942 3.527619 -6.403653
C 122.029000 4.840086 -6.087614
S 121.894514 6.021555 -7.397454
O 121.282984 7.226416 -6.874095
O 120.775484 5.377238 -8.369896
O 123.146943 6.054618 -8.117137
C 121.720880 5.209042 -4.775343
C 121.763579 4.242623 -3.770276
C 123.270905 1.553617 -2.347354
C 124.556269 2.138985 -2.666338
C 125.467743 1.613669 -1.854543
N 123.482895 0.675570 -1.321760
C 124.807772 0.668617 -0.976559
C 125.473212 -0.029712 -0.019716
C 124.678771 -1.032621 0.914804
C 125.185474 -2.151350 1.543267
C 124.146913 -2.691694 2.345727
C 123.036222 -1.892221 2.172608
N 123.348958 -0.931896 1.243660
C 121.646543 -2.039518 2.914740
C 121.653139 -2.654326 4.260799
C 121.248874 -3.985593 4.432912
C 121.234619 -4.556997 5.704659
C 121.635037 -3.789549 6.803103
S 121.506128 -4.487979 8.422897
O 122.509247 -5.520505 8.555417
O 120.052270 -5.196877 8.421167
O 121.388577 -3.406271 9.379109
C 122.054519 -2.465768 6.646280
C 122.064873 -1.902542 5.369927
C 120.508451 -1.563212 2.344494
C 119.220824 -1.629873 3.005276
C 118.310654 -1.081351 2.207339
C 118.972302 -0.637199 0.997874
N 120.297564 -0.949345 1.141741
H 117.605803 0.310075 -2.901898
H 119.593995 1.318381 -4.447973
H 121.085876 0.688079 -0.565274
H 122.728241 1.543290 -5.610294
H 122.640292 3.243848 -7.423583
H 119.895316 5.580171 -7.991634
H 121.439815 6.227410 -4.521209
H 121.518945 4.501060 -2.740925
H 124.751397 2.875777 -3.424987
H 126.513718 1.862683 -1.862969
H 126.194763 -2.524599 1.457515
H 124.211284 -3.554093 2.992054
H 122.690300 -0.275605 0.834533
H 120.934785 -4.559818 3.562940
H 120.909280 -5.586523 5.825755
H 119.376240 -4.498979 8.554131
H 122.360696 -1.863399 7.497286
H 122.379920 -0.870607 5.222311
H 119.023712 -2.042318 3.977736
H 117.265087 -0.987402 2.437963
C 134.475020 -0.029712 -0.019716
C 135.272198 0.438924 -1.304921
C 134.775682 0.556169 -2.586985
C 135.815373 1.082547 -3.396407
C 136.914558 1.264429 -2.583664
N 136.597352 0.797234 -1.333338
C 138.300368 1.900484 -3.002280
C 138.286717 2.921075 -4.072836
C 138.610068 2.570508 -5.390755
C 138.562147 3.527619 -6.403653
C 138.196205 4.840086 -6.087614
S 138.061719 6.021555 -7.397454
O 137.450190 7.226416 -6.874095
O 136.942689 5.377238 -8.369896
O 139.314149 6.054618 -8.117137
C 137.888086 5.209042 -4.775343
C 137.930784 4.242623 -3.770276
C 139.438110 1.553617 -2.347354
C 140.723475 2.138985 -2.666338
C 141.634948 1.613669 -1.854543
N 139.650100 0.675570 -1.321760
C 140.974977 0.668617 -0.976559
C 141.640418 -0.029712 -0.019716
C 140.845977 -1.032621 0.914804
C 141.352679 -2.151350 1.543267
C 140.314118 -2.691694 2.345727
C 139.203427 -1.892221 2.172608
N 139.516163 -0.931896 1.243660
C 137.813749 -2.039518 2.914740
C 137.820345 -2.654326 4.260799
C 137.416079 -3.985593 4.432912
C 137.401824 -4.556997 5.704659
C 137.802242 -3.789549 6.803103
S 137.673333 -4.487979 8.422897
O 138.676452 -5.520505 8.555417
O 136.219475 -5.196877 8.421167
O 137.555783 -3.406271 9.379109
C 138.221724 -2.465768 6.646280
C 138.232078 -1.902542 5.369927
C 136.675656 -1.563212 2.344494
C 135.388029 -1.629873 3.005276
C 134.477860 -1.081351 2.207339
C 135.139507 -0.637199 0.997874
N 136.464769 -0.949345 1.141741
H 133.773008 0.310075 -2.901898
H 135.761200 1.318381 -4.447973
H 137.253082 0.688079 -0.565274
H 138.895446 1.543290 -5.610294
H 138.807498 3.243848 -7.423583
H 136.062521 5.580171 -7.991634
H 137.607020 6.227410 -4.521209
H 137.686150 4.501060 -2.740925
H 140.918603 2.875777 -3.424987
H 142.680923 1.862683 -1.862969
H 142.361969 -2.524599 1.457515
H 140.378489 -3.554093 2.992054
H 138.857505 -0.275605 0.834533
H 137.101990 -4.559818 3.562940
H 137.076486 -5.586523 5.825755
H 135.543445 -4.498979 8.554131
H 138.527901 -1.863399 7.497286
H 138.547126 -0.870607 5.222311
H 135.190917 -2.042318 3.977736
H 133.432292 -0.987402 2.437963
C 150.642225 -0.029712 -0.019716
C 151.439404 0.438924 -1.304921
C 150.942887 0.556169 -2.586985
C 151.982579 1.082547 -3.396407
C 153.081763 1.264429 -2.583664
N 152.764557 0.797234 -1.333338
C 154.467574 1.900484 -3.002280
C 154.453923 2.921075 -4.072836
C 154.777273 2.570508 -5.390755
C 154.729352 3.527619 -6.403653
C 154.363410 4.840086 -6.087614
S 154.228924 6.021555 -7.397454
O 153.617395 7.226416 -6.874095
O 153.109895 5.377238 -8.369896
O 155.481354 6.054618 -8.117137
C 154.055291 5.209042 -4.775343
C 154.097989 4.242623 -3.770276
C 155.605315 1.553617 -2.347354
C 156.890680 2.138985 -2.666338
C 157.802153 1.613669 -1.854543
N 155.817306 0.675570 -1.321760
C 157.142182 0.668617 -0.976559
C 157.807623 -0.029712 -0.019716
C 157.013182 -1.032621 0.914804
C 157.519884 -2.151350 1.543267
C 156.481324 -2.691694 2.345727
C 155.370633 -1.892221 2.172608
N 155.683369 -0.931896 1.243660
C 153.980954 -2.039518 2.914740
C 153.987550 -2.654326 4.260799
C 153.583284 -3.985593 4.432912
C 153.569030 -4.556997 5.704659
C 153.969447 -3.789549 6.803103
S 153.840538 -4.487979 8.422897
O 154.843658 -5.520505 8.555417
O 152.386681 -5.196877 8.421167
O 153.722988 -3.406271 9.379109
C 154.388929 -2.465768 6.646280
C 154.399284 -1.902542 5.369927
C 152.842861 -1.563212 2.344494
C 151.555235 -1.629873 3.005276
C 150.645065 -1.081351 2.207339
C 151.306712 -0.637199 0.997874
N 152.631975 -0.949345 1.141741
H 149.940213 0.310075 -2.901898
H 151.928405 1.318381 -4.447973
H 153.420287 0.688079 -0.565274
H 155.062651 1.543290 -5.610294
H 154.974703 3.243848 -7.423583
H 152.229727 5.580171 -7.991634
H 153.774225 6.227410 -4.521209
H 153.853356 4.501060 -2.740925
H 157.085808 2.875777 -3.424987
H 158.848129 1.862683 -1.862969
H 158.529174 -2.524599 1.457515
H 156.545694 -3.554093 2.992054
H 155.024711 -0.275605 0.834533
H 153.269195 -4.559818 3.562940
H 153.243691 -5.586523 5.825755
H 151.710650 -4.498979 8.554131
H 154.695106 -1.863399 7.497286
H 154.714331 -0.870607 5.222311
H 151.358123 -2.042318 3.977736
H 149.599497 -0.987402 2.437963
C 166.809431 -0.029712 -0.019716
C 167.606609 0.438924 -1.304921
C 167.110093 0.556169 -2.586985
C 168.149784 1.082547 -3.396407
C 169.248968 1.264429 -2.583664
N 168.931762 0.797234 -1.333338
C 170.634779 1.900484 -3.002280
C 170.621128 2.921075 -4.072836
C 170.944479 2.570508 -5.390755
C 170.896558 3.527619 -6.403653
C 170.530616 4.840086 -6.087614
S 170.396130 6.021555 -7.397454
O 169.784600 7.226416 -6.874095
O 169.277100 5.377238 -8.369896
O 171.648559 6.054618 -8.117137
C 170.222496 5.209042 -4.775343
C 170.265195 4.242623 -3.770276
C 171.772521 1.553617 -2.347354
C 173.057885 2.138985 -2.666338
C 173.969359 1.613669 -1.854543
N 171.984511 0.675570 -1.321760
C 173.309388 0.668617 -0.976559
C 173.974828 -0.029712 -0.019716
C 173.180387 -1.032621 0.914804
C 173.687089 -2.151350 1.543267
C 172.648529 -2.691694 2.345727
C 171.537838 -1.892221 2.172608
N 171.850574 -0.931896 1.243660
C 170.148159 -2.039518 2.914740
C 170.154755 -2.654326 4.260799
C 169.750489 -3.985593 4.432912
C 169.736235 -4.556997 5.704659
C 170.136653 -3.789549 6.803103
S 170.007744 -4.487979 8.422897
O 171.010863 -5.520505 8.555417
O 168.553886 -5.196877 8.421167
O 169.890193 -3.406271 9.379109
C 170.556135 -2.465768 6.646280
C 170.566489 -1.902542 5.369927
C 169.010067 -1.563212 2.344494
C 167.722440 -1.629873 3.005276
C 166.812270 -1.081351 2.207339
C 167.473917 -0.637199 0.997874
N 168.799180 -0.949345 1.141741
H 166.107419 0.310075 -2.901898
H 168.095610 1.318381 -4.447973
H 169.587492 0.688079 -0.565274
H 171.229857 1.543290 -5.610294
H 171.141908 3.243848 -7.423583
H 168.396932 5.580171 -7.991634
H 169.941431 6.227410 -4.521209
H 170.020561 4.501060 -2.740925
H 173.253013 2.875777 -3.424987
H 175.015334 1.862683 -1.862969
H 174.696379 -2.524599 1.457515
H 172.712899 -3.554093 2.992054
H 171.191916 -0.275605 0.834533
H 169.436401 -4.559818 3.562940
H 169.410896 -5.586523 5.825755
H 167.877856 -4.498979 8.554131
H 170.862312 -1.863399 7.497286
H 170.881536 -0.870607 5.222311
H 167.525328 -2.042318 3.977736
H 165.766702 -0.987402 2.437963
C 182.976636 -0.029712 -0.019716
C 183.773814 0.438924 -1.304921
C 183.277298 0.556169 -2.586985
C 184.316989 1.082547 -3.396407
C 185.416174 1.264429 -2.583664
N 185.098967 0.797234 -1.333338
C 186.801984 1.900484 -3.002280
C 186.788333 2.921075 -4.072836
C 187.111684 2.570508 -5.390755
C 187.063763 3.527619 -6.403653
C 186.697821 4.840086 -6.087614
S 186.563335 6.021555 -7.397454
O 185.951805 7.226416 -6.874095
O 185.444305 5.377238 -8.369896
O 187.815764 6.054618 -8.117137
C 186.389702 5.209042 -4.775343
C 186.432400 4.242623 -3.770276
C 187.939726 1.553617 -2.347354
C 189.225091 2.138985 -2.666338
C 190.136564 1.613669 -1.854543
N 188.151716 0.675570 -1.321760
C 189.476593 0.668617 -0.976559
C 190.142034 -0.029712 -0.019716
C 189.347592 -1.032621 0.914804
C 189.854295 -2.151350 1.543267
C 188.815734 -2.691694 2.345727
C 187.705043 -1.892221 2.172608
N 188.017779 -0.931896 1.243660
C 186.315365 -2.039518 2.914740
C 186.321960 -2.654326 4.260799
C 185.917695 -3.985593 4.432912
C 185.903440 -4.556997 5.704659
C 186.303858 -3.789549 6.803103
S 186.174949 -4.487979 8.422897
O 187.178068 -5.520505 8.555417
O 184.721091 -5.196877 8.421167
O 186.057398 -3.406271 9.379109
C 186.723340 -2.465768 6.646280
C 186.733694 -1.902542 5.369927
C 185.177272 -1.563212 2.344494
C 183.889645 -1.629873 3.005276
C 182.979475 -1.081351 2.207339
C 183.641123 -0.637199 0.997874
N 184.966385 -0.949345 1.141741
H 182.274624 0.310075 -2.901898
H 184.262816 1.318381 -4.447973
H 185.754697 0.688079 -0.565274
H 187.397062 1.543290 -5.610294
H 187.309113 3.243848 -7.423583
H 184.564137 5.580171 -7.991634
H 186.108636 6.227410 -4.521209
H 186.187766 4.501060 -2.740925
H 189.420219 2.875777 -3.424987
H 191.182539 1.862683 -1.862969
H 190.863584 -2.524599 1.457515
H 188.880105 -3.554093 2.992054
H 187.359121 -0.275605 0.834533
H 185.603606 -4.559818 3.562940
H 185.578102 -5.586523 5.825755
H 184.045061 -4.498979 8.554131
H 187.029517 -1.863399 7.497286
H 187.048742 -0.870607 5.222311
H 183.692533 -2.042318 3.977736
H 181.933908 -0.987402 2.437963
C 199.143841 -0.029712 -0.019716
C 199.941020 0.438924 -1.304921
C 199.444503 0.556169 -2.586985
C 200.484195 1.082547 -3.396407
C 201.583379 1.264429 -2.583664
N 201.266173 0.797234 -1.333338
C 202.969189 1.900484 -3.002280
C 202.955538 2.921075 -4.072836
C 203.278889 2.570508 -5.390755
C 203.230968 3.527619 -6.403653
C 202.865026 4.840086 -6.087614
S 202.730540 6.021555 -7.397454
O 202.119011 7.226416 -6.874095
O 201.611511 5.377238 -8.369896
O 203.982970 6.054618 -8.117137
C 202.556907 5.209042 -4.775343
C 202.599605 4.242623 -3.770276
C 204.106931 1.553617 -2.347354
C 205.392296 2.138985 -2.666338
C 206.303769 1.613669 -1.854543
N 204.318922 0.675570 -1.321760
C 205.643798 0.668617 -0.976559
C 206.309239 -0.029712 -0.019716
C 205.514798 -1.032621 0.914804
C 206.021500 -2.151350 1.543267
C 204.982939 -2.691694 2.345727
C 203.872248 -1.892221 2.172608
N 204.184984 -0.931896 1.243660
C 202.482570 -2.039518 2.914740
C 202.489166 -2.654326 4.260799
C 202.084900 -3.985593 4.432912
C 202.070645 -4.556997 5.704659
C 202.471063 -3.789549 6.803103
S 202.342154 -4.487979 8.422897
O 203.345273 -5.520505 8.555417
O 200.888296 -5.196877 8.421167
O 202.224604 -3.406271 9.379109
C 202.890545 -2.465768 6.646280
C 202.900900 -1.902542 5.369927
C 201.344477 -1.563212 2.344494
C 200.056850 -1.629873 3.005276
C 199.146681 -1.081351 2.207339
C 199.808328 -0.637199 0.997874
N 201.133590 -0.949345 1.141741
H 198.441829 0.310075 -2.901898
H 200.430021 1.318381 -4.447973
H 201.921903 0.688079 -0.565274
H 203.564267 1.543290 -5.610294
H 203.476319 3.243848 -7.423583
H 200.731343 5.580171 -7.991634
H 202.275841 6.227410 -4.521209
H 202.354971 4.501060 -2.740925
H 205.587424 2.875777 -3.424987
H 207.349744 1.862683 -1.862969
H 207.030790 -2.524599 1.457515
H 205.047310 -3.554093 2.992054
H 203.526327 -0.275605 0.834533
H 201.770811 -4.559818 3.562940
H 201.745307 -5.586523 5.825755
H 200.212266 -4.498979 8.554131
H 203.196722 -1.863399 7.497286
H 203.215947 -0.870607 5.222311
H 199.859739 -2.042318 3.977736
H 198.101113 -0.987402 2.437963
