 xtb: 6.5.1 (b24c23e)
          07302209513D

223252  0     0  0            999 V2000
   31.1957    0.2136   -0.1414 Ni  0  0  0  0  0  0  0  0  0  0  0  0
   27.8651    0.6807   -0.5666 C   0  0  0  0  0  0  0  0  0  0  0  0
   28.4925    1.3813    0.4429 C   0  0  0  0  0  0  0  0  0  0  0  0
   27.8029    2.2550    1.3430 C   0  0  0  0  0  0  0  0  0  0  0  0
   28.7160    2.6787    2.2478 C   0  0  0  0  0  0  0  0  0  0  0  0
   29.9708    2.0933    1.8780 C   0  0  0  0  0  0  0  0  0  0  0  0
   29.8207    1.2908    0.7745 N   0  0  0  0  0  0  0  0  0  0  0  0
   31.1661    2.3439    2.5365 C   0  0  0  0  0  0  0  0  0  0  0  0
   32.3842    1.8495    2.0937 C   0  0  0  0  0  0  0  0  0  0  0  0
   33.6427    2.2254    2.6628 C   0  0  0  0  0  0  0  0  0  0  0  0
   34.6042    1.6437    1.9067 C   0  0  0  0  0  0  0  0  0  0  0  0
   32.5744    1.0227    1.0099 N   0  0  0  0  0  0  0  0  0  0  0  0
   33.9308    0.8933    0.8941 C   0  0  0  0  0  0  0  0  0  0  0  0
   34.6011    0.1052   -0.0446 C   0  0  0  0  0  0  0  0  0  0  0  0
   33.9313   -0.7360   -0.9367 C   0  0  0  0  0  0  0  0  0  0  0  0
   34.6052   -1.6774   -1.7745 C   0  0  0  0  0  0  0  0  0  0  0  0
   33.6442   -2.3834   -2.4164 C   0  0  0  0  0  0  0  0  0  0  0  0
   32.3856   -1.8454   -1.9979 C   0  0  0  0  0  0  0  0  0  0  0  0
   31.1627   -2.2669   -2.4979 C   0  0  0  0  0  0  0  0  0  0  0  0
   31.1358   -3.3842   -3.4825 C   0  0  0  0  0  0  0  0  0  0  0  0
   31.6264   -3.2017   -4.7820 C   0  0  0  0  0  0  0  0  0  0  0  0
   32.1049   -1.9617   -5.0670 O   0  0  0  0  0  0  0  0  0  0  0  0
   32.6326   -1.6730   -6.3457 C   0  0  0  0  0  0  0  0  0  0  0  0
   31.5974   -4.2510   -5.7000 C   0  0  0  0  0  0  0  0  0  0  0  0
   31.0795   -5.4781   -5.3137 C   0  0  0  0  0  0  0  0  0  0  0  0
   30.5857   -5.6810   -4.0339 C   0  0  0  0  0  0  0  0  0  0  0  0
   30.6105   -4.6303   -3.1171 C   0  0  0  0  0  0  0  0  0  0  0  0
   30.1539   -4.7298   -1.8410 O   0  0  0  0  0  0  0  0  0  0  0  0
   29.6068   -5.9442   -1.3690 C   0  0  0  0  0  0  0  0  0  0  0  0
   29.9640   -1.6527   -2.1637 C   0  0  0  0  0  0  0  0  0  0  0  0
   28.7122   -1.9630   -2.7887 C   0  0  0  0  0  0  0  0  0  0  0  0
   27.7991   -1.0972   -2.2897 C   0  0  0  0  0  0  0  0  0  0  0  0
   28.4880   -0.2768   -1.3403 C   0  0  0  0  0  0  0  0  0  0  0  0
   29.8148   -0.6198   -1.2730 N   0  0  0  0  0  0  0  0  0  0  0  0
   32.5752   -0.8397   -1.0768 N   0  0  0  0  0  0  0  0  0  0  0  0
   31.1562    3.2325    3.7318 C   0  0  0  0  0  0  0  0  0  0  0  0
   31.4054    2.7039    5.0050 C   0  0  0  0  0  0  0  0  0  0  0  0
   31.6327    1.3652    5.0571 O   0  0  0  0  0  0  0  0  0  0  0  0
   31.8868    0.7297    6.2935 C   0  0  0  0  0  0  0  0  0  0  0  0
   31.4021    3.5339    6.1259 C   0  0  0  0  0  0  0  0  0  0  0  0
   31.1550    4.8891    5.9676 C   0  0  0  0  0  0  0  0  0  0  0  0
   30.9102    5.4354    4.7168 C   0  0  0  0  0  0  0  0  0  0  0  0
   30.9102    4.6052    3.5964 C   0  0  0  0  0  0  0  0  0  0  0  0
   30.6894    5.0467    2.3297 O   0  0  0  0  0  0  0  0  0  0  0  0
   30.4489    6.4166    2.0796 C   0  0  0  0  0  0  0  0  0  0  0  0
   26.8062    0.8517   -0.7228 H   0  0  0  0  0  0  0  0  0  0  0  0
   26.7507    2.4852    1.2850 H   0  0  0  0  0  0  0  0  0  0  0  0
   28.5697    3.3382    3.0877 H   0  0  0  0  0  0  0  0  0  0  0  0
   33.7623    2.8675    3.5203 H   0  0  0  0  0  0  0  0  0  0  0  0
   35.6753    1.6983    2.0173 H   0  0  0  0  0  0  0  0  0  0  0  0
   35.6762   -1.7858   -1.8350 H   0  0  0  0  0  0  0  0  0  0  0  0
   33.7651   -3.1893   -3.1216 H   0  0  0  0  0  0  0  0  0  0  0  0
   31.8769   -1.7988   -7.1305 H   0  0  0  0  0  0  0  0  0  0  0  0
   32.9472   -0.6282   -6.3153 H   0  0  0  0  0  0  0  0  0  0  0  0
   33.5005   -2.3037   -6.5738 H   0  0  0  0  0  0  0  0  0  0  0  0
   31.9722   -4.1202   -6.7063 H   0  0  0  0  0  0  0  0  0  0  0  0
   31.0593   -6.2948   -6.0270 H   0  0  0  0  0  0  0  0  0  0  0  0
   30.1875   -6.6489   -3.7605 H   0  0  0  0  0  0  0  0  0  0  0  0
   29.3142   -5.7631   -0.3330 H   0  0  0  0  0  0  0  0  0  0  0  0
   28.7220   -6.2378   -1.9468 H   0  0  0  0  0  0  0  0  0  0  0  0
   30.3443   -6.7555   -1.3983 H   0  0  0  0  0  0  0  0  0  0  0  0
   28.5701   -2.7365   -3.5262 H   0  0  0  0  0  0  0  0  0  0  0  0
   26.7487   -1.0138   -2.5205 H   0  0  0  0  0  0  0  0  0  0  0  0
   32.0279   -0.3288    6.0676 H   0  0  0  0  0  0  0  0  0  0  0  0
   31.0417    0.8410    6.9837 H   0  0  0  0  0  0  0  0  0  0  0  0
   32.7953    1.1211    6.7672 H   0  0  0  0  0  0  0  0  0  0  0  0
   31.5905    3.1355    7.1138 H   0  0  0  0  0  0  0  0  0  0  0  0
   31.1540    5.5347    6.8390 H   0  0  0  0  0  0  0  0  0  0  0  0
   30.7229    6.4966    4.6227 H   0  0  0  0  0  0  0  0  0  0  0  0
   31.2988    7.0367    2.3891 H   0  0  0  0  0  0  0  0  0  0  0  0
   30.3121    6.5086    1.0005 H   0  0  0  0  0  0  0  0  0  0  0  0
   29.5417    6.7651    2.5882 H   0  0  0  0  0  0  0  0  0  0  0  0
   58.0514    0.1258   -0.1283 Ni  0  0  0  0  0  0  0  0  0  0  0  0
   61.4124    0.4785   -0.3957 C   0  0  0  0  0  0  0  0  0  0  0  0
   60.7862   -0.4108   -1.2452 C   0  0  0  0  0  0  0  0  0  0  0  0
   61.4817   -1.2250   -2.1952 C   0  0  0  0  0  0  0  0  0  0  0  0
   60.5423   -1.9507   -2.8458 C   0  0  0  0  0  0  0  0  0  0  0  0
   59.2710   -1.5557   -2.3152 C   0  0  0  0  0  0  0  0  0  0  0  0
   59.4346   -0.6350   -1.3098 N   0  0  0  0  0  0  0  0  0  0  0  0
   58.0526   -1.9837   -2.8222 C   0  0  0  0  0  0  0  0  0  0  0  0
   56.8367   -1.5242   -2.3368 C   0  0  0  0  0  0  0  0  0  0  0  0
   55.5753   -1.8334   -2.9375 C   0  0  0  0  0  0  0  0  0  0  0  0
   54.6252   -1.2181   -2.1932 C   0  0  0  0  0  0  0  0  0  0  0  0
   56.6606   -0.7155   -1.2374 N   0  0  0  0  0  0  0  0  0  0  0  0
   55.3071   -0.5517   -1.1289 C   0  0  0  0  0  0  0  0  0  0  0  0
   54.6437    0.0683   -0.0664 C   0  0  0  0  0  0  0  0  0  0  0  0
   55.3232    0.6278    1.0198 C   0  0  0  0  0  0  0  0  0  0  0  0
   54.6629    1.1314    2.1822 C   0  0  0  0  0  0  0  0  0  0  0  0
   55.6290    1.6178    2.9977 C   0  0  0  0  0  0  0  0  0  0  0  0
   56.8751    1.4375    2.3170 C   0  0  0  0  0  0  0  0  0  0  0  0
   58.0850    1.9382    2.7744 C   0  0  0  0  0  0  0  0  0  0  0  0
   58.1118    2.6974    4.0547 C   0  0  0  0  0  0  0  0  0  0  0  0
   57.4795    3.9441    4.1579 C   0  0  0  0  0  0  0  0  0  0  0  0
   56.8681    4.3960    3.0314 O   0  0  0  0  0  0  0  0  0  0  0  0
   56.1698    5.6247    3.0377 C   0  0  0  0  0  0  0  0  0  0  0  0
   57.5121    4.6542    5.3576 C   0  0  0  0  0  0  0  0  0  0  0  0
   58.1745    4.1150    6.4499 C   0  0  0  0  0  0  0  0  0  0  0  0
   58.8092    2.8847    6.3711 C   0  0  0  0  0  0  0  0  0  0  0  0
   58.7811    2.1763    5.1703 C   0  0  0  0  0  0  0  0  0  0  0  0
   59.3680    0.9627    4.9969 O   0  0  0  0  0  0  0  0  0  0  0  0
   60.0968    0.3623    6.0481 C   0  0  0  0  0  0  0  0  0  0  0  0
   59.2705    1.7956    2.0656 C   0  0  0  0  0  0  0  0  0  0  0  0
   60.5083    2.4078    2.4490 C   0  0  0  0  0  0  0  0  0  0  0  0
   61.4341    2.0265    1.5380 C   0  0  0  0  0  0  0  0  0  0  0  0
   60.7642    1.1707    0.6063 C   0  0  0  0  0  0  0  0  0  0  0  0
   59.4325    1.0594    0.9194 N   0  0  0  0  0  0  0  0  0  0  0  0
   56.6769    0.7907    1.1171 N   0  0  0  0  0  0  0  0  0  0  0  0
   58.0408   -2.9413   -3.9624 C   0  0  0  0  0  0  0  0  0  0  0  0
   57.5841   -4.2525   -3.7725 C   0  0  0  0  0  0  0  0  0  0  0  0
   57.1899   -4.5661   -2.5107 O   0  0  0  0  0  0  0  0  0  0  0  0
   56.7076   -5.8603   -2.2112 C   0  0  0  0  0  0  0  0  0  0  0  0
   57.5622   -5.1527   -4.8373 C   0  0  0  0  0  0  0  0  0  0  0  0
   57.9921   -4.7366   -6.0882 C   0  0  0  0  0  0  0  0  0  0  0  0
   58.4454   -3.4434   -6.3005 C   0  0  0  0  0  0  0  0  0  0  0  0
   58.4710   -2.5439   -5.2352 C   0  0  0  0  0  0  0  0  0  0  0  0
   58.8880   -1.2548   -5.3463 O   0  0  0  0  0  0  0  0  0  0  0  0
   59.3301   -0.7497   -6.5897 C   0  0  0  0  0  0  0  0  0  0  0  0
   62.4839    0.6092   -0.4944 H   0  0  0  0  0  0  0  0  0  0  0  0
   62.5526   -1.2331   -2.3246 H   0  0  0  0  0  0  0  0  0  0  0  0
   60.6812   -2.6789   -3.6284 H   0  0  0  0  0  0  0  0  0  0  0  0
   55.4468   -2.4383   -3.8204 H   0  0  0  0  0  0  0  0  0  0  0  0
   53.5556   -1.2188   -2.3295 H   0  0  0  0  0  0  0  0  0  0  0  0
   53.5970    1.1009    2.3419 H   0  0  0  0  0  0  0  0  0  0  0  0
   55.5183    2.0736    3.9680 H   0  0  0  0  0  0  0  0  0  0  0  0
   56.8382    6.4666    3.2550 H   0  0  0  0  0  0  0  0  0  0  0  0
   55.7575    5.7444    2.0341 H   0  0  0  0  0  0  0  0  0  0  0  0
   55.3492    5.6160    3.7654 H   0  0  0  0  0  0  0  0  0  0  0  0
   57.0300    5.6186    5.4458 H   0  0  0  0  0  0  0  0  0  0  0  0
   58.1978    4.6669    7.3832 H   0  0  0  0  0  0  0  0  0  0  0  0
   59.3179    2.4876    7.2393 H   0  0  0  0  0  0  0  0  0  0  0  0
   60.4839   -0.5779    5.6508 H   0  0  0  0  0  0  0  0  0  0  0  0
   60.9370    0.9922    6.3650 H   0  0  0  0  0  0  0  0  0  0  0  0
   59.4561    0.1511    6.9129 H   0  0  0  0  0  0  0  0  0  0  0  0
   60.6360    3.0485    3.3065 H   0  0  0  0  0  0  0  0  0  0  0  0
   62.4817    2.2791    1.4913 H   0  0  0  0  0  0  0  0  0  0  0  0
   56.4623   -5.8542   -1.1476 H   0  0  0  0  0  0  0  0  0  0  0  0
   57.4688   -6.6268   -2.4007 H   0  0  0  0  0  0  0  0  0  0  0  0
   55.8048   -6.0957   -2.7877 H   0  0  0  0  0  0  0  0  0  0  0  0
   57.2141   -6.1678   -4.7006 H   0  0  0  0  0  0  0  0  0  0  0  0
   57.9730   -5.4360   -6.9169 H   0  0  0  0  0  0  0  0  0  0  0  0
   58.7724   -3.1457   -7.2878 H   0  0  0  0  0  0  0  0  0  0  0  0
   58.5366   -0.7924   -7.3458 H   0  0  0  0  0  0  0  0  0  0  0  0
   59.6024    0.2928   -6.4145 H   0  0  0  0  0  0  0  0  0  0  0  0
   60.2089   -1.2944   -6.9556 H   0  0  0  0  0  0  0  0  0  0  0  0
   37.2294    0.1205   -0.0658 C   0  0  0  0  0  0  0  0  0  0  0  0
   36.0085    0.1100   -0.0495 C   0  0  0  0  0  0  0  0  0  0  0  0
   38.5813    0.1248   -0.0720 C   0  0  0  0  0  0  0  0  0  0  0  0
   39.8023    0.1191   -0.0799 C   0  0  0  0  0  0  0  0  0  0  0  0
   50.6661    0.0982   -0.0828 C   0  0  0  0  0  0  0  0  0  0  0  0
   49.4444    0.0929   -0.0893 C   0  0  0  0  0  0  0  0  0  0  0  0
   52.0167    0.0956   -0.0759 C   0  0  0  0  0  0  0  0  0  0  0  0
   53.2381    0.0831   -0.0659 C   0  0  0  0  0  0  0  0  0  0  0  0
   44.6242    0.0659   -0.0826 Ni  0  0  0  0  0  0  0  0  0  0  0  0
   41.2092    0.1051   -0.0812 C   0  0  0  0  0  0  0  0  0  0  0  0
   41.8799    0.0132    1.1412 C   0  0  0  0  0  0  0  0  0  0  0  0
   41.2092   -0.1105    2.3966 C   0  0  0  0  0  0  0  0  0  0  0  0
   42.1676   -0.0776    3.3536 C   0  0  0  0  0  0  0  0  0  0  0  0
   43.4197    0.0791    2.6793 C   0  0  0  0  0  0  0  0  0  0  0  0
   43.2336    0.0947    1.3155 N   0  0  0  0  0  0  0  0  0  0  0  0
   44.6294    0.2713    3.3297 C   0  0  0  0  0  0  0  0  0  0  0  0
   45.8335    0.4070    2.6544 C   0  0  0  0  0  0  0  0  0  0  0  0
   47.0825    0.6729    3.2991 C   0  0  0  0  0  0  0  0  0  0  0  0
   48.0363    0.6305    2.3376 C   0  0  0  0  0  0  0  0  0  0  0  0
   46.0160    0.2424    1.3002 N   0  0  0  0  0  0  0  0  0  0  0  0
   47.3666    0.3400    1.1097 C   0  0  0  0  0  0  0  0  0  0  0  0
   48.0392    0.0833   -0.0885 C   0  0  0  0  0  0  0  0  0  0  0  0
   47.3661   -0.1962   -1.2813 C   0  0  0  0  0  0  0  0  0  0  0  0
   48.0343   -0.5117   -2.5039 C   0  0  0  0  0  0  0  0  0  0  0  0
   47.0762   -0.6010   -3.4578 C   0  0  0  0  0  0  0  0  0  0  0  0
   45.8269   -0.3290   -2.8160 C   0  0  0  0  0  0  0  0  0  0  0  0
   44.6205   -0.2104   -3.4904 C   0  0  0  0  0  0  0  0  0  0  0  0
   44.6174   -0.3309   -4.9740 C   0  0  0  0  0  0  0  0  0  0  0  0
   43.9932   -1.4211   -5.5953 C   0  0  0  0  0  0  0  0  0  0  0  0
   43.4262   -2.3336   -4.7632 O   0  0  0  0  0  0  0  0  0  0  0  0
   42.7489   -3.4584   -5.2859 C   0  0  0  0  0  0  0  0  0  0  0  0
   43.9885   -1.5327   -6.9853 C   0  0  0  0  0  0  0  0  0  0  0  0
   44.6037   -0.5518   -7.7484 C   0  0  0  0  0  0  0  0  0  0  0  0
   45.2257    0.5368   -7.1562 C   0  0  0  0  0  0  0  0  0  0  0  0
   45.2349    0.6468   -5.7660 C   0  0  0  0  0  0  0  0  0  0  0  0
   45.8088    1.6794   -5.0949 O   0  0  0  0  0  0  0  0  0  0  0  0
   46.4747    2.7100   -5.7961 C   0  0  0  0  0  0  0  0  0  0  0  0
   43.4162    0.0226   -2.8419 C   0  0  0  0  0  0  0  0  0  0  0  0
   42.1677    0.1991   -3.5181 C   0  0  0  0  0  0  0  0  0  0  0  0
   41.2129    0.2868   -2.5610 C   0  0  0  0  0  0  0  0  0  0  0  0
   41.8817    0.1702   -1.3040 C   0  0  0  0  0  0  0  0  0  0  0  0
   43.2325    0.0460   -1.4782 N   0  0  0  0  0  0  0  0  0  0  0  0
   46.0136   -0.1227   -1.4677 N   0  0  0  0  0  0  0  0  0  0  0  0
   44.6389    0.3375    4.8168 C   0  0  0  0  0  0  0  0  0  0  0  0
   45.2362   -0.6870    5.5636 C   0  0  0  0  0  0  0  0  0  0  0  0
   45.7719   -1.7087    4.8460 O   0  0  0  0  0  0  0  0  0  0  0  0
   46.4098   -2.7877    5.4987 C   0  0  0  0  0  0  0  0  0  0  0  0
   45.2463   -0.6294    6.9569 C   0  0  0  0  0  0  0  0  0  0  0  0
   44.6642    0.4546    7.5966 C   0  0  0  0  0  0  0  0  0  0  0  0
   44.0698    1.4811    6.8784 C   0  0  0  0  0  0  0  0  0  0  0  0
   44.0546    1.4216    5.4852 C   0  0  0  0  0  0  0  0  0  0  0  0
   43.5048    2.3801    4.6943 O   0  0  0  0  0  0  0  0  0  0  0  0
   42.8750    3.5082    5.2667 C   0  0  0  0  0  0  0  0  0  0  0  0
   40.1417   -0.2073    2.5133 H   0  0  0  0  0  0  0  0  0  0  0  0
   42.0490   -0.1428    4.4229 H   0  0  0  0  0  0  0  0  0  0  0  0
   47.2020    0.8613    4.3537 H   0  0  0  0  0  0  0  0  0  0  0  0
   49.1006    0.7719    2.4358 H   0  0  0  0  0  0  0  0  0  0  0  0
   49.1001   -0.6408   -2.6031 H   0  0  0  0  0  0  0  0  0  0  0  0
   47.1937   -0.8215   -4.5063 H   0  0  0  0  0  0  0  0  0  0  0  0
   41.8992   -3.1601   -5.9120 H   0  0  0  0  0  0  0  0  0  0  0  0
   42.3801   -4.0177   -4.4241 H   0  0  0  0  0  0  0  0  0  0  0  0
   43.4220   -4.0984   -5.8692 H   0  0  0  0  0  0  0  0  0  0  0  0
   43.5125   -2.3722   -7.4741 H   0  0  0  0  0  0  0  0  0  0  0  0
   44.5980   -0.6376   -8.8295 H   0  0  0  0  0  0  0  0  0  0  0  0
   45.6954    1.2885   -7.7763 H   0  0  0  0  0  0  0  0  0  0  0  0
   46.8586    3.3941   -5.0369 H   0  0  0  0  0  0  0  0  0  0  0  0
   45.7896    3.2538   -6.4577 H   0  0  0  0  0  0  0  0  0  0  0  0
   47.3131    2.3185   -6.3848 H   0  0  0  0  0  0  0  0  0  0  0  0
   42.0487    0.2420   -4.5885 H   0  0  0  0  0  0  0  0  0  0  0  0
   40.1486    0.4136   -2.6784 H   0  0  0  0  0  0  0  0  0  0  0  0
   45.7152   -3.3301    6.1515 H   0  0  0  0  0  0  0  0  0  0  0  0
   46.7566   -3.4571    4.7093 H   0  0  0  0  0  0  0  0  0  0  0  0
   47.2708   -2.4485    6.0873 H   0  0  0  0  0  0  0  0  0  0  0  0
   45.7009   -1.4170    7.5427 H   0  0  0  0  0  0  0  0  0  0  0  0
   44.6742    0.5005    8.6801 H   0  0  0  0  0  0  0  0  0  0  0  0
   43.6259    2.3158    7.4041 H   0  0  0  0  0  0  0  0  0  0  0  0
   43.5810    4.1078    5.8542 H   0  0  0  0  0  0  0  0  0  0  0  0
   42.0300    3.2171    5.9025 H   0  0  0  0  0  0  0  0  0  0  0  0
   42.5056    4.1059    4.4313 H   0  0  0  0  0  0  0  0  0  0  0  0
  2  3  4  0  0  0  0
  3  4  4  0  0  0  0
  4  5  2  0  0  0  0
  5  6  4  0  0  0  0
  1  7  1  0  0  0  0
  3  7  4  0  0  0  0
  6  7  4  0  0  0  0
  6  8  4  0  0  0  0
  8  9  4  0  0  0  0
  9 10  4  0  0  0  0
 10 11  2  0  0  0  0
  1 12  1  0  0  0  0
  9 12  4  0  0  0  0
 11 13  4  0  0  0  0
 12 13  4  0  0  0  0
 13 14  4  0  0  0  0
 14 15  4  0  0  0  0
 15 16  4  0  0  0  0
 16 17  2  0  0  0  0
 17 18  4  0  0  0  0
 18 19  4  0  0  0  0
 19 20  1  0  0  0  0
 20 21  4  0  0  0  0
 21 22  1  0  0  0  0
 22 23  1  0  0  0  0
 21 24  4  0  0  0  0
 24 25  4  0  0  0  0
 25 26  4  0  0  0  0
 20 27  4  0  0  0  0
 26 27  4  0  0  0  0
 27 28  1  0  0  0  0
 28 29  1  0  0  0  0
 19 30  4  0  0  0  0
 30 31  4  0  0  0  0
 31 32  2  0  0  0  0
  2 33  4  0  0  0  0
 32 33  4  0  0  0  0
  1 34  1  0  0  0  0
 30 34  4  0  0  0  0
 33 34  4  0  0  0  0
  1 35  1  0  0  0  0
 15 35  4  0  0  0  0
 18 35  4  0  0  0  0
  8 36  1  0  0  0  0
 36 37  4  0  0  0  0
 37 38  1  0  0  0  0
 38 39  1  0  0  0  0
 37 40  4  0  0  0  0
 40 41  4  0  0  0  0
 41 42  4  0  0  0  0
 36 43  4  0  0  0  0
 42 43  4  0  0  0  0
 43 44  1  0  0  0  0
 44 45  1  0  0  0  0
  2 46  1  0  0  0  0
  4 47  1  0  0  0  0
  5 48  1  0  0  0  0
 10 49  1  0  0  0  0
 11 50  1  0  0  0  0
 16 51  1  0  0  0  0
 17 52  1  0  0  0  0
 23 53  1  0  0  0  0
 23 54  1  0  0  0  0
 23 55  1  0  0  0  0
 24 56  1  0  0  0  0
 25 57  1  0  0  0  0
 26 58  1  0  0  0  0
 29 59  1  0  0  0  0
 29 60  1  0  0  0  0
 29 61  1  0  0  0  0
 31 62  1  0  0  0  0
 32 63  1  0  0  0  0
 39 64  1  0  0  0  0
 39 65  1  0  0  0  0
 39 66  1  0  0  0  0
 40 67  1  0  0  0  0
 41 68  1  0  0  0  0
 42 69  1  0  0  0  0
 45 70  1  0  0  0  0
 45 71  1  0  0  0  0
 45 72  1  0  0  0  0
 74 75  4  0  0  0  0
 75 76  4  0  0  0  0
 76 77  2  0  0  0  0
 77 78  4  0  0  0  0
 73 79  1  0  0  0  0
 75 79  4  0  0  0  0
 78 79  4  0  0  0  0
 78 80  4  0  0  0  0
 80 81  4  0  0  0  0
 81 82  4  0  0  0  0
 82 83  2  0  0  0  0
 73 84  1  0  0  0  0
 81 84  4  0  0  0  0
 83 85  4  0  0  0  0
 84 85  4  0  0  0  0
 85 86  4  0  0  0  0
 86 87  4  0  0  0  0
 87 88  4  0  0  0  0
 88 89  2  0  0  0  0
 89 90  4  0  0  0  0
 90 91  4  0  0  0  0
 91 92  1  0  0  0  0
 92 93  4  0  0  0  0
 93 94  1  0  0  0  0
 94 95  1  0  0  0  0
 93 96  4  0  0  0  0
 96 97  4  0  0  0  0
 97 98  4  0  0  0  0
 92 99  4  0  0  0  0
 98 99  4  0  0  0  0
 99100  1  0  0  0  0
100101  1  0  0  0  0
 91102  4  0  0  0  0
102103  4  0  0  0  0
103104  2  0  0  0  0
 74105  4  0  0  0  0
104105  4  0  0  0  0
 73106  1  0  0  0  0
102106  4  0  0  0  0
105106  4  0  0  0  0
 73107  1  0  0  0  0
 87107  4  0  0  0  0
 90107  4  0  0  0  0
 80108  1  0  0  0  0
108109  4  0  0  0  0
109110  1  0  0  0  0
110111  1  0  0  0  0
109112  4  0  0  0  0
112113  4  0  0  0  0
113114  4  0  0  0  0
108115  4  0  0  0  0
114115  4  0  0  0  0
115116  1  0  0  0  0
116117  1  0  0  0  0
 74118  1  0  0  0  0
 76119  1  0  0  0  0
 77120  1  0  0  0  0
 82121  1  0  0  0  0
 83122  1  0  0  0  0
 88123  1  0  0  0  0
 89124  1  0  0  0  0
 95125  1  0  0  0  0
 95126  1  0  0  0  0
 95127  1  0  0  0  0
 96128  1  0  0  0  0
 97129  1  0  0  0  0
 98130  1  0  0  0  0
101131  1  0  0  0  0
101132  1  0  0  0  0
101133  1  0  0  0  0
103134  1  0  0  0  0
104135  1  0  0  0  0
111136  1  0  0  0  0
111137  1  0  0  0  0
111138  1  0  0  0  0
112139  1  0  0  0  0
113140  1  0  0  0  0
114141  1  0  0  0  0
117142  1  0  0  0  0
117143  1  0  0  0  0
117144  1  0  0  0  0
 14146  4  0  0  0  0
145146  3  0  0  0  0
145147  4  0  0  0  0
147148  3  0  0  0  0
149150  3  0  0  0  0
149151  4  0  0  0  0
 86152  4  0  0  0  0
151152  3  0  0  0  0
148154  4  0  0  0  0
154155  4  0  0  0  0
155156  4  0  0  0  0
156157  2  0  0  0  0
157158  4  0  0  0  0
153159  1  0  0  0  0
155159  4  0  0  0  0
158159  4  0  0  0  0
158160  4  0  0  0  0
160161  4  0  0  0  0
161162  4  0  0  0  0
162163  2  0  0  0  0
153164  1  0  0  0  0
161164  4  0  0  0  0
163165  4  0  0  0  0
164165  4  0  0  0  0
150166  4  0  0  0  0
165166  4  0  0  0  0
166167  4  0  0  0  0
167168  4  0  0  0  0
168169  2  0  0  0  0
169170  4  0  0  0  0
170171  4  0  0  0  0
171172  1  0  0  0  0
172173  4  0  0  0  0
173174  1  0  0  0  0
174175  1  0  0  0  0
173176  4  0  0  0  0
176177  4  0  0  0  0
177178  4  0  0  0  0
172179  4  0  0  0  0
178179  4  0  0  0  0
179180  1  0  0  0  0
180181  1  0  0  0  0
171182  4  0  0  0  0
182183  4  0  0  0  0
183184  2  0  0  0  0
154185  4  0  0  0  0
184185  4  0  0  0  0
153186  1  0  0  0  0
182186  4  0  0  0  0
185186  4  0  0  0  0
153187  1  0  0  0  0
167187  4  0  0  0  0
170187  4  0  0  0  0
160188  1  0  0  0  0
188189  4  0  0  0  0
189190  1  0  0  0  0
190191  1  0  0  0  0
189192  4  0  0  0  0
192193  4  0  0  0  0
193194  4  0  0  0  0
188195  4  0  0  0  0
194195  4  0  0  0  0
195196  1  0  0  0  0
196197  1  0  0  0  0
156198  1  0  0  0  0
157199  1  0  0  0  0
162200  1  0  0  0  0
163201  1  0  0  0  0
168202  1  0  0  0  0
169203  1  0  0  0  0
175204  1  0  0  0  0
175205  1  0  0  0  0
175206  1  0  0  0  0
176207  1  0  0  0  0
177208  1  0  0  0  0
178209  1  0  0  0  0
181210  1  0  0  0  0
181211  1  0  0  0  0
181212  1  0  0  0  0
183213  1  0  0  0  0
184214  1  0  0  0  0
191215  1  0  0  0  0
191216  1  0  0  0  0
191217  1  0  0  0  0
192218  1  0  0  0  0
193219  1  0  0  0  0
194220  1  0  0  0  0
197221  1  0  0  0  0
197222  1  0  0  0  0
197223  1  0  0  0  0
M  END
