 xtb: 6.5.1 (b24c23e)
          07302206063D

246285  0     0  0            999 V2000
   35.5941   -0.0061    0.0038 Ni  0  0  0  0  0  0  0  0  0  0  0  0
   32.1980   -0.0371    0.0079 C   0  0  0  0  0  0  0  0  0  0  0  0
   32.8554   -1.2386   -0.1536 C   0  0  0  0  0  0  0  0  0  0  0  0
   32.1801   -2.4909   -0.3064 C   0  0  0  0  0  0  0  0  0  0  0  0
   33.1388   -3.4446   -0.3571 C   0  0  0  0  0  0  0  0  0  0  0  0
   34.4000   -2.7725   -0.2425 C   0  0  0  0  0  0  0  0  0  0  0  0
   34.2161   -1.4170   -0.1297 N   0  0  0  0  0  0  0  0  0  0  0  0
   35.6203   -3.4312   -0.1732 C   0  0  0  0  0  0  0  0  0  0  0  0
   36.8291   -2.7636   -0.0378 C   0  0  0  0  0  0  0  0  0  0  0  0
   38.0972   -3.4261    0.0104 C   0  0  0  0  0  0  0  0  0  0  0  0
   39.0430   -2.4580    0.0580 C   0  0  0  0  0  0  0  0  0  0  0  0
   36.9982   -1.3968   -0.0132 N   0  0  0  0  0  0  0  0  0  0  0  0
   38.3519   -1.2083    0.0317 C   0  0  0  0  0  0  0  0  0  0  0  0
   39.0108    0.0240   -0.0043 C   0  0  0  0  0  0  0  0  0  0  0  0
   38.3295    1.2441   -0.0335 C   0  0  0  0  0  0  0  0  0  0  0  0
   38.9959    2.5056   -0.0990 C   0  0  0  0  0  0  0  0  0  0  0  0
   38.0331    3.4568   -0.0470 C   0  0  0  0  0  0  0  0  0  0  0  0
   36.7806    2.7720    0.0597 C   0  0  0  0  0  0  0  0  0  0  0  0
   35.5598    3.4194    0.1893 C   0  0  0  0  0  0  0  0  0  0  0  0
   35.5445    4.9006    0.2711 C   0  0  0  0  0  0  0  0  0  0  0  0
   34.9112    5.6562   -0.7163 C   0  0  0  0  0  0  0  0  0  0  0  0
   34.8972    7.0407   -0.6374 C   0  0  0  0  0  0  0  0  0  0  0  0
   35.5094    7.6855    0.4288 C   0  0  0  0  0  0  0  0  0  0  0  0
   36.1398    6.9401    1.4158 C   0  0  0  0  0  0  0  0  0  0  0  0
   36.1606    5.5556    1.3379 C   0  0  0  0  0  0  0  0  0  0  0  0
   34.3508    2.7384    0.2452 C   0  0  0  0  0  0  0  0  0  0  0  0
   33.0811    3.3816    0.4172 C   0  0  0  0  0  0  0  0  0  0  0  0
   32.1392    2.4114    0.3605 C   0  0  0  0  0  0  0  0  0  0  0  0
   32.8345    1.1761    0.1655 C   0  0  0  0  0  0  0  0  0  0  0  0
   34.1910    1.3809    0.1211 N   0  0  0  0  0  0  0  0  0  0  0  0
   36.9737    1.4085    0.0378 N   0  0  0  0  0  0  0  0  0  0  0  0
   35.6308   -4.9142   -0.2446 C   0  0  0  0  0  0  0  0  0  0  0  0
   35.2525   -5.5669   -1.4179 C   0  0  0  0  0  0  0  0  0  0  0  0
   35.2630   -6.9524   -1.4822 C   0  0  0  0  0  0  0  0  0  0  0  0
   35.6456   -7.6996   -0.3766 C   0  0  0  0  0  0  0  0  0  0  0  0
   36.0210   -7.0562    0.7948 C   0  0  0  0  0  0  0  0  0  0  0  0
   36.0167   -5.6709    0.8617 C   0  0  0  0  0  0  0  0  0  0  0  0
   31.1143   -0.0476    0.0166 H   0  0  0  0  0  0  0  0  0  0  0  0
   31.1089   -2.6052   -0.3551 H   0  0  0  0  0  0  0  0  0  0  0  0
   33.0166   -4.5115   -0.4502 H   0  0  0  0  0  0  0  0  0  0  0  0
   38.2353   -4.4948   -0.0048 H   0  0  0  0  0  0  0  0  0  0  0  0
   40.1151   -2.5640    0.0970 H   0  0  0  0  0  0  0  0  0  0  0  0
   40.0639    2.6304   -0.1763 H   0  0  0  0  0  0  0  0  0  0  0  0
   38.1494    4.5276   -0.0832 H   0  0  0  0  0  0  0  0  0  0  0  0
   34.4421    5.1541   -1.5550 H   0  0  0  0  0  0  0  0  0  0  0  0
   34.4061    7.6187   -1.4124 H   0  0  0  0  0  0  0  0  0  0  0  0
   35.4953    8.7678    0.4903 H   0  0  0  0  0  0  0  0  0  0  0  0
   36.6171    7.4390    2.2519 H   0  0  0  0  0  0  0  0  0  0  0  0
   36.6435    4.9738    2.1151 H   0  0  0  0  0  0  0  0  0  0  0  0
   32.9426    4.4401    0.5664 H   0  0  0  0  0  0  0  0  0  0  0  0
   31.0679    2.5030    0.4434 H   0  0  0  0  0  0  0  0  0  0  0  0
   34.9629   -4.9835   -2.2847 H   0  0  0  0  0  0  0  0  0  0  0  0
   34.9716   -7.4504   -2.4003 H   0  0  0  0  0  0  0  0  0  0  0  0
   35.6511   -8.7825   -0.4279 H   0  0  0  0  0  0  0  0  0  0  0  0
   36.3181   -7.6357    1.6618 H   0  0  0  0  0  0  0  0  0  0  0  0
   36.3005   -5.1690    1.7801 H   0  0  0  0  0  0  0  0  0  0  0  0
   91.3552    0.0448    0.0188 Ni  0  0  0  0  0  0  0  0  0  0  0  0
   94.7512    0.0700    0.0189 C   0  0  0  0  0  0  0  0  0  0  0  0
   94.0957    1.2782   -0.0917 C   0  0  0  0  0  0  0  0  0  0  0  0
   94.7729    2.5346   -0.1957 C   0  0  0  0  0  0  0  0  0  0  0  0
   93.8155    3.4910   -0.2094 C   0  0  0  0  0  0  0  0  0  0  0  0
   92.5534    2.8168   -0.1194 C   0  0  0  0  0  0  0  0  0  0  0  0
   92.7354    1.4577   -0.0598 N   0  0  0  0  0  0  0  0  0  0  0  0
   91.3346    3.4744   -0.0201 C   0  0  0  0  0  0  0  0  0  0  0  0
   90.1254    2.8041    0.0967 C   0  0  0  0  0  0  0  0  0  0  0  0
   88.8590    3.4661    0.1813 C   0  0  0  0  0  0  0  0  0  0  0  0
   87.9118    2.4984    0.1985 C   0  0  0  0  0  0  0  0  0  0  0  0
   89.9539    1.4377    0.0684 N   0  0  0  0  0  0  0  0  0  0  0  0
   88.6003    1.2497    0.1163 C   0  0  0  0  0  0  0  0  0  0  0  0
   87.9386    0.0212    0.0330 C   0  0  0  0  0  0  0  0  0  0  0  0
   88.6170   -1.1978   -0.0552 C   0  0  0  0  0  0  0  0  0  0  0  0
   87.9474   -2.4537   -0.1736 C   0  0  0  0  0  0  0  0  0  0  0  0
   88.9086   -3.4079   -0.1745 C   0  0  0  0  0  0  0  0  0  0  0  0
   90.1634   -2.7310   -0.0457 C   0  0  0  0  0  0  0  0  0  0  0  0
   91.3837   -3.3858    0.0451 C   0  0  0  0  0  0  0  0  0  0  0  0
   91.3974   -4.8692    0.0546 C   0  0  0  0  0  0  0  0  0  0  0  0
   92.0248   -5.5761   -0.9719 C   0  0  0  0  0  0  0  0  0  0  0  0
   92.0380   -6.9628   -0.9610 C   0  0  0  0  0  0  0  0  0  0  0  0
   91.4308   -7.6585    0.0756 C   0  0  0  0  0  0  0  0  0  0  0  0
   90.8065   -6.9619    1.1014 C   0  0  0  0  0  0  0  0  0  0  0  0
   90.7865   -5.5752    1.0915 C   0  0  0  0  0  0  0  0  0  0  0  0
   92.5941   -2.7100    0.1288 C   0  0  0  0  0  0  0  0  0  0  0  0
   93.8630   -3.3627    0.2678 C   0  0  0  0  0  0  0  0  0  0  0  0
   94.8063   -2.3923    0.2575 C   0  0  0  0  0  0  0  0  0  0  0  0
   94.1128   -1.1481    0.1222 C   0  0  0  0  0  0  0  0  0  0  0  0
   92.7559   -1.3484    0.0695 N   0  0  0  0  0  0  0  0  0  0  0  0
   89.9730   -1.3676   -0.0024 N   0  0  0  0  0  0  0  0  0  0  0  0
   91.3268    4.9591   -0.0351 C   0  0  0  0  0  0  0  0  0  0  0  0
   91.7010    5.6548   -1.1847 C   0  0  0  0  0  0  0  0  0  0  0  0
   91.6934    7.0417   -1.1968 C   0  0  0  0  0  0  0  0  0  0  0  0
   91.3180    7.7476   -0.0619 C   0  0  0  0  0  0  0  0  0  0  0  0
   90.9469    7.0613    1.0863 C   0  0  0  0  0  0  0  0  0  0  0  0
   90.9482    5.6744    1.1010 C   0  0  0  0  0  0  0  0  0  0  0  0
   95.8349    0.0784    0.0277 H   0  0  0  0  0  0  0  0  0  0  0  0
   95.8442    2.6491   -0.2406 H   0  0  0  0  0  0  0  0  0  0  0  0
   93.9393    4.5604   -0.2614 H   0  0  0  0  0  0  0  0  0  0  0  0
   88.7227    4.5348    0.2097 H   0  0  0  0  0  0  0  0  0  0  0  0
   86.8403    2.6045    0.2506 H   0  0  0  0  0  0  0  0  0  0  0  0
   86.8785   -2.5729   -0.2478 H   0  0  0  0  0  0  0  0  0  0  0  0
   88.7898   -4.4756   -0.2598 H   0  0  0  0  0  0  0  0  0  0  0  0
   92.4901   -5.0337   -1.7874 H   0  0  0  0  0  0  0  0  0  0  0  0
   92.5244   -7.5024   -1.7660 H   0  0  0  0  0  0  0  0  0  0  0  0
   91.4443   -8.7425    0.0841 H   0  0  0  0  0  0  0  0  0  0  0  0
   90.3333   -7.5009    1.9147 H   0  0  0  0  0  0  0  0  0  0  0  0
   90.3086   -5.0319    1.8990 H   0  0  0  0  0  0  0  0  0  0  0  0
   94.0000   -4.4274    0.3656 H   0  0  0  0  0  0  0  0  0  0  0  0
   95.8775   -2.4894    0.3349 H   0  0  0  0  0  0  0  0  0  0  0  0
   91.9851    5.1038   -2.0744 H   0  0  0  0  0  0  0  0  0  0  0  0
   91.9815    7.5733   -2.0969 H   0  0  0  0  0  0  0  0  0  0  0  0
   91.3149    8.8316   -0.0723 H   0  0  0  0  0  0  0  0  0  0  0  0
   90.6555    7.6083    1.9760 H   0  0  0  0  0  0  0  0  0  0  0  0
   90.6679    5.1388    2.0012 H   0  0  0  0  0  0  0  0  0  0  0  0
   40.4156    0.0361   -0.0139 C   0  0  0  0  0  0  0  0  0  0  0  0
   41.6399    0.0444   -0.0189 C   0  0  0  0  0  0  0  0  0  0  0  0
   42.9830    0.0522   -0.0211 C   0  0  0  0  0  0  0  0  0  0  0  0
   44.2136    0.0559   -0.0221 C   0  0  0  0  0  0  0  0  0  0  0  0
   45.5519    0.0574   -0.0178 C   0  0  0  0  0  0  0  0  0  0  0  0
   46.7825    0.0558   -0.0208 C   0  0  0  0  0  0  0  0  0  0  0  0
   48.1255    0.0561   -0.0174 C   0  0  0  0  0  0  0  0  0  0  0  0
   49.3500    0.0545   -0.0104 C   0  0  0  0  0  0  0  0  0  0  0  0
   59.0082    0.0462    0.0069 C   0  0  0  0  0  0  0  0  0  0  0  0
   60.2328    0.0448    0.0077 C   0  0  0  0  0  0  0  0  0  0  0  0
   61.5756    0.0443    0.0082 C   0  0  0  0  0  0  0  0  0  0  0  0
   62.8063    0.0414    0.0094 C   0  0  0  0  0  0  0  0  0  0  0  0
   64.1444    0.0410    0.0124 C   0  0  0  0  0  0  0  0  0  0  0  0
   65.3751    0.0382    0.0136 C   0  0  0  0  0  0  0  0  0  0  0  0
   66.7179    0.0386    0.0150 C   0  0  0  0  0  0  0  0  0  0  0  0
   67.9425    0.0356    0.0150 C   0  0  0  0  0  0  0  0  0  0  0  0
   77.5996    0.0153    0.0310 C   0  0  0  0  0  0  0  0  0  0  0  0
   78.8241    0.0146    0.0320 C   0  0  0  0  0  0  0  0  0  0  0  0
   80.1670    0.0119    0.0324 C   0  0  0  0  0  0  0  0  0  0  0  0
   81.3977    0.0086    0.0291 C   0  0  0  0  0  0  0  0  0  0  0  0
   82.7359    0.0083    0.0296 C   0  0  0  0  0  0  0  0  0  0  0  0
   83.9665    0.0053    0.0281 C   0  0  0  0  0  0  0  0  0  0  0  0
   85.3096    0.0072    0.0314 C   0  0  0  0  0  0  0  0  0  0  0  0
   86.5339    0.0124    0.0322 C   0  0  0  0  0  0  0  0  0  0  0  0
   54.1793    0.0499    0.0102 Ni  0  0  0  0  0  0  0  0  0  0  0  0
   50.7542    0.0530   -0.0036 C   0  0  0  0  0  0  0  0  0  0  0  0
   51.4243   -1.1726    0.0556 C   0  0  0  0  0  0  0  0  0  0  0  0
   50.7446   -2.4257    0.1371 C   0  0  0  0  0  0  0  0  0  0  0  0
   51.6994   -3.3867    0.1259 C   0  0  0  0  0  0  0  0  0  0  0  0
   52.9591   -2.7153    0.0288 C   0  0  0  0  0  0  0  0  0  0  0  0
   52.7793   -1.3503    0.0079 N   0  0  0  0  0  0  0  0  0  0  0  0
   54.1764   -3.3766   -0.0482 C   0  0  0  0  0  0  0  0  0  0  0  0
   55.3944   -2.7147   -0.1067 C   0  0  0  0  0  0  0  0  0  0  0  0
   56.6525   -3.3844   -0.2326 C   0  0  0  0  0  0  0  0  0  0  0  0
   57.6087   -2.4250   -0.2192 C   0  0  0  0  0  0  0  0  0  0  0  0
   55.5766   -1.3514   -0.0423 N   0  0  0  0  0  0  0  0  0  0  0  0
   56.9315   -1.1743   -0.0919 C   0  0  0  0  0  0  0  0  0  0  0  0
   57.6041    0.0472    0.0085 C   0  0  0  0  0  0  0  0  0  0  0  0
   56.9337    1.2694    0.1145 C   0  0  0  0  0  0  0  0  0  0  0  0
   57.6130    2.5179    0.2511 C   0  0  0  0  0  0  0  0  0  0  0  0
   56.6582    3.4785    0.2773 C   0  0  0  0  0  0  0  0  0  0  0  0
   55.3988    2.8120    0.1468 C   0  0  0  0  0  0  0  0  0  0  0  0
   54.1819    3.4761    0.0904 C   0  0  0  0  0  0  0  0  0  0  0  0
   54.1827    4.9599    0.1305 C   0  0  0  0  0  0  0  0  0  0  0  0
   53.6138    5.6360    1.2099 C   0  0  0  0  0  0  0  0  0  0  0  0
   53.6202    7.0223    1.2490 C   0  0  0  0  0  0  0  0  0  0  0  0
   54.1867    7.7473    0.2094 C   0  0  0  0  0  0  0  0  0  0  0  0
   54.7507    7.0807   -0.8698 C   0  0  0  0  0  0  0  0  0  0  0  0
   54.7530    5.6944   -0.9094 C   0  0  0  0  0  0  0  0  0  0  0  0
   52.9643    2.8171   -0.0019 C   0  0  0  0  0  0  0  0  0  0  0  0
   51.7068    3.4913   -0.1081 C   0  0  0  0  0  0  0  0  0  0  0  0
   50.7506    2.5321   -0.1363 C   0  0  0  0  0  0  0  0  0  0  0  0
   51.4272    1.2774   -0.0542 C   0  0  0  0  0  0  0  0  0  0  0  0
   52.7820    1.4524    0.0081 N   0  0  0  0  0  0  0  0  0  0  0  0
   55.5789    1.4490    0.0696 N   0  0  0  0  0  0  0  0  0  0  0  0
   54.1765   -4.8610   -0.0700 C   0  0  0  0  0  0  0  0  0  0  0  0
   53.6197   -5.5515   -1.1465 C   0  0  0  0  0  0  0  0  0  0  0  0
   53.6256   -6.9383   -1.1663 C   0  0  0  0  0  0  0  0  0  0  0  0
   54.1794   -7.6490   -0.1102 C   0  0  0  0  0  0  0  0  0  0  0  0
   54.7318   -6.9679    0.9659 C   0  0  0  0  0  0  0  0  0  0  0  0
   54.7348   -5.5812    0.9861 C   0  0  0  0  0  0  0  0  0  0  0  0
   49.6742   -2.5388    0.1966 H   0  0  0  0  0  0  0  0  0  0  0  0
   51.5732   -4.4554    0.1826 H   0  0  0  0  0  0  0  0  0  0  0  0
   56.7766   -4.4510   -0.3247 H   0  0  0  0  0  0  0  0  0  0  0  0
   58.6785   -2.5376   -0.2891 H   0  0  0  0  0  0  0  0  0  0  0  0
   58.6832    2.6284    0.3192 H   0  0  0  0  0  0  0  0  0  0  0  0
   56.7842    4.5438    0.3802 H   0  0  0  0  0  0  0  0  0  0  0  0
   53.1790    5.0698    2.0260 H   0  0  0  0  0  0  0  0  0  0  0  0
   53.1813    7.5386    2.0955 H   0  0  0  0  0  0  0  0  0  0  0  0
   54.1887    8.8309    0.2403 H   0  0  0  0  0  0  0  0  0  0  0  0
   55.1913    7.6428   -1.6857 H   0  0  0  0  0  0  0  0  0  0  0  0
   55.1860    5.1741   -1.7565 H   0  0  0  0  0  0  0  0  0  0  0  0
   51.5831    4.5606   -0.1599 H   0  0  0  0  0  0  0  0  0  0  0  0
   49.6811    2.6475   -0.2068 H   0  0  0  0  0  0  0  0  0  0  0  0
   53.1947   -4.9965   -1.9754 H   0  0  0  0  0  0  0  0  0  0  0  0
   53.1962   -7.4660   -2.0106 H   0  0  0  0  0  0  0  0  0  0  0  0
   54.1808   -8.7330   -0.1259 H   0  0  0  0  0  0  0  0  0  0  0  0
   55.1626   -7.5189    1.7946 H   0  0  0  0  0  0  0  0  0  0  0  0
   55.1591   -5.0493    1.8304 H   0  0  0  0  0  0  0  0  0  0  0  0
   72.7710    0.0253    0.0254 Ni  0  0  0  0  0  0  0  0  0  0  0  0
   69.3465    0.0325    0.0170 C   0  0  0  0  0  0  0  0  0  0  0  0
   70.0153   -1.1938    0.0758 C   0  0  0  0  0  0  0  0  0  0  0  0
   69.3346   -2.4462    0.1600 C   0  0  0  0  0  0  0  0  0  0  0  0
   70.2880   -3.4083    0.1412 C   0  0  0  0  0  0  0  0  0  0  0  0
   71.5480   -2.7384    0.0374 C   0  0  0  0  0  0  0  0  0  0  0  0
   71.3698   -1.3731    0.0209 N   0  0  0  0  0  0  0  0  0  0  0  0
   72.7639   -3.4009   -0.0502 C   0  0  0  0  0  0  0  0  0  0  0  0
   73.9826   -2.7400   -0.1103 C   0  0  0  0  0  0  0  0  0  0  0  0
   75.2397   -3.4100   -0.2438 C   0  0  0  0  0  0  0  0  0  0  0  0
   76.1971   -2.4518   -0.2220 C   0  0  0  0  0  0  0  0  0  0  0  0
   74.1664   -1.3775   -0.0349 N   0  0  0  0  0  0  0  0  0  0  0  0
   75.5216   -1.2015   -0.0831 C   0  0  0  0  0  0  0  0  0  0  0  0
   76.1955    0.0181    0.0298 C   0  0  0  0  0  0  0  0  0  0  0  0
   75.5263    1.2405    0.1421 C   0  0  0  0  0  0  0  0  0  0  0  0
   76.2064    2.4876    0.2867 C   0  0  0  0  0  0  0  0  0  0  0  0
   75.2529    3.4497    0.3077 C   0  0  0  0  0  0  0  0  0  0  0  0
   73.9935    2.7854    0.1671 C   0  0  0  0  0  0  0  0  0  0  0  0
   72.7780    3.4515    0.1014 C   0  0  0  0  0  0  0  0  0  0  0  0
   72.7802    4.9354    0.1344 C   0  0  0  0  0  0  0  0  0  0  0  0
   72.2009    5.6182    1.2041 C   0  0  0  0  0  0  0  0  0  0  0  0
   72.2053    7.0047    1.2338 C   0  0  0  0  0  0  0  0  0  0  0  0
   72.7803    7.7233    0.1946 C   0  0  0  0  0  0  0  0  0  0  0  0
   73.3557    7.0501   -0.8745 C   0  0  0  0  0  0  0  0  0  0  0  0
   73.3600    5.6636   -0.9046 C   0  0  0  0  0  0  0  0  0  0  0  0
   71.5599    2.7940    0.0053 C   0  0  0  0  0  0  0  0  0  0  0  0
   70.3033    3.4691   -0.1061 C   0  0  0  0  0  0  0  0  0  0  0  0
   69.3459    2.5109   -0.1291 C   0  0  0  0  0  0  0  0  0  0  0  0
   70.0209    1.2558   -0.0401 C   0  0  0  0  0  0  0  0  0  0  0  0
   71.3758    1.4295    0.0214 N   0  0  0  0  0  0  0  0  0  0  0  0
   74.1720    1.4223    0.0897 N   0  0  0  0  0  0  0  0  0  0  0  0
   72.7608   -4.8850   -0.0799 C   0  0  0  0  0  0  0  0  0  0  0  0
   72.1912   -5.5685   -1.1542 C   0  0  0  0  0  0  0  0  0  0  0  0
   72.1913   -6.9552   -1.1803 C   0  0  0  0  0  0  0  0  0  0  0  0
   72.7521   -7.6729   -0.1326 C   0  0  0  0  0  0  0  0  0  0  0  0
   73.3175   -6.9989    0.9412 C   0  0  0  0  0  0  0  0  0  0  0  0
   73.3263   -5.6123    0.9676 C   0  0  0  0  0  0  0  0  0  0  0  0
   68.2644   -2.5581    0.2258 H   0  0  0  0  0  0  0  0  0  0  0  0
   70.1608   -4.4770    0.1970 H   0  0  0  0  0  0  0  0  0  0  0  0
   75.3623   -4.4758   -0.3456 H   0  0  0  0  0  0  0  0  0  0  0  0
   77.2668   -2.5652   -0.2932 H   0  0  0  0  0  0  0  0  0  0  0  0
   77.2762    2.5963    0.3625 H   0  0  0  0  0  0  0  0  0  0  0  0
   75.3798    4.5147    0.4134 H   0  0  0  0  0  0  0  0  0  0  0  0
   71.7592    5.0571    2.0201 H   0  0  0  0  0  0  0  0  0  0  0  0
   71.7576    7.5262    2.0726 H   0  0  0  0  0  0  0  0  0  0  0  0
   72.7800    8.8072    0.2177 H   0  0  0  0  0  0  0  0  0  0  0  0
   73.8032    7.6072   -1.6901 H   0  0  0  0  0  0  0  0  0  0  0  0
   73.8015    5.1381   -1.7441 H   0  0  0  0  0  0  0  0  0  0  0  0
   70.1808    4.5382   -0.1640 H   0  0  0  0  0  0  0  0  0  0  0  0
   68.2766    2.6273   -0.2008 H   0  0  0  0  0  0  0  0  0  0  0  0
   71.7605   -5.0081   -1.9765 H   0  0  0  0  0  0  0  0  0  0  0  0
   71.7516   -7.4774   -2.0227 H   0  0  0  0  0  0  0  0  0  0  0  0
   72.7484   -8.7568   -0.1530 H   0  0  0  0  0  0  0  0  0  0  0  0
   73.7538   -7.5553    1.7633 H   0  0  0  0  0  0  0  0  0  0  0  0
   73.7604   -5.0859    1.8104 H   0  0  0  0  0  0  0  0  0  0  0  0
  2  3  4  0  0  0  0
  3  4  4  0  0  0  0
  4  5  2  0  0  0  0
  5  6  4  0  0  0  0
  1  7  1  0  0  0  0
  3  7  4  0  0  0  0
  6  7  4  0  0  0  0
  6  8  4  0  0  0  0
  8  9  4  0  0  0  0
  9 10  4  0  0  0  0
 10 11  2  0  0  0  0
  1 12  1  0  0  0  0
  9 12  4  0  0  0  0
 11 13  4  0  0  0  0
 12 13  4  0  0  0  0
 13 14  4  0  0  0  0
 14 15  4  0  0  0  0
 15 16  4  0  0  0  0
 16 17  2  0  0  0  0
 17 18  4  0  0  0  0
 18 19  4  0  0  0  0
 19 20  1  0  0  0  0
 20 21  4  0  0  0  0
 21 22  4  0  0  0  0
 22 23  4  0  0  0  0
 23 24  4  0  0  0  0
 20 25  4  0  0  0  0
 24 25  4  0  0  0  0
 19 26  4  0  0  0  0
 26 27  4  0  0  0  0
 27 28  2  0  0  0  0
  2 29  4  0  0  0  0
 28 29  4  0  0  0  0
  1 30  1  0  0  0  0
 26 30  4  0  0  0  0
 29 30  4  0  0  0  0
  1 31  1  0  0  0  0
 15 31  4  0  0  0  0
 18 31  4  0  0  0  0
  8 32  1  0  0  0  0
 32 33  4  0  0  0  0
 33 34  4  0  0  0  0
 34 35  4  0  0  0  0
 35 36  4  0  0  0  0
 32 37  4  0  0  0  0
 36 37  4  0  0  0  0
  2 38  1  0  0  0  0
  4 39  1  0  0  0  0
  5 40  1  0  0  0  0
 10 41  1  0  0  0  0
 11 42  1  0  0  0  0
 16 43  1  0  0  0  0
 17 44  1  0  0  0  0
 21 45  1  0  0  0  0
 22 46  1  0  0  0  0
 23 47  1  0  0  0  0
 24 48  1  0  0  0  0
 25 49  1  0  0  0  0
 27 50  1  0  0  0  0
 28 51  1  0  0  0  0
 33 52  1  0  0  0  0
 34 53  1  0  0  0  0
 35 54  1  0  0  0  0
 36 55  1  0  0  0  0
 37 56  1  0  0  0  0
 58 59  4  0  0  0  0
 59 60  4  0  0  0  0
 60 61  2  0  0  0  0
 61 62  4  0  0  0  0
 57 63  1  0  0  0  0
 59 63  4  0  0  0  0
 62 63  4  0  0  0  0
 62 64  4  0  0  0  0
 64 65  4  0  0  0  0
 65 66  4  0  0  0  0
 66 67  2  0  0  0  0
 57 68  1  0  0  0  0
 65 68  4  0  0  0  0
 67 69  4  0  0  0  0
 68 69  4  0  0  0  0
 69 70  4  0  0  0  0
 70 71  4  0  0  0  0
 71 72  4  0  0  0  0
 72 73  2  0  0  0  0
 73 74  4  0  0  0  0
 74 75  4  0  0  0  0
 75 76  1  0  0  0  0
 76 77  4  0  0  0  0
 77 78  4  0  0  0  0
 78 79  4  0  0  0  0
 79 80  4  0  0  0  0
 76 81  4  0  0  0  0
 80 81  4  0  0  0  0
 75 82  4  0  0  0  0
 82 83  4  0  0  0  0
 83 84  2  0  0  0  0
 58 85  4  0  0  0  0
 84 85  4  0  0  0  0
 57 86  1  0  0  0  0
 82 86  4  0  0  0  0
 85 86  4  0  0  0  0
 57 87  1  0  0  0  0
 71 87  4  0  0  0  0
 74 87  4  0  0  0  0
 64 88  1  0  0  0  0
 88 89  4  0  0  0  0
 89 90  4  0  0  0  0
 90 91  4  0  0  0  0
 91 92  4  0  0  0  0
 88 93  4  0  0  0  0
 92 93  4  0  0  0  0
 58 94  1  0  0  0  0
 60 95  1  0  0  0  0
 61 96  1  0  0  0  0
 66 97  1  0  0  0  0
 67 98  1  0  0  0  0
 72 99  1  0  0  0  0
 73100  1  0  0  0  0
 77101  1  0  0  0  0
 78102  1  0  0  0  0
 79103  1  0  0  0  0
 80104  1  0  0  0  0
 81105  1  0  0  0  0
 83106  1  0  0  0  0
 84107  1  0  0  0  0
 89108  1  0  0  0  0
 90109  1  0  0  0  0
 91110  1  0  0  0  0
 92111  1  0  0  0  0
 93112  1  0  0  0  0
 14113  4  0  0  0  0
113114  3  0  0  0  0
114115  4  0  0  0  0
115116  3  0  0  0  0
116117  4  0  0  0  0
117118  3  0  0  0  0
118119  4  0  0  0  0
119120  3  0  0  0  0
121122  3  0  0  0  0
122123  4  0  0  0  0
123124  3  0  0  0  0
124125  4  0  0  0  0
125126  3  0  0  0  0
126127  4  0  0  0  0
127128  3  0  0  0  0
129130  3  0  0  0  0
130131  4  0  0  0  0
131132  3  0  0  0  0
132133  4  0  0  0  0
133134  3  0  0  0  0
134135  4  0  0  0  0
 70136  4  0  0  0  0
135136  3  0  0  0  0
120138  4  0  0  0  0
138139  4  0  0  0  0
139140  4  0  0  0  0
140141  2  0  0  0  0
141142  4  0  0  0  0
137143  1  0  0  0  0
139143  4  0  0  0  0
142143  4  0  0  0  0
142144  4  0  0  0  0
144145  4  0  0  0  0
145146  4  0  0  0  0
146147  2  0  0  0  0
137148  1  0  0  0  0
145148  4  0  0  0  0
147149  4  0  0  0  0
148149  4  0  0  0  0
121150  4  0  0  0  0
149150  4  0  0  0  0
150151  4  0  0  0  0
151152  4  0  0  0  0
152153  2  0  0  0  0
153154  4  0  0  0  0
154155  4  0  0  0  0
155156  1  0  0  0  0
156157  4  0  0  0  0
157158  4  0  0  0  0
158159  4  0  0  0  0
159160  4  0  0  0  0
156161  4  0  0  0  0
160161  4  0  0  0  0
155162  4  0  0  0  0
162163  4  0  0  0  0
163164  2  0  0  0  0
138165  4  0  0  0  0
164165  4  0  0  0  0
137166  1  0  0  0  0
162166  4  0  0  0  0
165166  4  0  0  0  0
137167  1  0  0  0  0
151167  4  0  0  0  0
154167  4  0  0  0  0
144168  1  0  0  0  0
168169  4  0  0  0  0
169170  4  0  0  0  0
170171  4  0  0  0  0
171172  4  0  0  0  0
168173  4  0  0  0  0
172173  4  0  0  0  0
140174  1  0  0  0  0
141175  1  0  0  0  0
146176  1  0  0  0  0
147177  1  0  0  0  0
152178  1  0  0  0  0
153179  1  0  0  0  0
157180  1  0  0  0  0
158181  1  0  0  0  0
159182  1  0  0  0  0
160183  1  0  0  0  0
161184  1  0  0  0  0
163185  1  0  0  0  0
164186  1  0  0  0  0
169187  1  0  0  0  0
170188  1  0  0  0  0
171189  1  0  0  0  0
172190  1  0  0  0  0
173191  1  0  0  0  0
128193  4  0  0  0  0
193194  4  0  0  0  0
194195  4  0  0  0  0
195196  2  0  0  0  0
196197  4  0  0  0  0
192198  1  0  0  0  0
194198  4  0  0  0  0
197198  4  0  0  0  0
197199  4  0  0  0  0
199200  4  0  0  0  0
200201  4  0  0  0  0
201202  2  0  0  0  0
192203  1  0  0  0  0
200203  4  0  0  0  0
202204  4  0  0  0  0
203204  4  0  0  0  0
129205  4  0  0  0  0
204205  4  0  0  0  0
205206  4  0  0  0  0
206207  4  0  0  0  0
207208  2  0  0  0  0
208209  4  0  0  0  0
209210  4  0  0  0  0
210211  1  0  0  0  0
211212  4  0  0  0  0
212213  4  0  0  0  0
213214  4  0  0  0  0
214215  4  0  0  0  0
211216  4  0  0  0  0
215216  4  0  0  0  0
210217  4  0  0  0  0
217218  4  0  0  0  0
218219  2  0  0  0  0
193220  4  0  0  0  0
219220  4  0  0  0  0
192221  1  0  0  0  0
217221  4  0  0  0  0
220221  4  0  0  0  0
192222  1  0  0  0  0
206222  4  0  0  0  0
209222  4  0  0  0  0
199223  1  0  0  0  0
223224  4  0  0  0  0
224225  4  0  0  0  0
225226  4  0  0  0  0
226227  4  0  0  0  0
223228  4  0  0  0  0
227228  4  0  0  0  0
195229  1  0  0  0  0
196230  1  0  0  0  0
201231  1  0  0  0  0
202232  1  0  0  0  0
207233  1  0  0  0  0
208234  1  0  0  0  0
212235  1  0  0  0  0
213236  1  0  0  0  0
214237  1  0  0  0  0
215238  1  0  0  0  0
216239  1  0  0  0  0
218240  1  0  0  0  0
219241  1  0  0  0  0
224242  1  0  0  0  0
225243  1  0  0  0  0
226244  1  0  0  0  0
227245  1  0  0  0  0
228246  1  0  0  0  0
M  END
