554

C 71.004727 -0.042714 -0.125819
C 71.732111 -0.239486 1.243966
C 71.130832 -0.592153 2.432279
C 72.151146 -0.626732 3.416469
C 73.332000 -0.263525 2.805873
N 73.075698 -0.088147 1.467811
C 74.750081 -0.116014 3.504176
C 75.884098 -0.059518 2.748292
C 77.195990 0.090763 3.345243
C 78.097698 0.151758 2.373316
N 76.078508 -0.100000 1.392006
C 77.412632 0.019484 1.101765
C 78.072912 0.027869 -0.085821
C 77.289114 -0.163795 -1.454278
C 77.801081 -0.713271 -2.613030
C 76.779228 -0.675074 -3.594569
C 75.675349 -0.099912 -3.010706
C 74.272838 0.164887 -3.715389
C 74.265896 0.378476 -5.193716
C 74.757952 1.567786 -5.769606
O 75.252291 2.652737 -5.093432
C 74.371119 3.220250 -4.123914
C 74.859413 1.693276 -7.162812
C 74.430037 0.668490 -8.002076
C 73.914150 -0.501812 -7.450587
C 73.850451 -0.664788 -6.060139
O 73.345757 -1.808536 -5.489635
C 73.592793 -3.030580 -6.179393
C 73.149686 0.191213 -2.950676
C 71.818658 0.354430 -3.507420
C 70.935018 0.273343 -2.515767
C 71.669333 0.082993 -1.289102
N 72.996136 0.065726 -1.597673
N 75.976544 0.155727 -1.691426
C 74.787362 -0.000957 4.994060
C 74.486820 1.213206 5.650807
O 74.023128 2.333680 5.009069
C 75.036752 3.007720 4.267123
C 74.519487 1.304496 7.047156
C 74.877553 0.200112 7.813624
C 75.163907 -1.012289 7.185561
C 75.118769 -1.124383 5.786605
O 75.324171 -2.312210 5.130702
C 76.109779 -3.298024 5.780726
H 69.913137 -0.006381 -0.120787
H 70.080797 -0.797281 2.574043
H 72.033050 -0.865526 4.460811
H 73.773913 0.110217 0.754901
H 77.409474 0.154541 4.396217
H 79.155633 0.262185 2.527621
H 78.794771 -1.110633 -2.735263
H 76.835528 -1.028057 -4.611829
H 74.883100 3.247653 -3.152696
H 74.158015 4.252604 -4.422739
H 73.421499 2.702837 -4.017964
H 75.276825 2.603632 -7.581786
H 74.497333 0.780519 -9.077721
H 73.567284 -1.285493 -8.115707
H 73.444030 -3.856824 -5.480728
H 72.874249 -3.155785 -6.996348
H 74.621285 -3.085204 -6.551212
H 71.581027 0.477064 -4.546503
H 69.863556 0.325358 -2.606770
H 75.300063 0.448239 -0.991503
H 75.317677 3.925547 4.792916
H 74.624586 3.295267 3.294688
H 75.937576 2.423579 4.095223
H 74.252045 2.239594 7.528272
H 74.906641 0.281209 8.896810
H 75.391968 -1.869080 7.807785
H 75.534001 -3.791739 6.566231
H 76.383938 -4.053680 5.041773
H 77.034821 -2.874409 6.187654
C 196.121045 -0.038899 -0.039738
C 195.393661 -0.356050 -1.386752
C 195.994940 -0.812435 -2.539216
C 194.974626 -0.933925 -3.516491
C 193.793772 -0.518138 -2.940411
N 194.050074 -0.225102 -1.623104
C 192.375691 -0.432965 -3.649024
C 191.241674 -0.309837 -2.901099
C 189.929782 -0.212942 -3.509003
C 189.028074 -0.066225 -2.546279
N 191.047263 -0.230204 -1.546548
C 189.713140 -0.085519 -1.268012
C 189.052860 0.027869 -0.085821
C 189.836657 -0.042012 1.294224
C 189.324691 -0.486849 2.497033
C 190.346543 -0.361990 3.471347
C 191.450423 0.159278 2.838903
C 192.852934 0.485366 3.517404
C 192.859875 0.828867 4.971046
C 192.367820 2.064450 5.439492
O 191.873481 3.085346 4.670010
C 192.754653 3.564887 3.654098
C 192.266359 2.312671 6.816139
C 192.695734 1.366129 7.742751
C 193.211622 0.151637 7.296930
C 193.275321 -0.133678 5.926345
O 193.780015 -1.323402 5.459235
C 193.532979 -2.479651 6.254373
C 193.976086 0.443954 2.753359
C 195.307114 0.655772 3.293485
C 196.190754 0.487296 2.312891
C 195.456439 0.189201 1.107869
N 194.129635 0.199293 1.416757
N 191.149227 0.297233 1.502182
C 192.338410 -0.450131 -5.143246
C 192.638952 0.701188 -5.904806
O 193.102644 1.874029 -5.364682
C 192.089020 2.611049 -4.685258
C 192.606284 0.668621 -7.303756
C 192.248219 -0.499226 -7.969544
C 191.961865 -1.651326 -7.236712
C 192.007003 -1.639251 -5.833325
O 191.801601 -2.764413 -5.074935
C 191.015993 -3.803854 -5.635222
H 197.212635 -0.003154 -0.047963
H 197.044975 -1.029297 -2.662282
H 195.092722 -1.264150 -4.535621
H 193.351858 0.035537 -0.930533
H 189.716298 -0.242367 -4.561498
H 187.970139 0.030123 -2.709746
H 188.331001 -0.871843 2.653932
H 190.290244 -0.623618 4.515840
H 192.242672 3.506284 2.684262
H 192.967756 4.619624 3.860446
H 193.704273 3.040130 3.594326
H 191.848946 3.256515 7.152956
H 192.628439 1.572854 8.804272
H 193.558488 -0.570147 8.028755
H 193.681742 -3.364450 5.631523
H 194.251523 -2.532111 7.079200
H 192.504487 -2.501176 6.629567
H 195.544745 0.869826 4.317650
H 197.262216 0.547156 2.398937
H 191.825709 0.526694 0.779131
H 191.808094 3.478775 -5.290168
H 192.501186 2.983475 -3.742067
H 191.188196 2.044400 -4.462368
H 192.873727 1.557502 -7.865691
H 192.219131 -0.514248 -9.055658
H 191.733804 -2.559792 -7.780719
H 191.591771 -4.365108 -6.373981
H 190.741833 -4.491193 -4.832331
H 190.090951 -3.417890 -6.078022
C 81.151209 0.041527 -0.076268
C 82.609436 0.019691 -0.094141
C 83.743364 -0.001063 -0.095632
C 85.104745 -0.013653 -0.097823
C 86.378964 -0.003346 -0.102588
C 87.567427 0.015452 -0.108744
C 88.919787 0.040236 -0.092876
C 90.020055 0.041527 -0.076268
C 100.319047 0.041527 -0.076268
C 101.777273 0.019691 -0.094141
C 102.911201 -0.001063 -0.095632
C 104.272583 -0.013653 -0.097823
C 105.546802 -0.003346 -0.102588
C 106.735264 0.015452 -0.108744
C 108.087625 0.040236 -0.092876
C 109.187892 0.041527 -0.076268
C 119.486884 0.041527 -0.076268
C 120.945110 0.019691 -0.094141
C 122.079039 -0.001063 -0.095632
C 123.440420 -0.013653 -0.097823
C 124.714639 -0.003346 -0.102588
C 125.903102 0.015452 -0.108744
C 127.255462 0.040236 -0.092876
C 128.355730 0.041527 -0.076268
C 138.654722 0.041527 -0.076268
C 140.112948 0.019691 -0.094141
C 141.246876 -0.001063 -0.095632
C 142.608258 -0.013653 -0.097823
C 143.882477 -0.003346 -0.102588
C 145.070939 0.015452 -0.108744
C 146.423300 0.040236 -0.092876
C 147.523567 0.041527 -0.076268
C 157.822559 0.041527 -0.076268
C 159.280785 0.019691 -0.094141
C 160.414713 -0.001063 -0.095632
C 161.776095 -0.013653 -0.097823
C 163.050314 -0.003346 -0.102588
C 164.238776 0.015452 -0.108744
C 165.591137 0.040236 -0.092876
C 166.691405 0.041527 -0.076268
C 176.990397 0.041527 -0.076268
C 178.448623 0.019691 -0.094141
C 179.582551 -0.001063 -0.095632
C 180.943933 -0.013653 -0.097823
C 182.218152 -0.003346 -0.102588
C 183.406614 0.015452 -0.108744
C 184.758975 0.040236 -0.092876
C 185.859242 0.041527 -0.076268
C 91.678196 -0.016840 0.044974
C 92.469359 1.239544 0.608359
C 91.940466 2.273856 1.352048
C 92.975359 3.221374 1.538695
C 94.110057 2.734814 0.926198
N 93.809025 1.496480 0.415843
C 95.517505 3.468146 0.830138
C 96.649509 2.746659 0.598850
C 97.950258 3.375180 0.477316
C 98.860363 2.428358 0.297116
N 96.854676 1.401586 0.441546
C 98.187262 1.146418 0.253254
C 98.856447 -0.016840 0.044974
C 98.054841 -1.380536 -0.058003
C 98.553632 -2.651575 0.173695
C 97.517747 -3.573709 -0.111405
C 96.418670 -2.836052 -0.515883
C 95.023889 -3.421668 -0.994138
C 95.030019 -4.768508 -1.644135
C 94.666099 -5.900549 -0.865640
O 94.341629 -5.684108 0.450300
C 93.402289 -6.574900 1.034164
C 94.708394 -7.190835 -1.413264
C 95.118700 -7.379301 -2.724348
C 95.483760 -6.279121 -3.492587
C 95.430613 -4.974476 -2.981336
O 95.841197 -4.047145 -3.909481
C 95.170853 -2.785789 -3.893452
C 93.886379 -2.693318 -0.824124
C 92.582366 -3.201828 -1.203659
C 91.669687 -2.284431 -0.910262
C 92.347080 -1.133430 -0.344112
N 93.683722 -1.436078 -0.322511
N 96.734041 -1.503796 -0.415456
C 95.546869 4.952605 0.981934
C 95.613645 5.789130 -0.150851
O 95.673969 5.230513 -1.405055
C 94.538887 5.586106 -2.197271
C 95.683007 7.183727 -0.016058
C 95.651344 7.769371 1.247343
C 95.544903 6.963969 2.379177
C 95.511906 5.569498 2.251423
O 95.351129 4.864402 3.416735
C 96.587115 4.289001 3.846526
H 90.920726 2.358088 1.705822
H 92.904289 4.160265 2.064501
H 94.479526 0.864048 -0.018249
H 98.154224 4.427844 0.536728
H 99.913376 2.600395 0.186401
H 99.556730 -2.894197 0.498695
H 97.569578 -4.653340 -0.043528
H 93.002925 -6.102874 1.938807
H 93.897211 -7.506322 1.337398
H 92.552929 -6.774882 0.364685
H 94.462530 -8.060531 -0.816836
H 95.168875 -8.377291 -3.147459
H 95.812629 -6.427992 -4.511924
H 95.175407 -2.442825 -4.943562
H 94.107274 -2.885136 -3.606387
H 95.713015 -2.042350 -3.294106
H 92.382276 -4.160432 -1.642662
H 90.615617 -2.398178 -1.081854
H 96.088221 -0.727411 -0.537923
H 94.766860 6.500807 -2.760837
H 93.629361 5.738753 -1.603611
H 94.359517 4.780634 -2.923443
H 95.778768 7.810273 -0.897241
H 95.709851 8.848641 1.347498
H 95.511170 7.408344 3.366107
H 97.333551 4.175590 3.057143
H 96.370001 3.302749 4.276762
H 97.013094 4.921040 4.634517
C 110.846034 -0.016840 0.044974
C 111.637196 1.239544 0.608359
C 111.108304 2.273856 1.352048
C 112.143196 3.221374 1.538695
C 113.277895 2.734814 0.926198
N 112.976862 1.496480 0.415843
C 114.685343 3.468146 0.830138
C 115.817347 2.746659 0.598850
C 117.118096 3.375180 0.477316
C 118.028201 2.428358 0.297116
N 116.022514 1.401586 0.441546
C 117.355099 1.146418 0.253254
C 118.024284 -0.016840 0.044974
C 117.222679 -1.380536 -0.058003
C 117.721470 -2.651575 0.173695
C 116.685585 -3.573709 -0.111405
C 115.586508 -2.836052 -0.515883
C 114.191726 -3.421668 -0.994138
C 114.197856 -4.768508 -1.644135
C 113.833936 -5.900549 -0.865640
O 113.509466 -5.684108 0.450300
C 112.570126 -6.574900 1.034164
C 113.876232 -7.190835 -1.413264
C 114.286538 -7.379301 -2.724348
C 114.651598 -6.279121 -3.492587
C 114.598451 -4.974476 -2.981336
O 115.009035 -4.047145 -3.909481
C 114.338691 -2.785789 -3.893452
C 113.054217 -2.693318 -0.824124
C 111.750203 -3.201828 -1.203659
C 110.837524 -2.284431 -0.910262
C 111.514917 -1.133430 -0.344112
N 112.851559 -1.436078 -0.322511
N 115.901878 -1.503796 -0.415456
C 114.714707 4.952605 0.981934
C 114.781482 5.789130 -0.150851
O 114.841806 5.230513 -1.405055
C 113.706724 5.586106 -2.197271
C 114.850845 7.183727 -0.016058
C 114.819182 7.769371 1.247343
C 114.712740 6.963969 2.379177
C 114.679744 5.569498 2.251423
O 114.518967 4.864402 3.416735
C 115.754952 4.289001 3.846526
H 110.088563 2.358088 1.705822
H 112.072126 4.160265 2.064501
H 113.647364 0.864048 -0.018249
H 117.322062 4.427844 0.536728
H 119.081214 2.600395 0.186401
H 118.724567 -2.894197 0.498695
H 116.737416 -4.653340 -0.043528
H 112.170763 -6.102874 1.938807
H 113.065049 -7.506322 1.337398
H 111.720767 -6.774882 0.364685
H 113.630367 -8.060531 -0.816836
H 114.336713 -8.377291 -3.147459
H 114.980467 -6.427992 -4.511924
H 114.343244 -2.442825 -4.943562
H 113.275111 -2.885136 -3.606387
H 114.880852 -2.042350 -3.294106
H 111.550113 -4.160432 -1.642662
H 109.783455 -2.398178 -1.081854
H 115.256059 -0.727411 -0.537923
H 113.934697 6.500807 -2.760837
H 112.797199 5.738753 -1.603611
H 113.527355 4.780634 -2.923443
H 114.946605 7.810273 -0.897241
H 114.877689 8.848641 1.347498
H 114.679007 7.408344 3.366107
H 116.501388 4.175590 3.057143
H 115.537838 3.302749 4.276762
H 116.180932 4.921040 4.634517
C 130.013871 -0.016840 0.044974
C 130.805034 1.239544 0.608359
C 130.276141 2.273856 1.352048
C 131.311034 3.221374 1.538695
C 132.445732 2.734814 0.926198
N 132.144700 1.496480 0.415843
C 133.853180 3.468146 0.830138
C 134.985184 2.746659 0.598850
C 136.285933 3.375180 0.477316
C 137.196038 2.428358 0.297116
N 135.190351 1.401586 0.441546
C 136.522936 1.146418 0.253254
C 137.192122 -0.016840 0.044974
C 136.390516 -1.380536 -0.058003
C 136.889307 -2.651575 0.173695
C 135.853422 -3.573709 -0.111405
C 134.754345 -2.836052 -0.515883
C 133.359564 -3.421668 -0.994138
C 133.365694 -4.768508 -1.644135
C 133.001774 -5.900549 -0.865640
O 132.677304 -5.684108 0.450300
C 131.737964 -6.574900 1.034164
C 133.044069 -7.190835 -1.413264
C 133.454375 -7.379301 -2.724348
C 133.819435 -6.279121 -3.492587
C 133.766288 -4.974476 -2.981336
O 134.176872 -4.047145 -3.909481
C 133.506528 -2.785789 -3.893452
C 132.222054 -2.693318 -0.824124
C 130.918041 -3.201828 -1.203659
C 130.005362 -2.284431 -0.910262
C 130.682755 -1.133430 -0.344112
N 132.019397 -1.436078 -0.322511
N 135.069716 -1.503796 -0.415456
C 133.882544 4.952605 0.981934
C 133.949320 5.789130 -0.150851
O 134.009644 5.230513 -1.405055
C 132.874562 5.586106 -2.197271
C 134.018682 7.183727 -0.016058
C 133.987019 7.769371 1.247343
C 133.880577 6.963969 2.379177
C 133.847581 5.569498 2.251423
O 133.686804 4.864402 3.416735
C 134.922790 4.289001 3.846526
H 129.256401 2.358088 1.705822
H 131.239963 4.160265 2.064501
H 132.815201 0.864048 -0.018249
H 136.489899 4.427844 0.536728
H 138.249051 2.600395 0.186401
H 137.892405 -2.894197 0.498695
H 135.905253 -4.653340 -0.043528
H 131.338600 -6.102874 1.938807
H 132.232886 -7.506322 1.337398
H 130.888604 -6.774882 0.364685
H 132.798204 -8.060531 -0.816836
H 133.504550 -8.377291 -3.147459
H 134.148304 -6.427992 -4.511924
H 133.511082 -2.442825 -4.943562
H 132.442949 -2.885136 -3.606387
H 134.048690 -2.042350 -3.294106
H 130.717950 -4.160432 -1.642662
H 128.951292 -2.398178 -1.081854
H 134.423896 -0.727411 -0.537923
H 133.102535 6.500807 -2.760837
H 131.965036 5.738753 -1.603611
H 132.695192 4.780634 -2.923443
H 134.114443 7.810273 -0.897241
H 134.045526 8.848641 1.347498
H 133.846844 7.408344 3.366107
H 135.669225 4.175590 3.057143
H 134.705676 3.302749 4.276762
H 135.348769 4.921040 4.634517
C 149.181709 -0.016840 0.044974
C 149.972871 1.239544 0.608359
C 149.443979 2.273856 1.352048
C 150.478871 3.221374 1.538695
C 151.613570 2.734814 0.926198
N 151.312537 1.496480 0.415843
C 153.021018 3.468146 0.830138
C 154.153021 2.746659 0.598850
C 155.453770 3.375180 0.477316
C 156.363876 2.428358 0.297116
N 154.358188 1.401586 0.441546
C 155.690774 1.146418 0.253254
C 156.359959 -0.016840 0.044974
C 155.558354 -1.380536 -0.058003
C 156.057145 -2.651575 0.173695
C 155.021260 -3.573709 -0.111405
C 153.922183 -2.836052 -0.515883
C 152.527401 -3.421668 -0.994138
C 152.533531 -4.768508 -1.644135
C 152.169611 -5.900549 -0.865640
O 151.845141 -5.684108 0.450300
C 150.905801 -6.574900 1.034164
C 152.211907 -7.190835 -1.413264
C 152.622212 -7.379301 -2.724348
C 152.987273 -6.279121 -3.492587
C 152.934125 -4.974476 -2.981336
O 153.344710 -4.047145 -3.909481
C 152.674366 -2.785789 -3.893452
C 151.389892 -2.693318 -0.824124
C 150.085878 -3.201828 -1.203659
C 149.173199 -2.284431 -0.910262
C 149.850592 -1.133430 -0.344112
N 151.187234 -1.436078 -0.322511
N 154.237553 -1.503796 -0.415456
C 153.050382 4.952605 0.981934
C 153.117157 5.789130 -0.150851
O 153.177481 5.230513 -1.405055
C 152.042399 5.586106 -2.197271
C 153.186519 7.183727 -0.016058
C 153.154857 7.769371 1.247343
C 153.048415 6.963969 2.379177
C 153.015418 5.569498 2.251423
O 152.854641 4.864402 3.416735
C 154.090627 4.289001 3.846526
H 148.424238 2.358088 1.705822
H 150.407801 4.160265 2.064501
H 151.983038 0.864048 -0.018249
H 155.657737 4.427844 0.536728
H 157.416888 2.600395 0.186401
H 157.060242 -2.894197 0.498695
H 155.073091 -4.653340 -0.043528
H 150.506438 -6.102874 1.938807
H 151.400723 -7.506322 1.337398
H 150.056442 -6.774882 0.364685
H 151.966042 -8.060531 -0.816836
H 152.672388 -8.377291 -3.147459
H 153.316142 -6.427992 -4.511924
H 152.678919 -2.442825 -4.943562
H 151.610786 -2.885136 -3.606387
H 153.216527 -2.042350 -3.294106
H 149.885788 -4.160432 -1.642662
H 148.119129 -2.398178 -1.081854
H 153.591734 -0.727411 -0.537923
H 152.270372 6.500807 -2.760837
H 151.132874 5.738753 -1.603611
H 151.863029 4.780634 -2.923443
H 153.282280 7.810273 -0.897241
H 153.213364 8.848641 1.347498
H 153.014682 7.408344 3.366107
H 154.837063 4.175590 3.057143
H 153.873513 3.302749 4.276762
H 154.516607 4.921040 4.634517
C 168.349546 -0.016840 0.044974
C 169.140709 1.239544 0.608359
C 168.611816 2.273856 1.352048
C 169.646708 3.221374 1.538695
C 170.781407 2.734814 0.926198
N 170.480375 1.496480 0.415843
C 172.188855 3.468146 0.830138
C 173.320859 2.746659 0.598850
C 174.621608 3.375180 0.477316
C 175.531713 2.428358 0.297116
N 173.526026 1.401586 0.441546
C 174.858611 1.146418 0.253254
C 175.527797 -0.016840 0.044974
C 174.726191 -1.380536 -0.058003
C 175.224982 -2.651575 0.173695
C 174.189097 -3.573709 -0.111405
C 173.090020 -2.836052 -0.515883
C 171.695239 -3.421668 -0.994138
C 171.701368 -4.768508 -1.644135
C 171.337449 -5.900549 -0.865640
O 171.012978 -5.684108 0.450300
C 170.073639 -6.574900 1.034164
C 171.379744 -7.190835 -1.413264
C 171.790050 -7.379301 -2.724348
C 172.155110 -6.279121 -3.492587
C 172.101963 -4.974476 -2.981336
O 172.512547 -4.047145 -3.909481
C 171.842203 -2.785789 -3.893452
C 170.557729 -2.693318 -0.824124
C 169.253716 -3.201828 -1.203659
C 168.341037 -2.284431 -0.910262
C 169.018430 -1.133430 -0.344112
N 170.355072 -1.436078 -0.322511
N 173.405391 -1.503796 -0.415456
C 172.218219 4.952605 0.981934
C 172.284995 5.789130 -0.150851
O 172.345319 5.230513 -1.405055
C 171.210237 5.586106 -2.197271
C 172.354357 7.183727 -0.016058
C 172.322694 7.769371 1.247343
C 172.216252 6.963969 2.379177
C 172.183256 5.569498 2.251423
O 172.022479 4.864402 3.416735
C 173.258465 4.289001 3.846526
H 167.592075 2.358088 1.705822
H 169.575638 4.160265 2.064501
H 171.150876 0.864048 -0.018249
H 174.825574 4.427844 0.536728
H 176.584726 2.600395 0.186401
H 176.228079 -2.894197 0.498695
H 174.240928 -4.653340 -0.043528
H 169.674275 -6.102874 1.938807
H 170.568561 -7.506322 1.337398
H 169.224279 -6.774882 0.364685
H 171.133879 -8.060531 -0.816836
H 171.840225 -8.377291 -3.147459
H 172.483979 -6.427992 -4.511924
H 171.846757 -2.442825 -4.943562
H 170.778623 -2.885136 -3.606387
H 172.384365 -2.042350 -3.294106
H 169.053625 -4.160432 -1.642662
H 167.286967 -2.398178 -1.081854
H 172.759571 -0.727411 -0.537923
H 171.438210 6.500807 -2.760837
H 170.300711 5.738753 -1.603611
H 171.030867 4.780634 -2.923443
H 172.450117 7.810273 -0.897241
H 172.381201 8.848641 1.347498
H 172.182519 7.408344 3.366107
H 174.004900 4.175590 3.057143
H 173.041351 3.302749 4.276762
H 173.684444 4.921040 4.634517
