 xtb: 6.5.1 (b24c23e)
          07302208133D

152171  0     0  0            999 V2000
   15.7651    0.0706    0.0303 Cu  0  0  0  0  0  0  0  0  0  0  0  0
   12.3496    0.1392   -0.0342 C   0  0  0  0  0  0  0  0  0  0  0  0
   12.9901    1.2639    0.4652 C   0  0  0  0  0  0  0  0  0  0  0  0
   12.3248    2.4379    0.9555 C   0  0  0  0  0  0  0  0  0  0  0  0
   13.2911    3.3082    1.3415 C   0  0  0  0  0  0  0  0  0  0  0  0
   14.5555    2.6728    1.0892 C   0  0  0  0  0  0  0  0  0  0  0  0
   14.3419    1.4325    0.5606 N   0  0  0  0  0  0  0  0  0  0  0  0
   15.8011    3.2466    1.3421 C   0  0  0  0  0  0  0  0  0  0  0  0
   15.8143    4.6296    1.9024 C   0  0  0  0  0  0  0  0  0  0  0  0
   15.7526    5.7296    1.0420 C   0  0  0  0  0  0  0  0  0  0  0  0
   15.6758    5.5161   -0.4465 C   0  0  0  0  0  0  0  0  0  0  0  0
   15.7590    7.0140    1.5730 C   0  0  0  0  0  0  0  0  0  0  0  0
   15.8242    7.2186    2.9474 C   0  0  0  0  0  0  0  0  0  0  0  0
   15.8489    8.6147    3.5088 C   0  0  0  0  0  0  0  0  0  0  0  0
   15.8864    6.1168    3.7943 C   0  0  0  0  0  0  0  0  0  0  0  0
   15.8816    4.8235    3.2849 C   0  0  0  0  0  0  0  0  0  0  0  0
   15.9467    3.6357    4.2078 C   0  0  0  0  0  0  0  0  0  0  0  0
   17.0323    2.6364    1.1093 C   0  0  0  0  0  0  0  0  0  0  0  0
   18.3069    3.2433    1.3683 C   0  0  0  0  0  0  0  0  0  0  0  0
   19.2561    2.3376    1.0190 C   0  0  0  0  0  0  0  0  0  0  0  0
   17.2247    1.3770    0.6061 N   0  0  0  0  0  0  0  0  0  0  0  0
   18.5687    1.1734    0.5444 C   0  0  0  0  0  0  0  0  0  0  0  0
   19.2042    0.0041    0.0890 C   0  0  0  0  0  0  0  0  0  0  0  0
   18.5395   -1.1416   -0.3847 C   0  0  0  0  0  0  0  0  0  0  0  0
   19.1973   -2.3317   -0.8366 C   0  0  0  0  0  0  0  0  0  0  0  0
   18.2263   -3.2010   -1.2169 C   0  0  0  0  0  0  0  0  0  0  0  0
   16.9680   -2.5443   -1.0035 C   0  0  0  0  0  0  0  0  0  0  0  0
   17.1916   -1.2931   -0.4927 N   0  0  0  0  0  0  0  0  0  0  0  0
   15.7230   -3.1049   -1.2830 C   0  0  0  0  0  0  0  0  0  0  0  0
   15.7009   -4.4874   -1.8441 C   0  0  0  0  0  0  0  0  0  0  0  0
   15.8212   -4.6850   -3.2231 C   0  0  0  0  0  0  0  0  0  0  0  0
   15.9811   -3.5020   -4.1405 C   0  0  0  0  0  0  0  0  0  0  0  0
   15.7925   -5.9771   -3.7327 C   0  0  0  0  0  0  0  0  0  0  0  0
   15.6459   -7.0754   -2.8898 C   0  0  0  0  0  0  0  0  0  0  0  0
   15.6070   -8.4654   -3.4655 C   0  0  0  0  0  0  0  0  0  0  0  0
   15.5276   -6.8672   -1.5207 C   0  0  0  0  0  0  0  0  0  0  0  0
   15.5536   -5.5825   -0.9890 C   0  0  0  0  0  0  0  0  0  0  0  0
   15.4216   -5.3651    0.4951 C   0  0  0  0  0  0  0  0  0  0  0  0
   14.4928   -2.4813   -1.0768 C   0  0  0  0  0  0  0  0  0  0  0  0
   13.2143   -3.0651   -1.3785 C   0  0  0  0  0  0  0  0  0  0  0  0
   12.2699   -2.1564   -1.0285 C   0  0  0  0  0  0  0  0  0  0  0  0
   12.9627   -1.0107   -0.5102 C   0  0  0  0  0  0  0  0  0  0  0  0
   14.3093   -1.2336   -0.5544 N   0  0  0  0  0  0  0  0  0  0  0  0
   11.2649    0.1612   -0.0552 H   0  0  0  0  0  0  0  0  0  0  0  0
   11.2543    2.5656    0.9944 H   0  0  0  0  0  0  0  0  0  0  0  0
   13.1715    4.2935    1.7634 H   0  0  0  0  0  0  0  0  0  0  0  0
   14.7436    5.0113   -0.7078 H   0  0  0  0  0  0  0  0  0  0  0  0
   16.5014    4.8869   -0.7836 H   0  0  0  0  0  0  0  0  0  0  0  0
   15.7180    6.4659   -0.9788 H   0  0  0  0  0  0  0  0  0  0  0  0
   15.7102    7.8677    0.9049 H   0  0  0  0  0  0  0  0  0  0  0  0
   15.4190    8.6387    4.5105 H   0  0  0  0  0  0  0  0  0  0  0  0
   16.8796    8.9714    3.5728 H   0  0  0  0  0  0  0  0  0  0  0  0
   15.2924    9.3003    2.8691 H   0  0  0  0  0  0  0  0  0  0  0  0
   15.9366    6.2670    4.8678 H   0  0  0  0  0  0  0  0  0  0  0  0
   16.8657    3.0724    4.0341 H   0  0  0  0  0  0  0  0  0  0  0  0
   15.9234    3.9509    5.2505 H   0  0  0  0  0  0  0  0  0  0  0  0
   15.1052    2.9653    4.0243 H   0  0  0  0  0  0  0  0  0  0  0  0
   18.4468    4.2366    1.7640 H   0  0  0  0  0  0  0  0  0  0  0  0
   20.3283    2.4389    1.0740 H   0  0  0  0  0  0  0  0  0  0  0  0
   20.2660   -2.4749   -0.8542 H   0  0  0  0  0  0  0  0  0  0  0  0
   18.3410   -4.1998   -1.6066 H   0  0  0  0  0  0  0  0  0  0  0  0
   15.1747   -2.7843   -3.9797 H   0  0  0  0  0  0  0  0  0  0  0  0
   15.9703   -3.8144   -5.1842 H   0  0  0  0  0  0  0  0  0  0  0  0
   16.9257   -2.9929   -3.9388 H   0  0  0  0  0  0  0  0  0  0  0  0
   15.8848   -6.1318   -4.8028 H   0  0  0  0  0  0  0  0  0  0  0  0
   16.4669   -8.6335   -4.1159 H   0  0  0  0  0  0  0  0  0  0  0  0
   15.6137   -9.2162   -2.6755 H   0  0  0  0  0  0  0  0  0  0  0  0
   14.7027   -8.5997   -4.0627 H   0  0  0  0  0  0  0  0  0  0  0  0
   15.4134   -7.7167   -0.8552 H   0  0  0  0  0  0  0  0  0  0  0  0
   14.4987   -4.8251    0.7166 H   0  0  0  0  0  0  0  0  0  0  0  0
   16.2551   -4.7671    0.8677 H   0  0  0  0  0  0  0  0  0  0  0  0
   15.4049   -6.3152    1.0281 H   0  0  0  0  0  0  0  0  0  0  0  0
   13.0714   -4.0443   -1.8072 H   0  0  0  0  0  0  0  0  0  0  0  0
   11.1974   -2.2406   -1.1090 H   0  0  0  0  0  0  0  0  0  0  0  0
   29.2508   -0.0712   -0.0275 Cu  0  0  0  0  0  0  0  0  0  0  0  0
   32.6662   -0.0751   -0.1230 C   0  0  0  0  0  0  0  0  0  0  0  0
   32.0259   -1.2329   -0.5402 C   0  0  0  0  0  0  0  0  0  0  0  0
   32.6914   -2.4197   -0.9985 C   0  0  0  0  0  0  0  0  0  0  0  0
   31.7253   -3.3154   -1.3216 C   0  0  0  0  0  0  0  0  0  0  0  0
   30.4607   -2.6824   -1.0637 C   0  0  0  0  0  0  0  0  0  0  0  0
   30.6741   -1.4212   -0.5871 N   0  0  0  0  0  0  0  0  0  0  0  0
   29.2153   -3.2718   -1.2785 C   0  0  0  0  0  0  0  0  0  0  0  0
   29.2023   -4.6577   -1.8315 C   0  0  0  0  0  0  0  0  0  0  0  0
   29.2637   -4.8557   -3.2139 C   0  0  0  0  0  0  0  0  0  0  0  0
   29.3396   -3.6711   -4.1402 C   0  0  0  0  0  0  0  0  0  0  0  0
   29.2577   -6.1501   -3.7200 C   0  0  0  0  0  0  0  0  0  0  0  0
   29.1932   -7.2494   -2.8699 C   0  0  0  0  0  0  0  0  0  0  0  0
   29.1691   -8.6454   -3.4315 C   0  0  0  0  0  0  0  0  0  0  0  0
   29.1313   -7.0407   -1.4961 C   0  0  0  0  0  0  0  0  0  0  0  0
   29.1358   -5.7548   -0.9682 C   0  0  0  0  0  0  0  0  0  0  0  0
   29.0710   -5.5368    0.5201 C   0  0  0  0  0  0  0  0  0  0  0  0
   27.9839   -2.6701   -1.0248 C   0  0  0  0  0  0  0  0  0  0  0  0
   26.7093   -3.2871   -1.2588 C   0  0  0  0  0  0  0  0  0  0  0  0
   25.7601   -2.3914   -0.8847 C   0  0  0  0  0  0  0  0  0  0  0  0
   27.7915   -1.4129   -0.5162 N   0  0  0  0  0  0  0  0  0  0  0  0
   26.4475   -1.2230   -0.4202 C   0  0  0  0  0  0  0  0  0  0  0  0
   25.8116   -0.0641    0.0607 C   0  0  0  0  0  0  0  0  0  0  0  0
   26.4760    1.0906    0.5123 C   0  0  0  0  0  0  0  0  0  0  0  0
   25.8183    2.2624    1.0099 C   0  0  0  0  0  0  0  0  0  0  0  0
   26.7893    3.1527    1.3378 C   0  0  0  0  0  0  0  0  0  0  0  0
   28.0476    2.5310    1.0376 C   0  0  0  0  0  0  0  0  0  0  0  0
   27.8240    1.2747    0.5395 N   0  0  0  0  0  0  0  0  0  0  0  0
   29.2926    3.1290    1.2242 C   0  0  0  0  0  0  0  0  0  0  0  0
   29.3146    4.5150    1.7766 C   0  0  0  0  0  0  0  0  0  0  0  0
   29.1955    5.6125    0.9185 C   0  0  0  0  0  0  0  0  0  0  0  0
   29.0365    5.3943   -0.5626 C   0  0  0  0  0  0  0  0  0  0  0  0
   29.2245    6.8976    1.4456 C   0  0  0  0  0  0  0  0  0  0  0  0
   29.3703    7.1063    2.8143 C   0  0  0  0  0  0  0  0  0  0  0  0
   29.4097    8.5077    3.3615 C   0  0  0  0  0  0  0  0  0  0  0  0
   29.4873    6.0079    3.6580 C   0  0  0  0  0  0  0  0  0  0  0  0
   29.4609    4.7128    3.1520 C   0  0  0  0  0  0  0  0  0  0  0  0
   29.5918    3.5283    4.0722 C   0  0  0  0  0  0  0  0  0  0  0  0
   30.5228    2.5367    0.9408 C   0  0  0  0  0  0  0  0  0  0  0  0
   31.8012    3.1673    1.1262 C   0  0  0  0  0  0  0  0  0  0  0  0
   32.7457    2.2698    0.7489 C   0  0  0  0  0  0  0  0  0  0  0  0
   32.0530    1.0840    0.3299 C   0  0  0  0  0  0  0  0  0  0  0  0
   30.7065    1.2750    0.4533 N   0  0  0  0  0  0  0  0  0  0  0  0
   33.7509   -0.0761   -0.1540 H   0  0  0  0  0  0  0  0  0  0  0  0
   33.7619   -2.5384   -1.0593 H   0  0  0  0  0  0  0  0  0  0  0  0
   31.8449   -4.3186   -1.6987 H   0  0  0  0  0  0  0  0  0  0  0  0
   30.2715   -3.1253   -3.9793 H   0  0  0  0  0  0  0  0  0  0  0  0
   28.5135   -2.9842   -3.9478 H   0  0  0  0  0  0  0  0  0  0  0  0
   29.2976   -3.9879   -5.1819 H   0  0  0  0  0  0  0  0  0  0  0  0
   29.3062   -6.3035   -4.7932 H   0  0  0  0  0  0  0  0  0  0  0  0
   29.5992   -9.3561   -2.7254 H   0  0  0  0  0  0  0  0  0  0  0  0
   28.1385   -8.9475   -3.6323 H   0  0  0  0  0  0  0  0  0  0  0  0
   29.7254   -8.6970   -4.3677 H   0  0  0  0  0  0  0  0  0  0  0  0
   29.0818   -7.8924   -0.8254 H   0  0  0  0  0  0  0  0  0  0  0  0
   28.1519   -5.0104    0.7850 H   0  0  0  0  0  0  0  0  0  0  0  0
   29.0947   -6.4861    1.0543 H   0  0  0  0  0  0  0  0  0  0  0  0
   29.9124   -4.9257    0.8517 H   0  0  0  0  0  0  0  0  0  0  0  0
   26.5695   -4.2778   -1.6610 H   0  0  0  0  0  0  0  0  0  0  0  0
   24.6879   -2.5022   -0.9159 H   0  0  0  0  0  0  0  0  0  0  0  0
   24.7496    2.3781    1.0960 H   0  0  0  0  0  0  0  0  0  0  0  0
   26.6746    4.1432    1.7482 H   0  0  0  0  0  0  0  0  0  0  0  0
   29.8431    4.7652   -0.9431 H   0  0  0  0  0  0  0  0  0  0  0  0
   29.0475    6.3425   -1.0993 H   0  0  0  0  0  0  0  0  0  0  0  0
   28.0920    4.8874   -0.7703 H   0  0  0  0  0  0  0  0  0  0  0  0
   29.1331    7.7502    0.7806 H   0  0  0  0  0  0  0  0  0  0  0  0
   28.5502    9.0798    3.0083 H   0  0  0  0  0  0  0  0  0  0  0  0
   29.4026    8.5024    4.4513 H   0  0  0  0  0  0  0  0  0  0  0  0
   30.3144    9.0176    3.0239 H   0  0  0  0  0  0  0  0  0  0  0  0
   29.6009    6.1600    4.7264 H   0  0  0  0  0  0  0  0  0  0  0  0
   30.5144    2.9847    3.8585 H   0  0  0  0  0  0  0  0  0  0  0  0
   28.7578    2.8395    3.9267 H   0  0  0  0  0  0  0  0  0  0  0  0
   29.6083    3.8447    5.1147 H   0  0  0  0  0  0  0  0  0  0  0  0
   31.9440    4.1707    1.4949 H   0  0  0  0  0  0  0  0  0  0  0  0
   33.8181    2.3866    0.7484 H   0  0  0  0  0  0  0  0  0  0  0  0
   21.8329   -0.0308    0.1033 C   0  0  0  0  0  0  0  0  0  0  0  0
   20.6108   -0.0185    0.1012 C   0  0  0  0  0  0  0  0  0  0  0  0
   23.1835   -0.0440    0.0968 C   0  0  0  0  0  0  0  0  0  0  0  0
   24.4052   -0.0567    0.0843 C   0  0  0  0  0  0  0  0  0  0  0  0
  2  3  4  0  0  0  0
  3  4  1  0  0  0  0
  4  5  2  0  0  0  0
  5  6  4  0  0  0  0
  1  7  1  0  0  0  0
  3  7  4  0  0  0  0
  6  7  4  0  0  0  0
  6  8  4  0  0  0  0
  8  9  1  0  0  0  0
  9 10  4  0  0  0  0
 10 11  1  0  0  0  0
 10 12  4  0  0  0  0
 12 13  4  0  0  0  0
 13 14  1  0  0  0  0
 13 15  4  0  0  0  0
  9 16  4  0  0  0  0
 15 16  4  0  0  0  0
 16 17  1  0  0  0  0
  8 18  4  0  0  0  0
 18 19  4  0  0  0  0
 19 20  2  0  0  0  0
  1 21  1  0  0  0  0
 18 21  4  0  0  0  0
 20 22  4  0  0  0  0
 21 22  4  0  0  0  0
 22 23  4  0  0  0  0
 23 24  4  0  0  0  0
 24 25  4  0  0  0  0
 25 26  2  0  0  0  0
 26 27  4  0  0  0  0
  1 28  1  0  0  0  0
 24 28  4  0  0  0  0
 27 28  4  0  0  0  0
 27 29  4  0  0  0  0
 29 30  1  0  0  0  0
 30 31  4  0  0  0  0
 31 32  1  0  0  0  0
 31 33  4  0  0  0  0
 33 34  4  0  0  0  0
 34 35  1  0  0  0  0
 34 36  4  0  0  0  0
 30 37  4  0  0  0  0
 36 37  4  0  0  0  0
 37 38  1  0  0  0  0
 29 39  4  0  0  0  0
 39 40  4  0  0  0  0
 40 41  2  0  0  0  0
  2 42  4  0  0  0  0
 41 42  1  0  0  0  0
  1 43  1  0  0  0  0
 39 43  4  0  0  0  0
 42 43  4  0  0  0  0
  2 44  1  0  0  0  0
  4 45  1  0  0  0  0
  5 46  1  0  0  0  0
 11 47  1  0  0  0  0
 11 48  1  0  0  0  0
 11 49  1  0  0  0  0
 12 50  1  0  0  0  0
 14 51  1  0  0  0  0
 14 52  1  0  0  0  0
 14 53  1  0  0  0  0
 15 54  1  0  0  0  0
 17 55  1  0  0  0  0
 17 56  1  0  0  0  0
 17 57  1  0  0  0  0
 19 58  1  0  0  0  0
 20 59  1  0  0  0  0
 25 60  1  0  0  0  0
 26 61  1  0  0  0  0
 32 62  1  0  0  0  0
 32 63  1  0  0  0  0
 32 64  1  0  0  0  0
 33 65  1  0  0  0  0
 35 66  1  0  0  0  0
 35 67  1  0  0  0  0
 35 68  1  0  0  0  0
 36 69  1  0  0  0  0
 38 70  1  0  0  0  0
 38 71  1  0  0  0  0
 38 72  1  0  0  0  0
 40 73  1  0  0  0  0
 41 74  1  0  0  0  0
 76 77  4  0  0  0  0
 77 78  1  0  0  0  0
 78 79  2  0  0  0  0
 79 80  4  0  0  0  0
 75 81  1  0  0  0  0
 77 81  4  0  0  0  0
 80 81  4  0  0  0  0
 80 82  4  0  0  0  0
 82 83  1  0  0  0  0
 83 84  4  0  0  0  0
 84 85  1  0  0  0  0
 84 86  4  0  0  0  0
 86 87  4  0  0  0  0
 87 88  1  0  0  0  0
 87 89  4  0  0  0  0
 83 90  4  0  0  0  0
 89 90  4  0  0  0  0
 90 91  1  0  0  0  0
 82 92  4  0  0  0  0
 92 93  4  0  0  0  0
 93 94  2  0  0  0  0
 75 95  1  0  0  0  0
 92 95  4  0  0  0  0
 94 96  4  0  0  0  0
 95 96  4  0  0  0  0
 96 97  4  0  0  0  0
 97 98  4  0  0  0  0
 98 99  4  0  0  0  0
 99100  2  0  0  0  0
100101  4  0  0  0  0
 75102  1  0  0  0  0
 98102  4  0  0  0  0
101102  4  0  0  0  0
101103  4  0  0  0  0
103104  1  0  0  0  0
104105  4  0  0  0  0
105106  1  0  0  0  0
105107  4  0  0  0  0
107108  4  0  0  0  0
108109  1  0  0  0  0
108110  4  0  0  0  0
104111  4  0  0  0  0
110111  4  0  0  0  0
111112  1  0  0  0  0
103113  4  0  0  0  0
113114  4  0  0  0  0
114115  2  0  0  0  0
 76116  4  0  0  0  0
115116  1  0  0  0  0
 75117  1  0  0  0  0
113117  4  0  0  0  0
116117  4  0  0  0  0
 76118  1  0  0  0  0
 78119  1  0  0  0  0
 79120  1  0  0  0  0
 85121  1  0  0  0  0
 85122  1  0  0  0  0
 85123  1  0  0  0  0
 86124  1  0  0  0  0
 88125  1  0  0  0  0
 88126  1  0  0  0  0
 88127  1  0  0  0  0
 89128  1  0  0  0  0
 91129  1  0  0  0  0
 91130  1  0  0  0  0
 91131  1  0  0  0  0
 93132  1  0  0  0  0
 94133  1  0  0  0  0
 99134  1  0  0  0  0
100135  1  0  0  0  0
106136  1  0  0  0  0
106137  1  0  0  0  0
106138  1  0  0  0  0
107139  1  0  0  0  0
109140  1  0  0  0  0
109141  1  0  0  0  0
109142  1  0  0  0  0
110143  1  0  0  0  0
112144  1  0  0  0  0
112145  1  0  0  0  0
112146  1  0  0  0  0
114147  1  0  0  0  0
115148  1  0  0  0  0
 23150  4  0  0  0  0
149150  3  0  0  0  0
149151  4  0  0  0  0
 97152  4  0  0  0  0
151152  3  0  0  0  0
M  END
