 xtb: 6.5.1 (b24c23e)
          07302202583D

189218  0     0  0            999 V2000
   26.0789   -0.0192   -0.0965 Co  0  0  0  0  0  0  0  0  0  0  0  0
   22.7135   -0.0691   -0.3325 C   0  0  0  0  0  0  0  0  0  0  0  0
   23.3973   -1.2585   -0.4606 C   0  0  0  0  0  0  0  0  0  0  0  0
   22.7560   -2.5209   -0.6692 C   0  0  0  0  0  0  0  0  0  0  0  0
   23.7067   -3.4703   -0.5056 C   0  0  0  0  0  0  0  0  0  0  0  0
   24.9333   -2.7861   -0.2180 C   0  0  0  0  0  0  0  0  0  0  0  0
   24.7403   -1.4281   -0.2319 N   0  0  0  0  0  0  0  0  0  0  0  0
   26.1087   -3.4209    0.1607 C   0  0  0  0  0  0  0  0  0  0  0  0
   26.1189   -4.8978    0.3006 C   0  0  0  0  0  0  0  0  0  0  0  0
   25.9306   -5.7178   -0.8114 C   0  0  0  0  0  0  0  0  0  0  0  0
   25.9436   -7.0982   -0.6822 C   0  0  0  0  0  0  0  0  0  0  0  0
   26.1410   -7.6732    0.5709 C   0  0  0  0  0  0  0  0  0  0  0  0
   26.1582   -9.0203    0.7429 O   0  0  0  0  0  0  0  0  0  0  0  0
   26.3289   -6.8640    1.6899 C   0  0  0  0  0  0  0  0  0  0  0  0
   26.3207   -5.4873    1.5502 C   0  0  0  0  0  0  0  0  0  0  0  0
   27.2803   -2.7173    0.3924 C   0  0  0  0  0  0  0  0  0  0  0  0
   28.5326   -3.3390    0.7034 C   0  0  0  0  0  0  0  0  0  0  0  0
   29.4807   -2.3760    0.6148 C   0  0  0  0  0  0  0  0  0  0  0  0
   27.4574   -1.3701    0.1670 N   0  0  0  0  0  0  0  0  0  0  0  0
   28.8059   -1.1684    0.2587 C   0  0  0  0  0  0  0  0  0  0  0  0
   29.4712    0.0199   -0.0518 C   0  0  0  0  0  0  0  0  0  0  0  0
   28.7812    1.2039   -0.3203 C   0  0  0  0  0  0  0  0  0  0  0  0
   29.4299    2.4403   -0.6215 C   0  0  0  0  0  0  0  0  0  0  0  0
   28.4669    3.3934   -0.6228 C   0  0  0  0  0  0  0  0  0  0  0  0
   27.2321    2.7343   -0.3223 C   0  0  0  0  0  0  0  0  0  0  0  0
   27.4309    1.3788   -0.1942 N   0  0  0  0  0  0  0  0  0  0  0  0
   26.0292    3.3941   -0.1162 C   0  0  0  0  0  0  0  0  0  0  0  0
   26.0132    4.8747   -0.1184 C   0  0  0  0  0  0  0  0  0  0  0  0
   26.7868    5.5943    0.7959 C   0  0  0  0  0  0  0  0  0  0  0  0
   26.7752    6.9777    0.8000 C   0  0  0  0  0  0  0  0  0  0  0  0
   25.9903    7.6652   -0.1240 C   0  0  0  0  0  0  0  0  0  0  0  0
   26.0052    9.0226   -0.0950 O   0  0  0  0  0  0  0  0  0  0  0  0
   25.2187    6.9614   -1.0459 C   0  0  0  0  0  0  0  0  0  0  0  0
   25.2306    5.5754   -1.0370 C   0  0  0  0  0  0  0  0  0  0  0  0
   24.8387    2.7021    0.0613 C   0  0  0  0  0  0  0  0  0  0  0  0
   23.5665    3.3294    0.2701 C   0  0  0  0  0  0  0  0  0  0  0  0
   22.6298    2.3566    0.1746 C   0  0  0  0  0  0  0  0  0  0  0  0
   23.3321    1.1330   -0.0638 C   0  0  0  0  0  0  0  0  0  0  0  0
   24.6876    1.3447   -0.0729 N   0  0  0  0  0  0  0  0  0  0  0  0
   21.6333   -0.0847   -0.4171 H   0  0  0  0  0  0  0  0  0  0  0  0
   21.7065   -2.6446   -0.8840 H   0  0  0  0  0  0  0  0  0  0  0  0
   23.5963   -4.5414   -0.5553 H   0  0  0  0  0  0  0  0  0  0  0  0
   25.7900   -5.2712   -1.7895 H   0  0  0  0  0  0  0  0  0  0  0  0
   25.8028   -7.7323   -1.5511 H   0  0  0  0  0  0  0  0  0  0  0  0
   26.0180   -9.4840   -0.0935 H   0  0  0  0  0  0  0  0  0  0  0  0
   26.4789   -7.3250    2.6583 H   0  0  0  0  0  0  0  0  0  0  0  0
   26.4571   -4.8569    2.4217 H   0  0  0  0  0  0  0  0  0  0  0  0
   28.6616   -4.3848    0.9297 H   0  0  0  0  0  0  0  0  0  0  0  0
   30.5453   -2.4609    0.7626 H   0  0  0  0  0  0  0  0  0  0  0  0
   30.4883    2.5495   -0.7956 H   0  0  0  0  0  0  0  0  0  0  0  0
   28.5714    4.4490   -0.8142 H   0  0  0  0  0  0  0  0  0  0  0  0
   27.3889    5.0596    1.5220 H   0  0  0  0  0  0  0  0  0  0  0  0
   27.3678    7.5379    1.5126 H   0  0  0  0  0  0  0  0  0  0  0  0
   25.4272    9.3961   -0.7738 H   0  0  0  0  0  0  0  0  0  0  0  0
   24.6143    7.5006   -1.7674 H   0  0  0  0  0  0  0  0  0  0  0  0
   24.6412    5.0295   -1.7652 H   0  0  0  0  0  0  0  0  0  0  0  0
   23.4221    4.3808    0.4595 H   0  0  0  0  0  0  0  0  0  0  0  0
   21.5577    2.4393    0.2578 H   0  0  0  0  0  0  0  0  0  0  0  0
   63.1094   -0.0116   -0.0611 Co  0  0  0  0  0  0  0  0  0  0  0  0
   66.4721    0.0192   -0.3028 C   0  0  0  0  0  0  0  0  0  0  0  0
   65.7820    1.1714   -0.6120 C   0  0  0  0  0  0  0  0  0  0  0  0
   66.4129    2.3906   -1.0169 C   0  0  0  0  0  0  0  0  0  0  0  0
   65.4560    3.3479   -0.9957 C   0  0  0  0  0  0  0  0  0  0  0  0
   64.2370    2.7092   -0.5940 C   0  0  0  0  0  0  0  0  0  0  0  0
   64.4391    1.3663   -0.4043 N   0  0  0  0  0  0  0  0  0  0  0  0
   63.0651    3.3889   -0.2859 C   0  0  0  0  0  0  0  0  0  0  0  0
   63.0485    4.8699   -0.3656 C   0  0  0  0  0  0  0  0  0  0  0  0
   63.2027    5.5151   -1.5923 C   0  0  0  0  0  0  0  0  0  0  0  0
   63.1827    6.8992   -1.6705 C   0  0  0  0  0  0  0  0  0  0  0  0
   63.0137    7.6544   -0.5124 C   0  0  0  0  0  0  0  0  0  0  0  0
   62.9913    9.0117   -0.5428 O   0  0  0  0  0  0  0  0  0  0  0  0
   62.8611    7.0208    0.7196 C   0  0  0  0  0  0  0  0  0  0  0  0
   62.8751    5.6388    0.7870 C   0  0  0  0  0  0  0  0  0  0  0  0
   61.9054    2.7231    0.0789 C   0  0  0  0  0  0  0  0  0  0  0  0
   60.6584    3.3765    0.3432 C   0  0  0  0  0  0  0  0  0  0  0  0
   59.7149    2.4069    0.4118 C   0  0  0  0  0  0  0  0  0  0  0  0
   61.7304    1.3572    0.0401 N   0  0  0  0  0  0  0  0  0  0  0  0
   60.3872    1.1655    0.1938 C   0  0  0  0  0  0  0  0  0  0  0  0
   59.7206   -0.0527    0.0285 C   0  0  0  0  0  0  0  0  0  0  0  0
   60.4129   -1.2577   -0.1222 C   0  0  0  0  0  0  0  0  0  0  0  0
   59.7686   -2.5220   -0.2848 C   0  0  0  0  0  0  0  0  0  0  0  0
   60.7352   -3.4660   -0.1800 C   0  0  0  0  0  0  0  0  0  0  0  0
   61.9671   -2.7731    0.0483 C   0  0  0  0  0  0  0  0  0  0  0  0
   61.7630   -1.4125    0.0201 N   0  0  0  0  0  0  0  0  0  0  0  0
   63.1700   -3.3971    0.3462 C   0  0  0  0  0  0  0  0  0  0  0  0
   63.1910   -4.8656    0.5295 C   0  0  0  0  0  0  0  0  0  0  0  0
   62.3977   -5.4696    1.5086 C   0  0  0  0  0  0  0  0  0  0  0  0
   62.4141   -6.8411    1.6873 C   0  0  0  0  0  0  0  0  0  0  0  0
   63.2236   -7.6346    0.8760 C   0  0  0  0  0  0  0  0  0  0  0  0
   63.2125   -8.9772    1.0756 O   0  0  0  0  0  0  0  0  0  0  0  0
   64.0150   -7.0473   -0.1086 C   0  0  0  0  0  0  0  0  0  0  0  0
   63.9986   -5.6714   -0.2744 C   0  0  0  0  0  0  0  0  0  0  0  0
   64.3561   -2.6814    0.4523 C   0  0  0  0  0  0  0  0  0  0  0  0
   65.6276   -3.2672    0.7614 C   0  0  0  0  0  0  0  0  0  0  0  0
   66.5618   -2.3101    0.5489 C   0  0  0  0  0  0  0  0  0  0  0  0
   65.8580   -1.1347    0.1360 C   0  0  0  0  0  0  0  0  0  0  0  0
   64.5037   -1.3538    0.1400 N   0  0  0  0  0  0  0  0  0  0  0  0
   67.5526    0.0282   -0.3852 H   0  0  0  0  0  0  0  0  0  0  0  0
   67.4602    2.4866   -1.2559 H   0  0  0  0  0  0  0  0  0  0  0  0
   65.5582    4.3992   -1.2112 H   0  0  0  0  0  0  0  0  0  0  0  0
   63.3215    4.9276   -2.4959 H   0  0  0  0  0  0  0  0  0  0  0  0
   63.2960    7.3966   -2.6278 H   0  0  0  0  0  0  0  0  0  0  0  0
   63.1043    9.3464   -1.4425 H   0  0  0  0  0  0  0  0  0  0  0  0
   62.7335    7.6211    1.6119 H   0  0  0  0  0  0  0  0  0  0  0  0
   62.7665    5.1454    1.7463 H   0  0  0  0  0  0  0  0  0  0  0  0
   60.5285    4.4426    0.4336 H   0  0  0  0  0  0  0  0  0  0  0  0
   58.6546    2.5074    0.5788 H   0  0  0  0  0  0  0  0  0  0  0  0
   58.7108   -2.6538   -0.4458 H   0  0  0  0  0  0  0  0  0  0  0  0
   60.6345   -4.5366   -0.2536 H   0  0  0  0  0  0  0  0  0  0  0  0
   61.7769   -4.8516    2.1475 H   0  0  0  0  0  0  0  0  0  0  0  0
   61.8066   -7.3110    2.4509 H   0  0  0  0  0  0  0  0  0  0  0  0
   63.8076   -9.4301    0.4632 H   0  0  0  0  0  0  0  0  0  0  0  0
   64.6384   -7.6691   -0.7421 H   0  0  0  0  0  0  0  0  0  0  0  0
   64.6036   -5.2177   -1.0516 H   0  0  0  0  0  0  0  0  0  0  0  0
   65.7736   -4.2824    1.0932 H   0  0  0  0  0  0  0  0  0  0  0  0
   67.6328   -2.3747    0.6572 H   0  0  0  0  0  0  0  0  0  0  0  0
   30.8746    0.0299   -0.0676 C   0  0  0  0  0  0  0  0  0  0  0  0
   32.0992    0.0334   -0.0800 C   0  0  0  0  0  0  0  0  0  0  0  0
   33.4416    0.0397   -0.0895 C   0  0  0  0  0  0  0  0  0  0  0  0
   34.6727    0.0430   -0.0902 C   0  0  0  0  0  0  0  0  0  0  0  0
   36.0100    0.0437   -0.0909 C   0  0  0  0  0  0  0  0  0  0  0  0
   37.2414    0.0401   -0.0893 C   0  0  0  0  0  0  0  0  0  0  0  0
   38.5831    0.0365   -0.0848 C   0  0  0  0  0  0  0  0  0  0  0  0
   39.8084    0.0362   -0.0833 C   0  0  0  0  0  0  0  0  0  0  0  0
   49.3875   -0.0606   -0.0076 C   0  0  0  0  0  0  0  0  0  0  0  0
   50.6135   -0.0716    0.0003 C   0  0  0  0  0  0  0  0  0  0  0  0
   51.9535   -0.0794    0.0068 C   0  0  0  0  0  0  0  0  0  0  0  0
   53.1859   -0.0835    0.0105 C   0  0  0  0  0  0  0  0  0  0  0  0
   54.5213   -0.0842    0.0162 C   0  0  0  0  0  0  0  0  0  0  0  0
   55.7535   -0.0802    0.0238 C   0  0  0  0  0  0  0  0  0  0  0  0
   57.0939   -0.0732    0.0274 C   0  0  0  0  0  0  0  0  0  0  0  0
   58.3196   -0.0668    0.0297 C   0  0  0  0  0  0  0  0  0  0  0  0
   44.5997    0.0179   -0.0892 Co  0  0  0  0  0  0  0  0  0  0  0  0
   41.2098    0.0291   -0.0790 C   0  0  0  0  0  0  0  0  0  0  0  0
   41.8957    0.8775    0.7959 C   0  0  0  0  0  0  0  0  0  0  0  0
   41.2538    1.7404    1.7352 C   0  0  0  0  0  0  0  0  0  0  0  0
   42.2147    2.5604    2.2284 C   0  0  0  0  0  0  0  0  0  0  0  0
   43.4380    2.2010    1.5778 C   0  0  0  0  0  0  0  0  0  0  0  0
   43.2412    1.1146    0.7580 N   0  0  0  0  0  0  0  0  0  0  0  0
   44.6164    2.9333    1.6561 C   0  0  0  0  0  0  0  0  0  0  0  0
   44.6227    4.2111    2.4003 C   0  0  0  0  0  0  0  0  0  0  0  0
   45.5189    4.4165    3.4532 C   0  0  0  0  0  0  0  0  0  0  0  0
   45.5269    5.6083    4.1546 C   0  0  0  0  0  0  0  0  0  0  0  0
   44.6381    6.6235    3.8040 C   0  0  0  0  0  0  0  0  0  0  0  0
   44.6770    7.7816    4.5097 O   0  0  0  0  0  0  0  0  0  0  0  0
   43.7419    6.4351    2.7540 C   0  0  0  0  0  0  0  0  0  0  0  0
   43.7345    5.2339    2.0630 C   0  0  0  0  0  0  0  0  0  0  0  0
   45.7894    2.4956    1.0543 C   0  0  0  0  0  0  0  0  0  0  0  0
   47.0204    3.2257    1.0446 C   0  0  0  0  0  0  0  0  0  0  0  0
   47.9724    2.3811    0.5753 C   0  0  0  0  0  0  0  0  0  0  0  0
   45.9747    1.2415    0.5209 N   0  0  0  0  0  0  0  0  0  0  0  0
   47.3168    1.1458    0.2882 C   0  0  0  0  0  0  0  0  0  0  0  0
   47.9882   -0.0431   -0.0199 C   0  0  0  0  0  0  0  0  0  0  0  0
   47.2921   -1.2122   -0.3472 C   0  0  0  0  0  0  0  0  0  0  0  0
   47.9227   -2.4616   -0.6299 C   0  0  0  0  0  0  0  0  0  0  0  0
   46.9620   -3.2760   -1.1329 C   0  0  0  0  0  0  0  0  0  0  0  0
   45.7509   -2.5138   -1.1663 C   0  0  0  0  0  0  0  0  0  0  0  0
   45.9524   -1.2735   -0.6061 N   0  0  0  0  0  0  0  0  0  0  0  0
   44.5846   -2.9145   -1.8052 C   0  0  0  0  0  0  0  0  0  0  0  0
   44.5810   -4.1790   -2.5716 C   0  0  0  0  0  0  0  0  0  0  0  0
   43.6586   -5.1850   -2.2787 C   0  0  0  0  0  0  0  0  0  0  0  0
   43.6539   -6.3721   -2.9935 C   0  0  0  0  0  0  0  0  0  0  0  0
   44.5731   -6.5631   -4.0230 C   0  0  0  0  0  0  0  0  0  0  0  0
   44.6007   -7.7073   -4.7518 O   0  0  0  0  0  0  0  0  0  0  0  0
   45.4972   -5.5651   -4.3286 C   0  0  0  0  0  0  0  0  0  0  0  0
   45.5005   -4.3874   -3.6037 C   0  0  0  0  0  0  0  0  0  0  0  0
   43.4205   -2.1579   -1.7417 C   0  0  0  0  0  0  0  0  0  0  0  0
   42.2010   -2.4830   -2.4164 C   0  0  0  0  0  0  0  0  0  0  0  0
   41.2463   -1.6585   -1.9175 C   0  0  0  0  0  0  0  0  0  0  0  0
   41.8900   -0.8237   -0.9550 C   0  0  0  0  0  0  0  0  0  0  0  0
   43.2287   -1.0886   -0.8989 N   0  0  0  0  0  0  0  0  0  0  0  0
   40.2016    1.7167    1.9690 H   0  0  0  0  0  0  0  0  0  0  0  0
   42.1133    3.3409    2.9648 H   0  0  0  0  0  0  0  0  0  0  0  0
   46.2003    3.6220    3.7361 H   0  0  0  0  0  0  0  0  0  0  0  0
   46.2141    5.7667    4.9765 H   0  0  0  0  0  0  0  0  0  0  0  0
   44.0195    8.4136    4.1898 H   0  0  0  0  0  0  0  0  0  0  0  0
   43.0556    7.2296    2.4810 H   0  0  0  0  0  0  0  0  0  0  0  0
   43.0465    5.0948    1.2365 H   0  0  0  0  0  0  0  0  0  0  0  0
   47.1329    4.2507    1.3584 H   0  0  0  0  0  0  0  0  0  0  0  0
   49.0264    2.5617    0.4385 H   0  0  0  0  0  0  0  0  0  0  0  0
   48.9681   -2.6704   -0.4688 H   0  0  0  0  0  0  0  0  0  0  0  0
   47.0562   -4.2998   -1.4563 H   0  0  0  0  0  0  0  0  0  0  0  0
   42.9525   -5.0444   -1.4679 H   0  0  0  0  0  0  0  0  0  0  0  0
   42.9403   -7.1534   -2.7552 H   0  0  0  0  0  0  0  0  0  0  0  0
   43.9196   -8.3287   -4.4611 H   0  0  0  0  0  0  0  0  0  0  0  0
   46.2025   -5.7254   -5.1347 H   0  0  0  0  0  0  0  0  0  0  0  0
   46.2097   -3.6058   -3.8519 H   0  0  0  0  0  0  0  0  0  0  0  0
   42.0972   -3.2448   -3.1718 H   0  0  0  0  0  0  0  0  0  0  0  0
   40.1980   -1.6127   -2.1653 H   0  0  0  0  0  0  0  0  0  0  0  0
  2  3  4  0  0  0  0
  3  4  1  0  0  0  0
  4  5  2  0  0  0  0
  5  6  4  0  0  0  0
  1  7  1  0  0  0  0
  3  7  4  0  0  0  0
  6  7  4  0  0  0  0
  6  8  4  0  0  0  0
  8  9  1  0  0  0  0
  9 10  4  0  0  0  0
 10 11  4  0  0  0  0
 11 12  4  0  0  0  0
 12 13  1  0  0  0  0
 12 14  4  0  0  0  0
  9 15  4  0  0  0  0
 14 15  4  0  0  0  0
  8 16  4  0  0  0  0
 16 17  4  0  0  0  0
 17 18  2  0  0  0  0
  1 19  1  0  0  0  0
 16 19  4  0  0  0  0
 18 20  4  0  0  0  0
 19 20  4  0  0  0  0
 20 21  4  0  0  0  0
 21 22  4  0  0  0  0
 22 23  4  0  0  0  0
 23 24  2  0  0  0  0
 24 25  4  0  0  0  0
  1 26  1  0  0  0  0
 22 26  4  0  0  0  0
 25 26  4  0  0  0  0
 25 27  4  0  0  0  0
 27 28  1  0  0  0  0
 28 29  4  0  0  0  0
 29 30  4  0  0  0  0
 30 31  4  0  0  0  0
 31 32  1  0  0  0  0
 31 33  4  0  0  0  0
 28 34  4  0  0  0  0
 33 34  4  0  0  0  0
 27 35  4  0  0  0  0
 35 36  4  0  0  0  0
 36 37  2  0  0  0  0
  2 38  4  0  0  0  0
 37 38  1  0  0  0  0
  1 39  1  0  0  0  0
 35 39  4  0  0  0  0
 38 39  4  0  0  0  0
  2 40  1  0  0  0  0
  4 41  1  0  0  0  0
  5 42  1  0  0  0  0
 10 43  1  0  0  0  0
 11 44  1  0  0  0  0
 13 45  1  0  0  0  0
 14 46  1  0  0  0  0
 15 47  1  0  0  0  0
 17 48  1  0  0  0  0
 18 49  1  0  0  0  0
 23 50  1  0  0  0  0
 24 51  1  0  0  0  0
 29 52  1  0  0  0  0
 30 53  1  0  0  0  0
 32 54  1  0  0  0  0
 33 55  1  0  0  0  0
 34 56  1  0  0  0  0
 36 57  1  0  0  0  0
 37 58  1  0  0  0  0
 60 61  4  0  0  0  0
 61 62  1  0  0  0  0
 62 63  2  0  0  0  0
 63 64  4  0  0  0  0
 59 65  1  0  0  0  0
 61 65  4  0  0  0  0
 64 65  4  0  0  0  0
 64 66  4  0  0  0  0
 66 67  1  0  0  0  0
 67 68  4  0  0  0  0
 68 69  4  0  0  0  0
 69 70  4  0  0  0  0
 70 71  1  0  0  0  0
 70 72  4  0  0  0  0
 67 73  4  0  0  0  0
 72 73  4  0  0  0  0
 66 74  4  0  0  0  0
 74 75  4  0  0  0  0
 75 76  2  0  0  0  0
 59 77  1  0  0  0  0
 74 77  4  0  0  0  0
 76 78  4  0  0  0  0
 77 78  4  0  0  0  0
 78 79  4  0  0  0  0
 79 80  4  0  0  0  0
 80 81  4  0  0  0  0
 81 82  2  0  0  0  0
 82 83  4  0  0  0  0
 59 84  1  0  0  0  0
 80 84  4  0  0  0  0
 83 84  4  0  0  0  0
 83 85  4  0  0  0  0
 85 86  1  0  0  0  0
 86 87  4  0  0  0  0
 87 88  4  0  0  0  0
 88 89  4  0  0  0  0
 89 90  1  0  0  0  0
 89 91  4  0  0  0  0
 86 92  4  0  0  0  0
 91 92  4  0  0  0  0
 85 93  4  0  0  0  0
 93 94  4  0  0  0  0
 94 95  2  0  0  0  0
 60 96  4  0  0  0  0
 95 96  1  0  0  0  0
 59 97  1  0  0  0  0
 93 97  4  0  0  0  0
 96 97  4  0  0  0  0
 60 98  1  0  0  0  0
 62 99  1  0  0  0  0
 63100  1  0  0  0  0
 68101  1  0  0  0  0
 69102  1  0  0  0  0
 71103  1  0  0  0  0
 72104  1  0  0  0  0
 73105  1  0  0  0  0
 75106  1  0  0  0  0
 76107  1  0  0  0  0
 81108  1  0  0  0  0
 82109  1  0  0  0  0
 87110  1  0  0  0  0
 88111  1  0  0  0  0
 90112  1  0  0  0  0
 91113  1  0  0  0  0
 92114  1  0  0  0  0
 94115  1  0  0  0  0
 95116  1  0  0  0  0
 21117  4  0  0  0  0
117118  3  0  0  0  0
118119  4  0  0  0  0
119120  3  0  0  0  0
120121  4  0  0  0  0
121122  3  0  0  0  0
122123  4  0  0  0  0
123124  3  0  0  0  0
125126  3  0  0  0  0
126127  4  0  0  0  0
127128  3  0  0  0  0
128129  4  0  0  0  0
129130  3  0  0  0  0
130131  4  0  0  0  0
 79132  4  0  0  0  0
131132  3  0  0  0  0
124134  4  0  0  0  0
134135  4  0  0  0  0
135136  4  0  0  0  0
136137  2  0  0  0  0
137138  4  0  0  0  0
133139  1  0  0  0  0
135139  4  0  0  0  0
138139  4  0  0  0  0
138140  4  0  0  0  0
140141  1  0  0  0  0
141142  4  0  0  0  0
142143  4  0  0  0  0
143144  4  0  0  0  0
144145  1  0  0  0  0
144146  4  0  0  0  0
141147  4  0  0  0  0
146147  4  0  0  0  0
140148  4  0  0  0  0
148149  4  0  0  0  0
149150  2  0  0  0  0
133151  1  0  0  0  0
148151  4  0  0  0  0
150152  4  0  0  0  0
151152  4  0  0  0  0
125153  4  0  0  0  0
152153  4  0  0  0  0
153154  4  0  0  0  0
154155  4  0  0  0  0
155156  2  0  0  0  0
156157  4  0  0  0  0
133158  1  0  0  0  0
154158  4  0  0  0  0
157158  4  0  0  0  0
157159  4  0  0  0  0
159160  1  0  0  0  0
160161  4  0  0  0  0
161162  4  0  0  0  0
162163  4  0  0  0  0
163164  1  0  0  0  0
163165  4  0  0  0  0
160166  4  0  0  0  0
165166  4  0  0  0  0
159167  4  0  0  0  0
167168  4  0  0  0  0
168169  2  0  0  0  0
134170  4  0  0  0  0
169170  4  0  0  0  0
133171  1  0  0  0  0
167171  4  0  0  0  0
170171  4  0  0  0  0
136172  1  0  0  0  0
137173  1  0  0  0  0
142174  1  0  0  0  0
143175  1  0  0  0  0
145176  1  0  0  0  0
146177  1  0  0  0  0
147178  1  0  0  0  0
149179  1  0  0  0  0
150180  1  0  0  0  0
155181  1  0  0  0  0
156182  1  0  0  0  0
161183  1  0  0  0  0
162184  1  0  0  0  0
164185  1  0  0  0  0
165186  1  0  0  0  0
166187  1  0  0  0  0
168188  1  0  0  0  0
169189  1  0  0  0  0
M  END
