 xtb: 6.5.1 (b24c23e)
          07292223453D

122141  0     0  0            999 V2000
   16.7003    0.0501   -0.0441 Co  0  0  0  0  0  0  0  0  0  0  0  0
   13.3291    0.1222    0.0143 C   0  0  0  0  0  0  0  0  0  0  0  0
   13.9942    1.0623   -0.7443 C   0  0  0  0  0  0  0  0  0  0  0  0
   13.3437    2.0441   -1.5564 C   0  0  0  0  0  0  0  0  0  0  0  0
   14.3069    2.8981   -1.9785 C   0  0  0  0  0  0  0  0  0  0  0  0
   15.5420    2.4441   -1.4104 C   0  0  0  0  0  0  0  0  0  0  0  0
   15.3487    1.2815   -0.7101 N   0  0  0  0  0  0  0  0  0  0  0  0
   16.7350    3.1565   -1.4598 C   0  0  0  0  0  0  0  0  0  0  0  0
   16.7486    4.5027   -2.0706 C   0  0  0  0  0  0  0  0  0  0  0  0
   17.6103    4.7990   -3.1301 C   0  0  0  0  0  0  0  0  0  0  0  0
   17.6288    6.0599   -3.6988 C   0  0  0  0  0  0  0  0  0  0  0  0
   16.7834    7.0609   -3.2129 C   0  0  0  0  0  0  0  0  0  0  0  0
   16.8370    8.3380   -3.7424 N   0  0  0  0  0  0  0  0  0  0  0  0
   15.9259    6.7760   -2.1467 C   0  0  0  0  0  0  0  0  0  0  0  0
   15.9057    5.5094   -1.5915 C   0  0  0  0  0  0  0  0  0  0  0  0
   17.9129    2.6372   -0.9411 C   0  0  0  0  0  0  0  0  0  0  0  0
   19.1584    3.3432   -0.9103 C   0  0  0  0  0  0  0  0  0  0  0  0
   20.1027    2.4540   -0.5180 C   0  0  0  0  0  0  0  0  0  0  0  0
   18.0832    1.3471   -0.4925 N   0  0  0  0  0  0  0  0  0  0  0  0
   19.4295    1.2140   -0.2957 C   0  0  0  0  0  0  0  0  0  0  0  0
   20.0900    0.0150   -0.0235 C   0  0  0  0  0  0  0  0  0  0  0  0
   19.3973   -1.1669    0.2452 C   0  0  0  0  0  0  0  0  0  0  0  0
   20.0343   -2.4282    0.4514 C   0  0  0  0  0  0  0  0  0  0  0  0
   19.0661   -3.2924    0.8426 C   0  0  0  0  0  0  0  0  0  0  0  0
   17.8431   -2.5494    0.8901 C   0  0  0  0  0  0  0  0  0  0  0  0
   18.0505   -1.2594    0.4585 N   0  0  0  0  0  0  0  0  0  0  0  0
   16.6539   -3.0345    1.4172 C   0  0  0  0  0  0  0  0  0  0  0  0
   16.6293   -4.3833    2.0214 C   0  0  0  0  0  0  0  0  0  0  0  0
   17.4957   -4.7140    3.0670 C   0  0  0  0  0  0  0  0  0  0  0  0
   17.4755   -5.9755    3.6337 C   0  0  0  0  0  0  0  0  0  0  0  0
   16.5935   -6.9468    3.1524 C   0  0  0  0  0  0  0  0  0  0  0  0
   16.5444   -8.1977    3.7411 N   0  0  0  0  0  0  0  0  0  0  0  0
   15.7206   -6.6235    2.1100 C   0  0  0  0  0  0  0  0  0  0  0  0
   15.7399   -5.3561    1.5563 C   0  0  0  0  0  0  0  0  0  0  0  0
   15.4851   -2.2823    1.3874 C   0  0  0  0  0  0  0  0  0  0  0  0
   14.2439   -2.6979    1.9719 C   0  0  0  0  0  0  0  0  0  0  0  0
   13.3050   -1.8067    1.5737 C   0  0  0  0  0  0  0  0  0  0  0  0
   13.9759   -0.8421    0.7573 C   0  0  0  0  0  0  0  0  0  0  0  0
   15.3230   -1.1031    0.7063 N   0  0  0  0  0  0  0  0  0  0  0  0
   12.2456    0.1408    0.0251 H   0  0  0  0  0  0  0  0  0  0  0  0
   12.2852    2.0638   -1.7621 H   0  0  0  0  0  0  0  0  0  0  0  0
   14.2033    3.7609   -2.6166 H   0  0  0  0  0  0  0  0  0  0  0  0
   18.2571    4.0230   -3.5248 H   0  0  0  0  0  0  0  0  0  0  0  0
   18.2974    6.2754   -4.5252 H   0  0  0  0  0  0  0  0  0  0  0  0
   17.2057    8.3982   -4.6780 H   0  0  0  0  0  0  0  0  0  0  0  0
   16.0135    8.8984   -3.5914 H   0  0  0  0  0  0  0  0  0  0  0  0
   15.2775    7.5529   -1.7564 H   0  0  0  0  0  0  0  0  0  0  0  0
   15.2458    5.3000   -0.7566 H   0  0  0  0  0  0  0  0  0  0  0  0
   19.2841    4.3849   -1.1568 H   0  0  0  0  0  0  0  0  0  0  0  0
   21.1619    2.6086   -0.3883 H   0  0  0  0  0  0  0  0  0  0  0  0
   21.0872   -2.6134    0.3107 H   0  0  0  0  0  0  0  0  0  0  0  0
   19.1615   -4.3404    1.0763 H   0  0  0  0  0  0  0  0  0  0  0  0
   18.1760   -3.9631    3.4538 H   0  0  0  0  0  0  0  0  0  0  0  0
   18.1446   -6.2160    4.4527 H   0  0  0  0  0  0  0  0  0  0  0  0
   17.3801   -8.4725    4.2319 H   0  0  0  0  0  0  0  0  0  0  0  0
   16.1491   -8.9254    3.1675 H   0  0  0  0  0  0  0  0  0  0  0  0
   15.0318   -7.3721    1.7341 H   0  0  0  0  0  0  0  0  0  0  0  0
   15.0734   -5.1200    0.7340 H   0  0  0  0  0  0  0  0  0  0  0  0
   14.1199   -3.5617    2.6048 H   0  0  0  0  0  0  0  0  0  0  0  0
   12.2496   -1.7918    1.7954 H   0  0  0  0  0  0  0  0  0  0  0  0
   27.5091   -0.0645    0.0173 Co  0  0  0  0  0  0  0  0  0  0  0  0
   30.8802   -0.0556    0.1097 C   0  0  0  0  0  0  0  0  0  0  0  0
   30.2152   -1.2073    0.4742 C   0  0  0  0  0  0  0  0  0  0  0  0
   30.8657   -2.4267    0.8437 C   0  0  0  0  0  0  0  0  0  0  0  0
   29.9025   -3.2503    1.3224 C   0  0  0  0  0  0  0  0  0  0  0  0
   28.6674   -2.5260    1.2579 C   0  0  0  0  0  0  0  0  0  0  0  0
   28.8607   -1.2999    0.6758 N   0  0  0  0  0  0  0  0  0  0  0  0
   27.4744   -2.9608    1.8244 C   0  0  0  0  0  0  0  0  0  0  0  0
   27.4608   -4.2137    2.6089 C   0  0  0  0  0  0  0  0  0  0  0  0
   26.5991   -5.2605    2.2705 C   0  0  0  0  0  0  0  0  0  0  0  0
   26.5806   -6.4312    3.0072 C   0  0  0  0  0  0  0  0  0  0  0  0
   27.4260   -6.5793    4.1101 C   0  0  0  0  0  0  0  0  0  0  0  0
   27.3724   -7.7263    4.8819 N   0  0  0  0  0  0  0  0  0  0  0  0
   28.2835   -5.5332    4.4617 C   0  0  0  0  0  0  0  0  0  0  0  0
   28.3037   -4.3706    3.7127 C   0  0  0  0  0  0  0  0  0  0  0  0
   26.2965   -2.2415    1.6781 C   0  0  0  0  0  0  0  0  0  0  0  0
   25.0509   -2.6060    2.2836 C   0  0  0  0  0  0  0  0  0  0  0  0
   24.1066   -1.7877    1.7591 C   0  0  0  0  0  0  0  0  0  0  0  0
   26.1262   -1.1548    0.8507 N   0  0  0  0  0  0  0  0  0  0  0  0
   24.7798   -0.9172    0.8485 C   0  0  0  0  0  0  0  0  0  0  0  0
   24.1194   -0.0279   -0.0005 C   0  0  0  0  0  0  0  0  0  0  0  0
   24.8121    0.8491   -0.8371 C   0  0  0  0  0  0  0  0  0  0  0  0
   24.1751    1.7178   -1.7745 C   0  0  0  0  0  0  0  0  0  0  0  0
   25.1433    2.5215   -2.2787 C   0  0  0  0  0  0  0  0  0  0  0  0
   26.3663    2.1505   -1.6331 C   0  0  0  0  0  0  0  0  0  0  0  0
   26.1589    1.0780   -0.7964 N   0  0  0  0  0  0  0  0  0  0  0  0
   27.5555    2.8579   -1.7462 C   0  0  0  0  0  0  0  0  0  0  0  0
   27.5801    4.1067   -2.5366 C   0  0  0  0  0  0  0  0  0  0  0  0
   26.7137    5.1610   -2.2344 C   0  0  0  0  0  0  0  0  0  0  0  0
   26.7339    6.3304   -2.9728 C   0  0  0  0  0  0  0  0  0  0  0  0
   27.6159    6.4658   -4.0483 C   0  0  0  0  0  0  0  0  0  0  0  0
   27.6650    7.6476   -4.7657 N   0  0  0  0  0  0  0  0  0  0  0  0
   28.4888    5.4183   -4.3548 C   0  0  0  0  0  0  0  0  0  0  0  0
   28.4695    4.2566   -3.6044 C   0  0  0  0  0  0  0  0  0  0  0  0
   28.7243    2.4174   -1.1357 C   0  0  0  0  0  0  0  0  0  0  0  0
   29.9655    3.1343   -1.1591 C   0  0  0  0  0  0  0  0  0  0  0  0
   30.9044    2.3100   -0.6363 C   0  0  0  0  0  0  0  0  0  0  0  0
   30.2335    1.0965   -0.2834 C   0  0  0  0  0  0  0  0  0  0  0  0
   28.8864    1.1982   -0.5292 N   0  0  0  0  0  0  0  0  0  0  0  0
   31.9638   -0.0569    0.1312 H   0  0  0  0  0  0  0  0  0  0  0  0
   31.9242   -2.6090    0.7465 H   0  0  0  0  0  0  0  0  0  0  0  0
   30.0061   -4.2589    1.6889 H   0  0  0  0  0  0  0  0  0  0  0  0
   25.9523   -5.1607    1.4056 H   0  0  0  0  0  0  0  0  0  0  0  0
   25.9120   -7.2390    2.7302 H   0  0  0  0  0  0  0  0  0  0  0  0
   27.0037   -8.5393    4.4151 H   0  0  0  0  0  0  0  0  0  0  0  0
   28.1959   -7.9100    5.4324 H   0  0  0  0  0  0  0  0  0  0  0  0
   28.9319   -5.6371    5.3249 H   0  0  0  0  0  0  0  0  0  0  0  0
   28.9636   -3.5591    3.9995 H   0  0  0  0  0  0  0  0  0  0  0  0
   24.9253   -3.3870    3.0156 H   0  0  0  0  0  0  0  0  0  0  0  0
   23.0475   -1.7650    1.9597 H   0  0  0  0  0  0  0  0  0  0  0  0
   23.1222    1.7029   -2.0066 H   0  0  0  0  0  0  0  0  0  0  0  0
   25.0479    3.2953   -3.0230 H   0  0  0  0  0  0  0  0  0  0  0  0
   26.0334    5.0685   -1.3949 H   0  0  0  0  0  0  0  0  0  0  0  0
   26.0648    7.1459   -2.7208 H   0  0  0  0  0  0  0  0  0  0  0  0
   26.8293    8.2085   -4.7236 H   0  0  0  0  0  0  0  0  0  0  0  0
   28.0603    7.5716   -5.6891 H   0  0  0  0  0  0  0  0  0  0  0  0
   29.1776    5.5186   -5.1865 H   0  0  0  0  0  0  0  0  0  0  0  0
   29.1360    3.4407   -3.8620 H   0  0  0  0  0  0  0  0  0  0  0  0
   30.0895    4.1391   -1.5294 H   0  0  0  0  0  0  0  0  0  0  0  0
   31.9598    2.4864   -0.5014 H   0  0  0  0  0  0  0  0  0  0  0  0
   21.4966   -0.0025   -0.0203 C   0  0  0  0  0  0  0  0  0  0  0  0
   22.7128   -0.0156   -0.0133 C   0  0  0  0  0  0  0  0  0  0  0  0
  2  3  4  0  0  0  0
  3  4  4  0  0  0  0
  4  5  2  0  0  0  0
  5  6  4  0  0  0  0
  1  7  1  0  0  0  0
  3  7  4  0  0  0  0
  6  7  4  0  0  0  0
  6  8  4  0  0  0  0
  8  9  1  0  0  0  0
  9 10  4  0  0  0  0
 10 11  4  0  0  0  0
 11 12  4  0  0  0  0
 12 13  1  0  0  0  0
 12 14  4  0  0  0  0
  9 15  4  0  0  0  0
 14 15  4  0  0  0  0
  8 16  4  0  0  0  0
 16 17  4  0  0  0  0
 17 18  2  0  0  0  0
  1 19  1  0  0  0  0
 16 19  4  0  0  0  0
 18 20  4  0  0  0  0
 19 20  4  0  0  0  0
 20 21  4  0  0  0  0
 21 22  4  0  0  0  0
 22 23  4  0  0  0  0
 23 24  2  0  0  0  0
 24 25  4  0  0  0  0
  1 26  1  0  0  0  0
 22 26  4  0  0  0  0
 25 26  4  0  0  0  0
 25 27  4  0  0  0  0
 27 28  1  0  0  0  0
 28 29  4  0  0  0  0
 29 30  4  0  0  0  0
 30 31  4  0  0  0  0
 31 32  1  0  0  0  0
 31 33  4  0  0  0  0
 28 34  4  0  0  0  0
 33 34  4  0  0  0  0
 27 35  4  0  0  0  0
 35 36  4  0  0  0  0
 36 37  2  0  0  0  0
  2 38  4  0  0  0  0
 37 38  4  0  0  0  0
  1 39  1  0  0  0  0
 35 39  4  0  0  0  0
 38 39  4  0  0  0  0
  2 40  1  0  0  0  0
  4 41  1  0  0  0  0
  5 42  1  0  0  0  0
 10 43  1  0  0  0  0
 11 44  1  0  0  0  0
 13 45  1  0  0  0  0
 13 46  1  0  0  0  0
 14 47  1  0  0  0  0
 15 48  1  0  0  0  0
 17 49  1  0  0  0  0
 18 50  1  0  0  0  0
 23 51  1  0  0  0  0
 24 52  1  0  0  0  0
 29 53  1  0  0  0  0
 30 54  1  0  0  0  0
 32 55  1  0  0  0  0
 32 56  1  0  0  0  0
 33 57  1  0  0  0  0
 34 58  1  0  0  0  0
 36 59  1  0  0  0  0
 37 60  1  0  0  0  0
 62 63  4  0  0  0  0
 63 64  4  0  0  0  0
 64 65  2  0  0  0  0
 65 66  4  0  0  0  0
 61 67  1  0  0  0  0
 63 67  4  0  0  0  0
 66 67  4  0  0  0  0
 66 68  4  0  0  0  0
 68 69  1  0  0  0  0
 69 70  4  0  0  0  0
 70 71  4  0  0  0  0
 71 72  4  0  0  0  0
 72 73  1  0  0  0  0
 72 74  4  0  0  0  0
 69 75  4  0  0  0  0
 74 75  4  0  0  0  0
 68 76  4  0  0  0  0
 76 77  4  0  0  0  0
 77 78  2  0  0  0  0
 61 79  1  0  0  0  0
 76 79  4  0  0  0  0
 78 80  4  0  0  0  0
 79 80  4  0  0  0  0
 80 81  4  0  0  0  0
 81 82  4  0  0  0  0
 82 83  4  0  0  0  0
 83 84  2  0  0  0  0
 84 85  4  0  0  0  0
 61 86  1  0  0  0  0
 82 86  4  0  0  0  0
 85 86  4  0  0  0  0
 85 87  4  0  0  0  0
 87 88  1  0  0  0  0
 88 89  4  0  0  0  0
 89 90  4  0  0  0  0
 90 91  4  0  0  0  0
 91 92  1  0  0  0  0
 91 93  4  0  0  0  0
 88 94  4  0  0  0  0
 93 94  4  0  0  0  0
 87 95  4  0  0  0  0
 95 96  4  0  0  0  0
 96 97  2  0  0  0  0
 62 98  4  0  0  0  0
 97 98  4  0  0  0  0
 61 99  1  0  0  0  0
 95 99  4  0  0  0  0
 98 99  4  0  0  0  0
 62100  1  0  0  0  0
 64101  1  0  0  0  0
 65102  1  0  0  0  0
 70103  1  0  0  0  0
 71104  1  0  0  0  0
 73105  1  0  0  0  0
 73106  1  0  0  0  0
 74107  1  0  0  0  0
 75108  1  0  0  0  0
 77109  1  0  0  0  0
 78110  1  0  0  0  0
 83111  1  0  0  0  0
 84112  1  0  0  0  0
 89113  1  0  0  0  0
 90114  1  0  0  0  0
 92115  1  0  0  0  0
 92116  1  0  0  0  0
 93117  1  0  0  0  0
 94118  1  0  0  0  0
 96119  1  0  0  0  0
 97120  1  0  0  0  0
 21121  1  0  0  0  0
 81122  1  0  0  0  0
121122  3  0  0  0  0
M  END
