191

Cu 28.164728 -0.032668 0.029811
C 24.823135 0.110619 0.020309
C 25.485403 1.149693 -0.496481
C 24.834855 2.297549 -1.116666
C 25.775070 3.146035 -1.489110
C 27.079993 2.585170 -1.112243
N 26.902839 1.311665 -0.490480
C 28.272115 3.187285 -1.304881
C 28.321838 4.532817 -1.921602
C 28.878779 4.700796 -3.198284
C 28.942036 5.971801 -3.776941
C 28.453029 7.088340 -3.084011
N 28.517939 8.388157 -3.676520
C 27.901980 6.922434 -1.805457
C 27.839065 5.652083 -1.225442
C 29.563303 2.562156 -0.914813
C 30.846759 3.274797 -0.908643
C 31.781272 2.419427 -0.546756
N 29.705965 1.320267 -0.565895
C 31.101158 1.151035 -0.315227
C 31.695356 -0.007100 0.015180
C 30.931773 -1.253111 0.247984
C 31.462294 -2.469296 0.228133
C 30.419398 -3.400896 0.611877
C 29.321764 -2.690817 0.845646
N 29.555611 -1.298974 0.625220
C 28.043151 -3.261840 1.341156
C 28.065971 -4.599827 1.981066
C 28.804923 -4.803792 3.156596
C 28.845899 -6.067447 3.753057
C 28.153716 -7.142517 3.178117
N 28.196114 -8.434873 3.788724
C 27.422256 -6.942957 1.998910
C 27.381204 -5.680005 1.401098
C 26.881094 -2.590731 1.225067
C 25.573762 -3.033365 1.707012
C 24.712100 -2.106780 1.334305
C 25.460557 -1.067951 0.628660
N 26.725417 -1.339410 0.558875
H 23.739772 0.128583 -0.003150
H 23.771544 2.441091 -1.259915
H 25.587270 4.087903 -1.987704
H 29.261840 3.847177 -3.744077
H 29.372385 6.086724 -4.763801
H 28.927268 8.522102 -4.628031
H 28.156948 9.226060 -3.168112
H 27.523786 7.776869 -1.258459
H 27.416388 5.539121 -0.234574
H 31.017677 4.315196 -1.152092
H 32.835047 2.644675 -0.450616
H 32.487975 -2.724544 -0.002275
H 30.528145 -4.472872 0.714044
H 29.345905 -3.983031 3.611586
H 29.417279 -6.208997 4.661798
H 28.739103 -8.593782 4.666661
H 27.684614 -9.242206 3.367475
H 26.887192 -7.765948 1.542069
H 26.819767 -5.543436 0.484933
H 25.331925 -3.931415 2.259976
H 23.647546 -2.123024 1.527696
Cu 62.085996 0.019223 0.001952
C 65.427590 -0.067867 0.116132
C 64.765321 -1.072725 0.696656
C 65.415870 -2.223867 1.310720
C 64.475655 -3.003108 1.812144
C 63.170732 -2.379099 1.552895
N 63.347885 -1.157217 0.834974
C 61.978610 -2.872345 1.948317
C 61.928886 -4.129821 2.729058
C 61.371946 -5.286743 2.163668
C 61.308688 -6.471314 2.903322
C 61.797695 -6.510677 4.216814
N 61.732786 -7.722713 4.972829
C 62.348745 -5.353341 4.784966
C 62.411660 -4.167999 4.046608
C 60.687422 -2.201825 1.642798
C 59.403966 -2.590435 2.240190
C 58.469453 -1.816190 1.727195
N 60.544759 -1.224828 0.800475
C 59.149567 -0.922392 0.797922
C 58.555369 -0.007100 0.015180
C 59.318952 0.875396 -0.894735
C 58.788431 1.530823 -1.919388
C 59.831327 2.365406 -2.483844
C 60.928960 2.167914 -1.762832
N 60.695114 1.215161 -0.724529
C 62.207574 2.896425 -1.964996
C 62.184754 4.169060 -2.726635
C 61.445802 5.261554 -2.247128
C 61.404826 6.456904 -2.970819
C 62.097009 6.571698 -4.184554
N 62.054611 7.794697 -4.924350
C 62.828468 5.478572 -4.669764
C 62.869521 4.282485 -3.947406
C 63.369631 2.428859 -1.469771
C 64.676963 3.075125 -1.572418
C 65.538625 2.252513 -1.006044
C 64.790167 1.090381 -0.530071
N 63.525307 1.182204 -0.794890
H 66.510953 -0.097346 0.118143
H 66.479181 -2.422575 1.351213
H 64.663455 -3.939090 2.321701
H 60.988885 -5.270013 1.150615
H 60.878340 -7.357356 2.453844
H 61.323456 -8.589802 4.558737
H 62.093777 -7.761921 5.952126
H 62.726939 -5.369518 5.799365
H 62.834337 -3.279699 4.499935
H 59.233048 -3.368197 2.972846
H 57.415678 -1.860513 1.968058
H 57.762749 1.479810 -2.259442
H 59.722580 3.042856 -3.320881
H 60.904820 5.187295 -1.311633
H 60.833446 7.292546 -2.586697
H 61.511621 8.614255 -4.571717
H 62.566111 7.889661 -5.830010
H 63.363533 5.552522 -5.608140
H 63.430958 3.443408 -4.339781
H 64.918799 4.032215 -2.015412
H 66.603178 2.422679 -0.912730
C 37.861481 -0.005997 0.023670
C 36.652542 -0.019452 0.015222
C 35.231013 -0.010633 0.003239
C 34.019343 -0.003194 0.014102
C 39.278086 -0.012672 0.024203
C 40.498781 -0.003194 0.014102
C 53.596931 -0.005997 0.023670
C 52.387992 -0.019452 0.015222
C 50.966463 -0.010633 0.003239
C 49.754793 -0.003194 0.014102
C 55.013535 -0.012672 0.024203
C 56.234231 -0.003194 0.014102
Cu 45.158826 -0.041214 0.048102
C 41.674640 0.015090 -0.033742
C 42.331500 1.124986 -0.417689
C 41.686775 2.357072 -0.877808
C 42.624799 3.252669 -1.112317
C 43.927647 2.644879 -0.822549
N 43.751229 1.294859 -0.385040
C 45.111683 3.287239 -0.909560
C 45.133061 4.707334 -1.323676
C 44.999389 5.050628 -2.677498
C 45.016415 6.393370 -3.066620
C 45.170004 7.404757 -2.106946
N 45.187931 8.778084 -2.505735
C 45.305657 7.060668 -0.753880
C 45.286553 5.718412 -0.363507
C 46.415172 2.643430 -0.605402
C 47.694086 3.364534 -0.570948
C 48.645573 2.487788 -0.325069
N 46.578614 1.373465 -0.396941
C 47.982862 1.195303 -0.209009
C 48.597953 0.015090 -0.033742
C 47.852595 -1.259337 0.061389
C 48.401096 -2.458970 -0.083956
C 47.368573 -3.439477 0.186226
C 46.258672 -2.772839 0.481413
N 46.473197 -1.363153 0.413447
C 44.993456 -3.409106 0.923553
C 45.046640 -4.797121 1.443316
C 44.401678 -5.840043 0.757112
C 44.467827 -7.149164 1.243400
C 45.183471 -7.431108 2.416654
N 45.247636 -8.769752 2.916272
C 45.836710 -6.392071 3.096906
C 45.772419 -5.082950 2.610295
C 43.817509 -2.753524 0.880859
C 42.534914 -3.267372 1.350482
C 41.646647 -2.331549 1.087022
C 42.350083 -1.211174 0.452295
N 43.619833 -1.449957 0.331750
H 40.627412 2.538882 -1.001688
H 42.435402 4.263318 -1.451706
H 44.880253 4.278328 -3.428021
H 44.910465 6.645529 -4.114434
H 45.088824 9.044109 -3.510828
H 45.305428 9.538294 -1.798772
H 45.426130 7.832141 -0.003350
H 45.392046 5.465416 0.684687
H 47.853062 4.423654 -0.724355
H 49.700636 2.712596 -0.244552
H 49.432408 -2.675082 -0.327692
H 47.494291 -4.514641 0.184612
H 43.850508 -5.637805 -0.153704
H 43.963221 -7.943445 0.705764
H 45.777547 -8.989873 3.789451
H 44.762279 -9.550214 2.419406
H 46.395236 -6.596629 4.002975
H 46.283042 -4.290557 3.145455
H 42.327295 -4.214949 1.830378
H 40.592207 -2.398596 1.318323
