312

Co 44.183428 -0.024555 -0.021643
C 40.809560 0.107964 0.017640
C 41.478276 1.160603 0.496251
C 40.834959 2.342133 1.059036
C 41.781972 3.194596 1.404161
C 43.082417 2.597300 1.073775
N 42.897850 1.303108 0.501349
C 44.276176 3.194833 1.256092
C 44.321730 4.562727 1.835652
C 44.237997 5.695965 0.992453
C 44.100202 5.545515 -0.500580
C 44.280938 6.981242 1.553992
C 44.400534 7.153901 2.937860
C 44.486432 8.533841 3.521334
C 44.509288 6.032291 3.768006
C 44.462479 4.736187 3.232504
C 44.573844 3.549969 4.155001
C 45.569258 2.555385 0.902763
C 46.861395 3.246085 0.974955
C 47.796594 2.387099 0.626931
N 45.706650 1.320090 0.527362
C 47.108845 1.135327 0.331059
C 47.703844 -0.018404 -0.017457
C 46.946597 -1.260366 -0.305089
C 47.502884 -2.459230 -0.427963
C 46.453903 -3.388297 -0.794574
C 45.322522 -2.697947 -0.871056
N 45.542824 -1.319526 -0.564947
C 44.020838 -3.277569 -1.291115
C 44.010359 -4.639674 -1.889433
C 44.249029 -4.807367 -3.273620
C 44.516756 -3.622300 -4.165070
C 44.245733 -6.097291 -3.825684
C 44.006983 -7.218392 -3.023509
C 43.981409 -8.584414 -3.644320
C 43.757862 -7.050786 -1.655852
C 43.768562 -5.772738 -1.076547
C 43.507484 -5.629060 0.400807
C 42.859163 -2.614828 -1.147616
C 41.539165 -3.110405 -1.530417
C 40.678025 -2.183290 -1.159309
C 41.440184 -1.094801 -0.548812
N 42.713463 -1.335832 -0.535744
H 39.726385 0.133321 0.039968
H 39.771871 2.508113 1.176948
H 41.604130 4.165906 1.847437
H 43.148579 5.026124 -0.738736
H 44.950233 4.953556 -0.900139
H 44.095675 6.529848 -1.015002
H 44.221725 7.853226 0.913127
H 44.062573 8.552548 4.548094
H 45.549254 8.851763 3.562027
H 43.914531 9.258416 2.903183
H 44.628651 6.171814 4.836117
H 45.488839 2.970597 3.910804
H 44.632703 3.860313 5.219566
H 43.684547 2.895856 4.037052
H 47.037047 4.274696 1.261474
H 48.856775 2.598869 0.584295
H 48.548493 -2.706385 -0.304138
H 46.581245 -4.444452 -0.993805
H 43.681657 -2.894354 -4.087202
H 44.612580 -3.921773 -5.230231
H 45.462318 -3.128977 -3.856873
H 44.427492 -6.233734 -4.885585
H 44.882359 -8.728453 -4.278712
H 43.972289 -9.382577 -2.870977
H 43.072813 -8.687356 -4.274981
H 43.559005 -7.919664 -1.039604
H 42.552981 -5.086079 0.561249
H 44.335048 -5.063446 0.878023
H 43.434738 -6.616428 0.904257
H 41.291325 -4.048194 -2.010568
H 39.604803 -2.234112 -1.287514
Co 95.168103 -0.011068 -0.016220
C 98.541971 -0.133888 -0.079620
C 97.873255 -1.224811 -0.463033
C 98.516572 -2.467015 -0.874942
C 97.569559 -3.321077 -1.216090
C 96.269115 -2.661344 -1.040966
N 96.453681 -1.331170 -0.558014
C 95.075356 -3.218737 -1.323098
C 95.029801 -4.607032 -1.851927
C 95.113534 -4.840988 -3.244937
C 95.251330 -3.698758 -4.218125
C 95.070593 -6.157191 -3.729573
C 94.950997 -7.239869 -2.850533
C 94.865099 -8.639566 -3.384878
C 94.842243 -7.005266 -1.474992
C 94.889052 -5.699276 -0.964073
C 94.777687 -5.481991 0.522837
C 93.782273 -2.512702 -1.135346
C 92.490136 -3.061080 -1.561445
C 91.554938 -2.200303 -1.217873
N 93.644881 -1.361433 -0.551002
C 92.242686 -1.092205 -0.564733
C 91.647687 -0.018404 -0.017457
C 92.404934 1.076910 0.634837
C 91.848647 2.027060 1.376179
C 92.897629 2.951273 1.754857
C 94.029009 2.506079 1.221721
N 93.808707 1.299505 0.488286
C 95.330693 3.215143 1.319901
C 95.341172 4.612247 1.831188
C 95.102502 5.691563 0.948480
C 94.834775 5.453614 -0.515230
C 95.105798 7.004560 1.443169
C 95.344548 7.258159 2.798174
C 95.370122 8.673663 3.295942
C 95.593669 6.190352 3.669015
C 95.582970 4.867064 3.202204
C 95.844047 3.740576 4.168767
C 96.492368 2.637572 0.964615
C 97.812366 3.260196 1.031493
C 98.673506 2.334276 0.657411
C 97.911347 1.126178 0.344345
N 96.638068 1.291054 0.520647
H 99.625146 -0.167644 -0.081064
H 99.579660 -2.668417 -0.904772
H 97.747401 -4.328851 -1.568694
H 96.202952 -3.159092 -4.030385
H 94.401298 -2.994984 -4.096611
H 95.255856 -4.052887 -5.270804
H 95.129806 -6.342712 -4.795709
H 95.288958 -9.363918 -2.656936
H 93.802277 -8.897145 -3.575621
H 95.437001 -8.734444 -4.332569
H 94.722880 -7.845426 -0.800857
H 93.862692 -4.894862 0.747744
H 94.718829 -6.442958 1.076150
H 95.666984 -4.928335 0.890587
H 92.314484 -4.001673 -2.066833
H 90.494756 -2.323595 -1.395253
H 90.803038 2.119675 1.636642
H 92.770286 3.851311 2.342300
H 95.669874 4.874429 -0.963019
H 94.738951 6.407148 -1.076499
H 93.889213 4.884266 -0.634381
H 94.924039 7.836813 0.772826
H 94.469172 9.216806 2.937897
H 95.379242 8.714198 4.406563
H 96.278718 9.184569 2.912137
H 95.792527 6.390675 4.715237
H 96.798550 3.237692 3.908618
H 95.016483 3.002049 4.121527
H 95.916793 4.104492 5.215630
H 98.060206 4.269311 1.334281
H 99.746728 2.459709 0.600086
C 54.081614 -0.017302 -0.008967
C 52.872675 -0.030757 -0.017414
C 51.451146 -0.021938 -0.029397
C 50.239476 -0.014499 -0.018534
C 55.498218 -0.023977 -0.008434
C 56.718914 -0.014499 -0.018534
C 70.279609 -0.017302 -0.008967
C 69.070670 -0.030757 -0.017414
C 67.649141 -0.021938 -0.029397
C 66.437472 -0.014499 -0.018534
C 71.696214 -0.023977 -0.008434
C 72.916910 -0.014499 -0.018534
C 86.477605 -0.017302 -0.008967
C 85.268666 -0.030757 -0.017414
C 83.847137 -0.021938 -0.029397
C 82.635467 -0.014499 -0.018534
C 87.894209 -0.023977 -0.008434
C 89.114905 -0.014499 -0.018534
Co 61.569706 -0.036480 -0.005109
C 58.123847 0.020444 0.019981
C 58.782368 0.182253 1.182731
C 58.140594 0.416535 2.478662
C 59.080660 0.491939 3.398155
C 60.380208 0.311464 2.745337
N 60.201840 0.118503 1.340583
C 61.565220 0.304633 3.388231
C 61.589470 0.476571 4.864896
C 61.746037 1.765846 5.426157
C 61.906976 2.981212 4.549649
C 61.775371 1.914579 6.821167
C 61.627430 0.805367 7.662433
C 61.690724 0.972902 9.152501
C 61.489366 -0.471409 7.105848
C 61.470448 -0.649217 5.714047
C 61.305702 -2.036121 5.148489
C 62.869662 0.135833 2.701506
C 64.146459 -0.007250 3.410572
C 65.101542 -0.086935 2.507870
N 63.034804 0.145233 1.414877
C 64.441465 0.006409 1.211640
C 65.060667 0.020444 0.019981
C 64.322289 0.112115 -1.260322
C 64.890251 0.365795 -2.432449
C 63.856569 0.268685 -3.442782
C 62.723747 -0.036143 -2.821517
N 62.926312 -0.148907 -1.412829
C 61.445103 -0.323678 -3.515496
C 61.477293 -0.570543 -4.982265
C 61.230058 0.488177 -5.888474
C 60.926880 1.879667 -5.395495
C 61.268367 0.240667 -7.269176
C 61.545455 -1.040891 -7.759009
C 61.629850 -1.281243 -9.237755
C 61.814994 -2.081071 -6.862081
C 61.771368 -1.863216 -5.476631
C 62.066358 -3.006257 -4.539754
C 60.269139 -0.383816 -2.863921
C 58.977597 -0.676809 -3.474673
C 58.086261 -0.576541 -2.510870
C 58.797911 -0.223139 -1.277144
N 60.075330 -0.109855 -1.476743
H 57.082257 0.511319 2.681540
H 58.896966 0.656405 4.452116
H 62.862453 2.912160 3.989390
H 61.918023 3.918408 5.145215
H 61.064392 3.044640 3.829854
H 61.911085 2.897929 7.256341
H 62.735863 0.825812 9.496154
H 61.035153 0.230751 9.656021
H 61.350824 1.987443 9.451505
H 61.398689 -1.329448 7.761681
H 60.329898 -2.111817 4.624990
H 62.124311 -2.253381 4.430900
H 61.335730 -2.810661 5.944141
H 64.299025 -0.040031 4.481462
H 66.157241 -0.194274 2.719079
H 65.935183 0.576256 -2.616283
H 63.996804 0.386445 -4.509441
H 59.976681 1.875380 -4.821665
H 60.821635 2.600268 -6.234403
H 61.748986 2.235266 -4.739275
H 61.086247 1.048564 -7.968308
H 61.320059 -2.319474 -9.483544
H 62.674710 -1.124800 -9.578348
H 60.961240 -0.585336 -9.788413
H 62.058528 -3.064651 -7.246881
H 62.148682 -3.971732 -5.082935
H 61.251192 -3.106534 -3.792782
H 63.025468 -2.818260 -4.013720
H 58.766474 -0.921197 -4.507707
H 57.023260 -0.732925 -2.634946
Co 77.767701 -0.036480 -0.005109
C 74.321842 0.020444 0.019981
C 74.980364 0.182253 1.182731
C 74.338589 0.416535 2.478662
C 75.278656 0.491939 3.398155
C 76.578204 0.311464 2.745337
N 76.399836 0.118503 1.340583
C 77.763215 0.304633 3.388231
C 77.787465 0.476571 4.864896
C 77.944033 1.765846 5.426157
C 78.104971 2.981212 4.549649
C 77.973366 1.914579 6.821167
C 77.825425 0.805367 7.662433
C 77.888719 0.972902 9.152501
C 77.687361 -0.471409 7.105848
C 77.668443 -0.649217 5.714047
C 77.503698 -2.036121 5.148489
C 79.067658 0.135833 2.701506
C 80.344454 -0.007250 3.410572
C 81.299537 -0.086935 2.507870
N 79.232800 0.145233 1.414877
C 80.639460 0.006409 1.211640
C 81.258662 0.020444 0.019981
C 80.520284 0.112115 -1.260322
C 81.088247 0.365795 -2.432449
C 80.054564 0.268685 -3.442782
C 78.921743 -0.036143 -2.821517
N 79.124307 -0.148907 -1.412829
C 77.643098 -0.323678 -3.515496
C 77.675288 -0.570543 -4.982265
C 77.428053 0.488177 -5.888474
C 77.124875 1.879667 -5.395495
C 77.466362 0.240667 -7.269176
C 77.743451 -1.040891 -7.759009
C 77.827845 -1.281243 -9.237755
C 78.012990 -2.081071 -6.862081
C 77.969363 -1.863216 -5.476631
C 78.264354 -3.006257 -4.539754
C 76.467135 -0.383816 -2.863921
C 75.175593 -0.676809 -3.474673
C 74.284256 -0.576541 -2.510870
C 74.995906 -0.223139 -1.277144
N 76.273326 -0.109855 -1.476743
H 73.280252 0.511319 2.681540
H 75.094962 0.656405 4.452116
H 79.060448 2.912160 3.989390
H 78.116018 3.918408 5.145215
H 77.262388 3.044640 3.829854
H 78.109081 2.897929 7.256341
H 78.933858 0.825812 9.496154
H 77.233148 0.230751 9.656021
H 77.548820 1.987443 9.451505
H 77.596685 -1.329448 7.761681
H 76.527893 -2.111817 4.624990
H 78.322306 -2.253381 4.430900
H 77.533725 -2.810661 5.944141
H 80.497021 -0.040031 4.481462
H 82.355236 -0.194274 2.719079
H 82.133178 0.576256 -2.616283
H 80.194799 0.386445 -4.509441
H 76.174676 1.875380 -4.821665
H 77.019630 2.600268 -6.234403
H 77.946981 2.235266 -4.739275
H 77.284243 1.048564 -7.968308
H 77.518055 -2.319474 -9.483544
H 78.872705 -1.124800 -9.578348
H 77.159236 -0.585336 -9.788413
H 78.256523 -3.064651 -7.246881
H 78.346677 -3.971732 -5.082935
H 77.449187 -3.106534 -3.792782
H 79.223463 -2.818260 -4.013720
H 74.964470 -0.921197 -4.507707
H 73.221255 -0.732925 -2.634946
