 xtb: 6.5.1 (b24c23e)
          07302201233D

248287  0     0  0            999 V2000
   38.0708    0.3582    0.2085 Co  0  0  0  0  0  0  0  0  0  0  0  0
   34.6997    0.3249    0.1366 C   0  0  0  0  0  0  0  0  0  0  0  0
   35.3625   -0.8557    0.3969 C   0  0  0  0  0  0  0  0  0  0  0  0
   34.7080   -2.0964    0.6810 C   0  0  0  0  0  0  0  0  0  0  0  0
   35.6703   -3.0492    0.6918 C   0  0  0  0  0  0  0  0  0  0  0  0
   36.9095   -2.3910    0.3956 C   0  0  0  0  0  0  0  0  0  0  0  0
   36.7184   -1.0366    0.2884 N   0  0  0  0  0  0  0  0  0  0  0  0
   38.1015   -3.0495    0.1241 C   0  0  0  0  0  0  0  0  0  0  0  0
   38.1193   -4.5292    0.0801 C   0  0  0  0  0  0  0  0  0  0  0  0
   37.3370   -5.2168   -0.7679 C   0  0  0  0  0  0  0  0  0  0  0  0
   37.3267   -6.7206   -0.8293 C   0  0  0  0  0  0  0  0  0  0  0  0
   38.4654   -7.2924   -0.1086 N   0  0  0  0  0  0  0  0  0  0  0  0
   39.1279   -6.5832    0.8536 C   0  0  0  0  0  0  0  0  0  0  0  0
   39.0217   -5.2457    0.9668 C   0  0  0  0  0  0  0  0  0  0  0  0
   39.2788   -2.3559   -0.1183 C   0  0  0  0  0  0  0  0  0  0  0  0
   40.5208   -2.9769   -0.4681 C   0  0  0  0  0  0  0  0  0  0  0  0
   41.4648   -2.0051   -0.4443 C   0  0  0  0  0  0  0  0  0  0  0  0
   39.4511   -1.0015    0.0498 N   0  0  0  0  0  0  0  0  0  0  0  0
   40.7958   -0.7941   -0.0876 C   0  0  0  0  0  0  0  0  0  0  0  0
   41.4613    0.3928    0.2250 C   0  0  0  0  0  0  0  0  0  0  0  0
   40.7691    1.5633    0.5427 C   0  0  0  0  0  0  0  0  0  0  0  0
   41.4093    2.7809    0.9285 C   0  0  0  0  0  0  0  0  0  0  0  0
   40.4430    3.7295    0.9744 C   0  0  0  0  0  0  0  0  0  0  0  0
   39.2172    3.0897    0.6017 C   0  0  0  0  0  0  0  0  0  0  0  0
   39.4211    1.7435    0.4027 N   0  0  0  0  0  0  0  0  0  0  0  0
   38.0293    3.7636    0.3567 C   0  0  0  0  0  0  0  0  0  0  0  0
   38.0093    5.2413    0.4452 C   0  0  0  0  0  0  0  0  0  0  0  0
   37.1908    5.8815    1.2960 C   0  0  0  0  0  0  0  0  0  0  0  0
   37.1405    7.3818    1.4049 C   0  0  0  0  0  0  0  0  0  0  0  0
   38.2787    8.0051    0.7272 N   0  0  0  0  0  0  0  0  0  0  0  0
   38.9785    7.3439   -0.2429 C   0  0  0  0  0  0  0  0  0  0  0  0
   38.9104    6.0084   -0.3995 C   0  0  0  0  0  0  0  0  0  0  0  0
   36.8609    3.0874    0.0308 C   0  0  0  0  0  0  0  0  0  0  0  0
   35.6219    3.7275   -0.3033 C   0  0  0  0  0  0  0  0  0  0  0  0
   34.6824    2.7544   -0.3671 C   0  0  0  0  0  0  0  0  0  0  0  0
   35.3499    1.5208   -0.0814 C   0  0  0  0  0  0  0  0  0  0  0  0
   36.6952    1.7274    0.0955 N   0  0  0  0  0  0  0  0  0  0  0  0
   33.6164    0.3138    0.1097 H   0  0  0  0  0  0  0  0  0  0  0  0
   33.6473   -2.2049    0.8439 H   0  0  0  0  0  0  0  0  0  0  0  0
   35.5635   -4.1055    0.8789 H   0  0  0  0  0  0  0  0  0  0  0  0
   36.6611   -4.7169   -1.4518 H   0  0  0  0  0  0  0  0  0  0  0  0
   37.3791   -7.0574   -1.8742 H   0  0  0  0  0  0  0  0  0  0  0  0
   36.3818   -7.1126   -0.4096 H   0  0  0  0  0  0  0  0  0  0  0  0
   38.4297   -8.2946    0.0034 H   0  0  0  0  0  0  0  0  0  0  0  0
   39.8006   -7.1709    1.4700 H   0  0  0  0  0  0  0  0  0  0  0  0
   39.5878   -4.6985    1.7070 H   0  0  0  0  0  0  0  0  0  0  0  0
   40.6437   -4.0233   -0.6959 H   0  0  0  0  0  0  0  0  0  0  0  0
   42.5225   -2.0857   -0.6376 H   0  0  0  0  0  0  0  0  0  0  0  0
   42.4641    2.8813    1.1282 H   0  0  0  0  0  0  0  0  0  0  0  0
   40.5412    4.7724    1.2290 H   0  0  0  0  0  0  0  0  0  0  0  0
   36.5126    5.3429    1.9476 H   0  0  0  0  0  0  0  0  0  0  0  0
   37.1629    7.6858    2.4609 H   0  0  0  0  0  0  0  0  0  0  0  0
   36.1945    7.7633    0.9780 H   0  0  0  0  0  0  0  0  0  0  0  0
   38.2182    9.0089    0.6448 H   0  0  0  0  0  0  0  0  0  0  0  0
   39.6471    7.9681   -0.8270 H   0  0  0  0  0  0  0  0  0  0  0  0
   39.5048    5.4998   -1.1451 H   0  0  0  0  0  0  0  0  0  0  0  0
   35.5004    4.7864   -0.4652 H   0  0  0  0  0  0  0  0  0  0  0  0
   33.6285    2.8448   -0.5776 H   0  0  0  0  0  0  0  0  0  0  0  0
   85.7698    0.2206    0.1593 Co  0  0  0  0  0  0  0  0  0  0  0  0
   89.1320    0.3777    0.0248 C   0  0  0  0  0  0  0  0  0  0  0  0
   88.4427    1.4717    0.5046 C   0  0  0  0  0  0  0  0  0  0  0  0
   89.0649    2.6607    1.0020 C   0  0  0  0  0  0  0  0  0  0  0  0
   88.0737    3.5598    1.2109 C   0  0  0  0  0  0  0  0  0  0  0  0
   86.8490    2.9269    0.8154 C   0  0  0  0  0  0  0  0  0  0  0  0
   87.0800    1.6226    0.4568 N   0  0  0  0  0  0  0  0  0  0  0  0
   85.6348    3.5848    0.6698 C   0  0  0  0  0  0  0  0  0  0  0  0
   85.5620    5.0440    0.9067 C   0  0  0  0  0  0  0  0  0  0  0  0
   86.3223    5.9112    0.2186 C   0  0  0  0  0  0  0  0  0  0  0  0
   86.2740    7.3977    0.4505 C   0  0  0  0  0  0  0  0  0  0  0  0
   85.1032    7.7770    1.2432 N   0  0  0  0  0  0  0  0  0  0  0  0
   84.4623    6.8712    2.0417 C   0  0  0  0  0  0  0  0  0  0  0  0
   84.6235    5.5422    1.8995 C   0  0  0  0  0  0  0  0  0  0  0  0
   84.4826    2.9096    0.2903 C   0  0  0  0  0  0  0  0  0  0  0  0
   83.2264    3.5436    0.0255 C   0  0  0  0  0  0  0  0  0  0  0  0
   82.3155    2.5541   -0.1413 C   0  0  0  0  0  0  0  0  0  0  0  0
   84.3526    1.5426    0.2190 N   0  0  0  0  0  0  0  0  0  0  0  0
   83.0174    1.3202    0.0224 C   0  0  0  0  0  0  0  0  0  0  0  0
   82.3859    0.0815    0.1566 C   0  0  0  0  0  0  0  0  0  0  0  0
   83.1129   -1.0992    0.3212 C   0  0  0  0  0  0  0  0  0  0  0  0
   82.5143   -2.3776    0.5408 C   0  0  0  0  0  0  0  0  0  0  0  0
   83.5101   -3.2927    0.4531 C   0  0  0  0  0  0  0  0  0  0  0  0
   84.7118   -2.5701    0.1617 C   0  0  0  0  0  0  0  0  0  0  0  0
   84.4646   -1.2166    0.1529 N   0  0  0  0  0  0  0  0  0  0  0  0
   85.9142   -3.1624   -0.1980 C   0  0  0  0  0  0  0  0  0  0  0  0
   85.9840   -4.6355   -0.3249 C   0  0  0  0  0  0  0  0  0  0  0  0
   86.8517   -5.3604    0.4000 C   0  0  0  0  0  0  0  0  0  0  0  0
   86.9566   -6.8574    0.2868 C   0  0  0  0  0  0  0  0  0  0  0  0
   85.8173   -7.4194   -0.4410 N   0  0  0  0  0  0  0  0  0  0  0  0
   85.0648   -6.6519   -1.2855 C   0  0  0  0  0  0  0  0  0  0  0  0
   85.0822   -5.3062   -1.2473 C   0  0  0  0  0  0  0  0  0  0  0  0
   87.0518   -2.4063   -0.4512 C   0  0  0  0  0  0  0  0  0  0  0  0
   88.2973   -2.9447   -0.9151 C   0  0  0  0  0  0  0  0  0  0  0  0
   89.2037   -1.9400   -0.8616 C   0  0  0  0  0  0  0  0  0  0  0  0
   88.5107   -0.7880   -0.3699 C   0  0  0  0  0  0  0  0  0  0  0  0
   87.1789   -1.0666   -0.1876 N   0  0  0  0  0  0  0  0  0  0  0  0
   90.2131    0.4304   -0.0276 H   0  0  0  0  0  0  0  0  0  0  0  0
   90.1253    2.7744    1.1633 H   0  0  0  0  0  0  0  0  0  0  0  0
   88.1526    4.5652    1.5918 H   0  0  0  0  0  0  0  0  0  0  0  0
   87.0217    5.5793   -0.5397 H   0  0  0  0  0  0  0  0  0  0  0  0
   86.2232    7.9295   -0.5100 H   0  0  0  0  0  0  0  0  0  0  0  0
   87.1966    7.7342    0.9588 H   0  0  0  0  0  0  0  0  0  0  0  0
   85.0980    8.7392    1.5472 H   0  0  0  0  0  0  0  0  0  0  0  0
   83.7596    7.3033    2.7469 H   0  0  0  0  0  0  0  0  0  0  0  0
   84.0734    4.8416    2.5114 H   0  0  0  0  0  0  0  0  0  0  0  0
   83.0723    4.6094   -0.0219 H   0  0  0  0  0  0  0  0  0  0  0  0
   81.2593    2.6360   -0.3417 H   0  0  0  0  0  0  0  0  0  0  0  0
   81.4647   -2.5372    0.7297 H   0  0  0  0  0  0  0  0  0  0  0  0
   83.4463   -4.3631    0.5642 H   0  0  0  0  0  0  0  0  0  0  0  0
   87.5330   -4.8962    1.1034 H   0  0  0  0  0  0  0  0  0  0  0  0
   86.9813   -7.3122    1.2871 H   0  0  0  0  0  0  0  0  0  0  0  0
   87.8996   -7.1359   -0.2190 H   0  0  0  0  0  0  0  0  0  0  0  0
   85.9105   -8.3971   -0.6724 H   0  0  0  0  0  0  0  0  0  0  0  0
   84.3994   -7.2101   -1.9363 H   0  0  0  0  0  0  0  0  0  0  0  0
   84.4480   -4.7183   -1.8953 H   0  0  0  0  0  0  0  0  0  0  0  0
   88.4453   -3.9625   -1.2385 H   0  0  0  0  0  0  0  0  0  0  0  0
   90.2517   -1.9607   -1.1159 H   0  0  0  0  0  0  0  0  0  0  0  0
   46.6603    0.4923    0.3198 C   0  0  0  0  0  0  0  0  0  0  0  0
   45.4334    0.4569    0.2822 C   0  0  0  0  0  0  0  0  0  0  0  0
   44.0890    0.4282    0.2520 C   0  0  0  0  0  0  0  0  0  0  0  0
   42.8658    0.4090    0.2334 C   0  0  0  0  0  0  0  0  0  0  0  0
   48.0032    0.5407    0.3751 C   0  0  0  0  0  0  0  0  0  0  0  0
   49.2242    0.5953    0.4392 C   0  0  0  0  0  0  0  0  0  0  0  0
   62.5536    0.1582    0.1775 C   0  0  0  0  0  0  0  0  0  0  0  0
   61.3243    0.1632    0.1744 C   0  0  0  0  0  0  0  0  0  0  0  0
   59.9827    0.2158    0.2069 C   0  0  0  0  0  0  0  0  0  0  0  0
   58.7628    0.3066    0.2669 C   0  0  0  0  0  0  0  0  0  0  0  0
   63.8953    0.2030    0.2181 C   0  0  0  0  0  0  0  0  0  0  0  0
   65.1151    0.2854    0.2895 C   0  0  0  0  0  0  0  0  0  0  0  0
   78.4141    0.0335    0.1929 C   0  0  0  0  0  0  0  0  0  0  0  0
   77.1873    0.0778    0.2318 C   0  0  0  0  0  0  0  0  0  0  0  0
   75.8465    0.1642    0.2920 C   0  0  0  0  0  0  0  0  0  0  0  0
   74.6299    0.2782    0.3604 C   0  0  0  0  0  0  0  0  0  0  0  0
   79.7590    0.0195    0.1664 C   0  0  0  0  0  0  0  0  0  0  0  0
   80.9821    0.0336    0.1559 C   0  0  0  0  0  0  0  0  0  0  0  0
   54.0077    0.7634    0.6065 Co  0  0  0  0  0  0  0  0  0  0  0  0
   50.6236    0.6666    0.5157 C   0  0  0  0  0  0  0  0  0  0  0  0
   51.2906    1.6836   -0.1766 C   0  0  0  0  0  0  0  0  0  0  0  0
   50.6301    2.7497   -0.8590 C   0  0  0  0  0  0  0  0  0  0  0  0
   51.5956    3.4694   -1.4827 C   0  0  0  0  0  0  0  0  0  0  0  0
   52.8383    2.8099   -1.2154 C   0  0  0  0  0  0  0  0  0  0  0  0
   52.6421    1.7568   -0.3506 N   0  0  0  0  0  0  0  0  0  0  0  0
   54.0268    3.0728   -1.8817 C   0  0  0  0  0  0  0  0  0  0  0  0
   54.0651    4.1175   -2.9285 C   0  0  0  0  0  0  0  0  0  0  0  0
   53.2616    4.0716   -4.0039 C   0  0  0  0  0  0  0  0  0  0  0  0
   53.3230    5.0909   -5.1088 C   0  0  0  0  0  0  0  0  0  0  0  0
   54.0981    6.2668   -4.7091 N   0  0  0  0  0  0  0  0  0  0  0  0
   55.0059    6.2072   -3.6889 C   0  0  0  0  0  0  0  0  0  0  0  0
   55.0167    5.2075   -2.7874 C   0  0  0  0  0  0  0  0  0  0  0  0
   55.1815    2.3393   -1.6356 C   0  0  0  0  0  0  0  0  0  0  0  0
   56.3749    2.4264   -2.4207 C   0  0  0  0  0  0  0  0  0  0  0  0
   57.2990    1.6385   -1.8176 C   0  0  0  0  0  0  0  0  0  0  0  0
   55.3611    1.4720   -0.5864 N   0  0  0  0  0  0  0  0  0  0  0  0
   56.6724    1.0907   -0.6563 C   0  0  0  0  0  0  0  0  0  0  0  0
   57.3722    0.4476    0.3684 C   0  0  0  0  0  0  0  0  0  0  0  0
   56.7338    0.0342    1.5438 C   0  0  0  0  0  0  0  0  0  0  0  0
   57.4259   -0.4265    2.7047 C   0  0  0  0  0  0  0  0  0  0  0  0
   56.4782   -0.8016    3.5990 C   0  0  0  0  0  0  0  0  0  0  0  0
   55.2106   -0.6118    2.9603 C   0  0  0  0  0  0  0  0  0  0  0  0
   55.3834   -0.0299    1.7239 N   0  0  0  0  0  0  0  0  0  0  0  0
   54.0075   -1.1121    3.4360 C   0  0  0  0  0  0  0  0  0  0  0  0
   53.9777   -1.8706    4.7060 C   0  0  0  0  0  0  0  0  0  0  0  0
   54.7149   -2.9778    4.8911 C   0  0  0  0  0  0  0  0  0  0  0  0
   54.7018   -3.7586    6.1777 C   0  0  0  0  0  0  0  0  0  0  0  0
   53.5880   -3.3549    7.0375 N   0  0  0  0  0  0  0  0  0  0  0  0
   52.9684   -2.1472    6.8828 C   0  0  0  0  0  0  0  0  0  0  0  0
   53.0964   -1.4071    5.7654 C   0  0  0  0  0  0  0  0  0  0  0  0
   52.8218   -0.9672    2.7236 C   0  0  0  0  0  0  0  0  0  0  0  0
   51.5980   -1.6321    3.0528 C   0  0  0  0  0  0  0  0  0  0  0  0
   50.6610   -1.1818    2.1827 C   0  0  0  0  0  0  0  0  0  0  0  0
   51.3100   -0.2243    1.3435 C   0  0  0  0  0  0  0  0  0  0  0  0
   52.6438   -0.1456    1.6391 N   0  0  0  0  0  0  0  0  0  0  0  0
   49.5655    2.9200   -0.8444 H   0  0  0  0  0  0  0  0  0  0  0  0
   51.4842    4.3587   -2.0814 H   0  0  0  0  0  0  0  0  0  0  0  0
   52.5741    3.2497   -4.1664 H   0  0  0  0  0  0  0  0  0  0  0  0
   53.7630    4.6414   -6.0183 H   0  0  0  0  0  0  0  0  0  0  0  0
   52.3090    5.4229   -5.3724 H   0  0  0  0  0  0  0  0  0  0  0  0
   54.2963    6.9113   -5.4600 H   0  0  0  0  0  0  0  0  0  0  0  0
   55.6658    7.0658   -3.6174 H   0  0  0  0  0  0  0  0  0  0  0  0
   55.6989    5.2146   -1.9493 H   0  0  0  0  0  0  0  0  0  0  0  0
   56.4790    3.0111   -3.3206 H   0  0  0  0  0  0  0  0  0  0  0  0
   58.3214    1.4544   -2.1064 H   0  0  0  0  0  0  0  0  0  0  0  0
   58.4985   -0.4434    2.8127 H   0  0  0  0  0  0  0  0  0  0  0  0
   56.6171   -1.1827    4.5975 H   0  0  0  0  0  0  0  0  0  0  0  0
   55.3651   -3.3665    4.1162 H   0  0  0  0  0  0  0  0  0  0  0  0
   55.6584   -3.6224    6.7147 H   0  0  0  0  0  0  0  0  0  0  0  0
   54.6005   -4.8326    5.9681 H   0  0  0  0  0  0  0  0  0  0  0  0
   53.6158   -3.7413    7.9691 H   0  0  0  0  0  0  0  0  0  0  0  0
   52.3104   -1.8656    7.6985 H   0  0  0  0  0  0  0  0  0  0  0  0
   52.5610   -0.4764    5.6435 H   0  0  0  0  0  0  0  0  0  0  0  0
   51.4838   -2.3543    3.8449 H   0  0  0  0  0  0  0  0  0  0  0  0
   49.6166   -1.4421    2.1208 H   0  0  0  0  0  0  0  0  0  0  0  0
   69.8699    0.7339    0.6378 Co  0  0  0  0  0  0  0  0  0  0  0  0
   66.5046    0.4288    0.4028 C   0  0  0  0  0  0  0  0  0  0  0  0
   67.1492    1.4059   -0.3660 C   0  0  0  0  0  0  0  0  0  0  0  0
   66.4575    2.3660   -1.1654 C   0  0  0  0  0  0  0  0  0  0  0  0
   67.4042    3.1470   -1.7414 C   0  0  0  0  0  0  0  0  0  0  0  0
   68.6734    2.6213   -1.3372 C   0  0  0  0  0  0  0  0  0  0  0  0
   68.4980    1.5883   -0.4426 N   0  0  0  0  0  0  0  0  0  0  0  0
   69.8868    2.9812   -1.9033 C   0  0  0  0  0  0  0  0  0  0  0  0
   69.9344    4.0322   -2.9438 C   0  0  0  0  0  0  0  0  0  0  0  0
   69.2470    3.9315   -4.0931 C   0  0  0  0  0  0  0  0  0  0  0  0
   69.3321    4.9661   -5.1825 C   0  0  0  0  0  0  0  0  0  0  0  0
   69.9500    6.2018   -4.6981 N   0  0  0  0  0  0  0  0  0  0  0  0
   70.7625    6.2037   -3.5982 C   0  0  0  0  0  0  0  0  0  0  0  0
   70.7746    5.1950   -2.7072 C   0  0  0  0  0  0  0  0  0  0  0  0
   71.0704    2.3275   -1.5766 C   0  0  0  0  0  0  0  0  0  0  0  0
   72.2911    2.4710   -2.3093 C   0  0  0  0  0  0  0  0  0  0  0  0
   73.2101    1.6845   -1.6970 C   0  0  0  0  0  0  0  0  0  0  0  0
   71.2361    1.4499   -0.5356 N   0  0  0  0  0  0  0  0  0  0  0  0
   72.5568    1.0943   -0.5716 C   0  0  0  0  0  0  0  0  0  0  0  0
   73.2389    0.4393    0.4561 C   0  0  0  0  0  0  0  0  0  0  0  0
   72.5913    0.0585    1.6370 C   0  0  0  0  0  0  0  0  0  0  0  0
   73.2788   -0.3431    2.8220 C   0  0  0  0  0  0  0  0  0  0  0  0
   72.3279   -0.6198    3.7483 C   0  0  0  0  0  0  0  0  0  0  0  0
   71.0613   -0.4441    3.1040 C   0  0  0  0  0  0  0  0  0  0  0  0
   71.2404    0.0349    1.8255 N   0  0  0  0  0  0  0  0  0  0  0  0
   69.8486   -0.8695    3.6276 C   0  0  0  0  0  0  0  0  0  0  0  0
   69.7987   -1.4817    4.9741 C   0  0  0  0  0  0  0  0  0  0  0  0
   70.5059   -2.5788    5.2890 C   0  0  0  0  0  0  0  0  0  0  0  0
   70.4658   -3.2057    6.6570 C   0  0  0  0  0  0  0  0  0  0  0  0
   69.3423   -2.6961    7.4452 N   0  0  0  0  0  0  0  0  0  0  0  0
   68.7560   -1.4965    7.1530 C   0  0  0  0  0  0  0  0  0  0  0  0
   68.9190   -0.8836    5.9657 C   0  0  0  0  0  0  0  0  0  0  0  0
   68.6706   -0.8047    2.8922 C   0  0  0  0  0  0  0  0  0  0  0  0
   67.4530   -1.4535    3.2724 C   0  0  0  0  0  0  0  0  0  0  0  0
   66.5372   -1.1590    2.3175 C   0  0  0  0  0  0  0  0  0  0  0  0
   67.1889   -0.3020    1.3779 C   0  0  0  0  0  0  0  0  0  0  0  0
   68.5054   -0.1334    1.7062 N   0  0  0  0  0  0  0  0  0  0  0  0
   65.3848    2.4361   -1.2480 H   0  0  0  0  0  0  0  0  0  0  0  0
   67.2645    3.9940   -2.3930 H   0  0  0  0  0  0  0  0  0  0  0  0
   68.6514    3.0568   -4.3266 H   0  0  0  0  0  0  0  0  0  0  0  0
   69.9048    4.5695   -6.0413 H   0  0  0  0  0  0  0  0  0  0  0  0
   68.3259    5.2093   -5.5513 H   0  0  0  0  0  0  0  0  0  0  0  0
   70.1617    6.8727   -5.4218 H   0  0  0  0  0  0  0  0  0  0  0  0
   71.3364    7.1141   -3.4587 H   0  0  0  0  0  0  0  0  0  0  0  0
   71.3740    5.2450   -1.8094 H   0  0  0  0  0  0  0  0  0  0  0  0
   72.4132    3.0832   -3.1883 H   0  0  0  0  0  0  0  0  0  0  0  0
   74.2459    1.5313   -1.9539 H   0  0  0  0  0  0  0  0  0  0  0  0
   74.3513   -0.3810    2.9253 H   0  0  0  0  0  0  0  0  0  0  0  0
   72.4648   -0.9275    4.7721 H   0  0  0  0  0  0  0  0  0  0  0  0
   71.1497   -3.0698    4.5689 H   0  0  0  0  0  0  0  0  0  0  0  0
   71.4156   -3.0158    7.1904 H   0  0  0  0  0  0  0  0  0  0  0  0
   70.3565   -4.2957    6.5711 H   0  0  0  0  0  0  0  0  0  0  0  0
   69.3497   -2.9781    8.4141 H   0  0  0  0  0  0  0  0  0  0  0  0
   68.0924   -1.1148    7.9221 H   0  0  0  0  0  0  0  0  0  0  0  0
   68.4078    0.0401    5.7350 H   0  0  0  0  0  0  0  0  0  0  0  0
   67.3303   -2.0660    4.1509 H   0  0  0  0  0  0  0  0  0  0  0  0
   65.5043   -1.4623    2.2563 H   0  0  0  0  0  0  0  0  0  0  0  0
  2  3  4  0  0  0  0
  3  4  1  0  0  0  0
  4  5  2  0  0  0  0
  5  6  4  0  0  0  0
  1  7  1  0  0  0  0
  3  7  4  0  0  0  0
  6  7  4  0  0  0  0
  6  8  4  0  0  0  0
  8  9  1  0  0  0  0
  9 10  2  0  0  0  0
 10 11  1  0  0  0  0
 11 12  1  0  0  0  0
 12 13  1  0  0  0  0
  9 14  1  0  0  0  0
 13 14  2  0  0  0  0
  8 15  4  0  0  0  0
 15 16  4  0  0  0  0
 16 17  2  0  0  0  0
  1 18  1  0  0  0  0
 15 18  4  0  0  0  0
 17 19  4  0  0  0  0
 18 19  4  0  0  0  0
 19 20  4  0  0  0  0
 20 21  4  0  0  0  0
 21 22  4  0  0  0  0
 22 23  2  0  0  0  0
 23 24  4  0  0  0  0
  1 25  1  0  0  0  0
 21 25  4  0  0  0  0
 24 25  4  0  0  0  0
 24 26  4  0  0  0  0
 26 27  1  0  0  0  0
 27 28  2  0  0  0  0
 28 29  1  0  0  0  0
 29 30  1  0  0  0  0
 30 31  1  0  0  0  0
 27 32  1  0  0  0  0
 31 32  2  0  0  0  0
 26 33  4  0  0  0  0
 33 34  4  0  0  0  0
 34 35  2  0  0  0  0
  2 36  4  0  0  0  0
 35 36  1  0  0  0  0
  1 37  1  0  0  0  0
 33 37  4  0  0  0  0
 36 37  4  0  0  0  0
  2 38  1  0  0  0  0
  4 39  1  0  0  0  0
  5 40  1  0  0  0  0
 10 41  1  0  0  0  0
 11 42  1  0  0  0  0
 11 43  1  0  0  0  0
 12 44  1  0  0  0  0
 13 45  1  0  0  0  0
 14 46  1  0  0  0  0
 16 47  1  0  0  0  0
 17 48  1  0  0  0  0
 22 49  1  0  0  0  0
 23 50  1  0  0  0  0
 28 51  1  0  0  0  0
 29 52  1  0  0  0  0
 29 53  1  0  0  0  0
 30 54  1  0  0  0  0
 31 55  1  0  0  0  0
 32 56  1  0  0  0  0
 34 57  1  0  0  0  0
 35 58  1  0  0  0  0
 60 61  4  0  0  0  0
 61 62  1  0  0  0  0
 62 63  2  0  0  0  0
 63 64  4  0  0  0  0
 59 65  1  0  0  0  0
 61 65  4  0  0  0  0
 64 65  4  0  0  0  0
 64 66  4  0  0  0  0
 66 67  1  0  0  0  0
 67 68  2  0  0  0  0
 68 69  1  0  0  0  0
 69 70  1  0  0  0  0
 70 71  1  0  0  0  0
 67 72  1  0  0  0  0
 71 72  2  0  0  0  0
 66 73  4  0  0  0  0
 73 74  4  0  0  0  0
 74 75  2  0  0  0  0
 59 76  1  0  0  0  0
 73 76  4  0  0  0  0
 75 77  4  0  0  0  0
 76 77  4  0  0  0  0
 77 78  4  0  0  0  0
 78 79  4  0  0  0  0
 79 80  4  0  0  0  0
 80 81  2  0  0  0  0
 81 82  4  0  0  0  0
 59 83  1  0  0  0  0
 79 83  4  0  0  0  0
 82 83  4  0  0  0  0
 82 84  4  0  0  0  0
 84 85  1  0  0  0  0
 85 86  2  0  0  0  0
 86 87  1  0  0  0  0
 87 88  1  0  0  0  0
 88 89  1  0  0  0  0
 85 90  1  0  0  0  0
 89 90  2  0  0  0  0
 84 91  4  0  0  0  0
 91 92  4  0  0  0  0
 92 93  2  0  0  0  0
 60 94  4  0  0  0  0
 93 94  1  0  0  0  0
 59 95  1  0  0  0  0
 91 95  4  0  0  0  0
 94 95  4  0  0  0  0
 60 96  1  0  0  0  0
 62 97  1  0  0  0  0
 63 98  1  0  0  0  0
 68 99  1  0  0  0  0
 69100  1  0  0  0  0
 69101  1  0  0  0  0
 70102  1  0  0  0  0
 71103  1  0  0  0  0
 72104  1  0  0  0  0
 74105  1  0  0  0  0
 75106  1  0  0  0  0
 80107  1  0  0  0  0
 81108  1  0  0  0  0
 86109  1  0  0  0  0
 87110  1  0  0  0  0
 87111  1  0  0  0  0
 88112  1  0  0  0  0
 89113  1  0  0  0  0
 90114  1  0  0  0  0
 92115  1  0  0  0  0
 93116  1  0  0  0  0
117118  3  0  0  0  0
118119  4  0  0  0  0
 20120  4  0  0  0  0
119120  3  0  0  0  0
117121  4  0  0  0  0
121122  3  0  0  0  0
123124  3  0  0  0  0
124125  4  0  0  0  0
125126  3  0  0  0  0
123127  4  0  0  0  0
127128  3  0  0  0  0
129130  3  0  0  0  0
130131  4  0  0  0  0
131132  3  0  0  0  0
129133  4  0  0  0  0
 78134  4  0  0  0  0
133134  3  0  0  0  0
122136  4  0  0  0  0
136137  4  0  0  0  0
137138  4  0  0  0  0
138139  2  0  0  0  0
139140  4  0  0  0  0
135141  1  0  0  0  0
137141  4  0  0  0  0
140141  4  0  0  0  0
140142  4  0  0  0  0
142143  1  0  0  0  0
143144  2  0  0  0  0
144145  1  0  0  0  0
145146  1  0  0  0  0
146147  1  0  0  0  0
143148  1  0  0  0  0
147148  2  0  0  0  0
142149  4  0  0  0  0
149150  4  0  0  0  0
150151  2  0  0  0  0
135152  1  0  0  0  0
149152  4  0  0  0  0
151153  4  0  0  0  0
152153  4  0  0  0  0
126154  4  0  0  0  0
153154  4  0  0  0  0
154155  4  0  0  0  0
155156  4  0  0  0  0
156157  2  0  0  0  0
157158  4  0  0  0  0
135159  1  0  0  0  0
155159  4  0  0  0  0
158159  4  0  0  0  0
158160  4  0  0  0  0
160161  1  0  0  0  0
161162  2  0  0  0  0
162163  1  0  0  0  0
163164  1  0  0  0  0
164165  1  0  0  0  0
161166  1  0  0  0  0
165166  2  0  0  0  0
160167  4  0  0  0  0
167168  4  0  0  0  0
168169  2  0  0  0  0
136170  4  0  0  0  0
169170  4  0  0  0  0
135171  1  0  0  0  0
167171  4  0  0  0  0
170171  4  0  0  0  0
138172  1  0  0  0  0
139173  1  0  0  0  0
144174  1  0  0  0  0
145175  1  0  0  0  0
145176  1  0  0  0  0
146177  1  0  0  0  0
147178  1  0  0  0  0
148179  1  0  0  0  0
150180  1  0  0  0  0
151181  1  0  0  0  0
156182  1  0  0  0  0
157183  1  0  0  0  0
162184  1  0  0  0  0
163185  1  0  0  0  0
163186  1  0  0  0  0
164187  1  0  0  0  0
165188  1  0  0  0  0
166189  1  0  0  0  0
168190  1  0  0  0  0
169191  1  0  0  0  0
128193  4  0  0  0  0
193194  4  0  0  0  0
194195  4  0  0  0  0
195196  2  0  0  0  0
196197  4  0  0  0  0
192198  1  0  0  0  0
194198  4  0  0  0  0
197198  4  0  0  0  0
197199  4  0  0  0  0
199200  1  0  0  0  0
200201  2  0  0  0  0
201202  1  0  0  0  0
202203  1  0  0  0  0
203204  1  0  0  0  0
200205  1  0  0  0  0
204205  2  0  0  0  0
199206  4  0  0  0  0
206207  4  0  0  0  0
207208  2  0  0  0  0
192209  1  0  0  0  0
206209  4  0  0  0  0
208210  4  0  0  0  0
209210  4  0  0  0  0
132211  4  0  0  0  0
210211  4  0  0  0  0
211212  4  0  0  0  0
212213  4  0  0  0  0
213214  2  0  0  0  0
214215  4  0  0  0  0
192216  1  0  0  0  0
212216  4  0  0  0  0
215216  4  0  0  0  0
215217  4  0  0  0  0
217218  1  0  0  0  0
218219  2  0  0  0  0
219220  1  0  0  0  0
220221  1  0  0  0  0
221222  1  0  0  0  0
218223  1  0  0  0  0
222223  2  0  0  0  0
217224  4  0  0  0  0
224225  4  0  0  0  0
225226  2  0  0  0  0
193227  4  0  0  0  0
226227  4  0  0  0  0
192228  1  0  0  0  0
224228  4  0  0  0  0
227228  4  0  0  0  0
195229  1  0  0  0  0
196230  1  0  0  0  0
201231  1  0  0  0  0
202232  1  0  0  0  0
202233  1  0  0  0  0
203234  1  0  0  0  0
204235  1  0  0  0  0
205236  1  0  0  0  0
207237  1  0  0  0  0
208238  1  0  0  0  0
213239  1  0  0  0  0
214240  1  0  0  0  0
219241  1  0  0  0  0
220242  1  0  0  0  0
220243  1  0  0  0  0
221244  1  0  0  0  0
222245  1  0  0  0  0
223246  1  0  0  0  0
225247  1  0  0  0  0
226248  1  0  0  0  0
M  END
