 xtb: 6.5.1 (b24c23e)
          07302212473D

152171  0     0  0            999 V2000
   11.8924    0.0499    0.0138 Cu  0  0  0  0  0  0  0  0  0  0  0  0
    8.4952    0.2683   -0.1664 C   0  0  0  0  0  0  0  0  0  0  0  0
    9.1279    1.1063    0.7401 C   0  0  0  0  0  0  0  0  0  0  0  0
    8.4545    2.0300    1.6087 C   0  0  0  0  0  0  0  0  0  0  0  0
    9.4109    2.6485    2.3448 C   0  0  0  0  0  0  0  0  0  0  0  0
   10.6778    2.1134    1.9274 C   0  0  0  0  0  0  0  0  0  0  0  0
   10.4745    1.1791    0.9534 N   0  0  0  0  0  0  0  0  0  0  0  0
   11.9165    2.4819    2.4538 C   0  0  0  0  0  0  0  0  0  0  0  0
   13.1452    1.9513    2.0643 C   0  0  0  0  0  0  0  0  0  0  0  0
   14.4188    2.3685    2.5781 C   0  0  0  0  0  0  0  0  0  0  0  0
   15.3661    1.6412    1.9339 C   0  0  0  0  0  0  0  0  0  0  0  0
   13.3373    0.9792    1.1180 N   0  0  0  0  0  0  0  0  0  0  0  0
   14.6783    0.7756    1.0222 C   0  0  0  0  0  0  0  0  0  0  0  0
   15.3149   -0.1393    0.1644 C   0  0  0  0  0  0  0  0  0  0  0  0
   14.6577   -0.9949   -0.7379 C   0  0  0  0  0  0  0  0  0  0  0  0
   15.3221   -1.9472   -1.5778 C   0  0  0  0  0  0  0  0  0  0  0  0
   14.3596   -2.5803   -2.2947 C   0  0  0  0  0  0  0  0  0  0  0  0
   13.1004   -2.0144   -1.9015 C   0  0  0  0  0  0  0  0  0  0  0  0
   11.8603   -2.4016   -2.4064 C   0  0  0  0  0  0  0  0  0  0  0  0
   11.8489   -3.4611   -3.4559 C   0  0  0  0  0  0  0  0  0  0  0  0
   12.3178   -3.1830   -4.7465 C   0  0  0  0  0  0  0  0  0  0  0  0
   12.7538   -1.9130   -4.9583 O   0  0  0  0  0  0  0  0  0  0  0  0
   13.2648   -1.5327   -6.2198 C   0  0  0  0  0  0  0  0  0  0  0  0
   12.3105   -4.1737   -5.7280 C   0  0  0  0  0  0  0  0  0  0  0  0
   11.8391   -5.4392   -5.4128 C   0  0  0  0  0  0  0  0  0  0  0  0
   11.3718   -5.7379   -4.1419 C   0  0  0  0  0  0  0  0  0  0  0  0
   11.3744   -4.7457   -3.1618 C   0  0  0  0  0  0  0  0  0  0  0  0
   10.9438   -4.9420   -1.8871 O   0  0  0  0  0  0  0  0  0  0  0  0
   10.4650   -6.2081   -1.4814 C   0  0  0  0  0  0  0  0  0  0  0  0
   10.6306   -1.8722   -2.0130 C   0  0  0  0  0  0  0  0  0  0  0  0
    9.3568   -2.2465   -2.5632 C   0  0  0  0  0  0  0  0  0  0  0  0
    8.4160   -1.4962   -1.9377 C   0  0  0  0  0  0  0  0  0  0  0  0
    9.1071   -0.6542   -1.0024 C   0  0  0  0  0  0  0  0  0  0  0  0
   10.4478   -0.9038   -1.0687 N   0  0  0  0  0  0  0  0  0  0  0  0
   13.3156   -1.0538   -0.9485 N   0  0  0  0  0  0  0  0  0  0  0  0
   11.9284    3.5285    3.5160 C   0  0  0  0  0  0  0  0  0  0  0  0
   12.2316    3.1881    4.8407 C   0  0  0  0  0  0  0  0  0  0  0  0
   12.4919    1.8738    5.0709 O   0  0  0  0  0  0  0  0  0  0  0  0
   12.8317    1.4280    6.3681 C   0  0  0  0  0  0  0  0  0  0  0  0
   12.2435    4.1659    5.8350 C   0  0  0  0  0  0  0  0  0  0  0  0
   11.9576    5.4806    5.4989 C   0  0  0  0  0  0  0  0  0  0  0  0
   11.6577    5.8414    4.1940 C   0  0  0  0  0  0  0  0  0  0  0  0
   11.6406    4.8627    3.2008 C   0  0  0  0  0  0  0  0  0  0  0  0
   11.3657    5.1176    1.8938 O   0  0  0  0  0  0  0  0  0  0  0  0
   11.0762    6.4334    1.4673 C   0  0  0  0  0  0  0  0  0  0  0  0
    7.4138    0.3395   -0.2255 H   0  0  0  0  0  0  0  0  0  0  0  0
    7.3855    2.1722    1.6436 H   0  0  0  0  0  0  0  0  0  0  0  0
    9.2803    3.4011    3.1060 H   0  0  0  0  0  0  0  0  0  0  0  0
   14.5628    3.1258    3.3318 H   0  0  0  0  0  0  0  0  0  0  0  0
   16.4369    1.6806    2.0557 H   0  0  0  0  0  0  0  0  0  0  0  0
   16.3885   -2.1063   -1.6037 H   0  0  0  0  0  0  0  0  0  0  0  0
   14.4836   -3.3639   -3.0249 H   0  0  0  0  0  0  0  0  0  0  0  0
   12.5051   -1.6241   -7.0056 H   0  0  0  0  0  0  0  0  0  0  0  0
   13.5583   -0.4855   -6.1254 H   0  0  0  0  0  0  0  0  0  0  0  0
   14.1433   -2.1294   -6.4939 H   0  0  0  0  0  0  0  0  0  0  0  0
   12.6669   -3.9685   -6.7285 H   0  0  0  0  0  0  0  0  0  0  0  0
   11.8357   -6.2104   -6.1753 H   0  0  0  0  0  0  0  0  0  0  0  0
   11.0116   -6.7344   -3.9242 H   0  0  0  0  0  0  0  0  0  0  0  0
   10.1905   -6.1066   -0.4297 H   0  0  0  0  0  0  0  0  0  0  0  0
    9.5802   -6.5070   -2.0568 H   0  0  0  0  0  0  0  0  0  0  0  0
   11.2381   -6.9801   -1.5787 H   0  0  0  0  0  0  0  0  0  0  0  0
    9.2116   -2.9884   -3.3322 H   0  0  0  0  0  0  0  0  0  0  0  0
    7.3476   -1.4986   -2.0886 H   0  0  0  0  0  0  0  0  0  0  0  0
   13.0094    0.3542    6.2835 H   0  0  0  0  0  0  0  0  0  0  0  0
   12.0157    1.6028    7.0799 H   0  0  0  0  0  0  0  0  0  0  0  0
   13.7431    1.9160    6.7346 H   0  0  0  0  0  0  0  0  0  0  0  0
   12.4719    3.9130    6.8616 H   0  0  0  0  0  0  0  0  0  0  0  0
   11.9691    6.2414    6.2716 H   0  0  0  0  0  0  0  0  0  0  0  0
   11.4410    6.8753    3.9605 H   0  0  0  0  0  0  0  0  0  0  0  0
   11.9188    7.1108    1.6535 H   0  0  0  0  0  0  0  0  0  0  0  0
   10.8969    6.3719    0.3923 H   0  0  0  0  0  0  0  0  0  0  0  0
   10.1787    6.8276    1.9597 H   0  0  0  0  0  0  0  0  0  0  0  0
   30.4747   -0.0084   -0.0532 Cu  0  0  0  0  0  0  0  0  0  0  0  0
   33.8724    0.1984   -0.2390 C   0  0  0  0  0  0  0  0  0  0  0  0
   33.2403   -0.5775   -1.1997 C   0  0  0  0  0  0  0  0  0  0  0  0
   33.9143   -1.3038   -2.2387 C   0  0  0  0  0  0  0  0  0  0  0  0
   32.9582   -1.9430   -2.9575 C   0  0  0  0  0  0  0  0  0  0  0  0
   31.6912   -1.6078   -2.3679 C   0  0  0  0  0  0  0  0  0  0  0  0
   31.8937   -0.7780   -1.3032 N   0  0  0  0  0  0  0  0  0  0  0  0
   30.4529   -2.0776   -2.8074 C   0  0  0  0  0  0  0  0  0  0  0  0
   29.2240   -1.7691   -2.2266 C   0  0  0  0  0  0  0  0  0  0  0  0
   27.9511   -2.2212   -2.7119 C   0  0  0  0  0  0  0  0  0  0  0  0
   27.0031   -1.6875   -1.9009 C   0  0  0  0  0  0  0  0  0  0  0  0
   29.0309   -0.9699   -1.1307 N   0  0  0  0  0  0  0  0  0  0  0  0
   27.6897   -0.9060   -0.9155 C   0  0  0  0  0  0  0  0  0  0  0  0
   27.0520   -0.1861    0.1107 C   0  0  0  0  0  0  0  0  0  0  0  0
   27.7080    0.5881    1.0848 C   0  0  0  0  0  0  0  0  0  0  0  0
   27.0425    1.2869    2.1442 C   0  0  0  0  0  0  0  0  0  0  0  0
   28.0044    1.9073    2.8731 C   0  0  0  0  0  0  0  0  0  0  0  0
   29.2642    1.5964    2.2596 C   0  0  0  0  0  0  0  0  0  0  0  0
   30.5042    2.0396    2.7167 C   0  0  0  0  0  0  0  0  0  0  0  0
   30.5156    2.9279    3.9145 C   0  0  0  0  0  0  0  0  0  0  0  0
   30.0528    4.2469    3.8218 C   0  0  0  0  0  0  0  0  0  0  0  0
   29.6195    4.6386    2.5942 O   0  0  0  0  0  0  0  0  0  0  0  0
   29.1158    5.9440    2.3959 C   0  0  0  0  0  0  0  0  0  0  0  0
   30.0628    5.0780    4.9415 C   0  0  0  0  0  0  0  0  0  0  0  0
   30.5308    4.5847    6.1500 C   0  0  0  0  0  0  0  0  0  0  0  0
   30.9916    3.2819    6.2662 C   0  0  0  0  0  0  0  0  0  0  0  0
   30.9862    2.4523    5.1452 C   0  0  0  0  0  0  0  0  0  0  0  0
   31.4107    1.1607    5.1592 O   0  0  0  0  0  0  0  0  0  0  0  0
   31.8854    0.5772    6.3554 C   0  0  0  0  0  0  0  0  0  0  0  0
   31.7346    1.7230    2.1394 C   0  0  0  0  0  0  0  0  0  0  0  0
   33.0083    2.2120    2.5911 C   0  0  0  0  0  0  0  0  0  0  0  0
   33.9500    1.6982    1.7614 C   0  0  0  0  0  0  0  0  0  0  0  0
   33.2596    0.8940    0.7929 C   0  0  0  0  0  0  0  0  0  0  0  0
   31.9183    0.9262    1.0467 N   0  0  0  0  0  0  0  0  0  0  0  0
   29.0500    0.7881    1.1741 N   0  0  0  0  0  0  0  0  0  0  0  0
   30.4410   -2.9802   -3.9945 C   0  0  0  0  0  0  0  0  0  0  0  0
   30.1447   -4.3411   -3.8443 C   0  0  0  0  0  0  0  0  0  0  0  0
   29.8935   -4.7567   -2.5745 O   0  0  0  0  0  0  0  0  0  0  0  0
   29.5631   -6.1061   -2.3154 C   0  0  0  0  0  0  0  0  0  0  0  0
   30.1302   -5.1862   -4.9535 C   0  0  0  0  0  0  0  0  0  0  0  0
   30.4065   -4.6651   -6.2085 C   0  0  0  0  0  0  0  0  0  0  0  0
   30.6999   -3.3209   -6.3817 C   0  0  0  0  0  0  0  0  0  0  0  0
   30.7198   -2.4769   -5.2716 C   0  0  0  0  0  0  0  0  0  0  0  0
   30.9890   -1.1459   -5.3392 O   0  0  0  0  0  0  0  0  0  0  0  0
   31.2661   -0.5347   -6.5829 C   0  0  0  0  0  0  0  0  0  0  0  0
   34.9539    0.2661   -0.2994 H   0  0  0  0  0  0  0  0  0  0  0  0
   34.9833   -1.3176   -2.3840 H   0  0  0  0  0  0  0  0  0  0  0  0
   33.0891   -2.5874   -3.8121 H   0  0  0  0  0  0  0  0  0  0  0  0
   27.8081   -2.8609   -3.5678 H   0  0  0  0  0  0  0  0  0  0  0  0
   25.9325   -1.8043   -1.9571 H   0  0  0  0  0  0  0  0  0  0  0  0
   25.9759    1.2907    2.3037 H   0  0  0  0  0  0  0  0  0  0  0  0
   27.8795    2.5204    3.7511 H   0  0  0  0  0  0  0  0  0  0  0  0
   29.8797    6.7047    2.5979 H   0  0  0  0  0  0  0  0  0  0  0  0
   28.8230    6.0003    1.3458 H   0  0  0  0  0  0  0  0  0  0  0  0
   28.2381    6.1358    3.0250 H   0  0  0  0  0  0  0  0  0  0  0  0
   29.7114    6.0993    4.8798 H   0  0  0  0  0  0  0  0  0  0  0  0
   30.5367    5.2303    7.0214 H   0  0  0  0  0  0  0  0  0  0  0  0
   31.3493    2.9235    7.2222 H   0  0  0  0  0  0  0  0  0  0  0  0
   32.1548   -0.4509    6.1061 H   0  0  0  0  0  0  0  0  0  0  0  0
   32.7725    1.0999    6.7336 H   0  0  0  0  0  0  0  0  0  0  0  0
   31.1115    0.5681    7.1327 H   0  0  0  0  0  0  0  0  0  0  0  0
   33.1529    2.8671    3.4354 H   0  0  0  0  0  0  0  0  0  0  0  0
   35.0186    1.8452    1.7877 H   0  0  0  0  0  0  0  0  0  0  0  0
   29.3931   -6.1759   -1.2393 H   0  0  0  0  0  0  0  0  0  0  0  0
   30.3812   -6.7812   -2.5951 H   0  0  0  0  0  0  0  0  0  0  0  0
   28.6498   -6.4048   -2.8443 H   0  0  0  0  0  0  0  0  0  0  0  0
   29.9067   -6.2393   -4.8480 H   0  0  0  0  0  0  0  0  0  0  0  0
   30.3923   -5.3216   -7.0716 H   0  0  0  0  0  0  0  0  0  0  0  0
   30.9091   -2.9417   -7.3730 H   0  0  0  0  0  0  0  0  0  0  0  0
   30.4186   -0.6263   -7.2734 H   0  0  0  0  0  0  0  0  0  0  0  0
   31.4420    0.5214   -6.3700 H   0  0  0  0  0  0  0  0  0  0  0  0
   32.1621   -0.9615   -7.0502 H   0  0  0  0  0  0  0  0  0  0  0  0
   16.7181   -0.1990    0.2069 C   0  0  0  0  0  0  0  0  0  0  0  0
   17.9418   -0.2386    0.2309 C   0  0  0  0  0  0  0  0  0  0  0  0
   19.2840   -0.2735    0.2413 C   0  0  0  0  0  0  0  0  0  0  0  0
   20.5146   -0.2893    0.2481 C   0  0  0  0  0  0  0  0  0  0  0  0
   21.8525   -0.2987    0.2372 C   0  0  0  0  0  0  0  0  0  0  0  0
   23.0829   -0.2881    0.2251 C   0  0  0  0  0  0  0  0  0  0  0  0
   24.4252   -0.2673    0.1988 C   0  0  0  0  0  0  0  0  0  0  0  0
   25.6489   -0.2389    0.1619 C   0  0  0  0  0  0  0  0  0  0  0  0
  2  3  4  0  0  0  0
  3  4  1  0  0  0  0
  4  5  2  0  0  0  0
  5  6  4  0  0  0  0
  1  7  1  0  0  0  0
  3  7  4  0  0  0  0
  6  7  4  0  0  0  0
  6  8  4  0  0  0  0
  8  9  4  0  0  0  0
  9 10  4  0  0  0  0
 10 11  2  0  0  0  0
  1 12  1  0  0  0  0
  9 12  4  0  0  0  0
 11 13  4  0  0  0  0
 12 13  4  0  0  0  0
 13 14  4  0  0  0  0
 14 15  4  0  0  0  0
 15 16  4  0  0  0  0
 16 17  2  0  0  0  0
 17 18  4  0  0  0  0
 18 19  4  0  0  0  0
 19 20  1  0  0  0  0
 20 21  4  0  0  0  0
 21 22  1  0  0  0  0
 22 23  1  0  0  0  0
 21 24  4  0  0  0  0
 24 25  4  0  0  0  0
 25 26  4  0  0  0  0
 20 27  4  0  0  0  0
 26 27  4  0  0  0  0
 27 28  1  0  0  0  0
 28 29  1  0  0  0  0
 19 30  4  0  0  0  0
 30 31  4  0  0  0  0
 31 32  2  0  0  0  0
  2 33  4  0  0  0  0
 32 33  1  0  0  0  0
  1 34  1  0  0  0  0
 30 34  4  0  0  0  0
 33 34  4  0  0  0  0
  1 35  1  0  0  0  0
 15 35  4  0  0  0  0
 18 35  4  0  0  0  0
  8 36  1  0  0  0  0
 36 37  4  0  0  0  0
 37 38  1  0  0  0  0
 38 39  1  0  0  0  0
 37 40  4  0  0  0  0
 40 41  4  0  0  0  0
 41 42  4  0  0  0  0
 36 43  4  0  0  0  0
 42 43  4  0  0  0  0
 43 44  1  0  0  0  0
 44 45  1  0  0  0  0
  2 46  1  0  0  0  0
  4 47  1  0  0  0  0
  5 48  1  0  0  0  0
 10 49  1  0  0  0  0
 11 50  1  0  0  0  0
 16 51  1  0  0  0  0
 17 52  1  0  0  0  0
 23 53  1  0  0  0  0
 23 54  1  0  0  0  0
 23 55  1  0  0  0  0
 24 56  1  0  0  0  0
 25 57  1  0  0  0  0
 26 58  1  0  0  0  0
 29 59  1  0  0  0  0
 29 60  1  0  0  0  0
 29 61  1  0  0  0  0
 31 62  1  0  0  0  0
 32 63  1  0  0  0  0
 39 64  1  0  0  0  0
 39 65  1  0  0  0  0
 39 66  1  0  0  0  0
 40 67  1  0  0  0  0
 41 68  1  0  0  0  0
 42 69  1  0  0  0  0
 45 70  1  0  0  0  0
 45 71  1  0  0  0  0
 45 72  1  0  0  0  0
 74 75  4  0  0  0  0
 75 76  1  0  0  0  0
 76 77  2  0  0  0  0
 77 78  4  0  0  0  0
 73 79  1  0  0  0  0
 75 79  4  0  0  0  0
 78 79  4  0  0  0  0
 78 80  4  0  0  0  0
 80 81  4  0  0  0  0
 81 82  4  0  0  0  0
 82 83  2  0  0  0  0
 73 84  1  0  0  0  0
 81 84  4  0  0  0  0
 83 85  4  0  0  0  0
 84 85  4  0  0  0  0
 85 86  4  0  0  0  0
 86 87  4  0  0  0  0
 87 88  4  0  0  0  0
 88 89  2  0  0  0  0
 89 90  4  0  0  0  0
 90 91  4  0  0  0  0
 91 92  1  0  0  0  0
 92 93  4  0  0  0  0
 93 94  1  0  0  0  0
 94 95  1  0  0  0  0
 93 96  4  0  0  0  0
 96 97  4  0  0  0  0
 97 98  4  0  0  0  0
 92 99  4  0  0  0  0
 98 99  4  0  0  0  0
 99100  1  0  0  0  0
100101  1  0  0  0  0
 91102  4  0  0  0  0
102103  4  0  0  0  0
103104  2  0  0  0  0
 74105  4  0  0  0  0
104105  1  0  0  0  0
 73106  1  0  0  0  0
102106  4  0  0  0  0
105106  4  0  0  0  0
 73107  1  0  0  0  0
 87107  4  0  0  0  0
 90107  4  0  0  0  0
 80108  1  0  0  0  0
108109  4  0  0  0  0
109110  1  0  0  0  0
110111  1  0  0  0  0
109112  4  0  0  0  0
112113  4  0  0  0  0
113114  4  0  0  0  0
108115  4  0  0  0  0
114115  4  0  0  0  0
115116  1  0  0  0  0
116117  1  0  0  0  0
 74118  1  0  0  0  0
 76119  1  0  0  0  0
 77120  1  0  0  0  0
 82121  1  0  0  0  0
 83122  1  0  0  0  0
 88123  1  0  0  0  0
 89124  1  0  0  0  0
 95125  1  0  0  0  0
 95126  1  0  0  0  0
 95127  1  0  0  0  0
 96128  1  0  0  0  0
 97129  1  0  0  0  0
 98130  1  0  0  0  0
101131  1  0  0  0  0
101132  1  0  0  0  0
101133  1  0  0  0  0
103134  1  0  0  0  0
104135  1  0  0  0  0
111136  1  0  0  0  0
111137  1  0  0  0  0
111138  1  0  0  0  0
112139  1  0  0  0  0
113140  1  0  0  0  0
114141  1  0  0  0  0
117142  1  0  0  0  0
117143  1  0  0  0  0
117144  1  0  0  0  0
 14145  4  0  0  0  0
145146  3  0  0  0  0
146147  4  0  0  0  0
147148  3  0  0  0  0
148149  4  0  0  0  0
149150  3  0  0  0  0
150151  4  0  0  0  0
 86152  4  0  0  0  0
151152  3  0  0  0  0
M  END
