152

Zn 12.141308 -0.020832 -0.022922
C 8.797257 0.108785 0.069450
C 9.465131 0.893274 0.919933
C 8.820242 1.772598 1.888196
C 9.766136 2.423048 2.539675
C 11.068062 1.991866 2.014059
N 10.884804 1.016451 0.988057
C 12.261656 2.470175 2.416738
C 13.555184 2.017369 1.844695
C 14.846749 2.634670 2.167064
C 15.781121 1.979272 1.509340
N 13.692863 1.020618 1.024724
C 15.093623 0.932133 0.762926
C 15.686758 -0.000800 -0.000560
C 14.926355 -1.048672 -0.720866
C 15.472990 -2.142669 -1.236812
C 14.424486 -2.864794 -1.929126
C 13.304987 -2.163917 -1.792911
C 12.010288 -2.529860 -2.422964
C 12.014152 -3.539045 -3.512247
C 12.541796 -3.200339 -4.774393
O 13.039825 -1.901597 -4.973807
C 13.603024 -1.430303 -6.193122
C 12.553043 -4.165304 -5.798229
C 12.048447 -5.444725 -5.566450
C 11.531435 -5.781942 -4.315670
C 11.513413 -4.835489 -3.274685
O 11.014033 -5.146139 -1.998358
C 10.466606 -6.407636 -1.630140
C 10.847273 -1.969697 -2.041779
C 9.530615 -2.251550 -2.610181
C 8.670065 -1.532724 -1.915899
C 9.428672 -0.785887 -0.913604
N 10.699215 -1.033269 -0.977157
N 13.531431 -0.981905 -1.021724
C 12.305727 3.509493 3.471328
C 12.436147 3.129705 4.821345
O 12.521380 1.762740 5.134662
C 12.642986 1.242747 6.454779
C 12.475865 4.124979 5.815197
C 12.389165 5.473098 5.465935
C 12.264208 5.848142 4.127694
C 12.222933 4.870325 3.116692
O 12.102407 5.209864 1.758550
C 12.023499 6.542642 1.263314
H 7.713864 0.131585 0.091908
H 7.756438 1.887178 2.053244
H 9.585799 3.152256 3.319049
H 15.023335 3.476100 2.824254
H 16.840393 2.195207 1.545485
H 16.511360 -2.439583 -1.175863
H 14.543438 -3.791165 -2.475974
H 12.847850 -1.478096 -7.005879
H 13.917791 -0.374589 -6.062216
H 14.494629 -2.035604 -6.460858
H 12.948928 -3.936271 -6.778151
H 12.060961 -6.180580 -6.360265
H 11.152206 -6.783579 -4.167338
H 10.148132 -6.368086 -0.568560
H 9.579885 -6.636501 -2.258279
H 11.232227 -7.204450 -1.742516
H 9.283808 -2.914892 -3.429015
H 7.599456 -1.509177 -2.071455
H 12.690473 0.135924 6.404672
H 11.759624 1.533652 7.061764
H 13.575257 1.618105 6.928207
H 12.572088 3.867676 6.861270
H 12.419944 6.232199 6.237125
H 12.201191 6.901323 3.890305
H 12.941491 7.106235 1.535420
H 11.939815 6.513352 0.157834
H 11.125042 7.049278 1.674792
Zn 30.221831 0.018490 0.022446
C 33.565882 -0.054533 -0.118978
C 32.898008 -0.784954 -1.016324
C 33.542897 -1.618491 -2.024274
C 32.597003 -2.170967 -2.760670
C 31.295077 -1.711930 -2.259197
N 31.478335 -0.834891 -1.147929
C 30.101483 -2.042581 -2.789856
C 28.807955 -1.540661 -2.260383
C 27.516390 -1.772073 -2.917216
C 26.582018 -1.214118 -2.175034
N 28.670276 -0.870593 -1.157262
C 27.269516 -0.624020 -1.032485
C 26.676381 -0.000800 -0.000560
C 27.436784 0.563351 1.139006
C 26.890149 0.918662 2.295200
C 27.938652 1.501377 3.108346
C 29.058152 1.466104 2.395226
C 30.352851 2.037785 2.846958
C 30.348987 2.972667 4.000642
C 29.821343 4.270127 3.844660
O 29.323314 4.652006 2.587415
C 28.760115 5.925904 2.294104
C 29.810096 5.146507 4.945276
C 30.314692 4.735336 6.178799
C 30.831704 3.449337 6.334922
C 30.849726 2.553354 5.250194
O 31.349106 1.245841 5.376391
C 31.896533 0.702160 6.572790
C 31.515866 1.740037 2.238328
C 32.832524 2.262638 2.598065
C 33.693074 1.677506 1.787904
C 32.934467 0.791463 0.906265
N 31.663924 0.819232 1.160165
N 28.831708 0.870643 1.115654
C 30.057412 -2.938842 -3.968440
C 29.926992 -4.329117 -3.784274
O 29.841759 -4.833435 -2.475678
C 29.720153 -6.214031 -2.148481
C 29.887274 -5.171512 -4.910632
C 29.973974 -4.634290 -6.195468
C 30.098931 -3.256345 -6.376610
C 30.140206 -2.394495 -5.265096
O 30.260732 -1.001893 -5.408267
C 30.339640 -0.322358 -6.657182
H 34.649275 -0.073524 -0.144738
H 34.606701 -1.765588 -2.161137
H 32.777340 -2.838852 -3.593194
H 27.339804 -2.303072 -3.843468
H 25.522746 -1.219223 -2.393914
H 25.851779 0.816155 2.580445
H 27.819701 1.911089 4.103003
H 29.515289 6.723630 2.456865
H 28.445348 5.946291 1.230501
H 27.868510 6.104942 2.931299
H 29.414211 6.149027 4.857764
H 30.302178 5.416573 7.019954
H 31.210933 3.160227 7.305331
H 32.215007 -0.343036 6.382843
H 32.783254 1.291419 6.888561
H 31.130912 0.700209 7.377487
H 33.079331 2.978940 3.370996
H 34.763683 1.834829 1.786693
H 29.672666 -6.321657 -1.045764
H 30.603515 -6.773537 -2.522659
H 28.787882 -6.629339 -2.587284
H 29.791051 -6.243527 -4.804534
H 29.943195 -5.289829 -7.056419
H 30.161948 -2.871758 -7.385390
H 29.421648 -0.511646 -7.253712
H 30.423324 0.767752 -6.471155
H 31.238097 -0.657695 -7.217130
C 16.682971 0.014401 0.010074
C 18.141197 -0.007435 -0.007800
C 19.275125 -0.028189 -0.009291
C 20.636507 -0.040779 -0.011482
C 21.910726 -0.030472 -0.016247
C 23.099188 -0.011674 -0.022403
C 24.451549 0.013110 -0.006535
C 25.551817 0.014401 0.010074
