 xtb: 6.5.1 (b24c23e)
          07302200423D

128147  0     0  0            999 V2000
   12.8559    0.0361    0.0258 Co  0  0  0  0  0  0  0  0  0  0  0  0
    9.4846    0.1195    0.0746 C   0  0  0  0  0  0  0  0  0  0  0  0
   10.1521    1.0714   -0.6659 C   0  0  0  0  0  0  0  0  0  0  0  0
    9.5030    2.0855   -1.4387 C   0  0  0  0  0  0  0  0  0  0  0  0
   10.4703    2.9417   -1.8458 C   0  0  0  0  0  0  0  0  0  0  0  0
   11.7076    2.4557   -1.3095 C   0  0  0  0  0  0  0  0  0  0  0  0
   11.5107    1.2695   -0.6503 N   0  0  0  0  0  0  0  0  0  0  0  0
   12.9085    3.1546   -1.3553 C   0  0  0  0  0  0  0  0  0  0  0  0
   12.9295    4.5153   -1.9329 C   0  0  0  0  0  0  0  0  0  0  0  0
   13.7764    4.8243   -3.0008 C   0  0  0  0  0  0  0  0  0  0  0  0
   13.7951    6.0948   -3.5472 C   0  0  0  0  0  0  0  0  0  0  0  0
   12.9653    7.0932   -3.0296 C   0  0  0  0  0  0  0  0  0  0  0  0
   13.0173    8.3776   -3.5400 N   0  0  0  0  0  0  0  0  0  0  0  0
   12.1255    6.7963   -1.9527 C   0  0  0  0  0  0  0  0  0  0  0  0
   12.1045    5.5200   -1.4200 C   0  0  0  0  0  0  0  0  0  0  0  0
   14.0869    2.6064   -0.8684 C   0  0  0  0  0  0  0  0  0  0  0  0
   15.3411    3.2957   -0.8314 C   0  0  0  0  0  0  0  0  0  0  0  0
   16.2797    2.3823   -0.4821 C   0  0  0  0  0  0  0  0  0  0  0  0
   14.2488    1.2982   -0.4723 N   0  0  0  0  0  0  0  0  0  0  0  0
   15.5945    1.1439   -0.2929 C   0  0  0  0  0  0  0  0  0  0  0  0
   16.2442   -0.0776   -0.0915 C   0  0  0  0  0  0  0  0  0  0  0  0
   15.5349   -1.2568    0.1520 C   0  0  0  0  0  0  0  0  0  0  0  0
   16.1558   -2.5317    0.3211 C   0  0  0  0  0  0  0  0  0  0  0  0
   15.1848   -3.3850    0.7287 C   0  0  0  0  0  0  0  0  0  0  0  0
   13.9759   -2.6233    0.8198 C   0  0  0  0  0  0  0  0  0  0  0  0
   14.1918   -1.3319    0.3943 N   0  0  0  0  0  0  0  0  0  0  0  0
   12.7932   -3.0988    1.3686 C   0  0  0  0  0  0  0  0  0  0  0  0
   12.7621   -4.4552    1.9564 C   0  0  0  0  0  0  0  0  0  0  0  0
   13.6339   -4.8060    2.9908 C   0  0  0  0  0  0  0  0  0  0  0  0
   13.6014   -6.0720    3.5472 C   0  0  0  0  0  0  0  0  0  0  0  0
   12.7025   -7.0275    3.0652 C   0  0  0  0  0  0  0  0  0  0  0  0
   12.6410   -8.2821    3.6443 N   0  0  0  0  0  0  0  0  0  0  0  0
   11.8256   -6.6840    2.0327 C   0  0  0  0  0  0  0  0  0  0  0  0
   11.8563   -5.4120    1.4903 C   0  0  0  0  0  0  0  0  0  0  0  0
   11.6336   -2.3319    1.3753 C   0  0  0  0  0  0  0  0  0  0  0  0
   10.3977   -2.7425    1.9742 C   0  0  0  0  0  0  0  0  0  0  0  0
    9.4614   -1.8373    1.6017 C   0  0  0  0  0  0  0  0  0  0  0  0
   10.1295   -0.8673    0.7897 C   0  0  0  0  0  0  0  0  0  0  0  0
   11.4711   -1.1458    0.7073 N   0  0  0  0  0  0  0  0  0  0  0  0
    8.4016    0.1501    0.0984 H   0  0  0  0  0  0  0  0  0  0  0  0
    8.4418    2.1250   -1.6272 H   0  0  0  0  0  0  0  0  0  0  0  0
   10.3679    3.8260   -2.4539 H   0  0  0  0  0  0  0  0  0  0  0  0
   14.4098    4.0503   -3.4204 H   0  0  0  0  0  0  0  0  0  0  0  0
   14.4505    6.3198   -4.3814 H   0  0  0  0  0  0  0  0  0  0  0  0
   13.3710    8.4509   -4.4804 H   0  0  0  0  0  0  0  0  0  0  0  0
   12.2016    8.9419   -3.3643 H   0  0  0  0  0  0  0  0  0  0  0  0
   11.4903    7.5708   -1.5370 H   0  0  0  0  0  0  0  0  0  0  0  0
   11.4577    5.3008   -0.5774 H   0  0  0  0  0  0  0  0  0  0  0  0
   15.4757    4.3437   -1.0444 H   0  0  0  0  0  0  0  0  0  0  0  0
   17.3426    2.5185   -0.3635 H   0  0  0  0  0  0  0  0  0  0  0  0
   17.2021   -2.7299    0.1526 H   0  0  0  0  0  0  0  0  0  0  0  0
   15.2695   -4.4364    0.9509 H   0  0  0  0  0  0  0  0  0  0  0  0
   14.3276   -4.0675    3.3773 H   0  0  0  0  0  0  0  0  0  0  0  0
   14.2735   -6.3280    4.3590 H   0  0  0  0  0  0  0  0  0  0  0  0
   13.4762   -8.5720    4.1273 H   0  0  0  0  0  0  0  0  0  0  0  0
   12.2320   -9.0000    3.0679 H   0  0  0  0  0  0  0  0  0  0  0  0
   11.1239   -7.4203    1.6561 H   0  0  0  0  0  0  0  0  0  0  0  0
   11.1851   -5.1593    0.6768 H   0  0  0  0  0  0  0  0  0  0  0  0
   10.2751   -3.6135    2.5974 H   0  0  0  0  0  0  0  0  0  0  0  0
    8.4101   -1.8144    1.8411 H   0  0  0  0  0  0  0  0  0  0  0  0
   31.3656    0.0023    0.0482 Co  0  0  0  0  0  0  0  0  0  0  0  0
   34.7362    0.0003    0.1457 C   0  0  0  0  0  0  0  0  0  0  0  0
   34.0698   -1.1453    0.5253 C   0  0  0  0  0  0  0  0  0  0  0  0
   34.7195   -2.3510    0.9387 C   0  0  0  0  0  0  0  0  0  0  0  0
   33.7529   -3.1653    1.4257 C   0  0  0  0  0  0  0  0  0  0  0  0
   32.5154   -2.4494    1.3211 C   0  0  0  0  0  0  0  0  0  0  0  0
   32.7114   -1.2430    0.6993 N   0  0  0  0  0  0  0  0  0  0  0  0
   31.3156   -2.8735    1.8811 C   0  0  0  0  0  0  0  0  0  0  0  0
   31.2956   -4.1074    2.6949 C   0  0  0  0  0  0  0  0  0  0  0  0
   30.4437   -5.1655    2.3659 C   0  0  0  0  0  0  0  0  0  0  0  0
   30.4257   -6.3236    3.1219 C   0  0  0  0  0  0  0  0  0  0  0  0
   31.2610   -6.4475    4.2355 C   0  0  0  0  0  0  0  0  0  0  0  0
   31.2097   -7.5831    5.0232 N   0  0  0  0  0  0  0  0  0  0  0  0
   32.1058   -5.3886    4.5796 C   0  0  0  0  0  0  0  0  0  0  0  0
   32.1261   -4.2387    3.8112 C   0  0  0  0  0  0  0  0  0  0  0  0
   30.1374   -2.1633    1.6971 C   0  0  0  0  0  0  0  0  0  0  0  0
   28.8844   -2.5109    2.2959 C   0  0  0  0  0  0  0  0  0  0  0  0
   27.9450   -1.7151    1.7286 C   0  0  0  0  0  0  0  0  0  0  0  0
   29.9742   -1.1114    0.8246 N   0  0  0  0  0  0  0  0  0  0  0  0
   28.6286   -0.8756    0.7976 C   0  0  0  0  0  0  0  0  0  0  0  0
   27.9782   -0.0356   -0.1115 C   0  0  0  0  0  0  0  0  0  0  0  0
   28.6871    0.8163   -0.9628 C   0  0  0  0  0  0  0  0  0  0  0  0
   28.0661    1.6579   -1.9352 C   0  0  0  0  0  0  0  0  0  0  0  0
   29.0364    2.4692   -2.4225 C   0  0  0  0  0  0  0  0  0  0  0  0
   30.2450    2.1284   -1.7346 C   0  0  0  0  0  0  0  0  0  0  0  0
   30.0298    1.0616   -0.8912 N   0  0  0  0  0  0  0  0  0  0  0  0
   31.4263    2.8513   -1.8259 C   0  0  0  0  0  0  0  0  0  0  0  0
   31.4568    4.0897   -2.6327 C   0  0  0  0  0  0  0  0  0  0  0  0
   30.5791    5.1426   -2.3601 C   0  0  0  0  0  0  0  0  0  0  0  0
   30.6116    6.3052   -3.1087 C   0  0  0  0  0  0  0  0  0  0  0  0
   31.5166    6.4342   -4.1657 C   0  0  0  0  0  0  0  0  0  0  0  0
   31.5783    7.6098   -4.8920 N   0  0  0  0  0  0  0  0  0  0  0  0
   32.3993    5.3869   -4.4438 C   0  0  0  0  0  0  0  0  0  0  0  0
   32.3684    4.2326   -3.6825 C   0  0  0  0  0  0  0  0  0  0  0  0
   32.5852    2.4365   -1.1791 C   0  0  0  0  0  0  0  0  0  0  0  0
   33.8193    3.1656   -1.1860 C   0  0  0  0  0  0  0  0  0  0  0  0
   34.7560    2.3568   -0.6354 C   0  0  0  0  0  0  0  0  0  0  0  0
   34.0900    1.1418   -0.2791 C   0  0  0  0  0  0  0  0  0  0  0  0
   32.7490    1.2243   -0.5603 N   0  0  0  0  0  0  0  0  0  0  0  0
   35.8192    0.0046    0.1855 H   0  0  0  0  0  0  0  0  0  0  0  0
   35.7807   -2.5296    0.8656 H   0  0  0  0  0  0  0  0  0  0  0  0
   33.8559   -4.1621    1.8230 H   0  0  0  0  0  0  0  0  0  0  0  0
   29.8061   -5.0850    1.4924 H   0  0  0  0  0  0  0  0  0  0  0  0
   29.7663   -7.1410    2.8512 H   0  0  0  0  0  0  0  0  0  0  0  0
   30.8505   -8.4058    4.5661 H   0  0  0  0  0  0  0  0  0  0  0  0
   32.0278   -7.7515    5.5864 H   0  0  0  0  0  0  0  0  0  0  0  0
   32.7453   -5.4729    5.4515 H   0  0  0  0  0  0  0  0  0  0  0  0
   32.7767   -3.4176    4.0918 H   0  0  0  0  0  0  0  0  0  0  0  0
   28.7510   -3.2659    3.0534 H   0  0  0  0  0  0  0  0  0  0  0  0
   26.8826   -1.6902    1.9104 H   0  0  0  0  0  0  0  0  0  0  0  0
   27.0202    1.6245   -2.1948 H   0  0  0  0  0  0  0  0  0  0  0  0
   28.9514    3.2329   -3.1784 H   0  0  0  0  0  0  0  0  0  0  0  0
   29.8808    5.0549   -1.5350 H   0  0  0  0  0  0  0  0  0  0  0  0
   29.9347    7.1208   -2.8784 H   0  0  0  0  0  0  0  0  0  0  0  0
   30.7404    8.1688   -4.8731 H   0  0  0  0  0  0  0  0  0  0  0  0
   31.9931    7.5263   -5.8063 H   0  0  0  0  0  0  0  0  0  0  0  0
   33.1056    5.4820   -5.2612 H   0  0  0  0  0  0  0  0  0  0  0  0
   33.0440    3.4172   -3.9167 H   0  0  0  0  0  0  0  0  0  0  0  0
   33.9406    4.1670   -1.5662 H   0  0  0  0  0  0  0  0  0  0  0  0
   35.8064    2.5462   -0.4806 H   0  0  0  0  0  0  0  0  0  0  0  0
   17.6452   -0.1138   -0.1304 C   0  0  0  0  0  0  0  0  0  0  0  0
   18.8700   -0.1271   -0.1612 C   0  0  0  0  0  0  0  0  0  0  0  0
   20.2115   -0.1327   -0.1863 C   0  0  0  0  0  0  0  0  0  0  0  0
   21.4428   -0.1230   -0.2055 C   0  0  0  0  0  0  0  0  0  0  0  0
   22.7797   -0.1070   -0.2137 C   0  0  0  0  0  0  0  0  0  0  0  0
   24.0110   -0.0858   -0.2099 C   0  0  0  0  0  0  0  0  0  0  0  0
   25.3524   -0.0676   -0.1905 C   0  0  0  0  0  0  0  0  0  0  0  0
   26.5772   -0.0478   -0.1626 C   0  0  0  0  0  0  0  0  0  0  0  0
  2  3  4  0  0  0  0
  3  4  4  0  0  0  0
  4  5  2  0  0  0  0
  5  6  4  0  0  0  0
  1  7  1  0  0  0  0
  3  7  4  0  0  0  0
  6  7  4  0  0  0  0
  6  8  4  0  0  0  0
  8  9  1  0  0  0  0
  9 10  4  0  0  0  0
 10 11  4  0  0  0  0
 11 12  4  0  0  0  0
 12 13  1  0  0  0  0
 12 14  4  0  0  0  0
  9 15  4  0  0  0  0
 14 15  4  0  0  0  0
  8 16  4  0  0  0  0
 16 17  4  0  0  0  0
 17 18  2  0  0  0  0
  1 19  1  0  0  0  0
 16 19  4  0  0  0  0
 18 20  4  0  0  0  0
 19 20  4  0  0  0  0
 20 21  4  0  0  0  0
 21 22  4  0  0  0  0
 22 23  4  0  0  0  0
 23 24  2  0  0  0  0
 24 25  4  0  0  0  0
  1 26  1  0  0  0  0
 22 26  4  0  0  0  0
 25 26  4  0  0  0  0
 25 27  4  0  0  0  0
 27 28  1  0  0  0  0
 28 29  4  0  0  0  0
 29 30  4  0  0  0  0
 30 31  4  0  0  0  0
 31 32  1  0  0  0  0
 31 33  4  0  0  0  0
 28 34  4  0  0  0  0
 33 34  4  0  0  0  0
 27 35  4  0  0  0  0
 35 36  4  0  0  0  0
 36 37  2  0  0  0  0
  2 38  4  0  0  0  0
 37 38  4  0  0  0  0
  1 39  1  0  0  0  0
 35 39  4  0  0  0  0
 38 39  4  0  0  0  0
  2 40  1  0  0  0  0
  4 41  1  0  0  0  0
  5 42  1  0  0  0  0
 10 43  1  0  0  0  0
 11 44  1  0  0  0  0
 13 45  1  0  0  0  0
 13 46  1  0  0  0  0
 14 47  1  0  0  0  0
 15 48  1  0  0  0  0
 17 49  1  0  0  0  0
 18 50  1  0  0  0  0
 23 51  1  0  0  0  0
 24 52  1  0  0  0  0
 29 53  1  0  0  0  0
 30 54  1  0  0  0  0
 32 55  1  0  0  0  0
 32 56  1  0  0  0  0
 33 57  1  0  0  0  0
 34 58  1  0  0  0  0
 36 59  1  0  0  0  0
 37 60  1  0  0  0  0
 62 63  4  0  0  0  0
 63 64  4  0  0  0  0
 64 65  2  0  0  0  0
 65 66  4  0  0  0  0
 61 67  1  0  0  0  0
 63 67  4  0  0  0  0
 66 67  4  0  0  0  0
 66 68  4  0  0  0  0
 68 69  1  0  0  0  0
 69 70  4  0  0  0  0
 70 71  4  0  0  0  0
 71 72  4  0  0  0  0
 72 73  1  0  0  0  0
 72 74  4  0  0  0  0
 69 75  4  0  0  0  0
 74 75  4  0  0  0  0
 68 76  4  0  0  0  0
 76 77  4  0  0  0  0
 77 78  2  0  0  0  0
 61 79  1  0  0  0  0
 76 79  4  0  0  0  0
 78 80  4  0  0  0  0
 79 80  4  0  0  0  0
 80 81  4  0  0  0  0
 81 82  4  0  0  0  0
 82 83  4  0  0  0  0
 83 84  2  0  0  0  0
 84 85  4  0  0  0  0
 61 86  1  0  0  0  0
 82 86  4  0  0  0  0
 85 86  4  0  0  0  0
 85 87  4  0  0  0  0
 87 88  1  0  0  0  0
 88 89  4  0  0  0  0
 89 90  4  0  0  0  0
 90 91  4  0  0  0  0
 91 92  1  0  0  0  0
 91 93  4  0  0  0  0
 88 94  4  0  0  0  0
 93 94  4  0  0  0  0
 87 95  4  0  0  0  0
 95 96  4  0  0  0  0
 96 97  2  0  0  0  0
 62 98  4  0  0  0  0
 97 98  4  0  0  0  0
 61 99  1  0  0  0  0
 95 99  4  0  0  0  0
 98 99  4  0  0  0  0
 62100  1  0  0  0  0
 64101  1  0  0  0  0
 65102  1  0  0  0  0
 70103  1  0  0  0  0
 71104  1  0  0  0  0
 73105  1  0  0  0  0
 73106  1  0  0  0  0
 74107  1  0  0  0  0
 75108  1  0  0  0  0
 77109  1  0  0  0  0
 78110  1  0  0  0  0
 83111  1  0  0  0  0
 84112  1  0  0  0  0
 89113  1  0  0  0  0
 90114  1  0  0  0  0
 92115  1  0  0  0  0
 92116  1  0  0  0  0
 93117  1  0  0  0  0
 94118  1  0  0  0  0
 96119  1  0  0  0  0
 97120  1  0  0  0  0
 21121  4  0  0  0  0
121122  3  0  0  0  0
122123  4  0  0  0  0
123124  3  0  0  0  0
124125  4  0  0  0  0
125126  3  0  0  0  0
126127  4  0  0  0  0
 81128  4  0  0  0  0
127128  3  0  0  0  0
M  END
