128

C 10.948427 -0.018218 -0.144000
C 11.680742 -1.383313 0.033828
C 11.080660 -2.621432 0.057598
C 12.104048 -3.574281 0.300045
C 13.293711 -2.883193 0.424778
N 13.030704 -1.554327 0.205574
C 14.710845 -3.494615 0.782334
C 14.743646 -4.881421 1.298170
C 15.045035 -5.945871 0.437519
C 15.069995 -7.256016 0.918356
C 14.788646 -7.495459 2.270571
N 14.812338 -8.870259 2.781947
O 15.081788 -9.783815 1.986320
O 14.559616 -9.050374 3.983499
C 14.484260 -6.439309 3.140420
C 14.462778 -5.133454 2.647646
C 15.841707 -2.748611 0.664707
C 17.141146 -3.260881 1.049769
C 18.044034 -2.308304 0.848417
N 16.041561 -1.467121 0.225731
C 17.370264 -1.142005 0.313217
C 18.038655 -0.000193 0.000053
C 17.263025 1.242863 -0.607172
C 17.803110 2.231460 -1.405949
C 16.777174 3.171967 -1.673840
C 15.637973 2.726026 -1.038335
N 15.928975 1.523213 -0.439816
C 14.229857 3.452581 -1.017405
C 14.204131 4.915628 -1.225997
C 13.842602 5.446589 -2.471976
C 13.827357 6.827760 -2.673135
C 14.180365 7.678095 -1.616267
N 14.166153 9.130671 -1.820865
O 13.851607 9.558421 -2.942686
O 14.470217 9.858113 -0.862509
C 14.547048 7.159179 -0.366986
C 14.557924 5.775957 -0.178470
C 13.101362 2.733484 -0.786884
C 11.778978 3.332578 -0.741673
C 10.891762 2.369118 -0.511800
C 11.613117 1.126389 -0.389058
N 12.935163 1.397443 -0.554067
H 9.869749 -0.003290 -0.043320
H 10.026491 -2.815065 -0.068496
H 11.979740 -4.641940 0.397695
H 13.726719 -0.813284 0.176669
H 15.264103 -5.733738 -0.607845
H 15.309695 -8.062589 0.231185
H 14.264793 -6.606901 4.191145
H 14.231275 -4.296343 3.304506
H 17.352069 -4.238398 1.444324
H 19.094609 -2.408704 1.051609
H 18.825190 2.279804 -1.749961
H 16.862912 4.074114 -2.260143
H 15.246279 0.913823 0.003067
H 13.569350 4.765430 -3.276533
H 13.539572 7.213016 -3.647256
H 14.823873 7.803541 0.462756
H 14.838493 5.350313 0.783761
H 11.548054 4.374387 -0.869606
H 9.827259 2.488996 -0.421923
C 34.343519 -0.058667 -0.132827
C 33.611204 1.204146 -0.680924
C 34.211286 2.278908 -1.296058
C 33.187898 3.221098 -1.577091
C 31.998235 2.692028 -1.115305
N 32.261242 1.439070 -0.621313
C 30.581101 3.400290 -1.122294
C 30.548300 4.855237 -1.391456
C 30.246911 5.326977 -2.676460
C 30.221951 6.698167 -2.936307
C 30.503300 7.597759 -1.898736
N 30.479608 9.040112 -2.165562
O 30.210158 9.415732 -3.317307
O 30.732330 9.811451 -1.226836
C 30.807685 7.137863 -0.610098
C 30.829168 5.764226 -0.362698
C 29.450239 2.699687 -0.840315
C 28.150799 3.336974 -0.772804
C 27.247912 2.416112 -0.456642
N 29.250385 1.374575 -0.559251
C 27.921682 1.140466 -0.317286
C 27.253290 -0.000193 0.000053
C 28.028921 -1.378683 0.116997
C 27.488835 -2.637119 -0.061066
C 28.514772 -3.581778 0.191794
C 29.653973 -2.872861 0.508285
N 29.362971 -1.533376 0.404528
C 31.062089 -3.485651 0.899192
C 31.087815 -4.848318 1.471167
C 31.449344 -5.943560 0.674406
C 31.464589 -7.232145 1.210732
C 31.111581 -7.419412 2.554224
N 31.125793 -8.771043 3.124253
O 31.440339 -9.713977 2.381065
O 30.821729 -8.903407 4.320119
C 30.744898 -6.332813 3.360002
C 30.734021 -5.048956 2.811772
C 32.190583 -2.750190 0.727910
C 33.512967 -3.241128 1.074229
C 34.400184 -2.296286 0.776958
C 33.678829 -1.166765 0.244396
N 32.356783 -1.484086 0.241918
H 35.422197 -0.019798 -0.038760
H 35.265455 2.380361 -1.503666
H 33.312205 4.187494 -2.041322
H 31.565227 0.788264 -0.265738
H 30.027843 4.608333 -3.464709
H 29.982251 7.037645 -3.940059
H 31.027152 7.821034 0.205614
H 31.060671 5.382983 0.630717
H 27.939877 4.378412 -0.935958
H 26.197336 2.606575 -0.333797
H 26.466755 -2.855192 -0.331484
H 28.429034 -4.656958 0.151703
H 30.045666 -0.783059 0.471809
H 31.722596 -5.771969 -0.365712
H 31.752374 -8.062796 0.572490
H 30.468073 -6.459896 4.402846
H 30.453453 -4.189747 3.419080
H 33.743892 -4.200885 1.499202
H 35.464687 -2.353033 0.915625
C 23.249893 0.001119 0.008485
C 22.040954 -0.012336 0.000038
C 20.619425 -0.003517 -0.011945
C 19.407755 0.003922 -0.001082
C 24.666497 -0.005556 0.009019
C 25.887193 0.003922 -0.001082
