180

C 32.325288 0.125904 0.272092
C 33.058733 1.298572 -0.448605
C 32.461766 2.426287 -0.964047
C 33.486009 3.195569 -1.575304
C 34.673706 2.506514 -1.418525
N 34.407351 1.375815 -0.687522
C 36.087199 2.918545 -1.992860
C 36.116391 3.976909 -2.959549
C 36.126548 4.863774 -3.770407
C 36.136705 5.915264 -4.736764
C 35.338228 5.827175 -5.871686
C 35.382640 6.871681 -6.778561
N 36.154479 7.972134 -6.627817
C 36.918126 8.022233 -5.512468
C 36.944729 7.030738 -4.547078
C 37.215292 2.265027 -1.610005
C 38.511040 2.600617 -2.165109
C 39.418077 1.790994 -1.631073
N 37.421919 1.238170 -0.726296
C 38.751394 0.904434 -0.697451
C 39.425608 -0.040437 0.010666
C 38.656646 -0.971810 1.039463
C 39.206917 -1.611954 2.132573
C 38.179498 -2.373893 2.743090
C 37.028761 -2.170243 2.011353
N 37.317539 -1.275918 1.007724
C 35.616321 -2.822146 2.288065
C 35.585326 -4.062640 3.002393
C 35.569959 -5.106793 3.596659
C 35.546491 -6.351659 4.296374
C 36.586712 -6.691682 5.154002
C 36.516514 -7.909815 5.807644
N 35.498538 -8.788575 5.663321
C 34.505623 -8.424278 4.820128
C 34.482868 -7.230057 4.120905
C 34.488791 -2.215127 1.840789
C 33.162189 -2.752855 2.087320
C 32.270978 -1.932174 1.538657
C 32.993292 -0.850208 0.915171
N 34.320193 -1.065006 1.121097
H 31.243012 0.098837 0.227704
H 31.409315 2.661220 -0.918852
H 33.365590 4.136154 -2.091292
H 35.099337 0.699090 -0.374152
H 34.700740 4.966582 -6.042736
H 34.778048 6.849185 -7.679725
H 37.531128 8.912223 -5.410071
H 37.577172 7.122060 -3.670629
H 38.712869 3.365886 -2.893032
H 40.467326 1.811193 -1.862838
H 40.235826 -1.547473 2.452569
H 38.268876 -3.000747 3.617188
H 36.631795 -0.859551 0.383210
H 37.428334 -6.024910 5.306599
H 37.304317 -8.220615 6.486920
H 33.698449 -9.142833 4.715705
H 33.660626 -6.988275 3.455947
H 32.935611 -3.653871 2.627762
H 31.202422 -2.049050 1.550665
C 62.598783 0.201331 0.204473
C 61.865339 -0.642716 1.291735
C 62.462305 -1.277835 2.356650
C 61.438062 -1.969188 3.054834
C 60.250365 -1.738345 2.386936
N 60.516720 -0.888620 1.342515
C 58.836872 -2.354113 2.734009
C 58.807680 -3.430250 3.680874
C 58.797523 -4.332816 4.474218
C 58.787367 -5.407875 5.414284
C 59.585843 -6.526468 5.203195
C 59.541431 -7.541637 6.142793
N 58.769593 -7.511560 7.253116
C 58.005945 -6.408291 7.424310
C 57.979342 -5.340722 6.543777
C 57.708779 -1.902405 2.126043
C 56.413032 -2.490736 2.399223
C 55.505994 -1.871754 1.652534
N 57.502153 -0.912183 1.201468
C 56.172677 -0.847187 0.872854
C 55.498463 -0.040437 0.010666
C 56.267425 1.083617 -0.803201
C 55.717155 2.239906 -1.320569
C 56.744574 2.929724 -2.011534
C 57.895310 2.180169 -1.888736
N 57.606533 1.085165 -1.108957
C 59.307750 2.526189 -2.506649
C 59.338745 3.371287 -3.662028
C 59.354112 4.075667 -4.635298
C 59.377580 4.906715 -5.796613
C 58.337359 5.796256 -6.041273
C 58.407557 6.578594 -7.181028
N 59.425533 6.530772 -8.070276
C 60.418449 5.652938 -7.799915
C 60.441204 4.827892 -6.688891
C 60.435280 2.015504 -1.951917
C 61.761882 2.319095 -2.459618
C 62.653093 1.684370 -1.703529
C 61.930779 0.946829 -0.695849
N 60.603878 1.174909 -0.886958
H 63.681059 0.160152 0.172736
H 63.514756 -1.258478 2.595107
H 61.558481 -2.584483 3.933673
H 59.824734 -0.503459 0.703917
H 60.223332 -6.602836 4.329097
H 60.146023 -8.434999 6.022350
H 57.392944 -6.403366 8.320158
H 57.346899 -4.479419 6.729948
H 56.211202 -3.297625 3.080720
H 54.456745 -2.104341 1.647387
H 54.688246 2.550983 -1.221644
H 56.655196 3.866855 -2.539530
H 58.292276 0.419044 -0.763034
H 57.495737 5.875376 -5.361854
H 57.619754 7.287662 -7.416050
H 61.225623 5.627342 -8.525567
H 61.263445 4.140569 -6.520918
H 61.988460 2.954392 -3.296461
H 63.721650 1.709028 -1.818403
C 41.421340 -0.040437 0.010666
C 42.643258 -0.040437 0.010666
C 52.280813 -0.040437 0.010666
C 53.502731 -0.040437 0.010666
C 43.894488 0.085058 -0.022436
C 44.692103 0.152157 -1.389409
C 44.202566 0.559367 -2.613046
C 45.244945 0.394634 -3.561383
C 46.338823 -0.103746 -2.885809
N 46.013879 -0.179330 -1.555017
C 47.723477 -0.516787 -3.516185
C 47.711588 -0.997325 -4.865537
C 47.685174 -1.408752 -5.994217
C 47.656203 -1.913909 -7.329560
C 48.413958 -3.029736 -7.667838
C 48.351213 -3.484973 -8.973026
N 47.598433 -2.910672 -9.938809
C 46.874150 -1.829028 -9.572704
C 46.868548 -1.297016 -8.295027
C 48.860212 -0.451984 -2.777928
C 50.148774 -0.836477 -3.316488
C 51.063820 -0.673936 -2.366832
N 49.075453 -0.064457 -1.484009
C 50.404766 -0.177462 -1.175109
C 51.075206 0.085058 -0.022436
C 50.281044 0.615786 1.243808
C 50.790098 1.371112 2.280374
C 49.749345 1.545461 3.228336
C 48.634205 0.898431 2.737572
N 48.948325 0.400400 1.497505
C 47.241256 0.749020 3.464188
C 47.234791 0.820744 4.894886
C 47.226462 0.903841 6.093883
C 47.199489 1.020427 7.517167
C 46.108018 1.610799 8.145530
C 46.128413 1.708263 9.526101
N 47.144729 1.264643 10.300578
C 48.188086 0.694890 9.654531
C 48.262955 0.550346 8.279704
C 46.107220 0.543507 2.747818
C 44.816403 0.378075 3.385220
C 43.902971 0.192183 2.438456
C 44.564486 0.235525 1.149989
N 45.895295 0.441182 1.400913
H 43.203426 0.918348 -2.806680
H 45.198915 0.601438 -4.619581
H 46.663261 -0.391981 -0.803497
H 49.034473 -3.529862 -6.931823
H 48.923961 -4.352681 -9.285151
H 46.275270 -1.384110 -10.361196
H 46.267107 -0.426969 -8.056019
H 50.339294 -1.192216 -4.313201
H 52.112498 -0.883226 -2.481485
H 51.802195 1.739326 2.358356
H 49.811559 2.070382 4.169720
H 48.290431 -0.031401 0.853781
H 45.266633 1.986059 7.572497
H 45.299851 2.161689 10.061940
H 48.993126 0.344334 10.293519
H 49.125248 0.085562 7.813814
H 44.622947 0.395909 4.442582
H 42.854046 0.039644 2.616797
