 xtb: 6.5.1 (b24c23e)
          07282214363D

180200  0     0  0            999 V2000
   33.1285    0.0012   -0.0935 C   0  0  0  0  0  0  0  0  0  0  0  0
   33.7330    0.9263   -0.9370 C   0  0  0  0  0  0  0  0  0  0  0  0
   33.0853    1.8597   -1.7926 C   0  0  0  0  0  0  0  0  0  0  0  0
   34.0530    2.5727   -2.4457 C   0  0  0  0  0  0  0  0  0  0  0  0
   35.3175    2.0931   -2.0096 C   0  0  0  0  0  0  0  0  0  0  0  0
   35.0788    1.1058   -1.1021 N   0  0  0  0  0  0  0  0  0  0  0  0
   36.5847    2.5334   -2.4303 C   0  0  0  0  0  0  0  0  0  0  0  0
   36.6110    3.5802   -3.3781 C   0  0  0  0  0  0  0  0  0  0  0  0
   36.6411    4.4884   -4.1824 C   0  0  0  0  0  0  0  0  0  0  0  0
   36.6850    5.5474   -5.1175 C   0  0  0  0  0  0  0  0  0  0  0  0
   35.5150    6.0761   -5.6751 C   0  0  0  0  0  0  0  0  0  0  0  0
   35.6157    7.1139   -6.5844 C   0  0  0  0  0  0  0  0  0  0  0  0
   36.7778    7.6422   -6.9599 N   0  0  0  0  0  0  0  0  0  0  0  0
   37.8946    7.1460   -6.4335 C   0  0  0  0  0  0  0  0  0  0  0  0
   37.9033    6.1090   -5.5179 C   0  0  0  0  0  0  0  0  0  0  0  0
   37.8142    2.0211   -1.9829 C   0  0  0  0  0  0  0  0  0  0  0  0
   39.0965    2.4927   -2.4680 C   0  0  0  0  0  0  0  0  0  0  0  0
   40.0362    1.7823   -1.8093 C   0  0  0  0  0  0  0  0  0  0  0  0
   37.9863    1.0482   -1.0566 N   0  0  0  0  0  0  0  0  0  0  0  0
   39.3227    0.8837   -0.9224 C   0  0  0  0  0  0  0  0  0  0  0  0
   39.9697    0.0084   -0.0335 C   0  0  0  0  0  0  0  0  0  0  0  0
   39.3419   -0.8786    0.8598 C   0  0  0  0  0  0  0  0  0  0  0  0
   39.9831   -1.7800    1.7492 C   0  0  0  0  0  0  0  0  0  0  0  0
   39.0114   -2.4909    2.4006 C   0  0  0  0  0  0  0  0  0  0  0  0
   37.7516   -2.0412    1.9261 C   0  0  0  0  0  0  0  0  0  0  0  0
   37.9976   -1.0653    1.0036 N   0  0  0  0  0  0  0  0  0  0  0  0
   36.4858   -2.5135    2.3157 C   0  0  0  0  0  0  0  0  0  0  0  0
   36.4664   -3.5599    3.2630 C   0  0  0  0  0  0  0  0  0  0  0  0
   36.4594   -4.4703    4.0656 C   0  0  0  0  0  0  0  0  0  0  0  0
   36.4508   -5.5359    4.9938 C   0  0  0  0  0  0  0  0  0  0  0  0
   37.6445   -6.0835    5.4791 C   0  0  0  0  0  0  0  0  0  0  0  0
   37.5836   -7.1306    6.3811 C   0  0  0  0  0  0  0  0  0  0  0  0
   36.4385   -7.6498    6.8168 N   0  0  0  0  0  0  0  0  0  0  0  0
   35.2995   -7.1343    6.3609 C   0  0  0  0  0  0  0  0  0  0  0  0
   35.2507   -6.0877    5.4576 C   0  0  0  0  0  0  0  0  0  0  0  0
   35.2557   -2.0345    1.8307 C   0  0  0  0  0  0  0  0  0  0  0  0
   33.9673   -2.5460    2.2645 C   0  0  0  0  0  0  0  0  0  0  0  0
   33.0336   -1.8418    1.5928 C   0  0  0  0  0  0  0  0  0  0  0  0
   33.7550   -0.9045    0.7494 C   0  0  0  0  0  0  0  0  0  0  0  0
   35.0956   -1.0530    0.9208 N   0  0  0  0  0  0  0  0  0  0  0  0
   32.0433   -0.0048   -0.1021 H   0  0  0  0  0  0  0  0  0  0  0  0
   32.0162    1.9631   -1.8870 H   0  0  0  0  0  0  0  0  0  0  0  0
   33.9143    3.3609   -3.1682 H   0  0  0  0  0  0  0  0  0  0  0  0
   35.7979    0.5788   -0.6180 H   0  0  0  0  0  0  0  0  0  0  0  0
   34.5474    5.6758   -5.3970 H   0  0  0  0  0  0  0  0  0  0  0  0
   34.7242    7.5421   -7.0338 H   0  0  0  0  0  0  0  0  0  0  0  0
   38.8251    7.6008   -6.7609 H   0  0  0  0  0  0  0  0  0  0  0  0
   38.8364    5.7353   -5.1137 H   0  0  0  0  0  0  0  0  0  0  0  0
   39.2304    3.2620   -3.2116 H   0  0  0  0  0  0  0  0  0  0  0  0
   41.1096    1.8444   -1.8931 H   0  0  0  0  0  0  0  0  0  0  0  0
   41.0509   -1.8705    1.8660 H   0  0  0  0  0  0  0  0  0  0  0  0
   39.1472   -3.2608    3.1430 H   0  0  0  0  0  0  0  0  0  0  0  0
   37.2814   -0.5613    0.4911 H   0  0  0  0  0  0  0  0  0  0  0  0
   38.5992   -5.6914    5.1499 H   0  0  0  0  0  0  0  0  0  0  0  0
   38.4941   -7.5749    6.7729 H   0  0  0  0  0  0  0  0  0  0  0  0
   34.3839   -7.5817    6.7370 H   0  0  0  0  0  0  0  0  0  0  0  0
   34.3006   -5.6988    5.1117 H   0  0  0  0  0  0  0  0  0  0  0  0
   33.8294   -3.3349    2.9869 H   0  0  0  0  0  0  0  0  0  0  0  0
   31.9592   -1.9248    1.6402 H   0  0  0  0  0  0  0  0  0  0  0  0
   61.7905   -0.1313    0.0859 C   0  0  0  0  0  0  0  0  0  0  0  0
   61.1890   -0.9046    1.0722 C   0  0  0  0  0  0  0  0  0  0  0  0
   61.8395   -1.6947    2.0596 C   0  0  0  0  0  0  0  0  0  0  0  0
   60.8740   -2.2880    2.8260 C   0  0  0  0  0  0  0  0  0  0  0  0
   59.6082   -1.8754    2.3295 C   0  0  0  0  0  0  0  0  0  0  0  0
   59.8438   -1.0459    1.2753 N   0  0  0  0  0  0  0  0  0  0  0  0
   58.3424   -2.2370    2.8234 C   0  0  0  0  0  0  0  0  0  0  0  0
   58.3206   -3.1201    3.9256 C   0  0  0  0  0  0  0  0  0  0  0  0
   58.2994   -3.8881    4.8650 C   0  0  0  0  0  0  0  0  0  0  0  0
   58.2598   -4.7867    5.9553 C   0  0  0  0  0  0  0  0  0  0  0  0
   59.4297   -5.3497    6.4787 C   0  0  0  0  0  0  0  0  0  0  0  0
   59.3326   -6.2276    7.5435 C   0  0  0  0  0  0  0  0  0  0  0  0
   58.1741   -6.5678    8.1029 N   0  0  0  0  0  0  0  0  0  0  0  0
   57.0575   -6.0362    7.6117 C   0  0  0  0  0  0  0  0  0  0  0  0
   57.0454   -5.1499    6.5495 C   0  0  0  0  0  0  0  0  0  0  0  0
   57.1114   -1.7990    2.3073 C   0  0  0  0  0  0  0  0  0  0  0  0
   55.8312   -2.1949    2.8605 C   0  0  0  0  0  0  0  0  0  0  0  0
   54.8886   -1.5959    2.1026 C   0  0  0  0  0  0  0  0  0  0  0  0
   56.9349   -0.9787    1.2437 N   0  0  0  0  0  0  0  0  0  0  0  0
   55.5982   -0.8385    1.0897 C   0  0  0  0  0  0  0  0  0  0  0  0
   54.9465   -0.1013    0.0853 C   0  0  0  0  0  0  0  0  0  0  0  0
   55.5718    0.6413   -0.9337 C   0  0  0  0  0  0  0  0  0  0  0  0
   54.9282    1.4041   -1.9428 C   0  0  0  0  0  0  0  0  0  0  0  0
   55.8981    1.9946   -2.7072 C   0  0  0  0  0  0  0  0  0  0  0  0
   57.1593    1.6082   -2.1840 C   0  0  0  0  0  0  0  0  0  0  0  0
   56.9158    0.7900   -1.1183 N   0  0  0  0  0  0  0  0  0  0  0  0
   58.4242    1.9966   -2.6597 C   0  0  0  0  0  0  0  0  0  0  0  0
   58.4401    2.8693   -3.7691 C   0  0  0  0  0  0  0  0  0  0  0  0
   58.4425    3.6259   -4.7182 C   0  0  0  0  0  0  0  0  0  0  0  0
   58.4459    4.5087   -5.8217 C   0  0  0  0  0  0  0  0  0  0  0  0
   57.2497    4.9450   -6.4040 C   0  0  0  0  0  0  0  0  0  0  0  0
   57.3055    5.8106   -7.4817 C   0  0  0  0  0  0  0  0  0  0  0  0
   58.4480    6.2552   -7.9993 N   0  0  0  0  0  0  0  0  0  0  0  0
   59.5892    5.8452   -7.4515 C   0  0  0  0  0  0  0  0  0  0  0  0
   59.6431    4.9810   -6.3724 C   0  0  0  0  0  0  0  0  0  0  0  0
   59.6562    1.5893   -2.1176 C   0  0  0  0  0  0  0  0  0  0  0  0
   60.9432    2.0106   -2.6428 C   0  0  0  0  0  0  0  0  0  0  0  0
   61.8794    1.4149   -1.8764 C   0  0  0  0  0  0  0  0  0  0  0  0
   61.1610    0.6331   -0.8850 C   0  0  0  0  0  0  0  0  0  0  0  0
   59.8196    0.7657   -1.0631 N   0  0  0  0  0  0  0  0  0  0  0  0
   62.8758   -0.1336    0.0823 H   0  0  0  0  0  0  0  0  0  0  0  0
   62.9089   -1.7897    2.1601 H   0  0  0  0  0  0  0  0  0  0  0  0
   61.0152   -2.9525    3.6634 H   0  0  0  0  0  0  0  0  0  0  0  0
   59.1230   -0.5974    0.7198 H   0  0  0  0  0  0  0  0  0  0  0  0
   60.3943   -5.1008    6.0530 H   0  0  0  0  0  0  0  0  0  0  0  0
   60.2238   -6.6806    7.9682 H   0  0  0  0  0  0  0  0  0  0  0  0
   56.1300   -6.3348    8.0917 H   0  0  0  0  0  0  0  0  0  0  0  0
   56.1126   -4.7409    6.1804 H   0  0  0  0  0  0  0  0  0  0  0  0
   55.7005   -2.8437    3.7118 H   0  0  0  0  0  0  0  0  0  0  0  0
   53.8157   -1.6503    2.1951 H   0  0  0  0  0  0  0  0  0  0  0  0
   53.8601    1.4901   -2.0595 H   0  0  0  0  0  0  0  0  0  0  0  0
   55.7597    2.6429   -3.5575 H   0  0  0  0  0  0  0  0  0  0  0  0
   57.6338    0.3621   -0.5430 H   0  0  0  0  0  0  0  0  0  0  0  0
   56.2970    4.6079   -6.0137 H   0  0  0  0  0  0  0  0  0  0  0  0
   56.3931    6.1650   -7.9526 H   0  0  0  0  0  0  0  0  0  0  0  0
   60.5025    6.2273   -7.8983 H   0  0  0  0  0  0  0  0  0  0  0  0
   60.5950    4.6728   -5.9571 H   0  0  0  0  0  0  0  0  0  0  0  0
   61.0784    2.6713   -3.4845 H   0  0  0  0  0  0  0  0  0  0  0  0
   62.9539    1.4780   -1.9485 H   0  0  0  0  0  0  0  0  0  0  0  0
   41.3814    0.0074   -0.0250 C   0  0  0  0  0  0  0  0  0  0  0  0
   42.5971    0.0016   -0.0135 C   0  0  0  0  0  0  0  0  0  0  0  0
   52.3197   -0.0897    0.0708 C   0  0  0  0  0  0  0  0  0  0  0  0
   53.5358   -0.0971    0.0833 C   0  0  0  0  0  0  0  0  0  0  0  0
   44.0082   -0.0040   -0.0013 C   0  0  0  0  0  0  0  0  0  0  0  0
   44.6450    0.0521   -1.2548 C   0  0  0  0  0  0  0  0  0  0  0  0
   44.0162    0.0996   -2.5254 C   0  0  0  0  0  0  0  0  0  0  0  0
   44.9981    0.0959   -3.4801 C   0  0  0  0  0  0  0  0  0  0  0  0
   46.2504    0.0477   -2.8155 C   0  0  0  0  0  0  0  0  0  0  0  0
   45.9917    0.0296   -1.4755 N   0  0  0  0  0  0  0  0  0  0  0  0
   47.5217    0.0078   -3.4168 C   0  0  0  0  0  0  0  0  0  0  0  0
   47.5471   -0.0170   -4.8290 C   0  0  0  0  0  0  0  0  0  0  0  0
   47.5646   -0.0598   -6.0418 C   0  0  0  0  0  0  0  0  0  0  0  0
   47.6031   -0.1271   -7.4532 C   0  0  0  0  0  0  0  0  0  0  0  0
   48.8136   -0.3014   -8.1347 C   0  0  0  0  0  0  0  0  0  0  0  0
   48.8011   -0.3712   -9.5162 C   0  0  0  0  0  0  0  0  0  0  0  0
   47.6876   -0.2787  -10.2390 N   0  0  0  0  0  0  0  0  0  0  0  0
   46.5333   -0.1110   -9.5989 C   0  0  0  0  0  0  0  0  0  0  0  0
   46.4368   -0.0303   -8.2210 C   0  0  0  0  0  0  0  0  0  0  0  0
   48.7508   -0.0221   -2.7388 C   0  0  0  0  0  0  0  0  0  0  0  0
   50.0316   -0.0500   -3.4176 C   0  0  0  0  0  0  0  0  0  0  0  0
   50.9733   -0.0641   -2.4509 C   0  0  0  0  0  0  0  0  0  0  0  0
   48.9258   -0.0234   -1.3955 N   0  0  0  0  0  0  0  0  0  0  0  0
   50.2624   -0.0490   -1.1873 C   0  0  0  0  0  0  0  0  0  0  0  0
   50.9096   -0.0793    0.0603 C   0  0  0  0  0  0  0  0  0  0  0  0
   50.2725   -0.0979    1.3152 C   0  0  0  0  0  0  0  0  0  0  0  0
   50.9007   -0.1021    2.5869 C   0  0  0  0  0  0  0  0  0  0  0  0
   49.9183   -0.0935    3.5409 C   0  0  0  0  0  0  0  0  0  0  0  0
   48.6659   -0.0851    2.8748 C   0  0  0  0  0  0  0  0  0  0  0  0
   48.9255   -0.0902    1.5348 N   0  0  0  0  0  0  0  0  0  0  0  0
   47.3937   -0.0751    3.4756 C   0  0  0  0  0  0  0  0  0  0  0  0
   47.3679   -0.0431    4.8876 C   0  0  0  0  0  0  0  0  0  0  0  0
   47.3510    0.0074    6.1000 C   0  0  0  0  0  0  0  0  0  0  0  0
   47.3195    0.0767    7.5114 C   0  0  0  0  0  0  0  0  0  0  0  0
   46.1053    0.1107    8.2077 C   0  0  0  0  0  0  0  0  0  0  0  0
   46.1266    0.1858    9.5888 C   0  0  0  0  0  0  0  0  0  0  0  0
   47.2520    0.2278   10.2978 N   0  0  0  0  0  0  0  0  0  0  0  0
   48.4102    0.1958    9.6435 C   0  0  0  0  0  0  0  0  0  0  0  0
   48.4985    0.1210    8.2648 C   0  0  0  0  0  0  0  0  0  0  0  0
   46.1644   -0.0822    2.7973 C   0  0  0  0  0  0  0  0  0  0  0  0
   44.8827   -0.0993    3.4750 C   0  0  0  0  0  0  0  0  0  0  0  0
   43.9414   -0.0933    2.5078 C   0  0  0  0  0  0  0  0  0  0  0  0
   44.6536   -0.0650    1.2451 C   0  0  0  0  0  0  0  0  0  0  0  0
   45.9907   -0.0656    1.4543 N   0  0  0  0  0  0  0  0  0  0  0  0
   42.9499    0.1277   -2.6815 H   0  0  0  0  0  0  0  0  0  0  0  0
   44.8730    0.1229   -4.5506 H   0  0  0  0  0  0  0  0  0  0  0  0
   46.6981   -0.0099   -0.7483 H   0  0  0  0  0  0  0  0  0  0  0  0
   49.7433   -0.3820   -7.5846 H   0  0  0  0  0  0  0  0  0  0  0  0
   49.7253   -0.5080  -10.0702 H   0  0  0  0  0  0  0  0  0  0  0  0
   45.6446   -0.0390  -10.2193 H   0  0  0  0  0  0  0  0  0  0  0  0
   45.4751    0.1056   -7.7410 H   0  0  0  0  0  0  0  0  0  0  0  0
   50.1633   -0.0566   -4.4878 H   0  0  0  0  0  0  0  0  0  0  0  0
   52.0460   -0.0906   -2.5561 H   0  0  0  0  0  0  0  0  0  0  0  0
   51.9670   -0.1057    2.7447 H   0  0  0  0  0  0  0  0  0  0  0  0
   50.0431   -0.0929    4.6117 H   0  0  0  0  0  0  0  0  0  0  0  0
   48.2193   -0.0793    0.8064 H   0  0  0  0  0  0  0  0  0  0  0  0
   45.1658    0.0795    7.6693 H   0  0  0  0  0  0  0  0  0  0  0  0
   45.1997    0.2142   10.1543 H   0  0  0  0  0  0  0  0  0  0  0  0
   49.3087    0.2323   10.2528 H   0  0  0  0  0  0  0  0  0  0  0  0
   49.4633    0.0982    7.7727 H   0  0  0  0  0  0  0  0  0  0  0  0
   44.7504   -0.1155    4.5451 H   0  0  0  0  0  0  0  0  0  0  0  0
   42.8681   -0.0991    2.6115 H   0  0  0  0  0  0  0  0  0  0  0  0
  1  2  4  0  0  0  0
  2  3  4  0  0  0  0
  3  4  2  0  0  0  0
  4  5  4  0  0  0  0
  2  6  4  0  0  0  0
  5  6  4  0  0  0  0
  5  7  4  0  0  0  0
  7  8  1  0  0  0  0
  8  9  3  0  0  0  0
  9 10  1  0  0  0  0
 10 11  4  0  0  0  0
 11 12  4  0  0  0  0
 12 13  4  0  0  0  0
 13 14  4  0  0  0  0
 10 15  4  0  0  0  0
 14 15  4  0  0  0  0
  7 16  4  0  0  0  0
 16 17  1  0  0  0  0
 17 18  2  0  0  0  0
 16 19  4  0  0  0  0
 18 20  1  0  0  0  0
 19 20  4  0  0  0  0
 20 21  4  0  0  0  0
 21 22  4  0  0  0  0
 22 23  4  0  0  0  0
 23 24  2  0  0  0  0
 24 25  4  0  0  0  0
 22 26  4  0  0  0  0
 25 26  4  0  0  0  0
 25 27  4  0  0  0  0
 27 28  1  0  0  0  0
 28 29  3  0  0  0  0
 29 30  1  0  0  0  0
 30 31  4  0  0  0  0
 31 32  4  0  0  0  0
 32 33  4  0  0  0  0
 33 34  4  0  0  0  0
 30 35  4  0  0  0  0
 34 35  4  0  0  0  0
 27 36  4  0  0  0  0
 36 37  1  0  0  0  0
 37 38  2  0  0  0  0
  1 39  4  0  0  0  0
 38 39  1  0  0  0  0
 36 40  4  0  0  0  0
 39 40  4  0  0  0  0
  1 41  1  0  0  0  0
  3 42  1  0  0  0  0
  4 43  1  0  0  0  0
  6 44  1  0  0  0  0
 11 45  1  0  0  0  0
 12 46  1  0  0  0  0
 14 47  1  0  0  0  0
 15 48  1  0  0  0  0
 17 49  1  0  0  0  0
 18 50  1  0  0  0  0
 23 51  1  0  0  0  0
 24 52  1  0  0  0  0
 26 53  1  0  0  0  0
 31 54  1  0  0  0  0
 32 55  1  0  0  0  0
 34 56  1  0  0  0  0
 35 57  1  0  0  0  0
 37 58  1  0  0  0  0
 38 59  1  0  0  0  0
 60 61  4  0  0  0  0
 61 62  4  0  0  0  0
 62 63  2  0  0  0  0
 63 64  4  0  0  0  0
 61 65  4  0  0  0  0
 64 65  4  0  0  0  0
 64 66  4  0  0  0  0
 66 67  1  0  0  0  0
 67 68  3  0  0  0  0
 68 69  1  0  0  0  0
 69 70  4  0  0  0  0
 70 71  4  0  0  0  0
 71 72  4  0  0  0  0
 72 73  4  0  0  0  0
 69 74  4  0  0  0  0
 73 74  4  0  0  0  0
 66 75  4  0  0  0  0
 75 76  1  0  0  0  0
 76 77  2  0  0  0  0
 75 78  4  0  0  0  0
 77 79  1  0  0  0  0
 78 79  4  0  0  0  0
 79 80  4  0  0  0  0
 80 81  4  0  0  0  0
 81 82  4  0  0  0  0
 82 83  2  0  0  0  0
 83 84  4  0  0  0  0
 81 85  4  0  0  0  0
 84 85  4  0  0  0  0
 84 86  4  0  0  0  0
 86 87  1  0  0  0  0
 87 88  3  0  0  0  0
 88 89  1  0  0  0  0
 89 90  4  0  0  0  0
 90 91  4  0  0  0  0
 91 92  4  0  0  0  0
 92 93  4  0  0  0  0
 89 94  4  0  0  0  0
 93 94  4  0  0  0  0
 86 95  4  0  0  0  0
 95 96  1  0  0  0  0
 96 97  2  0  0  0  0
 60 98  4  0  0  0  0
 97 98  1  0  0  0  0
 95 99  4  0  0  0  0
 98 99  4  0  0  0  0
 60100  1  0  0  0  0
 62101  1  0  0  0  0
 63102  1  0  0  0  0
 65103  1  0  0  0  0
 70104  1  0  0  0  0
 71105  1  0  0  0  0
 73106  1  0  0  0  0
 74107  1  0  0  0  0
 76108  1  0  0  0  0
 77109  1  0  0  0  0
 82110  1  0  0  0  0
 83111  1  0  0  0  0
 85112  1  0  0  0  0
 90113  1  0  0  0  0
 91114  1  0  0  0  0
 93115  1  0  0  0  0
 94116  1  0  0  0  0
 96117  1  0  0  0  0
 97118  1  0  0  0  0
 21119  1  0  0  0  0
119120  3  0  0  0  0
 80122  4  0  0  0  0
121122  3  0  0  0  0
120123  1  0  0  0  0
123124  4  0  0  0  0
124125  4  0  0  0  0
125126  2  0  0  0  0
126127  4  0  0  0  0
124128  4  0  0  0  0
127128  4  0  0  0  0
127129  4  0  0  0  0
129130  1  0  0  0  0
130131  3  0  0  0  0
131132  1  0  0  0  0
132133  4  0  0  0  0
133134  4  0  0  0  0
134135  4  0  0  0  0
135136  4  0  0  0  0
132137  4  0  0  0  0
136137  4  0  0  0  0
129138  4  0  0  0  0
138139  1  0  0  0  0
139140  2  0  0  0  0
138141  4  0  0  0  0
140142  1  0  0  0  0
141142  4  0  0  0  0
121143  4  0  0  0  0
142143  4  0  0  0  0
143144  4  0  0  0  0
144145  4  0  0  0  0
145146  2  0  0  0  0
146147  4  0  0  0  0
144148  4  0  0  0  0
147148  4  0  0  0  0
147149  4  0  0  0  0
149150  1  0  0  0  0
150151  3  0  0  0  0
151152  1  0  0  0  0
152153  4  0  0  0  0
153154  4  0  0  0  0
154155  4  0  0  0  0
155156  4  0  0  0  0
152157  4  0  0  0  0
156157  4  0  0  0  0
149158  4  0  0  0  0
158159  1  0  0  0  0
159160  2  0  0  0  0
123161  4  0  0  0  0
160161  1  0  0  0  0
158162  4  0  0  0  0
161162  4  0  0  0  0
125163  1  0  0  0  0
126164  1  0  0  0  0
128165  1  0  0  0  0
133166  1  0  0  0  0
134167  1  0  0  0  0
136168  1  0  0  0  0
137169  1  0  0  0  0
139170  1  0  0  0  0
140171  1  0  0  0  0
145172  1  0  0  0  0
146173  1  0  0  0  0
148174  1  0  0  0  0
153175  1  0  0  0  0
154176  1  0  0  0  0
156177  1  0  0  0  0
157178  1  0  0  0  0
159179  1  0  0  0  0
160180  1  0  0  0  0
M  END
