 xtb: 6.5.1 (b24c23e)
          07302202143D

 80 95  0     0  0            999 V2000
    5.2408   -0.0053   -0.0099 Ni  0  0  0  0  0  0  0  0  0  0  0  0
    1.8300   -0.0569   -0.0496 C   0  0  0  0  0  0  0  0  0  0  0  0
    2.5027   -0.9043   -0.9056 C   0  0  0  0  0  0  0  0  0  0  0  0
    1.8478   -1.8028   -1.8101 C   0  0  0  0  0  0  0  0  0  0  0  0
    2.8232   -2.4618   -2.4777 C   0  0  0  0  0  0  0  0  0  0  0  0
    4.0712   -1.9648   -1.9789 C   0  0  0  0  0  0  0  0  0  0  0  0
    3.8658   -1.0101   -1.0160 N   0  0  0  0  0  0  0  0  0  0  0  0
    5.3013   -2.4050   -2.4217 C   0  0  0  0  0  0  0  0  0  0  0  0
    6.5070   -1.9357   -1.9451 C   0  0  0  0  0  0  0  0  0  0  0  0
    7.7760   -2.4049   -2.4107 C   0  0  0  0  0  0  0  0  0  0  0  0
    8.7192   -1.7227   -1.7185 C   0  0  0  0  0  0  0  0  0  0  0  0
    6.6694   -0.9729   -0.9758 N   0  0  0  0  0  0  0  0  0  0  0  0
    8.0223   -0.8398   -0.8345 C   0  0  0  0  0  0  0  0  0  0  0  0
    8.6718    0.0346    0.0420 C   0  0  0  0  0  0  0  0  0  0  0  0
    7.9770    0.8962    0.8952 C   0  0  0  0  0  0  0  0  0  0  0  0
    8.6263    1.7995    1.7946 C   0  0  0  0  0  0  0  0  0  0  0  0
    7.6470    2.4632    2.4542 C   0  0  0  0  0  0  0  0  0  0  0  0
    6.4036    1.9611    1.9544 C   0  0  0  0  0  0  0  0  0  0  0  0
    6.6176    0.9985    0.9951 N   0  0  0  0  0  0  0  0  0  0  0  0
    5.1732    2.3999    2.3960 C   0  0  0  0  0  0  0  0  0  0  0  0
    3.9676    1.9226    1.9251 C   0  0  0  0  0  0  0  0  0  0  0  0
    2.6937    2.3833    2.3928 C   0  0  0  0  0  0  0  0  0  0  0  0
    1.7545    1.6921    1.7061 C   0  0  0  0  0  0  0  0  0  0  0  0
    2.4571    0.8112    0.8202 C   0  0  0  0  0  0  0  0  0  0  0  0
    3.8134    0.9588    0.9616 N   0  0  0  0  0  0  0  0  0  0  0  0
    0.7464   -0.0733   -0.0620 H   0  0  0  0  0  0  0  0  0  0  0  0
    0.7778   -1.8994   -1.9048 H   0  0  0  0  0  0  0  0  0  0  0  0
    2.7299   -3.2185   -3.2407 H   0  0  0  0  0  0  0  0  0  0  0  0
    5.3222   -3.1685   -3.1908 H   0  0  0  0  0  0  0  0  0  0  0  0
    7.9071   -3.1597   -3.1697 H   0  0  0  0  0  0  0  0  0  0  0  0
    9.7926   -1.7964   -1.7872 H   0  0  0  0  0  0  0  0  0  0  0  0
    9.6953    1.8984    1.8938 H   0  0  0  0  0  0  0  0  0  0  0  0
    7.7374    3.2247    3.2124 H   0  0  0  0  0  0  0  0  0  0  0  0
    5.1528    3.1667    3.1618 H   0  0  0  0  0  0  0  0  0  0  0  0
    2.5596    3.1394    3.1502 H   0  0  0  0  0  0  0  0  0  0  0  0
    0.6801    1.7563    1.7757 H   0  0  0  0  0  0  0  0  0  0  0  0
   23.8455    0.0067    0.0017 Ni  0  0  0  0  0  0  0  0  0  0  0  0
   27.2565    0.0748   -0.0044 C   0  0  0  0  0  0  0  0  0  0  0  0
   26.5824    1.2770   -0.0658 C   0  0  0  0  0  0  0  0  0  0  0  0
   27.2359    2.5510   -0.1298 C   0  0  0  0  0  0  0  0  0  0  0  0
   26.2595    3.4869   -0.1769 C   0  0  0  0  0  0  0  0  0  0  0  0
   25.0122    2.7822   -0.1412 C   0  0  0  0  0  0  0  0  0  0  0  0
   25.2191    1.4282   -0.0731 N   0  0  0  0  0  0  0  0  0  0  0  0
   23.7815    3.4046   -0.1702 C   0  0  0  0  0  0  0  0  0  0  0  0
   22.5765    2.7354   -0.1348 C   0  0  0  0  0  0  0  0  0  0  0  0
   21.3068    3.3944   -0.1634 C   0  0  0  0  0  0  0  0  0  0  0  0
   20.3647    2.4227   -0.1135 C   0  0  0  0  0  0  0  0  0  0  0  0
   22.4156    1.3707   -0.0679 N   0  0  0  0  0  0  0  0  0  0  0  0
   21.0630    1.1754   -0.0553 C   0  0  0  0  0  0  0  0  0  0  0  0
   20.4147   -0.0619    0.0033 C   0  0  0  0  0  0  0  0  0  0  0  0
   21.1109   -1.2727    0.0565 C   0  0  0  0  0  0  0  0  0  0  0  0
   20.4630   -2.5467    0.1157 C   0  0  0  0  0  0  0  0  0  0  0  0
   21.4434   -3.4802    0.1603 C   0  0  0  0  0  0  0  0  0  0  0  0
   22.6859   -2.7711    0.1282 C   0  0  0  0  0  0  0  0  0  0  0  0
   22.4704   -1.4139    0.0639 N   0  0  0  0  0  0  0  0  0  0  0  0
   23.9171   -3.3914    0.1609 C   0  0  0  0  0  0  0  0  0  0  0  0
   25.1219   -2.7201    0.1312 C   0  0  0  0  0  0  0  0  0  0  0  0
   26.3965   -3.3743    0.1661 C   0  0  0  0  0  0  0  0  0  0  0  0
   27.3347   -2.4001    0.1197 C   0  0  0  0  0  0  0  0  0  0  0  0
   26.6308   -1.1532    0.0566 C   0  0  0  0  0  0  0  0  0  0  0  0
   25.2746   -1.3588    0.0649 N   0  0  0  0  0  0  0  0  0  0  0  0
   28.3401    0.0964   -0.0044 H   0  0  0  0  0  0  0  0  0  0  0  0
   28.3058    2.6873   -0.1366 H   0  0  0  0  0  0  0  0  0  0  0  0
   26.3516    4.5601   -0.2307 H   0  0  0  0  0  0  0  0  0  0  0  0
   23.7594    4.4870   -0.2236 H   0  0  0  0  0  0  0  0  0  0  0  0
   21.1744    4.4634   -0.2150 H   0  0  0  0  0  0  0  0  0  0  0  0
   19.2911    2.5221   -0.1157 H   0  0  0  0  0  0  0  0  0  0  0  0
   19.3941   -2.6879    0.1216 H   0  0  0  0  0  0  0  0  0  0  0  0
   21.3541   -4.5537    0.2110 H   0  0  0  0  0  0  0  0  0  0  0  0
   23.9387   -4.4738    0.2135 H   0  0  0  0  0  0  0  0  0  0  0  0
   26.5317   -4.4431    0.2192 H   0  0  0  0  0  0  0  0  0  0  0  0
   28.4092   -2.4934    0.1264 H   0  0  0  0  0  0  0  0  0  0  0  0
   10.0769    0.0433    0.0615 C   0  0  0  0  0  0  0  0  0  0  0  0
   11.3008    0.0279    0.0638 C   0  0  0  0  0  0  0  0  0  0  0  0
   12.6442    0.0083    0.0642 C   0  0  0  0  0  0  0  0  0  0  0  0
   13.8740   -0.0210    0.0535 C   0  0  0  0  0  0  0  0  0  0  0  0
   15.2125   -0.0471    0.0421 C   0  0  0  0  0  0  0  0  0  0  0  0
   16.4423   -0.0718    0.0300 C   0  0  0  0  0  0  0  0  0  0  0  0
   17.7858   -0.0818    0.0187 C   0  0  0  0  0  0  0  0  0  0  0  0
   19.0097   -0.0833    0.0122 C   0  0  0  0  0  0  0  0  0  0  0  0
  2  3  4  0  0  0  0
  3  4  1  0  0  0  0
  4  5  2  0  0  0  0
  5  6  4  0  0  0  0
  1  7  1  0  0  0  0
  3  7  4  0  0  0  0
  6  7  4  0  0  0  0
  6  8  4  0  0  0  0
  8  9  4  0  0  0  0
  9 10  4  0  0  0  0
 10 11  2  0  0  0  0
  1 12  1  0  0  0  0
  9 12  4  0  0  0  0
 11 13  4  0  0  0  0
 12 13  4  0  0  0  0
 13 14  4  0  0  0  0
 14 15  4  0  0  0  0
 15 16  4  0  0  0  0
 16 17  2  0  0  0  0
 17 18  4  0  0  0  0
  1 19  1  0  0  0  0
 15 19  4  0  0  0  0
 18 19  4  0  0  0  0
 18 20  4  0  0  0  0
 20 21  4  0  0  0  0
 21 22  4  0  0  0  0
 22 23  2  0  0  0  0
  2 24  4  0  0  0  0
 23 24  1  0  0  0  0
  1 25  1  0  0  0  0
 21 25  4  0  0  0  0
 24 25  4  0  0  0  0
  2 26  1  0  0  0  0
  4 27  1  0  0  0  0
  5 28  1  0  0  0  0
  8 29  1  0  0  0  0
 10 30  1  0  0  0  0
 11 31  1  0  0  0  0
 16 32  1  0  0  0  0
 17 33  1  0  0  0  0
 20 34  1  0  0  0  0
 22 35  1  0  0  0  0
 23 36  1  0  0  0  0
 38 39  4  0  0  0  0
 39 40  1  0  0  0  0
 40 41  2  0  0  0  0
 41 42  4  0  0  0  0
 37 43  1  0  0  0  0
 39 43  4  0  0  0  0
 42 43  4  0  0  0  0
 42 44  4  0  0  0  0
 44 45  4  0  0  0  0
 45 46  4  0  0  0  0
 46 47  2  0  0  0  0
 37 48  1  0  0  0  0
 45 48  4  0  0  0  0
 47 49  4  0  0  0  0
 48 49  4  0  0  0  0
 49 50  4  0  0  0  0
 50 51  4  0  0  0  0
 51 52  4  0  0  0  0
 52 53  2  0  0  0  0
 53 54  4  0  0  0  0
 37 55  1  0  0  0  0
 51 55  4  0  0  0  0
 54 55  4  0  0  0  0
 54 56  4  0  0  0  0
 56 57  4  0  0  0  0
 57 58  4  0  0  0  0
 58 59  2  0  0  0  0
 38 60  4  0  0  0  0
 59 60  1  0  0  0  0
 37 61  1  0  0  0  0
 57 61  4  0  0  0  0
 60 61  4  0  0  0  0
 38 62  1  0  0  0  0
 40 63  1  0  0  0  0
 41 64  1  0  0  0  0
 44 65  1  0  0  0  0
 46 66  1  0  0  0  0
 47 67  1  0  0  0  0
 52 68  1  0  0  0  0
 53 69  1  0  0  0  0
 56 70  1  0  0  0  0
 58 71  1  0  0  0  0
 59 72  1  0  0  0  0
 14 73  4  0  0  0  0
 73 74  3  0  0  0  0
 74 75  4  0  0  0  0
 75 76  3  0  0  0  0
 76 77  4  0  0  0  0
 77 78  3  0  0  0  0
 78 79  4  0  0  0  0
 50 80  4  0  0  0  0
 79 80  3  0  0  0  0
M  END
