588

C 91.328546 -0.029147 0.076989
C 92.062421 1.193912 0.708151
C 91.468351 2.214416 1.415172
C 92.493436 3.136038 1.754456
C 93.677854 2.651192 1.233541
N 93.410643 1.438641 0.648376
C 95.097996 3.356116 1.271236
C 95.089730 4.790745 1.591805
C 94.780152 5.682691 0.626194
C 94.711221 7.163639 0.832277
N 95.158018 7.552851 2.167889
C 95.396669 6.622904 3.153066
C 95.390521 5.304403 2.922681
C 96.223996 2.656720 0.967724
C 97.523414 3.294501 0.938280
C 98.426251 2.387844 0.582573
N 96.421858 1.344105 0.628271
C 97.750874 1.120651 0.376594
C 98.417190 -0.003063 -0.000232
C 97.639351 -1.372912 -0.197251
C 98.179202 -2.640375 -0.097886
C 97.153185 -3.567697 -0.408164
C 96.011849 -2.841919 -0.678271
N 96.304648 -1.510603 -0.492465
C 94.598628 -3.424681 -1.102291
C 94.608510 -4.759030 -1.715570
C 94.216966 -5.830149 -0.990953
C 94.146365 -7.229315 -1.518552
N 94.704066 -7.339167 -2.865734
C 95.008020 -6.221028 -3.610344
C 94.989916 -4.982045 -3.104231
C 93.477262 -2.682641 -0.906071
C 92.156908 -3.146710 -1.293274
C 91.270741 -2.213509 -0.957188
C 91.991533 -1.117836 -0.356246
N 93.312618 -1.440595 -0.359071
H 90.251361 0.021820 -0.024714
H 90.417901 2.293801 1.648337
H 92.377160 4.062135 2.296824
H 94.105546 0.816297 0.243453
H 94.552931 5.313542 -0.370377
H 93.679503 7.501731 0.684239
H 95.339774 7.667756 0.090815
H 94.855835 8.463519 2.489001
H 95.602611 7.028289 4.137461
H 95.598099 4.577806 3.700981
H 97.726641 4.328298 1.155802
H 99.477656 2.582872 0.474576
H 99.201977 -2.875637 0.155680
H 97.238081 -4.643768 -0.439403
H 95.621819 -0.757842 -0.516283
H 93.908260 -5.675421 0.040338
H 93.101387 -7.557995 -1.531179
H 94.701900 -7.899892 -0.854853
H 94.379202 -8.132130 -3.404326
H 95.270548 -6.408350 -4.645759
H 95.240893 -4.109244 -3.698044
H 91.933200 -4.081365 -1.774629
H 90.208040 -2.255897 -1.113118
C 246.903278 -0.021602 0.079139
C 246.169403 -1.393645 -0.029192
C 246.763473 -2.633544 0.033710
C 245.738388 -3.595575 -0.163767
C 244.553970 -2.908975 -0.350870
N 244.821181 -1.570106 -0.208989
C 243.133828 -3.527885 -0.690411
C 243.142094 -4.916002 -1.174205
C 243.451672 -5.164988 -2.464933
C 243.520603 -6.532119 -3.070431
N 243.073806 -7.566888 -2.140593
C 242.835155 -7.295923 -0.813207
C 242.841303 -6.054028 -0.313988
C 242.007828 -2.773556 -0.579674
C 240.708410 -3.300019 -0.940877
C 239.805572 -2.342049 -0.765246
N 241.809966 -1.479172 -0.176243
C 240.480950 -1.156620 -0.272331
C 239.814634 -0.003063 -0.000232
C 240.592473 1.264879 0.554407
C 240.052622 2.289586 1.306943
C 241.078639 3.241172 1.532074
C 242.219975 2.766786 0.919972
N 241.927176 1.537499 0.376114
C 243.633196 3.485521 0.866822
C 243.623314 4.942712 1.049014
C 244.014858 5.470988 2.229391
C 244.085459 6.938097 2.518558
N 243.527758 7.741566 1.431633
C 243.223804 7.183871 0.209481
C 243.241908 5.864210 -0.013510
C 244.754562 2.751509 0.642430
C 246.074916 3.349972 0.558004
C 246.961083 2.379787 0.351706
C 246.240291 1.131925 0.284840
N 244.919206 1.407693 0.452570
H 247.980463 -0.011305 -0.034153
H 247.813923 -2.823910 0.190007
H 245.854664 -4.668457 -0.191024
H 244.126278 -0.827801 -0.225045
H 243.678893 -4.325981 -3.117231
H 244.552321 -6.741395 -3.374445
H 242.892050 -6.569681 -3.966248
H 243.375989 -8.510031 -2.347739
H 242.629212 -8.159304 -0.190357
H 242.633725 -5.846821 0.730406
H 240.505183 -4.293194 -1.300956
H 238.754167 -2.450856 -0.959822
H 239.029847 2.355853 1.646432
H 240.993743 4.172078 2.072738
H 242.610005 0.910362 -0.040916
H 244.323564 4.795894 3.024217
H 245.130437 7.224064 2.681079
H 243.529924 7.158106 3.436035
H 243.852622 8.699322 1.391921
H 242.961276 7.888836 -0.571669
H 242.990931 5.435514 -0.978194
H 246.298624 4.397965 0.641620
H 248.023784 2.498001 0.241541
C 100.927665 0.010595 0.009322
C 102.385891 -0.011242 -0.008552
C 103.519819 -0.031995 -0.010043
C 104.881201 -0.044585 -0.012234
C 106.155420 -0.034279 -0.016999
C 107.343882 -0.015481 -0.023155
C 108.696243 0.009304 -0.007287
C 109.796510 0.010595 0.009322
C 119.126569 0.010595 0.009322
C 120.584795 -0.011242 -0.008552
C 121.718723 -0.031995 -0.010043
C 123.080105 -0.044585 -0.012234
C 124.354324 -0.034279 -0.016999
C 125.542786 -0.015481 -0.023155
C 126.895147 0.009304 -0.007287
C 127.995414 0.010595 0.009322
C 137.325473 0.010595 0.009322
C 138.783699 -0.011242 -0.008552
C 139.917627 -0.031995 -0.010043
C 141.279009 -0.044585 -0.012234
C 142.553228 -0.034279 -0.016999
C 143.741690 -0.015481 -0.023155
C 145.094051 0.009304 -0.007287
C 146.194318 0.010595 0.009322
C 155.524377 0.010595 0.009322
C 156.982603 -0.011242 -0.008552
C 158.116531 -0.031995 -0.010043
C 159.477913 -0.044585 -0.012234
C 160.752132 -0.034279 -0.016999
C 161.940594 -0.015481 -0.023155
C 163.292955 0.009304 -0.007287
C 164.393222 0.010595 0.009322
C 173.723281 0.010595 0.009322
C 175.181507 -0.011242 -0.008552
C 176.315435 -0.031995 -0.010043
C 177.676817 -0.044585 -0.012234
C 178.951036 -0.034279 -0.016999
C 180.139498 -0.015481 -0.023155
C 181.491859 0.009304 -0.007287
C 182.592126 0.010595 0.009322
C 191.922185 0.010595 0.009322
C 193.380411 -0.011242 -0.008552
C 194.514339 -0.031995 -0.010043
C 195.875721 -0.044585 -0.012234
C 197.149940 -0.034279 -0.016999
C 198.338402 -0.015481 -0.023155
C 199.690763 0.009304 -0.007287
C 200.791030 0.010595 0.009322
C 210.121089 0.010595 0.009322
C 211.579315 -0.011242 -0.008552
C 212.713243 -0.031995 -0.010043
C 214.074625 -0.044585 -0.012234
C 215.348844 -0.034279 -0.016999
C 216.537306 -0.015481 -0.023155
C 217.889667 0.009304 -0.007287
C 218.989934 0.010595 0.009322
C 228.319993 0.010595 0.009322
C 229.778219 -0.011242 -0.008552
C 230.912147 -0.031995 -0.010043
C 232.273529 -0.044585 -0.012234
C 233.547748 -0.034279 -0.016999
C 234.736210 -0.015481 -0.023155
C 236.088571 0.009304 -0.007287
C 237.188838 0.010595 0.009322
C 110.907876 -0.000780 -0.001402
C 111.683569 -0.148346 1.377695
C 111.110392 -0.129131 2.633555
C 112.150890 -0.268927 3.579699
C 113.336908 -0.367807 2.881254
N 113.043741 -0.288159 1.539690
C 114.776510 -0.515230 3.526753
C 114.800118 -0.765242 4.977278
C 114.739203 -2.036555 5.428769
C 114.798464 -2.424198 6.873486
N 114.761500 -1.259415 7.757265
C 114.932844 0.017070 7.270395
C 114.945337 0.300266 5.962270
C 115.902423 -0.406468 2.773684
C 117.214528 -0.485510 3.381647
C 118.126448 -0.324843 2.431690
N 116.099213 -0.215104 1.431882
C 117.444048 -0.160997 1.163251
C 118.126909 -0.000780 -0.001402
C 117.349857 0.104514 -1.382234
C 117.916329 0.015945 -2.638270
C 116.875899 0.150875 -3.585445
C 115.697439 0.315610 -2.886415
N 115.993325 0.271205 -1.544282
C 114.261461 0.495020 -3.529471
C 114.242235 0.763408 -4.976531
C 114.346466 2.036963 -5.413583
C 114.295189 2.443032 -6.853441
N 114.290351 1.288020 -7.751033
C 114.074427 0.012957 -7.278034
C 114.055647 -0.284649 -5.973259
C 113.134951 0.398533 -2.775627
C 111.823819 0.514221 -3.379329
C 110.910864 0.359848 -2.429554
C 111.592092 0.162468 -1.164983
N 112.937006 0.192596 -1.435978
H 110.060366 -0.017494 2.855465
H 112.046581 -0.285181 4.654548
H 113.728471 -0.288629 0.787210
H 114.657960 -2.843001 4.704798
H 115.717764 -2.990289 7.058498
H 113.950135 -3.072701 7.115006
H 115.126761 -1.412959 8.688885
H 115.054663 0.789739 8.021687
H 115.075200 1.310055 5.587646
H 117.424577 -0.636017 4.425585
H 119.187692 -0.334045 2.599552
H 118.961851 -0.135464 -2.858240
H 116.974864 0.124505 -4.660860
H 115.311318 0.308683 -0.790472
H 114.458679 2.831766 -4.680897
H 113.394097 3.040865 -7.028406
H 115.163345 3.066452 -7.090847
H 113.925331 1.465269 -8.678467
H 113.921117 -0.745793 -8.037476
H 113.888941 -1.293005 -5.609750
H 111.615033 0.684684 -4.420473
H 109.849792 0.394383 -2.595167
C 129.106780 -0.000780 -0.001402
C 129.882473 -0.148346 1.377695
C 129.309296 -0.129131 2.633555
C 130.349794 -0.268927 3.579699
C 131.535812 -0.367807 2.881254
N 131.242645 -0.288159 1.539690
C 132.975414 -0.515230 3.526753
C 132.999022 -0.765242 4.977278
C 132.938107 -2.036555 5.428769
C 132.997368 -2.424198 6.873486
N 132.960404 -1.259415 7.757265
C 133.131748 0.017070 7.270395
C 133.144241 0.300266 5.962270
C 134.101327 -0.406468 2.773684
C 135.413432 -0.485510 3.381647
C 136.325352 -0.324843 2.431690
N 134.298117 -0.215104 1.431882
C 135.642952 -0.160997 1.163251
C 136.325813 -0.000780 -0.001402
C 135.548761 0.104514 -1.382234
C 136.115233 0.015945 -2.638270
C 135.074803 0.150875 -3.585445
C 133.896343 0.315610 -2.886415
N 134.192229 0.271205 -1.544282
C 132.460365 0.495020 -3.529471
C 132.441139 0.763408 -4.976531
C 132.545370 2.036963 -5.413583
C 132.494093 2.443032 -6.853441
N 132.489255 1.288020 -7.751033
C 132.273331 0.012957 -7.278034
C 132.254551 -0.284649 -5.973259
C 131.333855 0.398533 -2.775627
C 130.022723 0.514221 -3.379329
C 129.109768 0.359848 -2.429554
C 129.790996 0.162468 -1.164983
N 131.135910 0.192596 -1.435978
H 128.259270 -0.017494 2.855465
H 130.245485 -0.285181 4.654548
H 131.927375 -0.288629 0.787210
H 132.856864 -2.843001 4.704798
H 133.916668 -2.990289 7.058498
H 132.149039 -3.072701 7.115006
H 133.325665 -1.412959 8.688885
H 133.253567 0.789739 8.021687
H 133.274104 1.310055 5.587646
H 135.623481 -0.636017 4.425585
H 137.386596 -0.334045 2.599552
H 137.160755 -0.135464 -2.858240
H 135.173768 0.124505 -4.660860
H 133.510222 0.308683 -0.790472
H 132.657583 2.831766 -4.680897
H 131.593001 3.040865 -7.028406
H 133.362249 3.066452 -7.090847
H 132.124235 1.465269 -8.678467
H 132.120021 -0.745793 -8.037476
H 132.087845 -1.293005 -5.609750
H 129.813937 0.684684 -4.420473
H 128.048696 0.394383 -2.595167
C 147.305684 -0.000780 -0.001402
C 148.081377 -0.148346 1.377695
C 147.508200 -0.129131 2.633555
C 148.548698 -0.268927 3.579699
C 149.734716 -0.367807 2.881254
N 149.441549 -0.288159 1.539690
C 151.174318 -0.515230 3.526753
C 151.197926 -0.765242 4.977278
C 151.137011 -2.036555 5.428769
C 151.196272 -2.424198 6.873486
N 151.159308 -1.259415 7.757265
C 151.330652 0.017070 7.270395
C 151.343145 0.300266 5.962270
C 152.300231 -0.406468 2.773684
C 153.612336 -0.485510 3.381647
C 154.524256 -0.324843 2.431690
N 152.497021 -0.215104 1.431882
C 153.841856 -0.160997 1.163251
C 154.524717 -0.000780 -0.001402
C 153.747665 0.104514 -1.382234
C 154.314137 0.015945 -2.638270
C 153.273707 0.150875 -3.585445
C 152.095247 0.315610 -2.886415
N 152.391133 0.271205 -1.544282
C 150.659269 0.495020 -3.529471
C 150.640043 0.763408 -4.976531
C 150.744274 2.036963 -5.413583
C 150.692997 2.443032 -6.853441
N 150.688159 1.288020 -7.751033
C 150.472235 0.012957 -7.278034
C 150.453455 -0.284649 -5.973259
C 149.532759 0.398533 -2.775627
C 148.221627 0.514221 -3.379329
C 147.308672 0.359848 -2.429554
C 147.989900 0.162468 -1.164983
N 149.334814 0.192596 -1.435978
H 146.458174 -0.017494 2.855465
H 148.444389 -0.285181 4.654548
H 150.126279 -0.288629 0.787210
H 151.055768 -2.843001 4.704798
H 152.115572 -2.990289 7.058498
H 150.347943 -3.072701 7.115006
H 151.524569 -1.412959 8.688885
H 151.452471 0.789739 8.021687
H 151.473008 1.310055 5.587646
H 153.822385 -0.636017 4.425585
H 155.585500 -0.334045 2.599552
H 155.359659 -0.135464 -2.858240
H 153.372672 0.124505 -4.660860
H 151.709126 0.308683 -0.790472
H 150.856487 2.831766 -4.680897
H 149.791905 3.040865 -7.028406
H 151.561153 3.066452 -7.090847
H 150.323139 1.465269 -8.678467
H 150.318925 -0.745793 -8.037476
H 150.286749 -1.293005 -5.609750
H 148.012841 0.684684 -4.420473
H 146.247600 0.394383 -2.595167
C 165.504588 -0.000780 -0.001402
C 166.280281 -0.148346 1.377695
C 165.707104 -0.129131 2.633555
C 166.747602 -0.268927 3.579699
C 167.933620 -0.367807 2.881254
N 167.640453 -0.288159 1.539690
C 169.373222 -0.515230 3.526753
C 169.396830 -0.765242 4.977278
C 169.335915 -2.036555 5.428769
C 169.395176 -2.424198 6.873486
N 169.358212 -1.259415 7.757265
C 169.529556 0.017070 7.270395
C 169.542049 0.300266 5.962270
C 170.499135 -0.406468 2.773684
C 171.811240 -0.485510 3.381647
C 172.723160 -0.324843 2.431690
N 170.695925 -0.215104 1.431882
C 172.040760 -0.160997 1.163251
C 172.723621 -0.000780 -0.001402
C 171.946569 0.104514 -1.382234
C 172.513041 0.015945 -2.638270
C 171.472611 0.150875 -3.585445
C 170.294151 0.315610 -2.886415
N 170.590037 0.271205 -1.544282
C 168.858173 0.495020 -3.529471
C 168.838947 0.763408 -4.976531
C 168.943178 2.036963 -5.413583
C 168.891901 2.443032 -6.853441
N 168.887063 1.288020 -7.751033
C 168.671139 0.012957 -7.278034
C 168.652359 -0.284649 -5.973259
C 167.731663 0.398533 -2.775627
C 166.420531 0.514221 -3.379329
C 165.507576 0.359848 -2.429554
C 166.188804 0.162468 -1.164983
N 167.533718 0.192596 -1.435978
H 164.657078 -0.017494 2.855465
H 166.643293 -0.285181 4.654548
H 168.325183 -0.288629 0.787210
H 169.254672 -2.843001 4.704798
H 170.314476 -2.990289 7.058498
H 168.546847 -3.072701 7.115006
H 169.723473 -1.412959 8.688885
H 169.651375 0.789739 8.021687
H 169.671912 1.310055 5.587646
H 172.021289 -0.636017 4.425585
H 173.784404 -0.334045 2.599552
H 173.558563 -0.135464 -2.858240
H 171.571576 0.124505 -4.660860
H 169.908030 0.308683 -0.790472
H 169.055391 2.831766 -4.680897
H 167.990810 3.040865 -7.028406
H 169.760057 3.066452 -7.090847
H 168.522043 1.465269 -8.678467
H 168.517829 -0.745793 -8.037476
H 168.485653 -1.293005 -5.609750
H 166.211745 0.684684 -4.420473
H 164.446504 0.394383 -2.595167
C 183.703492 -0.000780 -0.001402
C 184.479185 -0.148346 1.377695
C 183.906008 -0.129131 2.633555
C 184.946506 -0.268927 3.579699
C 186.132524 -0.367807 2.881254
N 185.839357 -0.288159 1.539690
C 187.572126 -0.515230 3.526753
C 187.595734 -0.765242 4.977278
C 187.534819 -2.036555 5.428769
C 187.594080 -2.424198 6.873486
N 187.557116 -1.259415 7.757265
C 187.728460 0.017070 7.270395
C 187.740953 0.300266 5.962270
C 188.698039 -0.406468 2.773684
C 190.010144 -0.485510 3.381647
C 190.922064 -0.324843 2.431690
N 188.894829 -0.215104 1.431882
C 190.239664 -0.160997 1.163251
C 190.922525 -0.000780 -0.001402
C 190.145473 0.104514 -1.382234
C 190.711945 0.015945 -2.638270
C 189.671515 0.150875 -3.585445
C 188.493055 0.315610 -2.886415
N 188.788941 0.271205 -1.544282
C 187.057077 0.495020 -3.529471
C 187.037851 0.763408 -4.976531
C 187.142082 2.036963 -5.413583
C 187.090805 2.443032 -6.853441
N 187.085967 1.288020 -7.751033
C 186.870043 0.012957 -7.278034
C 186.851263 -0.284649 -5.973259
C 185.930567 0.398533 -2.775627
C 184.619435 0.514221 -3.379329
C 183.706480 0.359848 -2.429554
C 184.387708 0.162468 -1.164983
N 185.732622 0.192596 -1.435978
H 182.855982 -0.017494 2.855465
H 184.842197 -0.285181 4.654548
H 186.524087 -0.288629 0.787210
H 187.453576 -2.843001 4.704798
H 188.513380 -2.990289 7.058498
H 186.745751 -3.072701 7.115006
H 187.922377 -1.412959 8.688885
H 187.850279 0.789739 8.021687
H 187.870816 1.310055 5.587646
H 190.220193 -0.636017 4.425585
H 191.983308 -0.334045 2.599552
H 191.757467 -0.135464 -2.858240
H 189.770480 0.124505 -4.660860
H 188.106934 0.308683 -0.790472
H 187.254295 2.831766 -4.680897
H 186.189714 3.040865 -7.028406
H 187.958961 3.066452 -7.090847
H 186.720947 1.465269 -8.678467
H 186.716733 -0.745793 -8.037476
H 186.684557 -1.293005 -5.609750
H 184.410649 0.684684 -4.420473
H 182.645408 0.394383 -2.595167
C 201.902396 -0.000780 -0.001402
C 202.678089 -0.148346 1.377695
C 202.104912 -0.129131 2.633555
C 203.145410 -0.268927 3.579699
C 204.331428 -0.367807 2.881254
N 204.038261 -0.288159 1.539690
C 205.771030 -0.515230 3.526753
C 205.794638 -0.765242 4.977278
C 205.733723 -2.036555 5.428769
C 205.792984 -2.424198 6.873486
N 205.756020 -1.259415 7.757265
C 205.927364 0.017070 7.270395
C 205.939857 0.300266 5.962270
C 206.896943 -0.406468 2.773684
C 208.209048 -0.485510 3.381647
C 209.120968 -0.324843 2.431690
N 207.093733 -0.215104 1.431882
C 208.438568 -0.160997 1.163251
C 209.121429 -0.000780 -0.001402
C 208.344377 0.104514 -1.382234
C 208.910849 0.015945 -2.638270
C 207.870419 0.150875 -3.585445
C 206.691959 0.315610 -2.886415
N 206.987845 0.271205 -1.544282
C 205.255981 0.495020 -3.529471
C 205.236755 0.763408 -4.976531
C 205.340986 2.036963 -5.413583
C 205.289709 2.443032 -6.853441
N 205.284871 1.288020 -7.751033
C 205.068947 0.012957 -7.278034
C 205.050167 -0.284649 -5.973259
C 204.129471 0.398533 -2.775627
C 202.818339 0.514221 -3.379329
C 201.905384 0.359848 -2.429554
C 202.586612 0.162468 -1.164983
N 203.931526 0.192596 -1.435978
H 201.054886 -0.017494 2.855465
H 203.041101 -0.285181 4.654548
H 204.722991 -0.288629 0.787210
H 205.652480 -2.843001 4.704798
H 206.712284 -2.990289 7.058498
H 204.944655 -3.072701 7.115006
H 206.121281 -1.412959 8.688885
H 206.049183 0.789739 8.021687
H 206.069720 1.310055 5.587646
H 208.419097 -0.636017 4.425585
H 210.182212 -0.334045 2.599552
H 209.956371 -0.135464 -2.858240
H 207.969384 0.124505 -4.660860
H 206.305838 0.308683 -0.790472
H 205.453199 2.831766 -4.680897
H 204.388618 3.040865 -7.028406
H 206.157865 3.066452 -7.090847
H 204.919852 1.465269 -8.678467
H 204.915637 -0.745793 -8.037476
H 204.883461 -1.293005 -5.609750
H 202.609553 0.684684 -4.420473
H 200.844312 0.394383 -2.595167
C 220.101300 -0.000780 -0.001402
C 220.876993 -0.148346 1.377695
C 220.303816 -0.129131 2.633555
C 221.344314 -0.268927 3.579699
C 222.530332 -0.367807 2.881254
N 222.237165 -0.288159 1.539690
C 223.969934 -0.515230 3.526753
C 223.993542 -0.765242 4.977278
C 223.932627 -2.036555 5.428769
C 223.991888 -2.424198 6.873486
N 223.954924 -1.259415 7.757265
C 224.126268 0.017070 7.270395
C 224.138761 0.300266 5.962270
C 225.095847 -0.406468 2.773684
C 226.407952 -0.485510 3.381647
C 227.319872 -0.324843 2.431690
N 225.292637 -0.215104 1.431882
C 226.637472 -0.160997 1.163251
C 227.320333 -0.000780 -0.001402
C 226.543281 0.104514 -1.382234
C 227.109753 0.015945 -2.638270
C 226.069323 0.150875 -3.585445
C 224.890863 0.315610 -2.886415
N 225.186749 0.271205 -1.544282
C 223.454885 0.495020 -3.529471
C 223.435659 0.763408 -4.976531
C 223.539890 2.036963 -5.413583
C 223.488613 2.443032 -6.853441
N 223.483775 1.288020 -7.751033
C 223.267851 0.012957 -7.278034
C 223.249071 -0.284649 -5.973259
C 222.328375 0.398533 -2.775627
C 221.017243 0.514221 -3.379329
C 220.104288 0.359848 -2.429554
C 220.785516 0.162468 -1.164983
N 222.130430 0.192596 -1.435978
H 219.253790 -0.017494 2.855465
H 221.240005 -0.285181 4.654548
H 222.921895 -0.288629 0.787210
H 223.851384 -2.843001 4.704798
H 224.911188 -2.990289 7.058498
H 223.143559 -3.072701 7.115006
H 224.320185 -1.412959 8.688885
H 224.248087 0.789739 8.021687
H 224.268624 1.310055 5.587646
H 226.618001 -0.636017 4.425585
H 228.381116 -0.334045 2.599552
H 228.155275 -0.135464 -2.858240
H 226.168288 0.124505 -4.660860
H 224.504742 0.308683 -0.790472
H 223.652103 2.831766 -4.680897
H 222.587522 3.040865 -7.028406
H 224.356769 3.066452 -7.090847
H 223.118756 1.465269 -8.678467
H 223.114542 -0.745793 -8.037476
H 223.082365 -1.293005 -5.609750
H 220.808457 0.684684 -4.420473
H 219.043216 0.394383 -2.595167
