522

C 96.912268 0.098313 0.277852
C 97.645713 1.270981 -0.442845
C 97.048746 2.398695 -0.958287
C 98.072989 3.167978 -1.569545
C 99.260687 2.478922 -1.412765
N 98.994331 1.348223 -0.681762
C 100.674180 2.890953 -1.987101
C 100.703371 3.949318 -2.953789
C 100.713528 4.836183 -3.764647
C 100.723685 5.887673 -4.731004
C 99.925208 5.799584 -5.865927
C 99.969620 6.844090 -6.772801
N 100.741459 7.944543 -6.622057
C 101.505107 7.994642 -5.506709
C 101.531710 7.003147 -4.541318
C 101.802273 2.237436 -1.604246
C 103.098020 2.573026 -2.159349
C 104.005058 1.763403 -1.625313
N 102.008899 1.210579 -0.720536
C 103.338375 0.876843 -0.691692
C 104.012588 -0.068029 0.016426
C 103.243626 -0.999401 1.045223
C 103.793897 -1.639545 2.138333
C 102.766478 -2.401484 2.748850
C 101.615741 -2.197835 2.017113
N 101.904519 -1.303510 1.013484
C 100.203301 -2.849738 2.293824
C 100.172306 -4.090232 3.008152
C 100.156939 -5.134384 3.602418
C 100.133472 -6.379250 4.302134
C 101.173693 -6.719273 5.159762
C 101.103494 -7.937406 5.813404
N 100.085519 -8.816167 5.669081
C 99.092603 -8.451869 4.825887
C 99.069848 -7.257648 4.126665
C 99.075772 -2.242719 1.846549
C 97.749169 -2.780446 2.093079
C 96.857959 -1.959766 1.544416
C 97.580273 -0.877800 0.920931
N 98.907173 -1.092597 1.126857
H 95.829992 0.071246 0.233463
H 95.996296 2.633629 -0.913092
H 97.952571 4.108563 -2.085533
H 99.686318 0.671498 -0.368392
H 99.287720 4.938990 -6.036977
H 99.365028 6.821593 -7.673965
H 102.118108 8.884632 -5.404311
H 102.164152 7.094469 -3.664869
H 103.299850 3.338294 -2.887272
H 105.054307 1.783601 -1.857078
H 104.822806 -1.575065 2.458329
H 102.855856 -3.028339 3.622947
H 101.218775 -0.887142 0.388969
H 102.015314 -6.052502 5.312359
H 101.891298 -8.248206 6.492680
H 98.285429 -9.170424 4.721464
H 98.247606 -7.015866 3.461706
H 97.522591 -3.681463 2.633522
H 95.789402 -2.076642 1.556425
C 235.362582 0.173740 0.210232
C 234.629137 -0.670307 1.297494
C 235.226104 -1.305426 2.362410
C 234.201861 -1.996780 3.060594
C 233.014164 -1.765936 2.392696
N 233.280519 -0.916212 1.348275
C 231.600671 -2.381705 2.739769
C 231.571479 -3.457841 3.686633
C 231.561322 -4.360407 4.479977
C 231.551166 -5.435466 5.420044
C 232.349642 -6.554059 5.208955
C 232.305230 -7.569229 6.148553
N 231.533391 -7.539152 7.258876
C 230.769744 -6.435882 7.430070
C 230.743141 -5.368314 6.549537
C 230.472578 -1.929996 2.131803
C 229.176831 -2.518327 2.404983
C 228.269793 -1.899345 1.658293
N 230.265951 -0.939775 1.207228
C 228.936476 -0.874778 0.878614
C 228.262262 -0.068029 0.016426
C 229.031224 1.056026 -0.797441
C 228.480954 2.212315 -1.314810
C 229.508372 2.902133 -2.005775
C 230.659109 2.152578 -1.882976
N 230.370331 1.057574 -1.103198
C 232.071549 2.498598 -2.500890
C 232.102544 3.343696 -3.656268
C 232.117911 4.048075 -4.629539
C 232.141379 4.879123 -5.790853
C 231.101158 5.768665 -6.035513
C 231.171356 6.551003 -7.175269
N 232.189332 6.503181 -8.064516
C 233.182247 5.625347 -7.794155
C 233.205002 4.800301 -6.683131
C 233.199079 1.987913 -1.946157
C 234.525681 2.291504 -2.453858
C 235.416892 1.656778 -1.697769
C 234.694578 0.919237 -0.690089
N 233.367677 1.147318 -0.881199
H 236.444858 0.132561 0.178495
H 236.278555 -1.286069 2.600867
H 234.322280 -2.612075 3.939432
H 232.588533 -0.531050 0.709677
H 232.987130 -6.630427 4.334857
H 232.909822 -8.462591 6.028109
H 230.156743 -6.430958 8.325918
H 230.110698 -4.507011 6.735708
H 228.975001 -3.325217 3.086479
H 227.220544 -2.131932 1.653147
H 227.452044 2.523392 -1.215885
H 229.418994 3.839264 -2.533770
H 231.056075 0.391453 -0.757274
H 230.259536 5.847785 -5.356094
H 230.383553 7.260071 -7.410291
H 233.989422 5.599750 -8.519807
H 234.027244 4.112977 -6.515158
H 234.752259 2.926801 -3.290701
H 236.485449 1.681436 -1.812644
C 106.469146 -0.053339 0.026702
C 107.927372 -0.075175 0.008828
C 109.061300 -0.095929 0.007337
C 110.422682 -0.108519 0.005146
C 111.696901 -0.098212 0.000381
C 112.885363 -0.079414 -0.005775
C 114.237724 -0.054630 0.010093
C 115.337991 -0.053339 0.026702
C 124.859759 -0.053339 0.026702
C 126.317985 -0.075175 0.008828
C 127.451913 -0.095929 0.007337
C 128.813295 -0.108519 0.005146
C 130.087514 -0.098212 0.000381
C 131.275976 -0.079414 -0.005775
C 132.628337 -0.054630 0.010093
C 133.728604 -0.053339 0.026702
C 143.250371 -0.053339 0.026702
C 144.708598 -0.075175 0.008828
C 145.842526 -0.095929 0.007337
C 147.203907 -0.108519 0.005146
C 148.478126 -0.098212 0.000381
C 149.666589 -0.079414 -0.005775
C 151.018949 -0.054630 0.010093
C 152.119217 -0.053339 0.026702
C 161.640984 -0.053339 0.026702
C 163.099210 -0.075175 0.008828
C 164.233139 -0.095929 0.007337
C 165.594520 -0.108519 0.005146
C 166.868739 -0.098212 0.000381
C 168.057202 -0.079414 -0.005775
C 169.409562 -0.054630 0.010093
C 170.509830 -0.053339 0.026702
C 180.031597 -0.053339 0.026702
C 181.489823 -0.075175 0.008828
C 182.623751 -0.095929 0.007337
C 183.985133 -0.108519 0.005146
C 185.259352 -0.098212 0.000381
C 186.447814 -0.079414 -0.005775
C 187.800175 -0.054630 0.010093
C 188.900442 -0.053339 0.026702
C 198.422210 -0.053339 0.026702
C 199.880436 -0.075175 0.008828
C 201.014364 -0.095929 0.007337
C 202.375746 -0.108519 0.005146
C 203.649965 -0.098212 0.000381
C 204.838427 -0.079414 -0.005775
C 206.190788 -0.054630 0.010093
C 207.291055 -0.053339 0.026702
C 216.812822 -0.053339 0.026702
C 218.271049 -0.075175 0.008828
C 219.404977 -0.095929 0.007337
C 220.766359 -0.108519 0.005146
C 222.040577 -0.098212 0.000381
C 223.229040 -0.079414 -0.005775
C 224.581401 -0.054630 0.010093
C 225.681668 -0.053339 0.026702
C 116.588653 0.031651 -0.009866
C 117.386268 0.098750 -1.376840
C 116.896731 0.505960 -2.600477
C 117.939110 0.341227 -3.548814
C 119.032988 -0.157153 -2.873240
N 118.708044 -0.232738 -1.542448
C 120.417642 -0.570194 -3.503616
C 120.405753 -1.050733 -4.852968
C 120.379339 -1.462160 -5.981648
C 120.350368 -1.967317 -7.316991
C 121.108123 -3.083143 -7.655269
C 121.045378 -3.538381 -8.960457
N 120.292598 -2.964080 -9.926240
C 119.568315 -1.882435 -9.560135
C 119.562713 -1.350424 -8.282458
C 121.554377 -0.505391 -2.765358
C 122.842940 -0.889885 -3.303919
C 123.757985 -0.727343 -2.354263
N 121.769618 -0.117865 -1.471440
C 123.098931 -0.230870 -1.162540
C 123.769371 0.031651 -0.009866
C 122.975209 0.562379 1.256377
C 123.484263 1.317704 2.292944
C 122.443510 1.492054 3.240905
C 121.328370 0.845024 2.750142
N 121.642490 0.346993 1.510074
C 119.935421 0.695612 3.476757
C 119.928956 0.767336 4.907456
C 119.920627 0.850433 6.106452
C 119.893654 0.967020 7.529736
C 118.802183 1.557392 8.158099
C 118.822578 1.654855 9.538670
N 119.838894 1.211235 10.313148
C 120.882251 0.641483 9.667100
C 120.957120 0.496938 8.292273
C 118.801385 0.490099 2.760387
C 117.510568 0.324667 3.397789
C 116.597136 0.138776 2.451025
C 117.258651 0.182117 1.162558
N 118.589460 0.387775 1.413482
H 115.897591 0.864941 -2.794111
H 117.893080 0.548030 -4.607012
H 119.357426 -0.445388 -0.790928
H 121.728638 -3.583270 -6.919254
H 121.618126 -4.406088 -9.272582
H 118.969435 -1.437518 -10.348626
H 118.961272 -0.480377 -8.043450
H 123.033459 -1.245624 -4.300632
H 124.806663 -0.936633 -2.468916
H 124.496360 1.685918 2.370926
H 122.505724 2.016974 4.182289
H 120.984596 -0.084808 0.866350
H 117.960798 1.932651 7.585066
H 117.994016 2.108282 10.074510
H 121.687291 0.290926 10.306089
H 121.819413 0.032155 7.826384
H 117.317112 0.342501 4.455151
H 115.548212 -0.013764 2.629366
C 134.979266 0.031651 -0.009866
C 135.776881 0.098750 -1.376840
C 135.287344 0.505960 -2.600477
C 136.329722 0.341227 -3.548814
C 137.423601 -0.157153 -2.873240
N 137.098657 -0.232738 -1.542448
C 138.808254 -0.570194 -3.503616
C 138.796366 -1.050733 -4.852968
C 138.769952 -1.462160 -5.981648
C 138.740981 -1.967317 -7.316991
C 139.498736 -3.083143 -7.655269
C 139.435991 -3.538381 -8.960457
N 138.683211 -2.964080 -9.926240
C 137.958928 -1.882435 -9.560135
C 137.953326 -1.350424 -8.282458
C 139.944990 -0.505391 -2.765358
C 141.233552 -0.889885 -3.303919
C 142.148598 -0.727343 -2.354263
N 140.160231 -0.117865 -1.471440
C 141.489543 -0.230870 -1.162540
C 142.159984 0.031651 -0.009866
C 141.365822 0.562379 1.256377
C 141.874876 1.317704 2.292944
C 140.834122 1.492054 3.240905
C 139.718983 0.845024 2.750142
N 140.033103 0.346993 1.510074
C 138.326033 0.695612 3.476757
C 138.319569 0.767336 4.907456
C 138.311239 0.850433 6.106452
C 138.284267 0.967020 7.529736
C 137.192796 1.557392 8.158099
C 137.213191 1.654855 9.538670
N 138.229507 1.211235 10.313148
C 139.272864 0.641483 9.667100
C 139.347732 0.496938 8.292273
C 137.191997 0.490099 2.760387
C 135.901180 0.324667 3.397789
C 134.987749 0.138776 2.451025
C 135.649264 0.182117 1.162558
N 136.980073 0.387775 1.413482
H 134.288203 0.864941 -2.794111
H 136.283693 0.548030 -4.607012
H 137.748038 -0.445388 -0.790928
H 140.119250 -3.583270 -6.919254
H 140.008739 -4.406088 -9.272582
H 137.360048 -1.437518 -10.348626
H 137.351884 -0.480377 -8.043450
H 141.424072 -1.245624 -4.300632
H 143.197276 -0.936633 -2.468916
H 142.886973 1.685918 2.370926
H 140.896336 2.016974 4.182289
H 139.375209 -0.084808 0.866350
H 136.351411 1.932651 7.585066
H 136.384629 2.108282 10.074510
H 140.077904 0.290926 10.306089
H 140.210026 0.032155 7.826384
H 135.707725 0.342501 4.455151
H 133.938824 -0.013764 2.629366
C 153.369879 0.031651 -0.009866
C 154.167493 0.098750 -1.376840
C 153.677957 0.505960 -2.600477
C 154.720335 0.341227 -3.548814
C 155.814214 -0.157153 -2.873240
N 155.489270 -0.232738 -1.542448
C 157.198867 -0.570194 -3.503616
C 157.186978 -1.050733 -4.852968
C 157.160565 -1.462160 -5.981648
C 157.131594 -1.967317 -7.316991
C 157.889348 -3.083143 -7.655269
C 157.826604 -3.538381 -8.960457
N 157.073823 -2.964080 -9.926240
C 156.349540 -1.882435 -9.560135
C 156.343938 -1.350424 -8.282458
C 158.335603 -0.505391 -2.765358
C 159.624165 -0.889885 -3.303919
C 160.539211 -0.727343 -2.354263
N 158.550843 -0.117865 -1.471440
C 159.880156 -0.230870 -1.162540
C 160.550597 0.031651 -0.009866
C 159.756435 0.562379 1.256377
C 160.265488 1.317704 2.292944
C 159.224735 1.492054 3.240905
C 158.109596 0.845024 2.750142
N 158.423715 0.346993 1.510074
C 156.716646 0.695612 3.476757
C 156.710182 0.767336 4.907456
C 156.701852 0.850433 6.106452
C 156.674880 0.967020 7.529736
C 155.583409 1.557392 8.158099
C 155.603804 1.654855 9.538670
N 156.620119 1.211235 10.313148
C 157.663476 0.641483 9.667100
C 157.738345 0.496938 8.292273
C 155.582610 0.490099 2.760387
C 154.291793 0.324667 3.397789
C 153.378362 0.138776 2.451025
C 154.039876 0.182117 1.162558
N 155.370686 0.387775 1.413482
H 152.678816 0.864941 -2.794111
H 154.674305 0.548030 -4.607012
H 156.138651 -0.445388 -0.790928
H 158.509863 -3.583270 -6.919254
H 158.399351 -4.406088 -9.272582
H 155.750661 -1.437518 -10.348626
H 155.742497 -0.480377 -8.043450
H 159.814685 -1.245624 -4.300632
H 161.587889 -0.936633 -2.468916
H 161.277586 1.685918 2.370926
H 159.286949 2.016974 4.182289
H 157.765821 -0.084808 0.866350
H 154.742024 1.932651 7.585066
H 154.775242 2.108282 10.074510
H 158.468516 0.290926 10.306089
H 158.600638 0.032155 7.826384
H 154.098338 0.342501 4.455151
H 152.329437 -0.013764 2.629366
C 171.760492 0.031651 -0.009866
C 172.558106 0.098750 -1.376840
C 172.068570 0.505960 -2.600477
C 173.110948 0.341227 -3.548814
C 174.204826 -0.157153 -2.873240
N 173.879883 -0.232738 -1.542448
C 175.589480 -0.570194 -3.503616
C 175.577591 -1.050733 -4.852968
C 175.551178 -1.462160 -5.981648
C 175.522207 -1.967317 -7.316991
C 176.279961 -3.083143 -7.655269
C 176.217217 -3.538381 -8.960457
N 175.464436 -2.964080 -9.926240
C 174.740153 -1.882435 -9.560135
C 174.734551 -1.350424 -8.282458
C 176.726216 -0.505391 -2.765358
C 178.014778 -0.889885 -3.303919
C 178.929824 -0.727343 -2.354263
N 176.941456 -0.117865 -1.471440
C 178.270769 -0.230870 -1.162540
C 178.941209 0.031651 -0.009866
C 178.147047 0.562379 1.256377
C 178.656101 1.317704 2.292944
C 177.615348 1.492054 3.240905
C 176.500208 0.845024 2.750142
N 176.814328 0.346993 1.510074
C 175.107259 0.695612 3.476757
C 175.100795 0.767336 4.907456
C 175.092465 0.850433 6.106452
C 175.065493 0.967020 7.529736
C 173.974022 1.557392 8.158099
C 173.994416 1.654855 9.538670
N 175.010732 1.211235 10.313148
C 176.054089 0.641483 9.667100
C 176.128958 0.496938 8.292273
C 173.973223 0.490099 2.760387
C 172.682406 0.324667 3.397789
C 171.768974 0.138776 2.451025
C 172.430489 0.182117 1.162558
N 173.761299 0.387775 1.413482
H 171.069429 0.864941 -2.794111
H 173.064918 0.548030 -4.607012
H 174.529264 -0.445388 -0.790928
H 176.900476 -3.583270 -6.919254
H 176.789964 -4.406088 -9.272582
H 174.141273 -1.437518 -10.348626
H 174.133110 -0.480377 -8.043450
H 178.205298 -1.245624 -4.300632
H 179.978501 -0.936633 -2.468916
H 179.668198 1.685918 2.370926
H 177.677562 2.016974 4.182289
H 176.156434 -0.084808 0.866350
H 173.132636 1.932651 7.585066
H 173.165854 2.108282 10.074510
H 176.859129 0.290926 10.306089
H 176.991251 0.032155 7.826384
H 172.488951 0.342501 4.455151
H 170.720050 -0.013764 2.629366
C 190.151105 0.031651 -0.009866
C 190.948719 0.098750 -1.376840
C 190.459182 0.505960 -2.600477
C 191.501561 0.341227 -3.548814
C 192.595439 -0.157153 -2.873240
N 192.270496 -0.232738 -1.542448
C 193.980093 -0.570194 -3.503616
C 193.968204 -1.050733 -4.852968
C 193.941790 -1.462160 -5.981648
C 193.912819 -1.967317 -7.316991
C 194.670574 -3.083143 -7.655269
C 194.607829 -3.538381 -8.960457
N 193.855049 -2.964080 -9.926240
C 193.130766 -1.882435 -9.560135
C 193.125164 -1.350424 -8.282458
C 195.116828 -0.505391 -2.765358
C 196.405391 -0.889885 -3.303919
C 197.320437 -0.727343 -2.354263
N 195.332069 -0.117865 -1.471440
C 196.661382 -0.230870 -1.162540
C 197.331822 0.031651 -0.009866
C 196.537660 0.562379 1.256377
C 197.046714 1.317704 2.292944
C 196.005961 1.492054 3.240905
C 194.890821 0.845024 2.750142
N 195.204941 0.346993 1.510074
C 193.497872 0.695612 3.476757
C 193.491408 0.767336 4.907456
C 193.483078 0.850433 6.106452
C 193.456105 0.967020 7.529736
C 192.364634 1.557392 8.158099
C 192.385029 1.654855 9.538670
N 193.401345 1.211235 10.313148
C 194.444702 0.641483 9.667100
C 194.519571 0.496938 8.292273
C 192.363836 0.490099 2.760387
C 191.073019 0.324667 3.397789
C 190.159587 0.138776 2.451025
C 190.821102 0.182117 1.162558
N 192.151911 0.387775 1.413482
H 189.460042 0.864941 -2.794111
H 191.455531 0.548030 -4.607012
H 192.919877 -0.445388 -0.790928
H 195.291089 -3.583270 -6.919254
H 195.180577 -4.406088 -9.272582
H 192.531886 -1.437518 -10.348626
H 192.523723 -0.480377 -8.043450
H 196.595910 -1.245624 -4.300632
H 198.369114 -0.936633 -2.468916
H 198.058811 1.685918 2.370926
H 196.068175 2.016974 4.182289
H 194.547047 -0.084808 0.866350
H 191.523249 1.932651 7.585066
H 191.556467 2.108282 10.074510
H 195.249742 0.290926 10.306089
H 195.381864 0.032155 7.826384
H 190.879563 0.342501 4.455151
H 189.110663 -0.013764 2.629366
C 208.541717 0.031651 -0.009866
C 209.339332 0.098750 -1.376840
C 208.849795 0.505960 -2.600477
C 209.892173 0.341227 -3.548814
C 210.986052 -0.157153 -2.873240
N 210.661108 -0.232738 -1.542448
C 212.370705 -0.570194 -3.503616
C 212.358817 -1.050733 -4.852968
C 212.332403 -1.462160 -5.981648
C 212.303432 -1.967317 -7.316991
C 213.061187 -3.083143 -7.655269
C 212.998442 -3.538381 -8.960457
N 212.245662 -2.964080 -9.926240
C 211.521379 -1.882435 -9.560135
C 211.515777 -1.350424 -8.282458
C 213.507441 -0.505391 -2.765358
C 214.796003 -0.889885 -3.303919
C 215.711049 -0.727343 -2.354263
N 213.722682 -0.117865 -1.471440
C 215.051995 -0.230870 -1.162540
C 215.722435 0.031651 -0.009866
C 214.928273 0.562379 1.256377
C 215.437327 1.317704 2.292944
C 214.396573 1.492054 3.240905
C 213.281434 0.845024 2.750142
N 213.595554 0.346993 1.510074
C 211.888485 0.695612 3.476757
C 211.882020 0.767336 4.907456
C 211.873690 0.850433 6.106452
C 211.846718 0.967020 7.529736
C 210.755247 1.557392 8.158099
C 210.775642 1.654855 9.538670
N 211.791958 1.211235 10.313148
C 212.835315 0.641483 9.667100
C 212.910183 0.496938 8.292273
C 210.754449 0.490099 2.760387
C 209.463631 0.324667 3.397789
C 208.550200 0.138776 2.451025
C 209.211715 0.182117 1.162558
N 210.542524 0.387775 1.413482
H 207.850655 0.864941 -2.794111
H 209.846144 0.548030 -4.607012
H 211.310489 -0.445388 -0.790928
H 213.681701 -3.583270 -6.919254
H 213.571190 -4.406088 -9.272582
H 210.922499 -1.437518 -10.348626
H 210.914335 -0.480377 -8.043450
H 214.986523 -1.245624 -4.300632
H 216.759727 -0.936633 -2.468916
H 216.449424 1.685918 2.370926
H 214.458787 2.016974 4.182289
H 212.937660 -0.084808 0.866350
H 209.913862 1.932651 7.585066
H 209.947080 2.108282 10.074510
H 213.640355 0.290926 10.306089
H 213.772477 0.032155 7.826384
H 209.270176 0.342501 4.455151
H 207.501275 -0.013764 2.629366
