682

C 139.784964 0.103832 -0.013553
C 140.509365 0.015220 1.363550
C 139.889472 -0.017643 2.592540
C 140.910153 -0.135344 3.569932
C 142.121524 -0.169012 2.903924
N 141.864724 -0.054935 1.561040
C 143.553509 -0.346902 3.561409
C 143.606724 -0.618478 5.017346
C 143.805168 0.419745 5.925466
C 143.839997 0.162023 7.303914
C 143.663680 -1.132381 7.831606
N 143.703008 -1.380205 9.216732
C 143.406162 -0.262304 10.108940
C 143.289793 -2.695866 9.694885
C 143.490649 -2.162967 6.886733
C 143.454784 -1.914167 5.506139
C 144.681248 -0.277664 2.802915
C 145.992775 -0.504474 3.374035
C 146.895089 -0.402124 2.405982
N 144.873204 -0.025527 1.468873
C 146.210134 -0.085612 1.167984
C 146.882913 0.093978 -0.000223
C 146.110507 0.485494 -1.332778
C 146.676607 1.042386 -2.464505
C 145.650920 1.190595 -3.429113
C 144.481159 0.734931 -2.856660
N 144.763051 0.345494 -1.567744
C 143.057325 0.690281 -3.558249
C 143.008627 0.838831 -5.029643
C 142.832969 2.093573 -5.610677
C 142.826006 2.235247 -7.005441
C 143.005402 1.138825 -7.871916
N 143.005655 1.304711 -9.271518
C 143.266572 0.134474 -10.104357
C 143.560003 2.563171 -9.770237
C 143.142248 -0.119871 -7.255703
C 143.154582 -0.269880 -5.860722
C 141.935081 0.523304 -2.811324
C 140.606529 0.480268 -3.397080
C 139.722841 0.323755 -2.416179
C 140.451213 0.256391 -1.172984
N 141.775831 0.370476 -1.461644
H 138.703500 0.032486 -0.022217
H 138.824941 0.027533 2.765401
H 140.776520 -0.200120 4.640014
H 142.569484 -0.024031 0.828456
H 143.940867 1.431560 5.550095
H 144.017706 1.015898 7.948211
H 142.423960 0.172559 9.890485
H 143.396110 -0.586504 11.156179
H 144.176740 0.513285 10.045945
H 142.242531 -2.898263 9.444156
H 143.928526 -3.487570 9.288548
H 143.387608 -2.764361 10.784363
H 143.374882 -3.197527 7.189509
H 143.314008 -2.731845 4.802797
H 146.210426 -0.731872 4.402628
H 147.953075 -0.528995 2.544979
H 147.715875 1.304049 -2.592547
H 145.754860 1.583116 -4.429787
H 144.070006 0.042892 -0.887719
H 142.699421 2.961267 -4.968196
H 142.661953 3.235678 -7.390832
H 143.162887 0.386227 -11.166210
H 144.282639 -0.245398 -9.949847
H 142.540309 -0.662993 -9.911963
H 142.915079 3.411993 -9.521846
H 143.631368 2.553153 -10.863613
H 144.568009 2.739025 -9.377685
H 143.260271 -1.027931 -7.835965
H 143.279478 -1.254115 -5.413645
H 140.371712 0.562507 -4.443469
H 138.655322 0.257021 -2.524185
C 262.370731 0.100434 0.015046
C 261.646330 0.336968 -1.344482
C 262.266224 0.592993 -2.546959
C 261.245542 0.707589 -3.524719
C 260.034171 0.518801 -2.885142
N 260.290971 0.315041 -1.552913
C 258.602186 0.499923 -3.566005
C 258.548971 0.577059 -5.045044
C 258.350527 1.799166 -5.684609
C 258.315698 1.871613 -7.085070
C 258.492015 0.736892 -7.901371
N 258.452688 0.820526 -9.306006
C 258.749534 2.116364 -9.911432
C 258.865902 -0.346468 -10.079129
C 258.665046 -0.486403 -7.224288
C 258.700911 -0.568026 -5.823831
C 257.474448 0.389505 -2.812404
C 256.162920 0.302833 -3.420769
C 255.260606 0.175503 -2.455684
N 257.282491 0.322034 -1.456421
C 255.945561 0.193119 -1.177988
C 255.272783 0.093978 -0.000223
C 256.045189 0.162354 1.386973
C 255.479088 0.438559 2.617683
C 256.504776 0.356617 3.590164
C 257.674536 0.047775 2.926878
N 257.392644 -0.028805 1.582593
C 259.098371 -0.160026 3.598473
C 259.147068 -0.360385 5.063711
C 259.322726 0.723280 5.922577
C 259.329690 0.534192 7.311708
C 259.150293 -0.734735 7.897150
N 259.150041 -0.901419 9.296657
C 258.889124 -2.234224 9.832104
C 258.595692 0.205148 10.076371
C 259.013447 -1.814000 7.003158
C 259.001113 -1.632966 5.611863
C 260.220614 -0.147338 2.833217
C 261.549166 -0.326428 3.392581
C 262.432854 -0.248741 2.402314
C 261.704482 -0.022929 1.177945
N 260.379864 0.020343 1.485301
H 263.452195 0.029044 0.006750
H 263.330754 0.677416 -2.704421
H 261.379175 0.895355 -4.580189
H 259.586212 0.173428 -0.833483
H 258.214828 2.694856 -5.082603
H 258.137989 2.852685 -7.511352
H 259.731735 2.487933 -9.597162
H 258.759586 2.046576 -11.005481
H 257.978956 2.855600 -9.668457
H 259.913164 -0.601981 -9.882805
H 258.227169 -1.211343 -9.869614
H 258.768087 -0.157773 -11.154325
H 258.780813 -1.421215 -7.761049
H 258.841687 -1.527745 -5.331666
H 255.945269 0.322783 -4.474010
H 254.202620 0.084733 -2.620540
H 254.439821 0.662935 2.803472
H 256.400835 0.503737 4.654955
H 258.085690 -0.163641 0.850595
H 259.456274 1.717361 5.501298
H 259.493742 1.416468 7.920788
H 258.992809 -2.238291 10.923385
H 257.873056 -2.567317 9.592885
H 259.615386 -2.964409 9.458205
H 259.240616 1.088542 10.033788
H 258.524328 -0.060788 11.136960
H 257.587686 0.468088 9.735952
H 258.895424 -2.832746 7.354492
H 258.876217 -2.485042 4.946610
H 261.783983 -0.491666 4.429108
H 263.500373 -0.338925 2.491677
C 150.647797 0.106414 0.002219
C 149.395527 0.087233 -0.002130
C 151.961465 0.105648 0.004151
C 153.464599 0.087233 -0.002130
C 164.845737 0.106414 0.002219
C 163.593466 0.087233 -0.002130
C 166.159405 0.105648 0.004151
C 167.662538 0.087233 -0.002130
C 179.043676 0.106414 0.002219
C 177.791405 0.087233 -0.002130
C 180.357344 0.105648 0.004151
C 181.860478 0.087233 -0.002130
C 193.241615 0.106414 0.002219
C 191.989345 0.087233 -0.002130
C 194.555283 0.105648 0.004151
C 196.058417 0.087233 -0.002130
C 207.439555 0.106414 0.002219
C 206.187284 0.087233 -0.002130
C 208.753223 0.105648 0.004151
C 210.256356 0.087233 -0.002130
C 221.637494 0.106414 0.002219
C 220.385224 0.087233 -0.002130
C 222.951162 0.105648 0.004151
C 224.454296 0.087233 -0.002130
C 235.835433 0.106414 0.002219
C 234.583163 0.087233 -0.002130
C 237.149102 0.105648 0.004151
C 238.652235 0.087233 -0.002130
C 250.033373 0.106414 0.002219
C 248.781102 0.087233 -0.002130
C 251.347041 0.105648 0.004151
C 252.850175 0.087233 -0.002130
C 154.910724 -0.032762 0.000200
C 155.704511 -0.382733 1.326560
C 155.196759 -0.997805 2.453265
C 156.233976 -1.033779 3.420098
C 157.344630 -0.446459 2.851232
N 157.033875 -0.123639 1.553972
C 158.734770 -0.179380 3.562804
C 158.724256 0.001790 5.032469
C 158.274306 1.195597 5.593035
C 158.236192 1.359683 6.985813
C 158.626125 0.335952 7.868759
N 158.588074 0.480261 9.271096
C 158.112812 1.747436 9.817278
C 158.171367 -0.710215 10.012725
C 159.101778 -0.848839 7.274325
C 159.144461 -1.019852 5.883281
C 159.869389 -0.077634 2.821654
C 161.155999 0.222829 3.414901
C 162.063915 0.265833 2.445818
N 160.077507 -0.198209 1.475434
C 161.401773 -0.006237 1.185691
C 162.065363 -0.032762 0.000200
C 161.271564 -0.331870 -1.338563
C 161.778970 -0.905715 -2.487209
C 160.742058 -0.904546 -3.455032
C 159.631890 -0.337379 -2.864644
N 159.942533 -0.063978 -1.556081
C 158.242123 -0.042440 -3.565887
C 158.253096 0.191270 -5.028101
C 158.712461 1.399618 -5.547064
C 158.749894 1.611194 -6.933758
C 158.349687 0.624021 -7.854502
N 158.386770 0.828882 -9.247752
C 158.565212 -0.358575 -10.081244
C 159.013724 2.047729 -9.750281
C 157.865888 -0.576518 -7.298818
C 157.824752 -0.796211 -5.914064
C 157.107384 0.031861 -2.821247
C 155.820576 0.354636 -3.402327
C 154.912556 0.360234 -2.432167
C 155.574732 0.040145 -1.183439
N 156.899417 -0.139480 -1.480363
H 154.187442 -1.359546 2.577153
H 156.172788 -1.423471 4.425178
H 157.695273 0.216796 0.861776
H 157.950983 2.000882 4.936816
H 157.872568 2.315105 7.347064
H 158.231990 1.763167 10.907189
H 158.700513 2.591045 9.437432
H 157.051042 1.905906 9.595670
H 158.918440 -1.507751 9.951795
H 157.205845 -1.085474 9.653543
H 158.062016 -0.485038 11.080393
H 159.474210 -1.668057 7.879799
H 159.514401 -1.948655 5.454057
H 161.350104 0.394234 4.458903
H 163.108056 0.472973 2.592079
H 162.788048 -1.263971 -2.623799
H 160.802743 -1.256466 -4.474051
H 159.281988 0.252354 -0.851187
H 159.042710 2.179449 -4.863953
H 159.117564 2.577515 -7.260308
H 159.458484 -0.921950 -9.787840
H 157.686884 -1.011472 -10.040886
H 158.684481 -0.084070 -11.136051
H 160.080783 2.078472 -9.502794
H 158.925066 2.108278 -10.841179
H 158.516674 2.942739 -9.359566
H 157.492579 -1.377567 -7.926935
H 157.450770 -1.737737 -5.517511
H 155.625910 0.565644 -4.438774
H 153.868187 0.572745 -2.570088
C 169.108664 -0.032762 0.000200
C 169.902450 -0.382733 1.326560
C 169.394698 -0.997805 2.453265
C 170.431915 -1.033779 3.420098
C 171.542569 -0.446459 2.851232
N 171.231815 -0.123639 1.553972
C 172.932709 -0.179380 3.562804
C 172.922195 0.001790 5.032469
C 172.472245 1.195597 5.593035
C 172.434131 1.359683 6.985813
C 172.824064 0.335952 7.868759
N 172.786013 0.480261 9.271096
C 172.310751 1.747436 9.817278
C 172.369307 -0.710215 10.012725
C 173.299718 -0.848839 7.274325
C 173.342400 -1.019852 5.883281
C 174.067329 -0.077634 2.821654
C 175.353939 0.222829 3.414901
C 176.261854 0.265833 2.445818
N 174.275446 -0.198209 1.475434
C 175.599712 -0.006237 1.185691
C 176.263302 -0.032762 0.000200
C 175.469504 -0.331870 -1.338563
C 175.976909 -0.905715 -2.487209
C 174.939997 -0.904546 -3.455032
C 173.829829 -0.337379 -2.864644
N 174.140472 -0.063978 -1.556081
C 172.440062 -0.042440 -3.565887
C 172.451035 0.191270 -5.028101
C 172.910401 1.399618 -5.547064
C 172.947833 1.611194 -6.933758
C 172.547627 0.624021 -7.854502
N 172.584710 0.828882 -9.247752
C 172.763151 -0.358575 -10.081244
C 173.211664 2.047729 -9.750281
C 172.063828 -0.576518 -7.298818
C 172.022691 -0.796211 -5.914064
C 171.305324 0.031861 -2.821247
C 170.018515 0.354636 -3.402327
C 169.110495 0.360234 -2.432167
C 169.772671 0.040145 -1.183439
N 171.097357 -0.139480 -1.480363
H 168.385381 -1.359546 2.577153
H 170.370728 -1.423471 4.425178
H 171.893212 0.216796 0.861776
H 172.148922 2.000882 4.936816
H 172.070508 2.315105 7.347064
H 172.429930 1.763167 10.907189
H 172.898452 2.591045 9.437432
H 171.248982 1.905906 9.595670
H 173.116380 -1.507751 9.951795
H 171.403784 -1.085474 9.653543
H 172.259955 -0.485038 11.080393
H 173.672150 -1.668057 7.879799
H 173.712341 -1.948655 5.454057
H 175.548043 0.394234 4.458903
H 177.305996 0.472973 2.592079
H 176.985987 -1.263971 -2.623799
H 175.000682 -1.256466 -4.474051
H 173.479927 0.252354 -0.851187
H 173.240649 2.179449 -4.863953
H 173.315503 2.577515 -7.260308
H 173.656423 -0.921950 -9.787840
H 171.884823 -1.011472 -10.040886
H 172.882420 -0.084070 -11.136051
H 174.278722 2.078472 -9.502794
H 173.123005 2.108278 -10.841179
H 172.714613 2.942739 -9.359566
H 171.690518 -1.377567 -7.926935
H 171.648709 -1.737737 -5.517511
H 169.823849 0.565644 -4.438774
H 168.066126 0.572745 -2.570088
C 183.306603 -0.032762 0.000200
C 184.100389 -0.382733 1.326560
C 183.592638 -0.997805 2.453265
C 184.629854 -1.033779 3.420098
C 185.740508 -0.446459 2.851232
N 185.429754 -0.123639 1.553972
C 187.130649 -0.179380 3.562804
C 187.120135 0.001790 5.032469
C 186.670184 1.195597 5.593035
C 186.632071 1.359683 6.985813
C 187.022004 0.335952 7.868759
N 186.983952 0.480261 9.271096
C 186.508691 1.747436 9.817278
C 186.567246 -0.710215 10.012725
C 187.497657 -0.848839 7.274325
C 187.540340 -1.019852 5.883281
C 188.265268 -0.077634 2.821654
C 189.551878 0.222829 3.414901
C 190.459793 0.265833 2.445818
N 188.473385 -0.198209 1.475434
C 189.797651 -0.006237 1.185691
C 190.461241 -0.032762 0.000200
C 189.667443 -0.331870 -1.338563
C 190.174849 -0.905715 -2.487209
C 189.137937 -0.904546 -3.455032
C 188.027768 -0.337379 -2.864644
N 188.338412 -0.063978 -1.556081
C 186.638001 -0.042440 -3.565887
C 186.648974 0.191270 -5.028101
C 187.108340 1.399618 -5.547064
C 187.145773 1.611194 -6.933758
C 186.745566 0.624021 -7.854502
N 186.782649 0.828882 -9.247752
C 186.961091 -0.358575 -10.081244
C 187.409603 2.047729 -9.750281
C 186.261767 -0.576518 -7.298818
C 186.220630 -0.796211 -5.914064
C 185.503263 0.031861 -2.821247
C 184.216455 0.354636 -3.402327
C 183.308434 0.360234 -2.432167
C 183.970610 0.040145 -1.183439
N 185.295296 -0.139480 -1.480363
H 182.583320 -1.359546 2.577153
H 184.568667 -1.423471 4.425178
H 186.091151 0.216796 0.861776
H 186.346861 2.000882 4.936816
H 186.268447 2.315105 7.347064
H 186.627869 1.763167 10.907189
H 187.096391 2.591045 9.437432
H 185.446921 1.905906 9.595670
H 187.314319 -1.507751 9.951795
H 185.601724 -1.085474 9.653543
H 186.457894 -0.485038 11.080393
H 187.870089 -1.668057 7.879799
H 187.910280 -1.948655 5.454057
H 189.745983 0.394234 4.458903
H 191.503935 0.472973 2.592079
H 191.183926 -1.263971 -2.623799
H 189.198621 -1.256466 -4.474051
H 187.677867 0.252354 -0.851187
H 187.438588 2.179449 -4.863953
H 187.513442 2.577515 -7.260308
H 187.854363 -0.921950 -9.787840
H 186.082763 -1.011472 -10.040886
H 187.080359 -0.084070 -11.136051
H 188.476661 2.078472 -9.502794
H 187.320945 2.108278 -10.841179
H 186.912553 2.942739 -9.359566
H 185.888457 -1.377567 -7.926935
H 185.846648 -1.737737 -5.517511
H 184.021789 0.565644 -4.438774
H 182.264065 0.572745 -2.570088
C 197.504542 -0.032762 0.000200
C 198.298329 -0.382733 1.326560
C 197.790577 -0.997805 2.453265
C 198.827794 -1.033779 3.420098
C 199.938448 -0.446459 2.851232
N 199.627693 -0.123639 1.553972
C 201.328588 -0.179380 3.562804
C 201.318074 0.001790 5.032469
C 200.868124 1.195597 5.593035
C 200.830010 1.359683 6.985813
C 201.219943 0.335952 7.868759
N 201.181892 0.480261 9.271096
C 200.706630 1.747436 9.817278
C 200.765185 -0.710215 10.012725
C 201.695596 -0.848839 7.274325
C 201.738279 -1.019852 5.883281
C 202.463207 -0.077634 2.821654
C 203.749817 0.222829 3.414901
C 204.657733 0.265833 2.445818
N 202.671325 -0.198209 1.475434
C 203.995591 -0.006237 1.185691
C 204.659181 -0.032762 0.000200
C 203.865382 -0.331870 -1.338563
C 204.372788 -0.905715 -2.487209
C 203.335876 -0.904546 -3.455032
C 202.225708 -0.337379 -2.864644
N 202.536351 -0.063978 -1.556081
C 200.835941 -0.042440 -3.565887
C 200.846914 0.191270 -5.028101
C 201.306279 1.399618 -5.547064
C 201.343712 1.611194 -6.933758
C 200.943505 0.624021 -7.854502
N 200.980588 0.828882 -9.247752
C 201.159030 -0.358575 -10.081244
C 201.607542 2.047729 -9.750281
C 200.459706 -0.576518 -7.298818
C 200.418570 -0.796211 -5.914064
C 199.701202 0.031861 -2.821247
C 198.414394 0.354636 -3.402327
C 197.506374 0.360234 -2.432167
C 198.168550 0.040145 -1.183439
N 199.493235 -0.139480 -1.480363
H 196.781260 -1.359546 2.577153
H 198.766606 -1.423471 4.425178
H 200.289091 0.216796 0.861776
H 200.544801 2.000882 4.936816
H 200.466386 2.315105 7.347064
H 200.825808 1.763167 10.907189
H 201.294331 2.591045 9.437432
H 199.644860 1.905906 9.595670
H 201.512258 -1.507751 9.951795
H 199.799663 -1.085474 9.653543
H 200.655834 -0.485038 11.080393
H 202.068028 -1.668057 7.879799
H 202.108219 -1.948655 5.454057
H 203.943922 0.394234 4.458903
H 205.701874 0.472973 2.592079
H 205.381866 -1.263971 -2.623799
H 203.396561 -1.256466 -4.474051
H 201.875806 0.252354 -0.851187
H 201.636528 2.179449 -4.863953
H 201.711382 2.577515 -7.260308
H 202.052302 -0.921950 -9.787840
H 200.280702 -1.011472 -10.040886
H 201.278299 -0.084070 -11.136051
H 202.674601 2.078472 -9.502794
H 201.518884 2.108278 -10.841179
H 201.110492 2.942739 -9.359566
H 200.086397 -1.377567 -7.926935
H 200.044588 -1.737737 -5.517511
H 198.219728 0.565644 -4.438774
H 196.462005 0.572745 -2.570088
C 211.702482 -0.032762 0.000200
C 212.496268 -0.382733 1.326560
C 211.988516 -0.997805 2.453265
C 213.025733 -1.033779 3.420098
C 214.136387 -0.446459 2.851232
N 213.825633 -0.123639 1.553972
C 215.526528 -0.179380 3.562804
C 215.516013 0.001790 5.032469
C 215.066063 1.195597 5.593035
C 215.027949 1.359683 6.985813
C 215.417882 0.335952 7.868759
N 215.379831 0.480261 9.271096
C 214.904569 1.747436 9.817278
C 214.963125 -0.710215 10.012725
C 215.893536 -0.848839 7.274325
C 215.936218 -1.019852 5.883281
C 216.661147 -0.077634 2.821654
C 217.947757 0.222829 3.414901
C 218.855672 0.265833 2.445818
N 216.869264 -0.198209 1.475434
C 218.193530 -0.006237 1.185691
C 218.857120 -0.032762 0.000200
C 218.063322 -0.331870 -1.338563
C 218.570728 -0.905715 -2.487209
C 217.533815 -0.904546 -3.455032
C 216.423647 -0.337379 -2.864644
N 216.734290 -0.063978 -1.556081
C 215.033880 -0.042440 -3.565887
C 215.044853 0.191270 -5.028101
C 215.504219 1.399618 -5.547064
C 215.541651 1.611194 -6.933758
C 215.141445 0.624021 -7.854502
N 215.178528 0.828882 -9.247752
C 215.356969 -0.358575 -10.081244
C 215.805482 2.047729 -9.750281
C 214.657646 -0.576518 -7.298818
C 214.616509 -0.796211 -5.914064
C 213.899142 0.031861 -2.821247
C 212.612334 0.354636 -3.402327
C 211.704313 0.360234 -2.432167
C 212.366489 0.040145 -1.183439
N 213.691175 -0.139480 -1.480363
H 210.979199 -1.359546 2.577153
H 212.964546 -1.423471 4.425178
H 214.487030 0.216796 0.861776
H 214.742740 2.000882 4.936816
H 214.664326 2.315105 7.347064
H 215.023748 1.763167 10.907189
H 215.492270 2.591045 9.437432
H 213.842800 1.905906 9.595670
H 215.710198 -1.507751 9.951795
H 213.997602 -1.085474 9.653543
H 214.853773 -0.485038 11.080393
H 216.265968 -1.668057 7.879799
H 216.306159 -1.948655 5.454057
H 218.141861 0.394234 4.458903
H 219.899814 0.472973 2.592079
H 219.579805 -1.263971 -2.623799
H 217.594500 -1.256466 -4.474051
H 216.073745 0.252354 -0.851187
H 215.834467 2.179449 -4.863953
H 215.909321 2.577515 -7.260308
H 216.250242 -0.921950 -9.787840
H 214.478642 -1.011472 -10.040886
H 215.476238 -0.084070 -11.136051
H 216.872540 2.078472 -9.502794
H 215.716823 2.108278 -10.841179
H 215.308431 2.942739 -9.359566
H 214.284336 -1.377567 -7.926935
H 214.242527 -1.737737 -5.517511
H 212.417668 0.565644 -4.438774
H 210.659944 0.572745 -2.570088
C 225.900421 -0.032762 0.000200
C 226.694207 -0.382733 1.326560
C 226.186456 -0.997805 2.453265
C 227.223672 -1.033779 3.420098
C 228.334326 -0.446459 2.851232
N 228.023572 -0.123639 1.553972
C 229.724467 -0.179380 3.562804
C 229.713953 0.001790 5.032469
C 229.264002 1.195597 5.593035
C 229.225889 1.359683 6.985813
C 229.615822 0.335952 7.868759
N 229.577771 0.480261 9.271096
C 229.102509 1.747436 9.817278
C 229.161064 -0.710215 10.012725
C 230.091475 -0.848839 7.274325
C 230.134158 -1.019852 5.883281
C 230.859086 -0.077634 2.821654
C 232.145696 0.222829 3.414901
C 233.053611 0.265833 2.445818
N 231.067203 -0.198209 1.475434
C 232.391469 -0.006237 1.185691
C 233.055059 -0.032762 0.000200
C 232.261261 -0.331870 -1.338563
C 232.768667 -0.905715 -2.487209
C 231.731755 -0.904546 -3.455032
C 230.621586 -0.337379 -2.864644
N 230.932230 -0.063978 -1.556081
C 229.231819 -0.042440 -3.565887
C 229.242792 0.191270 -5.028101
C 229.702158 1.399618 -5.547064
C 229.739591 1.611194 -6.933758
C 229.339384 0.624021 -7.854502
N 229.376467 0.828882 -9.247752
C 229.554909 -0.358575 -10.081244
C 230.003421 2.047729 -9.750281
C 228.855585 -0.576518 -7.298818
C 228.814448 -0.796211 -5.914064
C 228.097081 0.031861 -2.821247
C 226.810273 0.354636 -3.402327
C 225.902253 0.360234 -2.432167
C 226.564428 0.040145 -1.183439
N 227.889114 -0.139480 -1.480363
H 225.177138 -1.359546 2.577153
H 227.162485 -1.423471 4.425178
H 228.684969 0.216796 0.861776
H 228.940679 2.000882 4.936816
H 228.862265 2.315105 7.347064
H 229.221687 1.763167 10.907189
H 229.690209 2.591045 9.437432
H 228.040739 1.905906 9.595670
H 229.908137 -1.507751 9.951795
H 228.195542 -1.085474 9.653543
H 229.051712 -0.485038 11.080393
H 230.463907 -1.668057 7.879799
H 230.504098 -1.948655 5.454057
H 232.339801 0.394234 4.458903
H 234.097753 0.472973 2.592079
H 233.777744 -1.263971 -2.623799
H 231.792439 -1.256466 -4.474051
H 230.271685 0.252354 -0.851187
H 230.032406 2.179449 -4.863953
H 230.107260 2.577515 -7.260308
H 230.448181 -0.921950 -9.787840
H 228.676581 -1.011472 -10.040886
H 229.674177 -0.084070 -11.136051
H 231.070479 2.078472 -9.502794
H 229.914763 2.108278 -10.841179
H 229.506371 2.942739 -9.359566
H 228.482275 -1.377567 -7.926935
H 228.440466 -1.737737 -5.517511
H 226.615607 0.565644 -4.438774
H 224.857883 0.572745 -2.570088
C 240.098360 -0.032762 0.000200
C 240.892147 -0.382733 1.326560
C 240.384395 -0.997805 2.453265
C 241.421612 -1.033779 3.420098
C 242.532266 -0.446459 2.851232
N 242.221511 -0.123639 1.553972
C 243.922406 -0.179380 3.562804
C 243.911892 0.001790 5.032469
C 243.461942 1.195597 5.593035
C 243.423828 1.359683 6.985813
C 243.813761 0.335952 7.868759
N 243.775710 0.480261 9.271096
C 243.300448 1.747436 9.817278
C 243.359003 -0.710215 10.012725
C 244.289414 -0.848839 7.274325
C 244.332097 -1.019852 5.883281
C 245.057026 -0.077634 2.821654
C 246.343635 0.222829 3.414901
C 247.251551 0.265833 2.445818
N 245.265143 -0.198209 1.475434
C 246.589409 -0.006237 1.185691
C 247.252999 -0.032762 0.000200
C 246.459200 -0.331870 -1.338563
C 246.966606 -0.905715 -2.487209
C 245.929694 -0.904546 -3.455032
C 244.819526 -0.337379 -2.864644
N 245.130169 -0.063978 -1.556081
C 243.429759 -0.042440 -3.565887
C 243.440732 0.191270 -5.028101
C 243.900097 1.399618 -5.547064
C 243.937530 1.611194 -6.933758
C 243.537323 0.624021 -7.854502
N 243.574407 0.828882 -9.247752
C 243.752848 -0.358575 -10.081244
C 244.201361 2.047729 -9.750281
C 243.053525 -0.576518 -7.298818
C 243.012388 -0.796211 -5.914064
C 242.295020 0.031861 -2.821247
C 241.008212 0.354636 -3.402327
C 240.100192 0.360234 -2.432167
C 240.762368 0.040145 -1.183439
N 242.087053 -0.139480 -1.480363
H 239.375078 -1.359546 2.577153
H 241.360424 -1.423471 4.425178
H 242.882909 0.216796 0.861776
H 243.138619 2.000882 4.936816
H 243.060204 2.315105 7.347064
H 243.419626 1.763167 10.907189
H 243.888149 2.591045 9.437432
H 242.238678 1.905906 9.595670
H 244.106076 -1.507751 9.951795
H 242.393481 -1.085474 9.653543
H 243.249652 -0.485038 11.080393
H 244.661846 -1.668057 7.879799
H 244.702037 -1.948655 5.454057
H 246.537740 0.394234 4.458903
H 248.295692 0.472973 2.592079
H 247.975684 -1.263971 -2.623799
H 245.990379 -1.256466 -4.474051
H 244.469624 0.252354 -0.851187
H 244.230346 2.179449 -4.863953
H 244.305200 2.577515 -7.260308
H 244.646120 -0.921950 -9.787840
H 242.874520 -1.011472 -10.040886
H 243.872117 -0.084070 -11.136051
H 245.268419 2.078472 -9.502794
H 244.112702 2.108278 -10.841179
H 243.704310 2.942739 -9.359566
H 242.680215 -1.377567 -7.926935
H 242.638406 -1.737737 -5.517511
H 240.813546 0.565644 -4.438774
H 239.055823 0.572745 -2.570088
