540

C 127.229540 0.017051 0.058590
C 127.954407 1.210378 -0.635788
C 127.339602 2.235733 -1.317514
C 128.360617 3.127683 -1.735896
C 129.565017 2.619087 -1.289791
N 129.308814 1.426325 -0.660782
C 130.991626 3.293500 -1.444151
C 131.037397 4.691304 -1.934651
C 131.303060 4.950759 -3.285934
C 131.338842 6.263314 -3.759414
C 131.105041 7.314593 -2.875386
O 131.132693 8.611925 -3.302862
C 130.837458 7.074429 -1.531802
C 130.803533 5.760333 -1.060567
C 132.121433 2.612674 -1.110798
C 133.430445 3.229888 -1.174988
C 134.332600 2.343134 -0.771717
N 132.314735 1.331863 -0.663768
C 133.649082 1.107629 -0.442689
C 134.317065 0.006587 -0.005995
C 133.536976 -1.339294 0.310133
C 134.074014 -2.611951 0.305318
C 133.049223 -3.510513 0.692449
C 131.911561 -2.763524 0.911654
N 132.204969 -1.450002 0.628705
C 130.502780 -3.319852 1.383854
C 130.469091 -4.633270 2.065908
C 130.847802 -4.744396 3.409341
C 130.828104 -5.987443 4.045705
C 130.431218 -7.115538 3.335660
O 130.421987 -8.315475 3.988798
C 130.054043 -7.024624 1.997586
C 130.075816 -5.781018 1.364086
C 129.379114 -2.590746 1.156766
C 128.058889 -3.031673 1.571833
C 127.174073 -2.113425 1.195188
C 127.894512 -1.050614 0.538018
N 129.214430 -1.377682 0.548016
H 126.152898 0.071765 0.166656
H 126.277906 2.338939 -1.480480
H 128.228529 4.050367 -2.280622
H 130.012838 0.804535 -0.270317
H 131.485615 4.113644 -3.956761
H 131.549746 6.434824 -4.808405
H 131.350170 8.597932 -4.248286
H 130.657537 7.898421 -0.850103
H 130.598097 5.553447 -0.012710
H 133.645364 4.238752 -1.479112
H 135.388758 2.531777 -0.711134
H 135.093872 -2.868786 0.062695
H 133.132934 -4.581092 0.803306
H 131.524339 -0.694853 0.606559
H 131.155105 -3.851953 3.949806
H 131.120727 -6.066635 5.086944
H 130.112730 -8.983710 3.357136
H 129.742062 -7.894253 1.431328
H 129.783649 -5.685092 0.320189
H 127.830821 -3.940766 2.098417
H 126.112141 -2.145805 1.358090
C 225.676741 0.055239 0.037749
C 224.951874 -1.174380 0.665625
C 225.566679 -2.302476 1.159083
C 224.545664 -3.136925 1.682832
C 223.341264 -2.486578 1.496478
N 223.597467 -1.312238 0.833710
C 221.914656 -2.981288 1.980133
C 221.868884 -4.150081 2.890280
C 221.603221 -5.426872 2.377358
C 221.567440 -6.535228 3.225020
C 221.801240 -6.360573 4.587440
O 221.773589 -7.422004 5.447191
C 222.068823 -5.100695 5.112420
C 222.102748 -3.993393 4.262246
C 220.784848 -2.332577 1.587929
C 219.475836 -2.720508 2.072268
C 218.573681 -1.901579 1.544712
N 220.591546 -1.263641 0.752652
C 219.257199 -0.956393 0.683691
C 218.589216 0.006587 -0.005995
C 219.369305 1.000642 -0.966820
C 218.832267 1.685171 -2.039712
C 219.857058 2.496916 -2.585932
C 220.994721 2.277101 -1.839122
N 220.701312 1.328456 -0.887559
C 222.403501 2.975220 -2.051499
C 222.437191 4.259451 -2.787037
C 222.058479 5.449385 -2.153620
C 222.078177 6.657117 -2.854698
C 222.475064 6.670341 -4.187585
O 222.484295 7.868854 -4.843331
C 222.852239 5.495848 -4.835100
C 222.830465 4.290224 -4.132003
C 223.527167 2.389755 -1.561198
C 224.847392 2.977387 -1.707438
C 225.732208 2.163810 -1.138989
C 225.011769 1.036099 -0.600745
N 223.691851 1.221468 -0.870396
H 226.753383 0.116518 0.142233
H 226.628375 -2.495369 1.157704
H 224.677752 -4.094256 2.164070
H 222.893443 -0.647440 0.522056
H 221.420666 -5.538102 1.310400
H 221.356535 -7.510212 2.801694
H 221.556111 -8.209522 4.923896
H 222.248744 -4.973220 6.174223
H 222.308184 -3.000223 4.655207
H 219.260917 -3.522123 2.756161
H 217.517524 -1.952696 1.736137
H 217.812409 1.620091 -2.386980
H 219.773347 3.169388 -3.426294
H 221.381942 0.901254 -0.264471
H 221.751176 5.421048 -1.110665
H 221.785554 7.575632 -2.357929
H 222.793551 7.699188 -5.747073
H 223.164219 5.490151 -5.872823
H 223.122632 3.360419 -4.616136
H 225.075460 3.912107 -2.187061
H 226.794140 2.318328 -1.078081
C 136.593393 0.006587 -0.005995
C 137.815311 0.006587 -0.005995
C 147.807333 0.006587 -0.005995
C 149.029250 0.006587 -0.005995
C 159.021272 0.006587 -0.005995
C 160.243190 0.006587 -0.005995
C 170.235212 0.006587 -0.005995
C 171.457130 0.006587 -0.005995
C 181.449152 0.006587 -0.005995
C 182.671069 0.006587 -0.005995
C 192.663091 0.006587 -0.005995
C 193.885009 0.006587 -0.005995
C 203.877031 0.006587 -0.005995
C 205.098949 0.006587 -0.005995
C 215.090971 0.006587 -0.005995
C 216.312888 0.006587 -0.005995
C 139.245506 -0.002174 0.001979
C 140.049648 -1.033746 -0.903338
C 139.538877 -1.764952 -1.960617
C 140.574717 -2.582247 -2.457410
C 141.694660 -2.328307 -1.685633
N 141.383630 -1.331384 -0.794410
C 143.097978 -3.062695 -1.820175
C 143.100515 -4.406777 -2.438344
C 143.573132 -4.579594 -3.747476
C 143.578064 -5.843617 -4.337422
C 143.098444 -6.932018 -3.612525
O 143.082027 -8.184840 -4.158481
C 142.607401 -6.778997 -2.321718
C 142.608371 -5.513595 -1.734806
C 144.227771 -2.462171 -1.369592
C 145.521343 -3.109934 -1.436920
C 146.433779 -2.273048 -0.945528
N 144.429754 -1.242272 -0.797103
C 145.760334 -1.058381 -0.536843
C 146.416253 -0.002174 0.001979
C 145.616243 1.303124 0.432774
C 146.161213 2.554903 0.635467
C 145.139997 3.387280 1.134450
C 143.978643 2.638893 1.171030
N 144.276124 1.376733 0.718067
C 142.562847 3.137500 1.706445
C 142.533123 4.354575 2.551299
C 142.681450 5.614791 1.960040
C 142.641678 6.773397 2.741035
C 142.416090 6.667925 4.112020
O 142.321595 7.815588 4.844438
C 142.273202 5.420941 4.720980
C 142.344417 4.264482 3.938059
C 141.425604 2.449136 1.394266
C 140.126134 2.866688 1.878359
C 139.219930 1.995396 1.432455
C 139.897783 1.013880 0.617719
N 141.227020 1.345243 0.629891
H 138.524574 -1.722651 -2.323084
H 140.516032 -3.295202 -3.272530
H 142.048070 -0.869957 -0.177026
H 143.942724 -3.713286 -4.296722
H 143.970974 -5.947842 -5.336143
H 143.383202 -8.100068 -5.077079
H 142.220202 -7.631997 -1.782265
H 142.224861 -5.370162 -0.726696
H 145.729804 -4.099615 -1.810847
H 147.483017 -2.488407 -0.866102
H 147.194960 2.828964 0.491386
H 145.245916 4.415900 1.456368
H 143.603547 0.627023 0.605986
H 142.829598 5.679216 0.884055
H 142.767034 7.748009 2.286826
H 141.709341 7.618923 5.581049
H 142.107538 5.328308 5.786214
H 142.229406 3.282372 4.386550
H 139.910001 3.725208 2.489438
H 138.163942 2.052898 1.630901
C 150.459446 -0.002174 0.001979
C 151.263588 -1.033746 -0.903338
C 150.752817 -1.764952 -1.960617
C 151.788657 -2.582247 -2.457410
C 152.908600 -2.328307 -1.685633
N 152.597569 -1.331384 -0.794410
C 154.311917 -3.062695 -1.820175
C 154.314455 -4.406777 -2.438344
C 154.787072 -4.579594 -3.747476
C 154.792003 -5.843617 -4.337422
C 154.312383 -6.932018 -3.612525
O 154.295967 -8.184840 -4.158481
C 153.821340 -6.778997 -2.321718
C 153.822310 -5.513595 -1.734806
C 155.441711 -2.462171 -1.369592
C 156.735283 -3.109934 -1.436920
C 157.647719 -2.273048 -0.945528
N 155.643694 -1.242272 -0.797103
C 156.974274 -1.058381 -0.536843
C 157.630193 -0.002174 0.001979
C 156.830182 1.303124 0.432774
C 157.375153 2.554903 0.635467
C 156.353937 3.387280 1.134450
C 155.192583 2.638893 1.171030
N 155.490064 1.376733 0.718067
C 153.776787 3.137500 1.706445
C 153.747062 4.354575 2.551299
C 153.895389 5.614791 1.960040
C 153.855617 6.773397 2.741035
C 153.630030 6.667925 4.112020
O 153.535534 7.815588 4.844438
C 153.487141 5.420941 4.720980
C 153.558357 4.264482 3.938059
C 152.639544 2.449136 1.394266
C 151.340073 2.866688 1.878359
C 150.433870 1.995396 1.432455
C 151.111722 1.013880 0.617719
N 152.440959 1.345243 0.629891
H 149.738514 -1.722651 -2.323084
H 151.729971 -3.295202 -3.272530
H 153.262010 -0.869957 -0.177026
H 155.156664 -3.713286 -4.296722
H 155.184914 -5.947842 -5.336143
H 154.597141 -8.100068 -5.077079
H 153.434141 -7.631997 -1.782265
H 153.438801 -5.370162 -0.726696
H 156.943744 -4.099615 -1.810847
H 158.696957 -2.488407 -0.866102
H 158.408899 2.828964 0.491386
H 156.459855 4.415900 1.456368
H 154.817487 0.627023 0.605986
H 154.043537 5.679216 0.884055
H 153.980973 7.748009 2.286826
H 152.923280 7.618923 5.581049
H 153.321478 5.328308 5.786214
H 153.443345 3.282372 4.386550
H 151.123941 3.725208 2.489438
H 149.377882 2.052898 1.630901
C 161.673386 -0.002174 0.001979
C 162.477527 -1.033746 -0.903338
C 161.966757 -1.764952 -1.960617
C 163.002596 -2.582247 -2.457410
C 164.122539 -2.328307 -1.685633
N 163.811509 -1.331384 -0.794410
C 165.525857 -3.062695 -1.820175
C 165.528394 -4.406777 -2.438344
C 166.001012 -4.579594 -3.747476
C 166.005943 -5.843617 -4.337422
C 165.526323 -6.932018 -3.612525
O 165.509907 -8.184840 -4.158481
C 165.035280 -6.778997 -2.321718
C 165.036250 -5.513595 -1.734806
C 166.655650 -2.462171 -1.369592
C 167.949222 -3.109934 -1.436920
C 168.861659 -2.273048 -0.945528
N 166.857633 -1.242272 -0.797103
C 168.188214 -1.058381 -0.536843
C 168.844132 -0.002174 0.001979
C 168.044122 1.303124 0.432774
C 168.589093 2.554903 0.635467
C 167.567877 3.387280 1.134450
C 166.406522 2.638893 1.171030
N 166.704003 1.376733 0.718067
C 164.990727 3.137500 1.706445
C 164.961002 4.354575 2.551299
C 165.109329 5.614791 1.960040
C 165.069557 6.773397 2.741035
C 164.843970 6.667925 4.112020
O 164.749474 7.815588 4.844438
C 164.701081 5.420941 4.720980
C 164.772297 4.264482 3.938059
C 163.853484 2.449136 1.394266
C 162.554013 2.866688 1.878359
C 161.647810 1.995396 1.432455
C 162.325662 1.013880 0.617719
N 163.654899 1.345243 0.629891
H 160.952454 -1.722651 -2.323084
H 162.943911 -3.295202 -3.272530
H 164.475950 -0.869957 -0.177026
H 166.370603 -3.713286 -4.296722
H 166.398853 -5.947842 -5.336143
H 165.811081 -8.100068 -5.077079
H 164.648081 -7.631997 -1.782265
H 164.652740 -5.370162 -0.726696
H 168.157683 -4.099615 -1.810847
H 169.910896 -2.488407 -0.866102
H 169.622839 2.828964 0.491386
H 167.673795 4.415900 1.456368
H 166.031426 0.627023 0.605986
H 165.257477 5.679216 0.884055
H 165.194913 7.748009 2.286826
H 164.137220 7.618923 5.581049
H 164.535417 5.328308 5.786214
H 164.657285 3.282372 4.386550
H 162.337880 3.725208 2.489438
H 160.591821 2.052898 1.630901
C 172.887325 -0.002174 0.001979
C 173.691467 -1.033746 -0.903338
C 173.180696 -1.764952 -1.960617
C 174.216536 -2.582247 -2.457410
C 175.336479 -2.328307 -1.685633
N 175.025449 -1.331384 -0.794410
C 176.739797 -3.062695 -1.820175
C 176.742334 -4.406777 -2.438344
C 177.214951 -4.579594 -3.747476
C 177.219883 -5.843617 -4.337422
C 176.740263 -6.932018 -3.612525
O 176.723846 -8.184840 -4.158481
C 176.249220 -6.778997 -2.321718
C 176.250189 -5.513595 -1.734806
C 177.869590 -2.462171 -1.369592
C 179.163162 -3.109934 -1.436920
C 180.075598 -2.273048 -0.945528
N 178.071573 -1.242272 -0.797103
C 179.402153 -1.058381 -0.536843
C 180.058072 -0.002174 0.001979
C 179.258062 1.303124 0.432774
C 179.803032 2.554903 0.635467
C 178.781816 3.387280 1.134450
C 177.620462 2.638893 1.171030
N 177.917943 1.376733 0.718067
C 176.204666 3.137500 1.706445
C 176.174942 4.354575 2.551299
C 176.323269 5.614791 1.960040
C 176.283497 6.773397 2.741035
C 176.057909 6.667925 4.112020
O 175.963414 7.815588 4.844438
C 175.915021 5.420941 4.720980
C 175.986236 4.264482 3.938059
C 175.067423 2.449136 1.394266
C 173.767953 2.866688 1.878359
C 172.861749 1.995396 1.432455
C 173.539602 1.013880 0.617719
N 174.868839 1.345243 0.629891
H 172.166393 -1.722651 -2.323084
H 174.157851 -3.295202 -3.272530
H 175.689889 -0.869957 -0.177026
H 177.584543 -3.713286 -4.296722
H 177.612793 -5.947842 -5.336143
H 177.025021 -8.100068 -5.077079
H 175.862021 -7.631997 -1.782265
H 175.866680 -5.370162 -0.726696
H 179.371623 -4.099615 -1.810847
H 181.124836 -2.488407 -0.866102
H 180.836779 2.828964 0.491386
H 178.887735 4.415900 1.456368
H 177.245366 0.627023 0.605986
H 176.471417 5.679216 0.884055
H 176.408853 7.748009 2.286826
H 175.351159 7.618923 5.581049
H 175.749357 5.328308 5.786214
H 175.871225 3.282372 4.386550
H 173.551820 3.725208 2.489438
H 171.805761 2.052898 1.630901
C 184.101265 -0.002174 0.001979
C 184.905407 -1.033746 -0.903338
C 184.394636 -1.764952 -1.960617
C 185.430476 -2.582247 -2.457410
C 186.550419 -2.328307 -1.685633
N 186.239388 -1.331384 -0.794410
C 187.953736 -3.062695 -1.820175
C 187.956274 -4.406777 -2.438344
C 188.428891 -4.579594 -3.747476
C 188.433822 -5.843617 -4.337422
C 187.954202 -6.932018 -3.612525
O 187.937786 -8.184840 -4.158481
C 187.463159 -6.778997 -2.321718
C 187.464129 -5.513595 -1.734806
C 189.083529 -2.462171 -1.369592
C 190.377102 -3.109934 -1.436920
C 191.289538 -2.273048 -0.945528
N 189.285513 -1.242272 -0.797103
C 190.616093 -1.058381 -0.536843
C 191.272012 -0.002174 0.001979
C 190.472001 1.303124 0.432774
C 191.016972 2.554903 0.635467
C 189.995756 3.387280 1.134450
C 188.834402 2.638893 1.171030
N 189.131883 1.376733 0.718067
C 187.418606 3.137500 1.706445
C 187.388881 4.354575 2.551299
C 187.537208 5.614791 1.960040
C 187.497436 6.773397 2.741035
C 187.271849 6.667925 4.112020
O 187.177353 7.815588 4.844438
C 187.128960 5.420941 4.720980
C 187.200176 4.264482 3.938059
C 186.281363 2.449136 1.394266
C 184.981892 2.866688 1.878359
C 184.075689 1.995396 1.432455
C 184.753541 1.013880 0.617719
N 186.082778 1.345243 0.629891
H 183.380333 -1.722651 -2.323084
H 185.371790 -3.295202 -3.272530
H 186.903829 -0.869957 -0.177026
H 188.798483 -3.713286 -4.296722
H 188.826733 -5.947842 -5.336143
H 188.238960 -8.100068 -5.077079
H 187.075960 -7.631997 -1.782265
H 187.080620 -5.370162 -0.726696
H 190.585563 -4.099615 -1.810847
H 192.338776 -2.488407 -0.866102
H 192.050718 2.828964 0.491386
H 190.101674 4.415900 1.456368
H 188.459306 0.627023 0.605986
H 187.685356 5.679216 0.884055
H 187.622792 7.748009 2.286826
H 186.565099 7.618923 5.581049
H 186.963297 5.328308 5.786214
H 187.085164 3.282372 4.386550
H 184.765760 3.725208 2.489438
H 183.019701 2.052898 1.630901
C 195.315205 -0.002174 0.001979
C 196.119346 -1.033746 -0.903338
C 195.608576 -1.764952 -1.960617
C 196.644415 -2.582247 -2.457410
C 197.764358 -2.328307 -1.685633
N 197.453328 -1.331384 -0.794410
C 199.167676 -3.062695 -1.820175
C 199.170213 -4.406777 -2.438344
C 199.642830 -4.579594 -3.747476
C 199.647762 -5.843617 -4.337422
C 199.168142 -6.932018 -3.612525
O 199.151726 -8.184840 -4.158481
C 198.677099 -6.778997 -2.321718
C 198.678069 -5.513595 -1.734806
C 200.297469 -2.462171 -1.369592
C 201.591041 -3.109934 -1.436920
C 202.503478 -2.273048 -0.945528
N 200.499452 -1.242272 -0.797103
C 201.830033 -1.058381 -0.536843
C 202.485951 -0.002174 0.001979
C 201.685941 1.303124 0.432774
C 202.230911 2.554903 0.635467
C 201.209696 3.387280 1.134450
C 200.048341 2.638893 1.171030
N 200.345822 1.376733 0.718067
C 198.632545 3.137500 1.706445
C 198.602821 4.354575 2.551299
C 198.751148 5.614791 1.960040
C 198.711376 6.773397 2.741035
C 198.485789 6.667925 4.112020
O 198.391293 7.815588 4.844438
C 198.342900 5.420941 4.720980
C 198.414116 4.264482 3.938059
C 197.495303 2.449136 1.394266
C 196.195832 2.866688 1.878359
C 195.289629 1.995396 1.432455
C 195.967481 1.013880 0.617719
N 197.296718 1.345243 0.629891
H 194.594273 -1.722651 -2.323084
H 196.585730 -3.295202 -3.272530
H 198.117769 -0.869957 -0.177026
H 200.012422 -3.713286 -4.296722
H 200.040672 -5.947842 -5.336143
H 199.452900 -8.100068 -5.077079
H 198.289900 -7.631997 -1.782265
H 198.294559 -5.370162 -0.726696
H 201.799502 -4.099615 -1.810847
H 203.552715 -2.488407 -0.866102
H 203.264658 2.828964 0.491386
H 201.315614 4.415900 1.456368
H 199.673245 0.627023 0.605986
H 198.899296 5.679216 0.884055
H 198.836732 7.748009 2.286826
H 197.779039 7.618923 5.581049
H 198.177236 5.328308 5.786214
H 198.299104 3.282372 4.386550
H 195.979699 3.725208 2.489438
H 194.233640 2.052898 1.630901
C 206.529144 -0.002174 0.001979
C 207.333286 -1.033746 -0.903338
C 206.822515 -1.764952 -1.960617
C 207.858355 -2.582247 -2.457410
C 208.978298 -2.328307 -1.685633
N 208.667268 -1.331384 -0.794410
C 210.381616 -3.062695 -1.820175
C 210.384153 -4.406777 -2.438344
C 210.856770 -4.579594 -3.747476
C 210.861702 -5.843617 -4.337422
C 210.382082 -6.932018 -3.612525
O 210.365665 -8.184840 -4.158481
C 209.891039 -6.778997 -2.321718
C 209.892008 -5.513595 -1.734806
C 211.511409 -2.462171 -1.369592
C 212.804981 -3.109934 -1.436920
C 213.717417 -2.273048 -0.945528
N 211.713392 -1.242272 -0.797103
C 213.043972 -1.058381 -0.536843
C 213.699891 -0.002174 0.001979
C 212.899881 1.303124 0.432774
C 213.444851 2.554903 0.635467
C 212.423635 3.387280 1.134450
C 211.262281 2.638893 1.171030
N 211.559762 1.376733 0.718067
C 209.846485 3.137500 1.706445
C 209.816761 4.354575 2.551299
C 209.965088 5.614791 1.960040
C 209.925315 6.773397 2.741035
C 209.699728 6.667925 4.112020
O 209.605233 7.815588 4.844438
C 209.556840 5.420941 4.720980
C 209.628055 4.264482 3.938059
C 208.709242 2.449136 1.394266
C 207.409772 2.866688 1.878359
C 206.503568 1.995396 1.432455
C 207.181421 1.013880 0.617719
N 208.510658 1.345243 0.629891
H 205.808212 -1.722651 -2.323084
H 207.799670 -3.295202 -3.272530
H 209.331708 -0.869957 -0.177026
H 211.226362 -3.713286 -4.296722
H 211.254612 -5.947842 -5.336143
H 210.666840 -8.100068 -5.077079
H 209.503840 -7.631997 -1.782265
H 209.508499 -5.370162 -0.726696
H 213.013442 -4.099615 -1.810847
H 214.766655 -2.488407 -0.866102
H 214.478598 2.828964 0.491386
H 212.529554 4.415900 1.456368
H 210.887185 0.627023 0.605986
H 210.113236 5.679216 0.884055
H 210.050672 7.748009 2.286826
H 208.992978 7.618923 5.581049
H 209.391176 5.328308 5.786214
H 209.513044 3.282372 4.386550
H 207.193639 3.725208 2.489438
H 205.447580 2.052898 1.630901
