 xtb: 6.5.1 (b24c23e)
          07302203393D

223252  0     0  0            999 V2000
   31.2284    0.0096    0.0652 Co  0  0  0  0  0  0  0  0  0  0  0  0
   27.8487   -0.0566    0.1574 C   0  0  0  0  0  0  0  0  0  0  0  0
   28.5185    0.5896    1.1733 C   0  0  0  0  0  0  0  0  0  0  0  0
   27.8587    1.2415    2.2637 C   0  0  0  0  0  0  0  0  0  0  0  0
   28.8145    1.9069    2.9524 C   0  0  0  0  0  0  0  0  0  0  0  0
   30.0585    1.6542    2.2868 C   0  0  0  0  0  0  0  0  0  0  0  0
   29.8719    0.8121    1.2193 N   0  0  0  0  0  0  0  0  0  0  0  0
   31.2481    2.2897    2.6072 C   0  0  0  0  0  0  0  0  0  0  0  0
   32.4321    2.0132    1.9445 C   0  0  0  0  0  0  0  0  0  0  0  0
   33.6856    2.6220    2.2735 C   0  0  0  0  0  0  0  0  0  0  0  0
   34.6352    1.9735    1.5590 C   0  0  0  0  0  0  0  0  0  0  0  0
   32.6093    1.0251    1.0020 N   0  0  0  0  0  0  0  0  0  0  0  0
   33.9595    0.9735    0.7935 C   0  0  0  0  0  0  0  0  0  0  0  0
   34.6282    0.0277    0.0163 C   0  0  0  0  0  0  0  0  0  0  0  0
   33.9471   -0.9128   -0.7558 C   0  0  0  0  0  0  0  0  0  0  0  0
   34.6091   -1.8999   -1.5501 C   0  0  0  0  0  0  0  0  0  0  0  0
   33.6474   -2.5308   -2.2642 C   0  0  0  0  0  0  0  0  0  0  0  0
   32.4014   -1.9233   -1.9065 C   0  0  0  0  0  0  0  0  0  0  0  0
   31.1977   -2.2187   -2.5237 C   0  0  0  0  0  0  0  0  0  0  0  0
   31.1882   -3.1900   -3.6512 C   0  0  0  0  0  0  0  0  0  0  0  0
   31.7866   -2.8601   -4.8747 C   0  0  0  0  0  0  0  0  0  0  0  0
   32.3390   -1.6209   -4.9501 O   0  0  0  0  0  0  0  0  0  0  0  0
   32.9827   -1.1932   -6.1329 C   0  0  0  0  0  0  0  0  0  0  0  0
   31.7834   -3.7721   -5.9297 C   0  0  0  0  0  0  0  0  0  0  0  0
   31.1868   -5.0117   -5.7551 C   0  0  0  0  0  0  0  0  0  0  0  0
   30.5902   -5.3609   -4.5530 C   0  0  0  0  0  0  0  0  0  0  0  0
   30.5886   -4.4474   -3.4993 C   0  0  0  0  0  0  0  0  0  0  0  0
   30.0383   -4.7000   -2.2827 O   0  0  0  0  0  0  0  0  0  0  0  0
   29.4151   -5.9409   -2.0215 C   0  0  0  0  0  0  0  0  0  0  0  0
   30.0032   -1.6455   -2.1175 C   0  0  0  0  0  0  0  0  0  0  0  0
   28.7390   -1.9114   -2.7382 C   0  0  0  0  0  0  0  0  0  0  0  0
   27.7953   -1.3100   -1.9776 C   0  0  0  0  0  0  0  0  0  0  0  0
   28.4857   -0.6686   -0.8996 C   0  0  0  0  0  0  0  0  0  0  0  0
   29.8420   -0.8385   -1.0196 N   0  0  0  0  0  0  0  0  0  0  0  0
   32.5931   -0.9618   -0.9407 N   0  0  0  0  0  0  0  0  0  0  0  0
   31.2536    3.3006    3.7002 C   0  0  0  0  0  0  0  0  0  0  0  0
   31.0964    2.9053    5.0349 C   0  0  0  0  0  0  0  0  0  0  0  0
   30.9505    1.5703    5.2453 O   0  0  0  0  0  0  0  0  0  0  0  0
   30.7716    1.0670    6.5535 C   0  0  0  0  0  0  0  0  0  0  0  0
   31.1033    3.8544    6.0567 C   0  0  0  0  0  0  0  0  0  0  0  0
   31.2623    5.1948    5.7387 C   0  0  0  0  0  0  0  0  0  0  0  0
   31.4161    5.6098    4.4246 C   0  0  0  0  0  0  0  0  0  0  0  0
   31.4139    4.6604    3.4032 C   0  0  0  0  0  0  0  0  0  0  0  0
   31.5521    4.9674    2.0863 O   0  0  0  0  0  0  0  0  0  0  0  0
   31.7066    6.3108    1.6762 C   0  0  0  0  0  0  0  0  0  0  0  0
   26.7655   -0.0761    0.1868 H   0  0  0  0  0  0  0  0  0  0  0  0
   26.7970    1.1970    2.4489 H   0  0  0  0  0  0  0  0  0  0  0  0
   28.7016    2.5257    3.8277 H   0  0  0  0  0  0  0  0  0  0  0  0
   33.8107    3.4308    2.9747 H   0  0  0  0  0  0  0  0  0  0  0  0
   35.7010    2.1364    1.5463 H   0  0  0  0  0  0  0  0  0  0  0  0
   35.6742   -2.0678   -1.5540 H   0  0  0  0  0  0  0  0  0  0  0  0
   33.7577   -3.3303   -2.9788 H   0  0  0  0  0  0  0  0  0  0  0  0
   32.2883   -1.1654   -6.9814 H   0  0  0  0  0  0  0  0  0  0  0  0
   33.3449   -0.1831   -5.9331 H   0  0  0  0  0  0  0  0  0  0  0  0
   33.8341   -1.8381   -6.3825 H   0  0  0  0  0  0  0  0  0  0  0  0
   32.2395   -3.5259   -6.8792 H   0  0  0  0  0  0  0  0  0  0  0  0
   31.1869   -5.7220   -6.5746 H   0  0  0  0  0  0  0  0  0  0  0  0
   30.1345   -6.3360   -4.4445 H   0  0  0  0  0  0  0  0  0  0  0  0
   29.0572   -5.8900   -0.9914 H   0  0  0  0  0  0  0  0  0  0  0  0
   28.5628   -6.1117   -2.6904 H   0  0  0  0  0  0  0  0  0  0  0  0
   30.1225   -6.7738   -2.1160 H   0  0  0  0  0  0  0  0  0  0  0  0
   28.6078   -2.4972   -3.6337 H   0  0  0  0  0  0  0  0  0  0  0  0
   26.7251   -1.2946   -2.1115 H   0  0  0  0  0  0  0  0  0  0  0  0
   30.6697   -0.0150    6.4514 H   0  0  0  0  0  0  0  0  0  0  0  0
   29.8646    1.4716    7.0190 H   0  0  0  0  0  0  0  0  0  0  0  0
   31.6359    1.2886    7.1914 H   0  0  0  0  0  0  0  0  0  0  0  0
   30.9866    3.5593    7.0909 H   0  0  0  0  0  0  0  0  0  0  0  0
   31.2661    5.9328    6.5334 H   0  0  0  0  0  0  0  0  0  0  0  0
   31.5361    6.6623    4.2055 H   0  0  0  0  0  0  0  0  0  0  0  0
   32.6140    6.7586    2.0993 H   0  0  0  0  0  0  0  0  0  0  0  0
   31.7921    6.2881    0.5882 H   0  0  0  0  0  0  0  0  0  0  0  0
   30.8379    6.9188    1.9565 H   0  0  0  0  0  0  0  0  0  0  0  0
   58.0011   -0.1669    0.0569 Co  0  0  0  0  0  0  0  0  0  0  0  0
   61.3492   -0.4931    0.2672 C   0  0  0  0  0  0  0  0  0  0  0  0
   60.6640   -1.3078   -0.6087 C   0  0  0  0  0  0  0  0  0  0  0  0
   61.2958   -2.2807   -1.4478 C   0  0  0  0  0  0  0  0  0  0  0  0
   60.3575   -2.6999   -2.3290 C   0  0  0  0  0  0  0  0  0  0  0  0
   59.1484   -1.9980   -2.0148 C   0  0  0  0  0  0  0  0  0  0  0  0
   59.3364   -1.1789   -0.9314 N   0  0  0  0  0  0  0  0  0  0  0  0
   57.9956   -2.0419   -2.7873 C   0  0  0  0  0  0  0  0  0  0  0  0
   56.8337   -1.3907   -2.4083 C   0  0  0  0  0  0  0  0  0  0  0  0
   55.5982   -1.4799   -3.1269 C   0  0  0  0  0  0  0  0  0  0  0  0
   54.6407   -0.9534   -2.3264 C   0  0  0  0  0  0  0  0  0  0  0  0
   56.6402   -0.7529   -1.2025 N   0  0  0  0  0  0  0  0  0  0  0  0
   55.2958   -0.5299   -1.1294 C   0  0  0  0  0  0  0  0  0  0  0  0
   54.6149   -0.0504   -0.0058 C   0  0  0  0  0  0  0  0  0  0  0  0
   55.2924    0.4586    1.1053 C   0  0  0  0  0  0  0  0  0  0  0  0
   54.6305    1.0178    2.2420 C   0  0  0  0  0  0  0  0  0  0  0  0
   55.5879    1.6139    2.9927 C   0  0  0  0  0  0  0  0  0  0  0  0
   56.8326    1.4065    2.3171 C   0  0  0  0  0  0  0  0  0  0  0  0
   58.0375    1.9608    2.7191 C   0  0  0  0  0  0  0  0  0  0  0  0
   58.0435    2.9053    3.8680 C   0  0  0  0  0  0  0  0  0  0  0  0
   57.4171    4.1546    3.7563 C   0  0  0  0  0  0  0  0  0  0  0  0
   56.8464    4.4270    2.5541 O   0  0  0  0  0  0  0  0  0  0  0  0
   56.1602    5.6446    2.3447 C   0  0  0  0  0  0  0  0  0  0  0  0
   57.4154    5.0416    4.8323 C   0  0  0  0  0  0  0  0  0  0  0  0
   58.0336    4.6742    6.0178 C   0  0  0  0  0  0  0  0  0  0  0  0
   58.6552    3.4422    6.1535 C   0  0  0  0  0  0  0  0  0  0  0  0
   58.6617    2.5562    5.0767 C   0  0  0  0  0  0  0  0  0  0  0  0
   59.2325    1.3236    5.1195 O   0  0  0  0  0  0  0  0  0  0  0  0
   59.8881    0.8768    6.2889 C   0  0  0  0  0  0  0  0  0  0  0  0
   59.2363    1.6317    2.1033 C   0  0  0  0  0  0  0  0  0  0  0  0
   60.5140    2.1399    2.5078 C   0  0  0  0  0  0  0  0  0  0  0  0
   61.4495    1.4200    1.8453 C   0  0  0  0  0  0  0  0  0  0  0  0
   60.7415    0.4927    1.0155 C   0  0  0  0  0  0  0  0  0  0  0  0
   59.3869    0.6681    1.1383 N   0  0  0  0  0  0  0  0  0  0  0  0
   56.6428    0.6504    1.1837 N   0  0  0  0  0  0  0  0  0  0  0  0
   57.9949   -2.8364   -4.0455 C   0  0  0  0  0  0  0  0  0  0  0  0
   58.0433   -4.2359   -4.0038 C   0  0  0  0  0  0  0  0  0  0  0  0
   58.0893   -4.7921   -2.7642 O   0  0  0  0  0  0  0  0  0  0  0  0
   58.1215   -6.1965   -2.6099 C   0  0  0  0  0  0  0  0  0  0  0  0
   58.0319   -4.9769   -5.1850 C   0  0  0  0  0  0  0  0  0  0  0  0
   57.9758   -4.3155   -6.4024 C   0  0  0  0  0  0  0  0  0  0  0  0
   57.9278   -2.9311   -6.4683 C   0  0  0  0  0  0  0  0  0  0  0  0
   57.9337   -2.1901   -5.2871 C   0  0  0  0  0  0  0  0  0  0  0  0
   57.8913   -0.8322   -5.2467 O   0  0  0  0  0  0  0  0  0  0  0  0
   57.8165   -0.0820   -6.4419 C   0  0  0  0  0  0  0  0  0  0  0  0
   62.4238   -0.6106    0.3456 H   0  0  0  0  0  0  0  0  0  0  0  0
   62.3317   -2.5716   -1.3725 H   0  0  0  0  0  0  0  0  0  0  0  0
   60.4627   -3.4143   -3.1291 H   0  0  0  0  0  0  0  0  0  0  0  0
   55.4870   -1.9140   -4.1071 H   0  0  0  0  0  0  0  0  0  0  0  0
   53.5826   -0.8588   -2.5113 H   0  0  0  0  0  0  0  0  0  0  0  0
   53.5675    0.9693    2.4162 H   0  0  0  0  0  0  0  0  0  0  0  0
   55.4749    2.1520    3.9199 H   0  0  0  0  0  0  0  0  0  0  0  0
   56.8289    6.5072    2.4529 H   0  0  0  0  0  0  0  0  0  0  0  0
   55.7844    5.6087    1.3206 H   0  0  0  0  0  0  0  0  0  0  0  0
   55.3148    5.7524    3.0351 H   0  0  0  0  0  0  0  0  0  0  0  0
   56.9390    6.0096    4.7540 H   0  0  0  0  0  0  0  0  0  0  0  0
   58.0303    5.3632    6.8552 H   0  0  0  0  0  0  0  0  0  0  0  0
   59.1263    3.1804    7.0915 H   0  0  0  0  0  0  0  0  0  0  0  0
   60.2617   -0.1239    6.0638 H   0  0  0  0  0  0  0  0  0  0  0  0
   60.7329    1.5262    6.5489 H   0  0  0  0  0  0  0  0  0  0  0  0
   59.1987    0.8207    7.1400 H   0  0  0  0  0  0  0  0  0  0  0  0
   60.6598    2.9309    3.2255 H   0  0  0  0  0  0  0  0  0  0  0  0
   62.5243    1.4939    1.8991 H   0  0  0  0  0  0  0  0  0  0  0  0
   58.1514   -6.3832   -1.5348 H   0  0  0  0  0  0  0  0  0  0  0  0
   59.0141   -6.6319   -3.0756 H   0  0  0  0  0  0  0  0  0  0  0  0
   57.2258   -6.6676   -3.0325 H   0  0  0  0  0  0  0  0  0  0  0  0
   58.0655   -6.0580   -5.1637 H   0  0  0  0  0  0  0  0  0  0  0  0
   57.9685   -4.8920   -7.3209 H   0  0  0  0  0  0  0  0  0  0  0  0
   57.8852   -2.4416   -7.4320 H   0  0  0  0  0  0  0  0  0  0  0  0
   56.9099   -0.3220   -7.0107 H   0  0  0  0  0  0  0  0  0  0  0  0
   57.7832    0.9666   -6.1405 H   0  0  0  0  0  0  0  0  0  0  0  0
   58.6962   -0.2467   -7.0758 H   0  0  0  0  0  0  0  0  0  0  0  0
   37.2564    0.0267   -0.0197 C   0  0  0  0  0  0  0  0  0  0  0  0
   36.0353    0.0291    0.0014 C   0  0  0  0  0  0  0  0  0  0  0  0
   38.6078    0.0248   -0.0365 C   0  0  0  0  0  0  0  0  0  0  0  0
   39.8293    0.0192   -0.0483 C   0  0  0  0  0  0  0  0  0  0  0  0
   50.6425   -0.0475   -0.0359 C   0  0  0  0  0  0  0  0  0  0  0  0
   49.4194   -0.0441   -0.0481 C   0  0  0  0  0  0  0  0  0  0  0  0
   51.9901   -0.0489   -0.0247 C   0  0  0  0  0  0  0  0  0  0  0  0
   53.2131   -0.0463   -0.0134 C   0  0  0  0  0  0  0  0  0  0  0  0
   44.6269    0.0371   -0.0555 Co  0  0  0  0  0  0  0  0  0  0  0  0
   41.2348    0.0123   -0.0520 C   0  0  0  0  0  0  0  0  0  0  0  0
   41.9136   -0.1892    1.1519 C   0  0  0  0  0  0  0  0  0  0  0  0
   41.2600   -0.4295    2.3999 C   0  0  0  0  0  0  0  0  0  0  0  0
   42.2178   -0.3701    3.3565 C   0  0  0  0  0  0  0  0  0  0  0  0
   43.4506   -0.0827    2.6889 C   0  0  0  0  0  0  0  0  0  0  0  0
   43.2614   -0.0455    1.3271 N   0  0  0  0  0  0  0  0  0  0  0  0
   44.6300    0.2529    3.3375 C   0  0  0  0  0  0  0  0  0  0  0  0
   45.8067    0.4913    2.6436 C   0  0  0  0  0  0  0  0  0  0  0  0
   47.0375    0.8918    3.2532 C   0  0  0  0  0  0  0  0  0  0  0  0
   47.9930    0.8104    2.2950 C   0  0  0  0  0  0  0  0  0  0  0  0
   45.9968    0.2313    1.3064 N   0  0  0  0  0  0  0  0  0  0  0  0
   47.3399    0.3677    1.1041 C   0  0  0  0  0  0  0  0  0  0  0  0
   48.0186   -0.0348   -0.0512 C   0  0  0  0  0  0  0  0  0  0  0  0
   47.3338   -0.4242   -1.2068 C   0  0  0  0  0  0  0  0  0  0  0  0
   47.9823   -0.8677   -2.4004 C   0  0  0  0  0  0  0  0  0  0  0  0
   47.0259   -0.9359   -3.3583 C   0  0  0  0  0  0  0  0  0  0  0  0
   45.7991   -0.5247   -2.7467 C   0  0  0  0  0  0  0  0  0  0  0  0
   44.6273   -0.2666   -3.4409 C   0  0  0  0  0  0  0  0  0  0  0  0
   44.6292   -0.3690   -4.9241 C   0  0  0  0  0  0  0  0  0  0  0  0
   43.8658   -1.3526   -5.5691 C   0  0  0  0  0  0  0  0  0  0  0  0
   43.1635   -2.1862   -4.7589 O   0  0  0  0  0  0  0  0  0  0  0  0
   42.3478   -3.2021   -5.3068 C   0  0  0  0  0  0  0  0  0  0  0  0
   43.8680   -1.4470   -6.9604 C   0  0  0  0  0  0  0  0  0  0  0  0
   44.6282   -0.5555   -7.7020 C   0  0  0  0  0  0  0  0  0  0  0  0
   45.3891    0.4268   -7.0867 C   0  0  0  0  0  0  0  0  0  0  0  0
   45.3922    0.5193   -5.6953 C   0  0  0  0  0  0  0  0  0  0  0  0
   46.0947    1.4545   -5.0046 O   0  0  0  0  0  0  0  0  0  0  0  0
   46.9129    2.3851   -5.6845 C   0  0  0  0  0  0  0  0  0  0  0  0
   43.4523    0.0874   -2.7925 C   0  0  0  0  0  0  0  0  0  0  0  0
   42.2260    0.4026   -3.4587 C   0  0  0  0  0  0  0  0  0  0  0  0
   41.2678    0.4712   -2.5023 C   0  0  0  0  0  0  0  0  0  0  0  0
   41.9153    0.2093   -1.2560 C   0  0  0  0  0  0  0  0  0  0  0  0
   43.2587    0.0322   -1.4328 N   0  0  0  0  0  0  0  0  0  0  0  0
   45.9901   -0.2836   -1.4051 N   0  0  0  0  0  0  0  0  0  0  0  0
   44.6341    0.3608    4.8202 C   0  0  0  0  0  0  0  0  0  0  0  0
   45.3851   -0.5370    5.5923 C   0  0  0  0  0  0  0  0  0  0  0  0
   46.0693   -1.4860    4.9026 O   0  0  0  0  0  0  0  0  0  0  0  0
   46.8715   -2.4305    5.5824 C   0  0  0  0  0  0  0  0  0  0  0  0
   45.3886   -0.4386    6.9832 C   0  0  0  0  0  0  0  0  0  0  0  0
   44.6461    0.5589    7.5967 C   0  0  0  0  0  0  0  0  0  0  0  0
   43.8979    1.4596    6.8540 C   0  0  0  0  0  0  0  0  0  0  0  0
   43.8895    1.3596    5.4631 C   0  0  0  0  0  0  0  0  0  0  0  0
   43.1990    2.2021    4.6516 O   0  0  0  0  0  0  0  0  0  0  0  0
   42.3979    3.2301    5.1986 C   0  0  0  0  0  0  0  0  0  0  0  0
   40.2024   -0.6063    2.5126 H   0  0  0  0  0  0  0  0  0  0  0  0
   42.1098   -0.4899    4.4222 H   0  0  0  0  0  0  0  0  0  0  0  0
   47.1458    1.1819    4.2857 H   0  0  0  0  0  0  0  0  0  0  0  0
   49.0487    1.0153    2.3746 H   0  0  0  0  0  0  0  0  0  0  0  0
   49.0362   -1.0807   -2.4810 H   0  0  0  0  0  0  0  0  0  0  0  0
   47.1316   -1.2195   -4.3928 H   0  0  0  0  0  0  0  0  0  0  0  0
   41.5605   -2.7838   -5.9456 H   0  0  0  0  0  0  0  0  0  0  0  0
   41.8878   -3.7119   -4.4583 H   0  0  0  0  0  0  0  0  0  0  0  0
   42.9380   -3.9239   -5.8842 H   0  0  0  0  0  0  0  0  0  0  0  0
   43.2857   -2.2051   -7.4667 H   0  0  0  0  0  0  0  0  0  0  0  0
   44.6276   -0.6279   -8.7840 H   0  0  0  0  0  0  0  0  0  0  0  0
   45.9704    1.1108   -7.6903 H   0  0  0  0  0  0  0  0  0  0  0  0
   47.3752    3.0031   -4.9126 H   0  0  0  0  0  0  0  0  0  0  0  0
   46.3242    3.0246   -6.3534 H   0  0  0  0  0  0  0  0  0  0  0  0
   47.6983    1.8824   -6.2618 H   0  0  0  0  0  0  0  0  0  0  0  0
   42.1218    0.5362   -4.5232 H   0  0  0  0  0  0  0  0  0  0  0  0
   40.2140    0.6707   -2.6141 H   0  0  0  0  0  0  0  0  0  0  0  0
   46.2734   -3.0541    6.2578 H   0  0  0  0  0  0  0  0  0  0  0  0
   47.3160   -3.0617    4.8108 H   0  0  0  0  0  0  0  0  0  0  0  0
   47.6708   -1.9416    6.1525 H   0  0  0  0  0  0  0  0  0  0  0  0
   45.9613   -1.1290    7.5877 H   0  0  0  0  0  0  0  0  0  0  0  0
   44.6506    0.6361    8.6785 H   0  0  0  0  0  0  0  0  0  0  0  0
   43.3301    2.2294    7.3591 H   0  0  0  0  0  0  0  0  0  0  0  0
   42.9989    3.9455    5.7729 H   0  0  0  0  0  0  0  0  0  0  0  0
   41.6067    2.8238    5.8402 H   0  0  0  0  0  0  0  0  0  0  0  0
   41.9429    3.7440    4.3499 H   0  0  0  0  0  0  0  0  0  0  0  0
  2  3  4  0  0  0  0
  3  4  1  0  0  0  0
  4  5  2  0  0  0  0
  5  6  4  0  0  0  0
  1  7  1  0  0  0  0
  3  7  4  0  0  0  0
  6  7  4  0  0  0  0
  6  8  4  0  0  0  0
  8  9  4  0  0  0  0
  9 10  4  0  0  0  0
 10 11  2  0  0  0  0
  1 12  1  0  0  0  0
  9 12  4  0  0  0  0
 11 13  4  0  0  0  0
 12 13  4  0  0  0  0
 13 14  4  0  0  0  0
 14 15  4  0  0  0  0
 15 16  4  0  0  0  0
 16 17  2  0  0  0  0
 17 18  4  0  0  0  0
 18 19  4  0  0  0  0
 19 20  1  0  0  0  0
 20 21  4  0  0  0  0
 21 22  1  0  0  0  0
 22 23  1  0  0  0  0
 21 24  4  0  0  0  0
 24 25  4  0  0  0  0
 25 26  4  0  0  0  0
 20 27  4  0  0  0  0
 26 27  4  0  0  0  0
 27 28  1  0  0  0  0
 28 29  1  0  0  0  0
 19 30  4  0  0  0  0
 30 31  4  0  0  0  0
 31 32  2  0  0  0  0
  2 33  4  0  0  0  0
 32 33  1  0  0  0  0
  1 34  1  0  0  0  0
 30 34  4  0  0  0  0
 33 34  4  0  0  0  0
  1 35  1  0  0  0  0
 15 35  4  0  0  0  0
 18 35  4  0  0  0  0
  8 36  1  0  0  0  0
 36 37  4  0  0  0  0
 37 38  1  0  0  0  0
 38 39  1  0  0  0  0
 37 40  4  0  0  0  0
 40 41  4  0  0  0  0
 41 42  4  0  0  0  0
 36 43  4  0  0  0  0
 42 43  4  0  0  0  0
 43 44  1  0  0  0  0
 44 45  1  0  0  0  0
  2 46  1  0  0  0  0
  4 47  1  0  0  0  0
  5 48  1  0  0  0  0
 10 49  1  0  0  0  0
 11 50  1  0  0  0  0
 16 51  1  0  0  0  0
 17 52  1  0  0  0  0
 23 53  1  0  0  0  0
 23 54  1  0  0  0  0
 23 55  1  0  0  0  0
 24 56  1  0  0  0  0
 25 57  1  0  0  0  0
 26 58  1  0  0  0  0
 29 59  1  0  0  0  0
 29 60  1  0  0  0  0
 29 61  1  0  0  0  0
 31 62  1  0  0  0  0
 32 63  1  0  0  0  0
 39 64  1  0  0  0  0
 39 65  1  0  0  0  0
 39 66  1  0  0  0  0
 40 67  1  0  0  0  0
 41 68  1  0  0  0  0
 42 69  1  0  0  0  0
 45 70  1  0  0  0  0
 45 71  1  0  0  0  0
 45 72  1  0  0  0  0
 74 75  4  0  0  0  0
 75 76  1  0  0  0  0
 76 77  2  0  0  0  0
 77 78  4  0  0  0  0
 73 79  1  0  0  0  0
 75 79  4  0  0  0  0
 78 79  4  0  0  0  0
 78 80  4  0  0  0  0
 80 81  4  0  0  0  0
 81 82  4  0  0  0  0
 82 83  2  0  0  0  0
 73 84  1  0  0  0  0
 81 84  4  0  0  0  0
 83 85  4  0  0  0  0
 84 85  4  0  0  0  0
 85 86  4  0  0  0  0
 86 87  4  0  0  0  0
 87 88  4  0  0  0  0
 88 89  2  0  0  0  0
 89 90  4  0  0  0  0
 90 91  4  0  0  0  0
 91 92  1  0  0  0  0
 92 93  4  0  0  0  0
 93 94  1  0  0  0  0
 94 95  1  0  0  0  0
 93 96  4  0  0  0  0
 96 97  4  0  0  0  0
 97 98  4  0  0  0  0
 92 99  4  0  0  0  0
 98 99  4  0  0  0  0
 99100  1  0  0  0  0
100101  1  0  0  0  0
 91102  4  0  0  0  0
102103  4  0  0  0  0
103104  2  0  0  0  0
 74105  4  0  0  0  0
104105  1  0  0  0  0
 73106  1  0  0  0  0
102106  4  0  0  0  0
105106  4  0  0  0  0
 73107  1  0  0  0  0
 87107  4  0  0  0  0
 90107  4  0  0  0  0
 80108  1  0  0  0  0
108109  4  0  0  0  0
109110  1  0  0  0  0
110111  1  0  0  0  0
109112  4  0  0  0  0
112113  4  0  0  0  0
113114  4  0  0  0  0
108115  4  0  0  0  0
114115  4  0  0  0  0
115116  1  0  0  0  0
116117  1  0  0  0  0
 74118  1  0  0  0  0
 76119  1  0  0  0  0
 77120  1  0  0  0  0
 82121  1  0  0  0  0
 83122  1  0  0  0  0
 88123  1  0  0  0  0
 89124  1  0  0  0  0
 95125  1  0  0  0  0
 95126  1  0  0  0  0
 95127  1  0  0  0  0
 96128  1  0  0  0  0
 97129  1  0  0  0  0
 98130  1  0  0  0  0
101131  1  0  0  0  0
101132  1  0  0  0  0
101133  1  0  0  0  0
103134  1  0  0  0  0
104135  1  0  0  0  0
111136  1  0  0  0  0
111137  1  0  0  0  0
111138  1  0  0  0  0
112139  1  0  0  0  0
113140  1  0  0  0  0
114141  1  0  0  0  0
117142  1  0  0  0  0
117143  1  0  0  0  0
117144  1  0  0  0  0
 14146  1  0  0  0  0
145146  3  0  0  0  0
145147  4  0  0  0  0
147148  3  0  0  0  0
149150  3  0  0  0  0
149151  4  0  0  0  0
 86152  4  0  0  0  0
151152  3  0  0  0  0
148154  1  0  0  0  0
154155  4  0  0  0  0
155156  4  0  0  0  0
156157  2  0  0  0  0
157158  4  0  0  0  0
153159  1  0  0  0  0
155159  4  0  0  0  0
158159  4  0  0  0  0
158160  4  0  0  0  0
160161  4  0  0  0  0
161162  4  0  0  0  0
162163  2  0  0  0  0
153164  1  0  0  0  0
161164  4  0  0  0  0
163165  4  0  0  0  0
164165  4  0  0  0  0
150166  4  0  0  0  0
165166  4  0  0  0  0
166167  4  0  0  0  0
167168  4  0  0  0  0
168169  2  0  0  0  0
169170  4  0  0  0  0
170171  4  0  0  0  0
171172  1  0  0  0  0
172173  4  0  0  0  0
173174  1  0  0  0  0
174175  1  0  0  0  0
173176  4  0  0  0  0
176177  4  0  0  0  0
177178  4  0  0  0  0
172179  4  0  0  0  0
178179  4  0  0  0  0
179180  1  0  0  0  0
180181  1  0  0  0  0
171182  4  0  0  0  0
182183  4  0  0  0  0
183184  2  0  0  0  0
154185  4  0  0  0  0
184185  4  0  0  0  0
153186  1  0  0  0  0
182186  4  0  0  0  0
185186  4  0  0  0  0
153187  1  0  0  0  0
167187  4  0  0  0  0
170187  4  0  0  0  0
160188  1  0  0  0  0
188189  4  0  0  0  0
189190  1  0  0  0  0
190191  1  0  0  0  0
189192  4  0  0  0  0
192193  4  0  0  0  0
193194  4  0  0  0  0
188195  4  0  0  0  0
194195  4  0  0  0  0
195196  1  0  0  0  0
196197  1  0  0  0  0
156198  1  0  0  0  0
157199  1  0  0  0  0
162200  1  0  0  0  0
163201  1  0  0  0  0
168202  1  0  0  0  0
169203  1  0  0  0  0
175204  1  0  0  0  0
175205  1  0  0  0  0
175206  1  0  0  0  0
176207  1  0  0  0  0
177208  1  0  0  0  0
178209  1  0  0  0  0
181210  1  0  0  0  0
181211  1  0  0  0  0
181212  1  0  0  0  0
183213  1  0  0  0  0
184214  1  0  0  0  0
191215  1  0  0  0  0
191216  1  0  0  0  0
191217  1  0  0  0  0
192218  1  0  0  0  0
193219  1  0  0  0  0
194220  1  0  0  0  0
197221  1  0  0  0  0
197222  1  0  0  0  0
197223  1  0  0  0  0
M  END
