 xtb: 6.5.1 (b24c23e)
          07302207033D

160191  0     0  0            999 V2000
   20.3234   -0.0230   -0.0214 Zn  0  0  0  0  0  0  0  0  0  0  0  0
   16.8957   -0.0351   -0.0344 C   0  0  0  0  0  0  0  0  0  0  0  0
   17.5262   -0.9125   -0.9100 C   0  0  0  0  0  0  0  0  0  0  0  0
   16.8602   -1.8150   -1.8111 C   0  0  0  0  0  0  0  0  0  0  0  0
   17.8253   -2.4900   -2.4843 C   0  0  0  0  0  0  0  0  0  0  0  0
   19.0920   -2.0079   -2.0024 C   0  0  0  0  0  0  0  0  0  0  0  0
   18.8755   -1.0548   -1.0514 N   0  0  0  0  0  0  0  0  0  0  0  0
   20.3397   -2.4434   -2.4360 C   0  0  0  0  0  0  0  0  0  0  0  0
   21.5804   -2.0010   -1.9936 C   0  0  0  0  0  0  0  0  0  0  0  0
   22.8490   -2.4786   -2.4688 C   0  0  0  0  0  0  0  0  0  0  0  0
   23.8088   -1.7990   -1.7905 C   0  0  0  0  0  0  0  0  0  0  0  0
   21.7923   -1.0435   -1.0385 N   0  0  0  0  0  0  0  0  0  0  0  0
   23.1355   -0.9007   -0.8951 C   0  0  0  0  0  0  0  0  0  0  0  0
   23.7767   -0.0109   -0.0083 C   0  0  0  0  0  0  0  0  0  0  0  0
   23.1225    0.8744    0.8737 C   0  0  0  0  0  0  0  0  0  0  0  0
   23.7828    1.7774    1.7741 C   0  0  0  0  0  0  0  0  0  0  0  0
   22.8130    2.4500    2.4452 C   0  0  0  0  0  0  0  0  0  0  0  0
   21.5514    1.9637    1.9602 C   0  0  0  0  0  0  0  0  0  0  0  0
   21.7774    1.0078    1.0067 N   0  0  0  0  0  0  0  0  0  0  0  0
   20.3043    2.3974    2.3931 C   0  0  0  0  0  0  0  0  0  0  0  0
   19.0630    1.9531    1.9500 C   0  0  0  0  0  0  0  0  0  0  0  0
   17.7894    2.4263    2.4222 C   0  0  0  0  0  0  0  0  0  0  0  0
   16.8342    1.7444    1.7417 C   0  0  0  0  0  0  0  0  0  0  0  0
   17.5133    0.8467    0.8458 C   0  0  0  0  0  0  0  0  0  0  0  0
   18.8605    0.9985    0.9975 N   0  0  0  0  0  0  0  0  0  0  0  0
   15.8101   -0.0390   -0.0386 H   0  0  0  0  0  0  0  0  0  0  0  0
   15.7895   -1.9094   -1.9059 H   0  0  0  0  0  0  0  0  0  0  0  0
   17.7046   -3.2489   -3.2418 H   0  0  0  0  0  0  0  0  0  0  0  0
   20.3455   -3.2120   -3.2028 H   0  0  0  0  0  0  0  0  0  0  0  0
   22.9769   -3.2371   -3.2252 H   0  0  0  0  0  0  0  0  0  0  0  0
   24.8798   -1.8901   -1.8806 H   0  0  0  0  0  0  0  0  0  0  0  0
   24.8523    1.8759    1.8724 H   0  0  0  0  0  0  0  0  0  0  0  0
   22.9298    3.2093    3.2026 H   0  0  0  0  0  0  0  0  0  0  0  0
   20.2988    3.1660    3.1599 H   0  0  0  0  0  0  0  0  0  0  0  0
   17.6576    3.1844    3.1787 H   0  0  0  0  0  0  0  0  0  0  0  0
   15.7622    1.8314    1.8284 H   0  0  0  0  0  0  0  0  0  0  0  0
   68.5879    0.0043   -0.0117 Zn  0  0  0  0  0  0  0  0  0  0  0  0
   72.0153    0.0308   -0.0049 C   0  0  0  0  0  0  0  0  0  0  0  0
   71.3817    1.2684   -0.0350 C   0  0  0  0  0  0  0  0  0  0  0  0
   72.0446    2.5450   -0.0638 C   0  0  0  0  0  0  0  0  0  0  0  0
   71.0770    3.4958   -0.0860 C   0  0  0  0  0  0  0  0  0  0  0  0
   69.8121    2.8110   -0.0709 C   0  0  0  0  0  0  0  0  0  0  0  0
   70.0320    1.4656   -0.0406 N   0  0  0  0  0  0  0  0  0  0  0  0
   68.5628    3.4223   -0.0830 C   0  0  0  0  0  0  0  0  0  0  0  0
   67.3238    2.7936   -0.0680 C   0  0  0  0  0  0  0  0  0  0  0  0
   66.0534    3.4640   -0.0799 C   0  0  0  0  0  0  0  0  0  0  0  0
   65.0960    2.5017   -0.0600 C   0  0  0  0  0  0  0  0  0  0  0  0
   67.1154    1.4411   -0.0408 N   0  0  0  0  0  0  0  0  0  0  0  0
   65.7726    1.2352   -0.0362 C   0  0  0  0  0  0  0  0  0  0  0  0
   65.1349   -0.0223   -0.0177 C   0  0  0  0  0  0  0  0  0  0  0  0
   65.7917   -1.2699    0.0028 C   0  0  0  0  0  0  0  0  0  0  0  0
   65.1347   -2.5466    0.0242 C   0  0  0  0  0  0  0  0  0  0  0  0
   66.1067   -3.4941    0.0468 C   0  0  0  0  0  0  0  0  0  0  0  0
   67.3667   -2.8041    0.0393 C   0  0  0  0  0  0  0  0  0  0  0  0
   67.1375   -1.4549    0.0119 N   0  0  0  0  0  0  0  0  0  0  0  0
   68.6153   -3.4136    0.0583 C   0  0  0  0  0  0  0  0  0  0  0  0
   69.8550   -2.7831    0.0512 C   0  0  0  0  0  0  0  0  0  0  0  0
   71.1303   -3.4482    0.0712 C   0  0  0  0  0  0  0  0  0  0  0  0
   72.0831   -2.4826    0.0534 C   0  0  0  0  0  0  0  0  0  0  0  0
   71.4008   -1.2164    0.0224 C   0  0  0  0  0  0  0  0  0  0  0  0
   70.0542   -1.4344    0.0225 N   0  0  0  0  0  0  0  0  0  0  0  0
   73.1009    0.0392   -0.0026 H   0  0  0  0  0  0  0  0  0  0  0  0
   73.1149    2.6816   -0.0664 H   0  0  0  0  0  0  0  0  0  0  0  0
   71.1951    4.5680   -0.1105 H   0  0  0  0  0  0  0  0  0  0  0  0
   68.5543    4.5078   -0.1061 H   0  0  0  0  0  0  0  0  0  0  0  0
   65.9228    4.5347   -0.1011 H   0  0  0  0  0  0  0  0  0  0  0  0
   64.0247    2.6271   -0.0618 H   0  0  0  0  0  0  0  0  0  0  0  0
   64.0654   -2.6885    0.0225 H   0  0  0  0  0  0  0  0  0  0  0  0
   65.9926   -4.5667    0.0672 H   0  0  0  0  0  0  0  0  0  0  0  0
   68.6234   -4.4991    0.0811 H   0  0  0  0  0  0  0  0  0  0  0  0
   71.2648   -4.5185    0.0956 H   0  0  0  0  0  0  0  0  0  0  0  0
   73.1554   -2.6026    0.0603 H   0  0  0  0  0  0  0  0  0  0  0  0
   28.9786    0.0009    0.0042 C   0  0  0  0  0  0  0  0  0  0  0  0
   27.7501   -0.0001    0.0027 C   0  0  0  0  0  0  0  0  0  0  0  0
   26.4058   -0.0028    0.0001 C   0  0  0  0  0  0  0  0  0  0  0  0
   25.1816   -0.0063   -0.0032 C   0  0  0  0  0  0  0  0  0  0  0  0
   30.3228    0.0015    0.0041 C   0  0  0  0  0  0  0  0  0  0  0  0
   31.5472    0.0005    0.0036 C   0  0  0  0  0  0  0  0  0  0  0  0
   45.0693   -0.0296   -0.0226 C   0  0  0  0  0  0  0  0  0  0  0  0
   43.8405   -0.0253   -0.0209 C   0  0  0  0  0  0  0  0  0  0  0  0
   42.4966   -0.0221   -0.0183 C   0  0  0  0  0  0  0  0  0  0  0  0
   41.2721   -0.0184   -0.0151 C   0  0  0  0  0  0  0  0  0  0  0  0
   46.4133   -0.0326   -0.0245 C   0  0  0  0  0  0  0  0  0  0  0  0
   47.6377   -0.0380   -0.0248 C   0  0  0  0  0  0  0  0  0  0  0  0
   61.1602   -0.0456   -0.0222 C   0  0  0  0  0  0  0  0  0  0  0  0
   59.9320   -0.0497   -0.0239 C   0  0  0  0  0  0  0  0  0  0  0  0
   58.5871   -0.0524   -0.0243 C   0  0  0  0  0  0  0  0  0  0  0  0
   57.3631   -0.0530   -0.0248 C   0  0  0  0  0  0  0  0  0  0  0  0
   62.5053   -0.0394   -0.0221 C   0  0  0  0  0  0  0  0  0  0  0  0
   63.7291   -0.0324   -0.0195 C   0  0  0  0  0  0  0  0  0  0  0  0
   36.4097   -0.0082   -0.0057 Zn  0  0  0  0  0  0  0  0  0  0  0  0
   32.9515   -0.0019    0.0014 C   0  0  0  0  0  0  0  0  0  0  0  0
   33.6040    0.9297    0.8359 C   0  0  0  0  0  0  0  0  0  0  0  0
   32.9419    1.8782    1.6858 C   0  0  0  0  0  0  0  0  0  0  0  0
   33.9106    2.5877    2.3203 C   0  0  0  0  0  0  0  0  0  0  0  0
   35.1721    2.0779    1.8626 C   0  0  0  0  0  0  0  0  0  0  0  0
   34.9490    1.0717    0.9620 N   0  0  0  0  0  0  0  0  0  0  0  0
   36.4191    2.5357    2.2708 C   0  0  0  0  0  0  0  0  0  0  0  0
   37.6626    2.0743    1.8565 C   0  0  0  0  0  0  0  0  0  0  0  0
   38.9278    2.5804    2.3080 C   0  0  0  0  0  0  0  0  0  0  0  0
   39.8912    1.8674    1.6696 C   0  0  0  0  0  0  0  0  0  0  0  0
   37.8784    1.0668    0.9553 N   0  0  0  0  0  0  0  0  0  0  0  0
   39.2222    0.9204    0.8234 C   0  0  0  0  0  0  0  0  0  0  0  0
   39.8680   -0.0148   -0.0126 C   0  0  0  0  0  0  0  0  0  0  0  0
   39.2153   -0.9474   -0.8461 C   0  0  0  0  0  0  0  0  0  0  0  0
   39.8774   -1.8968   -1.6950 C   0  0  0  0  0  0  0  0  0  0  0  0
   38.9088   -2.6062   -2.3297 C   0  0  0  0  0  0  0  0  0  0  0  0
   37.6473   -2.0954   -1.8730 C   0  0  0  0  0  0  0  0  0  0  0  0
   37.8705   -1.0888   -0.9726 N   0  0  0  0  0  0  0  0  0  0  0  0
   36.4004   -2.5523   -2.2822 C   0  0  0  0  0  0  0  0  0  0  0  0
   35.1568   -2.0899   -1.8688 C   0  0  0  0  0  0  0  0  0  0  0  0
   33.8917   -2.5951   -2.3213 C   0  0  0  0  0  0  0  0  0  0  0  0
   32.9282   -1.8819   -1.6830 C   0  0  0  0  0  0  0  0  0  0  0  0
   33.5972   -0.9359   -0.8358 C   0  0  0  0  0  0  0  0  0  0  0  0
   34.9411   -1.0828   -0.9673 N   0  0  0  0  0  0  0  0  0  0  0  0
   31.8722    1.9802    1.7780 H   0  0  0  0  0  0  0  0  0  0  0  0
   33.7923    3.3865    3.0356 H   0  0  0  0  0  0  0  0  0  0  0  0
   36.4220    3.3449    2.9949 H   0  0  0  0  0  0  0  0  0  0  0  0
   39.0519    3.3793    3.0222 H   0  0  0  0  0  0  0  0  0  0  0  0
   40.9617    1.9660    1.7568 H   0  0  0  0  0  0  0  0  0  0  0  0
   40.9472   -1.9994   -1.7866 H   0  0  0  0  0  0  0  0  0  0  0  0
   39.0270   -3.4054   -3.0445 H   0  0  0  0  0  0  0  0  0  0  0  0
   36.3974   -3.3615   -3.0062 H   0  0  0  0  0  0  0  0  0  0  0  0
   33.7676   -3.3936   -3.0360 H   0  0  0  0  0  0  0  0  0  0  0  0
   31.8578   -1.9800   -1.7709 H   0  0  0  0  0  0  0  0  0  0  0  0
   52.5000   -0.0460   -0.0252 Zn  0  0  0  0  0  0  0  0  0  0  0  0
   49.0419   -0.0401   -0.0259 C   0  0  0  0  0  0  0  0  0  0  0  0
   49.6926    0.9154    0.7828 C   0  0  0  0  0  0  0  0  0  0  0  0
   49.0285    1.8875    1.6041 C   0  0  0  0  0  0  0  0  0  0  0  0
   49.9956    2.6165    2.2184 C   0  0  0  0  0  0  0  0  0  0  0  0
   51.2583    2.0952    1.7768 C   0  0  0  0  0  0  0  0  0  0  0  0
   51.0372    1.0624    0.9060 N   0  0  0  0  0  0  0  0  0  0  0  0
   52.5041    2.5677    2.1709 C   0  0  0  0  0  0  0  0  0  0  0  0
   53.7486    2.0962    1.7707 C   0  0  0  0  0  0  0  0  0  0  0  0
   55.0129    2.6192    2.2057 C   0  0  0  0  0  0  0  0  0  0  0  0
   55.9777    1.8877    1.5908 C   0  0  0  0  0  0  0  0  0  0  0  0
   53.9663    1.0612    0.9022 N   0  0  0  0  0  0  0  0  0  0  0  0
   55.3107    0.9126    0.7754 C   0  0  0  0  0  0  0  0  0  0  0  0
   55.9579   -0.0513   -0.0251 C   0  0  0  0  0  0  0  0  0  0  0  0
   55.3078   -1.0135   -0.8254 C   0  0  0  0  0  0  0  0  0  0  0  0
   55.9719   -1.9911   -1.6403 C   0  0  0  0  0  0  0  0  0  0  0  0
   55.0048   -2.7193   -2.2555 C   0  0  0  0  0  0  0  0  0  0  0  0
   53.7421   -2.1925   -1.8205 C   0  0  0  0  0  0  0  0  0  0  0  0
   53.9629   -1.1581   -0.9521 N   0  0  0  0  0  0  0  0  0  0  0  0
   52.4961   -2.6598   -2.2211 C   0  0  0  0  0  0  0  0  0  0  0  0
   51.2517   -2.1832   -1.8274 C   0  0  0  0  0  0  0  0  0  0  0  0
   49.9875   -2.7002   -2.2695 C   0  0  0  0  0  0  0  0  0  0  0  0
   49.0226   -1.9679   -1.6557 C   0  0  0  0  0  0  0  0  0  0  0  0
   49.6896   -0.9979   -0.8343 C   0  0  0  0  0  0  0  0  0  0  0  0
   51.0337   -1.1494   -0.9571 N   0  0  0  0  0  0  0  0  0  0  0  0
   47.9585    1.9908    1.6924 H   0  0  0  0  0  0  0  0  0  0  0  0
   49.8757    3.4357    2.9100 H   0  0  0  0  0  0  0  0  0  0  0  0
   52.5055    3.3987    2.8699 H   0  0  0  0  0  0  0  0  0  0  0  0
   55.1353    3.4408    2.8941 H   0  0  0  0  0  0  0  0  0  0  0  0
   57.0480    1.9908    1.6754 H   0  0  0  0  0  0  0  0  0  0  0  0
   57.0419   -2.0975   -1.7246 H   0  0  0  0  0  0  0  0  0  0  0  0
   55.1247   -3.5411   -2.9440 H   0  0  0  0  0  0  0  0  0  0  0  0
   52.4950   -3.4908   -2.9201 H   0  0  0  0  0  0  0  0  0  0  0  0
   49.8651   -3.5192   -2.9610 H   0  0  0  0  0  0  0  0  0  0  0  0
   47.9523   -2.0675   -1.7444 H   0  0  0  0  0  0  0  0  0  0  0  0
  2  3  4  0  0  0  0
  3  4  1  0  0  0  0
  4  5  2  0  0  0  0
  5  6  1  0  0  0  0
  1  7  1  0  0  0  0
  3  7  4  0  0  0  0
  6  7  4  0  0  0  0
  6  8  4  0  0  0  0
  8  9  4  0  0  0  0
  9 10  4  0  0  0  0
 10 11  2  0  0  0  0
  1 12  1  0  0  0  0
  9 12  4  0  0  0  0
 11 13  4  0  0  0  0
 12 13  4  0  0  0  0
 13 14  4  0  0  0  0
 14 15  4  0  0  0  0
 15 16  4  0  0  0  0
 16 17  2  0  0  0  0
 17 18  4  0  0  0  0
  1 19  1  0  0  0  0
 15 19  4  0  0  0  0
 18 19  4  0  0  0  0
 18 20  4  0  0  0  0
 20 21  4  0  0  0  0
 21 22  1  0  0  0  0
 22 23  2  0  0  0  0
  2 24  4  0  0  0  0
 23 24  1  0  0  0  0
  1 25  1  0  0  0  0
 21 25  4  0  0  0  0
 24 25  4  0  0  0  0
  2 26  1  0  0  0  0
  4 27  1  0  0  0  0
  5 28  1  0  0  0  0
  8 29  1  0  0  0  0
 10 30  1  0  0  0  0
 11 31  1  0  0  0  0
 16 32  1  0  0  0  0
 17 33  1  0  0  0  0
 20 34  1  0  0  0  0
 22 35  1  0  0  0  0
 23 36  1  0  0  0  0
 38 39  4  0  0  0  0
 39 40  1  0  0  0  0
 40 41  2  0  0  0  0
 41 42  1  0  0  0  0
 37 43  1  0  0  0  0
 39 43  4  0  0  0  0
 42 43  4  0  0  0  0
 42 44  4  0  0  0  0
 44 45  4  0  0  0  0
 45 46  4  0  0  0  0
 46 47  2  0  0  0  0
 37 48  1  0  0  0  0
 45 48  4  0  0  0  0
 47 49  4  0  0  0  0
 48 49  4  0  0  0  0
 49 50  4  0  0  0  0
 50 51  4  0  0  0  0
 51 52  4  0  0  0  0
 52 53  2  0  0  0  0
 53 54  4  0  0  0  0
 37 55  1  0  0  0  0
 51 55  4  0  0  0  0
 54 55  4  0  0  0  0
 54 56  4  0  0  0  0
 56 57  4  0  0  0  0
 57 58  1  0  0  0  0
 58 59  2  0  0  0  0
 38 60  4  0  0  0  0
 59 60  1  0  0  0  0
 37 61  1  0  0  0  0
 57 61  4  0  0  0  0
 60 61  4  0  0  0  0
 38 62  1  0  0  0  0
 40 63  1  0  0  0  0
 41 64  1  0  0  0  0
 44 65  1  0  0  0  0
 46 66  1  0  0  0  0
 47 67  1  0  0  0  0
 52 68  1  0  0  0  0
 53 69  1  0  0  0  0
 56 70  1  0  0  0  0
 58 71  1  0  0  0  0
 59 72  1  0  0  0  0
 73 74  3  0  0  0  0
 74 75  4  0  0  0  0
 14 76  4  0  0  0  0
 75 76  3  0  0  0  0
 73 77  4  0  0  0  0
 77 78  3  0  0  0  0
 79 80  3  0  0  0  0
 80 81  4  0  0  0  0
 81 82  3  0  0  0  0
 79 83  4  0  0  0  0
 83 84  3  0  0  0  0
 85 86  3  0  0  0  0
 86 87  4  0  0  0  0
 87 88  3  0  0  0  0
 85 89  4  0  0  0  0
 50 90  4  0  0  0  0
 89 90  3  0  0  0  0
 78 92  4  0  0  0  0
 92 93  4  0  0  0  0
 93 94  4  0  0  0  0
 94 95  2  0  0  0  0
 95 96  4  0  0  0  0
 91 97  1  0  0  0  0
 93 97  4  0  0  0  0
 96 97  4  0  0  0  0
 96 98  4  0  0  0  0
 98 99  4  0  0  0  0
 99100  4  0  0  0  0
100101  2  0  0  0  0
 91102  1  0  0  0  0
 99102  4  0  0  0  0
101103  4  0  0  0  0
102103  4  0  0  0  0
 82104  4  0  0  0  0
103104  4  0  0  0  0
104105  4  0  0  0  0
105106  4  0  0  0  0
106107  2  0  0  0  0
107108  4  0  0  0  0
 91109  1  0  0  0  0
105109  4  0  0  0  0
108109  4  0  0  0  0
108110  4  0  0  0  0
110111  4  0  0  0  0
111112  4  0  0  0  0
112113  2  0  0  0  0
 92114  4  0  0  0  0
113114  4  0  0  0  0
 91115  1  0  0  0  0
111115  4  0  0  0  0
114115  4  0  0  0  0
 94116  1  0  0  0  0
 95117  1  0  0  0  0
 98118  1  0  0  0  0
100119  1  0  0  0  0
101120  1  0  0  0  0
106121  1  0  0  0  0
107122  1  0  0  0  0
110123  1  0  0  0  0
112124  1  0  0  0  0
113125  1  0  0  0  0
 84127  4  0  0  0  0
127128  4  0  0  0  0
128129  4  0  0  0  0
129130  2  0  0  0  0
130131  4  0  0  0  0
126132  1  0  0  0  0
128132  4  0  0  0  0
131132  4  0  0  0  0
131133  4  0  0  0  0
133134  4  0  0  0  0
134135  4  0  0  0  0
135136  2  0  0  0  0
126137  1  0  0  0  0
134137  4  0  0  0  0
136138  4  0  0  0  0
137138  4  0  0  0  0
 88139  4  0  0  0  0
138139  4  0  0  0  0
139140  4  0  0  0  0
140141  4  0  0  0  0
141142  2  0  0  0  0
142143  4  0  0  0  0
126144  1  0  0  0  0
140144  4  0  0  0  0
143144  4  0  0  0  0
143145  4  0  0  0  0
145146  4  0  0  0  0
146147  4  0  0  0  0
147148  2  0  0  0  0
127149  4  0  0  0  0
148149  4  0  0  0  0
126150  1  0  0  0  0
146150  4  0  0  0  0
149150  4  0  0  0  0
129151  1  0  0  0  0
130152  1  0  0  0  0
133153  1  0  0  0  0
135154  1  0  0  0  0
136155  1  0  0  0  0
141156  1  0  0  0  0
142157  1  0  0  0  0
145158  1  0  0  0  0
147159  1  0  0  0  0
148160  1  0  0  0  0
M  END
