754

C 106.841323 -0.055595 0.073004
C 107.569922 1.224473 0.586053
C 106.959797 2.330941 1.131532
C 107.981393 3.276994 1.404679
C 109.181324 2.717244 1.011687
N 108.923056 1.447491 0.558984
C 110.604860 3.415540 1.042709
C 111.733181 2.702961 0.777145
C 113.036979 3.332007 0.725223
C 113.937606 2.405971 0.418377
N 111.928678 1.374841 0.501902
C 113.258829 1.132846 0.275068
C 113.926158 -0.012105 -0.029539
C 113.151571 -1.393348 -0.138777
C 113.699142 -2.649959 0.034369
C 112.674554 -3.599591 -0.202060
C 111.526978 -2.897070 -0.500527
C 110.114243 -3.522300 -0.863073
C 110.082811 -4.908705 -1.383497
C 109.719498 -5.973302 -0.549008
C 109.700049 -7.287227 -1.032897
C 109.268521 -8.413855 -0.145100
C 110.035035 -7.525231 -2.373599
C 110.417670 -6.472796 -3.217437
C 110.748016 -6.724682 -4.656563
C 110.429675 -5.165558 -2.714574
C 108.989015 -2.776498 -0.709305
C 107.664676 -3.276133 -1.034444
C 106.780132 -2.320286 -0.766050
C 107.504702 -1.175082 -0.271632
N 108.826402 -1.494299 -0.263062
N 111.814283 -1.555247 -0.408699
C 110.643992 4.871303 1.321868
C 110.914626 5.335392 2.614900
C 110.942914 6.708119 2.890369
C 111.279511 7.188570 4.268509
C 110.713270 7.617706 1.848090
C 110.424545 7.168799 0.551260
C 110.206376 8.141563 -0.566960
C 110.402064 5.791998 0.295786
H 105.762570 -0.021576 -0.020788
H 105.900519 2.450431 1.298580
H 107.853469 4.265705 1.819933
H 109.624710 0.781990 0.242722
H 113.248167 4.373400 0.891249
H 114.990159 2.591438 0.307611
H 114.725310 -2.864185 0.291141
H 112.763086 -4.675107 -0.162079
H 109.446755 -5.751609 0.481451
H 108.215406 -8.652610 -0.327188
H 109.874244 -9.307389 -0.332777
H 109.390999 -8.154322 0.912280
H 109.997444 -8.539418 -2.763012
H 111.492833 -6.008074 -5.017061
H 111.169657 -7.726160 -4.791729
H 109.845954 -6.635719 -5.269192
H 110.703345 -4.324823 -3.349932
H 107.434684 -4.249920 -1.427854
H 105.715421 -2.380116 -0.900417
H 111.126971 -0.808884 -0.475607
H 111.110425 4.603875 3.397156
H 110.889913 6.501934 5.027669
H 110.834716 8.170346 4.460157
H 112.364415 7.265966 4.383290
H 110.759618 8.685080 2.047436
H 109.792131 9.083302 -0.191853
H 111.154265 8.350057 -1.071652
H 109.495159 7.743198 -1.297897
H 110.201186 5.412060 -0.704546
C 285.960552 -0.026375 0.080927
C 285.231953 -1.390274 -0.122969
C 285.842078 -2.620736 -0.211179
C 284.820481 -3.575182 -0.453376
C 283.620550 -2.893579 -0.509759
N 283.878818 -1.569067 -0.258994
C 282.197015 -3.511889 -0.835752
C 281.068693 -2.762765 -0.704957
C 279.764896 -3.279411 -1.067547
C 278.864269 -2.325217 -0.864545
N 280.873197 -1.477532 -0.271556
C 279.543045 -1.154095 -0.345065
C 278.875717 -0.012105 -0.029539
C 279.650303 1.235112 0.573963
C 279.102733 2.232115 1.358206
C 280.127321 3.171100 1.633899
C 281.274897 2.715594 1.021418
C 282.687632 3.438327 1.024390
C 282.719063 4.897722 1.275640
C 283.082377 5.394917 2.533629
C 283.101825 6.773304 2.779796
C 283.533354 7.297102 4.115127
C 282.766840 7.656000 1.742985
C 282.384205 7.174024 0.483073
C 282.053859 8.118423 -0.631665
C 282.372200 5.791823 0.256659
C 283.812860 2.717009 0.780330
C 285.137198 3.312455 0.752136
C 286.021743 2.351958 0.500888
C 285.297173 1.113861 0.349044
N 283.975473 1.385020 0.517702
N 280.987592 1.511192 0.422805
C 282.157883 -4.909259 -1.330256
C 281.887249 -5.962988 -0.448799
C 281.858961 -7.286831 -0.904540
C 281.522364 -8.397676 0.042100
C 282.088604 -7.545280 -2.263547
C 282.377329 -6.502733 -3.155950
C 282.595498 -6.777340 -4.612410
C 282.399811 -5.185475 -2.680896
H 287.039305 -0.008353 -0.017202
H 286.901356 -2.808247 -0.127378
H 284.948406 -4.638231 -0.594483
H 283.177164 -0.834961 -0.195735
H 279.553708 -4.262021 -1.450355
H 277.811716 -2.429320 -1.053832
H 278.076565 2.287279 1.688026
H 280.038788 4.079087 2.211733
H 283.355120 4.683026 3.310936
H 284.586469 7.595139 4.078596
H 282.927630 8.163045 4.404554
H 283.410875 6.538954 4.896549
H 282.804430 8.727982 1.919263
H 281.309042 7.682097 -1.304797
H 281.632217 9.050996 -0.242389
H 282.955920 8.351134 -1.205316
H 282.098530 5.387227 -0.716386
H 285.367191 4.351590 0.904555
H 287.086454 2.471472 0.415153
H 281.674904 0.900871 -0.011985
H 281.691450 -5.726858 0.595846
H 281.911962 -8.188612 1.044139
H 281.967159 -9.341779 -0.288479
H 280.437459 -8.522455 0.102058
H 282.042257 -8.567144 -2.630724
H 283.009744 -7.779571 -4.764436
H 281.647609 -6.702313 -5.153294
H 283.306716 -6.064291 -5.041973
H 282.600689 -4.352235 -3.352259
C 116.760291 0.001553 -0.019985
C 118.218517 -0.020284 -0.037859
C 119.352445 -0.041037 -0.039350
C 120.713827 -0.053627 -0.041541
C 121.988046 -0.043321 -0.046306
C 123.176508 -0.024522 -0.052462
C 124.528869 0.000262 -0.036594
C 125.629136 0.001553 -0.019985
C 135.547432 0.001553 -0.019985
C 137.005658 -0.020284 -0.037859
C 138.139586 -0.041037 -0.039350
C 139.500968 -0.053627 -0.041541
C 140.775187 -0.043321 -0.046306
C 141.963649 -0.024522 -0.052462
C 143.316010 0.000262 -0.036594
C 144.416277 0.001553 -0.019985
C 154.334573 0.001553 -0.019985
C 155.792799 -0.020284 -0.037859
C 156.926727 -0.041037 -0.039350
C 158.288109 -0.053627 -0.041541
C 159.562328 -0.043321 -0.046306
C 160.750790 -0.024522 -0.052462
C 162.103151 0.000262 -0.036594
C 163.203418 0.001553 -0.019985
C 173.121714 0.001553 -0.019985
C 174.579940 -0.020284 -0.037859
C 175.713868 -0.041037 -0.039350
C 177.075250 -0.053627 -0.041541
C 178.349469 -0.043321 -0.046306
C 179.537931 -0.024522 -0.052462
C 180.890292 0.000262 -0.036594
C 181.990559 0.001553 -0.019985
C 191.908854 0.001553 -0.019985
C 193.367081 -0.020284 -0.037859
C 194.501009 -0.041037 -0.039350
C 195.862390 -0.053627 -0.041541
C 197.136609 -0.043321 -0.046306
C 198.325072 -0.024522 -0.052462
C 199.677432 0.000262 -0.036594
C 200.777700 0.001553 -0.019985
C 210.695995 0.001553 -0.019985
C 212.154221 -0.020284 -0.037859
C 213.288150 -0.041037 -0.039350
C 214.649531 -0.053627 -0.041541
C 215.923750 -0.043321 -0.046306
C 217.112213 -0.024522 -0.052462
C 218.464573 0.000262 -0.036594
C 219.564841 0.001553 -0.019985
C 229.483136 0.001553 -0.019985
C 230.941362 -0.020284 -0.037859
C 232.075290 -0.041037 -0.039350
C 233.436672 -0.053627 -0.041541
C 234.710891 -0.043321 -0.046306
C 235.899353 -0.024522 -0.052462
C 237.251714 0.000262 -0.036594
C 238.351981 0.001553 -0.019985
C 248.270277 0.001553 -0.019985
C 249.728503 -0.020284 -0.037859
C 250.862431 -0.041037 -0.039350
C 252.223813 -0.053627 -0.041541
C 253.498032 -0.043321 -0.046306
C 254.686494 -0.024522 -0.052462
C 256.038855 0.000262 -0.036594
C 257.139122 0.001553 -0.019985
C 267.057418 0.001553 -0.019985
C 268.515644 -0.020284 -0.037859
C 269.649572 -0.041037 -0.039350
C 271.010954 -0.053627 -0.041541
C 272.285173 -0.043321 -0.046306
C 273.473635 -0.024522 -0.052462
C 274.825996 0.000262 -0.036594
C 275.926263 0.001553 -0.019985
C 127.070452 0.002865 0.010139
C 127.861837 -1.136905 0.776092
C 127.348827 -2.003083 1.720390
C 128.385561 -2.902124 2.078364
C 129.501565 -2.552275 1.347613
N 129.193311 -1.433345 0.614702
C 130.894382 -3.307327 1.341707
C 132.028376 -2.641791 0.997619
C 133.316455 -3.299384 0.918191
C 134.223442 -2.400603 0.550921
N 132.235139 -1.333514 0.656707
C 133.559867 -1.123339 0.381255
C 134.223629 0.002865 0.010139
C 133.431538 1.365874 -0.152373
C 133.941998 2.638596 0.007022
C 132.905526 3.553478 -0.309054
C 131.792154 2.811473 -0.643571
C 130.400186 3.379521 -1.142277
C 130.405449 4.690219 -1.834605
C 129.977737 5.846140 -1.169071
C 129.998436 7.090919 -1.810540
C 129.574449 8.324400 -1.073470
C 130.477087 7.171923 -3.125974
C 130.897790 6.022779 -3.810723
C 131.435951 6.115485 -5.205666
C 130.868365 4.787088 -3.151712
C 129.266190 2.650783 -0.968134
C 127.978313 3.096850 -1.458130
C 127.071209 2.176702 -1.148901
C 127.734555 1.098323 -0.443479
N 129.059265 1.437433 -0.371688
N 132.101542 1.484862 -0.474195
C 130.888746 -4.751619 1.675585
C 130.427179 -5.686666 0.742228
C 130.393307 -7.051889 1.053967
C 129.856227 -8.034235 0.058434
C 130.808172 -7.472356 2.325944
C 131.285773 -6.550471 3.268220
C 131.702616 -6.998162 4.635755
C 131.311333 -5.189843 2.937083
H 126.336569 -2.004894 2.094842
H 128.320899 -3.725089 2.774317
H 129.857670 -0.886886 0.074450
H 133.511639 -4.339269 1.111029
H 135.268507 -2.606213 0.407821
H 134.952420 2.884117 0.296701
H 132.968394 4.631381 -0.312099
H 129.629785 5.752509 -0.141639
H 130.438551 8.783385 -0.582886
H 129.127310 9.052447 -1.758538
H 128.821072 8.089077 -0.313905
H 130.521755 8.138018 -3.621979
H 131.221849 5.201073 -5.768862
H 132.518945 6.270237 -5.179621
H 130.973198 6.946322 -5.748749
H 131.208036 3.880810 -3.650282
H 127.783001 4.009987 -1.991681
H 126.026310 2.239610 -1.391890
H 131.437949 0.718018 -0.531845
H 130.091015 -5.327885 -0.229188
H 130.306652 -9.022099 0.201404
H 130.086114 -7.718633 -0.964789
H 128.770795 -8.122297 0.167201
H 130.759483 -8.526951 2.584240
H 132.490333 -6.351200 5.036140
H 132.102688 -8.017136 4.608555
H 130.845122 -6.973859 5.315293
H 131.657897 -4.446772 3.653510
C 145.857592 0.002865 0.010139
C 146.648978 -1.136905 0.776092
C 146.135968 -2.003083 1.720390
C 147.172701 -2.902124 2.078364
C 148.288706 -2.552275 1.347613
N 147.980452 -1.433345 0.614702
C 149.681523 -3.307327 1.341707
C 150.815517 -2.641791 0.997619
C 152.103595 -3.299384 0.918191
C 153.010583 -2.400603 0.550921
N 151.022280 -1.333514 0.656707
C 152.347008 -1.123339 0.381255
C 153.010770 0.002865 0.010139
C 152.218679 1.365874 -0.152373
C 152.729139 2.638596 0.007022
C 151.692667 3.553478 -0.309054
C 150.579295 2.811473 -0.643571
C 149.187327 3.379521 -1.142277
C 149.192590 4.690219 -1.834605
C 148.764877 5.846140 -1.169071
C 148.785577 7.090919 -1.810540
C 148.361590 8.324400 -1.073470
C 149.264228 7.171923 -3.125974
C 149.684931 6.022779 -3.810723
C 150.223092 6.115485 -5.205666
C 149.655506 4.787088 -3.151712
C 148.053331 2.650783 -0.968134
C 146.765454 3.096850 -1.458130
C 145.858349 2.176702 -1.148901
C 146.521696 1.098323 -0.443479
N 147.846406 1.437433 -0.371688
N 150.888683 1.484862 -0.474195
C 149.675887 -4.751619 1.675585
C 149.214320 -5.686666 0.742228
C 149.180448 -7.051889 1.053967
C 148.643368 -8.034235 0.058434
C 149.595313 -7.472356 2.325944
C 150.072914 -6.550471 3.268220
C 150.489757 -6.998162 4.635755
C 150.098474 -5.189843 2.937083
H 145.123710 -2.004894 2.094842
H 147.108040 -3.725089 2.774317
H 148.644811 -0.886886 0.074450
H 152.298780 -4.339269 1.111029
H 154.055648 -2.606213 0.407821
H 153.739560 2.884117 0.296701
H 151.755535 4.631381 -0.312099
H 148.416926 5.752509 -0.141639
H 149.225692 8.783385 -0.582886
H 147.914450 9.052447 -1.758538
H 147.608213 8.089077 -0.313905
H 149.308895 8.138018 -3.621979
H 150.008990 5.201073 -5.768862
H 151.306086 6.270237 -5.179621
H 149.760339 6.946322 -5.748749
H 149.995177 3.880810 -3.650282
H 146.570142 4.009987 -1.991681
H 144.813450 2.239610 -1.391890
H 150.225090 0.718018 -0.531845
H 148.878156 -5.327885 -0.229188
H 149.093793 -9.022099 0.201404
H 148.873255 -7.718633 -0.964789
H 147.557936 -8.122297 0.167201
H 149.546623 -8.526951 2.584240
H 151.277474 -6.351200 5.036140
H 150.889828 -8.017136 4.608555
H 149.632262 -6.973859 5.315293
H 150.445038 -4.446772 3.653510
C 164.644733 0.002865 0.010139
C 165.436118 -1.136905 0.776092
C 164.923109 -2.003083 1.720390
C 165.959842 -2.902124 2.078364
C 167.075846 -2.552275 1.347613
N 166.767593 -1.433345 0.614702
C 168.468664 -3.307327 1.341707
C 169.602658 -2.641791 0.997619
C 170.890736 -3.299384 0.918191
C 171.797724 -2.400603 0.550921
N 169.809420 -1.333514 0.656707
C 171.134149 -1.123339 0.381255
C 171.797911 0.002865 0.010139
C 171.005819 1.365874 -0.152373
C 171.516280 2.638596 0.007022
C 170.479807 3.553478 -0.309054
C 169.366436 2.811473 -0.643571
C 167.974468 3.379521 -1.142277
C 167.979731 4.690219 -1.834605
C 167.552018 5.846140 -1.169071
C 167.572717 7.090919 -1.810540
C 167.148731 8.324400 -1.073470
C 168.051369 7.171923 -3.125974
C 168.472072 6.022779 -3.810723
C 169.010233 6.115485 -5.205666
C 168.442646 4.787088 -3.151712
C 166.840472 2.650783 -0.968134
C 165.552594 3.096850 -1.458130
C 164.645490 2.176702 -1.148901
C 165.308837 1.098323 -0.443479
N 166.633547 1.437433 -0.371688
N 169.675824 1.484862 -0.474195
C 168.463028 -4.751619 1.675585
C 168.001461 -5.686666 0.742228
C 167.967589 -7.051889 1.053967
C 167.430509 -8.034235 0.058434
C 168.382454 -7.472356 2.325944
C 168.860055 -6.550471 3.268220
C 169.276898 -6.998162 4.635755
C 168.885615 -5.189843 2.937083
H 163.910851 -2.004894 2.094842
H 165.895181 -3.725089 2.774317
H 167.431952 -0.886886 0.074450
H 171.085921 -4.339269 1.111029
H 172.842789 -2.606213 0.407821
H 172.526701 2.884117 0.296701
H 170.542676 4.631381 -0.312099
H 167.204067 5.752509 -0.141639
H 168.012833 8.783385 -0.582886
H 166.701591 9.052447 -1.758538
H 166.395354 8.089077 -0.313905
H 168.096036 8.138018 -3.621979
H 168.796131 5.201073 -5.768862
H 170.093227 6.270237 -5.179621
H 168.547480 6.946322 -5.748749
H 168.782317 3.880810 -3.650282
H 165.357283 4.009987 -1.991681
H 163.600591 2.239610 -1.391890
H 169.012231 0.718018 -0.531845
H 167.665296 -5.327885 -0.229188
H 167.880934 -9.022099 0.201404
H 167.660396 -7.718633 -0.964789
H 166.345077 -8.122297 0.167201
H 168.333764 -8.526951 2.584240
H 170.064615 -6.351200 5.036140
H 169.676969 -8.017136 4.608555
H 168.419403 -6.973859 5.315293
H 169.232179 -4.446772 3.653510
C 183.431874 0.002865 0.010139
C 184.223259 -1.136905 0.776092
C 183.710249 -2.003083 1.720390
C 184.746983 -2.902124 2.078364
C 185.862987 -2.552275 1.347613
N 185.554734 -1.433345 0.614702
C 187.255805 -3.307327 1.341707
C 188.389798 -2.641791 0.997619
C 189.677877 -3.299384 0.918191
C 190.584865 -2.400603 0.550921
N 188.596561 -1.333514 0.656707
C 189.921290 -1.123339 0.381255
C 190.585052 0.002865 0.010139
C 189.792960 1.365874 -0.152373
C 190.303421 2.638596 0.007022
C 189.266948 3.553478 -0.309054
C 188.153576 2.811473 -0.643571
C 186.761609 3.379521 -1.142277
C 186.766872 4.690219 -1.834605
C 186.339159 5.846140 -1.169071
C 186.359858 7.090919 -1.810540
C 185.935872 8.324400 -1.073470
C 186.838510 7.171923 -3.125974
C 187.259212 6.022779 -3.810723
C 187.797374 6.115485 -5.205666
C 187.229787 4.787088 -3.151712
C 185.627613 2.650783 -0.968134
C 184.339735 3.096850 -1.458130
C 183.432631 2.176702 -1.148901
C 184.095977 1.098323 -0.443479
N 185.420688 1.437433 -0.371688
N 188.462965 1.484862 -0.474195
C 187.250169 -4.751619 1.675585
C 186.788602 -5.686666 0.742228
C 186.754730 -7.051889 1.053967
C 186.217649 -8.034235 0.058434
C 187.169595 -7.472356 2.325944
C 187.647196 -6.550471 3.268220
C 188.064039 -6.998162 4.635755
C 187.672756 -5.189843 2.937083
H 182.697992 -2.004894 2.094842
H 184.682322 -3.725089 2.774317
H 186.219093 -0.886886 0.074450
H 189.873062 -4.339269 1.111029
H 191.629930 -2.606213 0.407821
H 191.313842 2.884117 0.296701
H 189.329817 4.631381 -0.312099
H 185.991208 5.752509 -0.141639
H 186.799974 8.783385 -0.582886
H 185.488732 9.052447 -1.758538
H 185.182495 8.089077 -0.313905
H 186.883177 8.138018 -3.621979
H 187.583272 5.201073 -5.768862
H 188.880367 6.270237 -5.179621
H 187.334620 6.946322 -5.748749
H 187.569458 3.880810 -3.650282
H 184.144424 4.009987 -1.991681
H 182.387732 2.239610 -1.391890
H 187.799372 0.718018 -0.531845
H 186.452437 -5.327885 -0.229188
H 186.668075 -9.022099 0.201404
H 186.447537 -7.718633 -0.964789
H 185.132218 -8.122297 0.167201
H 187.120905 -8.526951 2.584240
H 188.851756 -6.351200 5.036140
H 188.464110 -8.017136 4.608555
H 187.206544 -6.973859 5.315293
H 188.019319 -4.446772 3.653510
C 202.219015 0.002865 0.010139
C 203.010400 -1.136905 0.776092
C 202.497390 -2.003083 1.720390
C 203.534124 -2.902124 2.078364
C 204.650128 -2.552275 1.347613
N 204.341874 -1.433345 0.614702
C 206.042946 -3.307327 1.341707
C 207.176939 -2.641791 0.997619
C 208.465018 -3.299384 0.918191
C 209.372005 -2.400603 0.550921
N 207.383702 -1.333514 0.656707
C 208.708431 -1.123339 0.381255
C 209.372192 0.002865 0.010139
C 208.580101 1.365874 -0.152373
C 209.090562 2.638596 0.007022
C 208.054089 3.553478 -0.309054
C 206.940717 2.811473 -0.643571
C 205.548750 3.379521 -1.142277
C 205.554013 4.690219 -1.834605
C 205.126300 5.846140 -1.169071
C 205.146999 7.090919 -1.810540
C 204.723013 8.324400 -1.073470
C 205.625650 7.171923 -3.125974
C 206.046353 6.022779 -3.810723
C 206.584515 6.115485 -5.205666
C 206.016928 4.787088 -3.151712
C 204.414753 2.650783 -0.968134
C 203.126876 3.096850 -1.458130
C 202.219772 2.176702 -1.148901
C 202.883118 1.098323 -0.443479
N 204.207828 1.437433 -0.371688
N 207.250106 1.484862 -0.474195
C 206.037309 -4.751619 1.675585
C 205.575743 -5.686666 0.742228
C 205.541871 -7.051889 1.053967
C 205.004790 -8.034235 0.058434
C 205.956736 -7.472356 2.325944
C 206.434336 -6.550471 3.268220
C 206.851179 -6.998162 4.635755
C 206.459897 -5.189843 2.937083
H 201.485133 -2.004894 2.094842
H 203.469463 -3.725089 2.774317
H 205.006234 -0.886886 0.074450
H 208.660203 -4.339269 1.111029
H 210.417070 -2.606213 0.407821
H 210.100983 2.884117 0.296701
H 208.116957 4.631381 -0.312099
H 204.778349 5.752509 -0.141639
H 205.587115 8.783385 -0.582886
H 204.275873 9.052447 -1.758538
H 203.969636 8.089077 -0.313905
H 205.670318 8.138018 -3.621979
H 206.370413 5.201073 -5.768862
H 207.667508 6.270237 -5.179621
H 206.121761 6.946322 -5.748749
H 206.356599 3.880810 -3.650282
H 202.931565 4.009987 -1.991681
H 201.174873 2.239610 -1.391890
H 206.586513 0.718018 -0.531845
H 205.239578 -5.327885 -0.229188
H 205.455215 -9.022099 0.201404
H 205.234678 -7.718633 -0.964789
H 203.919359 -8.122297 0.167201
H 205.908046 -8.526951 2.584240
H 207.638897 -6.351200 5.036140
H 207.251251 -8.017136 4.608555
H 205.993685 -6.973859 5.315293
H 206.806460 -4.446772 3.653510
C 221.006156 0.002865 0.010139
C 221.797541 -1.136905 0.776092
C 221.284531 -2.003083 1.720390
C 222.321265 -2.902124 2.078364
C 223.437269 -2.552275 1.347613
N 223.129015 -1.433345 0.614702
C 224.830086 -3.307327 1.341707
C 225.964080 -2.641791 0.997619
C 227.252159 -3.299384 0.918191
C 228.159146 -2.400603 0.550921
N 226.170843 -1.333514 0.656707
C 227.495571 -1.123339 0.381255
C 228.159333 0.002865 0.010139
C 227.367242 1.365874 -0.152373
C 227.877703 2.638596 0.007022
C 226.841230 3.553478 -0.309054
C 225.727858 2.811473 -0.643571
C 224.335891 3.379521 -1.142277
C 224.341153 4.690219 -1.834605
C 223.913441 5.846140 -1.169071
C 223.934140 7.090919 -1.810540
C 223.510153 8.324400 -1.073470
C 224.412791 7.171923 -3.125974
C 224.833494 6.022779 -3.810723
C 225.371655 6.115485 -5.205666
C 224.804069 4.787088 -3.151712
C 223.201894 2.650783 -0.968134
C 221.914017 3.096850 -1.458130
C 221.006913 2.176702 -1.148901
C 221.670259 1.098323 -0.443479
N 222.994969 1.437433 -0.371688
N 226.037247 1.484862 -0.474195
C 224.824450 -4.751619 1.675585
C 224.362883 -5.686666 0.742228
C 224.329012 -7.051889 1.053967
C 223.791931 -8.034235 0.058434
C 224.743876 -7.472356 2.325944
C 225.221477 -6.550471 3.268220
C 225.638320 -6.998162 4.635755
C 225.247038 -5.189843 2.937083
H 220.272273 -2.004894 2.094842
H 222.256604 -3.725089 2.774317
H 223.793375 -0.886886 0.074450
H 227.447344 -4.339269 1.111029
H 229.204211 -2.606213 0.407821
H 228.888124 2.884117 0.296701
H 226.904098 4.631381 -0.312099
H 223.565489 5.752509 -0.141639
H 224.374256 8.783385 -0.582886
H 223.063014 9.052447 -1.758538
H 222.756776 8.089077 -0.313905
H 224.457459 8.138018 -3.621979
H 225.157554 5.201073 -5.768862
H 226.454649 6.270237 -5.179621
H 224.908902 6.946322 -5.748749
H 225.143740 3.880810 -3.650282
H 221.718705 4.009987 -1.991681
H 219.962014 2.239610 -1.391890
H 225.373653 0.718018 -0.531845
H 224.026719 -5.327885 -0.229188
H 224.242356 -9.022099 0.201404
H 224.021818 -7.718633 -0.964789
H 222.706499 -8.122297 0.167201
H 224.695187 -8.526951 2.584240
H 226.426038 -6.351200 5.036140
H 226.038392 -8.017136 4.608555
H 224.780826 -6.973859 5.315293
H 225.593601 -4.446772 3.653510
C 239.793297 0.002865 0.010139
C 240.584682 -1.136905 0.776092
C 240.071672 -2.003083 1.720390
C 241.108406 -2.902124 2.078364
C 242.224410 -2.552275 1.347613
N 241.916156 -1.433345 0.614702
C 243.617227 -3.307327 1.341707
C 244.751221 -2.641791 0.997619
C 246.039300 -3.299384 0.918191
C 246.946287 -2.400603 0.550921
N 244.957984 -1.333514 0.656707
C 246.282712 -1.123339 0.381255
C 246.946474 0.002865 0.010139
C 246.154383 1.365874 -0.152373
C 246.664843 2.638596 0.007022
C 245.628371 3.553478 -0.309054
C 244.514999 2.811473 -0.643571
C 243.123031 3.379521 -1.142277
C 243.128294 4.690219 -1.834605
C 242.700582 5.846140 -1.169071
C 242.721281 7.090919 -1.810540
C 242.297294 8.324400 -1.073470
C 243.199932 7.171923 -3.125974
C 243.620635 6.022779 -3.810723
C 244.158796 6.115485 -5.205666
C 243.591210 4.787088 -3.151712
C 241.989035 2.650783 -0.968134
C 240.701158 3.096850 -1.458130
C 239.794054 2.176702 -1.148901
C 240.457400 1.098323 -0.443479
N 241.782110 1.437433 -0.371688
N 244.824387 1.484862 -0.474195
C 243.611591 -4.751619 1.675585
C 243.150024 -5.686666 0.742228
C 243.116152 -7.051889 1.053967
C 242.579072 -8.034235 0.058434
C 243.531017 -7.472356 2.325944
C 244.008618 -6.550471 3.268220
C 244.425461 -6.998162 4.635755
C 244.034178 -5.189843 2.937083
H 239.059414 -2.004894 2.094842
H 241.043744 -3.725089 2.774317
H 242.580515 -0.886886 0.074450
H 246.234484 -4.339269 1.111029
H 247.991352 -2.606213 0.407821
H 247.675265 2.884117 0.296701
H 245.691239 4.631381 -0.312099
H 242.352630 5.752509 -0.141639
H 243.161396 8.783385 -0.582886
H 241.850155 9.052447 -1.758538
H 241.543917 8.089077 -0.313905
H 243.244600 8.138018 -3.621979
H 243.944694 5.201073 -5.768862
H 245.241790 6.270237 -5.179621
H 243.696043 6.946322 -5.748749
H 243.930881 3.880810 -3.650282
H 240.505846 4.009987 -1.991681
H 238.749155 2.239610 -1.391890
H 244.160794 0.718018 -0.531845
H 242.813860 -5.327885 -0.229188
H 243.029497 -9.022099 0.201404
H 242.808959 -7.718633 -0.964789
H 241.493640 -8.122297 0.167201
H 243.482328 -8.526951 2.584240
H 245.213178 -6.351200 5.036140
H 244.825532 -8.017136 4.608555
H 243.567967 -6.973859 5.315293
H 244.380742 -4.446772 3.653510
C 258.580437 0.002865 0.010139
C 259.371823 -1.136905 0.776092
C 258.858813 -2.003083 1.720390
C 259.895546 -2.902124 2.078364
C 261.011551 -2.552275 1.347613
N 260.703297 -1.433345 0.614702
C 262.404368 -3.307327 1.341707
C 263.538362 -2.641791 0.997619
C 264.826440 -3.299384 0.918191
C 265.733428 -2.400603 0.550921
N 263.745125 -1.333514 0.656707
C 265.069853 -1.123339 0.381255
C 265.733615 0.002865 0.010139
C 264.941524 1.365874 -0.152373
C 265.451984 2.638596 0.007022
C 264.415512 3.553478 -0.309054
C 263.302140 2.811473 -0.643571
C 261.910172 3.379521 -1.142277
C 261.915435 4.690219 -1.834605
C 261.487722 5.846140 -1.169071
C 261.508422 7.090919 -1.810540
C 261.084435 8.324400 -1.073470
C 261.987073 7.171923 -3.125974
C 262.407776 6.022779 -3.810723
C 262.945937 6.115485 -5.205666
C 262.378351 4.787088 -3.151712
C 260.776176 2.650783 -0.968134
C 259.488299 3.096850 -1.458130
C 258.581194 2.176702 -1.148901
C 259.244541 1.098323 -0.443479
N 260.569251 1.437433 -0.371688
N 263.611528 1.484862 -0.474195
C 262.398732 -4.751619 1.675585
C 261.937165 -5.686666 0.742228
C 261.903293 -7.051889 1.053967
C 261.366213 -8.034235 0.058434
C 262.318158 -7.472356 2.325944
C 262.795759 -6.550471 3.268220
C 263.212602 -6.998162 4.635755
C 262.821319 -5.189843 2.937083
H 257.846555 -2.004894 2.094842
H 259.830885 -3.725089 2.774317
H 261.367656 -0.886886 0.074450
H 265.021625 -4.339269 1.111029
H 266.778493 -2.606213 0.407821
H 266.462405 2.884117 0.296701
H 264.478380 4.631381 -0.312099
H 261.139771 5.752509 -0.141639
H 261.948537 8.783385 -0.582886
H 260.637295 9.052447 -1.758538
H 260.331058 8.089077 -0.313905
H 262.031740 8.138018 -3.621979
H 262.731835 5.201073 -5.768862
H 264.028931 6.270237 -5.179621
H 262.483184 6.946322 -5.748749
H 262.718022 3.880810 -3.650282
H 259.292987 4.009987 -1.991681
H 257.536295 2.239610 -1.391890
H 262.947935 0.718018 -0.531845
H 261.601001 -5.327885 -0.229188
H 261.816638 -9.022099 0.201404
H 261.596100 -7.718633 -0.964789
H 260.280781 -8.122297 0.167201
H 262.269468 -8.526951 2.584240
H 264.000319 -6.351200 5.036140
H 263.612673 -8.017136 4.608555
H 262.355107 -6.973859 5.315293
H 263.167883 -4.446772 3.653510
