 xtb: 6.5.1 (b24c23e)
          07302210383D

237266  0     0  0            999 V2000
   27.8217    0.0081   -0.0153 Zn  0  0  0  0  0  0  0  0  0  0  0  0
   24.4045    0.0876   -0.0377 C   0  0  0  0  0  0  0  0  0  0  0  0
   25.0491    1.2228    0.4406 C   0  0  0  0  0  0  0  0  0  0  0  0
   24.3945    2.4085    0.9212 C   0  0  0  0  0  0  0  0  0  0  0  0
   25.3680    3.2770    1.2944 C   0  0  0  0  0  0  0  0  0  0  0  0
   26.6293    2.6317    1.0448 C   0  0  0  0  0  0  0  0  0  0  0  0
   26.4012    1.3896    0.5288 N   0  0  0  0  0  0  0  0  0  0  0  0
   27.8856    3.1921    1.2922 C   0  0  0  0  0  0  0  0  0  0  0  0
   27.9156    4.5715    1.8619 C   0  0  0  0  0  0  0  0  0  0  0  0
   27.9051    5.6797    1.0101 C   0  0  0  0  0  0  0  0  0  0  0  0
   27.8593    5.4788   -0.4814 C   0  0  0  0  0  0  0  0  0  0  0  0
   27.9378    6.9592    1.5520 C   0  0  0  0  0  0  0  0  0  0  0  0
   27.9799    7.1509    2.9293 C   0  0  0  0  0  0  0  0  0  0  0  0
   28.0379    8.5412    3.5025 C   0  0  0  0  0  0  0  0  0  0  0  0
   27.9897    6.0412    3.7679 C   0  0  0  0  0  0  0  0  0  0  0  0
   27.9576    4.7528    3.2471 C   0  0  0  0  0  0  0  0  0  0  0  0
   27.9687    3.5556    4.1601 C   0  0  0  0  0  0  0  0  0  0  0  0
   29.1168    2.5779    1.0555 C   0  0  0  0  0  0  0  0  0  0  0  0
   30.3988    3.1734    1.3122 C   0  0  0  0  0  0  0  0  0  0  0  0
   31.3402    2.2637    0.9524 C   0  0  0  0  0  0  0  0  0  0  0  0
   29.3030    1.3208    0.5450 N   0  0  0  0  0  0  0  0  0  0  0  0
   30.6432    1.1053    0.4729 C   0  0  0  0  0  0  0  0  0  0  0  0
   31.2642   -0.0693    0.0010 C   0  0  0  0  0  0  0  0  0  0  0  0
   30.5960   -1.2163   -0.4740 C   0  0  0  0  0  0  0  0  0  0  0  0
   31.2448   -2.4061   -0.9440 C   0  0  0  0  0  0  0  0  0  0  0  0
   30.2669   -3.2738   -1.3104 C   0  0  0  0  0  0  0  0  0  0  0  0
   29.0105   -2.6202   -1.0681 C   0  0  0  0  0  0  0  0  0  0  0  0
   29.2482   -1.3715   -0.5583 N   0  0  0  0  0  0  0  0  0  0  0  0
   27.7551   -3.1777   -1.3179 C   0  0  0  0  0  0  0  0  0  0  0  0
   27.7272   -4.5592   -1.8825 C   0  0  0  0  0  0  0  0  0  0  0  0
   27.7809   -4.7484   -3.2669 C   0  0  0  0  0  0  0  0  0  0  0  0
   27.8645   -3.5571   -4.1837 C   0  0  0  0  0  0  0  0  0  0  0  0
   27.7587   -6.0385   -3.7818 C   0  0  0  0  0  0  0  0  0  0  0  0
   27.6845   -7.1437   -2.9385 C   0  0  0  0  0  0  0  0  0  0  0  0
   27.6547   -8.5321   -3.5187 C   0  0  0  0  0  0  0  0  0  0  0  0
   27.6303   -6.9442   -1.5640 C   0  0  0  0  0  0  0  0  0  0  0  0
   27.6513   -5.6614   -1.0273 C   0  0  0  0  0  0  0  0  0  0  0  0
   27.5954   -5.4525    0.4627 C   0  0  0  0  0  0  0  0  0  0  0  0
   26.5231   -2.5588   -1.0878 C   0  0  0  0  0  0  0  0  0  0  0  0
   25.2366   -3.1451   -1.3538 C   0  0  0  0  0  0  0  0  0  0  0  0
   24.2997   -2.2314   -0.9952 C   0  0  0  0  0  0  0  0  0  0  0  0
   25.0022   -1.0767   -0.5069 C   0  0  0  0  0  0  0  0  0  0  0  0
   26.3462   -1.3065   -0.5767 N   0  0  0  0  0  0  0  0  0  0  0  0
   23.3192    0.1128   -0.0451 H   0  0  0  0  0  0  0  0  0  0  0  0
   23.3253    2.5467    0.9633 H   0  0  0  0  0  0  0  0  0  0  0  0
   25.2540    4.2681    1.7044 H   0  0  0  0  0  0  0  0  0  0  0  0
   26.9480    4.9479   -0.7639 H   0  0  0  0  0  0  0  0  0  0  0  0
   28.7101    4.8784   -0.8090 H   0  0  0  0  0  0  0  0  0  0  0  0
   27.8829    6.4344   -1.0045 H   0  0  0  0  0  0  0  0  0  0  0  0
   27.9298    7.8193    0.8904 H   0  0  0  0  0  0  0  0  0  0  0  0
   27.6056    8.5680    4.5031 H   0  0  0  0  0  0  0  0  0  0  0  0
   29.0771    8.8713    3.5723 H   0  0  0  0  0  0  0  0  0  0  0  0
   27.5011    9.2460    2.8669 H   0  0  0  0  0  0  0  0  0  0  0  0
   28.0219    6.1812    4.8435 H   0  0  0  0  0  0  0  0  0  0  0  0
   28.8570    2.9480    3.9758 H   0  0  0  0  0  0  0  0  0  0  0  0
   27.9667    3.8623    5.2056 H   0  0  0  0  0  0  0  0  0  0  0  0
   27.0931    2.9302    3.9760 H   0  0  0  0  0  0  0  0  0  0  0  0
   30.5503    4.1624    1.7147 H   0  0  0  0  0  0  0  0  0  0  0  0
   32.4132    2.3603    1.0035 H   0  0  0  0  0  0  0  0  0  0  0  0
   32.3128   -2.5508   -0.9841 H   0  0  0  0  0  0  0  0  0  0  0  0
   30.3775   -4.2698   -1.7086 H   0  0  0  0  0  0  0  0  0  0  0  0
   27.0182   -2.8885   -4.0148 H   0  0  0  0  0  0  0  0  0  0  0  0
   27.8626   -3.8677   -5.2281 H   0  0  0  0  0  0  0  0  0  0  0  0
   28.7789   -2.9933   -3.9885 H   0  0  0  0  0  0  0  0  0  0  0  0
   27.8012   -6.1863   -4.8560 H   0  0  0  0  0  0  0  0  0  0  0  0
   28.4676   -8.6648   -4.2343 H   0  0  0  0  0  0  0  0  0  0  0  0
   27.7503   -9.2850   -2.7365 H   0  0  0  0  0  0  0  0  0  0  0  0
   26.7128   -8.6990   -4.0456 H   0  0  0  0  0  0  0  0  0  0  0  0
   27.5727   -7.7992   -0.8982 H   0  0  0  0  0  0  0  0  0  0  0  0
   26.7073   -4.8769    0.7311 H   0  0  0  0  0  0  0  0  0  0  0  0
   28.4699   -4.8926    0.7998 H   0  0  0  0  0  0  0  0  0  0  0  0
   27.5657   -6.4059    0.9894 H   0  0  0  0  0  0  0  0  0  0  0  0
   25.0821   -4.1305   -1.7642 H   0  0  0  0  0  0  0  0  0  0  0  0
   23.2259   -2.3197   -1.0519 H   0  0  0  0  0  0  0  0  0  0  0  0
   65.0871   -0.0189   -0.0434 Zn  0  0  0  0  0  0  0  0  0  0  0  0
   68.5047   -0.0727   -0.0797 C   0  0  0  0  0  0  0  0  0  0  0  0
   67.8607   -1.2198   -0.5297 C   0  0  0  0  0  0  0  0  0  0  0  0
   68.5159   -2.4096   -0.9991 C   0  0  0  0  0  0  0  0  0  0  0  0
   67.5427   -3.2901   -1.3438 C   0  0  0  0  0  0  0  0  0  0  0  0
   66.2810   -2.6472   -1.0902 C   0  0  0  0  0  0  0  0  0  0  0  0
   66.5085   -1.3958   -0.5971 N   0  0  0  0  0  0  0  0  0  0  0  0
   65.0249   -3.2165   -1.3170 C   0  0  0  0  0  0  0  0  0  0  0  0
   64.9952   -4.6060   -1.8619 C   0  0  0  0  0  0  0  0  0  0  0  0
   65.0106   -4.8158   -3.2436 C   0  0  0  0  0  0  0  0  0  0  0  0
   65.0615   -3.6381   -4.1803 C   0  0  0  0  0  0  0  0  0  0  0  0
   64.9778   -6.1141   -3.7386 C   0  0  0  0  0  0  0  0  0  0  0  0
   64.9309   -7.2060   -2.8778 C   0  0  0  0  0  0  0  0  0  0  0  0
   64.8728   -8.6061   -3.4267 C   0  0  0  0  0  0  0  0  0  0  0  0
   64.9165   -6.9859   -1.5044 C   0  0  0  0  0  0  0  0  0  0  0  0
   64.9485   -5.6957   -0.9880 C   0  0  0  0  0  0  0  0  0  0  0  0
   64.9321   -5.4640    0.4996 C   0  0  0  0  0  0  0  0  0  0  0  0
   63.7933   -2.6040   -1.0780 C   0  0  0  0  0  0  0  0  0  0  0  0
   62.5116   -3.2044   -1.3246 C   0  0  0  0  0  0  0  0  0  0  0  0
   61.5696   -2.2960   -0.9628 C   0  0  0  0  0  0  0  0  0  0  0  0
   63.6064   -1.3447   -0.5732 N   0  0  0  0  0  0  0  0  0  0  0  0
   62.2660   -1.1337   -0.4919 C   0  0  0  0  0  0  0  0  0  0  0  0
   61.6442    0.0380   -0.0139 C   0  0  0  0  0  0  0  0  0  0  0  0
   62.3117    1.1874    0.4561 C   0  0  0  0  0  0  0  0  0  0  0  0
   61.6623    2.3694    0.9445 C   0  0  0  0  0  0  0  0  0  0  0  0
   62.6398    3.2444    1.2941 C   0  0  0  0  0  0  0  0  0  0  0  0
   63.8967    2.6041    1.0211 C   0  0  0  0  0  0  0  0  0  0  0  0
   63.6596    1.3539    0.5145 N   0  0  0  0  0  0  0  0  0  0  0  0
   65.1519    3.1753    1.2384 C   0  0  0  0  0  0  0  0  0  0  0  0
   65.1799    4.5613    1.7919 C   0  0  0  0  0  0  0  0  0  0  0  0
   65.1245    5.6588    0.9271 C   0  0  0  0  0  0  0  0  0  0  0  0
   65.0379    5.4382   -0.5598 C   0  0  0  0  0  0  0  0  0  0  0  0
   65.1485    6.9447    1.4522 C   0  0  0  0  0  0  0  0  0  0  0  0
   65.2260    7.1545    2.8263 C   0  0  0  0  0  0  0  0  0  0  0  0
   65.2581    8.5566    3.3726 C   0  0  0  0  0  0  0  0  0  0  0  0
   65.2816    6.0566    3.6769 C   0  0  0  0  0  0  0  0  0  0  0  0
   65.2591    4.7607    3.1724 C   0  0  0  0  0  0  0  0  0  0  0  0
   65.3171    3.5759    4.0997 C   0  0  0  0  0  0  0  0  0  0  0  0
   66.3844    2.5674    0.9828 C   0  0  0  0  0  0  0  0  0  0  0  0
   67.6708    3.1704    1.2092 C   0  0  0  0  0  0  0  0  0  0  0  0
   68.6083    2.2611    0.8410 C   0  0  0  0  0  0  0  0  0  0  0  0
   67.9063    1.0931    0.3847 C   0  0  0  0  0  0  0  0  0  0  0  0
   66.5620    1.3109    0.4821 N   0  0  0  0  0  0  0  0  0  0  0  0
   69.5901   -0.0894   -0.0916 H   0  0  0  0  0  0  0  0  0  0  0  0
   69.5852   -2.5425   -1.0527 H   0  0  0  0  0  0  0  0  0  0  0  0
   67.6571   -4.2886   -1.7355 H   0  0  0  0  0  0  0  0  0  0  0  0
   65.9694   -3.0567   -4.0082 H   0  0  0  0  0  0  0  0  0  0  0  0
   64.2071   -2.9805   -4.0087 H   0  0  0  0  0  0  0  0  0  0  0  0
   65.0481   -3.9653   -5.2195 H   0  0  0  0  0  0  0  0  0  0  0  0
   64.9896   -6.2767   -4.8115 H   0  0  0  0  0  0  0  0  0  0  0  0
   65.3072   -9.3177   -2.7242 H   0  0  0  0  0  0  0  0  0  0  0  0
   63.8334   -8.8933   -3.6024 H   0  0  0  0  0  0  0  0  0  0  0  0
   65.4074   -8.6742   -4.3745 H   0  0  0  0  0  0  0  0  0  0  0  0
   64.8805   -7.8316   -0.8254 H   0  0  0  0  0  0  0  0  0  0  0  0
   64.0478   -4.8897    0.7830 H   0  0  0  0  0  0  0  0  0  0  0  0
   64.9229   -6.4092    1.0416 H   0  0  0  0  0  0  0  0  0  0  0  0
   65.8117   -4.8935    0.8041 H   0  0  0  0  0  0  0  0  0  0  0  0
   62.3607   -4.1943   -1.7249 H   0  0  0  0  0  0  0  0  0  0  0  0
   60.4967   -2.3960   -1.0073 H   0  0  0  0  0  0  0  0  0  0  0  0
   60.5941    2.5038    1.0087 H   0  0  0  0  0  0  0  0  0  0  0  0
   62.5286    4.2362    1.7027 H   0  0  0  0  0  0  0  0  0  0  0  0
   65.8800    4.8343   -0.9032 H   0  0  0  0  0  0  0  0  0  0  0  0
   65.0451    6.3868   -1.0958 H   0  0  0  0  0  0  0  0  0  0  0  0
   64.1198    4.9026   -0.8095 H   0  0  0  0  0  0  0  0  0  0  0  0
   65.1049    7.7969    0.7818 H   0  0  0  0  0  0  0  0  0  0  0  0
   64.4432    9.1488    2.9533 H   0  0  0  0  0  0  0  0  0  0  0  0
   65.1673    8.5554    4.4587 H   0  0  0  0  0  0  0  0  0  0  0  0
   66.1988    9.0425    3.1050 H   0  0  0  0  0  0  0  0  0  0  0  0
   65.3418    6.2096    4.7495 H   0  0  0  0  0  0  0  0  0  0  0  0
   66.2091    2.9800    3.8968 H   0  0  0  0  0  0  0  0  0  0  0  0
   64.4465    2.9345    3.9500 H   0  0  0  0  0  0  0  0  0  0  0  0
   65.3412    3.8964    5.1409 H   0  0  0  0  0  0  0  0  0  0  0  0
   67.8249    4.1642    1.5990 H   0  0  0  0  0  0  0  0  0  0  0  0
   69.6821    2.3609    0.8707 H   0  0  0  0  0  0  0  0  0  0  0  0
   32.6689   -0.0971    0.0035 C   0  0  0  0  0  0  0  0  0  0  0  0
   33.8934   -0.1149    0.0038 C   0  0  0  0  0  0  0  0  0  0  0  0
   35.2361   -0.1288    0.0038 C   0  0  0  0  0  0  0  0  0  0  0  0
   36.4667   -0.1359    0.0028 C   0  0  0  0  0  0  0  0  0  0  0  0
   37.8047   -0.1387    0.0012 C   0  0  0  0  0  0  0  0  0  0  0  0
   39.0354   -0.1358   -0.0008 C   0  0  0  0  0  0  0  0  0  0  0  0
   40.3779   -0.1280   -0.0021 C   0  0  0  0  0  0  0  0  0  0  0  0
   41.6027   -0.1166   -0.0035 C   0  0  0  0  0  0  0  0  0  0  0  0
   51.3055    0.0404   -0.0157 C   0  0  0  0  0  0  0  0  0  0  0  0
   52.5302    0.0563   -0.0139 C   0  0  0  0  0  0  0  0  0  0  0  0
   53.8728    0.0691   -0.0107 C   0  0  0  0  0  0  0  0  0  0  0  0
   55.1034    0.0775   -0.0075 C   0  0  0  0  0  0  0  0  0  0  0  0
   56.4414    0.0812   -0.0051 C   0  0  0  0  0  0  0  0  0  0  0  0
   57.6721    0.0806   -0.0039 C   0  0  0  0  0  0  0  0  0  0  0  0
   59.0148    0.0718   -0.0025 C   0  0  0  0  0  0  0  0  0  0  0  0
   60.2394    0.0589   -0.0044 C   0  0  0  0  0  0  0  0  0  0  0  0
   46.4541   -0.0410   -0.0099 Zn  0  0  0  0  0  0  0  0  0  0  0  0
   43.0070   -0.0979   -0.0054 C   0  0  0  0  0  0  0  0  0  0  0  0
   43.6520    0.0646    1.2380 C   0  0  0  0  0  0  0  0  0  0  0  0
   42.9790    0.2080    2.4959 C   0  0  0  0  0  0  0  0  0  0  0  0
   43.9391    0.3342    3.4480 C   0  0  0  0  0  0  0  0  0  0  0  0
   45.2075    0.2682    2.7782 C   0  0  0  0  0  0  0  0  0  0  0  0
   44.9964    0.1050    1.4352 N   0  0  0  0  0  0  0  0  0  0  0  0
   46.4519    0.3560    3.4056 C   0  0  0  0  0  0  0  0  0  0  0  0
   46.4505    0.5253    4.8888 C   0  0  0  0  0  0  0  0  0  0  0  0
   46.4761    1.8071    5.4448 C   0  0  0  0  0  0  0  0  0  0  0  0
   46.5072    3.0145    4.5458 C   0  0  0  0  0  0  0  0  0  0  0  0
   46.4716    1.9529    6.8274 C   0  0  0  0  0  0  0  0  0  0  0  0
   46.4412    0.8414    7.6626 C   0  0  0  0  0  0  0  0  0  0  0  0
   46.4547    1.0072    9.1584 C   0  0  0  0  0  0  0  0  0  0  0  0
   46.4174   -0.4302    7.0982 C   0  0  0  0  0  0  0  0  0  0  0  0
   46.4213   -0.5990    5.7188 C   0  0  0  0  0  0  0  0  0  0  0  0
   46.3925   -1.9775    5.1140 C   0  0  0  0  0  0  0  0  0  0  0  0
   47.6971    0.3000    2.7761 C   0  0  0  0  0  0  0  0  0  0  0  0
   48.9646    0.3912    3.4446 C   0  0  0  0  0  0  0  0  0  0  0  0
   49.9259    0.2988    2.4899 C   0  0  0  0  0  0  0  0  0  0  0  0
   47.9100    0.1526    1.4316 N   0  0  0  0  0  0  0  0  0  0  0  0
   49.2546    0.1499    1.2317 C   0  0  0  0  0  0  0  0  0  0  0  0
   49.9012    0.0204   -0.0148 C   0  0  0  0  0  0  0  0  0  0  0  0
   49.2562   -0.1316   -1.2594 C   0  0  0  0  0  0  0  0  0  0  0  0
   49.9288   -0.2577   -2.5194 C   0  0  0  0  0  0  0  0  0  0  0  0
   48.9686   -0.3847   -3.4714 C   0  0  0  0  0  0  0  0  0  0  0  0
   47.7006   -0.3388   -2.7992 C   0  0  0  0  0  0  0  0  0  0  0  0
   47.9119   -0.1827   -1.4554 N   0  0  0  0  0  0  0  0  0  0  0  0
   46.4564   -0.4407   -3.4250 C   0  0  0  0  0  0  0  0  0  0  0  0
   46.4574   -0.6143   -4.9076 C   0  0  0  0  0  0  0  0  0  0  0  0
   46.3766    0.5047   -5.7414 C   0  0  0  0  0  0  0  0  0  0  0  0
   46.2888    1.8827   -5.1413 C   0  0  0  0  0  0  0  0  0  0  0  0
   46.3774    0.3311   -7.1203 C   0  0  0  0  0  0  0  0  0  0  0  0
   46.4563   -0.9400   -7.6805 C   0  0  0  0  0  0  0  0  0  0  0  0
   46.4760   -1.1114   -9.1755 C   0  0  0  0  0  0  0  0  0  0  0  0
   46.5371   -2.0464   -6.8415 C   0  0  0  0  0  0  0  0  0  0  0  0
   46.5380   -1.8957   -5.4596 C   0  0  0  0  0  0  0  0  0  0  0  0
   46.6231   -3.0976   -4.5567 C   0  0  0  0  0  0  0  0  0  0  0  0
   45.2114   -0.3959   -2.7941 C   0  0  0  0  0  0  0  0  0  0  0  0
   43.9442   -0.5063   -3.4604 C   0  0  0  0  0  0  0  0  0  0  0  0
   42.9828   -0.4106   -2.5060 C   0  0  0  0  0  0  0  0  0  0  0  0
   43.6538   -0.2417   -1.2501 C   0  0  0  0  0  0  0  0  0  0  0  0
   44.9983   -0.2381   -1.4508 N   0  0  0  0  0  0  0  0  0  0  0  0
   41.9083    0.2109    2.6255 H   0  0  0  0  0  0  0  0  0  0  0  0
   43.8083    0.4623    4.5107 H   0  0  0  0  0  0  0  0  0  0  0  0
   47.4106    3.0060    3.9327 H   0  0  0  0  0  0  0  0  0  0  0  0
   46.4896    3.9350    5.1284 H   0  0  0  0  0  0  0  0  0  0  0  0
   45.6475    3.0085    3.8730 H   0  0  0  0  0  0  0  0  0  0  0  0
   46.4899    2.9486    7.2585 H   0  0  0  0  0  0  0  0  0  0  0  0
   47.4761    0.9111    9.5341 H   0  0  0  0  0  0  0  0  0  0  0  0
   45.8452    0.2408    9.6382 H   0  0  0  0  0  0  0  0  0  0  0  0
   46.0775    1.9889    9.4451 H   0  0  0  0  0  0  0  0  0  0  0  0
   46.3938   -1.3029    7.7428 H   0  0  0  0  0  0  0  0  0  0  0  0
   45.4914   -2.1072    4.5113 H   0  0  0  0  0  0  0  0  0  0  0  0
   47.2546   -2.1226    4.4601 H   0  0  0  0  0  0  0  0  0  0  0  0
   46.4074   -2.7436    5.8886 H   0  0  0  0  0  0  0  0  0  0  0  0
   49.0939    0.5093    4.5087 H   0  0  0  0  0  0  0  0  0  0  0  0
   50.9964    0.3275    2.6178 H   0  0  0  0  0  0  0  0  0  0  0  0
   50.9992   -0.2479   -2.6504 H   0  0  0  0  0  0  0  0  0  0  0  0
   49.0991   -0.4981   -4.5358 H   0  0  0  0  0  0  0  0  0  0  0  0
   45.3856    1.9742   -4.5346 H   0  0  0  0  0  0  0  0  0  0  0  0
   46.2654    2.6458   -5.9187 H   0  0  0  0  0  0  0  0  0  0  0  0
   47.1466    2.0689   -4.4923 H   0  0  0  0  0  0  0  0  0  0  0  0
   46.3141    1.1998   -7.7676 H   0  0  0  0  0  0  0  0  0  0  0  0
   46.1058   -2.0968   -9.4594 H   0  0  0  0  0  0  0  0  0  0  0  0
   47.4983   -1.0115   -9.5477 H   0  0  0  0  0  0  0  0  0  0  0  0
   45.8638   -0.3508   -9.6611 H   0  0  0  0  0  0  0  0  0  0  0  0
   46.5982   -3.0417   -7.2695 H   0  0  0  0  0  0  0  0  0  0  0  0
   46.6497   -4.0198   -5.1365 H   0  0  0  0  0  0  0  0  0  0  0  0
   45.7623   -3.1294   -3.8860 H   0  0  0  0  0  0  0  0  0  0  0  0
   47.5235   -3.0455   -3.9414 H   0  0  0  0  0  0  0  0  0  0  0  0
   43.8150   -0.6411   -4.5225 H   0  0  0  0  0  0  0  0  0  0  0  0
   41.9125   -0.4498   -2.6326 H   0  0  0  0  0  0  0  0  0  0  0  0
  2  3  4  0  0  0  0
  3  4  1  0  0  0  0
  4  5  2  0  0  0  0
  5  6  4  0  0  0  0
  1  7  1  0  0  0  0
  3  7  4  0  0  0  0
  6  7  4  0  0  0  0
  6  8  4  0  0  0  0
  8  9  1  0  0  0  0
  9 10  4  0  0  0  0
 10 11  1  0  0  0  0
 10 12  4  0  0  0  0
 12 13  4  0  0  0  0
 13 14  1  0  0  0  0
 13 15  4  0  0  0  0
  9 16  4  0  0  0  0
 15 16  4  0  0  0  0
 16 17  1  0  0  0  0
  8 18  4  0  0  0  0
 18 19  4  0  0  0  0
 19 20  2  0  0  0  0
  1 21  1  0  0  0  0
 18 21  4  0  0  0  0
 20 22  4  0  0  0  0
 21 22  4  0  0  0  0
 22 23  4  0  0  0  0
 23 24  4  0  0  0  0
 24 25  4  0  0  0  0
 25 26  2  0  0  0  0
 26 27  4  0  0  0  0
  1 28  1  0  0  0  0
 24 28  4  0  0  0  0
 27 28  4  0  0  0  0
 27 29  4  0  0  0  0
 29 30  1  0  0  0  0
 30 31  4  0  0  0  0
 31 32  1  0  0  0  0
 31 33  4  0  0  0  0
 33 34  4  0  0  0  0
 34 35  1  0  0  0  0
 34 36  4  0  0  0  0
 30 37  4  0  0  0  0
 36 37  4  0  0  0  0
 37 38  1  0  0  0  0
 29 39  4  0  0  0  0
 39 40  4  0  0  0  0
 40 41  2  0  0  0  0
  2 42  4  0  0  0  0
 41 42  1  0  0  0  0
  1 43  1  0  0  0  0
 39 43  4  0  0  0  0
 42 43  4  0  0  0  0
  2 44  1  0  0  0  0
  4 45  1  0  0  0  0
  5 46  1  0  0  0  0
 11 47  1  0  0  0  0
 11 48  1  0  0  0  0
 11 49  1  0  0  0  0
 12 50  1  0  0  0  0
 14 51  1  0  0  0  0
 14 52  1  0  0  0  0
 14 53  1  0  0  0  0
 15 54  1  0  0  0  0
 17 55  1  0  0  0  0
 17 56  1  0  0  0  0
 17 57  1  0  0  0  0
 19 58  1  0  0  0  0
 20 59  1  0  0  0  0
 25 60  1  0  0  0  0
 26 61  1  0  0  0  0
 32 62  1  0  0  0  0
 32 63  1  0  0  0  0
 32 64  1  0  0  0  0
 33 65  1  0  0  0  0
 35 66  1  0  0  0  0
 35 67  1  0  0  0  0
 35 68  1  0  0  0  0
 36 69  1  0  0  0  0
 38 70  1  0  0  0  0
 38 71  1  0  0  0  0
 38 72  1  0  0  0  0
 40 73  1  0  0  0  0
 41 74  1  0  0  0  0
 76 77  4  0  0  0  0
 77 78  1  0  0  0  0
 78 79  2  0  0  0  0
 79 80  4  0  0  0  0
 75 81  1  0  0  0  0
 77 81  4  0  0  0  0
 80 81  4  0  0  0  0
 80 82  4  0  0  0  0
 82 83  1  0  0  0  0
 83 84  4  0  0  0  0
 84 85  1  0  0  0  0
 84 86  4  0  0  0  0
 86 87  4  0  0  0  0
 87 88  1  0  0  0  0
 87 89  4  0  0  0  0
 83 90  4  0  0  0  0
 89 90  4  0  0  0  0
 90 91  1  0  0  0  0
 82 92  4  0  0  0  0
 92 93  4  0  0  0  0
 93 94  2  0  0  0  0
 75 95  1  0  0  0  0
 92 95  4  0  0  0  0
 94 96  4  0  0  0  0
 95 96  4  0  0  0  0
 96 97  4  0  0  0  0
 97 98  4  0  0  0  0
 98 99  4  0  0  0  0
 99100  2  0  0  0  0
100101  4  0  0  0  0
 75102  1  0  0  0  0
 98102  4  0  0  0  0
101102  4  0  0  0  0
101103  4  0  0  0  0
103104  1  0  0  0  0
104105  4  0  0  0  0
105106  1  0  0  0  0
105107  4  0  0  0  0
107108  4  0  0  0  0
108109  1  0  0  0  0
108110  4  0  0  0  0
104111  4  0  0  0  0
110111  4  0  0  0  0
111112  1  0  0  0  0
103113  4  0  0  0  0
113114  4  0  0  0  0
114115  2  0  0  0  0
 76116  4  0  0  0  0
115116  1  0  0  0  0
 75117  1  0  0  0  0
113117  4  0  0  0  0
116117  4  0  0  0  0
 76118  1  0  0  0  0
 78119  1  0  0  0  0
 79120  1  0  0  0  0
 85121  1  0  0  0  0
 85122  1  0  0  0  0
 85123  1  0  0  0  0
 86124  1  0  0  0  0
 88125  1  0  0  0  0
 88126  1  0  0  0  0
 88127  1  0  0  0  0
 89128  1  0  0  0  0
 91129  1  0  0  0  0
 91130  1  0  0  0  0
 91131  1  0  0  0  0
 93132  1  0  0  0  0
 94133  1  0  0  0  0
 99134  1  0  0  0  0
100135  1  0  0  0  0
106136  1  0  0  0  0
106137  1  0  0  0  0
106138  1  0  0  0  0
107139  1  0  0  0  0
109140  1  0  0  0  0
109141  1  0  0  0  0
109142  1  0  0  0  0
110143  1  0  0  0  0
112144  1  0  0  0  0
112145  1  0  0  0  0
112146  1  0  0  0  0
114147  1  0  0  0  0
115148  1  0  0  0  0
 23149  4  0  0  0  0
149150  3  0  0  0  0
150151  4  0  0  0  0
151152  3  0  0  0  0
152153  4  0  0  0  0
153154  3  0  0  0  0
154155  4  0  0  0  0
155156  3  0  0  0  0
157158  3  0  0  0  0
158159  4  0  0  0  0
159160  3  0  0  0  0
160161  4  0  0  0  0
161162  3  0  0  0  0
162163  4  0  0  0  0
 97164  4  0  0  0  0
163164  3  0  0  0  0
156166  4  0  0  0  0
166167  4  0  0  0  0
167168  4  0  0  0  0
168169  2  0  0  0  0
169170  4  0  0  0  0
165171  1  0  0  0  0
167171  4  0  0  0  0
170171  4  0  0  0  0
170172  4  0  0  0  0
172173  1  0  0  0  0
173174  4  0  0  0  0
174175  1  0  0  0  0
174176  4  0  0  0  0
176177  4  0  0  0  0
177178  1  0  0  0  0
177179  4  0  0  0  0
173180  4  0  0  0  0
179180  4  0  0  0  0
180181  1  0  0  0  0
172182  4  0  0  0  0
182183  4  0  0  0  0
183184  2  0  0  0  0
165185  1  0  0  0  0
182185  4  0  0  0  0
184186  4  0  0  0  0
185186  4  0  0  0  0
157187  4  0  0  0  0
186187  4  0  0  0  0
187188  4  0  0  0  0
188189  4  0  0  0  0
189190  2  0  0  0  0
190191  4  0  0  0  0
165192  1  0  0  0  0
188192  4  0  0  0  0
191192  4  0  0  0  0
191193  4  0  0  0  0
193194  1  0  0  0  0
194195  4  0  0  0  0
195196  1  0  0  0  0
195197  4  0  0  0  0
197198  4  0  0  0  0
198199  1  0  0  0  0
198200  4  0  0  0  0
194201  4  0  0  0  0
200201  4  0  0  0  0
201202  1  0  0  0  0
193203  4  0  0  0  0
203204  4  0  0  0  0
204205  2  0  0  0  0
166206  4  0  0  0  0
205206  4  0  0  0  0
165207  1  0  0  0  0
203207  4  0  0  0  0
206207  4  0  0  0  0
168208  1  0  0  0  0
169209  1  0  0  0  0
175210  1  0  0  0  0
175211  1  0  0  0  0
175212  1  0  0  0  0
176213  1  0  0  0  0
178214  1  0  0  0  0
178215  1  0  0  0  0
178216  1  0  0  0  0
179217  1  0  0  0  0
181218  1  0  0  0  0
181219  1  0  0  0  0
181220  1  0  0  0  0
183221  1  0  0  0  0
184222  1  0  0  0  0
189223  1  0  0  0  0
190224  1  0  0  0  0
196225  1  0  0  0  0
196226  1  0  0  0  0
196227  1  0  0  0  0
197228  1  0  0  0  0
199229  1  0  0  0  0
199230  1  0  0  0  0
199231  1  0  0  0  0
200232  1  0  0  0  0
202233  1  0  0  0  0
202234  1  0  0  0  0
202235  1  0  0  0  0
204236  1  0  0  0  0
205237  1  0  0  0  0
M  END
