 xtb: 6.5.1 (b24c23e)
          07302211593D

128147  0     0  0            999 V2000
   17.7068   -0.0527    0.0444 Zn  0  0  0  0  0  0  0  0  0  0  0  0
   14.2988   -0.1447    0.0606 C   0  0  0  0  0  0  0  0  0  0  0  0
   14.9247   -0.1892    1.3006 C   0  0  0  0  0  0  0  0  0  0  0  0
   14.2461   -0.2347    2.5656 C   0  0  0  0  0  0  0  0  0  0  0  0
   15.2013   -0.2479    3.5284 C   0  0  0  0  0  0  0  0  0  0  0  0
   16.4768   -0.2206    2.8620 C   0  0  0  0  0  0  0  0  0  0  0  0
   16.2734   -0.1784    1.5139 N   0  0  0  0  0  0  0  0  0  0  0  0
   17.7256   -0.2031    3.4952 C   0  0  0  0  0  0  0  0  0  0  0  0
   18.9671   -0.1361    2.8527 C   0  0  0  0  0  0  0  0  0  0  0  0
   20.2449   -0.1744    3.5092 C   0  0  0  0  0  0  0  0  0  0  0  0
   21.1940   -0.1097    2.5408 C   0  0  0  0  0  0  0  0  0  0  0  0
   19.1645   -0.0606    1.5002 N   0  0  0  0  0  0  0  0  0  0  0  0
   20.5072   -0.0386    1.2847 C   0  0  0  0  0  0  0  0  0  0  0  0
   21.1415    0.0301    0.0282 C   0  0  0  0  0  0  0  0  0  0  0  0
   20.4918    0.0760   -1.2215 C   0  0  0  0  0  0  0  0  0  0  0  0
   21.1639    0.1158   -2.4870 C   0  0  0  0  0  0  0  0  0  0  0  0
   20.2036    0.1400   -3.4460 C   0  0  0  0  0  0  0  0  0  0  0  0
   18.9335    0.1233   -2.7738 C   0  0  0  0  0  0  0  0  0  0  0  0
   17.6844    0.1180   -3.4052 C   0  0  0  0  0  0  0  0  0  0  0  0
   17.6761    0.1898   -4.8865 C   0  0  0  0  0  0  0  0  0  0  0  0
   17.1376   -0.8550   -5.6425 C   0  0  0  0  0  0  0  0  0  0  0  0
   17.1371   -0.7900   -7.0236 C   0  0  0  0  0  0  0  0  0  0  0  0
   17.6705    0.3234   -7.6759 C   0  0  0  0  0  0  0  0  0  0  0  0
   17.6478    0.3467   -9.1573 C   0  0  0  0  0  0  0  0  0  0  0  0
   18.1926    1.4536   -9.6860 O   0  0  0  0  0  0  0  0  0  0  0  0
   17.1907   -0.5307   -9.8455 O   0  0  0  0  0  0  0  0  0  0  0  0
   18.2055    1.3715   -6.9260 C   0  0  0  0  0  0  0  0  0  0  0  0
   18.2091    1.3017   -5.5439 C   0  0  0  0  0  0  0  0  0  0  0  0
   16.4430    0.0468   -2.7611 C   0  0  0  0  0  0  0  0  0  0  0  0
   15.1597    0.0857   -3.4117 C   0  0  0  0  0  0  0  0  0  0  0  0
   14.2160    0.0088   -2.4406 C   0  0  0  0  0  0  0  0  0  0  0  0
   14.9096   -0.0681   -1.1852 C   0  0  0  0  0  0  0  0  0  0  0  0
   16.2557   -0.0382   -1.4127 N   0  0  0  0  0  0  0  0  0  0  0  0
   19.1467    0.0769   -1.4223 N   0  0  0  0  0  0  0  0  0  0  0  0
   17.7338   -0.2551    4.9775 C   0  0  0  0  0  0  0  0  0  0  0  0
   17.2125   -1.3620    5.6528 C   0  0  0  0  0  0  0  0  0  0  0  0
   17.2216   -1.4049    7.0349 C   0  0  0  0  0  0  0  0  0  0  0  0
   17.7470   -0.3395    7.7688 C   0  0  0  0  0  0  0  0  0  0  0  0
   17.7288   -0.4286    9.2478 C   0  0  0  0  0  0  0  0  0  0  0  0
   18.2580    0.6438    9.8573 O   0  0  0  0  0  0  0  0  0  0  0  0
   17.2870   -1.3620    9.8687 O   0  0  0  0  0  0  0  0  0  0  0  0
   18.2678    0.7688    7.0996 C   0  0  0  0  0  0  0  0  0  0  0  0
   18.2625    0.8067    5.7164 C   0  0  0  0  0  0  0  0  0  0  0  0
   13.2134   -0.1609    0.0665 H   0  0  0  0  0  0  0  0  0  0  0  0
   13.1746   -0.2468    2.6894 H   0  0  0  0  0  0  0  0  0  0  0  0
   15.0594   -0.2627    4.5971 H   0  0  0  0  0  0  0  0  0  0  0  0
   20.3953   -0.2556    4.5736 H   0  0  0  0  0  0  0  0  0  0  0  0
   22.2659   -0.1157    2.6587 H   0  0  0  0  0  0  0  0  0  0  0  0
   22.2344    0.1171   -2.6177 H   0  0  0  0  0  0  0  0  0  0  0  0
   20.3418    0.1533   -4.5151 H   0  0  0  0  0  0  0  0  0  0  0  0
   16.7357   -1.7266   -5.1385 H   0  0  0  0  0  0  0  0  0  0  0  0
   16.7270   -1.6005   -7.6160 H   0  0  0  0  0  0  0  0  0  0  0  0
   18.1392    1.3897  -10.6534 H   0  0  0  0  0  0  0  0  0  0  0  0
   18.6166    2.2395   -7.4278 H   0  0  0  0  0  0  0  0  0  0  0  0
   18.6143    2.1215   -4.9613 H   0  0  0  0  0  0  0  0  0  0  0  0
   15.0051    0.1739   -4.4751 H   0  0  0  0  0  0  0  0  0  0  0  0
   13.1430    0.0104   -2.5521 H   0  0  0  0  0  0  0  0  0  0  0  0
   16.8151   -2.1956    5.0850 H   0  0  0  0  0  0  0  0  0  0  0  0
   16.8236   -2.2633    7.5649 H   0  0  0  0  0  0  0  0  0  0  0  0
   18.2072    0.5075   10.8172 H   0  0  0  0  0  0  0  0  0  0  0  0
   18.6736    1.5994    7.6649 H   0  0  0  0  0  0  0  0  0  0  0  0
   18.6560    1.6731    5.1967 H   0  0  0  0  0  0  0  0  0  0  0  0
   31.1817   -0.0471   -0.0500 Zn  0  0  0  0  0  0  0  0  0  0  0  0
   34.5896   -0.1367   -0.0770 C   0  0  0  0  0  0  0  0  0  0  0  0
   33.9636   -0.0392   -1.3138 C   0  0  0  0  0  0  0  0  0  0  0  0
   34.6421    0.0598   -2.5759 C   0  0  0  0  0  0  0  0  0  0  0  0
   33.6869    0.1574   -3.5337 C   0  0  0  0  0  0  0  0  0  0  0  0
   32.4114    0.1093   -2.8684 C   0  0  0  0  0  0  0  0  0  0  0  0
   32.6149   -0.0034   -1.5243 N   0  0  0  0  0  0  0  0  0  0  0  0
   31.1626    0.2008   -3.4952 C   0  0  0  0  0  0  0  0  0  0  0  0
   29.9212    0.1948   -2.8492 C   0  0  0  0  0  0  0  0  0  0  0  0
   28.6434    0.2342   -3.5055 C   0  0  0  0  0  0  0  0  0  0  0  0
   27.6944    0.1871   -2.5361 C   0  0  0  0  0  0  0  0  0  0  0  0
   29.7239    0.1133   -1.4970 N   0  0  0  0  0  0  0  0  0  0  0  0
   28.3812    0.1116   -1.2802 C   0  0  0  0  0  0  0  0  0  0  0  0
   27.7470    0.0340   -0.0242 C   0  0  0  0  0  0  0  0  0  0  0  0
   28.3968   -0.0656    1.2223 C   0  0  0  0  0  0  0  0  0  0  0  0
   27.7247   -0.1736    2.4838 C   0  0  0  0  0  0  0  0  0  0  0  0
   28.6851   -0.2603    3.4392 C   0  0  0  0  0  0  0  0  0  0  0  0
   29.9551   -0.1981    2.7697 C   0  0  0  0  0  0  0  0  0  0  0  0
   31.2043   -0.2752    3.3963 C   0  0  0  0  0  0  0  0  0  0  0  0
   31.2127   -0.3748    4.8759 C   0  0  0  0  0  0  0  0  0  0  0  0
   31.7534   -1.4988    5.5064 C   0  0  0  0  0  0  0  0  0  0  0  0
   31.7540   -1.5936    6.8857 C   0  0  0  0  0  0  0  0  0  0  0  0
   31.2185   -0.5640    7.6622 C   0  0  0  0  0  0  0  0  0  0  0  0
   31.2414   -0.7117    9.1364 C   0  0  0  0  0  0  0  0  0  0  0  0
   30.6937    0.3252    9.7892 O   0  0  0  0  0  0  0  0  0  0  0  0
   31.7008   -1.6615    9.7187 O   0  0  0  0  0  0  0  0  0  0  0  0
   30.6811    0.5625    7.0382 C   0  0  0  0  0  0  0  0  0  0  0  0
   30.6775    0.6527    5.6573 C   0  0  0  0  0  0  0  0  0  0  0  0
   32.4457   -0.2705    2.7483 C   0  0  0  0  0  0  0  0  0  0  0  0
   33.7291   -0.3053    3.3990 C   0  0  0  0  0  0  0  0  0  0  0  0
   34.6728   -0.2698    2.4254 C   0  0  0  0  0  0  0  0  0  0  0  0
   33.9790   -0.2030    1.1696 C   0  0  0  0  0  0  0  0  0  0  0  0
   32.6329   -0.2001    1.3991 N   0  0  0  0  0  0  0  0  0  0  0  0
   29.7419   -0.0876    1.4219 N   0  0  0  0  0  0  0  0  0  0  0  0
   31.1544    0.3201   -4.9737 C   0  0  0  0  0  0  0  0  0  0  0  0
   31.6733   -0.7026   -5.7723 C   0  0  0  0  0  0  0  0  0  0  0  0
   31.6641   -0.5858   -7.1500 C   0  0  0  0  0  0  0  0  0  0  0  0
   31.1413    0.5584   -7.7559 C   0  0  0  0  0  0  0  0  0  0  0  0
   31.1590    0.6405   -9.2354 C   0  0  0  0  0  0  0  0  0  0  0  0
   30.6331    1.7776   -9.7170 O   0  0  0  0  0  0  0  0  0  0  0  0
   31.5980   -0.2164   -9.9596 O   0  0  0  0  0  0  0  0  0  0  0  0
   30.6231    1.5833   -6.9633 C   0  0  0  0  0  0  0  0  0  0  0  0
   30.6282    1.4613   -5.5849 C   0  0  0  0  0  0  0  0  0  0  0  0
   35.6751   -0.1520   -0.0847 H   0  0  0  0  0  0  0  0  0  0  0  0
   35.7136    0.0612   -2.7004 H   0  0  0  0  0  0  0  0  0  0  0  0
   33.8287    0.2647   -4.5972 H   0  0  0  0  0  0  0  0  0  0  0  0
   28.4930    0.2772   -4.5722 H   0  0  0  0  0  0  0  0  0  0  0  0
   26.6224    0.1959   -2.6539 H   0  0  0  0  0  0  0  0  0  0  0  0
   26.6543   -0.1880    2.6137 H   0  0  0  0  0  0  0  0  0  0  0  0
   28.5469   -0.3713    4.5026 H   0  0  0  0  0  0  0  0  0  0  0  0
   32.1570   -2.3056    4.9052 H   0  0  0  0  0  0  0  0  0  0  0  0
   32.1660   -2.4662    7.3807 H   0  0  0  0  0  0  0  0  0  0  0  0
   30.7473    0.1503   10.7427 H   0  0  0  0  0  0  0  0  0  0  0  0
   30.2683    1.3660    7.6368 H   0  0  0  0  0  0  0  0  0  0  0  0
   30.2706    1.5334    5.1732 H   0  0  0  0  0  0  0  0  0  0  0  0
   33.8837   -0.3393    4.4655 H   0  0  0  0  0  0  0  0  0  0  0  0
   35.7457   -0.2801    2.5364 H   0  0  0  0  0  0  0  0  0  0  0  0
   32.0688   -1.5971   -5.3045 H   0  0  0  0  0  0  0  0  0  0  0  0
   32.0601   -1.3782   -7.7756 H   0  0  0  0  0  0  0  0  0  0  0  0
   30.6833    1.7528  -10.6862 H   0  0  0  0  0  0  0  0  0  0  0  0
   30.2191    2.4745   -7.4288 H   0  0  0  0  0  0  0  0  0  0  0  0
   30.2366    2.2627   -4.9686 H   0  0  0  0  0  0  0  0  0  0  0  0
   23.7694    0.0463    0.0070 C   0  0  0  0  0  0  0  0  0  0  0  0
   22.5474    0.0410    0.0190 C   0  0  0  0  0  0  0  0  0  0  0  0
   25.1191    0.0468   -0.0018 C   0  0  0  0  0  0  0  0  0  0  0  0
   26.3411    0.0429   -0.0138 C   0  0  0  0  0  0  0  0  0  0  0  0
  2  3  4  0  0  0  0
  3  4  4  0  0  0  0
  4  5  2  0  0  0  0
  5  6  4  0  0  0  0
  1  7  1  0  0  0  0
  3  7  4  0  0  0  0
  6  7  4  0  0  0  0
  6  8  4  0  0  0  0
  8  9  4  0  0  0  0
  9 10  4  0  0  0  0
 10 11  2  0  0  0  0
  1 12  1  0  0  0  0
  9 12  4  0  0  0  0
 11 13  4  0  0  0  0
 12 13  4  0  0  0  0
 13 14  4  0  0  0  0
 14 15  4  0  0  0  0
 15 16  4  0  0  0  0
 16 17  2  0  0  0  0
 17 18  4  0  0  0  0
 18 19  4  0  0  0  0
 19 20  1  0  0  0  0
 20 21  4  0  0  0  0
 21 22  4  0  0  0  0
 22 23  4  0  0  0  0
 23 24  1  0  0  0  0
 24 25  4  0  0  0  0
 24 26  2  0  0  0  0
 23 27  4  0  0  0  0
 20 28  4  0  0  0  0
 27 28  4  0  0  0  0
 19 29  4  0  0  0  0
 29 30  4  0  0  0  0
 30 31  2  0  0  0  0
  2 32  4  0  0  0  0
 31 32  4  0  0  0  0
  1 33  1  0  0  0  0
 29 33  4  0  0  0  0
 32 33  4  0  0  0  0
  1 34  1  0  0  0  0
 15 34  4  0  0  0  0
 18 34  4  0  0  0  0
  8 35  1  0  0  0  0
 35 36  4  0  0  0  0
 36 37  4  0  0  0  0
 37 38  4  0  0  0  0
 38 39  1  0  0  0  0
 39 40  4  0  0  0  0
 39 41  2  0  0  0  0
 38 42  4  0  0  0  0
 35 43  4  0  0  0  0
 42 43  4  0  0  0  0
  2 44  1  0  0  0  0
  4 45  1  0  0  0  0
  5 46  1  0  0  0  0
 10 47  1  0  0  0  0
 11 48  1  0  0  0  0
 16 49  1  0  0  0  0
 17 50  1  0  0  0  0
 21 51  1  0  0  0  0
 22 52  1  0  0  0  0
 25 53  1  0  0  0  0
 27 54  1  0  0  0  0
 28 55  1  0  0  0  0
 30 56  1  0  0  0  0
 31 57  1  0  0  0  0
 36 58  1  0  0  0  0
 37 59  1  0  0  0  0
 40 60  1  0  0  0  0
 42 61  1  0  0  0  0
 43 62  1  0  0  0  0
 64 65  4  0  0  0  0
 65 66  4  0  0  0  0
 66 67  2  0  0  0  0
 67 68  4  0  0  0  0
 63 69  1  0  0  0  0
 65 69  4  0  0  0  0
 68 69  4  0  0  0  0
 68 70  4  0  0  0  0
 70 71  4  0  0  0  0
 71 72  4  0  0  0  0
 72 73  2  0  0  0  0
 63 74  1  0  0  0  0
 71 74  4  0  0  0  0
 73 75  4  0  0  0  0
 74 75  4  0  0  0  0
 75 76  4  0  0  0  0
 76 77  4  0  0  0  0
 77 78  4  0  0  0  0
 78 79  2  0  0  0  0
 79 80  4  0  0  0  0
 80 81  4  0  0  0  0
 81 82  1  0  0  0  0
 82 83  4  0  0  0  0
 83 84  4  0  0  0  0
 84 85  4  0  0  0  0
 85 86  1  0  0  0  0
 86 87  4  0  0  0  0
 86 88  2  0  0  0  0
 85 89  4  0  0  0  0
 82 90  4  0  0  0  0
 89 90  4  0  0  0  0
 81 91  4  0  0  0  0
 91 92  4  0  0  0  0
 92 93  2  0  0  0  0
 64 94  4  0  0  0  0
 93 94  4  0  0  0  0
 63 95  1  0  0  0  0
 91 95  4  0  0  0  0
 94 95  4  0  0  0  0
 63 96  1  0  0  0  0
 77 96  4  0  0  0  0
 80 96  4  0  0  0  0
 70 97  1  0  0  0  0
 97 98  4  0  0  0  0
 98 99  4  0  0  0  0
 99100  4  0  0  0  0
100101  1  0  0  0  0
101102  4  0  0  0  0
101103  2  0  0  0  0
100104  4  0  0  0  0
 97105  4  0  0  0  0
104105  4  0  0  0  0
 64106  1  0  0  0  0
 66107  1  0  0  0  0
 67108  1  0  0  0  0
 72109  1  0  0  0  0
 73110  1  0  0  0  0
 78111  1  0  0  0  0
 79112  1  0  0  0  0
 83113  1  0  0  0  0
 84114  1  0  0  0  0
 87115  1  0  0  0  0
 89116  1  0  0  0  0
 90117  1  0  0  0  0
 92118  1  0  0  0  0
 93119  1  0  0  0  0
 98120  1  0  0  0  0
 99121  1  0  0  0  0
102122  1  0  0  0  0
104123  1  0  0  0  0
105124  1  0  0  0  0
 14126  4  0  0  0  0
125126  3  0  0  0  0
125127  4  0  0  0  0
 76128  4  0  0  0  0
127128  3  0  0  0  0
M  END
