 xtb: 6.5.1 (b24c23e)
          07292219063D

268295  0     0  0            999 V2000
   40.0168   -0.3642    0.1641 C   0  0  0  0  0  0  0  0  0  0  0  0
   40.6314   -1.1099   -0.8336 C   0  0  0  0  0  0  0  0  0  0  0  0
   39.9846   -1.8909   -1.8322 C   0  0  0  0  0  0  0  0  0  0  0  0
   40.9503   -2.4541   -2.6179 C   0  0  0  0  0  0  0  0  0  0  0  0
   42.2195   -2.0500   -2.1136 C   0  0  0  0  0  0  0  0  0  0  0  0
   41.9754   -1.2316   -1.0470 N   0  0  0  0  0  0  0  0  0  0  0  0
   43.4873   -2.3991   -2.5926 C   0  0  0  0  0  0  0  0  0  0  0  0
   43.5381   -3.3104   -3.7624 C   0  0  0  0  0  0  0  0  0  0  0  0
   44.1611   -2.8850   -4.9394 C   0  0  0  0  0  0  0  0  0  0  0  0
   44.2067   -3.7294   -6.0413 C   0  0  0  0  0  0  0  0  0  0  0  0
   44.7929   -3.3784   -7.2290 O   0  0  0  0  0  0  0  0  0  0  0  0
   43.6394   -4.9995   -5.9756 C   0  0  0  0  0  0  0  0  0  0  0  0
   43.6729   -5.8530   -7.0469 O   0  0  0  0  0  0  0  0  0  0  0  0
   43.0208   -5.4272   -4.7996 C   0  0  0  0  0  0  0  0  0  0  0  0
   42.4761   -6.6671   -4.7443 O   0  0  0  0  0  0  0  0  0  0  0  0
   42.9678   -4.5820   -3.6972 C   0  0  0  0  0  0  0  0  0  0  0  0
   44.6955   -1.9526   -2.0505 C   0  0  0  0  0  0  0  0  0  0  0  0
   45.9999   -2.4143   -2.4905 C   0  0  0  0  0  0  0  0  0  0  0  0
   46.9102   -1.7673   -1.7335 C   0  0  0  0  0  0  0  0  0  0  0  0
   44.8359   -1.0559   -1.0359 N   0  0  0  0  0  0  0  0  0  0  0  0
   46.1612   -0.9128   -0.8329 C   0  0  0  0  0  0  0  0  0  0  0  0
   46.7860   -0.0443    0.0849 C   0  0  0  0  0  0  0  0  0  0  0  0
   46.1398    0.8088    0.9993 C   0  0  0  0  0  0  0  0  0  0  0  0
   46.7707    1.7342    1.8724 C   0  0  0  0  0  0  0  0  0  0  0  0
   45.7967    2.3581    2.6014 C   0  0  0  0  0  0  0  0  0  0  0  0
   44.5401    1.8207    2.2059 C   0  0  0  0  0  0  0  0  0  0  0  0
   44.7991    0.8988    1.2258 N   0  0  0  0  0  0  0  0  0  0  0  0
   43.2749    2.1561    2.6995 C   0  0  0  0  0  0  0  0  0  0  0  0
   43.2225    3.1658    3.7848 C   0  0  0  0  0  0  0  0  0  0  0  0
   43.8848    2.9405    4.9922 C   0  0  0  0  0  0  0  0  0  0  0  0
   43.8330    3.8916    6.0045 C   0  0  0  0  0  0  0  0  0  0  0  0
   44.4675    3.6790    7.1831 O   0  0  0  0  0  0  0  0  0  0  0  0
   43.1233    5.0776    5.8092 C   0  0  0  0  0  0  0  0  0  0  0  0
   43.0942    5.9990    6.8228 O   0  0  0  0  0  0  0  0  0  0  0  0
   42.4639    5.3034    4.6036 C   0  0  0  0  0  0  0  0  0  0  0  0
   41.7918    6.4915    4.4838 O   0  0  0  0  0  0  0  0  0  0  0  0
   42.5077    4.3517    3.5927 C   0  0  0  0  0  0  0  0  0  0  0  0
   42.0706    1.6076    2.2435 C   0  0  0  0  0  0  0  0  0  0  0  0
   40.7685    1.8941    2.8252 C   0  0  0  0  0  0  0  0  0  0  0  0
   39.8682    1.1823    2.1173 C   0  0  0  0  0  0  0  0  0  0  0  0
   40.6193    0.4575    1.1078 C   0  0  0  0  0  0  0  0  0  0  0  0
   41.9429    0.7278    1.2223 N   0  0  0  0  0  0  0  0  0  0  0  0
   38.9337   -0.4281    0.1952 H   0  0  0  0  0  0  0  0  0  0  0  0
   38.9157   -1.9925   -1.9316 H   0  0  0  0  0  0  0  0  0  0  0  0
   40.8016   -3.0902   -3.4752 H   0  0  0  0  0  0  0  0  0  0  0  0
   42.6982   -0.7796   -0.4970 H   0  0  0  0  0  0  0  0  0  0  0  0
   44.5922   -1.8927   -5.0020 H   0  0  0  0  0  0  0  0  0  0  0  0
   45.1663   -2.4887   -7.1781 H   0  0  0  0  0  0  0  0  0  0  0  0
   44.1380   -5.4050   -7.7714 H   0  0  0  0  0  0  0  0  0  0  0  0
   42.6179   -7.1011   -5.6017 H   0  0  0  0  0  0  0  0  0  0  0  0
   42.5027   -4.9329   -2.7851 H   0  0  0  0  0  0  0  0  0  0  0  0
   46.1737   -3.1498   -3.2592 H   0  0  0  0  0  0  0  0  0  0  0  0
   47.9853   -1.8469   -1.7595 H   0  0  0  0  0  0  0  0  0  0  0  0
   47.8347    1.9003    1.9229 H   0  0  0  0  0  0  0  0  0  0  0  0
   45.9335    3.1275    3.3434 H   0  0  0  0  0  0  0  0  0  0  0  0
   44.0847    0.3643    0.7424 H   0  0  0  0  0  0  0  0  0  0  0  0
   44.4232    2.0171    5.1626 H   0  0  0  0  0  0  0  0  0  0  0  0
   44.3123    4.4479    7.7563 H   0  0  0  0  0  0  0  0  0  0  0  0
   42.5608    6.7533    6.5258 H   0  0  0  0  0  0  0  0  0  0  0  0
   41.3622    6.5578    3.6209 H   0  0  0  0  0  0  0  0  0  0  0  0
   42.0051    4.5412    2.6515 H   0  0  0  0  0  0  0  0  0  0  0  0
   40.5933    2.5396    3.6709 H   0  0  0  0  0  0  0  0  0  0  0  0
   38.7985    1.1276    2.2462 H   0  0  0  0  0  0  0  0  0  0  0  0
   94.7612   -0.2404    0.3546 C   0  0  0  0  0  0  0  0  0  0  0  0
   94.1507    0.5551    1.3155 C   0  0  0  0  0  0  0  0  0  0  0  0
   94.8013    1.3159    2.3273 C   0  0  0  0  0  0  0  0  0  0  0  0
   93.8401    1.9607    3.0535 C   0  0  0  0  0  0  0  0  0  0  0  0
   92.5696    1.6017    2.5193 C   0  0  0  0  0  0  0  0  0  0  0  0
   92.8089    0.7628    1.4677 N   0  0  0  0  0  0  0  0  0  0  0  0
   91.3055    2.0160    2.9543 C   0  0  0  0  0  0  0  0  0  0  0  0
   91.2635    2.9260    4.1257 C   0  0  0  0  0  0  0  0  0  0  0  0
   90.6862    4.1925    3.9959 C   0  0  0  0  0  0  0  0  0  0  0  0
   90.6502    5.0505    5.0877 C   0  0  0  0  0  0  0  0  0  0  0  0
   90.1080    6.3077    5.0335 O   0  0  0  0  0  0  0  0  0  0  0  0
   91.1818    4.6515    6.3114 C   0  0  0  0  0  0  0  0  0  0  0  0
   91.1568    5.4775    7.4044 O   0  0  0  0  0  0  0  0  0  0  0  0
   91.7550    3.3857    6.4435 C   0  0  0  0  0  0  0  0  0  0  0  0
   92.2657    3.0051    7.6399 O   0  0  0  0  0  0  0  0  0  0  0  0
   91.7983    2.5272    5.3510 C   0  0  0  0  0  0  0  0  0  0  0  0
   90.0951    1.6329    2.3703 C   0  0  0  0  0  0  0  0  0  0  0  0
   88.7912    1.9919    2.8987 C   0  0  0  0  0  0  0  0  0  0  0  0
   87.8783    1.4292    2.0799 C   0  0  0  0  0  0  0  0  0  0  0  0
   89.9513    0.8577    1.2606 N   0  0  0  0  0  0  0  0  0  0  0  0
   88.6251    0.7264    1.0549 C   0  0  0  0  0  0  0  0  0  0  0  0
   87.9985    0.0299    0.0019 C   0  0  0  0  0  0  0  0  0  0  0  0
   88.6413   -0.6851   -1.0259 C   0  0  0  0  0  0  0  0  0  0  0  0
   88.0075   -1.3185   -2.1279 C   0  0  0  0  0  0  0  0  0  0  0  0
   88.9786   -1.8922   -2.9005 C   0  0  0  0  0  0  0  0  0  0  0  0
   90.2359   -1.6405   -2.2842 C   0  0  0  0  0  0  0  0  0  0  0  0
   89.9805   -0.8974   -1.1615 N   0  0  0  0  0  0  0  0  0  0  0  0
   91.4989   -2.0502   -2.7239 C   0  0  0  0  0  0  0  0  0  0  0  0
   91.5483   -2.8627   -3.9640 C   0  0  0  0  0  0  0  0  0  0  0  0
   90.8807   -4.0858   -4.0355 C   0  0  0  0  0  0  0  0  0  0  0  0
   90.9293   -4.8400   -5.2022 C   0  0  0  0  0  0  0  0  0  0  0  0
   90.2896   -6.0322   -5.2792 O   0  0  0  0  0  0  0  0  0  0  0  0
   91.6414   -4.3684   -6.3063 C   0  0  0  0  0  0  0  0  0  0  0  0
   91.6673   -5.1308   -7.4443 O   0  0  0  0  0  0  0  0  0  0  0  0
   92.3063   -3.1468   -6.2355 C   0  0  0  0  0  0  0  0  0  0  0  0
   92.9804   -2.7478   -7.3598 O   0  0  0  0  0  0  0  0  0  0  0  0
   92.2657   -2.3943   -5.0686 C   0  0  0  0  0  0  0  0  0  0  0  0
   92.7039   -1.7489   -2.0788 C   0  0  0  0  0  0  0  0  0  0  0  0
   94.0024   -2.2585   -2.4912 C   0  0  0  0  0  0  0  0  0  0  0  0
   94.9037   -1.7562   -1.6230 C   0  0  0  0  0  0  0  0  0  0  0  0
   94.1569   -0.9442   -0.6789 C   0  0  0  0  0  0  0  0  0  0  0  0
   92.8347   -0.9724   -0.9774 N   0  0  0  0  0  0  0  0  0  0  0  0
   95.8427   -0.3055    0.4204 H   0  0  0  0  0  0  0  0  0  0  0  0
   95.8698    1.3623    2.4652 H   0  0  0  0  0  0  0  0  0  0  0  0
   93.9928    2.6311    3.8835 H   0  0  0  0  0  0  0  0  0  0  0  0
   92.0845    0.3570    0.8847 H   0  0  0  0  0  0  0  0  0  0  0  0
   90.2834    4.5149    3.0429 H   0  0  0  0  0  0  0  0  0  0  0  0
   89.7559    6.4922    4.1528 H   0  0  0  0  0  0  0  0  0  0  0  0
   90.7238    6.3057    7.1429 H   0  0  0  0  0  0  0  0  0  0  0  0
   92.1371    3.7320    8.2715 H   0  0  0  0  0  0  0  0  0  0  0  0
   92.2282    1.5412    5.4713 H   0  0  0  0  0  0  0  0  0  0  0  0
   88.6186    2.5768    3.7877 H   0  0  0  0  0  0  0  0  0  0  0  0
   86.8026    1.4664    2.1453 H   0  0  0  0  0  0  0  0  0  0  0  0
   86.9440   -1.3202   -2.3040 H   0  0  0  0  0  0  0  0  0  0  0  0
   88.8393   -2.4362   -3.8203 H   0  0  0  0  0  0  0  0  0  0  0  0
   90.6964   -0.5560   -0.5286 H   0  0  0  0  0  0  0  0  0  0  0  0
   90.3402   -4.4707   -3.1804 H   0  0  0  0  0  0  0  0  0  0  0  0
   90.4418   -6.4040   -6.1637 H   0  0  0  0  0  0  0  0  0  0  0  0
   92.2019   -4.6630   -8.1055 H   0  0  0  0  0  0  0  0  0  0  0  0
   93.4122   -1.8954   -7.2171 H   0  0  0  0  0  0  0  0  0  0  0  0
   92.7727   -1.4375   -5.0260 H   0  0  0  0  0  0  0  0  0  0  0  0
   94.1742   -2.9235   -3.3223 H   0  0  0  0  0  0  0  0  0  0  0  0
   95.9715   -1.9076   -1.5949 H   0  0  0  0  0  0  0  0  0  0  0  0
   51.9880    0.0207    0.0871 C   0  0  0  0  0  0  0  0  0  0  0  0
   50.7599    0.0168    0.0958 C   0  0  0  0  0  0  0  0  0  0  0  0
   49.4154    0.0051    0.0998 C   0  0  0  0  0  0  0  0  0  0  0  0
   48.1918   -0.0102    0.0871 C   0  0  0  0  0  0  0  0  0  0  0  0
   53.3324    0.0208    0.0781 C   0  0  0  0  0  0  0  0  0  0  0  0
   54.5563    0.0171    0.0677 C   0  0  0  0  0  0  0  0  0  0  0  0
   68.0075    0.0070    0.0360 C   0  0  0  0  0  0  0  0  0  0  0  0
   66.7787   -0.0020    0.0424 C   0  0  0  0  0  0  0  0  0  0  0  0
   65.4356   -0.0037    0.0459 C   0  0  0  0  0  0  0  0  0  0  0  0
   64.2111   -0.0094    0.0440 C   0  0  0  0  0  0  0  0  0  0  0  0
   69.3505    0.0116    0.0238 C   0  0  0  0  0  0  0  0  0  0  0  0
   70.5749    0.0199    0.0093 C   0  0  0  0  0  0  0  0  0  0  0  0
   84.0248    0.0510   -0.0940 C   0  0  0  0  0  0  0  0  0  0  0  0
   82.7968    0.0474   -0.1078 C   0  0  0  0  0  0  0  0  0  0  0  0
   81.4523    0.0414   -0.1147 C   0  0  0  0  0  0  0  0  0  0  0  0
   80.2284    0.0317   -0.1146 C   0  0  0  0  0  0  0  0  0  0  0  0
   85.3694    0.0476   -0.0708 C   0  0  0  0  0  0  0  0  0  0  0  0
   86.5927    0.0467   -0.0408 C   0  0  0  0  0  0  0  0  0  0  0  0
   55.9615    0.0125    0.0563 C   0  0  0  0  0  0  0  0  0  0  0  0
   56.5814   -1.2518    0.0328 C   0  0  0  0  0  0  0  0  0  0  0  0
   55.9245   -2.5091    0.0522 C   0  0  0  0  0  0  0  0  0  0  0  0
   56.8823   -3.4851    0.0023 C   0  0  0  0  0  0  0  0  0  0  0  0
   58.1526   -2.8505   -0.0576 C   0  0  0  0  0  0  0  0  0  0  0  0
   57.9200   -1.5012   -0.0267 N   0  0  0  0  0  0  0  0  0  0  0  0
   59.4083   -3.4683   -0.1176 C   0  0  0  0  0  0  0  0  0  0  0  0
   59.4143   -4.9506   -0.1888 C   0  0  0  0  0  0  0  0  0  0  0  0
   60.0323   -5.7014    0.8119 C   0  0  0  0  0  0  0  0  0  0  0  0
   60.0453   -7.0925    0.7594 C   0  0  0  0  0  0  0  0  0  0  0  0
   60.6353   -7.8342    1.7325 O   0  0  0  0  0  0  0  0  0  0  0  0
   59.4396   -7.7519   -0.3153 C   0  0  0  0  0  0  0  0  0  0  0  0
   59.4412   -9.1074   -0.3985 O   0  0  0  0  0  0  0  0  0  0  0  0
   58.8258   -6.9929   -1.3153 C   0  0  0  0  0  0  0  0  0  0  0  0
   58.2558   -7.7000   -2.3425 O   0  0  0  0  0  0  0  0  0  0  0  0
   58.8021   -5.6064   -1.2588 C   0  0  0  0  0  0  0  0  0  0  0  0
   60.6355   -2.8032   -0.1174 C   0  0  0  0  0  0  0  0  0  0  0  0
   61.9193   -3.4699   -0.2414 C   0  0  0  0  0  0  0  0  0  0  0  0
   62.8590   -2.5030   -0.1917 C   0  0  0  0  0  0  0  0  0  0  0  0
   60.8163   -1.4568   -0.0180 N   0  0  0  0  0  0  0  0  0  0  0  0
   62.1476   -1.2483   -0.0502 C   0  0  0  0  0  0  0  0  0  0  0  0
   62.8073   -0.0056    0.0408 C   0  0  0  0  0  0  0  0  0  0  0  0
   62.1870    1.2564    0.1222 C   0  0  0  0  0  0  0  0  0  0  0  0
   62.8443    2.5086    0.2366 C   0  0  0  0  0  0  0  0  0  0  0  0
   61.8869    3.4854    0.2647 C   0  0  0  0  0  0  0  0  0  0  0  0
   60.6162    2.8570    0.1598 C   0  0  0  0  0  0  0  0  0  0  0  0
   60.8485    1.5091    0.0875 N   0  0  0  0  0  0  0  0  0  0  0  0
   59.3609    3.4771    0.1502 C   0  0  0  0  0  0  0  0  0  0  0  0
   59.3563    4.9610    0.1951 C   0  0  0  0  0  0  0  0  0  0  0  0
   59.9702    5.6945   -0.8208 C   0  0  0  0  0  0  0  0  0  0  0  0
   59.9641    7.0838   -0.7795 C   0  0  0  0  0  0  0  0  0  0  0  0
   60.5510    7.8053   -1.7654 O   0  0  0  0  0  0  0  0  0  0  0  0
   59.3499    7.7450    0.2854 C   0  0  0  0  0  0  0  0  0  0  0  0
   59.3635    9.1148    0.3019 O   0  0  0  0  0  0  0  0  0  0  0  0
   58.7409    7.0126    1.3014 C   0  0  0  0  0  0  0  0  0  0  0  0
   58.1637    7.7308    2.3153 O   0  0  0  0  0  0  0  0  0  0  0  0
   58.7386    5.6239    1.2591 C   0  0  0  0  0  0  0  0  0  0  0  0
   58.1332    2.8136    0.1029 C   0  0  0  0  0  0  0  0  0  0  0  0
   56.8492    3.4879    0.0352 C   0  0  0  0  0  0  0  0  0  0  0  0
   55.9092    2.5201    0.0173 C   0  0  0  0  0  0  0  0  0  0  0  0
   56.6205    1.2581    0.0603 C   0  0  0  0  0  0  0  0  0  0  0  0
   57.9526    1.4641    0.1013 N   0  0  0  0  0  0  0  0  0  0  0  0
   54.8559   -2.6415    0.1042 H   0  0  0  0  0  0  0  0  0  0  0  0
   56.7243   -4.5511    0.0170 H   0  0  0  0  0  0  0  0  0  0  0  0
   58.6465   -0.7931   -0.0379 H   0  0  0  0  0  0  0  0  0  0  0  0
   60.4940   -5.2008    1.6555 H   0  0  0  0  0  0  0  0  0  0  0  0
   61.0216   -7.2703    2.4154 H   0  0  0  0  0  0  0  0  0  0  0  0
   58.9772   -9.3623   -1.2124 H   0  0  0  0  0  0  0  0  0  0  0  0
   57.8626   -7.1051   -2.9941 H   0  0  0  0  0  0  0  0  0  0  0  0
   58.3327   -5.0405   -2.0550 H   0  0  0  0  0  0  0  0  0  0  0  0
   62.0609   -4.5314   -0.3645 H   0  0  0  0  0  0  0  0  0  0  0  0
   63.9310   -2.6020   -0.2535 H   0  0  0  0  0  0  0  0  0  0  0  0
   63.9132    2.6366    0.2941 H   0  0  0  0  0  0  0  0  0  0  0  0
   62.0452    4.5473    0.3582 H   0  0  0  0  0  0  0  0  0  0  0  0
   60.1220    0.8042    0.0213 H   0  0  0  0  0  0  0  0  0  0  0  0
   60.4357    5.1929   -1.6595 H   0  0  0  0  0  0  0  0  0  0  0  0
   60.4397    8.7485   -1.5613 H   0  0  0  0  0  0  0  0  0  0  0  0
   58.8965    9.4088    1.1003 H   0  0  0  0  0  0  0  0  0  0  0  0
   57.7605    7.1427    2.9674 H   0  0  0  0  0  0  0  0  0  0  0  0
   58.2754    5.0603    2.0605 H   0  0  0  0  0  0  0  0  0  0  0  0
   56.7074    4.5556   -0.0082 H   0  0  0  0  0  0  0  0  0  0  0  0
   54.8370    2.6237   -0.0318 H   0  0  0  0  0  0  0  0  0  0  0  0
   71.9785    0.0214   -0.0103 C   0  0  0  0  0  0  0  0  0  0  0  0
   72.6042   -1.2407   -0.0207 C   0  0  0  0  0  0  0  0  0  0  0  0
   71.9534   -2.5002    0.0297 C   0  0  0  0  0  0  0  0  0  0  0  0
   72.9146   -3.4728   -0.0217 C   0  0  0  0  0  0  0  0  0  0  0  0
   74.1807   -2.8337   -0.1156 C   0  0  0  0  0  0  0  0  0  0  0  0
   73.9424   -1.4850   -0.0991 N   0  0  0  0  0  0  0  0  0  0  0  0
   75.4374   -3.4462   -0.1986 C   0  0  0  0  0  0  0  0  0  0  0  0
   75.4483   -4.9290   -0.2492 C   0  0  0  0  0  0  0  0  0  0  0  0
   76.0997   -5.6614    0.7440 C   0  0  0  0  0  0  0  0  0  0  0  0
   76.1106   -7.0533    0.7175 C   0  0  0  0  0  0  0  0  0  0  0  0
   76.7313   -7.7769    1.6849 O   0  0  0  0  0  0  0  0  0  0  0  0
   75.4687   -7.7324   -0.3236 C   0  0  0  0  0  0  0  0  0  0  0  0
   75.4650   -9.0892   -0.3797 O   0  0  0  0  0  0  0  0  0  0  0  0
   74.8235   -6.9918   -1.3177 C   0  0  0  0  0  0  0  0  0  0  0  0
   74.2194   -7.7179   -2.3116 O   0  0  0  0  0  0  0  0  0  0  0  0
   74.8022   -5.6045   -1.2867 C   0  0  0  0  0  0  0  0  0  0  0  0
   76.6610   -2.7744   -0.2352 C   0  0  0  0  0  0  0  0  0  0  0  0
   77.9443   -3.4350   -0.3924 C   0  0  0  0  0  0  0  0  0  0  0  0
   78.8805   -2.4638   -0.3653 C   0  0  0  0  0  0  0  0  0  0  0  0
   76.8373   -1.4277   -0.1408 N   0  0  0  0  0  0  0  0  0  0  0  0
   78.1673   -1.2126   -0.2027 C   0  0  0  0  0  0  0  0  0  0  0  0
   78.8228    0.0310   -0.1060 C   0  0  0  0  0  0  0  0  0  0  0  0
   78.1994    1.2887    0.0036 C   0  0  0  0  0  0  0  0  0  0  0  0
   78.8529    2.5419    0.1293 C   0  0  0  0  0  0  0  0  0  0  0  0
   77.8922    3.5146    0.1782 C   0  0  0  0  0  0  0  0  0  0  0  0
   76.6230    2.8829    0.0746 C   0  0  0  0  0  0  0  0  0  0  0  0
   76.8595    1.5371   -0.0163 N   0  0  0  0  0  0  0  0  0  0  0  0
   75.3651    3.4982    0.0765 C   0  0  0  0  0  0  0  0  0  0  0  0
   75.3525    4.9813    0.1414 C   0  0  0  0  0  0  0  0  0  0  0  0
   75.9583    5.7340   -0.8651 C   0  0  0  0  0  0  0  0  0  0  0  0
   75.9415    7.1226   -0.8034 C   0  0  0  0  0  0  0  0  0  0  0  0
   76.5197    7.8630   -1.7803 O   0  0  0  0  0  0  0  0  0  0  0  0
   75.3253    7.7635    0.2727 C   0  0  0  0  0  0  0  0  0  0  0  0
   75.3284    9.1330    0.3091 O   0  0  0  0  0  0  0  0  0  0  0  0
   74.7246    7.0119    1.2795 C   0  0  0  0  0  0  0  0  0  0  0  0
   74.1445    7.7108    2.3052 O   0  0  0  0  0  0  0  0  0  0  0  0
   74.7327    5.6241    1.2166 C   0  0  0  0  0  0  0  0  0  0  0  0
   74.1403    2.8305    0.0246 C   0  0  0  0  0  0  0  0  0  0  0  0
   72.8538    3.5003   -0.0409 C   0  0  0  0  0  0  0  0  0  0  0  0
   71.9173    2.5292   -0.0623 C   0  0  0  0  0  0  0  0  0  0  0  0
   72.6334    1.2698   -0.0205 C   0  0  0  0  0  0  0  0  0  0  0  0
   73.9642    1.4800    0.0191 N   0  0  0  0  0  0  0  0  0  0  0  0
   70.8865   -2.6363    0.1028 H   0  0  0  0  0  0  0  0  0  0  0  0
   72.7615   -4.5390    0.0131 H   0  0  0  0  0  0  0  0  0  0  0  0
   74.6655   -0.7742   -0.1331 H   0  0  0  0  0  0  0  0  0  0  0  0
   76.5884   -5.1455    1.5628 H   0  0  0  0  0  0  0  0  0  0  0  0
   77.1428   -7.2005    2.3422 H   0  0  0  0  0  0  0  0  0  0  0  0
   74.9733   -9.3592   -1.1722 H   0  0  0  0  0  0  0  0  0  0  0  0
   73.8061   -7.1354   -2.9620 H   0  0  0  0  0  0  0  0  0  0  0  0
   74.3072   -5.0535   -2.0779 H   0  0  0  0  0  0  0  0  0  0  0  0
   78.0873   -4.4956   -0.5208 H   0  0  0  0  0  0  0  0  0  0  0  0
   79.9510   -2.5576   -0.4539 H   0  0  0  0  0  0  0  0  0  0  0  0
   79.9218    2.6732    0.1793 H   0  0  0  0  0  0  0  0  0  0  0  0
   78.0472    4.5759    0.2838 H   0  0  0  0  0  0  0  0  0  0  0  0
   76.1349    0.8304   -0.0854 H   0  0  0  0  0  0  0  0  0  0  0  0
   76.4248    5.2485   -1.7126 H   0  0  0  0  0  0  0  0  0  0  0  0
   76.4003    8.8022   -1.5627 H   0  0  0  0  0  0  0  0  0  0  0  0
   74.8594    9.4118    1.1117 H   0  0  0  0  0  0  0  0  0  0  0  0
   73.7482    7.1099    2.9497 H   0  0  0  0  0  0  0  0  0  0  0  0
   74.2752    5.0452    2.0102 H   0  0  0  0  0  0  0  0  0  0  0  0
   72.7083    4.5677   -0.0814 H   0  0  0  0  0  0  0  0  0  0  0  0
   70.8447    2.6289   -0.1111 H   0  0  0  0  0  0  0  0  0  0  0  0
  1  2  4  0  0  0  0
  2  3  4  0  0  0  0
  3  4  2  0  0  0  0
  4  5  4  0  0  0  0
  2  6  4  0  0  0  0
  5  6  4  0  0  0  0
  5  7  4  0  0  0  0
  7  8  1  0  0  0  0
  8  9  4  0  0  0  0
  9 10  4  0  0  0  0
 10 11  1  0  0  0  0
 10 12  4  0  0  0  0
 12 13  1  0  0  0  0
 12 14  4  0  0  0  0
 14 15  1  0  0  0  0
  8 16  4  0  0  0  0
 14 16  4  0  0  0  0
  7 17  4  0  0  0  0
 17 18  1  0  0  0  0
 18 19  2  0  0  0  0
 17 20  4  0  0  0  0
 19 21  1  0  0  0  0
 20 21  4  0  0  0  0
 21 22  4  0  0  0  0
 22 23  4  0  0  0  0
 23 24  4  0  0  0  0
 24 25  2  0  0  0  0
 25 26  4  0  0  0  0
 23 27  4  0  0  0  0
 26 27  4  0  0  0  0
 26 28  4  0  0  0  0
 28 29  1  0  0  0  0
 29 30  4  0  0  0  0
 30 31  4  0  0  0  0
 31 32  1  0  0  0  0
 31 33  4  0  0  0  0
 33 34  1  0  0  0  0
 33 35  4  0  0  0  0
 35 36  1  0  0  0  0
 29 37  4  0  0  0  0
 35 37  4  0  0  0  0
 28 38  4  0  0  0  0
 38 39  1  0  0  0  0
 39 40  2  0  0  0  0
  1 41  4  0  0  0  0
 40 41  1  0  0  0  0
 38 42  4  0  0  0  0
 41 42  4  0  0  0  0
  1 43  1  0  0  0  0
  3 44  1  0  0  0  0
  4 45  1  0  0  0  0
  6 46  1  0  0  0  0
  9 47  1  0  0  0  0
 11 48  1  0  0  0  0
 13 49  1  0  0  0  0
 15 50  1  0  0  0  0
 16 51  1  0  0  0  0
 18 52  1  0  0  0  0
 19 53  1  0  0  0  0
 24 54  1  0  0  0  0
 25 55  1  0  0  0  0
 27 56  1  0  0  0  0
 30 57  1  0  0  0  0
 32 58  1  0  0  0  0
 34 59  1  0  0  0  0
 36 60  1  0  0  0  0
 37 61  1  0  0  0  0
 39 62  1  0  0  0  0
 40 63  1  0  0  0  0
 64 65  4  0  0  0  0
 65 66  4  0  0  0  0
 66 67  2  0  0  0  0
 67 68  4  0  0  0  0
 65 69  4  0  0  0  0
 68 69  4  0  0  0  0
 68 70  4  0  0  0  0
 70 71  1  0  0  0  0
 71 72  4  0  0  0  0
 72 73  4  0  0  0  0
 73 74  1  0  0  0  0
 73 75  4  0  0  0  0
 75 76  1  0  0  0  0
 75 77  4  0  0  0  0
 77 78  1  0  0  0  0
 71 79  4  0  0  0  0
 77 79  4  0  0  0  0
 70 80  4  0  0  0  0
 80 81  1  0  0  0  0
 81 82  2  0  0  0  0
 80 83  4  0  0  0  0
 82 84  1  0  0  0  0
 83 84  4  0  0  0  0
 84 85  4  0  0  0  0
 85 86  4  0  0  0  0
 86 87  4  0  0  0  0
 87 88  2  0  0  0  0
 88 89  4  0  0  0  0
 86 90  4  0  0  0  0
 89 90  4  0  0  0  0
 89 91  4  0  0  0  0
 91 92  1  0  0  0  0
 92 93  4  0  0  0  0
 93 94  4  0  0  0  0
 94 95  1  0  0  0  0
 94 96  4  0  0  0  0
 96 97  1  0  0  0  0
 96 98  4  0  0  0  0
 98 99  1  0  0  0  0
 92100  4  0  0  0  0
 98100  4  0  0  0  0
 91101  4  0  0  0  0
101102  1  0  0  0  0
102103  2  0  0  0  0
 64104  4  0  0  0  0
103104  1  0  0  0  0
101105  4  0  0  0  0
104105  4  0  0  0  0
 64106  1  0  0  0  0
 66107  1  0  0  0  0
 67108  1  0  0  0  0
 69109  1  0  0  0  0
 72110  1  0  0  0  0
 74111  1  0  0  0  0
 76112  1  0  0  0  0
 78113  1  0  0  0  0
 79114  1  0  0  0  0
 81115  1  0  0  0  0
 82116  1  0  0  0  0
 87117  1  0  0  0  0
 88118  1  0  0  0  0
 90119  1  0  0  0  0
 93120  1  0  0  0  0
 95121  1  0  0  0  0
 97122  1  0  0  0  0
 99123  1  0  0  0  0
100124  1  0  0  0  0
102125  1  0  0  0  0
103126  1  0  0  0  0
127128  3  0  0  0  0
128129  4  0  0  0  0
 22130  4  0  0  0  0
129130  3  0  0  0  0
127131  4  0  0  0  0
131132  3  0  0  0  0
133134  3  0  0  0  0
134135  4  0  0  0  0
135136  3  0  0  0  0
133137  4  0  0  0  0
137138  3  0  0  0  0
139140  3  0  0  0  0
140141  4  0  0  0  0
141142  3  0  0  0  0
139143  4  0  0  0  0
 85144  4  0  0  0  0
143144  3  0  0  0  0
132145  4  0  0  0  0
145146  4  0  0  0  0
146147  4  0  0  0  0
147148  2  0  0  0  0
148149  4  0  0  0  0
146150  4  0  0  0  0
149150  4  0  0  0  0
149151  4  0  0  0  0
151152  1  0  0  0  0
152153  4  0  0  0  0
153154  4  0  0  0  0
154155  1  0  0  0  0
154156  4  0  0  0  0
156157  1  0  0  0  0
156158  4  0  0  0  0
158159  1  0  0  0  0
152160  4  0  0  0  0
158160  4  0  0  0  0
151161  4  0  0  0  0
161162  1  0  0  0  0
162163  2  0  0  0  0
161164  4  0  0  0  0
163165  1  0  0  0  0
164165  4  0  0  0  0
136166  4  0  0  0  0
165166  4  0  0  0  0
166167  4  0  0  0  0
167168  4  0  0  0  0
168169  2  0  0  0  0
169170  4  0  0  0  0
167171  4  0  0  0  0
170171  4  0  0  0  0
170172  4  0  0  0  0
172173  1  0  0  0  0
173174  4  0  0  0  0
174175  4  0  0  0  0
175176  1  0  0  0  0
175177  4  0  0  0  0
177178  1  0  0  0  0
177179  4  0  0  0  0
179180  1  0  0  0  0
173181  4  0  0  0  0
179181  4  0  0  0  0
172182  4  0  0  0  0
182183  1  0  0  0  0
183184  2  0  0  0  0
145185  4  0  0  0  0
184185  1  0  0  0  0
182186  4  0  0  0  0
185186  4  0  0  0  0
147187  1  0  0  0  0
148188  1  0  0  0  0
150189  1  0  0  0  0
153190  1  0  0  0  0
155191  1  0  0  0  0
157192  1  0  0  0  0
159193  1  0  0  0  0
160194  1  0  0  0  0
162195  1  0  0  0  0
163196  1  0  0  0  0
168197  1  0  0  0  0
169198  1  0  0  0  0
171199  1  0  0  0  0
174200  1  0  0  0  0
176201  1  0  0  0  0
178202  1  0  0  0  0
180203  1  0  0  0  0
181204  1  0  0  0  0
183205  1  0  0  0  0
184206  1  0  0  0  0
138207  4  0  0  0  0
207208  4  0  0  0  0
208209  4  0  0  0  0
209210  2  0  0  0  0
210211  4  0  0  0  0
208212  4  0  0  0  0
211212  4  0  0  0  0
211213  4  0  0  0  0
213214  1  0  0  0  0
214215  4  0  0  0  0
215216  4  0  0  0  0
216217  1  0  0  0  0
216218  4  0  0  0  0
218219  1  0  0  0  0
218220  4  0  0  0  0
220221  1  0  0  0  0
214222  4  0  0  0  0
220222  4  0  0  0  0
213223  4  0  0  0  0
223224  1  0  0  0  0
224225  2  0  0  0  0
223226  4  0  0  0  0
225227  1  0  0  0  0
226227  4  0  0  0  0
142228  4  0  0  0  0
227228  4  0  0  0  0
228229  4  0  0  0  0
229230  4  0  0  0  0
230231  2  0  0  0  0
231232  4  0  0  0  0
229233  4  0  0  0  0
232233  4  0  0  0  0
232234  4  0  0  0  0
234235  1  0  0  0  0
235236  4  0  0  0  0
236237  4  0  0  0  0
237238  1  0  0  0  0
237239  4  0  0  0  0
239240  1  0  0  0  0
239241  4  0  0  0  0
241242  1  0  0  0  0
235243  4  0  0  0  0
241243  4  0  0  0  0
234244  4  0  0  0  0
244245  1  0  0  0  0
245246  2  0  0  0  0
207247  4  0  0  0  0
246247  1  0  0  0  0
244248  4  0  0  0  0
247248  4  0  0  0  0
209249  1  0  0  0  0
210250  1  0  0  0  0
212251  1  0  0  0  0
215252  1  0  0  0  0
217253  1  0  0  0  0
219254  1  0  0  0  0
221255  1  0  0  0  0
222256  1  0  0  0  0
224257  1  0  0  0  0
225258  1  0  0  0  0
230259  1  0  0  0  0
231260  1  0  0  0  0
233261  1  0  0  0  0
236262  1  0  0  0  0
238263  1  0  0  0  0
240264  1  0  0  0  0
242265  1  0  0  0  0
243266  1  0  0  0  0
245267  1  0  0  0  0
246268  1  0  0  0  0
M  END
