 xtb: 6.5.1 (b24c23e)
          07292222553D

226265  0     0  0            999 V2000
   37.1957   -0.0132   -0.0173 Co  0  0  0  0  0  0  0  0  0  0  0  0
   33.8272   -0.0523   -0.0448 C   0  0  0  0  0  0  0  0  0  0  0  0
   34.4979   -1.2501   -0.1715 C   0  0  0  0  0  0  0  0  0  0  0  0
   33.8505   -2.5184   -0.3181 C   0  0  0  0  0  0  0  0  0  0  0  0
   34.8124   -3.4626   -0.1926 C   0  0  0  0  0  0  0  0  0  0  0  0
   36.0486   -2.7700    0.0274 C   0  0  0  0  0  0  0  0  0  0  0  0
   35.8513   -1.4133   -0.0141 N   0  0  0  0  0  0  0  0  0  0  0  0
   37.2288   -3.3858    0.4220 C   0  0  0  0  0  0  0  0  0  0  0  0
   37.2447   -4.8559    0.6063 C   0  0  0  0  0  0  0  0  0  0  0  0
   37.4271   -5.4270    1.8644 C   0  0  0  0  0  0  0  0  0  0  0  0
   37.4353   -6.8081    1.9830 C   0  0  0  0  0  0  0  0  0  0  0  0
   37.2808   -7.6250    0.9462 N   0  0  0  0  0  0  0  0  0  0  0  0
   37.1078   -7.0874   -0.2569 C   0  0  0  0  0  0  0  0  0  0  0  0
   37.0799   -5.7190   -0.4757 C   0  0  0  0  0  0  0  0  0  0  0  0
   38.3932   -2.6677    0.6474 C   0  0  0  0  0  0  0  0  0  0  0  0
   39.6375   -3.2542    1.0465 C   0  0  0  0  0  0  0  0  0  0  0  0
   40.5809   -2.2893    0.9293 C   0  0  0  0  0  0  0  0  0  0  0  0
   38.5697   -1.3384    0.3360 N   0  0  0  0  0  0  0  0  0  0  0  0
   39.9134   -1.1190    0.4532 C   0  0  0  0  0  0  0  0  0  0  0  0
   40.5822    0.0207   -0.0004 C   0  0  0  0  0  0  0  0  0  0  0  0
   39.8932    1.1490   -0.4513 C   0  0  0  0  0  0  0  0  0  0  0  0
   40.5350    2.3251   -0.9476 C   0  0  0  0  0  0  0  0  0  0  0  0
   39.5733    3.2728   -1.0633 C   0  0  0  0  0  0  0  0  0  0  0  0
   38.3476    2.6729   -0.6291 C   0  0  0  0  0  0  0  0  0  0  0  0
   38.5469    1.3467   -0.3225 N   0  0  0  0  0  0  0  0  0  0  0  0
   37.1617    3.3657   -0.4332 C   0  0  0  0  0  0  0  0  0  0  0  0
   37.1519    4.8345   -0.6059 C   0  0  0  0  0  0  0  0  0  0  0  0
   36.3074    5.4534   -1.5272 C   0  0  0  0  0  0  0  0  0  0  0  0
   36.3384    6.8334   -1.6514 C   0  0  0  0  0  0  0  0  0  0  0  0
   37.1378    7.6085   -0.9255 N   0  0  0  0  0  0  0  0  0  0  0  0
   37.9446    7.0270   -0.0436 C   0  0  0  0  0  0  0  0  0  0  0  0
   37.9896    5.6554    0.1488 C   0  0  0  0  0  0  0  0  0  0  0  0
   35.9852    2.7161   -0.0822 C   0  0  0  0  0  0  0  0  0  0  0  0
   34.7380    3.3774    0.1692 C   0  0  0  0  0  0  0  0  0  0  0  0
   33.7952    2.4107    0.2679 C   0  0  0  0  0  0  0  0  0  0  0  0
   34.4689    1.1600    0.0931 C   0  0  0  0  0  0  0  0  0  0  0  0
   35.8194    1.3550   -0.0545 N   0  0  0  0  0  0  0  0  0  0  0  0
   32.7437   -0.0649   -0.0486 H   0  0  0  0  0  0  0  0  0  0  0  0
   32.7918   -2.6490   -0.4757 H   0  0  0  0  0  0  0  0  0  0  0  0
   34.7048   -4.5348   -0.2205 H   0  0  0  0  0  0  0  0  0  0  0  0
   37.5461   -4.7993    2.7395 H   0  0  0  0  0  0  0  0  0  0  0  0
   37.5719   -7.2777    2.9528 H   0  0  0  0  0  0  0  0  0  0  0  0
   36.9867   -7.7809   -1.0839 H   0  0  0  0  0  0  0  0  0  0  0  0
   36.9473   -5.3247   -1.4761 H   0  0  0  0  0  0  0  0  0  0  0  0
   39.7653   -4.2796    1.3526 H   0  0  0  0  0  0  0  0  0  0  0  0
   41.6396   -2.3539    1.1223 H   0  0  0  0  0  0  0  0  0  0  0  0
   41.5884    2.4025   -1.1637 H   0  0  0  0  0  0  0  0  0  0  0  0
   39.6737    4.2887   -1.4091 H   0  0  0  0  0  0  0  0  0  0  0  0
   35.6485    4.8609   -2.1506 H   0  0  0  0  0  0  0  0  0  0  0  0
   35.6936    7.3376   -2.3652 H   0  0  0  0  0  0  0  0  0  0  0  0
   38.5838    7.6866    0.5358 H   0  0  0  0  0  0  0  0  0  0  0  0
   38.6548    5.2262    0.8887 H   0  0  0  0  0  0  0  0  0  0  0  0
   34.6135    4.4449    0.2527 H   0  0  0  0  0  0  0  0  0  0  0  0
   32.7352    2.5151    0.4370 H   0  0  0  0  0  0  0  0  0  0  0  0
   77.3458    0.0395   -0.0205 Co  0  0  0  0  0  0  0  0  0  0  0  0
   80.7234    0.0582   -0.0542 C   0  0  0  0  0  0  0  0  0  0  0  0
   80.0587    1.1691   -0.5263 C   0  0  0  0  0  0  0  0  0  0  0  0
   80.7210    2.3356   -1.0258 C   0  0  0  0  0  0  0  0  0  0  0  0
   79.7644    3.2742   -1.2128 C   0  0  0  0  0  0  0  0  0  0  0  0
   78.5172    2.6768   -0.8338 C   0  0  0  0  0  0  0  0  0  0  0  0
   78.7034    1.3720   -0.4542 N   0  0  0  0  0  0  0  0  0  0  0  0
   77.3264    3.3798   -0.7139 C   0  0  0  0  0  0  0  0  0  0  0  0
   77.3189    4.8330   -1.0044 C   0  0  0  0  0  0  0  0  0  0  0  0
   77.0811    5.7687    0.0009 C   0  0  0  0  0  0  0  0  0  0  0  0
   77.0844    7.1174   -0.3187 C   0  0  0  0  0  0  0  0  0  0  0  0
   77.3009    7.5693   -1.5497 N   0  0  0  0  0  0  0  0  0  0  0  0
   77.5264    6.6828   -2.5138 C   0  0  0  0  0  0  0  0  0  0  0  0
   77.5477    5.3146   -2.2921 C   0  0  0  0  0  0  0  0  0  0  0  0
   76.1437    2.7682   -0.3303 C   0  0  0  0  0  0  0  0  0  0  0  0
   74.8903    3.4531   -0.2240 C   0  0  0  0  0  0  0  0  0  0  0  0
   73.9422    2.5056   -0.0323 C   0  0  0  0  0  0  0  0  0  0  0  0
   75.9664    1.4126   -0.1656 N   0  0  0  0  0  0  0  0  0  0  0  0
   74.6177    1.2464   -0.0255 C   0  0  0  0  0  0  0  0  0  0  0  0
   73.9487    0.0205    0.0006 C   0  0  0  0  0  0  0  0  0  0  0  0
   74.6331   -1.1967    0.0256 C   0  0  0  0  0  0  0  0  0  0  0  0
   73.9770   -2.4658    0.0106 C   0  0  0  0  0  0  0  0  0  0  0  0
   74.9381   -3.4013    0.1994 C   0  0  0  0  0  0  0  0  0  0  0  0
   76.1770   -2.6969    0.3406 C   0  0  0  0  0  0  0  0  0  0  0  0
   75.9833   -1.3445    0.1729 N   0  0  0  0  0  0  0  0  0  0  0  0
   77.3746   -3.2985    0.6947 C   0  0  0  0  0  0  0  0  0  0  0  0
   77.3882   -4.7471    0.9973 C   0  0  0  0  0  0  0  0  0  0  0  0
   78.1661   -5.6343    0.2543 C   0  0  0  0  0  0  0  0  0  0  0  0
   78.1420   -6.9831    0.5721 C   0  0  0  0  0  0  0  0  0  0  0  0
   77.4113   -7.4804    1.5648 N   0  0  0  0  0  0  0  0  0  0  0  0
   76.6695   -6.6409    2.2801 C   0  0  0  0  0  0  0  0  0  0  0  0
   76.6224   -5.2777    2.0349 C   0  0  0  0  0  0  0  0  0  0  0  0
   78.5625   -2.5835    0.7691 C   0  0  0  0  0  0  0  0  0  0  0  0
   79.8162   -3.1499    1.1728 C   0  0  0  0  0  0  0  0  0  0  0  0
   80.7600   -2.2044    0.9555 C   0  0  0  0  0  0  0  0  0  0  0  0
   80.0799   -1.0591    0.4319 C   0  0  0  0  0  0  0  0  0  0  0  0
   78.7266   -1.2805    0.3747 N   0  0  0  0  0  0  0  0  0  0  0  0
   81.8069    0.0659   -0.0604 H   0  0  0  0  0  0  0  0  0  0  0  0
   81.7846    2.4120   -1.1866 H   0  0  0  0  0  0  0  0  0  0  0  0
   79.8810    4.2894   -1.5558 H   0  0  0  0  0  0  0  0  0  0  0  0
   76.9099    5.4456    1.0208 H   0  0  0  0  0  0  0  0  0  0  0  0
   76.9052    7.8664    0.4472 H   0  0  0  0  0  0  0  0  0  0  0  0
   77.6974    7.0830   -3.5088 H   0  0  0  0  0  0  0  0  0  0  0  0
   77.7247    4.6276   -3.1109 H   0  0  0  0  0  0  0  0  0  0  0  0
   74.7615    4.5197   -0.3095 H   0  0  0  0  0  0  0  0  0  0  0  0
   72.8772    2.6293    0.0794 H   0  0  0  0  0  0  0  0  0  0  0  0
   72.9163   -2.6048   -0.1231 H   0  0  0  0  0  0  0  0  0  0  0  0
   74.8299   -4.4728    0.2414 H   0  0  0  0  0  0  0  0  0  0  0  0
   78.7683   -5.2753   -0.5717 H   0  0  0  0  0  0  0  0  0  0  0  0
   78.7350   -7.6943    0.0045 H   0  0  0  0  0  0  0  0  0  0  0  0
   76.0858   -7.0770    3.0855 H   0  0  0  0  0  0  0  0  0  0  0  0
   76.0112   -4.6293    2.6513 H   0  0  0  0  0  0  0  0  0  0  0  0
   79.9429   -4.1449    1.5676 H   0  0  0  0  0  0  0  0  0  0  0  0
   81.8240   -2.2594    1.1222 H   0  0  0  0  0  0  0  0  0  0  0  0
   43.2080    0.0377   -0.0082 C   0  0  0  0  0  0  0  0  0  0  0  0
   41.9859    0.0312   -0.0052 C   0  0  0  0  0  0  0  0  0  0  0  0
   44.5570    0.0416   -0.0139 C   0  0  0  0  0  0  0  0  0  0  0  0
   45.7794    0.0413   -0.0199 C   0  0  0  0  0  0  0  0  0  0  0  0
   56.6014    0.0238   -0.0132 C   0  0  0  0  0  0  0  0  0  0  0  0
   55.3782    0.0234   -0.0193 C   0  0  0  0  0  0  0  0  0  0  0  0
   57.9487    0.0237   -0.0113 C   0  0  0  0  0  0  0  0  0  0  0  0
   59.1719    0.0212   -0.0102 C   0  0  0  0  0  0  0  0  0  0  0  0
   69.9747    0.0069   -0.0009 C   0  0  0  0  0  0  0  0  0  0  0  0
   68.7519    0.0067   -0.0016 C   0  0  0  0  0  0  0  0  0  0  0  0
   71.3230    0.0104    0.0005 C   0  0  0  0  0  0  0  0  0  0  0  0
   72.5456    0.0122    0.0009 C   0  0  0  0  0  0  0  0  0  0  0  0
   50.5797    0.0265   -0.0283 Co  0  0  0  0  0  0  0  0  0  0  0  0
   47.1822    0.0350   -0.0258 C   0  0  0  0  0  0  0  0  0  0  0  0
   47.8620   -0.6448    0.9885 C   0  0  0  0  0  0  0  0  0  0  0  0
   47.2069   -1.3073    2.0709 C   0  0  0  0  0  0  0  0  0  0  0  0
   48.1606   -2.0112    2.7284 C   0  0  0  0  0  0  0  0  0  0  0  0
   49.3921   -1.7803    2.0368 C   0  0  0  0  0  0  0  0  0  0  0  0
   49.2061   -0.8894    1.0065 N   0  0  0  0  0  0  0  0  0  0  0  0
   50.5741   -2.4596    2.2998 C   0  0  0  0  0  0  0  0  0  0  0  0
   50.5685   -3.5389    3.3118 C   0  0  0  0  0  0  0  0  0  0  0  0
   49.7464   -4.6566    3.1721 C   0  0  0  0  0  0  0  0  0  0  0  0
   49.7788   -5.6441    4.1440 C   0  0  0  0  0  0  0  0  0  0  0  0
   50.5572   -5.5767    5.2192 N   0  0  0  0  0  0  0  0  0  0  0  0
   51.3406   -4.5126    5.3621 C   0  0  0  0  0  0  0  0  0  0  0  0
   51.3838   -3.4776    4.4414 C   0  0  0  0  0  0  0  0  0  0  0  0
   51.7596   -2.1550    1.6474 C   0  0  0  0  0  0  0  0  0  0  0  0
   52.9946   -2.8480    1.8571 C   0  0  0  0  0  0  0  0  0  0  0  0
   53.9530   -2.1394    1.2123 C   0  0  0  0  0  0  0  0  0  0  0  0
   51.9495   -1.0747    0.8163 N   0  0  0  0  0  0  0  0  0  0  0  0
   53.2967   -1.0281    0.6001 C   0  0  0  0  0  0  0  0  0  0  0  0
   53.9771    0.0198   -0.0275 C   0  0  0  0  0  0  0  0  0  0  0  0
   53.2984    1.0603   -0.6691 C   0  0  0  0  0  0  0  0  0  0  0  0
   53.9560    2.1652   -1.2912 C   0  0  0  0  0  0  0  0  0  0  0  0
   53.0025    2.8550   -1.9633 C   0  0  0  0  0  0  0  0  0  0  0  0
   51.7682    2.1606   -1.7544 C   0  0  0  0  0  0  0  0  0  0  0  0
   51.9542    1.0933   -0.9067 N   0  0  0  0  0  0  0  0  0  0  0  0
   50.5845    2.4569   -2.4144 C   0  0  0  0  0  0  0  0  0  0  0  0
   50.5859    3.5176   -3.4458 C   0  0  0  0  0  0  0  0  0  0  0  0
   51.4002    3.4292   -4.5743 C   0  0  0  0  0  0  0  0  0  0  0  0
   51.3639    4.4470   -5.5143 C   0  0  0  0  0  0  0  0  0  0  0  0
   50.5889    5.5196   -5.3909 N   0  0  0  0  0  0  0  0  0  0  0  0
   49.8126    5.6135   -4.3161 C   0  0  0  0  0  0  0  0  0  0  0  0
   49.7736    4.6448   -3.3258 C   0  0  0  0  0  0  0  0  0  0  0  0
   49.3976    1.7943   -2.1330 C   0  0  0  0  0  0  0  0  0  0  0  0
   48.1619    2.0349   -2.8143 C   0  0  0  0  0  0  0  0  0  0  0  0
   47.2041    1.3600   -2.1332 C   0  0  0  0  0  0  0  0  0  0  0  0
   47.8611    0.7007   -1.0499 C   0  0  0  0  0  0  0  0  0  0  0  0
   49.2094    0.9185   -1.0896 N   0  0  0  0  0  0  0  0  0  0  0  0
   46.1519   -1.2395    2.2819 H   0  0  0  0  0  0  0  0  0  0  0  0
   48.0506   -2.6332    3.6016 H   0  0  0  0  0  0  0  0  0  0  0  0
   49.1039   -4.7589    2.3058 H   0  0  0  0  0  0  0  0  0  0  0  0
   49.1524   -6.5267    4.0546 H   0  0  0  0  0  0  0  0  0  0  0  0
   51.9621   -4.4853    6.2523 H   0  0  0  0  0  0  0  0  0  0  0  0
   52.0296   -2.6232    4.6050 H   0  0  0  0  0  0  0  0  0  0  0  0
   53.1037   -3.7552    2.4287 H   0  0  0  0  0  0  0  0  0  0  0  0
   55.0114   -2.3349    1.1519 H   0  0  0  0  0  0  0  0  0  0  0  0
   55.0124    2.3681   -1.2202 H   0  0  0  0  0  0  0  0  0  0  0  0
   53.1140    3.7518   -2.5504 H   0  0  0  0  0  0  0  0  0  0  0  0
   52.0397    2.5671   -4.7220 H   0  0  0  0  0  0  0  0  0  0  0  0
   51.9844    4.3982   -6.4043 H   0  0  0  0  0  0  0  0  0  0  0  0
   49.1933    6.5027   -4.2426 H   0  0  0  0  0  0  0  0  0  0  0  0
   49.1336    4.7690   -2.4605 H   0  0  0  0  0  0  0  0  0  0  0  0
   48.0519    2.6453   -3.6956 H   0  0  0  0  0  0  0  0  0  0  0  0
   46.1453    1.3085   -2.3296 H   0  0  0  0  0  0  0  0  0  0  0  0
   63.9617   -0.0111   -0.0340 Co  0  0  0  0  0  0  0  0  0  0  0  0
   60.5727    0.0175   -0.0112 C   0  0  0  0  0  0  0  0  0  0  0  0
   61.2534   -0.6636    1.0032 C   0  0  0  0  0  0  0  0  0  0  0  0
   60.6050   -1.3251    2.0906 C   0  0  0  0  0  0  0  0  0  0  0  0
   61.5608   -2.0364    2.7374 C   0  0  0  0  0  0  0  0  0  0  0  0
   62.7867   -1.8164    2.0313 C   0  0  0  0  0  0  0  0  0  0  0  0
   62.5962   -0.9109    1.0132 N   0  0  0  0  0  0  0  0  0  0  0  0
   63.9595   -2.5256    2.2506 C   0  0  0  0  0  0  0  0  0  0  0  0
   63.9632   -3.6202    3.2446 C   0  0  0  0  0  0  0  0  0  0  0  0
   63.0916   -4.7034    3.1363 C   0  0  0  0  0  0  0  0  0  0  0  0
   63.1350   -5.7036    4.0946 C   0  0  0  0  0  0  0  0  0  0  0  0
   63.9707   -5.6812    5.1278 N   0  0  0  0  0  0  0  0  0  0  0  0
   64.8035   -4.6515    5.2398 C   0  0  0  0  0  0  0  0  0  0  0  0
   64.8396   -3.6071    4.3295 C   0  0  0  0  0  0  0  0  0  0  0  0
   65.1322   -2.2352    1.5647 C   0  0  0  0  0  0  0  0  0  0  0  0
   66.3538   -2.9691    1.6965 C   0  0  0  0  0  0  0  0  0  0  0  0
   67.3104   -2.2529    1.0552 C   0  0  0  0  0  0  0  0  0  0  0  0
   65.3256   -1.1205    0.7842 N   0  0  0  0  0  0  0  0  0  0  0  0
   66.6671   -1.0922    0.5277 C   0  0  0  0  0  0  0  0  0  0  0  0
   67.3504    0.0056   -0.0055 C   0  0  0  0  0  0  0  0  0  0  0  0
   66.6689    1.1002   -0.5471 C   0  0  0  0  0  0  0  0  0  0  0  0
   67.3167    2.2546   -1.0835 C   0  0  0  0  0  0  0  0  0  0  0  0
   66.3651    2.9644   -1.7385 C   0  0  0  0  0  0  0  0  0  0  0  0
   65.1414    2.2340   -1.6046 C   0  0  0  0  0  0  0  0  0  0  0  0
   65.3276    1.1308   -0.8057 N   0  0  0  0  0  0  0  0  0  0  0  0
   63.9723    2.5227   -2.2970 C   0  0  0  0  0  0  0  0  0  0  0  0
   63.9846    3.6041   -3.3052 C   0  0  0  0  0  0  0  0  0  0  0  0
   64.8636    3.5710   -4.3876 C   0  0  0  0  0  0  0  0  0  0  0  0
   64.8344    4.6017   -5.3134 C   0  0  0  0  0  0  0  0  0  0  0  0
   64.0061    5.6368   -5.2187 N   0  0  0  0  0  0  0  0  0  0  0  0
   63.1682    5.6786   -4.1879 C   0  0  0  0  0  0  0  0  0  0  0  0
   63.1179    4.6929   -3.2149 C   0  0  0  0  0  0  0  0  0  0  0  0
   62.7946    1.8232   -2.0714 C   0  0  0  0  0  0  0  0  0  0  0  0
   61.5695    2.0442   -2.7783 C   0  0  0  0  0  0  0  0  0  0  0  0
   60.6096    1.3460   -2.1229 C   0  0  0  0  0  0  0  0  0  0  0  0
   61.2550    0.6905   -1.0304 C   0  0  0  0  0  0  0  0  0  0  0  0
   62.5980    0.9340   -1.0405 N   0  0  0  0  0  0  0  0  0  0  0  0
   59.5525   -1.2516    2.3123 H   0  0  0  0  0  0  0  0  0  0  0  0
   61.4546   -2.6594    3.6104 H   0  0  0  0  0  0  0  0  0  0  0  0
   62.4019   -4.7704    2.3033 H   0  0  0  0  0  0  0  0  0  0  0  0
   62.4696   -6.5595    4.0290 H   0  0  0  0  0  0  0  0  0  0  0  0
   65.4717   -4.6605    6.0957 H   0  0  0  0  0  0  0  0  0  0  0  0
   65.5267   -2.7811    4.4683 H   0  0  0  0  0  0  0  0  0  0  0  0
   66.4566   -3.9079    2.2160 H   0  0  0  0  0  0  0  0  0  0  0  0
   68.3608   -2.4720    0.9507 H   0  0  0  0  0  0  0  0  0  0  0  0
   68.3671    2.4726   -0.9763 H   0  0  0  0  0  0  0  0  0  0  0  0
   66.4725    3.8959   -2.2698 H   0  0  0  0  0  0  0  0  0  0  0  0
   65.5474    2.7398   -4.5124 H   0  0  0  0  0  0  0  0  0  0  0  0
   65.5051    4.5951   -6.1676 H   0  0  0  0  0  0  0  0  0  0  0  0
   62.5063    6.5381   -4.1369 H   0  0  0  0  0  0  0  0  0  0  0  0
   62.4267    4.7757   -2.3846 H   0  0  0  0  0  0  0  0  0  0  0  0
   61.4664    2.6578   -3.6583 H   0  0  0  0  0  0  0  0  0  0  0  0
   59.5566    1.2766   -2.3433 H   0  0  0  0  0  0  0  0  0  0  0  0
  2  3  4  0  0  0  0
  3  4  1  0  0  0  0
  4  5  2  0  0  0  0
  5  6  4  0  0  0  0
  1  7  1  0  0  0  0
  3  7  4  0  0  0  0
  6  7  4  0  0  0  0
  6  8  4  0  0  0  0
  8  9  1  0  0  0  0
  9 10  4  0  0  0  0
 10 11  4  0  0  0  0
 11 12  4  0  0  0  0
 12 13  4  0  0  0  0
  9 14  4  0  0  0  0
 13 14  4  0  0  0  0
  8 15  4  0  0  0  0
 15 16  4  0  0  0  0
 16 17  2  0  0  0  0
  1 18  1  0  0  0  0
 15 18  4  0  0  0  0
 17 19  4  0  0  0  0
 18 19  4  0  0  0  0
 19 20  4  0  0  0  0
 20 21  4  0  0  0  0
 21 22  4  0  0  0  0
 22 23  2  0  0  0  0
 23 24  4  0  0  0  0
  1 25  1  0  0  0  0
 21 25  4  0  0  0  0
 24 25  4  0  0  0  0
 24 26  4  0  0  0  0
 26 27  1  0  0  0  0
 27 28  4  0  0  0  0
 28 29  4  0  0  0  0
 29 30  4  0  0  0  0
 30 31  4  0  0  0  0
 27 32  4  0  0  0  0
 31 32  4  0  0  0  0
 26 33  4  0  0  0  0
 33 34  4  0  0  0  0
 34 35  2  0  0  0  0
  2 36  4  0  0  0  0
 35 36  1  0  0  0  0
  1 37  1  0  0  0  0
 33 37  4  0  0  0  0
 36 37  4  0  0  0  0
  2 38  1  0  0  0  0
  4 39  1  0  0  0  0
  5 40  1  0  0  0  0
 10 41  1  0  0  0  0
 11 42  1  0  0  0  0
 13 43  1  0  0  0  0
 14 44  1  0  0  0  0
 16 45  1  0  0  0  0
 17 46  1  0  0  0  0
 22 47  1  0  0  0  0
 23 48  1  0  0  0  0
 28 49  1  0  0  0  0
 29 50  1  0  0  0  0
 31 51  1  0  0  0  0
 32 52  1  0  0  0  0
 34 53  1  0  0  0  0
 35 54  1  0  0  0  0
 56 57  4  0  0  0  0
 57 58  1  0  0  0  0
 58 59  2  0  0  0  0
 59 60  4  0  0  0  0
 55 61  1  0  0  0  0
 57 61  4  0  0  0  0
 60 61  4  0  0  0  0
 60 62  4  0  0  0  0
 62 63  1  0  0  0  0
 63 64  4  0  0  0  0
 64 65  4  0  0  0  0
 65 66  4  0  0  0  0
 66 67  4  0  0  0  0
 63 68  4  0  0  0  0
 67 68  4  0  0  0  0
 62 69  4  0  0  0  0
 69 70  4  0  0  0  0
 70 71  2  0  0  0  0
 55 72  1  0  0  0  0
 69 72  4  0  0  0  0
 71 73  4  0  0  0  0
 72 73  4  0  0  0  0
 73 74  4  0  0  0  0
 74 75  4  0  0  0  0
 75 76  4  0  0  0  0
 76 77  2  0  0  0  0
 77 78  4  0  0  0  0
 55 79  1  0  0  0  0
 75 79  4  0  0  0  0
 78 79  4  0  0  0  0
 78 80  4  0  0  0  0
 80 81  1  0  0  0  0
 81 82  4  0  0  0  0
 82 83  4  0  0  0  0
 83 84  4  0  0  0  0
 84 85  4  0  0  0  0
 81 86  4  0  0  0  0
 85 86  4  0  0  0  0
 80 87  4  0  0  0  0
 87 88  4  0  0  0  0
 88 89  2  0  0  0  0
 56 90  4  0  0  0  0
 89 90  1  0  0  0  0
 55 91  1  0  0  0  0
 87 91  4  0  0  0  0
 90 91  4  0  0  0  0
 56 92  1  0  0  0  0
 58 93  1  0  0  0  0
 59 94  1  0  0  0  0
 64 95  1  0  0  0  0
 65 96  1  0  0  0  0
 67 97  1  0  0  0  0
 68 98  1  0  0  0  0
 70 99  1  0  0  0  0
 71100  1  0  0  0  0
 76101  1  0  0  0  0
 77102  1  0  0  0  0
 82103  1  0  0  0  0
 83104  1  0  0  0  0
 85105  1  0  0  0  0
 86106  1  0  0  0  0
 88107  1  0  0  0  0
 89108  1  0  0  0  0
 20110  4  0  0  0  0
109110  3  0  0  0  0
109111  4  0  0  0  0
111112  3  0  0  0  0
113114  3  0  0  0  0
113115  4  0  0  0  0
115116  3  0  0  0  0
117118  3  0  0  0  0
117119  4  0  0  0  0
 74120  4  0  0  0  0
119120  3  0  0  0  0
112122  4  0  0  0  0
122123  4  0  0  0  0
123124  4  0  0  0  0
124125  2  0  0  0  0
125126  4  0  0  0  0
121127  1  0  0  0  0
123127  4  0  0  0  0
126127  4  0  0  0  0
126128  4  0  0  0  0
128129  1  0  0  0  0
129130  4  0  0  0  0
130131  4  0  0  0  0
131132  4  0  0  0  0
132133  4  0  0  0  0
129134  4  0  0  0  0
133134  4  0  0  0  0
128135  4  0  0  0  0
135136  4  0  0  0  0
136137  2  0  0  0  0
121138  1  0  0  0  0
135138  4  0  0  0  0
137139  4  0  0  0  0
138139  4  0  0  0  0
114140  4  0  0  0  0
139140  4  0  0  0  0
140141  4  0  0  0  0
141142  4  0  0  0  0
142143  2  0  0  0  0
143144  4  0  0  0  0
121145  1  0  0  0  0
141145  4  0  0  0  0
144145  4  0  0  0  0
144146  4  0  0  0  0
146147  1  0  0  0  0
147148  4  0  0  0  0
148149  4  0  0  0  0
149150  4  0  0  0  0
150151  4  0  0  0  0
147152  4  0  0  0  0
151152  4  0  0  0  0
146153  4  0  0  0  0
153154  4  0  0  0  0
154155  2  0  0  0  0
122156  4  0  0  0  0
155156  4  0  0  0  0
121157  1  0  0  0  0
153157  4  0  0  0  0
156157  4  0  0  0  0
124158  1  0  0  0  0
125159  1  0  0  0  0
130160  1  0  0  0  0
131161  1  0  0  0  0
133162  1  0  0  0  0
134163  1  0  0  0  0
136164  1  0  0  0  0
137165  1  0  0  0  0
142166  1  0  0  0  0
143167  1  0  0  0  0
148168  1  0  0  0  0
149169  1  0  0  0  0
151170  1  0  0  0  0
152171  1  0  0  0  0
154172  1  0  0  0  0
155173  1  0  0  0  0
116175  4  0  0  0  0
175176  4  0  0  0  0
176177  4  0  0  0  0
177178  2  0  0  0  0
178179  4  0  0  0  0
174180  1  0  0  0  0
176180  4  0  0  0  0
179180  4  0  0  0  0
179181  4  0  0  0  0
181182  1  0  0  0  0
182183  4  0  0  0  0
183184  4  0  0  0  0
184185  4  0  0  0  0
185186  4  0  0  0  0
182187  4  0  0  0  0
186187  4  0  0  0  0
181188  4  0  0  0  0
188189  4  0  0  0  0
189190  2  0  0  0  0
174191  1  0  0  0  0
188191  4  0  0  0  0
190192  4  0  0  0  0
191192  4  0  0  0  0
118193  4  0  0  0  0
192193  4  0  0  0  0
193194  4  0  0  0  0
194195  4  0  0  0  0
195196  2  0  0  0  0
196197  4  0  0  0  0
174198  1  0  0  0  0
194198  4  0  0  0  0
197198  4  0  0  0  0
197199  4  0  0  0  0
199200  1  0  0  0  0
200201  4  0  0  0  0
201202  4  0  0  0  0
202203  4  0  0  0  0
203204  4  0  0  0  0
200205  4  0  0  0  0
204205  4  0  0  0  0
199206  4  0  0  0  0
206207  4  0  0  0  0
207208  2  0  0  0  0
175209  4  0  0  0  0
208209  4  0  0  0  0
174210  1  0  0  0  0
206210  4  0  0  0  0
209210  4  0  0  0  0
177211  1  0  0  0  0
178212  1  0  0  0  0
183213  1  0  0  0  0
184214  1  0  0  0  0
186215  1  0  0  0  0
187216  1  0  0  0  0
189217  1  0  0  0  0
190218  1  0  0  0  0
195219  1  0  0  0  0
196220  1  0  0  0  0
201221  1  0  0  0  0
202222  1  0  0  0  0
204223  1  0  0  0  0
205224  1  0  0  0  0
207225  1  0  0  0  0
208226  1  0  0  0  0
M  END
