 xtb: 6.5.1 (b24c23e)
          07292223523D

236275  0     0  0            999 V2000
   54.5674    0.0410    0.0425 Fe  0  0  0  0  0  0  0  0  0  0  0  0
   51.1835    0.0337    0.1254 C   0  0  0  0  0  0  0  0  0  0  0  0
   51.8285    1.2534    0.1613 C   0  0  0  0  0  0  0  0  0  0  0  0
   51.1523    2.5152    0.1928 C   0  0  0  0  0  0  0  0  0  0  0  0
   52.1061    3.4628    0.3537 C   0  0  0  0  0  0  0  0  0  0  0  0
   53.3629    2.7759    0.4374 C   0  0  0  0  0  0  0  0  0  0  0  0
   53.1832    1.4306    0.2657 N   0  0  0  0  0  0  0  0  0  0  0  0
   54.5742    3.3913    0.7387 C   0  0  0  0  0  0  0  0  0  0  0  0
   54.5815    4.8421    1.0329 C   0  0  0  0  0  0  0  0  0  0  0  0
   53.8407    5.3555    2.1001 C   0  0  0  0  0  0  0  0  0  0  0  0
   53.8504    6.7109    2.3765 C   0  0  0  0  0  0  0  0  0  0  0  0
   54.5998    7.5832    1.5815 C   0  0  0  0  0  0  0  0  0  0  0  0
   54.6089    8.9794    1.8593 C   0  0  0  0  0  0  0  0  0  0  0  0
   54.6198   10.1086    2.0807 N   0  0  0  0  0  0  0  0  0  0  0  0
   55.3409    7.0746    0.5107 C   0  0  0  0  0  0  0  0  0  0  0  0
   55.3327    5.7173    0.2446 C   0  0  0  0  0  0  0  0  0  0  0  0
   55.7777    2.7000    0.7816 C   0  0  0  0  0  0  0  0  0  0  0  0
   57.0268    3.2816    1.1741 C   0  0  0  0  0  0  0  0  0  0  0  0
   57.9766    2.3356    0.9762 C   0  0  0  0  0  0  0  0  0  0  0  0
   55.9621    1.3932    0.3990 N   0  0  0  0  0  0  0  0  0  0  0  0
   57.3072    1.1810    0.4651 C   0  0  0  0  0  0  0  0  0  0  0  0
   57.9746    0.0384    0.0039 C   0  0  0  0  0  0  0  0  0  0  0  0
   57.2958   -1.0992   -0.4535 C   0  0  0  0  0  0  0  0  0  0  0  0
   57.9518   -2.2467   -0.9970 C   0  0  0  0  0  0  0  0  0  0  0  0
   56.9943   -3.1839   -1.1998 C   0  0  0  0  0  0  0  0  0  0  0  0
   55.7550   -2.6064   -0.7716 C   0  0  0  0  0  0  0  0  0  0  0  0
   55.9514   -1.3074   -0.3676 N   0  0  0  0  0  0  0  0  0  0  0  0
   54.5529   -3.2979   -0.7065 C   0  0  0  0  0  0  0  0  0  0  0  0
   54.5470   -4.7415   -1.0346 C   0  0  0  0  0  0  0  0  0  0  0  0
   53.7696   -5.2264   -2.0889 C   0  0  0  0  0  0  0  0  0  0  0  0
   53.7662   -6.5745   -2.3991 C   0  0  0  0  0  0  0  0  0  0  0  0
   54.5384   -7.4680   -1.6508 C   0  0  0  0  0  0  0  0  0  0  0  0
   54.5340   -8.8567   -1.9644 C   0  0  0  0  0  0  0  0  0  0  0  0
   54.5307   -9.9793   -2.2173 N   0  0  0  0  0  0  0  0  0  0  0  0
   55.3150   -6.9881   -0.5920 C   0  0  0  0  0  0  0  0  0  0  0  0
   55.3199   -5.6377   -0.2924 C   0  0  0  0  0  0  0  0  0  0  0  0
   53.3541   -2.6917   -0.3422 C   0  0  0  0  0  0  0  0  0  0  0  0
   52.1058   -3.3859   -0.2082 C   0  0  0  0  0  0  0  0  0  0  0  0
   51.1590   -2.4467    0.0270 C   0  0  0  0  0  0  0  0  0  0  0  0
   51.8310   -1.1824    0.0461 C   0  0  0  0  0  0  0  0  0  0  0  0
   53.1791   -1.3512   -0.1347 N   0  0  0  0  0  0  0  0  0  0  0  0
   50.0998    0.0312    0.1552 H   0  0  0  0  0  0  0  0  0  0  0  0
   50.0850    2.6400    0.1020 H   0  0  0  0  0  0  0  0  0  0  0  0
   51.9821    4.5321    0.4108 H   0  0  0  0  0  0  0  0  0  0  0  0
   53.2683    4.6808    2.7265 H   0  0  0  0  0  0  0  0  0  0  0  0
   53.2786    7.1012    3.2102 H   0  0  0  0  0  0  0  0  0  0  0  0
   55.9202    7.7484   -0.1097 H   0  0  0  0  0  0  0  0  0  0  0  0
   55.8996    5.3274   -0.5933 H   0  0  0  0  0  0  0  0  0  0  0  0
   57.1503    4.2809    1.5586 H   0  0  0  0  0  0  0  0  0  0  0  0
   59.0366    2.4008    1.1592 H   0  0  0  0  0  0  0  0  0  0  0  0
   59.0083   -2.3124   -1.1990 H   0  0  0  0  0  0  0  0  0  0  0  0
   57.1068   -4.1753   -1.6075 H   0  0  0  0  0  0  0  0  0  0  0  0
   53.1785   -4.5350   -2.6786 H   0  0  0  0  0  0  0  0  0  0  0  0
   53.1664   -6.9427   -3.2231 H   0  0  0  0  0  0  0  0  0  0  0  0
   55.9116   -7.6784   -0.0072 H   0  0  0  0  0  0  0  0  0  0  0  0
   55.9144   -5.2703    0.5364 H   0  0  0  0  0  0  0  0  0  0  0  0
   51.9829   -4.4542   -0.2832 H   0  0  0  0  0  0  0  0  0  0  0  0
   50.0987   -2.5785    0.1728 H   0  0  0  0  0  0  0  0  0  0  0  0
   87.1227    0.0104    0.1077 Fe  0  0  0  0  0  0  0  0  0  0  0  0
   90.5108    0.0316    0.2884 C   0  0  0  0  0  0  0  0  0  0  0  0
   89.8621   -1.1645    0.5140 C   0  0  0  0  0  0  0  0  0  0  0  0
   90.5460   -2.3893    0.8011 C   0  0  0  0  0  0  0  0  0  0  0  0
   89.5968   -3.3487    0.9004 C   0  0  0  0  0  0  0  0  0  0  0  0
   88.3324   -2.7045    0.6885 C   0  0  0  0  0  0  0  0  0  0  0  0
   88.5085   -1.3682    0.4521 N   0  0  0  0  0  0  0  0  0  0  0  0
   87.1140   -3.3746    0.6832 C   0  0  0  0  0  0  0  0  0  0  0  0
   87.1104   -4.8354    0.9375 C   0  0  0  0  0  0  0  0  0  0  0  0
   87.5150   -5.3357    2.1769 C   0  0  0  0  0  0  0  0  0  0  0  0
   87.5068   -6.6970    2.4228 C   0  0  0  0  0  0  0  0  0  0  0  0
   87.0969   -7.5866    1.4254 C   0  0  0  0  0  0  0  0  0  0  0  0
   87.0871   -8.9882    1.6753 C   0  0  0  0  0  0  0  0  0  0  0  0
   87.0767  -10.1205    1.8798 N   0  0  0  0  0  0  0  0  0  0  0  0
   86.6949   -7.0902    0.1819 C   0  0  0  0  0  0  0  0  0  0  0  0
   86.6997   -5.7271   -0.0553 C   0  0  0  0  0  0  0  0  0  0  0  0
   85.9001   -2.7378    0.4703 C   0  0  0  0  0  0  0  0  0  0  0  0
   84.6330   -3.4058    0.5170 C   0  0  0  0  0  0  0  0  0  0  0  0
   83.6841   -2.4552    0.3456 C   0  0  0  0  0  0  0  0  0  0  0  0
   85.7221   -1.3901    0.2663 N   0  0  0  0  0  0  0  0  0  0  0  0
   84.3722   -1.2107    0.1964 C   0  0  0  0  0  0  0  0  0  0  0  0
   83.7110    0.0137    0.0533 C   0  0  0  0  0  0  0  0  0  0  0  0
   84.3801    1.2321   -0.1030 C   0  0  0  0  0  0  0  0  0  0  0  0
   83.6994    2.4698   -0.3256 C   0  0  0  0  0  0  0  0  0  0  0  0
   84.6546    3.4053   -0.5401 C   0  0  0  0  0  0  0  0  0  0  0  0
   85.9182    2.7388   -0.4283 C   0  0  0  0  0  0  0  0  0  0  0  0
   85.7318    1.4037   -0.1591 N   0  0  0  0  0  0  0  0  0  0  0  0
   87.1413    3.3673   -0.6115 C   0  0  0  0  0  0  0  0  0  0  0  0
   87.1551    4.8107   -0.9507 C   0  0  0  0  0  0  0  0  0  0  0  0
   87.6440    5.2362   -2.1876 C   0  0  0  0  0  0  0  0  0  0  0  0
   87.6567    6.5803   -2.5146 C   0  0  0  0  0  0  0  0  0  0  0  0
   87.1845    7.5278   -1.6015 C   0  0  0  0  0  0  0  0  0  0  0  0
   87.1988    8.9121   -1.9339 C   0  0  0  0  0  0  0  0  0  0  0  0
   87.2086   10.0306   -2.2039 N   0  0  0  0  0  0  0  0  0  0  0  0
   86.6994    7.1065   -0.3600 C   0  0  0  0  0  0  0  0  0  0  0  0
   86.6837    5.7601   -0.0420 C   0  0  0  0  0  0  0  0  0  0  0  0
   88.3596    2.7108   -0.4771 C   0  0  0  0  0  0  0  0  0  0  0  0
   89.6322    3.3655   -0.5807 C   0  0  0  0  0  0  0  0  0  0  0  0
   90.5747    2.4341   -0.3054 C   0  0  0  0  0  0  0  0  0  0  0  0
   89.8775    1.2123   -0.0384 C   0  0  0  0  0  0  0  0  0  0  0  0
   88.5237    1.3923   -0.1500 N   0  0  0  0  0  0  0  0  0  0  0  0
   91.5928    0.0400    0.3557 H   0  0  0  0  0  0  0  0  0  0  0  0
   91.6158   -2.4842    0.8977 H   0  0  0  0  0  0  0  0  0  0  0  0
   89.7289   -4.4017    1.0889 H   0  0  0  0  0  0  0  0  0  0  0  0
   87.8228   -4.6475    2.9559 H   0  0  0  0  0  0  0  0  0  0  0  0
   87.8163   -7.0784    3.3889 H   0  0  0  0  0  0  0  0  0  0  0  0
   86.3800   -7.7775   -0.5945 H   0  0  0  0  0  0  0  0  0  0  0  0
   86.3962   -5.3455   -1.0235 H   0  0  0  0  0  0  0  0  0  0  0  0
   84.4965   -4.4626    0.6779 H   0  0  0  0  0  0  0  0  0  0  0  0
   82.6124   -2.5706    0.3305 H   0  0  0  0  0  0  0  0  0  0  0  0
   82.6281    2.5894   -0.3336 H   0  0  0  0  0  0  0  0  0  0  0  0
   84.5244    4.4515   -0.7640 H   0  0  0  0  0  0  0  0  0  0  0  0
   88.0027    4.5026   -2.9007 H   0  0  0  0  0  0  0  0  0  0  0  0
   88.0316    6.9034   -3.4787 H   0  0  0  0  0  0  0  0  0  0  0  0
   86.3371    7.8390    0.3518 H   0  0  0  0  0  0  0  0  0  0  0  0
   86.3174    5.4375    0.9260 H   0  0  0  0  0  0  0  0  0  0  0  0
   89.7718    4.4079   -0.8168 H   0  0  0  0  0  0  0  0  0  0  0  0
   91.6469    2.5450   -0.2780 H   0  0  0  0  0  0  0  0  0  0  0  0
   59.3774    0.0358   -0.0072 C   0  0  0  0  0  0  0  0  0  0  0  0
   60.5969    0.0327   -0.0186 C   0  0  0  0  0  0  0  0  0  0  0  0
   70.2217    0.0188   -0.0199 C   0  0  0  0  0  0  0  0  0  0  0  0
   71.4418    0.0183   -0.0185 C   0  0  0  0  0  0  0  0  0  0  0  0
   81.0873    0.0214    0.0331 C   0  0  0  0  0  0  0  0  0  0  0  0
   82.3054    0.0172    0.0440 C   0  0  0  0  0  0  0  0  0  0  0  0
   65.4103    0.0296   -0.0357 Fe  0  0  0  0  0  0  0  0  0  0  0  0
   61.9988    0.0320   -0.0279 C   0  0  0  0  0  0  0  0  0  0  0  0
   62.6744   -1.1823   -0.2160 C   0  0  0  0  0  0  0  0  0  0  0  0
   62.0192   -2.4443   -0.3502 C   0  0  0  0  0  0  0  0  0  0  0  0
   62.9735   -3.3441   -0.6953 C   0  0  0  0  0  0  0  0  0  0  0  0
   64.2082   -2.6237   -0.7726 C   0  0  0  0  0  0  0  0  0  0  0  0
   64.0165   -1.3118   -0.4179 N   0  0  0  0  0  0  0  0  0  0  0  0
   65.4043   -3.1619   -1.2365 C   0  0  0  0  0  0  0  0  0  0  0  0
   65.3960   -4.5416   -1.7711 C   0  0  0  0  0  0  0  0  0  0  0  0
   64.5835   -4.8715   -2.8587 C   0  0  0  0  0  0  0  0  0  0  0  0
   64.5781   -6.1570   -3.3690 C   0  0  0  0  0  0  0  0  0  0  0  0
   65.3830   -7.1436   -2.7915 C   0  0  0  0  0  0  0  0  0  0  0  0
   65.3757   -8.4685   -3.3127 C   0  0  0  0  0  0  0  0  0  0  0  0
   65.3704   -9.5355   -3.7432 N   0  0  0  0  0  0  0  0  0  0  0  0
   66.1928   -6.8199   -1.6989 C   0  0  0  0  0  0  0  0  0  0  0  0
   66.2001   -5.5302   -1.1990 C   0  0  0  0  0  0  0  0  0  0  0  0
   66.6048   -2.4618   -1.2208 C   0  0  0  0  0  0  0  0  0  0  0  0
   67.8424   -2.9639   -1.7375 C   0  0  0  0  0  0  0  0  0  0  0  0
   68.8015   -2.0723   -1.3855 C   0  0  0  0  0  0  0  0  0  0  0  0
   66.8014   -1.2437   -0.6173 N   0  0  0  0  0  0  0  0  0  0  0  0
   68.1453   -1.0267   -0.6663 C   0  0  0  0  0  0  0  0  0  0  0  0
   68.8210    0.0206   -0.0228 C   0  0  0  0  0  0  0  0  0  0  0  0
   68.1454    1.0728    0.6130 C   0  0  0  0  0  0  0  0  0  0  0  0
   68.8017    2.1188    1.3316 C   0  0  0  0  0  0  0  0  0  0  0  0
   67.8454    3.0200    1.6667 C   0  0  0  0  0  0  0  0  0  0  0  0
   66.6094    2.5222    1.1421 C   0  0  0  0  0  0  0  0  0  0  0  0
   66.8034    1.2982    0.5499 N   0  0  0  0  0  0  0  0  0  0  0  0
   65.4127    3.2291    1.1445 C   0  0  0  0  0  0  0  0  0  0  0  0
   65.4086    4.6133    1.6669 C   0  0  0  0  0  0  0  0  0  0  0  0
   64.5915    4.9571    2.7467 C   0  0  0  0  0  0  0  0  0  0  0  0
   64.5883    6.2475    3.2445 C   0  0  0  0  0  0  0  0  0  0  0  0
   65.4005    7.2251    2.6621 C   0  0  0  0  0  0  0  0  0  0  0  0
   65.3951    8.5552    3.1699 C   0  0  0  0  0  0  0  0  0  0  0  0
   65.3900    9.6274    3.5876 N   0  0  0  0  0  0  0  0  0  0  0  0
   66.2160    6.8874    1.5780 C   0  0  0  0  0  0  0  0  0  0  0  0
   66.2208    5.5929    1.0905 C   0  0  0  0  0  0  0  0  0  0  0  0
   64.2156    2.6913    0.6830 C   0  0  0  0  0  0  0  0  0  0  0  0
   62.9822    3.4135    0.6022 C   0  0  0  0  0  0  0  0  0  0  0  0
   62.0243    2.5115    0.2731 C   0  0  0  0  0  0  0  0  0  0  0  0
   62.6766    1.2470    0.1490 C   0  0  0  0  0  0  0  0  0  0  0  0
   64.0198    1.3762    0.3424 N   0  0  0  0  0  0  0  0  0  0  0  0
   60.9655   -2.6099   -0.1965 H   0  0  0  0  0  0  0  0  0  0  0  0
   62.8603   -4.4006   -0.8758 H   0  0  0  0  0  0  0  0  0  0  0  0
   63.9670   -4.1058   -3.3159 H   0  0  0  0  0  0  0  0  0  0  0  0
   63.9515   -6.4039   -4.2180 H   0  0  0  0  0  0  0  0  0  0  0  0
   66.8139   -7.5835   -1.2456 H   0  0  0  0  0  0  0  0  0  0  0  0
   66.8201   -5.2854   -0.3440 H   0  0  0  0  0  0  0  0  0  0  0  0
   67.9544   -3.8770   -2.2989 H   0  0  0  0  0  0  0  0  0  0  0  0
   69.8587   -2.1070   -1.5927 H   0  0  0  0  0  0  0  0  0  0  0  0
   69.8568    2.1473    1.5496 H   0  0  0  0  0  0  0  0  0  0  0  0
   67.9581    3.9369    2.2219 H   0  0  0  0  0  0  0  0  0  0  0  0
   63.9694    4.1984    3.2079 H   0  0  0  0  0  0  0  0  0  0  0  0
   63.9577    6.5050    4.0873 H   0  0  0  0  0  0  0  0  0  0  0  0
   66.8431    7.6440    1.1212 H   0  0  0  0  0  0  0  0  0  0  0  0
   66.8452    5.3372    0.2419 H   0  0  0  0  0  0  0  0  0  0  0  0
   62.8720    4.4723    0.7703 H   0  0  0  0  0  0  0  0  0  0  0  0
   60.9704    2.6775    0.1218 H   0  0  0  0  0  0  0  0  0  0  0  0
   76.2639    0.0298   -0.0204 Fe  0  0  0  0  0  0  0  0  0  0  0  0
   72.8430    0.0216   -0.0205 C   0  0  0  0  0  0  0  0  0  0  0  0
   73.5183   -1.1784   -0.2830 C   0  0  0  0  0  0  0  0  0  0  0  0
   72.8500   -2.4223   -0.5019 C   0  0  0  0  0  0  0  0  0  0  0  0
   73.8074   -3.3260   -0.8234 C   0  0  0  0  0  0  0  0  0  0  0  0
   75.0567   -2.6262   -0.8024 C   0  0  0  0  0  0  0  0  0  0  0  0
   74.8657   -1.3183   -0.4281 N   0  0  0  0  0  0  0  0  0  0  0  0
   76.2708   -3.1968   -1.1617 C   0  0  0  0  0  0  0  0  0  0  0  0
   76.2709   -4.5880   -1.6697 C   0  0  0  0  0  0  0  0  0  0  0  0
   75.5768   -4.9109   -2.8380 C   0  0  0  0  0  0  0  0  0  0  0  0
   75.5792   -6.2065   -3.3227 C   0  0  0  0  0  0  0  0  0  0  0  0
   76.2729   -7.2090   -2.6387 C   0  0  0  0  0  0  0  0  0  0  0  0
   76.2760   -8.5442   -3.1331 C   0  0  0  0  0  0  0  0  0  0  0  0
   76.2814   -9.6228   -3.5338 N   0  0  0  0  0  0  0  0  0  0  0  0
   76.9641   -6.8916   -1.4657 C   0  0  0  0  0  0  0  0  0  0  0  0
   76.9644   -5.5923   -0.9908 C   0  0  0  0  0  0  0  0  0  0  0  0
   77.4854   -2.5275   -1.0659 C   0  0  0  0  0  0  0  0  0  0  0  0
   78.7414   -3.0889   -1.4636 C   0  0  0  0  0  0  0  0  0  0  0  0
   79.6958   -2.1914   -1.1163 C   0  0  0  0  0  0  0  0  0  0  0  0
   77.6683   -1.2783   -0.5271 N   0  0  0  0  0  0  0  0  0  0  0  0
   79.0178   -1.0827   -0.5226 C   0  0  0  0  0  0  0  0  0  0  0  0
   79.6828    0.0250    0.0160 C   0  0  0  0  0  0  0  0  0  0  0  0
   79.0098    1.1394    0.5299 C   0  0  0  0  0  0  0  0  0  0  0  0
   79.6788    2.2565    1.1182 C   0  0  0  0  0  0  0  0  0  0  0  0
   78.7210    3.1656    1.4229 C   0  0  0  0  0  0  0  0  0  0  0  0
   77.4717    2.6003    1.0100 C   0  0  0  0  0  0  0  0  0  0  0  0
   77.6613    1.3408    0.4989 N   0  0  0  0  0  0  0  0  0  0  0  0
   76.2557    3.2706    1.0798 C   0  0  0  0  0  0  0  0  0  0  0  0
   76.2499    4.6701    1.5649 C   0  0  0  0  0  0  0  0  0  0  0  0
   75.5520    5.0098    2.7261 C   0  0  0  0  0  0  0  0  0  0  0  0
   75.5479    6.3134    3.1886 C   0  0  0  0  0  0  0  0  0  0  0  0
   76.2389    7.3070    2.4889 C   0  0  0  0  0  0  0  0  0  0  0  0
   76.2345    8.6500    2.9620 C   0  0  0  0  0  0  0  0  0  0  0  0
   76.2292    9.7335    3.3491 N   0  0  0  0  0  0  0  0  0  0  0  0
   76.9346    6.9725    1.3235 C   0  0  0  0  0  0  0  0  0  0  0  0
   76.9416    5.6652    0.8710 C   0  0  0  0  0  0  0  0  0  0  0  0
   75.0449    2.6906    0.7252 C   0  0  0  0  0  0  0  0  0  0  0  0
   73.7920    3.3842    0.7394 C   0  0  0  0  0  0  0  0  0  0  0  0
   72.8382    2.4701    0.4376 C   0  0  0  0  0  0  0  0  0  0  0  0
   73.5124    1.2270    0.2333 C   0  0  0  0  0  0  0  0  0  0  0  0
   74.8595    1.3760    0.3710 N   0  0  0  0  0  0  0  0  0  0  0  0
   71.7866   -2.5734   -0.4132 H   0  0  0  0  0  0  0  0  0  0  0  0
   73.6882   -4.3737   -1.0463 H   0  0  0  0  0  0  0  0  0  0  0  0
   75.0471   -4.1330   -3.3762 H   0  0  0  0  0  0  0  0  0  0  0  0
   75.0449   -6.4485   -4.2339 H   0  0  0  0  0  0  0  0  0  0  0  0
   77.4991   -7.6675   -0.9308 H   0  0  0  0  0  0  0  0  0  0  0  0
   77.4924   -5.3515   -0.0752 H   0  0  0  0  0  0  0  0  0  0  0  0
   78.8681   -4.0422   -1.9498 H   0  0  0  0  0  0  0  0  0  0  0  0
   80.7630   -2.2590   -1.2520 H   0  0  0  0  0  0  0  0  0  0  0  0
   80.7431    2.3223    1.2765 H   0  0  0  0  0  0  0  0  0  0  0  0
   78.8405    4.1293    1.8904 H   0  0  0  0  0  0  0  0  0  0  0  0
   75.0244    4.2389    3.2762 H   0  0  0  0  0  0  0  0  0  0  0  0
   75.0105    6.5687    4.0944 H   0  0  0  0  0  0  0  0  0  0  0  0
   77.4677    7.7413    0.7766 H   0  0  0  0  0  0  0  0  0  0  0  0
   77.4737    5.4106   -0.0386 H   0  0  0  0  0  0  0  0  0  0  0  0
   73.6681    4.4346    0.9463 H   0  0  0  0  0  0  0  0  0  0  0  0
   71.7736    2.6142    0.3510 H   0  0  0  0  0  0  0  0  0  0  0  0
  2  3  4  0  0  0  0
  3  4  4  0  0  0  0
  4  5  2  0  0  0  0
  5  6  4  0  0  0  0
  1  7  1  0  0  0  0
  3  7  4  0  0  0  0
  6  7  4  0  0  0  0
  6  8  4  0  0  0  0
  8  9  1  0  0  0  0
  9 10  4  0  0  0  0
 10 11  4  0  0  0  0
 11 12  4  0  0  0  0
 12 13  1  0  0  0  0
 13 14  3  0  0  0  0
 12 15  4  0  0  0  0
  9 16  4  0  0  0  0
 15 16  4  0  0  0  0
  8 17  4  0  0  0  0
 17 18  4  0  0  0  0
 18 19  2  0  0  0  0
  1 20  1  0  0  0  0
 17 20  4  0  0  0  0
 19 21  4  0  0  0  0
 20 21  4  0  0  0  0
 21 22  4  0  0  0  0
 22 23  4  0  0  0  0
 23 24  4  0  0  0  0
 24 25  2  0  0  0  0
 25 26  4  0  0  0  0
  1 27  1  0  0  0  0
 23 27  4  0  0  0  0
 26 27  4  0  0  0  0
 26 28  4  0  0  0  0
 28 29  1  0  0  0  0
 29 30  4  0  0  0  0
 30 31  4  0  0  0  0
 31 32  4  0  0  0  0
 32 33  1  0  0  0  0
 33 34  3  0  0  0  0
 32 35  4  0  0  0  0
 29 36  4  0  0  0  0
 35 36  4  0  0  0  0
 28 37  4  0  0  0  0
 37 38  4  0  0  0  0
 38 39  2  0  0  0  0
  2 40  4  0  0  0  0
 39 40  4  0  0  0  0
  1 41  1  0  0  0  0
 37 41  4  0  0  0  0
 40 41  4  0  0  0  0
  2 42  1  0  0  0  0
  4 43  1  0  0  0  0
  5 44  1  0  0  0  0
 10 45  1  0  0  0  0
 11 46  1  0  0  0  0
 15 47  1  0  0  0  0
 16 48  1  0  0  0  0
 18 49  1  0  0  0  0
 19 50  1  0  0  0  0
 24 51  1  0  0  0  0
 25 52  1  0  0  0  0
 30 53  1  0  0  0  0
 31 54  1  0  0  0  0
 35 55  1  0  0  0  0
 36 56  1  0  0  0  0
 38 57  1  0  0  0  0
 39 58  1  0  0  0  0
 60 61  4  0  0  0  0
 61 62  4  0  0  0  0
 62 63  2  0  0  0  0
 63 64  4  0  0  0  0
 59 65  1  0  0  0  0
 61 65  4  0  0  0  0
 64 65  4  0  0  0  0
 64 66  4  0  0  0  0
 66 67  1  0  0  0  0
 67 68  4  0  0  0  0
 68 69  4  0  0  0  0
 69 70  4  0  0  0  0
 70 71  1  0  0  0  0
 71 72  3  0  0  0  0
 70 73  4  0  0  0  0
 67 74  4  0  0  0  0
 73 74  4  0  0  0  0
 66 75  4  0  0  0  0
 75 76  4  0  0  0  0
 76 77  2  0  0  0  0
 59 78  1  0  0  0  0
 75 78  4  0  0  0  0
 77 79  4  0  0  0  0
 78 79  4  0  0  0  0
 79 80  4  0  0  0  0
 80 81  4  0  0  0  0
 81 82  4  0  0  0  0
 82 83  2  0  0  0  0
 83 84  4  0  0  0  0
 59 85  1  0  0  0  0
 81 85  4  0  0  0  0
 84 85  4  0  0  0  0
 84 86  4  0  0  0  0
 86 87  1  0  0  0  0
 87 88  4  0  0  0  0
 88 89  4  0  0  0  0
 89 90  4  0  0  0  0
 90 91  1  0  0  0  0
 91 92  3  0  0  0  0
 90 93  4  0  0  0  0
 87 94  4  0  0  0  0
 93 94  4  0  0  0  0
 86 95  4  0  0  0  0
 95 96  4  0  0  0  0
 96 97  2  0  0  0  0
 60 98  4  0  0  0  0
 97 98  4  0  0  0  0
 59 99  1  0  0  0  0
 95 99  4  0  0  0  0
 98 99  4  0  0  0  0
 60100  1  0  0  0  0
 62101  1  0  0  0  0
 63102  1  0  0  0  0
 68103  1  0  0  0  0
 69104  1  0  0  0  0
 73105  1  0  0  0  0
 74106  1  0  0  0  0
 76107  1  0  0  0  0
 77108  1  0  0  0  0
 82109  1  0  0  0  0
 83110  1  0  0  0  0
 88111  1  0  0  0  0
 89112  1  0  0  0  0
 93113  1  0  0  0  0
 94114  1  0  0  0  0
 96115  1  0  0  0  0
 97116  1  0  0  0  0
 22117  4  0  0  0  0
117118  3  0  0  0  0
119120  3  0  0  0  0
 80122  1  0  0  0  0
121122  3  0  0  0  0
118124  4  0  0  0  0
124125  4  0  0  0  0
125126  4  0  0  0  0
126127  2  0  0  0  0
127128  4  0  0  0  0
123129  1  0  0  0  0
125129  4  0  0  0  0
128129  4  0  0  0  0
128130  4  0  0  0  0
130131  1  0  0  0  0
131132  4  0  0  0  0
132133  4  0  0  0  0
133134  4  0  0  0  0
134135  1  0  0  0  0
135136  3  0  0  0  0
134137  4  0  0  0  0
131138  4  0  0  0  0
137138  4  0  0  0  0
130139  4  0  0  0  0
139140  4  0  0  0  0
140141  2  0  0  0  0
123142  1  0  0  0  0
139142  4  0  0  0  0
141143  4  0  0  0  0
142143  4  0  0  0  0
119144  4  0  0  0  0
143144  4  0  0  0  0
144145  4  0  0  0  0
145146  4  0  0  0  0
146147  2  0  0  0  0
147148  4  0  0  0  0
123149  1  0  0  0  0
145149  4  0  0  0  0
148149  4  0  0  0  0
148150  4  0  0  0  0
150151  1  0  0  0  0
151152  4  0  0  0  0
152153  4  0  0  0  0
153154  4  0  0  0  0
154155  1  0  0  0  0
155156  3  0  0  0  0
154157  4  0  0  0  0
151158  4  0  0  0  0
157158  4  0  0  0  0
150159  4  0  0  0  0
159160  4  0  0  0  0
160161  2  0  0  0  0
124162  4  0  0  0  0
161162  4  0  0  0  0
123163  1  0  0  0  0
159163  4  0  0  0  0
162163  4  0  0  0  0
126164  1  0  0  0  0
127165  1  0  0  0  0
132166  1  0  0  0  0
133167  1  0  0  0  0
137168  1  0  0  0  0
138169  1  0  0  0  0
140170  1  0  0  0  0
141171  1  0  0  0  0
146172  1  0  0  0  0
147173  1  0  0  0  0
152174  1  0  0  0  0
153175  1  0  0  0  0
157176  1  0  0  0  0
158177  1  0  0  0  0
160178  1  0  0  0  0
161179  1  0  0  0  0
120181  4  0  0  0  0
181182  4  0  0  0  0
182183  4  0  0  0  0
183184  2  0  0  0  0
184185  4  0  0  0  0
180186  1  0  0  0  0
182186  4  0  0  0  0
185186  4  0  0  0  0
185187  4  0  0  0  0
187188  1  0  0  0  0
188189  4  0  0  0  0
189190  4  0  0  0  0
190191  4  0  0  0  0
191192  1  0  0  0  0
192193  3  0  0  0  0
191194  4  0  0  0  0
188195  4  0  0  0  0
194195  4  0  0  0  0
187196  4  0  0  0  0
196197  4  0  0  0  0
197198  2  0  0  0  0
180199  1  0  0  0  0
196199  4  0  0  0  0
198200  4  0  0  0  0
199200  4  0  0  0  0
121201  1  0  0  0  0
200201  4  0  0  0  0
201202  4  0  0  0  0
202203  4  0  0  0  0
203204  2  0  0  0  0
204205  4  0  0  0  0
180206  1  0  0  0  0
202206  4  0  0  0  0
205206  4  0  0  0  0
205207  4  0  0  0  0
207208  1  0  0  0  0
208209  4  0  0  0  0
209210  4  0  0  0  0
210211  4  0  0  0  0
211212  1  0  0  0  0
212213  3  0  0  0  0
211214  4  0  0  0  0
208215  4  0  0  0  0
214215  4  0  0  0  0
207216  4  0  0  0  0
216217  4  0  0  0  0
217218  2  0  0  0  0
181219  4  0  0  0  0
218219  4  0  0  0  0
180220  1  0  0  0  0
216220  4  0  0  0  0
219220  4  0  0  0  0
183221  1  0  0  0  0
184222  1  0  0  0  0
189223  1  0  0  0  0
190224  1  0  0  0  0
194225  1  0  0  0  0
195226  1  0  0  0  0
197227  1  0  0  0  0
198228  1  0  0  0  0
203229  1  0  0  0  0
204230  1  0  0  0  0
209231  1  0  0  0  0
210232  1  0  0  0  0
214233  1  0  0  0  0
215234  1  0  0  0  0
217235  1  0  0  0  0
218236  1  0  0  0  0
M  END
