 xtb: 6.5.1 (b24c23e)
          07302208023D

181210  0     0  0            999 V2000
   27.8115    0.4232    0.2678 Zn  0  0  0  0  0  0  0  0  0  0  0  0
   24.4058    0.2943    0.1485 C   0  0  0  0  0  0  0  0  0  0  0  0
   25.0716   -0.9258    0.1406 C   0  0  0  0  0  0  0  0  0  0  0  0
   24.4350   -2.2127    0.1108 C   0  0  0  0  0  0  0  0  0  0  0  0
   25.4218   -3.1438    0.1081 C   0  0  0  0  0  0  0  0  0  0  0  0
   26.6749   -2.4368    0.1279 C   0  0  0  0  0  0  0  0  0  0  0  0
   26.4262   -1.0950    0.1571 N   0  0  0  0  0  0  0  0  0  0  0  0
   27.9432   -3.0294    0.1413 C   0  0  0  0  0  0  0  0  0  0  0  0
   28.0061   -4.5103    0.0571 C   0  0  0  0  0  0  0  0  0  0  0  0
   27.5420   -5.1728   -1.0128 C   0  0  0  0  0  0  0  0  0  0  0  0
   27.5847   -6.6754   -1.1157 C   0  0  0  0  0  0  0  0  0  0  0  0
   28.5194   -7.2457   -0.1418 N   0  0  0  0  0  0  0  0  0  0  0  0
   28.8064   -6.5752    1.0200 C   0  0  0  0  0  0  0  0  0  0  0  0
   28.6097   -5.2521    1.1555 C   0  0  0  0  0  0  0  0  0  0  0  0
   29.1604   -2.3435    0.2209 C   0  0  0  0  0  0  0  0  0  0  0  0
   30.4595   -2.9567    0.2046 C   0  0  0  0  0  0  0  0  0  0  0  0
   31.3756   -1.9580    0.2829 C   0  0  0  0  0  0  0  0  0  0  0  0
   29.3125   -0.9846    0.2972 N   0  0  0  0  0  0  0  0  0  0  0  0
   30.6473   -0.7244    0.3371 C   0  0  0  0  0  0  0  0  0  0  0  0
   31.2392    0.5520    0.4049 C   0  0  0  0  0  0  0  0  0  0  0  0
   30.5509    1.7804    0.4158 C   0  0  0  0  0  0  0  0  0  0  0  0
   31.1785    3.0658    0.5089 C   0  0  0  0  0  0  0  0  0  0  0  0
   30.1874    3.9934    0.4942 C   0  0  0  0  0  0  0  0  0  0  0  0
   28.9430    3.2835    0.3850 C   0  0  0  0  0  0  0  0  0  0  0  0
   29.2014    1.9395    0.3457 N   0  0  0  0  0  0  0  0  0  0  0  0
   27.6755    3.8767    0.3551 C   0  0  0  0  0  0  0  0  0  0  0  0
   27.6228    5.3598    0.3923 C   0  0  0  0  0  0  0  0  0  0  0  0
   27.0271    6.0212    1.3956 C   0  0  0  0  0  0  0  0  0  0  0  0
   26.9460    7.5252    1.4380 C   0  0  0  0  0  0  0  0  0  0  0  0
   27.9059    8.1339    0.5129 N   0  0  0  0  0  0  0  0  0  0  0  0
   28.3363    7.4463   -0.5932 C   0  0  0  0  0  0  0  0  0  0  0  0
   28.2543    6.1076   -0.6864 C   0  0  0  0  0  0  0  0  0  0  0  0
   26.4571    3.1898    0.2906 C   0  0  0  0  0  0  0  0  0  0  0  0
   25.1559    3.7995    0.2125 C   0  0  0  0  0  0  0  0  0  0  0  0
   24.2443    2.7960    0.1606 C   0  0  0  0  0  0  0  0  0  0  0  0
   24.9763    1.5611    0.1936 C   0  0  0  0  0  0  0  0  0  0  0  0
   26.3122    1.8327    0.2678 N   0  0  0  0  0  0  0  0  0  0  0  0
   23.3215    0.2536    0.1111 H   0  0  0  0  0  0  0  0  0  0  0  0
   23.3679   -2.3719    0.1009 H   0  0  0  0  0  0  0  0  0  0  0  0
   25.3154   -4.2169    0.1057 H   0  0  0  0  0  0  0  0  0  0  0  0
   27.0962   -4.6561   -1.8548 H   0  0  0  0  0  0  0  0  0  0  0  0
   27.9153   -6.9766   -2.1188 H   0  0  0  0  0  0  0  0  0  0  0  0
   26.5735   -7.0983   -0.9646 H   0  0  0  0  0  0  0  0  0  0  0  0
   28.4715   -8.2521   -0.0737 H   0  0  0  0  0  0  0  0  0  0  0  0
   29.2824   -7.1781    1.7869 H   0  0  0  0  0  0  0  0  0  0  0  0
   28.8889   -4.7306    2.0600 H   0  0  0  0  0  0  0  0  0  0  0  0
   30.6453   -4.0164    0.1350 H   0  0  0  0  0  0  0  0  0  0  0  0
   32.4508   -2.0412    0.2947 H   0  0  0  0  0  0  0  0  0  0  0  0
   32.2421    3.2291    0.5820 H   0  0  0  0  0  0  0  0  0  0  0  0
   30.2871    5.0650    0.5596 H   0  0  0  0  0  0  0  0  0  0  0  0
   26.5560    5.5015    2.2219 H   0  0  0  0  0  0  0  0  0  0  0  0
   27.1735    7.8883    2.4493 H   0  0  0  0  0  0  0  0  0  0  0  0
   25.9198    7.8596    1.1945 H   0  0  0  0  0  0  0  0  0  0  0  0
   27.7830    9.1296    0.3969 H   0  0  0  0  0  0  0  0  0  0  0  0
   28.8239    8.0569   -1.3465 H   0  0  0  0  0  0  0  0  0  0  0  0
   28.6451    5.5774   -1.5433 H   0  0  0  0  0  0  0  0  0  0  0  0
   24.9686    4.8611    0.1887 H   0  0  0  0  0  0  0  0  0  0  0  0
   23.1700    2.8738    0.0959 H   0  0  0  0  0  0  0  0  0  0  0  0
   54.7594    0.3224    0.2484 Zn  0  0  0  0  0  0  0  0  0  0  0  0
   58.1663    0.3497    0.1090 C   0  0  0  0  0  0  0  0  0  0  0  0
   57.5461    1.5765    0.3143 C   0  0  0  0  0  0  0  0  0  0  0  0
   58.2297    2.8257    0.5001 C   0  0  0  0  0  0  0  0  0  0  0  0
   57.2781    3.7784    0.6656 C   0  0  0  0  0  0  0  0  0  0  0  0
   55.9996    3.1246    0.5711 C   0  0  0  0  0  0  0  0  0  0  0  0
   56.1987    1.7893    0.3697 N   0  0  0  0  0  0  0  0  0  0  0  0
   54.7535    3.7525    0.6835 C   0  0  0  0  0  0  0  0  0  0  0  0
   54.7431    5.2254    0.8689 C   0  0  0  0  0  0  0  0  0  0  0  0
   55.2416    6.0574   -0.0574 C   0  0  0  0  0  0  0  0  0  0  0  0
   55.2556    7.5535    0.1220 C   0  0  0  0  0  0  0  0  0  0  0  0
   54.3363    7.9683    1.1852 N   0  0  0  0  0  0  0  0  0  0  0  0
   54.0112    7.1036    2.1992 C   0  0  0  0  0  0  0  0  0  0  0  0
   54.1551    5.7718    2.0842 C   0  0  0  0  0  0  0  0  0  0  0  0
   53.5119    3.1086    0.6362 C   0  0  0  0  0  0  0  0  0  0  0  0
   52.2359    3.7653    0.7049 C   0  0  0  0  0  0  0  0  0  0  0  0
   51.2838    2.8019    0.6157 C   0  0  0  0  0  0  0  0  0  0  0  0
   53.3105    1.7618    0.4943 N   0  0  0  0  0  0  0  0  0  0  0  0
   51.9668    1.5482    0.4852 C   0  0  0  0  0  0  0  0  0  0  0  0
   51.3301    0.2960    0.3825 C   0  0  0  0  0  0  0  0  0  0  0  0
   51.9745   -0.9467    0.2318 C   0  0  0  0  0  0  0  0  0  0  0  0
   51.3023   -2.2104    0.1528 C   0  0  0  0  0  0  0  0  0  0  0  0
   52.2592   -3.1592   -0.0119 C   0  0  0  0  0  0  0  0  0  0  0  0
   53.5268   -2.4834   -0.0420 C   0  0  0  0  0  0  0  0  0  0  0  0
   53.3167   -1.1400    0.1186 N   0  0  0  0  0  0  0  0  0  0  0  0
   54.7711   -3.1073   -0.1898 C   0  0  0  0  0  0  0  0  0  0  0  0
   54.7714   -4.5796   -0.3797 C   0  0  0  0  0  0  0  0  0  0  0  0
   55.3648   -5.4052    0.4951 C   0  0  0  0  0  0  0  0  0  0  0  0
   55.3952   -6.8997    0.3054 C   0  0  0  0  0  0  0  0  0  0  0  0
   54.3967   -7.3299   -0.6773 N   0  0  0  0  0  0  0  0  0  0  0  0
   53.9672   -6.4675   -1.6539 C   0  0  0  0  0  0  0  0  0  0  0  0
   54.0922   -5.1335   -1.5430 C   0  0  0  0  0  0  0  0  0  0  0  0
   56.0122   -2.4592   -0.1774 C   0  0  0  0  0  0  0  0  0  0  0  0
   57.2891   -3.0922   -0.3776 C   0  0  0  0  0  0  0  0  0  0  0  0
   58.2359   -2.1246   -0.2888 C   0  0  0  0  0  0  0  0  0  0  0  0
   57.5501   -0.8866   -0.0457 C   0  0  0  0  0  0  0  0  0  0  0  0
   56.2062   -1.1210    0.0094 N   0  0  0  0  0  0  0  0  0  0  0  0
   59.2511    0.3579    0.0641 H   0  0  0  0  0  0  0  0  0  0  0  0
   59.3020    2.9456    0.5095 H   0  0  0  0  0  0  0  0  0  0  0  0
   57.4241    4.8312    0.8469 H   0  0  0  0  0  0  0  0  0  0  0  0
   55.6773    5.6902   -0.9794 H   0  0  0  0  0  0  0  0  0  0  0  0
   54.9440    8.0490   -0.8074 H   0  0  0  0  0  0  0  0  0  0  0  0
   56.2809    7.9016    0.3494 H   0  0  0  0  0  0  0  0  0  0  0  0
   54.4243    8.9410    1.4420 H   0  0  0  0  0  0  0  0  0  0  0  0
   53.5508    7.5703    3.0643 H   0  0  0  0  0  0  0  0  0  0  0  0
   53.8455    5.1013    2.8733 H   0  0  0  0  0  0  0  0  0  0  0  0
   52.0896    4.8291    0.8016 H   0  0  0  0  0  0  0  0  0  0  0  0
   50.2122    2.9225    0.6316 H   0  0  0  0  0  0  0  0  0  0  0  0
   50.2345   -2.3461    0.2201 H   0  0  0  0  0  0  0  0  0  0  0  0
   52.1219   -4.2251   -0.0991 H   0  0  0  0  0  0  0  0  0  0  0  0
   55.8711   -5.0333    1.3783 H   0  0  0  0  0  0  0  0  0  0  0  0
   55.1760   -7.4065    1.2549 H   0  0  0  0  0  0  0  0  0  0  0  0
   56.4043   -7.2239   -0.0120 H   0  0  0  0  0  0  0  0  0  0  0  0
   54.4846   -8.2988   -0.9481 H   0  0  0  0  0  0  0  0  0  0  0  0
   53.4442   -6.9401   -2.4792 H   0  0  0  0  0  0  0  0  0  0  0  0
   53.7021   -4.4665   -2.2988 H   0  0  0  0  0  0  0  0  0  0  0  0
   57.4373   -4.1423   -0.5726 H   0  0  0  0  0  0  0  0  0  0  0  0
   59.3055   -2.2273   -0.3865 H   0  0  0  0  0  0  0  0  0  0  0  0
   33.8666    0.6212    0.4983 C   0  0  0  0  0  0  0  0  0  0  0  0
   32.6459    0.5987    0.4585 C   0  0  0  0  0  0  0  0  0  0  0  0
   35.2177    0.6363    0.5341 C   0  0  0  0  0  0  0  0  0  0  0  0
   36.4390    0.6364    0.5586 C   0  0  0  0  0  0  0  0  0  0  0  0
   47.3501    0.3449    0.4980 C   0  0  0  0  0  0  0  0  0  0  0  0
   46.1297    0.3875    0.5240 C   0  0  0  0  0  0  0  0  0  0  0  0
   48.7013    0.3138    0.4658 C   0  0  0  0  0  0  0  0  0  0  0  0
   49.9220    0.2935    0.4306 C   0  0  0  0  0  0  0  0  0  0  0  0
   41.2850    0.5458    0.5696 Zn  0  0  0  0  0  0  0  0  0  0  0  0
   37.8469    0.6217    0.5717 C   0  0  0  0  0  0  0  0  0  0  0  0
   38.5066    1.4089   -0.3924 C   0  0  0  0  0  0  0  0  0  0  0  0
   37.8473    2.2483   -1.3487 C   0  0  0  0  0  0  0  0  0  0  0  0
   38.8161    2.8229   -2.1071 C   0  0  0  0  0  0  0  0  0  0  0  0
   40.0772    2.3323   -1.6258 C   0  0  0  0  0  0  0  0  0  0  0  0
   39.8525    1.4836   -0.5749 N   0  0  0  0  0  0  0  0  0  0  0  0
   41.3300    2.6794   -2.1417 C   0  0  0  0  0  0  0  0  0  0  0  0
   41.3541    3.5839   -3.3192 C   0  0  0  0  0  0  0  0  0  0  0  0
   40.8205    3.2186   -4.4943 C   0  0  0  0  0  0  0  0  0  0  0  0
   40.8797    4.0962   -5.7169 C   0  0  0  0  0  0  0  0  0  0  0  0
   41.2002    5.4806   -5.3594 N   0  0  0  0  0  0  0  0  0  0  0  0
   41.8870    5.7638   -4.2071 C   0  0  0  0  0  0  0  0  0  0  0  0
   41.9704    4.8956   -3.1836 C   0  0  0  0  0  0  0  0  0  0  0  0
   42.5662    2.2435   -1.6526 C   0  0  0  0  0  0  0  0  0  0  0  0
   43.8437    2.5717   -2.2206 C   0  0  0  0  0  0  0  0  0  0  0  0
   44.7877    1.9462   -1.4713 C   0  0  0  0  0  0  0  0  0  0  0  0
   42.7563    1.4171   -0.5778 N   0  0  0  0  0  0  0  0  0  0  0  0
   44.0964    1.2244   -0.4440 C   0  0  0  0  0  0  0  0  0  0  0  0
   44.7223    0.4377    0.5423 C   0  0  0  0  0  0  0  0  0  0  0  0
   44.0644   -0.3014    1.5446 C   0  0  0  0  0  0  0  0  0  0  0  0
   44.7270   -1.0535    2.5685 C   0  0  0  0  0  0  0  0  0  0  0  0
   43.7592   -1.6103    3.3412 C   0  0  0  0  0  0  0  0  0  0  0  0
   42.4944   -1.2143    2.7877 C   0  0  0  0  0  0  0  0  0  0  0  0
   42.7174   -0.4094    1.7025 N   0  0  0  0  0  0  0  0  0  0  0  0
   41.2401   -1.5819    3.2874 C   0  0  0  0  0  0  0  0  0  0  0  0
   41.2129   -2.4905    4.4613 C   0  0  0  0  0  0  0  0  0  0  0  0
   41.7146   -3.7330    4.4058 C   0  0  0  0  0  0  0  0  0  0  0  0
   41.7111   -4.6611    5.5927 C   0  0  0  0  0  0  0  0  0  0  0  0
   40.7776   -4.1997    6.6241 N   0  0  0  0  0  0  0  0  0  0  0  0
   40.4474   -2.8719    6.7197 C   0  0  0  0  0  0  0  0  0  0  0  0
   40.6043   -2.0147    5.6960 C   0  0  0  0  0  0  0  0  0  0  0  0
   40.0037   -1.1687    2.7787 C   0  0  0  0  0  0  0  0  0  0  0  0
   38.7229   -1.5972    3.2672 C   0  0  0  0  0  0  0  0  0  0  0  0
   37.7790   -0.9879    2.5051 C   0  0  0  0  0  0  0  0  0  0  0  0
   38.4728   -0.1858    1.5410 C   0  0  0  0  0  0  0  0  0  0  0  0
   39.8147   -0.3163    1.7242 N   0  0  0  0  0  0  0  0  0  0  0  0
   36.7794    2.3806   -1.4210 H   0  0  0  0  0  0  0  0  0  0  0  0
   38.6910    3.5249   -2.9157 H   0  0  0  0  0  0  0  0  0  0  0  0
   40.3808    2.2388   -4.6405 H   0  0  0  0  0  0  0  0  0  0  0  0
   41.6279    3.7056   -6.4325 H   0  0  0  0  0  0  0  0  0  0  0  0
   39.9089    4.0944   -6.2309 H   0  0  0  0  0  0  0  0  0  0  0  0
   41.3980    6.0718   -6.1537 H   0  0  0  0  0  0  0  0  0  0  0  0
   42.2840    6.7726   -4.1524 H   0  0  0  0  0  0  0  0  0  0  0  0
   42.4496    5.1664   -2.2535 H   0  0  0  0  0  0  0  0  0  0  0  0
   43.9963    3.1935   -3.0883 H   0  0  0  0  0  0  0  0  0  0  0  0
   45.8583    1.9624   -1.6007 H   0  0  0  0  0  0  0  0  0  0  0  0
   45.7967   -1.1323    2.6822 H   0  0  0  0  0  0  0  0  0  0  0  0
   43.8895   -2.2260    4.2166 H   0  0  0  0  0  0  0  0  0  0  0  0
   42.1659   -4.1264    3.5024 H   0  0  0  0  0  0  0  0  0  0  0  0
   42.7304   -4.7459    6.0142 H   0  0  0  0  0  0  0  0  0  0  0  0
   41.4033   -5.6692    5.2838 H   0  0  0  0  0  0  0  0  0  0  0  0
   40.8558   -4.7018    7.4968 H   0  0  0  0  0  0  0  0  0  0  0  0
   39.9724   -2.5881    7.6535 H   0  0  0  0  0  0  0  0  0  0  0  0
   40.2905   -0.9832    5.7712 H   0  0  0  0  0  0  0  0  0  0  0  0
   38.5681   -2.2833    4.0844 H   0  0  0  0  0  0  0  0  0  0  0  0
   36.7064   -1.0720    2.5802 H   0  0  0  0  0  0  0  0  0  0  0  0
  2  3  4  0  0  0  0
  3  4  4  0  0  0  0
  4  5  2  0  0  0  0
  5  6  4  0  0  0  0
  1  7  1  0  0  0  0
  3  7  4  0  0  0  0
  6  7  4  0  0  0  0
  6  8  4  0  0  0  0
  8  9  1  0  0  0  0
  9 10  2  0  0  0  0
 10 11  1  0  0  0  0
 11 12  1  0  0  0  0
 12 13  1  0  0  0  0
  9 14  1  0  0  0  0
 13 14  2  0  0  0  0
  8 15  4  0  0  0  0
 15 16  4  0  0  0  0
 16 17  2  0  0  0  0
  1 18  1  0  0  0  0
 15 18  4  0  0  0  0
 17 19  4  0  0  0  0
 18 19  4  0  0  0  0
 19 20  4  0  0  0  0
 20 21  4  0  0  0  0
 21 22  4  0  0  0  0
 22 23  2  0  0  0  0
 23 24  4  0  0  0  0
  1 25  1  0  0  0  0
 21 25  4  0  0  0  0
 24 25  4  0  0  0  0
 24 26  4  0  0  0  0
 26 27  1  0  0  0  0
 27 28  2  0  0  0  0
 28 29  1  0  0  0  0
 29 30  1  0  0  0  0
 30 31  1  0  0  0  0
 27 32  1  0  0  0  0
 31 32  2  0  0  0  0
 26 33  4  0  0  0  0
 33 34  4  0  0  0  0
 34 35  2  0  0  0  0
  2 36  4  0  0  0  0
 35 36  4  0  0  0  0
  1 37  1  0  0  0  0
 33 37  4  0  0  0  0
 36 37  4  0  0  0  0
  2 38  1  0  0  0  0
  4 39  1  0  0  0  0
  5 40  1  0  0  0  0
 10 41  1  0  0  0  0
 11 42  1  0  0  0  0
 11 43  1  0  0  0  0
 12 44  1  0  0  0  0
 13 45  1  0  0  0  0
 14 46  1  0  0  0  0
 16 47  1  0  0  0  0
 17 48  1  0  0  0  0
 22 49  1  0  0  0  0
 23 50  1  0  0  0  0
 28 51  1  0  0  0  0
 29 52  1  0  0  0  0
 29 53  1  0  0  0  0
 30 54  1  0  0  0  0
 31 55  1  0  0  0  0
 32 56  1  0  0  0  0
 34 57  1  0  0  0  0
 35 58  1  0  0  0  0
 60 61  4  0  0  0  0
 61 62  4  0  0  0  0
 62 63  2  0  0  0  0
 63 64  4  0  0  0  0
 59 65  1  0  0  0  0
 61 65  4  0  0  0  0
 64 65  4  0  0  0  0
 64 66  4  0  0  0  0
 66 67  1  0  0  0  0
 67 68  2  0  0  0  0
 68 69  1  0  0  0  0
 69 70  1  0  0  0  0
 70 71  1  0  0  0  0
 67 72  1  0  0  0  0
 71 72  2  0  0  0  0
 66 73  4  0  0  0  0
 73 74  4  0  0  0  0
 74 75  2  0  0  0  0
 59 76  1  0  0  0  0
 73 76  4  0  0  0  0
 75 77  4  0  0  0  0
 76 77  4  0  0  0  0
 77 78  4  0  0  0  0
 78 79  4  0  0  0  0
 79 80  4  0  0  0  0
 80 81  2  0  0  0  0
 81 82  4  0  0  0  0
 59 83  1  0  0  0  0
 79 83  4  0  0  0  0
 82 83  4  0  0  0  0
 82 84  4  0  0  0  0
 84 85  1  0  0  0  0
 85 86  2  0  0  0  0
 86 87  1  0  0  0  0
 87 88  1  0  0  0  0
 88 89  1  0  0  0  0
 85 90  1  0  0  0  0
 89 90  2  0  0  0  0
 84 91  4  0  0  0  0
 91 92  4  0  0  0  0
 92 93  2  0  0  0  0
 60 94  4  0  0  0  0
 93 94  4  0  0  0  0
 59 95  1  0  0  0  0
 91 95  4  0  0  0  0
 94 95  4  0  0  0  0
 60 96  1  0  0  0  0
 62 97  1  0  0  0  0
 63 98  1  0  0  0  0
 68 99  1  0  0  0  0
 69100  1  0  0  0  0
 69101  1  0  0  0  0
 70102  1  0  0  0  0
 71103  1  0  0  0  0
 72104  1  0  0  0  0
 74105  1  0  0  0  0
 75106  1  0  0  0  0
 80107  1  0  0  0  0
 81108  1  0  0  0  0
 86109  1  0  0  0  0
 87110  1  0  0  0  0
 87111  1  0  0  0  0
 88112  1  0  0  0  0
 89113  1  0  0  0  0
 90114  1  0  0  0  0
 92115  1  0  0  0  0
 93116  1  0  0  0  0
 20118  4  0  0  0  0
117118  3  0  0  0  0
117119  4  0  0  0  0
119120  3  0  0  0  0
121122  3  0  0  0  0
121123  4  0  0  0  0
 78124  4  0  0  0  0
123124  3  0  0  0  0
120126  4  0  0  0  0
126127  4  0  0  0  0
127128  4  0  0  0  0
128129  2  0  0  0  0
129130  4  0  0  0  0
125131  1  0  0  0  0
127131  4  0  0  0  0
130131  4  0  0  0  0
130132  4  0  0  0  0
132133  1  0  0  0  0
133134  2  0  0  0  0
134135  1  0  0  0  0
135136  1  0  0  0  0
136137  1  0  0  0  0
133138  1  0  0  0  0
137138  2  0  0  0  0
132139  4  0  0  0  0
139140  4  0  0  0  0
140141  2  0  0  0  0
125142  1  0  0  0  0
139142  4  0  0  0  0
141143  4  0  0  0  0
142143  4  0  0  0  0
122144  4  0  0  0  0
143144  4  0  0  0  0
144145  4  0  0  0  0
145146  4  0  0  0  0
146147  2  0  0  0  0
147148  4  0  0  0  0
125149  1  0  0  0  0
145149  4  0  0  0  0
148149  4  0  0  0  0
148150  4  0  0  0  0
150151  1  0  0  0  0
151152  2  0  0  0  0
152153  1  0  0  0  0
153154  1  0  0  0  0
154155  1  0  0  0  0
151156  1  0  0  0  0
155156  2  0  0  0  0
150157  4  0  0  0  0
157158  4  0  0  0  0
158159  2  0  0  0  0
126160  4  0  0  0  0
159160  4  0  0  0  0
125161  1  0  0  0  0
157161  4  0  0  0  0
160161  4  0  0  0  0
128162  1  0  0  0  0
129163  1  0  0  0  0
134164  1  0  0  0  0
135165  1  0  0  0  0
135166  1  0  0  0  0
136167  1  0  0  0  0
137168  1  0  0  0  0
138169  1  0  0  0  0
140170  1  0  0  0  0
141171  1  0  0  0  0
146172  1  0  0  0  0
147173  1  0  0  0  0
152174  1  0  0  0  0
153175  1  0  0  0  0
153176  1  0  0  0  0
154177  1  0  0  0  0
155178  1  0  0  0  0
156179  1  0  0  0  0
158180  1  0  0  0  0
159181  1  0  0  0  0
M  END
