140

C 13.020535 -0.043490 0.102543
C 13.749133 1.236578 0.615592
C 13.139008 2.343046 1.161071
C 14.160605 3.289099 1.434218
C 15.360536 2.729349 1.041227
N 15.102268 1.459596 0.588523
C 16.784072 3.427645 1.072248
C 17.912393 2.715066 0.806684
C 19.216190 3.344112 0.754763
C 20.116818 2.418076 0.447916
N 18.107890 1.386946 0.531441
C 19.438041 1.144951 0.304607
C 20.105370 -0.000000 -0.000000
C 19.330783 -1.381243 -0.109238
C 19.878353 -2.637854 0.063908
C 18.853766 -3.587486 -0.172521
C 17.706190 -2.884965 -0.470988
C 16.293455 -3.510195 -0.833534
C 16.262023 -4.896600 -1.353958
C 15.898709 -5.961197 -0.519469
C 15.879261 -7.275122 -1.003357
C 15.447733 -8.401750 -0.115560
C 16.214247 -7.513126 -2.344060
C 16.596881 -6.460692 -3.187898
C 16.927227 -6.712577 -4.627024
C 16.608887 -5.153453 -2.685035
C 15.168227 -2.764393 -0.679765
C 13.843888 -3.264028 -1.004905
C 12.959344 -2.308181 -0.736511
C 13.683913 -1.162977 -0.242093
N 15.005614 -1.482194 -0.233523
N 17.993495 -1.543142 -0.379160
C 16.823203 4.883408 1.351407
C 17.093837 5.347497 2.644440
C 17.122126 6.720224 2.919908
C 17.458722 7.200674 4.298048
C 16.892482 7.629811 1.877629
C 16.603757 7.180904 0.580799
C 16.385588 8.153667 -0.537420
C 16.581275 5.804103 0.325325
H 11.941782 -0.009471 0.008751
H 12.079730 2.462536 1.328119
H 14.032680 4.277810 1.849472
H 15.803922 0.794095 0.272261
H 19.427378 4.385505 0.920789
H 21.169371 2.603542 0.337150
H 20.904522 -2.852080 0.320680
H 18.942298 -4.663002 -0.132540
H 15.625967 -5.739504 0.510990
H 14.394617 -8.640505 -0.297649
H 16.053456 -9.295284 -0.303238
H 15.570211 -8.142217 0.941819
H 16.176656 -8.527313 -2.733473
H 17.672045 -5.995970 -4.987522
H 17.348869 -7.714055 -4.762190
H 16.025166 -6.623614 -5.239653
H 16.882556 -4.312718 -3.320393
H 13.613896 -4.237815 -1.398315
H 11.894633 -2.368011 -0.870878
H 17.306182 -0.796779 -0.446068
H 17.289636 4.615980 3.426695
H 17.069125 6.514039 5.057208
H 17.013927 8.182451 4.489696
H 18.543627 7.278071 4.412829
H 16.938830 8.697185 2.076976
H 15.971342 9.095407 -0.162313
H 17.333477 8.362162 -1.042113
H 15.674370 7.755303 -1.268358
H 16.380398 5.424165 -0.675007
C 30.355945 -0.014270 0.110466
C 29.627346 -1.378169 -0.093430
C 30.237471 -2.608631 -0.181639
C 29.215875 -3.563077 -0.423837
C 28.015944 -2.881474 -0.480220
N 28.274212 -1.556962 -0.229455
C 26.592408 -3.499784 -0.806213
C 25.464087 -2.750661 -0.675418
C 24.160290 -3.267306 -1.038008
C 23.259662 -2.313112 -0.835006
N 25.268590 -1.465427 -0.242016
C 23.938439 -1.141990 -0.315526
C 23.271110 0.000000 0.000000
C 24.045697 1.247217 0.603502
C 23.498126 2.244220 1.387745
C 24.522714 3.183205 1.663438
C 25.670290 2.727699 1.050957
C 27.083025 3.450432 1.053929
C 27.114457 4.909827 1.305180
C 27.477770 5.407022 2.563168
C 27.497219 6.785408 2.809335
C 27.928747 7.309207 4.144666
C 27.162233 7.668105 1.772524
C 26.779598 7.186129 0.512612
C 26.449253 8.130528 -0.602126
C 26.767593 5.803928 0.286198
C 28.208253 2.729114 0.809869
C 29.532592 3.324560 0.781675
C 30.417136 2.364063 0.530427
C 29.692567 1.125966 0.378583
N 28.370866 1.397125 0.547241
N 25.382985 1.523297 0.452344
C 26.553277 -4.897154 -1.300717
C 26.282643 -5.950883 -0.419260
C 26.254354 -7.274726 -0.875001
C 25.917757 -8.385571 0.071639
C 26.483998 -7.533175 -2.234008
C 26.772723 -6.490629 -3.126411
C 26.990892 -6.765235 -4.582871
C 26.795205 -5.173370 -2.651357
H 31.434698 0.003752 0.012337
H 31.296749 -2.796142 -0.097838
H 29.343799 -4.626126 -0.564943
H 27.572558 -0.822856 -0.166196
H 23.949102 -4.249916 -1.420816
H 22.207109 -2.417215 -1.024293
H 22.471958 2.299384 1.717565
H 24.434182 4.091192 2.241272
H 27.750513 4.695131 3.340475
H 28.981862 7.607244 4.108135
H 27.323024 8.175150 4.434093
H 27.806269 6.551059 4.926088
H 27.199824 8.740086 1.948803
H 25.704435 7.694202 -1.275258
H 26.027611 9.063101 -0.212850
H 27.351314 8.363239 -1.175777
H 26.493924 5.399332 -0.686847
H 29.762584 4.363695 0.934094
H 31.481847 2.483577 0.444692
H 26.070298 0.912976 0.017554
H 26.086844 -5.714753 0.625385
H 26.307355 -8.176507 1.073679
H 26.362553 -9.329674 -0.258940
H 24.832853 -8.510350 0.131598
H 26.437650 -8.555039 -2.601185
H 27.405137 -7.767466 -4.734897
H 26.043003 -6.690208 -5.123755
H 27.702109 -6.052186 -5.012434
H 26.996082 -4.340130 -3.322720
C 21.077281 -0.000000 -0.000000
C 22.299199 -0.000000 -0.000000
