 xtb: 6.5.1 (b24c23e)
          07292219243D

404445  0     0  0            999 V2000
   68.8984   -0.3264    0.1313 C   0  0  0  0  0  0  0  0  0  0  0  0
   69.5148   -1.0776   -0.8611 C   0  0  0  0  0  0  0  0  0  0  0  0
   68.8704   -1.8573   -1.8622 C   0  0  0  0  0  0  0  0  0  0  0  0
   69.8384   -2.4318   -2.6367 C   0  0  0  0  0  0  0  0  0  0  0  0
   71.1063   -2.0347   -2.1236 C   0  0  0  0  0  0  0  0  0  0  0  0
   70.8596   -1.2099   -1.0628 N   0  0  0  0  0  0  0  0  0  0  0  0
   72.3747   -2.3946   -2.5929 C   0  0  0  0  0  0  0  0  0  0  0  0
   72.4227   -3.3160   -3.7553 C   0  0  0  0  0  0  0  0  0  0  0  0
   73.0401   -2.9019   -4.9390 C   0  0  0  0  0  0  0  0  0  0  0  0
   73.0785   -3.7563   -6.0335 C   0  0  0  0  0  0  0  0  0  0  0  0
   73.6576   -3.4165   -7.2278 O   0  0  0  0  0  0  0  0  0  0  0  0
   72.5106   -5.0253   -5.9531 C   0  0  0  0  0  0  0  0  0  0  0  0
   72.5369   -5.8882   -7.0170 O   0  0  0  0  0  0  0  0  0  0  0  0
   71.8980   -5.4418   -4.7701 C   0  0  0  0  0  0  0  0  0  0  0  0
   71.3522   -6.6804   -4.7005 O   0  0  0  0  0  0  0  0  0  0  0  0
   71.8513   -4.5862   -3.6755 C   0  0  0  0  0  0  0  0  0  0  0  0
   73.5833   -1.9515   -2.0493 C   0  0  0  0  0  0  0  0  0  0  0  0
   74.8868   -2.4176   -2.4870 C   0  0  0  0  0  0  0  0  0  0  0  0
   75.7982   -1.7709   -1.7310 C   0  0  0  0  0  0  0  0  0  0  0  0
   73.7252   -1.0529   -1.0364 N   0  0  0  0  0  0  0  0  0  0  0  0
   75.0506   -0.9131   -0.8322 C   0  0  0  0  0  0  0  0  0  0  0  0
   75.6762   -0.0462    0.0870 C   0  0  0  0  0  0  0  0  0  0  0  0
   75.0292    0.8045    1.0030 C   0  0  0  0  0  0  0  0  0  0  0  0
   75.6596    1.7241    1.8826 C   0  0  0  0  0  0  0  0  0  0  0  0
   74.6847    2.3474    2.6111 C   0  0  0  0  0  0  0  0  0  0  0  0
   73.4279    1.8162    2.2081 C   0  0  0  0  0  0  0  0  0  0  0  0
   73.6879    0.8972    1.2253 N   0  0  0  0  0  0  0  0  0  0  0  0
   72.1620    2.1563    2.6963 C   0  0  0  0  0  0  0  0  0  0  0  0
   72.1076    3.1628    3.7846 C   0  0  0  0  0  0  0  0  0  0  0  0
   72.7566    2.9295    4.9975 C   0  0  0  0  0  0  0  0  0  0  0  0
   72.6967    3.8758    6.0140 C   0  0  0  0  0  0  0  0  0  0  0  0
   73.3168    3.6550    7.1987 O   0  0  0  0  0  0  0  0  0  0  0  0
   71.9925    5.0649    5.8172 C   0  0  0  0  0  0  0  0  0  0  0  0
   71.9537    5.9804    6.8357 O   0  0  0  0  0  0  0  0  0  0  0  0
   71.3478    5.2993    4.6053 C   0  0  0  0  0  0  0  0  0  0  0  0
   70.6807    6.4901    4.4842 O   0  0  0  0  0  0  0  0  0  0  0  0
   71.3996    4.3525    3.5903 C   0  0  0  0  0  0  0  0  0  0  0  0
   70.9563    1.6181    2.2317 C   0  0  0  0  0  0  0  0  0  0  0  0
   69.6531    1.9131    2.8071 C   0  0  0  0  0  0  0  0  0  0  0  0
   68.7508    1.2137    2.0895 C   0  0  0  0  0  0  0  0  0  0  0  0
   69.5017    0.4869    1.0815 C   0  0  0  0  0  0  0  0  0  0  0  0
   70.8271    0.7444    1.2057 N   0  0  0  0  0  0  0  0  0  0  0  0
   67.8146   -0.3805    0.1539 H   0  0  0  0  0  0  0  0  0  0  0  0
   67.8016   -1.9509   -1.9704 H   0  0  0  0  0  0  0  0  0  0  0  0
   69.6924   -3.0711   -3.4921 H   0  0  0  0  0  0  0  0  0  0  0  0
   71.5807   -0.7613   -0.5078 H   0  0  0  0  0  0  0  0  0  0  0  0
   73.4718   -1.9106   -5.0128 H   0  0  0  0  0  0  0  0  0  0  0  0
   74.0282   -2.5250   -7.1887 H   0  0  0  0  0  0  0  0  0  0  0  0
   72.9979   -5.4471   -7.7483 H   0  0  0  0  0  0  0  0  0  0  0  0
   71.4888   -7.1225   -5.5547 H   0  0  0  0  0  0  0  0  0  0  0  0
   71.3892   -4.9273   -2.7581 H   0  0  0  0  0  0  0  0  0  0  0  0
   75.0592   -3.1545   -3.2548 H   0  0  0  0  0  0  0  0  0  0  0  0
   76.8730   -1.8532   -1.7561 H   0  0  0  0  0  0  0  0  0  0  0  0
   76.7239    1.8866    1.9378 H   0  0  0  0  0  0  0  0  0  0  0  0
   74.8208    3.1129    3.3574 H   0  0  0  0  0  0  0  0  0  0  0  0
   72.9737    0.3674    0.7366 H   0  0  0  0  0  0  0  0  0  0  0  0
   73.2900    2.0035    5.1691 H   0  0  0  0  0  0  0  0  0  0  0  0
   73.1563    4.4209    7.7745 H   0  0  0  0  0  0  0  0  0  0  0  0
   71.4249    6.7374    6.5371 H   0  0  0  0  0  0  0  0  0  0  0  0
   70.2598    6.5614    3.6174 H   0  0  0  0  0  0  0  0  0  0  0  0
   70.9076    4.5480    2.6448 H   0  0  0  0  0  0  0  0  0  0  0  0
   69.4784    2.5552    3.6554 H   0  0  0  0  0  0  0  0  0  0  0  0
   67.6799    1.1681    2.2113 H   0  0  0  0  0  0  0  0  0  0  0  0
  155.7468   -0.1922    0.3276 C   0  0  0  0  0  0  0  0  0  0  0  0
  155.1321    0.5976    1.2906 C   0  0  0  0  0  0  0  0  0  0  0  0
  155.7778    1.3636    2.3015 C   0  0  0  0  0  0  0  0  0  0  0  0
  154.8118    1.9939    3.0340 C   0  0  0  0  0  0  0  0  0  0  0  0
  153.5435    1.6218    2.5033 C   0  0  0  0  0  0  0  0  0  0  0  0
  153.7885    0.7891    1.4483 N   0  0  0  0  0  0  0  0  0  0  0  0
  152.2772    2.0226    2.9441 C   0  0  0  0  0  0  0  0  0  0  0  0
  152.2331    2.9234    4.1229 C   0  0  0  0  0  0  0  0  0  0  0  0
  151.6585    4.1919    4.0037 C   0  0  0  0  0  0  0  0  0  0  0  0
  151.6218    5.0394    5.1038 C   0  0  0  0  0  0  0  0  0  0  0  0
  151.0830    6.2985    5.0604 O   0  0  0  0  0  0  0  0  0  0  0  0
  152.1487    4.6270    6.3251 C   0  0  0  0  0  0  0  0  0  0  0  0
  152.1220    5.4421    7.4262 O   0  0  0  0  0  0  0  0  0  0  0  0
  152.7193    3.3590    6.4463 C   0  0  0  0  0  0  0  0  0  0  0  0
  153.2257    2.9654    7.6404 O   0  0  0  0  0  0  0  0  0  0  0  0
  152.7645    2.5116    5.3453 C   0  0  0  0  0  0  0  0  0  0  0  0
  151.0678    1.6349    2.3614 C   0  0  0  0  0  0  0  0  0  0  0  0
  149.7633    1.9895    2.8912 C   0  0  0  0  0  0  0  0  0  0  0  0
  148.8513    1.4264    2.0718 C   0  0  0  0  0  0  0  0  0  0  0  0
  150.9253    0.8607    1.2507 N   0  0  0  0  0  0  0  0  0  0  0  0
  149.5993    0.7260    1.0459 C   0  0  0  0  0  0  0  0  0  0  0  0
  148.9740    0.0260   -0.0058 C   0  0  0  0  0  0  0  0  0  0  0  0
  149.6200   -0.6926   -1.0292 C   0  0  0  0  0  0  0  0  0  0  0  0
  148.9896   -1.3363   -2.1270 C   0  0  0  0  0  0  0  0  0  0  0  0
  149.9634   -1.9117   -2.8949 C   0  0  0  0  0  0  0  0  0  0  0  0
  151.2195   -1.6497   -2.2803 C   0  0  0  0  0  0  0  0  0  0  0  0
  150.9603   -0.9002   -1.1626 N   0  0  0  0  0  0  0  0  0  0  0  0
  152.4843   -2.0544   -2.7195 C   0  0  0  0  0  0  0  0  0  0  0  0
  152.5364   -2.8757   -3.9537 C   0  0  0  0  0  0  0  0  0  0  0  0
  151.8797   -4.1052   -4.0141 C   0  0  0  0  0  0  0  0  0  0  0  0
  151.9323   -4.8680   -5.1750 C   0  0  0  0  0  0  0  0  0  0  0  0
  151.3035   -6.0666   -5.2412 O   0  0  0  0  0  0  0  0  0  0  0  0
  152.6373   -4.3986   -6.2846 C   0  0  0  0  0  0  0  0  0  0  0  0
  152.6676   -5.1696   -7.4166 O   0  0  0  0  0  0  0  0  0  0  0  0
  153.2910   -3.1704   -6.2251 C   0  0  0  0  0  0  0  0  0  0  0  0
  153.9586   -2.7739   -7.3541 O   0  0  0  0  0  0  0  0  0  0  0  0
  153.2464   -2.4093   -5.0639 C   0  0  0  0  0  0  0  0  0  0  0  0
  153.6896   -1.7386   -2.0819 C   0  0  0  0  0  0  0  0  0  0  0  0
  154.9907   -2.2388   -2.4982 C   0  0  0  0  0  0  0  0  0  0  0  0
  155.8925   -1.7195   -1.6408 C   0  0  0  0  0  0  0  0  0  0  0  0
  155.1435   -0.9080   -0.6981 C   0  0  0  0  0  0  0  0  0  0  0  0
  153.8196   -0.9521   -0.9877 N   0  0  0  0  0  0  0  0  0  0  0  0
  156.8293   -0.2447    0.3870 H   0  0  0  0  0  0  0  0  0  0  0  0
  156.8462    1.4226    2.4350 H   0  0  0  0  0  0  0  0  0  0  0  0
  154.9593    2.6630    3.8661 H   0  0  0  0  0  0  0  0  0  0  0  0
  153.0671    0.3756    0.8670 H   0  0  0  0  0  0  0  0  0  0  0  0
  151.2586    4.5242    3.0529 H   0  0  0  0  0  0  0  0  0  0  0  0
  150.7374    6.4940    4.1796 H   0  0  0  0  0  0  0  0  0  0  0  0
  151.6916    6.2738    7.1717 H   0  0  0  0  0  0  0  0  0  0  0  0
  153.0960    3.6859    8.2790 H   0  0  0  0  0  0  0  0  0  0  0  0
  153.1937    1.5241    5.4561 H   0  0  0  0  0  0  0  0  0  0  0  0
  149.5900    2.5734    3.7808 H   0  0  0  0  0  0  0  0  0  0  0  0
  147.7756    1.4608    2.1376 H   0  0  0  0  0  0  0  0  0  0  0  0
  147.9261   -1.3439   -2.3035 H   0  0  0  0  0  0  0  0  0  0  0  0
  149.8270   -2.4632   -3.8106 H   0  0  0  0  0  0  0  0  0  0  0  0
  151.6744   -0.5504   -0.5324 H   0  0  0  0  0  0  0  0  0  0  0  0
  151.3448   -4.4883   -3.1546 H   0  0  0  0  0  0  0  0  0  0  0  0
  151.4570   -6.4438   -6.1232 H   0  0  0  0  0  0  0  0  0  0  0  0
  153.1961   -4.7019   -8.0828 H   0  0  0  0  0  0  0  0  0  0  0  0
  154.3833   -1.9167   -7.2187 H   0  0  0  0  0  0  0  0  0  0  0  0
  153.7448   -1.4476   -5.0299 H   0  0  0  0  0  0  0  0  0  0  0  0
  155.1640   -2.9095   -3.3245 H   0  0  0  0  0  0  0  0  0  0  0  0
  156.9620   -1.8595   -1.6186 H   0  0  0  0  0  0  0  0  0  0  0  0
   80.8790    0.0268    0.0716 C   0  0  0  0  0  0  0  0  0  0  0  0
   79.6507    0.0203    0.0831 C   0  0  0  0  0  0  0  0  0  0  0  0
   78.3060    0.0057    0.0911 C   0  0  0  0  0  0  0  0  0  0  0  0
   77.0822   -0.0125    0.0905 C   0  0  0  0  0  0  0  0  0  0  0  0
   82.2236    0.0275    0.0596 C   0  0  0  0  0  0  0  0  0  0  0  0
   83.4476    0.0286    0.0463 C   0  0  0  0  0  0  0  0  0  0  0  0
   96.9093    0.0064    0.0472 C   0  0  0  0  0  0  0  0  0  0  0  0
   95.6802    0.0023    0.0522 C   0  0  0  0  0  0  0  0  0  0  0  0
   94.3369    0.0031    0.0532 C   0  0  0  0  0  0  0  0  0  0  0  0
   93.1122    0.0025    0.0519 C   0  0  0  0  0  0  0  0  0  0  0  0
   98.2525    0.0044    0.0377 C   0  0  0  0  0  0  0  0  0  0  0  0
   99.4773    0.0068    0.0306 C   0  0  0  0  0  0  0  0  0  0  0  0
  112.9396    0.0054    0.0587 C   0  0  0  0  0  0  0  0  0  0  0  0
  111.7105    0.0020    0.0609 C   0  0  0  0  0  0  0  0  0  0  0  0
  110.3672    0.0013    0.0590 C   0  0  0  0  0  0  0  0  0  0  0  0
  109.1425   -0.0011    0.0531 C   0  0  0  0  0  0  0  0  0  0  0  0
  114.2829    0.0045    0.0538 C   0  0  0  0  0  0  0  0  0  0  0  0
  115.5077    0.0073    0.0469 C   0  0  0  0  0  0  0  0  0  0  0  0
  128.9710    0.0060    0.0598 C   0  0  0  0  0  0  0  0  0  0  0  0
  127.7419    0.0025    0.0633 C   0  0  0  0  0  0  0  0  0  0  0  0
  126.3986    0.0011    0.0610 C   0  0  0  0  0  0  0  0  0  0  0  0
  125.1739   -0.0029    0.0550 C   0  0  0  0  0  0  0  0  0  0  0  0
  130.3143    0.0111    0.0489 C   0  0  0  0  0  0  0  0  0  0  0  0
  131.5389    0.0202    0.0328 C   0  0  0  0  0  0  0  0  0  0  0  0
  145.0000    0.0528   -0.1103 C   0  0  0  0  0  0  0  0  0  0  0  0
  143.7718    0.0539   -0.1247 C   0  0  0  0  0  0  0  0  0  0  0  0
  142.4270    0.0553   -0.1315 C   0  0  0  0  0  0  0  0  0  0  0  0
  141.2030    0.0495   -0.1312 C   0  0  0  0  0  0  0  0  0  0  0  0
  146.3447    0.0500   -0.0844 C   0  0  0  0  0  0  0  0  0  0  0  0
  147.5681    0.0435   -0.0514 C   0  0  0  0  0  0  0  0  0  0  0  0
   84.8530    0.0244    0.0345 C   0  0  0  0  0  0  0  0  0  0  0  0
   85.4746   -1.2392    0.0116 C   0  0  0  0  0  0  0  0  0  0  0  0
   84.8198   -2.4974    0.0323 C   0  0  0  0  0  0  0  0  0  0  0  0
   85.7794   -3.4719   -0.0129 C   0  0  0  0  0  0  0  0  0  0  0  0
   87.0489   -2.8356   -0.0722 C   0  0  0  0  0  0  0  0  0  0  0  0
   86.8139   -1.4866   -0.0450 N   0  0  0  0  0  0  0  0  0  0  0  0
   88.3056   -3.4523   -0.1298 C   0  0  0  0  0  0  0  0  0  0  0  0
   88.3126   -4.9347   -0.1951 C   0  0  0  0  0  0  0  0  0  0  0  0
   88.9400   -5.6796    0.8043 C   0  0  0  0  0  0  0  0  0  0  0  0
   88.9532   -7.0710    0.7601 C   0  0  0  0  0  0  0  0  0  0  0  0
   89.5531   -7.8064    1.7317 O   0  0  0  0  0  0  0  0  0  0  0  0
   88.3369   -7.7371   -0.3044 C   0  0  0  0  0  0  0  0  0  0  0  0
   88.3372   -9.0930   -0.3788 O   0  0  0  0  0  0  0  0  0  0  0  0
   87.7137   -6.9842   -1.3032 C   0  0  0  0  0  0  0  0  0  0  0  0
   87.1334   -7.6978   -2.3200 O   0  0  0  0  0  0  0  0  0  0  0  0
   87.6911   -5.5973   -1.2555 C   0  0  0  0  0  0  0  0  0  0  0  0
   89.5331   -2.7872   -0.1290 C   0  0  0  0  0  0  0  0  0  0  0  0
   90.8163   -3.4546   -0.2562 C   0  0  0  0  0  0  0  0  0  0  0  0
   91.7572   -2.4890   -0.2019 C   0  0  0  0  0  0  0  0  0  0  0  0
   89.7156   -1.4413   -0.0247 N   0  0  0  0  0  0  0  0  0  0  0  0
   91.0472   -1.2342   -0.0544 C   0  0  0  0  0  0  0  0  0  0  0  0
   91.7082    0.0074    0.0453 C   0  0  0  0  0  0  0  0  0  0  0  0
   91.0862    1.2682    0.1323 C   0  0  0  0  0  0  0  0  0  0  0  0
   91.7404    2.5212    0.2555 C   0  0  0  0  0  0  0  0  0  0  0  0
   90.7808    3.4958    0.2838 C   0  0  0  0  0  0  0  0  0  0  0  0
   89.5117    2.8653    0.1707 C   0  0  0  0  0  0  0  0  0  0  0  0
   89.7472    1.5182    0.0936 N   0  0  0  0  0  0  0  0  0  0  0  0
   88.2560    3.4842    0.1570 C   0  0  0  0  0  0  0  0  0  0  0  0
   88.2509    4.9684    0.2053 C   0  0  0  0  0  0  0  0  0  0  0  0
   88.8579    5.7033   -0.8134 C   0  0  0  0  0  0  0  0  0  0  0  0
   88.8494    7.0927   -0.7712 C   0  0  0  0  0  0  0  0  0  0  0  0
   89.4284    7.8157   -1.7604 O   0  0  0  0  0  0  0  0  0  0  0  0
   88.2409    7.7520    0.2981 C   0  0  0  0  0  0  0  0  0  0  0  0
   88.2522    9.1217    0.3154 O   0  0  0  0  0  0  0  0  0  0  0  0
   87.6397    7.0179    1.3175 C   0  0  0  0  0  0  0  0  0  0  0  0
   87.0683    7.7346    2.3356 O   0  0  0  0  0  0  0  0  0  0  0  0
   87.6386    5.6292    1.2736 C   0  0  0  0  0  0  0  0  0  0  0  0
   87.0280    2.8221    0.1006 C   0  0  0  0  0  0  0  0  0  0  0  0
   85.7453    3.4987    0.0304 C   0  0  0  0  0  0  0  0  0  0  0  0
   84.8038    2.5326    0.0033 C   0  0  0  0  0  0  0  0  0  0  0  0
   85.5130    1.2693    0.0438 C   0  0  0  0  0  0  0  0  0  0  0  0
   86.8454    1.4730    0.0918 N   0  0  0  0  0  0  0  0  0  0  0  0
   83.7513   -2.6315    0.0823 H   0  0  0  0  0  0  0  0  0  0  0  0
   85.6227   -4.5381    0.0049 H   0  0  0  0  0  0  0  0  0  0  0  0
   87.5389   -0.7770   -0.0548 H   0  0  0  0  0  0  0  0  0  0  0  0
   89.4087   -5.1740    1.6410 H   0  0  0  0  0  0  0  0  0  0  0  0
   89.9468   -7.2383    2.4068 H   0  0  0  0  0  0  0  0  0  0  0  0
   87.8641   -9.3531   -1.1856 H   0  0  0  0  0  0  0  0  0  0  0  0
   86.7338   -7.1072   -2.9716 H   0  0  0  0  0  0  0  0  0  0  0  0
   87.2151   -5.0367   -2.0515 H   0  0  0  0  0  0  0  0  0  0  0  0
   90.9572   -4.5154   -0.3854 H   0  0  0  0  0  0  0  0  0  0  0  0
   92.8290   -2.5890   -0.2640 H   0  0  0  0  0  0  0  0  0  0  0  0
   92.8088    2.6509    0.3182 H   0  0  0  0  0  0  0  0  0  0  0  0
   90.9360    4.5577    0.3823 H   0  0  0  0  0  0  0  0  0  0  0  0
   89.0230    0.8116    0.0206 H   0  0  0  0  0  0  0  0  0  0  0  0
   89.3196    5.2029   -1.6548 H   0  0  0  0  0  0  0  0  0  0  0  0
   89.3160    8.7586   -1.5555 H   0  0  0  0  0  0  0  0  0  0  0  0
   87.7894    9.4146    1.1165 H   0  0  0  0  0  0  0  0  0  0  0  0
   86.6721    7.1456    2.9911 H   0  0  0  0  0  0  0  0  0  0  0  0
   87.1803    5.0642    2.0767 H   0  0  0  0  0  0  0  0  0  0  0  0
   85.6055    4.5669   -0.0075 H   0  0  0  0  0  0  0  0  0  0  0  0
   83.7320    2.6379   -0.0505 H   0  0  0  0  0  0  0  0  0  0  0  0
  100.8811    0.0053    0.0228 C   0  0  0  0  0  0  0  0  0  0  0  0
  101.5060   -1.2575    0.0207 C   0  0  0  0  0  0  0  0  0  0  0  0
  100.8545   -2.5167    0.0578 C   0  0  0  0  0  0  0  0  0  0  0  0
  101.8166   -3.4893    0.0196 C   0  0  0  0  0  0  0  0  0  0  0  0
  103.0840   -2.8504   -0.0514 C   0  0  0  0  0  0  0  0  0  0  0  0
  102.8455   -1.5017   -0.0365 N   0  0  0  0  0  0  0  0  0  0  0  0
  104.3417   -3.4648   -0.1108 C   0  0  0  0  0  0  0  0  0  0  0  0
  104.3500   -4.9474   -0.1684 C   0  0  0  0  0  0  0  0  0  0  0  0
  104.9798   -5.6871    0.8332 C   0  0  0  0  0  0  0  0  0  0  0  0
  104.9915   -7.0788    0.7967 C   0  0  0  0  0  0  0  0  0  0  0  0
  105.5927   -7.8094    1.7712 O   0  0  0  0  0  0  0  0  0  0  0  0
  104.3720   -7.7502   -0.2625 C   0  0  0  0  0  0  0  0  0  0  0  0
  104.3704   -9.1065   -0.3291 O   0  0  0  0  0  0  0  0  0  0  0  0
  103.7471   -7.0024   -1.2642 C   0  0  0  0  0  0  0  0  0  0  0  0
  103.1639   -7.7212   -2.2755 O   0  0  0  0  0  0  0  0  0  0  0  0
  103.7254   -5.6153   -1.2238 C   0  0  0  0  0  0  0  0  0  0  0  0
  105.5680   -2.7977   -0.1190 C   0  0  0  0  0  0  0  0  0  0  0  0
  106.8518   -3.4635   -0.2473 C   0  0  0  0  0  0  0  0  0  0  0  0
  107.7914   -2.4962   -0.1988 C   0  0  0  0  0  0  0  0  0  0  0  0
  105.7486   -1.4511   -0.0206 N   0  0  0  0  0  0  0  0  0  0  0  0
  107.0799   -1.2421   -0.0539 C   0  0  0  0  0  0  0  0  0  0  0  0
  107.7387    0.0009    0.0432 C   0  0  0  0  0  0  0  0  0  0  0  0
  107.1138    1.2608    0.1258 C   0  0  0  0  0  0  0  0  0  0  0  0
  107.7648    2.5151    0.2500 C   0  0  0  0  0  0  0  0  0  0  0  0
  106.8029    3.4879    0.2716 C   0  0  0  0  0  0  0  0  0  0  0  0
  105.5360    2.8548    0.1526 C   0  0  0  0  0  0  0  0  0  0  0  0
  105.7745    1.5080    0.0800 N   0  0  0  0  0  0  0  0  0  0  0  0
  104.2788    3.4713    0.1275 C   0  0  0  0  0  0  0  0  0  0  0  0
  104.2705    4.9555    0.1712 C   0  0  0  0  0  0  0  0  0  0  0  0
  104.8890    5.6895   -0.8413 C   0  0  0  0  0  0  0  0  0  0  0  0
  104.8778    7.0789   -0.8019 C   0  0  0  0  0  0  0  0  0  0  0  0
  105.4683    7.8008   -1.7850 O   0  0  0  0  0  0  0  0  0  0  0  0
  104.2548    7.7393    0.2583 C   0  0  0  0  0  0  0  0  0  0  0  0
  104.2639    9.1091    0.2732 O   0  0  0  0  0  0  0  0  0  0  0  0
  103.6417    7.0062    1.2713 C   0  0  0  0  0  0  0  0  0  0  0  0
  103.0562    7.7239    2.2808 O   0  0  0  0  0  0  0  0  0  0  0  0
  103.6436    5.6175    1.2303 C   0  0  0  0  0  0  0  0  0  0  0  0
  103.0526    2.8071    0.0652 C   0  0  0  0  0  0  0  0  0  0  0  0
  101.7696    3.4811   -0.0226 C   0  0  0  0  0  0  0  0  0  0  0  0
  100.8296    2.5134   -0.0467 C   0  0  0  0  0  0  0  0  0  0  0  0
  101.5401    1.2518    0.0142 C   0  0  0  0  0  0  0  0  0  0  0  0
  102.8713    1.4572    0.0689 N   0  0  0  0  0  0  0  0  0  0  0  0
   99.7865   -2.6530    0.1127 H   0  0  0  0  0  0  0  0  0  0  0  0
  101.6627   -4.5556    0.0492 H   0  0  0  0  0  0  0  0  0  0  0  0
  103.5684   -0.7902   -0.0576 H   0  0  0  0  0  0  0  0  0  0  0  0
  105.4511   -5.1772    1.6658 H   0  0  0  0  0  0  0  0  0  0  0  0
  105.9882   -7.2379    2.4423 H   0  0  0  0  0  0  0  0  0  0  0  0
  103.8949   -9.3708   -1.1332 H   0  0  0  0  0  0  0  0  0  0  0  0
  102.7627   -7.1341   -2.9294 H   0  0  0  0  0  0  0  0  0  0  0  0
  103.2473   -5.0586   -2.0212 H   0  0  0  0  0  0  0  0  0  0  0  0
  106.9938   -4.5246   -0.3728 H   0  0  0  0  0  0  0  0  0  0  0  0
  108.8632   -2.5947   -0.2634 H   0  0  0  0  0  0  0  0  0  0  0  0
  108.8325    2.6472    0.3179 H   0  0  0  0  0  0  0  0  0  0  0  0
  106.9558    4.5502    0.3693 H   0  0  0  0  0  0  0  0  0  0  0  0
  105.0521    0.7997    0.0050 H   0  0  0  0  0  0  0  0  0  0  0  0
  105.3617    5.1883   -1.6761 H   0  0  0  0  0  0  0  0  0  0  0  0
  105.3512    8.7441   -1.5839 H   0  0  0  0  0  0  0  0  0  0  0  0
  103.7895    9.4030    1.0672 H   0  0  0  0  0  0  0  0  0  0  0  0
  102.6509    7.1354    2.9312 H   0  0  0  0  0  0  0  0  0  0  0  0
  103.1762    5.0533    2.0287 H   0  0  0  0  0  0  0  0  0  0  0  0
  101.6288    4.5486   -0.0740 H   0  0  0  0  0  0  0  0  0  0  0  0
   99.7581    2.6167   -0.1101 H   0  0  0  0  0  0  0  0  0  0  0  0
  116.9114    0.0056    0.0371 C   0  0  0  0  0  0  0  0  0  0  0  0
  117.5362   -1.2572    0.0342 C   0  0  0  0  0  0  0  0  0  0  0  0
  116.8847   -2.5165    0.0712 C   0  0  0  0  0  0  0  0  0  0  0  0
  117.8467   -3.4890    0.0292 C   0  0  0  0  0  0  0  0  0  0  0  0
  119.1140   -2.8499   -0.0433 C   0  0  0  0  0  0  0  0  0  0  0  0
  118.8756   -1.5013   -0.0259 N   0  0  0  0  0  0  0  0  0  0  0  0
  120.3712   -3.4646   -0.1057 C   0  0  0  0  0  0  0  0  0  0  0  0
  120.3770   -4.9473   -0.1660 C   0  0  0  0  0  0  0  0  0  0  0  0
  120.9987   -5.6907    0.8378 C   0  0  0  0  0  0  0  0  0  0  0  0
  121.0035   -7.0824    0.8002 C   0  0  0  0  0  0  0  0  0  0  0  0
  121.5955   -7.8168    1.7774 O   0  0  0  0  0  0  0  0  0  0  0  0
  120.3861   -7.7499   -0.2628 C   0  0  0  0  0  0  0  0  0  0  0  0
  120.3774   -9.1061   -0.3300 O   0  0  0  0  0  0  0  0  0  0  0  0
  119.7706   -6.9982   -1.2673 C   0  0  0  0  0  0  0  0  0  0  0  0
  119.1892   -7.7132   -2.2824 O   0  0  0  0  0  0  0  0  0  0  0  0
  119.7549   -5.6111   -1.2254 C   0  0  0  0  0  0  0  0  0  0  0  0
  121.5980   -2.7984   -0.1141 C   0  0  0  0  0  0  0  0  0  0  0  0
  122.8813   -3.4652   -0.2418 C   0  0  0  0  0  0  0  0  0  0  0  0
  123.8215   -2.4984   -0.1938 C   0  0  0  0  0  0  0  0  0  0  0  0
  121.7793   -1.4519   -0.0161 N   0  0  0  0  0  0  0  0  0  0  0  0
  123.1108   -1.2437   -0.0498 C   0  0  0  0  0  0  0  0  0  0  0  0
  123.7700   -0.0008    0.0462 C   0  0  0  0  0  0  0  0  0  0  0  0
  123.1454    1.2593    0.1281 C   0  0  0  0  0  0  0  0  0  0  0  0
  123.7968    2.5135    0.2510 C   0  0  0  0  0  0  0  0  0  0  0  0
  122.8352    3.4866    0.2733 C   0  0  0  0  0  0  0  0  0  0  0  0
  121.5679    2.8538    0.1558 C   0  0  0  0  0  0  0  0  0  0  0  0
  121.8060    1.5070    0.0833 N   0  0  0  0  0  0  0  0  0  0  0  0
  120.3107    3.4706    0.1320 C   0  0  0  0  0  0  0  0  0  0  0  0
  120.3011    4.9546    0.1756 C   0  0  0  0  0  0  0  0  0  0  0  0
  120.9213    5.6901   -0.8348 C   0  0  0  0  0  0  0  0  0  0  0  0
  120.9052    7.0795   -0.7964 C   0  0  0  0  0  0  0  0  0  0  0  0
  121.4969    7.8029   -1.7776 O   0  0  0  0  0  0  0  0  0  0  0  0
  120.2752    7.7386    0.2606 C   0  0  0  0  0  0  0  0  0  0  0  0
  120.2783    9.1084    0.2738 O   0  0  0  0  0  0  0  0  0  0  0  0
  119.6609    7.0041    1.2719 C   0  0  0  0  0  0  0  0  0  0  0  0
  119.0681    7.7204    2.2780 O   0  0  0  0  0  0  0  0  0  0  0  0
  119.6683    5.6155    1.2320 C   0  0  0  0  0  0  0  0  0  0  0  0
  119.0843    2.8065    0.0717 C   0  0  0  0  0  0  0  0  0  0  0  0
  117.8014    3.4808   -0.0164 C   0  0  0  0  0  0  0  0  0  0  0  0
  116.8609    2.5134   -0.0367 C   0  0  0  0  0  0  0  0  0  0  0  0
  117.5710    1.2518    0.0260 C   0  0  0  0  0  0  0  0  0  0  0  0
  118.9023    1.4567    0.0783 N   0  0  0  0  0  0  0  0  0  0  0  0
  115.8169   -2.6528    0.1283 H   0  0  0  0  0  0  0  0  0  0  0  0
  117.6930   -4.5554    0.0571 H   0  0  0  0  0  0  0  0  0  0  0  0
  119.5982   -0.7895   -0.0479 H   0  0  0  0  0  0  0  0  0  0  0  0
  121.4682   -5.1837    1.6733 H   0  0  0  0  0  0  0  0  0  0  0  0
  121.9895   -7.2479    2.4517 H   0  0  0  0  0  0  0  0  0  0  0  0
  119.9043   -9.3673   -1.1365 H   0  0  0  0  0  0  0  0  0  0  0  0
  118.7952   -7.1235   -2.9382 H   0  0  0  0  0  0  0  0  0  0  0  0
  119.2829   -5.0511   -2.0242 H   0  0  0  0  0  0  0  0  0  0  0  0
  123.0223   -4.5266   -0.3658 H   0  0  0  0  0  0  0  0  0  0  0  0
  124.8932   -2.5976   -0.2583 H   0  0  0  0  0  0  0  0  0  0  0  0
  124.8646    2.6455    0.3178 H   0  0  0  0  0  0  0  0  0  0  0  0
  122.9885    4.5489    0.3706 H   0  0  0  0  0  0  0  0  0  0  0  0
  121.0835    0.7987    0.0096 H   0  0  0  0  0  0  0  0  0  0  0  0
  121.3985    5.1902   -1.6678 H   0  0  0  0  0  0  0  0  0  0  0  0
  121.3752    8.7458   -1.5780 H   0  0  0  0  0  0  0  0  0  0  0  0
  119.7985    9.4011    1.0650 H   0  0  0  0  0  0  0  0  0  0  0  0
  118.6612    7.1308    2.9264 H   0  0  0  0  0  0  0  0  0  0  0  0
  119.1999    5.0502    2.0291 H   0  0  0  0  0  0  0  0  0  0  0  0
  117.6606    4.5481   -0.0709 H   0  0  0  0  0  0  0  0  0  0  0  0
  115.7894    2.6171   -0.0989 H   0  0  0  0  0  0  0  0  0  0  0  0
  132.9426    0.0236    0.0088 C   0  0  0  0  0  0  0  0  0  0  0  0
  133.5723   -1.2367   -0.0034 C   0  0  0  0  0  0  0  0  0  0  0  0
  132.9271   -2.4988    0.0508 C   0  0  0  0  0  0  0  0  0  0  0  0
  133.8922   -3.4672   -0.0071 C   0  0  0  0  0  0  0  0  0  0  0  0
  135.1550   -2.8230   -0.1092 C   0  0  0  0  0  0  0  0  0  0  0  0
  134.9111   -1.4753   -0.0902 N   0  0  0  0  0  0  0  0  0  0  0  0
  136.4130   -3.4314   -0.2025 C   0  0  0  0  0  0  0  0  0  0  0  0
  136.4268   -4.9144   -0.2536 C   0  0  0  0  0  0  0  0  0  0  0  0
  137.0813   -5.6455    0.7385 C   0  0  0  0  0  0  0  0  0  0  0  0
  137.0935   -7.0374    0.7127 C   0  0  0  0  0  0  0  0  0  0  0  0
  137.7166   -7.7599    1.6793 O   0  0  0  0  0  0  0  0  0  0  0  0
  136.4506   -7.7176   -0.3269 C   0  0  0  0  0  0  0  0  0  0  0  0
  136.4479   -9.0744   -0.3821 O   0  0  0  0  0  0  0  0  0  0  0  0
  135.8030   -6.9783   -1.3203 C   0  0  0  0  0  0  0  0  0  0  0  0
  135.1982   -7.7054   -2.3128 O   0  0  0  0  0  0  0  0  0  0  0  0
  135.7798   -5.5909   -1.2897 C   0  0  0  0  0  0  0  0  0  0  0  0
  137.6355   -2.7581   -0.2481 C   0  0  0  0  0  0  0  0  0  0  0  0
  138.9178   -3.4180   -0.4163 C   0  0  0  0  0  0  0  0  0  0  0  0
  139.8541   -2.4468   -0.3928 C   0  0  0  0  0  0  0  0  0  0  0  0
  137.8123   -1.4116   -0.1514 N   0  0  0  0  0  0  0  0  0  0  0  0
  139.1420   -1.1963   -0.2207 C   0  0  0  0  0  0  0  0  0  0  0  0
  139.7974    0.0472   -0.1199 C   0  0  0  0  0  0  0  0  0  0  0  0
  139.1706    1.3026   -0.0016 C   0  0  0  0  0  0  0  0  0  0  0  0
  139.8197    2.5574    0.1304 C   0  0  0  0  0  0  0  0  0  0  0  0
  138.8553    3.5261    0.1867 C   0  0  0  0  0  0  0  0  0  0  0  0
  137.5882    2.8904    0.0814 C   0  0  0  0  0  0  0  0  0  0  0  0
  137.8295    1.5461   -0.0176 N   0  0  0  0  0  0  0  0  0  0  0  0
  136.3283    3.5023    0.0867 C   0  0  0  0  0  0  0  0  0  0  0  0
  136.3120    4.9853    0.1530 C   0  0  0  0  0  0  0  0  0  0  0  0
  136.9163    5.7402   -0.8528 C   0  0  0  0  0  0  0  0  0  0  0  0
  136.8923    7.1287   -0.7925 C   0  0  0  0  0  0  0  0  0  0  0  0
  137.4683    7.8710   -1.7692 O   0  0  0  0  0  0  0  0  0  0  0  0
  136.2703    7.7676    0.2815 C   0  0  0  0  0  0  0  0  0  0  0  0
  136.2650    9.1371    0.3157 O   0  0  0  0  0  0  0  0  0  0  0  0
  135.6721    7.0138    1.2881 C   0  0  0  0  0  0  0  0  0  0  0  0
  135.0861    7.7108    2.3118 O   0  0  0  0  0  0  0  0  0  0  0  0
  135.6875    5.6261    1.2267 C   0  0  0  0  0  0  0  0  0  0  0  0
  135.1041    2.8333    0.0350 C   0  0  0  0  0  0  0  0  0  0  0  0
  133.8173    3.5027   -0.0302 C   0  0  0  0  0  0  0  0  0  0  0  0
  132.8808    2.5315   -0.0485 C   0  0  0  0  0  0  0  0  0  0  0  0
  133.5970    1.2724   -0.0056 C   0  0  0  0  0  0  0  0  0  0  0  0
  134.9280    1.4827    0.0309 N   0  0  0  0  0  0  0  0  0  0  0  0
  131.8613   -2.6394    0.1309 H   0  0  0  0  0  0  0  0  0  0  0  0
  133.7437   -4.5341    0.0280 H   0  0  0  0  0  0  0  0  0  0  0  0
  135.6303   -0.7608   -0.1291 H   0  0  0  0  0  0  0  0  0  0  0  0
  137.5712   -5.1285    1.5559 H   0  0  0  0  0  0  0  0  0  0  0  0
  138.1273   -7.1830    2.3366 H   0  0  0  0  0  0  0  0  0  0  0  0
  135.9554   -9.3454   -1.1737 H   0  0  0  0  0  0  0  0  0  0  0  0
  134.7843   -7.1237   -2.9635 H   0  0  0  0  0  0  0  0  0  0  0  0
  135.2824   -5.0408   -2.0799 H   0  0  0  0  0  0  0  0  0  0  0  0
  139.0599   -4.4783   -0.5486 H   0  0  0  0  0  0  0  0  0  0  0  0
  140.9240   -2.5402   -0.4893 H   0  0  0  0  0  0  0  0  0  0  0  0
  140.8881    2.6922    0.1793 H   0  0  0  0  0  0  0  0  0  0  0  0
  139.0065    4.5872    0.2991 H   0  0  0  0  0  0  0  0  0  0  0  0
  137.1081    0.8364   -0.0890 H   0  0  0  0  0  0  0  0  0  0  0  0
  137.3866    5.2562   -1.6990 H   0  0  0  0  0  0  0  0  0  0  0  0
  137.3426    8.8099   -1.5534 H   0  0  0  0  0  0  0  0  0  0  0  0
  135.7923    9.4144    1.1166 H   0  0  0  0  0  0  0  0  0  0  0  0
  134.6895    7.1088    2.9550 H   0  0  0  0  0  0  0  0  0  0  0  0
  135.2314    5.0457    2.0201 H   0  0  0  0  0  0  0  0  0  0  0  0
  133.6713    4.5699   -0.0729 H   0  0  0  0  0  0  0  0  0  0  0  0
  131.8082    2.6310   -0.0962 H   0  0  0  0  0  0  0  0  0  0  0  0
  1  2  4  0  0  0  0
  2  3  4  0  0  0  0
  3  4  2  0  0  0  0
  4  5  4  0  0  0  0
  2  6  4  0  0  0  0
  5  6  4  0  0  0  0
  5  7  4  0  0  0  0
  7  8  1  0  0  0  0
  8  9  4  0  0  0  0
  9 10  4  0  0  0  0
 10 11  1  0  0  0  0
 10 12  4  0  0  0  0
 12 13  1  0  0  0  0
 12 14  4  0  0  0  0
 14 15  1  0  0  0  0
  8 16  4  0  0  0  0
 14 16  4  0  0  0  0
  7 17  4  0  0  0  0
 17 18  1  0  0  0  0
 18 19  2  0  0  0  0
 17 20  4  0  0  0  0
 19 21  1  0  0  0  0
 20 21  4  0  0  0  0
 21 22  4  0  0  0  0
 22 23  4  0  0  0  0
 23 24  4  0  0  0  0
 24 25  2  0  0  0  0
 25 26  4  0  0  0  0
 23 27  4  0  0  0  0
 26 27  4  0  0  0  0
 26 28  4  0  0  0  0
 28 29  1  0  0  0  0
 29 30  4  0  0  0  0
 30 31  4  0  0  0  0
 31 32  1  0  0  0  0
 31 33  4  0  0  0  0
 33 34  1  0  0  0  0
 33 35  4  0  0  0  0
 35 36  1  0  0  0  0
 29 37  4  0  0  0  0
 35 37  4  0  0  0  0
 28 38  4  0  0  0  0
 38 39  1  0  0  0  0
 39 40  2  0  0  0  0
  1 41  4  0  0  0  0
 40 41  1  0  0  0  0
 38 42  4  0  0  0  0
 41 42  4  0  0  0  0
  1 43  1  0  0  0  0
  3 44  1  0  0  0  0
  4 45  1  0  0  0  0
  6 46  1  0  0  0  0
  9 47  1  0  0  0  0
 11 48  1  0  0  0  0
 13 49  1  0  0  0  0
 15 50  1  0  0  0  0
 16 51  1  0  0  0  0
 18 52  1  0  0  0  0
 19 53  1  0  0  0  0
 24 54  1  0  0  0  0
 25 55  1  0  0  0  0
 27 56  1  0  0  0  0
 30 57  1  0  0  0  0
 32 58  1  0  0  0  0
 34 59  1  0  0  0  0
 36 60  1  0  0  0  0
 37 61  1  0  0  0  0
 39 62  1  0  0  0  0
 40 63  1  0  0  0  0
 64 65  4  0  0  0  0
 65 66  4  0  0  0  0
 66 67  2  0  0  0  0
 67 68  4  0  0  0  0
 65 69  4  0  0  0  0
 68 69  4  0  0  0  0
 68 70  4  0  0  0  0
 70 71  1  0  0  0  0
 71 72  4  0  0  0  0
 72 73  4  0  0  0  0
 73 74  1  0  0  0  0
 73 75  4  0  0  0  0
 75 76  1  0  0  0  0
 75 77  4  0  0  0  0
 77 78  1  0  0  0  0
 71 79  4  0  0  0  0
 77 79  4  0  0  0  0
 70 80  4  0  0  0  0
 80 81  1  0  0  0  0
 81 82  2  0  0  0  0
 80 83  4  0  0  0  0
 82 84  1  0  0  0  0
 83 84  4  0  0  0  0
 84 85  4  0  0  0  0
 85 86  4  0  0  0  0
 86 87  4  0  0  0  0
 87 88  2  0  0  0  0
 88 89  4  0  0  0  0
 86 90  4  0  0  0  0
 89 90  4  0  0  0  0
 89 91  4  0  0  0  0
 91 92  1  0  0  0  0
 92 93  4  0  0  0  0
 93 94  4  0  0  0  0
 94 95  1  0  0  0  0
 94 96  4  0  0  0  0
 96 97  1  0  0  0  0
 96 98  4  0  0  0  0
 98 99  1  0  0  0  0
 92100  4  0  0  0  0
 98100  4  0  0  0  0
 91101  4  0  0  0  0
101102  1  0  0  0  0
102103  2  0  0  0  0
 64104  4  0  0  0  0
103104  1  0  0  0  0
101105  4  0  0  0  0
104105  4  0  0  0  0
 64106  1  0  0  0  0
 66107  1  0  0  0  0
 67108  1  0  0  0  0
 69109  1  0  0  0  0
 72110  1  0  0  0  0
 74111  1  0  0  0  0
 76112  1  0  0  0  0
 78113  1  0  0  0  0
 79114  1  0  0  0  0
 81115  1  0  0  0  0
 82116  1  0  0  0  0
 87117  1  0  0  0  0
 88118  1  0  0  0  0
 90119  1  0  0  0  0
 93120  1  0  0  0  0
 95121  1  0  0  0  0
 97122  1  0  0  0  0
 99123  1  0  0  0  0
100124  1  0  0  0  0
102125  1  0  0  0  0
103126  1  0  0  0  0
127128  3  0  0  0  0
128129  4  0  0  0  0
 22130  4  0  0  0  0
129130  3  0  0  0  0
127131  4  0  0  0  0
131132  3  0  0  0  0
133134  3  0  0  0  0
134135  4  0  0  0  0
135136  3  0  0  0  0
133137  4  0  0  0  0
137138  3  0  0  0  0
139140  3  0  0  0  0
140141  4  0  0  0  0
141142  3  0  0  0  0
139143  4  0  0  0  0
143144  3  0  0  0  0
145146  3  0  0  0  0
146147  4  0  0  0  0
147148  3  0  0  0  0
145149  4  0  0  0  0
149150  3  0  0  0  0
151152  3  0  0  0  0
152153  4  0  0  0  0
153154  3  0  0  0  0
151155  4  0  0  0  0
 85156  4  0  0  0  0
155156  3  0  0  0  0
132157  4  0  0  0  0
157158  4  0  0  0  0
158159  4  0  0  0  0
159160  2  0  0  0  0
160161  4  0  0  0  0
158162  4  0  0  0  0
161162  4  0  0  0  0
161163  4  0  0  0  0
163164  1  0  0  0  0
164165  4  0  0  0  0
165166  4  0  0  0  0
166167  1  0  0  0  0
166168  4  0  0  0  0
168169  1  0  0  0  0
168170  4  0  0  0  0
170171  1  0  0  0  0
164172  4  0  0  0  0
170172  4  0  0  0  0
163173  4  0  0  0  0
173174  1  0  0  0  0
174175  2  0  0  0  0
173176  4  0  0  0  0
175177  1  0  0  0  0
176177  4  0  0  0  0
136178  4  0  0  0  0
177178  4  0  0  0  0
178179  4  0  0  0  0
179180  4  0  0  0  0
180181  2  0  0  0  0
181182  4  0  0  0  0
179183  4  0  0  0  0
182183  4  0  0  0  0
182184  4  0  0  0  0
184185  1  0  0  0  0
185186  4  0  0  0  0
186187  4  0  0  0  0
187188  1  0  0  0  0
187189  4  0  0  0  0
189190  1  0  0  0  0
189191  4  0  0  0  0
191192  1  0  0  0  0
185193  4  0  0  0  0
191193  4  0  0  0  0
184194  4  0  0  0  0
194195  1  0  0  0  0
195196  2  0  0  0  0
157197  4  0  0  0  0
196197  1  0  0  0  0
194198  4  0  0  0  0
197198  4  0  0  0  0
159199  1  0  0  0  0
160200  1  0  0  0  0
162201  1  0  0  0  0
165202  1  0  0  0  0
167203  1  0  0  0  0
169204  1  0  0  0  0
171205  1  0  0  0  0
172206  1  0  0  0  0
174207  1  0  0  0  0
175208  1  0  0  0  0
180209  1  0  0  0  0
181210  1  0  0  0  0
183211  1  0  0  0  0
186212  1  0  0  0  0
188213  1  0  0  0  0
190214  1  0  0  0  0
192215  1  0  0  0  0
193216  1  0  0  0  0
195217  1  0  0  0  0
196218  1  0  0  0  0
138219  4  0  0  0  0
219220  4  0  0  0  0
220221  4  0  0  0  0
221222  2  0  0  0  0
222223  4  0  0  0  0
220224  4  0  0  0  0
223224  4  0  0  0  0
223225  4  0  0  0  0
225226  1  0  0  0  0
226227  4  0  0  0  0
227228  4  0  0  0  0
228229  1  0  0  0  0
228230  4  0  0  0  0
230231  1  0  0  0  0
230232  4  0  0  0  0
232233  1  0  0  0  0
226234  4  0  0  0  0
232234  4  0  0  0  0
225235  4  0  0  0  0
235236  1  0  0  0  0
236237  2  0  0  0  0
235238  4  0  0  0  0
237239  1  0  0  0  0
238239  4  0  0  0  0
142240  4  0  0  0  0
239240  4  0  0  0  0
240241  4  0  0  0  0
241242  4  0  0  0  0
242243  2  0  0  0  0
243244  4  0  0  0  0
241245  4  0  0  0  0
244245  4  0  0  0  0
244246  4  0  0  0  0
246247  1  0  0  0  0
247248  4  0  0  0  0
248249  4  0  0  0  0
249250  1  0  0  0  0
249251  4  0  0  0  0
251252  1  0  0  0  0
251253  4  0  0  0  0
253254  1  0  0  0  0
247255  4  0  0  0  0
253255  4  0  0  0  0
246256  4  0  0  0  0
256257  1  0  0  0  0
257258  2  0  0  0  0
219259  4  0  0  0  0
258259  1  0  0  0  0
256260  4  0  0  0  0
259260  4  0  0  0  0
221261  1  0  0  0  0
222262  1  0  0  0  0
224263  1  0  0  0  0
227264  1  0  0  0  0
229265  1  0  0  0  0
231266  1  0  0  0  0
233267  1  0  0  0  0
234268  1  0  0  0  0
236269  1  0  0  0  0
237270  1  0  0  0  0
242271  1  0  0  0  0
243272  1  0  0  0  0
245273  1  0  0  0  0
248274  1  0  0  0  0
250275  1  0  0  0  0
252276  1  0  0  0  0
254277  1  0  0  0  0
255278  1  0  0  0  0
257279  1  0  0  0  0
258280  1  0  0  0  0
144281  4  0  0  0  0
281282  4  0  0  0  0
282283  4  0  0  0  0
283284  2  0  0  0  0
284285  4  0  0  0  0
282286  4  0  0  0  0
285286  4  0  0  0  0
285287  4  0  0  0  0
287288  1  0  0  0  0
288289  4  0  0  0  0
289290  4  0  0  0  0
290291  1  0  0  0  0
290292  4  0  0  0  0
292293  1  0  0  0  0
292294  4  0  0  0  0
294295  1  0  0  0  0
288296  4  0  0  0  0
294296  4  0  0  0  0
287297  4  0  0  0  0
297298  1  0  0  0  0
298299  2  0  0  0  0
297300  4  0  0  0  0
299301  1  0  0  0  0
300301  4  0  0  0  0
148302  4  0  0  0  0
301302  4  0  0  0  0
302303  4  0  0  0  0
303304  4  0  0  0  0
304305  2  0  0  0  0
305306  4  0  0  0  0
303307  4  0  0  0  0
306307  4  0  0  0  0
306308  4  0  0  0  0
308309  1  0  0  0  0
309310  4  0  0  0  0
310311  4  0  0  0  0
311312  1  0  0  0  0
311313  4  0  0  0  0
313314  1  0  0  0  0
313315  4  0  0  0  0
315316  1  0  0  0  0
309317  4  0  0  0  0
315317  4  0  0  0  0
308318  4  0  0  0  0
318319  1  0  0  0  0
319320  2  0  0  0  0
281321  4  0  0  0  0
320321  1  0  0  0  0
318322  4  0  0  0  0
321322  4  0  0  0  0
283323  1  0  0  0  0
284324  1  0  0  0  0
286325  1  0  0  0  0
289326  1  0  0  0  0
291327  1  0  0  0  0
293328  1  0  0  0  0
295329  1  0  0  0  0
296330  1  0  0  0  0
298331  1  0  0  0  0
299332  1  0  0  0  0
304333  1  0  0  0  0
305334  1  0  0  0  0
307335  1  0  0  0  0
310336  1  0  0  0  0
312337  1  0  0  0  0
314338  1  0  0  0  0
316339  1  0  0  0  0
317340  1  0  0  0  0
319341  1  0  0  0  0
320342  1  0  0  0  0
150343  4  0  0  0  0
343344  4  0  0  0  0
344345  4  0  0  0  0
345346  2  0  0  0  0
346347  4  0  0  0  0
344348  4  0  0  0  0
347348  4  0  0  0  0
347349  4  0  0  0  0
349350  1  0  0  0  0
350351  4  0  0  0  0
351352  4  0  0  0  0
352353  1  0  0  0  0
352354  4  0  0  0  0
354355  1  0  0  0  0
354356  4  0  0  0  0
356357  1  0  0  0  0
350358  4  0  0  0  0
356358  4  0  0  0  0
349359  4  0  0  0  0
359360  1  0  0  0  0
360361  2  0  0  0  0
359362  4  0  0  0  0
361363  1  0  0  0  0
362363  4  0  0  0  0
154364  4  0  0  0  0
363364  4  0  0  0  0
364365  4  0  0  0  0
365366  4  0  0  0  0
366367  2  0  0  0  0
367368  4  0  0  0  0
365369  4  0  0  0  0
368369  4  0  0  0  0
368370  4  0  0  0  0
370371  1  0  0  0  0
371372  4  0  0  0  0
372373  4  0  0  0  0
373374  1  0  0  0  0
373375  4  0  0  0  0
375376  1  0  0  0  0
375377  4  0  0  0  0
377378  1  0  0  0  0
371379  4  0  0  0  0
377379  4  0  0  0  0
370380  4  0  0  0  0
380381  1  0  0  0  0
381382  2  0  0  0  0
343383  4  0  0  0  0
382383  1  0  0  0  0
380384  4  0  0  0  0
383384  4  0  0  0  0
345385  1  0  0  0  0
346386  1  0  0  0  0
348387  1  0  0  0  0
351388  1  0  0  0  0
353389  1  0  0  0  0
355390  1  0  0  0  0
357391  1  0  0  0  0
358392  1  0  0  0  0
360393  1  0  0  0  0
361394  1  0  0  0  0
366395  1  0  0  0  0
367396  1  0  0  0  0
369397  1  0  0  0  0
372398  1  0  0  0  0
374399  1  0  0  0  0
376400  1  0  0  0  0
378401  1  0  0  0  0
379402  1  0  0  0  0
381403  1  0  0  0  0
382404  1  0  0  0  0
M  END
