 xtb: 6.5.1 (b24c23e)
          07262216063D

290324  0     0  0            999 V2000
   36.5255   -0.0681   -0.0033 C   0  0  0  0  0  0  0  0  0  0  0  0
   37.1511   -1.3068   -0.0658 C   0  0  0  0  0  0  0  0  0  0  0  0
   36.5379   -2.5910   -0.1298 C   0  0  0  0  0  0  0  0  0  0  0  0
   37.5305   -3.5291   -0.1771 C   0  0  0  0  0  0  0  0  0  0  0  0
   38.7812   -2.8478   -0.1434 C   0  0  0  0  0  0  0  0  0  0  0  0
   38.5012   -1.5136   -0.0767 N   0  0  0  0  0  0  0  0  0  0  0  0
   40.0504   -3.4139   -0.1718 C   0  0  0  0  0  0  0  0  0  0  0  0
   41.2688   -2.7514   -0.1387 C   0  0  0  0  0  0  0  0  0  0  0  0
   42.5488   -3.4365   -0.1724 C   0  0  0  0  0  0  0  0  0  0  0  0
   43.4961   -2.4771   -0.1244 C   0  0  0  0  0  0  0  0  0  0  0  0
   41.4588   -1.4053   -0.0717 N   0  0  0  0  0  0  0  0  0  0  0  0
   42.7908   -1.2094   -0.0618 C   0  0  0  0  0  0  0  0  0  0  0  0
   43.4434    0.0398   -0.0006 C   0  0  0  0  0  0  0  0  0  0  0  0
   42.7924    1.2865    0.0605 C   0  0  0  0  0  0  0  0  0  0  0  0
   43.4006    2.5694    0.1233 C   0  0  0  0  0  0  0  0  0  0  0  0
   42.4043    3.5052    0.1701 C   0  0  0  0  0  0  0  0  0  0  0  0
   41.1577    2.8198    0.1371 C   0  0  0  0  0  0  0  0  0  0  0  0
   41.4449    1.4830    0.0708 N   0  0  0  0  0  0  0  0  0  0  0  0
   39.8897    3.3863    0.1663 C   0  0  0  0  0  0  0  0  0  0  0  0
   38.6703    2.7211    0.1344 C   0  0  0  0  0  0  0  0  0  0  0  0
   37.3841    3.4000    0.1696 C   0  0  0  0  0  0  0  0  0  0  0  0
   36.4428    2.4361    0.1223 C   0  0  0  0  0  0  0  0  0  0  0  0
   37.1547    1.1696    0.0583 C   0  0  0  0  0  0  0  0  0  0  0  0
   38.4925    1.3808    0.0677 N   0  0  0  0  0  0  0  0  0  0  0  0
   35.4407   -0.0769   -0.0031 H   0  0  0  0  0  0  0  0  0  0  0  0
   35.4727   -2.7596   -0.1379 H   0  0  0  0  0  0  0  0  0  0  0  0
   37.4203   -4.6006   -0.2307 H   0  0  0  0  0  0  0  0  0  0  0  0
   39.1956   -0.7750   -0.0399 H   0  0  0  0  0  0  0  0  0  0  0  0
   40.0829   -4.4974   -0.2259 H   0  0  0  0  0  0  0  0  0  0  0  0
   42.6720   -4.5069   -0.2256 H   0  0  0  0  0  0  0  0  0  0  0  0
   44.5690   -2.5857   -0.1296 H   0  0  0  0  0  0  0  0  0  0  0  0
   44.4650    2.7413    0.1313 H   0  0  0  0  0  0  0  0  0  0  0  0
   42.5115    4.5769    0.2229 H   0  0  0  0  0  0  0  0  0  0  0  0
   40.7530    0.7416    0.0348 H   0  0  0  0  0  0  0  0  0  0  0  0
   39.8584    4.4698    0.2201 H   0  0  0  0  0  0  0  0  0  0  0  0
   37.2557    4.4699    0.2233 H   0  0  0  0  0  0  0  0  0  0  0  0
   35.3687    2.5375    0.1284 H   0  0  0  0  0  0  0  0  0  0  0  0
  140.2507    0.0686   -0.0086 C   0  0  0  0  0  0  0  0  0  0  0  0
  139.6231    1.2888   -0.2253 C   0  0  0  0  0  0  0  0  0  0  0  0
  140.2343    2.5561   -0.4489 C   0  0  0  0  0  0  0  0  0  0  0  0
  139.2402    3.4792   -0.6134 C   0  0  0  0  0  0  0  0  0  0  0  0
  137.9906    2.8054   -0.4952 C   0  0  0  0  0  0  0  0  0  0  0  0
  138.2727    1.4903   -0.2624 N   0  0  0  0  0  0  0  0  0  0  0  0
  136.7205    3.3615   -0.5935 C   0  0  0  0  0  0  0  0  0  0  0  0
  135.5031    2.7063   -0.4774 C   0  0  0  0  0  0  0  0  0  0  0  0
  134.2221    3.3802   -0.5947 C   0  0  0  0  0  0  0  0  0  0  0  0
  133.2764    2.4327   -0.4272 C   0  0  0  0  0  0  0  0  0  0  0  0
  135.3153    1.3787   -0.2439 N   0  0  0  0  0  0  0  0  0  0  0  0
  133.9837    1.1836   -0.2087 C   0  0  0  0  0  0  0  0  0  0  0  0
  133.3330   -0.0497    0.0055 C   0  0  0  0  0  0  0  0  0  0  0  0
  133.9858   -1.2785    0.2185 C   0  0  0  0  0  0  0  0  0  0  0  0
  133.3797   -2.5450    0.4384 C   0  0  0  0  0  0  0  0  0  0  0  0
  134.3776   -3.4662    0.6002 C   0  0  0  0  0  0  0  0  0  0  0  0
  135.6230   -2.7879    0.4838 C   0  0  0  0  0  0  0  0  0  0  0  0
  135.3337   -1.4700    0.2534 N   0  0  0  0  0  0  0  0  0  0  0  0
  136.8920   -3.3443    0.5836 C   0  0  0  0  0  0  0  0  0  0  0  0
  138.1103   -2.6858    0.4713 C   0  0  0  0  0  0  0  0  0  0  0  0
  139.3976   -3.3529    0.5916 C   0  0  0  0  0  0  0  0  0  0  0  0
  140.3374   -2.4005    0.4267 C   0  0  0  0  0  0  0  0  0  0  0  0
  139.6234   -1.1530    0.2056 C   0  0  0  0  0  0  0  0  0  0  0  0
  138.2860   -1.3638    0.2396 N   0  0  0  0  0  0  0  0  0  0  0  0
  141.3355    0.0794   -0.0086 H   0  0  0  0  0  0  0  0  0  0  0  0
  141.2992    2.7242   -0.4776 H   0  0  0  0  0  0  0  0  0  0  0  0
  139.3485    4.5358   -0.8003 H   0  0  0  0  0  0  0  0  0  0  0  0
  137.5795    0.7609   -0.1340 H   0  0  0  0  0  0  0  0  0  0  0  0
  136.6862    4.4297   -0.7821 H   0  0  0  0  0  0  0  0  0  0  0  0
  134.0971    4.4355   -0.7800 H   0  0  0  0  0  0  0  0  0  0  0  0
  132.2033    2.5384   -0.4448 H   0  0  0  0  0  0  0  0  0  0  0  0
  132.3156   -2.7164    0.4670 H   0  0  0  0  0  0  0  0  0  0  0  0
  134.2721   -4.5235    0.7845 H   0  0  0  0  0  0  0  0  0  0  0  0
  136.0244   -0.7375    0.1268 H   0  0  0  0  0  0  0  0  0  0  0  0
  136.9250   -4.4128    0.7707 H   0  0  0  0  0  0  0  0  0  0  0  0
  139.5278   -4.4077    0.7773 H   0  0  0  0  0  0  0  0  0  0  0  0
  141.4116   -2.4984    0.4466 H   0  0  0  0  0  0  0  0  0  0  0  0
   48.6435    0.0772    0.0018 C   0  0  0  0  0  0  0  0  0  0  0  0
   47.4148    0.0742    0.0019 C   0  0  0  0  0  0  0  0  0  0  0  0
   46.0712    0.0672    0.0001 C   0  0  0  0  0  0  0  0  0  0  0  0
   44.8471    0.0544    0.0002 C   0  0  0  0  0  0  0  0  0  0  0  0
   49.9869    0.0787    0.0033 C   0  0  0  0  0  0  0  0  0  0  0  0
   51.2113    0.0758    0.0043 C   0  0  0  0  0  0  0  0  0  0  0  0
   64.7915   -0.0141   -0.0101 C   0  0  0  0  0  0  0  0  0  0  0  0
   63.5626   -0.0047   -0.0093 C   0  0  0  0  0  0  0  0  0  0  0  0
   62.2198    0.0035   -0.0095 C   0  0  0  0  0  0  0  0  0  0  0  0
   60.9953    0.0129   -0.0036 C   0  0  0  0  0  0  0  0  0  0  0  0
   66.1344   -0.0188   -0.0081 C   0  0  0  0  0  0  0  0  0  0  0  0
   67.3588   -0.0238   -0.0071 C   0  0  0  0  0  0  0  0  0  0  0  0
   80.9328    0.0119   -0.0140 C   0  0  0  0  0  0  0  0  0  0  0  0
   79.7040    0.0089   -0.0107 C   0  0  0  0  0  0  0  0  0  0  0  0
   78.3612    0.0022   -0.0057 C   0  0  0  0  0  0  0  0  0  0  0  0
   77.1368   -0.0022   -0.0012 C   0  0  0  0  0  0  0  0  0  0  0  0
   82.2756    0.0147   -0.0162 C   0  0  0  0  0  0  0  0  0  0  0  0
   83.5000    0.0138   -0.0164 C   0  0  0  0  0  0  0  0  0  0  0  0
   97.0723   -0.0043    0.0021 C   0  0  0  0  0  0  0  0  0  0  0  0
   95.8435   -0.0137    0.0086 C   0  0  0  0  0  0  0  0  0  0  0  0
   94.5008   -0.0214    0.0133 C   0  0  0  0  0  0  0  0  0  0  0  0
   93.2763   -0.0253    0.0177 C   0  0  0  0  0  0  0  0  0  0  0  0
   98.4150    0.0054   -0.0034 C   0  0  0  0  0  0  0  0  0  0  0  0
   99.6394    0.0135   -0.0084 C   0  0  0  0  0  0  0  0  0  0  0  0
  113.2136   -0.0013    0.0101 C   0  0  0  0  0  0  0  0  0  0  0  0
  111.9848    0.0069    0.0119 C   0  0  0  0  0  0  0  0  0  0  0  0
  110.6419    0.0114    0.0122 C   0  0  0  0  0  0  0  0  0  0  0  0
  109.4174    0.0167    0.0113 C   0  0  0  0  0  0  0  0  0  0  0  0
  114.5565   -0.0081    0.0072 C   0  0  0  0  0  0  0  0  0  0  0  0
  115.7810   -0.0167    0.0065 C   0  0  0  0  0  0  0  0  0  0  0  0
  129.3615   -0.0760    0.0117 C   0  0  0  0  0  0  0  0  0  0  0  0
  128.1328   -0.0751    0.0109 C   0  0  0  0  0  0  0  0  0  0  0  0
  126.7893   -0.0730    0.0102 C   0  0  0  0  0  0  0  0  0  0  0  0
  125.5649   -0.0660    0.0088 C   0  0  0  0  0  0  0  0  0  0  0  0
  130.7051   -0.0725    0.0112 C   0  0  0  0  0  0  0  0  0  0  0  0
  131.9293   -0.0656    0.0078 C   0  0  0  0  0  0  0  0  0  0  0  0
   52.6141    0.0716    0.0049 C   0  0  0  0  0  0  0  0  0  0  0  0
   53.2593    1.3236   -0.0061 C   0  0  0  0  0  0  0  0  0  0  0  0
   52.6491    2.6057   -0.0172 C   0  0  0  0  0  0  0  0  0  0  0  0
   53.6452    3.5443   -0.0266 C   0  0  0  0  0  0  0  0  0  0  0  0
   54.8913    2.8597   -0.0216 C   0  0  0  0  0  0  0  0  0  0  0  0
   54.6067    1.5216   -0.0090 N   0  0  0  0  0  0  0  0  0  0  0  0
   56.1589    3.4321   -0.0289 C   0  0  0  0  0  0  0  0  0  0  0  0
   57.3848    2.7851   -0.0251 C   0  0  0  0  0  0  0  0  0  0  0  0
   58.6555    3.4880   -0.0345 C   0  0  0  0  0  0  0  0  0  0  0  0
   59.6156    2.5401   -0.0274 C   0  0  0  0  0  0  0  0  0  0  0  0
   57.5928    1.4399   -0.0128 N   0  0  0  0  0  0  0  0  0  0  0  0
   58.9272    1.2623   -0.0137 C   0  0  0  0  0  0  0  0  0  0  0  0
   59.5930    0.0187   -0.0024 C   0  0  0  0  0  0  0  0  0  0  0  0
   58.9480   -1.2334    0.0115 C   0  0  0  0  0  0  0  0  0  0  0  0
   59.5584   -2.5154    0.0241 C   0  0  0  0  0  0  0  0  0  0  0  0
   58.5625   -3.4540    0.0353 C   0  0  0  0  0  0  0  0  0  0  0  0
   57.3163   -2.7695    0.0297 C   0  0  0  0  0  0  0  0  0  0  0  0
   57.6008   -1.4313    0.0154 N   0  0  0  0  0  0  0  0  0  0  0  0
   56.0489   -3.3415    0.0367 C   0  0  0  0  0  0  0  0  0  0  0  0
   54.8229   -2.6942    0.0307 C   0  0  0  0  0  0  0  0  0  0  0  0
   53.5524   -3.3973    0.0378 C   0  0  0  0  0  0  0  0  0  0  0  0
   52.5921   -2.4497    0.0284 C   0  0  0  0  0  0  0  0  0  0  0  0
   53.2801   -1.1718    0.0160 C   0  0  0  0  0  0  0  0  0  0  0  0
   54.6149   -1.3492    0.0176 N   0  0  0  0  0  0  0  0  0  0  0  0
   51.5846    2.7765   -0.0179 H   0  0  0  0  0  0  0  0  0  0  0  0
   53.5367    4.6171   -0.0363 H   0  0  0  0  0  0  0  0  0  0  0  0
   55.2970    0.7779   -0.0030 H   0  0  0  0  0  0  0  0  0  0  0  0
   56.1803    4.5173   -0.0391 H   0  0  0  0  0  0  0  0  0  0  0  0
   58.7643    4.5612   -0.0450 H   0  0  0  0  0  0  0  0  0  0  0  0
   60.6871    2.6626   -0.0308 H   0  0  0  0  0  0  0  0  0  0  0  0
   60.6230   -2.6861    0.0244 H   0  0  0  0  0  0  0  0  0  0  0  0
   58.6713   -4.5268    0.0464 H   0  0  0  0  0  0  0  0  0  0  0  0
   56.9105   -0.6876    0.0086 H   0  0  0  0  0  0  0  0  0  0  0  0
   56.0271   -4.4268    0.0478 H   0  0  0  0  0  0  0  0  0  0  0  0
   53.4439   -4.4705    0.0483 H   0  0  0  0  0  0  0  0  0  0  0  0
   51.5207   -2.5726    0.0297 H   0  0  0  0  0  0  0  0  0  0  0  0
   68.7612   -0.0184   -0.0052 C   0  0  0  0  0  0  0  0  0  0  0  0
   69.3949    1.2396   -0.0192 C   0  0  0  0  0  0  0  0  0  0  0  0
   68.7721    2.5156   -0.0358 C   0  0  0  0  0  0  0  0  0  0  0  0
   69.7588    3.4639   -0.0444 C   0  0  0  0  0  0  0  0  0  0  0  0
   71.0114    2.7916   -0.0333 C   0  0  0  0  0  0  0  0  0  0  0  0
   70.7401    1.4507   -0.0183 N   0  0  0  0  0  0  0  0  0  0  0  0
   72.2735    3.3757   -0.0372 C   0  0  0  0  0  0  0  0  0  0  0  0
   73.5046    2.7388   -0.0282 C   0  0  0  0  0  0  0  0  0  0  0  0
   74.7697    3.4517   -0.0354 C   0  0  0  0  0  0  0  0  0  0  0  0
   75.7371    2.5113   -0.0253 C   0  0  0  0  0  0  0  0  0  0  0  0
   73.7229    1.3953   -0.0132 N   0  0  0  0  0  0  0  0  0  0  0  0
   75.0586    1.2282   -0.0113 C   0  0  0  0  0  0  0  0  0  0  0  0
   75.7346   -0.0098    0.0025 C   0  0  0  0  0  0  0  0  0  0  0  0
   75.1013   -1.2678    0.0196 C   0  0  0  0  0  0  0  0  0  0  0  0
   75.7242   -2.5438    0.0372 C   0  0  0  0  0  0  0  0  0  0  0  0
   74.7375   -3.4921    0.0505 C   0  0  0  0  0  0  0  0  0  0  0  0
   73.4848   -2.8198    0.0409 C   0  0  0  0  0  0  0  0  0  0  0  0
   73.7562   -1.4789    0.0227 N   0  0  0  0  0  0  0  0  0  0  0  0
   72.2226   -3.4036    0.0474 C   0  0  0  0  0  0  0  0  0  0  0  0
   70.9914   -2.7667    0.0363 C   0  0  0  0  0  0  0  0  0  0  0  0
   69.7264   -3.4796    0.0428 C   0  0  0  0  0  0  0  0  0  0  0  0
   68.7588   -2.5394    0.0276 C   0  0  0  0  0  0  0  0  0  0  0  0
   69.4371   -1.2563    0.0122 C   0  0  0  0  0  0  0  0  0  0  0  0
   70.7730   -1.4233    0.0177 N   0  0  0  0  0  0  0  0  0  0  0  0
   67.7059    2.6760   -0.0404 H   0  0  0  0  0  0  0  0  0  0  0  0
   69.6397    4.5356   -0.0573 H   0  0  0  0  0  0  0  0  0  0  0  0
   71.4380    0.7142   -0.0078 H   0  0  0  0  0  0  0  0  0  0  0  0
   72.2855    4.4611   -0.0495 H   0  0  0  0  0  0  0  0  0  0  0  0
   74.8701    4.5256   -0.0470 H   0  0  0  0  0  0  0  0  0  0  0  0
   76.8075    2.6422   -0.0263 H   0  0  0  0  0  0  0  0  0  0  0  0
   76.7904   -2.7041    0.0395 H   0  0  0  0  0  0  0  0  0  0  0  0
   74.8567   -4.5637    0.0654 H   0  0  0  0  0  0  0  0  0  0  0  0
   73.0583   -0.7424    0.0124 H   0  0  0  0  0  0  0  0  0  0  0  0
   72.2105   -4.4889    0.0622 H   0  0  0  0  0  0  0  0  0  0  0  0
   69.6262   -4.5536    0.0569 H   0  0  0  0  0  0  0  0  0  0  0  0
   67.6884   -2.6704    0.0266 H   0  0  0  0  0  0  0  0  0  0  0  0
   84.9022    0.0127   -0.0129 C   0  0  0  0  0  0  0  0  0  0  0  0
   85.5436    1.2666   -0.0265 C   0  0  0  0  0  0  0  0  0  0  0  0
   84.9290    2.5466   -0.0458 C   0  0  0  0  0  0  0  0  0  0  0  0
   85.9218    3.4885   -0.0527 C   0  0  0  0  0  0  0  0  0  0  0  0
   87.1700    2.8082   -0.0376 C   0  0  0  0  0  0  0  0  0  0  0  0
   86.8901    1.4691   -0.0224 N   0  0  0  0  0  0  0  0  0  0  0  0
   88.4360    3.3838   -0.0376 C   0  0  0  0  0  0  0  0  0  0  0  0
   89.6627    2.7384   -0.0235 C   0  0  0  0  0  0  0  0  0  0  0  0
   90.9325    3.4426   -0.0262 C   0  0  0  0  0  0  0  0  0  0  0  0
   91.8935    2.4957   -0.0116 C   0  0  0  0  0  0  0  0  0  0  0  0
   89.8717    1.3934   -0.0067 N   0  0  0  0  0  0  0  0  0  0  0  0
   91.2062    1.2172    0.0005 C   0  0  0  0  0  0  0  0  0  0  0  0
   91.8741   -0.0252    0.0171 C   0  0  0  0  0  0  0  0  0  0  0  0
   91.2328   -1.2792    0.0322 C   0  0  0  0  0  0  0  0  0  0  0  0
   91.8474   -2.5591    0.0520 C   0  0  0  0  0  0  0  0  0  0  0  0
   90.8546   -3.5010    0.0613 C   0  0  0  0  0  0  0  0  0  0  0  0
   89.6063   -2.8207    0.0470 C   0  0  0  0  0  0  0  0  0  0  0  0
   89.8863   -1.4816    0.0302 N   0  0  0  0  0  0  0  0  0  0  0  0
   88.3403   -3.3962    0.0484 C   0  0  0  0  0  0  0  0  0  0  0  0
   87.1136   -2.7509    0.0333 C   0  0  0  0  0  0  0  0  0  0  0  0
   85.8437   -3.4551    0.0358 C   0  0  0  0  0  0  0  0  0  0  0  0
   84.8828   -2.5082    0.0187 C   0  0  0  0  0  0  0  0  0  0  0  0
   85.5700   -1.2297    0.0057 C   0  0  0  0  0  0  0  0  0  0  0  0
   86.9046   -1.4059    0.0146 N   0  0  0  0  0  0  0  0  0  0  0  0
   83.8638    2.7136   -0.0535 H   0  0  0  0  0  0  0  0  0  0  0  0
   85.8096    4.5609   -0.0668 H   0  0  0  0  0  0  0  0  0  0  0  0
   87.5833    0.7283   -0.0093 H   0  0  0  0  0  0  0  0  0  0  0  0
   88.4555    4.4691   -0.0507 H   0  0  0  0  0  0  0  0  0  0  0  0
   91.0403    4.5159   -0.0380 H   0  0  0  0  0  0  0  0  0  0  0  0
   92.9647    2.6194   -0.0085 H   0  0  0  0  0  0  0  0  0  0  0  0
   92.9126   -2.7262    0.0585 H   0  0  0  0  0  0  0  0  0  0  0  0
   90.9667   -4.5734    0.0764 H   0  0  0  0  0  0  0  0  0  0  0  0
   89.1931   -0.7407    0.0172 H   0  0  0  0  0  0  0  0  0  0  0  0
   88.3208   -4.4815    0.0628 H   0  0  0  0  0  0  0  0  0  0  0  0
   85.7360   -4.5283    0.0491 H   0  0  0  0  0  0  0  0  0  0  0  0
   83.8115   -2.6319    0.0146 H   0  0  0  0  0  0  0  0  0  0  0  0
  101.0416    0.0193   -0.0106 C   0  0  0  0  0  0  0  0  0  0  0  0
  101.6773    1.2761   -0.0270 C   0  0  0  0  0  0  0  0  0  0  0  0
  101.0571    2.5533   -0.0458 C   0  0  0  0  0  0  0  0  0  0  0  0
  102.0458    3.4995   -0.0573 C   0  0  0  0  0  0  0  0  0  0  0  0
  103.2971    2.8247   -0.0455 C   0  0  0  0  0  0  0  0  0  0  0  0
  103.0229    1.4844   -0.0278 N   0  0  0  0  0  0  0  0  0  0  0  0
  104.5605    3.4059   -0.0497 C   0  0  0  0  0  0  0  0  0  0  0  0
  105.7904    2.7664   -0.0366 C   0  0  0  0  0  0  0  0  0  0  0  0
  107.0568    3.4768   -0.0414 C   0  0  0  0  0  0  0  0  0  0  0  0
  108.0225    2.5347   -0.0250 C   0  0  0  0  0  0  0  0  0  0  0  0
  106.0061    1.4226   -0.0178 N   0  0  0  0  0  0  0  0  0  0  0  0
  107.3416    1.2529   -0.0106 C   0  0  0  0  0  0  0  0  0  0  0  0
  108.0151    0.0136    0.0077 C   0  0  0  0  0  0  0  0  0  0  0  0
  107.3789   -1.2431    0.0217 C   0  0  0  0  0  0  0  0  0  0  0  0
  107.9991   -2.5203    0.0400 C   0  0  0  0  0  0  0  0  0  0  0  0
  107.0104   -3.4666    0.0478 C   0  0  0  0  0  0  0  0  0  0  0  0
  105.7592   -2.7917    0.0346 C   0  0  0  0  0  0  0  0  0  0  0  0
  106.0333   -1.4514    0.0193 N   0  0  0  0  0  0  0  0  0  0  0  0
  104.4959   -3.3732    0.0367 C   0  0  0  0  0  0  0  0  0  0  0  0
  103.2661   -2.7338    0.0251 C   0  0  0  0  0  0  0  0  0  0  0  0
  101.9997   -3.4441    0.0303 C   0  0  0  0  0  0  0  0  0  0  0  0
  101.0342   -2.5018    0.0179 C   0  0  0  0  0  0  0  0  0  0  0  0
  101.7152   -1.2200    0.0046 C   0  0  0  0  0  0  0  0  0  0  0  0
  103.0506   -1.3898    0.0090 N   0  0  0  0  0  0  0  0  0  0  0  0
   99.9912    2.7157   -0.0500 H   0  0  0  0  0  0  0  0  0  0  0  0
  101.9288    4.5714   -0.0725 H   0  0  0  0  0  0  0  0  0  0  0  0
  103.7193    0.7465   -0.0161 H   0  0  0  0  0  0  0  0  0  0  0  0
  104.5749    4.4912   -0.0645 H   0  0  0  0  0  0  0  0  0  0  0  0
  107.1593    4.5506   -0.0552 H   0  0  0  0  0  0  0  0  0  0  0  0
  109.0932    2.6635   -0.0226 H   0  0  0  0  0  0  0  0  0  0  0  0
  109.0649   -2.6828    0.0462 H   0  0  0  0  0  0  0  0  0  0  0  0
  107.1273   -4.5385    0.0614 H   0  0  0  0  0  0  0  0  0  0  0  0
  105.3369   -0.7135    0.0074 H   0  0  0  0  0  0  0  0  0  0  0  0
  104.4816   -4.4586    0.0495 H   0  0  0  0  0  0  0  0  0  0  0  0
  101.8971   -4.5178    0.0422 H   0  0  0  0  0  0  0  0  0  0  0  0
   99.9635   -2.6306    0.0171 H   0  0  0  0  0  0  0  0  0  0  0  0
  117.1833   -0.0202    0.0030 C   0  0  0  0  0  0  0  0  0  0  0  0
  117.8265    1.2327   -0.0208 C   0  0  0  0  0  0  0  0  0  0  0  0
  117.2141    2.5137   -0.0447 C   0  0  0  0  0  0  0  0  0  0  0  0
  118.2086    3.4536   -0.0643 C   0  0  0  0  0  0  0  0  0  0  0  0
  119.4559    2.7710   -0.0527 C   0  0  0  0  0  0  0  0  0  0  0  0
  119.1733    1.4326   -0.0264 N   0  0  0  0  0  0  0  0  0  0  0  0
  120.7225    3.3448   -0.0651 C   0  0  0  0  0  0  0  0  0  0  0  0
  121.9495    2.6994   -0.0526 C   0  0  0  0  0  0  0  0  0  0  0  0
  123.2190    3.4043   -0.0669 C   0  0  0  0  0  0  0  0  0  0  0  0
  124.1807    2.4582   -0.0470 C   0  0  0  0  0  0  0  0  0  0  0  0
  122.1594    1.3550   -0.0250 N   0  0  0  0  0  0  0  0  0  0  0  0
  123.4945    1.1795   -0.0207 C   0  0  0  0  0  0  0  0  0  0  0  0
  124.1621   -0.0627    0.0071 C   0  0  0  0  0  0  0  0  0  0  0  0
  123.5186   -1.3154    0.0324 C   0  0  0  0  0  0  0  0  0  0  0  0
  124.1307   -2.5964    0.0588 C   0  0  0  0  0  0  0  0  0  0  0  0
  123.1361   -3.5363    0.0739 C   0  0  0  0  0  0  0  0  0  0  0  0
  121.8890   -2.8538    0.0574 C   0  0  0  0  0  0  0  0  0  0  0  0
  122.1715   -1.5155    0.0330 N   0  0  0  0  0  0  0  0  0  0  0  0
  120.6223   -3.4281    0.0643 C   0  0  0  0  0  0  0  0  0  0  0  0
  119.3954   -2.7831    0.0504 C   0  0  0  0  0  0  0  0  0  0  0  0
  118.1258   -3.4878    0.0609 C   0  0  0  0  0  0  0  0  0  0  0  0
  117.1643   -2.5414    0.0447 C   0  0  0  0  0  0  0  0  0  0  0  0
  117.8509   -1.2627    0.0237 C   0  0  0  0  0  0  0  0  0  0  0  0
  119.1856   -1.4383    0.0273 N   0  0  0  0  0  0  0  0  0  0  0  0
  116.1493    2.6828   -0.0466 H   0  0  0  0  0  0  0  0  0  0  0  0
  118.0983    4.5260   -0.0851 H   0  0  0  0  0  0  0  0  0  0  0  0
  119.8647    0.6900   -0.0129 H   0  0  0  0  0  0  0  0  0  0  0  0
  120.7426    4.4299   -0.0868 H   0  0  0  0  0  0  0  0  0  0  0  0
  123.3259    4.4775   -0.0890 H   0  0  0  0  0  0  0  0  0  0  0  0
  125.2519    2.5825   -0.0491 H   0  0  0  0  0  0  0  0  0  0  0  0
  125.1955   -2.7655    0.0648 H   0  0  0  0  0  0  0  0  0  0  0  0
  123.2462   -4.6088    0.0946 H   0  0  0  0  0  0  0  0  0  0  0  0
  121.4802   -0.7729    0.0166 H   0  0  0  0  0  0  0  0  0  0  0  0
  120.6025   -4.5133    0.0836 H   0  0  0  0  0  0  0  0  0  0  0  0
  118.0185   -4.5610    0.0785 H   0  0  0  0  0  0  0  0  0  0  0  0
  116.0930   -2.6655    0.0458 H   0  0  0  0  0  0  0  0  0  0  0  0
  1  2  4  0  0  0  0
  2  3  4  0  0  0  0
  3  4  2  0  0  0  0
  4  5  4  0  0  0  0
  2  6  4  0  0  0  0
  5  6  4  0  0  0  0
  5  7  4  0  0  0  0
  7  8  4  0  0  0  0
  8  9  1  0  0  0  0
  9 10  2  0  0  0  0
  8 11  4  0  0  0  0
 10 12  1  0  0  0  0
 11 12  4  0  0  0  0
 12 13  4  0  0  0  0
 13 14  4  0  0  0  0
 14 15  4  0  0  0  0
 15 16  2  0  0  0  0
 16 17  4  0  0  0  0
 14 18  4  0  0  0  0
 17 18  4  0  0  0  0
 17 19  4  0  0  0  0
 19 20  4  0  0  0  0
 20 21  1  0  0  0  0
 21 22  2  0  0  0  0
  1 23  4  0  0  0  0
 22 23  1  0  0  0  0
 20 24  4  0  0  0  0
 23 24  4  0  0  0  0
  1 25  1  0  0  0  0
  3 26  1  0  0  0  0
  4 27  1  0  0  0  0
  6 28  1  0  0  0  0
  7 29  1  0  0  0  0
  9 30  1  0  0  0  0
 10 31  1  0  0  0  0
 15 32  1  0  0  0  0
 16 33  1  0  0  0  0
 18 34  1  0  0  0  0
 19 35  1  0  0  0  0
 21 36  1  0  0  0  0
 22 37  1  0  0  0  0
 38 39  4  0  0  0  0
 39 40  4  0  0  0  0
 40 41  2  0  0  0  0
 41 42  4  0  0  0  0
 39 43  4  0  0  0  0
 42 43  4  0  0  0  0
 42 44  4  0  0  0  0
 44 45  4  0  0  0  0
 45 46  1  0  0  0  0
 46 47  2  0  0  0  0
 45 48  4  0  0  0  0
 47 49  1  0  0  0  0
 48 49  4  0  0  0  0
 49 50  4  0  0  0  0
 50 51  4  0  0  0  0
 51 52  4  0  0  0  0
 52 53  2  0  0  0  0
 53 54  4  0  0  0  0
 51 55  4  0  0  0  0
 54 55  4  0  0  0  0
 54 56  4  0  0  0  0
 56 57  4  0  0  0  0
 57 58  1  0  0  0  0
 58 59  2  0  0  0  0
 38 60  4  0  0  0  0
 59 60  1  0  0  0  0
 57 61  4  0  0  0  0
 60 61  4  0  0  0  0
 38 62  1  0  0  0  0
 40 63  1  0  0  0  0
 41 64  1  0  0  0  0
 43 65  1  0  0  0  0
 44 66  1  0  0  0  0
 46 67  1  0  0  0  0
 47 68  1  0  0  0  0
 52 69  1  0  0  0  0
 53 70  1  0  0  0  0
 55 71  1  0  0  0  0
 56 72  1  0  0  0  0
 58 73  1  0  0  0  0
 59 74  1  0  0  0  0
 75 76  3  0  0  0  0
 76 77  4  0  0  0  0
 13 78  4  0  0  0  0
 77 78  3  0  0  0  0
 75 79  4  0  0  0  0
 79 80  3  0  0  0  0
 81 82  3  0  0  0  0
 82 83  4  0  0  0  0
 83 84  3  0  0  0  0
 81 85  4  0  0  0  0
 85 86  3  0  0  0  0
 87 88  3  0  0  0  0
 88 89  4  0  0  0  0
 89 90  3  0  0  0  0
 87 91  4  0  0  0  0
 91 92  3  0  0  0  0
 93 94  3  0  0  0  0
 94 95  4  0  0  0  0
 95 96  3  0  0  0  0
 93 97  4  0  0  0  0
 97 98  3  0  0  0  0
 99100  3  0  0  0  0
100101  4  0  0  0  0
101102  3  0  0  0  0
 99103  4  0  0  0  0
103104  3  0  0  0  0
105106  3  0  0  0  0
106107  4  0  0  0  0
107108  3  0  0  0  0
105109  4  0  0  0  0
 50110  4  0  0  0  0
109110  3  0  0  0  0
 80111  4  0  0  0  0
111112  4  0  0  0  0
112113  4  0  0  0  0
113114  2  0  0  0  0
114115  4  0  0  0  0
112116  4  0  0  0  0
115116  4  0  0  0  0
115117  4  0  0  0  0
117118  4  0  0  0  0
118119  1  0  0  0  0
119120  2  0  0  0  0
118121  4  0  0  0  0
120122  1  0  0  0  0
121122  4  0  0  0  0
 84123  4  0  0  0  0
122123  4  0  0  0  0
123124  4  0  0  0  0
124125  4  0  0  0  0
125126  2  0  0  0  0
126127  4  0  0  0  0
124128  4  0  0  0  0
127128  4  0  0  0  0
127129  4  0  0  0  0
129130  4  0  0  0  0
130131  1  0  0  0  0
131132  2  0  0  0  0
111133  4  0  0  0  0
132133  1  0  0  0  0
130134  4  0  0  0  0
133134  4  0  0  0  0
113135  1  0  0  0  0
114136  1  0  0  0  0
116137  1  0  0  0  0
117138  1  0  0  0  0
119139  1  0  0  0  0
120140  1  0  0  0  0
125141  1  0  0  0  0
126142  1  0  0  0  0
128143  1  0  0  0  0
129144  1  0  0  0  0
131145  1  0  0  0  0
132146  1  0  0  0  0
 86147  4  0  0  0  0
147148  4  0  0  0  0
148149  4  0  0  0  0
149150  2  0  0  0  0
150151  4  0  0  0  0
148152  4  0  0  0  0
151152  4  0  0  0  0
151153  4  0  0  0  0
153154  4  0  0  0  0
154155  1  0  0  0  0
155156  2  0  0  0  0
154157  4  0  0  0  0
156158  1  0  0  0  0
157158  4  0  0  0  0
 90159  4  0  0  0  0
158159  4  0  0  0  0
159160  4  0  0  0  0
160161  4  0  0  0  0
161162  2  0  0  0  0
162163  4  0  0  0  0
160164  4  0  0  0  0
163164  4  0  0  0  0
163165  4  0  0  0  0
165166  4  0  0  0  0
166167  1  0  0  0  0
167168  2  0  0  0  0
147169  4  0  0  0  0
168169  1  0  0  0  0
166170  4  0  0  0  0
169170  4  0  0  0  0
149171  1  0  0  0  0
150172  1  0  0  0  0
152173  1  0  0  0  0
153174  1  0  0  0  0
155175  1  0  0  0  0
156176  1  0  0  0  0
161177  1  0  0  0  0
162178  1  0  0  0  0
164179  1  0  0  0  0
165180  1  0  0  0  0
167181  1  0  0  0  0
168182  1  0  0  0  0
 92183  4  0  0  0  0
183184  4  0  0  0  0
184185  4  0  0  0  0
185186  2  0  0  0  0
186187  4  0  0  0  0
184188  4  0  0  0  0
187188  4  0  0  0  0
187189  4  0  0  0  0
189190  4  0  0  0  0
190191  1  0  0  0  0
191192  2  0  0  0  0
190193  4  0  0  0  0
192194  1  0  0  0  0
193194  4  0  0  0  0
 96195  4  0  0  0  0
194195  4  0  0  0  0
195196  4  0  0  0  0
196197  4  0  0  0  0
197198  2  0  0  0  0
198199  4  0  0  0  0
196200  4  0  0  0  0
199200  4  0  0  0  0
199201  4  0  0  0  0
201202  4  0  0  0  0
202203  1  0  0  0  0
203204  2  0  0  0  0
183205  4  0  0  0  0
204205  1  0  0  0  0
202206  4  0  0  0  0
205206  4  0  0  0  0
185207  1  0  0  0  0
186208  1  0  0  0  0
188209  1  0  0  0  0
189210  1  0  0  0  0
191211  1  0  0  0  0
192212  1  0  0  0  0
197213  1  0  0  0  0
198214  1  0  0  0  0
200215  1  0  0  0  0
201216  1  0  0  0  0
203217  1  0  0  0  0
204218  1  0  0  0  0
 98219  4  0  0  0  0
219220  4  0  0  0  0
220221  4  0  0  0  0
221222  2  0  0  0  0
222223  4  0  0  0  0
220224  4  0  0  0  0
223224  4  0  0  0  0
223225  4  0  0  0  0
225226  4  0  0  0  0
226227  1  0  0  0  0
227228  2  0  0  0  0
226229  4  0  0  0  0
228230  1  0  0  0  0
229230  4  0  0  0  0
102231  4  0  0  0  0
230231  4  0  0  0  0
231232  4  0  0  0  0
232233  4  0  0  0  0
233234  2  0  0  0  0
234235  4  0  0  0  0
232236  4  0  0  0  0
235236  4  0  0  0  0
235237  4  0  0  0  0
237238  4  0  0  0  0
238239  1  0  0  0  0
239240  2  0  0  0  0
219241  4  0  0  0  0
240241  1  0  0  0  0
238242  4  0  0  0  0
241242  4  0  0  0  0
221243  1  0  0  0  0
222244  1  0  0  0  0
224245  1  0  0  0  0
225246  1  0  0  0  0
227247  1  0  0  0  0
228248  1  0  0  0  0
233249  1  0  0  0  0
234250  1  0  0  0  0
236251  1  0  0  0  0
237252  1  0  0  0  0
239253  1  0  0  0  0
240254  1  0  0  0  0
104255  4  0  0  0  0
255256  4  0  0  0  0
256257  4  0  0  0  0
257258  2  0  0  0  0
258259  4  0  0  0  0
256260  4  0  0  0  0
259260  4  0  0  0  0
259261  4  0  0  0  0
261262  4  0  0  0  0
262263  1  0  0  0  0
263264  2  0  0  0  0
262265  4  0  0  0  0
264266  1  0  0  0  0
265266  4  0  0  0  0
108267  4  0  0  0  0
266267  4  0  0  0  0
267268  4  0  0  0  0
268269  4  0  0  0  0
269270  2  0  0  0  0
270271  4  0  0  0  0
268272  4  0  0  0  0
271272  4  0  0  0  0
271273  4  0  0  0  0
273274  4  0  0  0  0
274275  1  0  0  0  0
275276  2  0  0  0  0
255277  4  0  0  0  0
276277  1  0  0  0  0
274278  4  0  0  0  0
277278  4  0  0  0  0
257279  1  0  0  0  0
258280  1  0  0  0  0
260281  1  0  0  0  0
261282  1  0  0  0  0
263283  1  0  0  0  0
264284  1  0  0  0  0
269285  1  0  0  0  0
270286  1  0  0  0  0
272287  1  0  0  0  0
273288  1  0  0  0  0
275289  1  0  0  0  0
276290  1  0  0  0  0
M  END
