318

C 57.225423 0.043740 0.003278
C 57.950277 -1.010194 0.894562
C 57.334826 -1.997370 1.630647
C 58.356253 -2.701508 2.318440
C 59.561930 -2.114057 1.984992
N 59.304950 -1.110542 1.085108
C 60.989984 -2.499418 2.555260
C 61.039485 -3.446705 3.694015
C 61.288872 -4.805103 3.475673
C 61.341479 -5.695696 4.552109
C 61.186926 -5.235393 5.862601
N 61.148268 -6.146612 6.932669
C 60.863339 -3.890860 6.071459
C 60.811969 -2.996542 4.997934
C 62.118633 -1.942397 2.037621
C 63.427928 -2.222777 2.590363
C 64.329455 -1.526419 1.908204
N 62.311672 -1.064772 1.002252
C 63.645838 -0.774880 0.874042
C 64.315743 0.030080 0.006205
C 63.541211 0.810112 -1.140336
C 64.095591 1.303274 -2.305204
C 63.070536 1.970721 -3.019367
C 61.913837 1.854770 -2.279253
N 62.200074 1.109248 -1.159263
C 60.496788 2.457615 -2.658916
C 60.447007 3.539377 -3.667217
C 60.227191 3.239468 -5.015313
C 60.178118 4.261937 -5.967159
C 60.301256 5.599064 -5.579810
N 60.341060 6.615208 -6.550744
C 60.591244 5.889949 -4.242983
C 60.643072 4.869957 -3.287642
C 59.374619 1.982644 -2.058272
C 58.049350 2.495104 -2.359128
C 57.165772 1.824351 -1.626345
C 57.890998 0.865119 -0.830181
N 59.213458 1.005533 -1.115404
H 56.146421 0.109417 0.072542
H 56.272164 -2.181522 1.677864
H 58.224234 -3.530442 2.998627
H 60.008720 -0.532658 0.632150
H 61.436699 -5.158231 2.458416
H 61.515171 -6.747584 4.350441
H 61.376741 -5.704173 7.817222
H 61.713967 -6.970131 6.753002
H 60.657179 -3.517660 7.069398
H 60.587469 -1.944931 5.164173
H 63.643991 -2.871052 3.420434
H 65.385654 -1.539715 2.104479
H 65.127054 1.207138 -2.607056
H 63.166916 2.481215 -3.965610
H 61.511351 0.792532 -0.481732
H 60.101657 2.200967 -5.312186
H 60.033822 3.997317 -7.009110
H 59.793853 6.378646 -7.371136
H 60.090322 7.519207 -6.164652
H 60.770884 6.911626 -3.924266
H 60.841174 5.099479 -2.242843
H 57.817712 3.281552 -3.054437
H 56.100754 1.967834 -1.622110
C 122.934578 0.030360 0.020173
C 122.209723 0.656537 -1.209894
C 122.825174 1.146934 -2.339429
C 121.803747 1.655154 -3.182390
C 120.598070 1.465130 -2.534179
N 120.855050 0.819032 -1.351221
C 119.170017 1.931967 -3.039917
C 119.120515 2.823465 -4.222858
C 118.871129 2.299779 -5.495129
C 118.818522 3.143601 -6.608607
C 118.973075 4.524685 -6.460718
N 119.011733 5.357584 -7.592816
C 119.296661 5.035964 -5.199772
C 119.348032 4.195829 -4.083334
C 118.041367 1.555680 -2.379138
C 116.732072 2.029503 -2.778672
C 115.830545 1.524986 -1.944575
N 117.848328 0.748863 -1.287689
C 116.514163 0.690462 -0.976137
C 115.844257 0.030080 0.006205
C 116.618789 -0.907308 1.028121
C 116.064409 -1.928243 1.774991
C 117.089464 -2.470537 2.588276
C 118.246163 -1.776659 2.305881
N 117.959927 -0.857212 1.323639
C 119.663212 -2.008143 2.979662
C 119.712993 -2.741853 4.263621
C 119.932809 -4.122803 4.280475
C 119.981882 -4.815140 5.493786
C 119.858744 -4.131813 6.706638
N 119.818940 -4.844179 7.918164
C 119.568756 -2.763899 6.683581
C 119.516929 -2.067592 5.471881
C 120.785381 -1.532263 2.379738
C 122.110650 -1.707738 2.947486
C 122.994228 -1.148077 2.126718
C 122.269003 -0.592799 1.010623
N 120.946543 -0.838276 1.212635
H 124.013580 0.112826 0.068238
H 123.887836 1.150714 -2.529500
H 121.935766 2.127384 -4.145086
H 120.151281 0.510484 -0.684947
H 118.723302 1.228681 -5.605859
H 118.644830 2.706353 -7.586336
H 118.783259 6.319963 -7.364752
H 118.446033 4.994062 -8.353286
H 119.502821 6.092854 -5.065078
H 119.572531 4.598526 -3.097760
H 116.516010 2.689015 -3.599844
H 114.774346 1.712997 -2.002476
H 115.032947 -2.244091 1.750552
H 116.993085 -3.274691 3.301940
H 118.648649 -0.270240 0.860151
H 120.058344 -4.649658 3.337585
H 120.126179 -5.890002 5.474866
H 120.366147 -5.696946 7.875807
H 120.069679 -4.261286 8.709692
H 119.389116 -2.219634 7.605091
H 119.318827 -0.997998 5.455983
H 122.342288 -2.204421 3.872290
H 124.059246 -1.111090 2.265416
C 68.139201 0.042811 0.008730
C 66.886930 0.023630 0.004382
C 69.452869 0.042045 0.010662
C 70.956002 0.023630 0.004382
C 82.273580 0.042811 0.008730
C 81.021309 0.023630 0.004382
C 83.587248 0.042045 0.010662
C 85.090382 0.023630 0.004382
C 96.407959 0.042811 0.008730
C 95.155689 0.023630 0.004382
C 97.721627 0.042045 0.010662
C 99.224761 0.023630 0.004382
C 110.542338 0.042811 0.008730
C 109.290068 0.023630 0.004382
C 111.856006 0.042045 0.010662
C 113.359140 0.023630 0.004382
C 72.369393 -0.022488 -0.004595
C 73.162038 -0.608646 1.236036
C 72.653545 -1.419079 2.230866
C 73.690159 -1.631592 3.175439
C 74.801178 -0.950716 2.723970
N 74.491331 -0.395566 1.507613
C 76.190904 -0.819552 3.471751
C 76.185045 -0.912205 4.950427
C 76.644613 -2.066084 5.594197
C 76.635936 -2.148165 6.989931
C 76.206322 -1.065517 7.762432
N 76.112813 -1.186486 9.159771
C 75.676836 0.055125 7.116122
C 75.685095 0.141850 5.720415
C 77.325631 -0.582260 2.761736
C 78.612603 -0.393060 3.399102
C 79.520279 -0.174115 2.453937
N 77.533596 -0.454205 1.416073
C 78.857971 -0.212357 1.165649
C 79.522077 -0.022488 -0.004595
C 78.729419 -0.072130 -1.375791
C 79.237725 -0.425277 -2.609471
C 78.201130 -0.248096 -3.561333
C 77.090306 0.200252 -2.878069
N 77.400258 0.231232 -1.541408
C 75.700612 0.615644 -3.513521
C 75.706293 1.112964 -4.909108
C 76.203917 2.386033 -5.201476
C 76.211777 2.856044 -6.518527
C 75.684246 2.079484 -7.554195
N 75.777513 2.518778 -8.886209
C 75.256986 0.779276 -7.270699
C 75.248627 0.305035 -5.955456
C 74.565909 0.553895 -2.767433
C 73.278919 0.978805 -3.278727
C 72.371220 0.807382 -2.323823
C 73.033531 0.264529 -1.154856
N 74.357959 0.141240 -1.480220
H 71.644081 -1.797218 2.285923
H 73.627832 -2.198754 4.092163
H 75.153314 0.062761 0.888078
H 77.005154 -2.898756 4.994230
H 76.977503 -3.064161 7.460343
H 76.805237 -1.826264 9.534259
H 76.127242 -0.283423 9.621880
H 75.259402 0.878554 7.686149
H 75.295921 1.026221 5.220911
H 78.808043 -0.413378 4.456247
H 80.564518 0.003624 2.634986
H 80.247059 -0.751578 -2.809076
H 78.263309 -0.408331 -4.627344
H 76.738361 0.408649 -0.791387
H 76.591512 3.002938 -4.393835
H 76.627371 3.838225 -6.718030
H 75.086403 2.076596 -9.482779
H 75.760877 3.530815 -8.955381
H 74.916987 0.121921 -8.063978
H 74.889840 -0.697282 -5.732045
H 73.083505 1.376688 -4.258365
H 71.326948 1.041872 -2.420259
C 86.503772 -0.022488 -0.004595
C 87.296417 -0.608646 1.236036
C 86.787924 -1.419079 2.230866
C 87.824538 -1.631592 3.175439
C 88.935558 -0.950716 2.723970
N 88.625710 -0.395566 1.507613
C 90.325283 -0.819552 3.471751
C 90.319424 -0.912205 4.950427
C 90.778992 -2.066084 5.594197
C 90.770315 -2.148165 6.989931
C 90.340702 -1.065517 7.762432
N 90.247192 -1.186486 9.159771
C 89.811215 0.055125 7.116122
C 89.819474 0.141850 5.720415
C 91.460010 -0.582260 2.761736
C 92.746982 -0.393060 3.399102
C 93.654658 -0.174115 2.453937
N 91.667975 -0.454205 1.416073
C 92.992350 -0.212357 1.165649
C 93.656456 -0.022488 -0.004595
C 92.863798 -0.072130 -1.375791
C 93.372104 -0.425277 -2.609471
C 92.335509 -0.248096 -3.561333
C 91.224685 0.200252 -2.878069
N 91.534637 0.231232 -1.541408
C 89.834991 0.615644 -3.513521
C 89.840673 1.112964 -4.909108
C 90.338296 2.386033 -5.201476
C 90.346156 2.856044 -6.518527
C 89.818625 2.079484 -7.554195
N 89.911892 2.518778 -8.886209
C 89.391365 0.779276 -7.270699
C 89.383006 0.305035 -5.955456
C 88.700289 0.553895 -2.767433
C 87.413298 0.978805 -3.278727
C 86.505599 0.807382 -2.323823
C 87.167910 0.264529 -1.154856
N 88.492338 0.141240 -1.480220
H 85.778460 -1.797218 2.285923
H 87.762211 -2.198754 4.092163
H 89.287693 0.062761 0.888078
H 91.139533 -2.898756 4.994230
H 91.111882 -3.064161 7.460343
H 90.939617 -1.826264 9.534259
H 90.261621 -0.283423 9.621880
H 89.393781 0.878554 7.686149
H 89.430300 1.026221 5.220911
H 92.942422 -0.413378 4.456247
H 94.698897 0.003624 2.634986
H 94.381438 -0.751578 -2.809076
H 92.397689 -0.408331 -4.627344
H 90.872740 0.408649 -0.791387
H 90.725891 3.002938 -4.393835
H 90.761750 3.838225 -6.718030
H 89.220782 2.076596 -9.482779
H 89.895256 3.530815 -8.955381
H 89.051367 0.121921 -8.063978
H 89.024220 -0.697282 -5.732045
H 87.217884 1.376688 -4.258365
H 85.461327 1.041872 -2.420259
C 100.638151 -0.022488 -0.004595
C 101.430796 -0.608646 1.236036
C 100.922303 -1.419079 2.230866
C 101.958917 -1.631592 3.175439
C 103.069937 -0.950716 2.723970
N 102.760090 -0.395566 1.507613
C 104.459662 -0.819552 3.471751
C 104.453804 -0.912205 4.950427
C 104.913371 -2.066084 5.594197
C 104.904694 -2.148165 6.989931
C 104.475081 -1.065517 7.762432
N 104.381572 -1.186486 9.159771
C 103.945594 0.055125 7.116122
C 103.953853 0.141850 5.720415
C 105.594389 -0.582260 2.761736
C 106.881361 -0.393060 3.399102
C 107.789037 -0.174115 2.453937
N 105.802355 -0.454205 1.416073
C 107.126730 -0.212357 1.165649
C 107.790836 -0.022488 -0.004595
C 106.998178 -0.072130 -1.375791
C 107.506483 -0.425277 -2.609471
C 106.469888 -0.248096 -3.561333
C 105.359065 0.200252 -2.878069
N 105.669016 0.231232 -1.541408
C 103.969371 0.615644 -3.513521
C 103.975052 1.112964 -4.909108
C 104.472675 2.386033 -5.201476
C 104.480535 2.856044 -6.518527
C 103.953004 2.079484 -7.554195
N 104.046272 2.518778 -8.886209
C 103.525744 0.779276 -7.270699
C 103.517385 0.305035 -5.955456
C 102.834668 0.553895 -2.767433
C 101.547677 0.978805 -3.278727
C 100.639978 0.807382 -2.323823
C 101.302289 0.264529 -1.154856
N 102.626717 0.141240 -1.480220
H 99.912839 -1.797218 2.285923
H 101.896590 -2.198754 4.092163
H 103.422072 0.062761 0.888078
H 105.273912 -2.898756 4.994230
H 105.246261 -3.064161 7.460343
H 105.073996 -1.826264 9.534259
H 104.396000 -0.283423 9.621880
H 103.528160 0.878554 7.686149
H 103.564679 1.026221 5.220911
H 107.076801 -0.413378 4.456247
H 108.833276 0.003624 2.634986
H 108.515817 -0.751578 -2.809076
H 106.532068 -0.408331 -4.627344
H 105.007119 0.408649 -0.791387
H 104.860270 3.002938 -4.393835
H 104.896129 3.838225 -6.718030
H 103.355161 2.076596 -9.482779
H 104.029635 3.530815 -8.955381
H 103.185746 0.121921 -8.063978
H 103.158599 -0.697282 -5.732045
H 101.352263 1.376688 -4.258365
H 99.595706 1.041872 -2.420259
