 xtb: 6.5.1 (b24c23e)
          07292214273D

318352  0     0  0            999 V2000
   59.8078   -0.0253    0.1224 C   0  0  0  0  0  0  0  0  0  0  0  0
   60.4172   -0.8951    1.0178 C   0  0  0  0  0  0  0  0  0  0  0  0
   59.7657   -1.7971    1.9046 C   0  0  0  0  0  0  0  0  0  0  0  0
   60.7282   -2.4581    2.6154 C   0  0  0  0  0  0  0  0  0  0  0  0
   61.9985   -1.9713    2.1954 C   0  0  0  0  0  0  0  0  0  0  0  0
   61.7601   -1.0409    1.2235 N   0  0  0  0  0  0  0  0  0  0  0  0
   63.2616   -2.3573    2.6607 C   0  0  0  0  0  0  0  0  0  0  0  0
   63.2956   -3.3632    3.7482 C   0  0  0  0  0  0  0  0  0  0  0  0
   63.9533   -4.5826    3.5665 C   0  0  0  0  0  0  0  0  0  0  0  0
   63.9836   -5.5299    4.5742 C   0  0  0  0  0  0  0  0  0  0  0  0
   63.3658   -5.2696    5.8001 C   0  0  0  0  0  0  0  0  0  0  0  0
   63.3606   -6.2302    6.7968 N   0  0  0  0  0  0  0  0  0  0  0  0
   62.7025   -4.0544    5.9889 C   0  0  0  0  0  0  0  0  0  0  0  0
   62.6686   -3.1166    4.9720 C   0  0  0  0  0  0  0  0  0  0  0  0
   64.4750   -1.8632    2.1739 C   0  0  0  0  0  0  0  0  0  0  0  0
   65.7713   -2.2126    2.7258 C   0  0  0  0  0  0  0  0  0  0  0  0
   66.6907   -1.5487    1.9942 C   0  0  0  0  0  0  0  0  0  0  0  0
   64.6282   -0.9866    1.1431 N   0  0  0  0  0  0  0  0  0  0  0  0
   65.9546   -0.7895    1.0026 C   0  0  0  0  0  0  0  0  0  0  0  0
   66.5908    0.0091    0.0303 C   0  0  0  0  0  0  0  0  0  0  0  0
   65.9541    0.8043   -0.9419 C   0  0  0  0  0  0  0  0  0  0  0  0
   66.5972    1.5731   -1.9473 C   0  0  0  0  0  0  0  0  0  0  0  0
   65.6303    2.2188   -2.6678 C   0  0  0  0  0  0  0  0  0  0  0  0
   64.3663    1.8722   -2.1160 C   0  0  0  0  0  0  0  0  0  0  0  0
   64.6137    1.0051   -1.0842 N   0  0  0  0  0  0  0  0  0  0  0  0
   63.1052    2.3089   -2.5384 C   0  0  0  0  0  0  0  0  0  0  0  0
   63.0722    3.2900   -3.6472 C   0  0  0  0  0  0  0  0  0  0  0  0
   62.3925    3.0013   -4.8335 C   0  0  0  0  0  0  0  0  0  0  0  0
   62.3629    3.9119   -5.8745 C   0  0  0  0  0  0  0  0  0  0  0  0
   63.0043    5.1465   -5.7450 C   0  0  0  0  0  0  0  0  0  0  0  0
   63.0105    6.0438   -6.7988 N   0  0  0  0  0  0  0  0  0  0  0  0
   63.6896    5.4420   -4.5637 C   0  0  0  0  0  0  0  0  0  0  0  0
   63.7221    4.5216   -3.5312 C   0  0  0  0  0  0  0  0  0  0  0  0
   61.8907    1.8835   -1.9872 C   0  0  0  0  0  0  0  0  0  0  0  0
   60.5881    2.3927   -2.3861 C   0  0  0  0  0  0  0  0  0  0  0  0
   59.6756    1.7345   -1.6425 C   0  0  0  0  0  0  0  0  0  0  0  0
   60.4200    0.8337   -0.7810 C   0  0  0  0  0  0  0  0  0  0  0  0
   61.7509    0.9595   -1.0073 N   0  0  0  0  0  0  0  0  0  0  0  0
   58.7223   -0.0249    0.1361 H   0  0  0  0  0  0  0  0  0  0  0  0
   58.6967   -1.9212    1.9742 H   0  0  0  0  0  0  0  0  0  0  0  0
   60.5764   -3.2233    3.3592 H   0  0  0  0  0  0  0  0  0  0  0  0
   62.4855   -0.5378    0.7235 H   0  0  0  0  0  0  0  0  0  0  0  0
   64.4276   -4.7955    2.6148 H   0  0  0  0  0  0  0  0  0  0  0  0
   64.4878   -6.4771    4.4168 H   0  0  0  0  0  0  0  0  0  0  0  0
   63.2054   -5.8769    7.7275 H   0  0  0  0  0  0  0  0  0  0  0  0
   64.1040   -6.9078    6.7381 H   0  0  0  0  0  0  0  0  0  0  0  0
   62.2188   -3.8476    6.9373 H   0  0  0  0  0  0  0  0  0  0  0  0
   62.1692   -2.1675    5.1347 H   0  0  0  0  0  0  0  0  0  0  0  0
   65.9341   -2.8636    3.5695 H   0  0  0  0  0  0  0  0  0  0  0  0
   67.7638   -1.5501    2.1003 H   0  0  0  0  0  0  0  0  0  0  0  0
   67.6640    1.6152   -2.0973 H   0  0  0  0  0  0  0  0  0  0  0  0
   65.7772    2.8689   -3.5148 H   0  0  0  0  0  0  0  0  0  0  0  0
   63.8923    0.5726   -0.5166 H   0  0  0  0  0  0  0  0  0  0  0  0
   61.9014    2.0410   -4.9464 H   0  0  0  0  0  0  0  0  0  0  0  0
   61.8417    3.6710   -6.7946 H   0  0  0  0  0  0  0  0  0  0  0  0
   62.2563    5.9324   -7.4575 H   0  0  0  0  0  0  0  0  0  0  0  0
   63.1884    7.0016   -6.5417 H   0  0  0  0  0  0  0  0  0  0  0  0
   64.1916    6.3975   -4.4580 H   0  0  0  0  0  0  0  0  0  0  0  0
   64.2389    4.7679   -2.6099 H   0  0  0  0  0  0  0  0  0  0  0  0
   60.4193    3.1607   -3.1239 H   0  0  0  0  0  0  0  0  0  0  0  0
   58.6013    1.8348   -1.6470 H   0  0  0  0  0  0  0  0  0  0  0  0
  120.3507    0.0813   -0.0806 C   0  0  0  0  0  0  0  0  0  0  0  0
  119.7429    0.7200   -1.1540 C   0  0  0  0  0  0  0  0  0  0  0  0
  120.3963    1.3405   -2.2551 C   0  0  0  0  0  0  0  0  0  0  0  0
  119.4351    1.8512   -3.0820 C   0  0  0  0  0  0  0  0  0  0  0  0
  118.1637    1.5693   -2.5067 C   0  0  0  0  0  0  0  0  0  0  0  0
  118.4002    0.8779   -1.3521 N   0  0  0  0  0  0  0  0  0  0  0  0
  116.9014    1.9050   -3.0113 C   0  0  0  0  0  0  0  0  0  0  0  0
  116.8717    2.6895   -4.2684 C   0  0  0  0  0  0  0  0  0  0  0  0
  116.2347    2.1877   -5.4061 C   0  0  0  0  0  0  0  0  0  0  0  0
  116.2069    2.9149   -6.5827 C   0  0  0  0  0  0  0  0  0  0  0  0
  116.8065    4.1756   -6.6424 C   0  0  0  0  0  0  0  0  0  0  0  0
  116.8135    4.8899   -7.8283 N   0  0  0  0  0  0  0  0  0  0  0  0
  117.4504    4.6824   -5.5108 C   0  0  0  0  0  0  0  0  0  0  0  0
  117.4819    3.9441   -4.3409 C   0  0  0  0  0  0  0  0  0  0  0  0
  115.6864    1.5575   -2.4149 C   0  0  0  0  0  0  0  0  0  0  0  0
  114.3896    1.9739   -2.9167 C   0  0  0  0  0  0  0  0  0  0  0  0
  113.4689    1.4495   -2.0808 C   0  0  0  0  0  0  0  0  0  0  0  0
  115.5318    0.8130   -1.2850 N   0  0  0  0  0  0  0  0  0  0  0  0
  114.2047    0.7235   -1.0644 C   0  0  0  0  0  0  0  0  0  0  0  0
  113.5672    0.0368   -0.0108 C   0  0  0  0  0  0  0  0  0  0  0  0
  114.2014   -0.6534    1.0401 C   0  0  0  0  0  0  0  0  0  0  0  0
  113.5546   -1.3838    2.0714 C   0  0  0  0  0  0  0  0  0  0  0  0
  114.5199   -1.9089    2.8858 C   0  0  0  0  0  0  0  0  0  0  0  0
  115.7870   -1.5040    2.3829 C   0  0  0  0  0  0  0  0  0  0  0  0
  115.5422   -0.7540    1.2623 N   0  0  0  0  0  0  0  0  0  0  0  0
  117.0484   -1.8189    2.9012 C   0  0  0  0  0  0  0  0  0  0  0  0
  117.0823   -2.6293    4.1405 C   0  0  0  0  0  0  0  0  0  0  0  0
  117.7332   -3.8657    4.1614 C   0  0  0  0  0  0  0  0  0  0  0  0
  117.7644   -4.6326    5.3122 C   0  0  0  0  0  0  0  0  0  0  0  0
  117.1540   -4.1690    6.4805 C   0  0  0  0  0  0  0  0  0  0  0  0
  117.1489   -4.9510    7.6225 N   0  0  0  0  0  0  0  0  0  0  0  0
  116.4981   -2.9354    6.4677 C   0  0  0  0  0  0  0  0  0  0  0  0
  116.4634   -2.1792    5.3095 C   0  0  0  0  0  0  0  0  0  0  0  0
  118.2643   -1.4263    2.3293 C   0  0  0  0  0  0  0  0  0  0  0  0
  119.5679   -1.6978    2.9142 C   0  0  0  0  0  0  0  0  0  0  0  0
  120.4816   -1.1660    2.0769 C   0  0  0  0  0  0  0  0  0  0  0  0
  119.7373   -0.5609    0.9871 C   0  0  0  0  0  0  0  0  0  0  0  0
  118.4053   -0.7281    1.1777 N   0  0  0  0  0  0  0  0  0  0  0  0
  121.4362    0.0885   -0.0859 H   0  0  0  0  0  0  0  0  0  0  0  0
  121.4656    1.3776   -2.3897 H   0  0  0  0  0  0  0  0  0  0  0  0
  119.5882    2.3690   -4.0150 H   0  0  0  0  0  0  0  0  0  0  0  0
  117.6736    0.5266   -0.7373 H   0  0  0  0  0  0  0  0  0  0  0  0
  115.7745    1.2064   -5.3703 H   0  0  0  0  0  0  0  0  0  0  0  0
  115.7185    2.5099   -7.4623 H   0  0  0  0  0  0  0  0  0  0  0  0
  116.9527    5.8825   -7.7257 H   0  0  0  0  0  0  0  0  0  0  0  0
  116.0797    4.6473   -8.4747 H   0  0  0  0  0  0  0  0  0  0  0  0
  117.9206    5.6589   -5.5517 H   0  0  0  0  0  0  0  0  0  0  0  0
  117.9661    4.3541   -3.4612 H   0  0  0  0  0  0  0  0  0  0  0  0
  114.2267    2.5970   -3.7812 H   0  0  0  0  0  0  0  0  0  0  0  0
  112.3951    1.5397   -2.1210 H   0  0  0  0  0  0  0  0  0  0  0  0
  112.4864   -1.4959    2.1649 H   0  0  0  0  0  0  0  0  0  0  0  0
  114.3696   -2.5327    3.7518 H   0  0  0  0  0  0  0  0  0  0  0  0
  116.2658   -0.3488    0.6777 H   0  0  0  0  0  0  0  0  0  0  0  0
  118.2003   -4.2374    3.2559 H   0  0  0  0  0  0  0  0  0  0  0  0
  118.2629   -5.5958    5.3120 H   0  0  0  0  0  0  0  0  0  0  0  0
  117.8865   -5.6353    7.6736 H   0  0  0  0  0  0  0  0  0  0  0  0
  116.9988   -4.4486    8.4827 H   0  0  0  0  0  0  0  0  0  0  0  0
  116.0204   -2.5711    7.3708 H   0  0  0  0  0  0  0  0  0  0  0  0
  115.9700   -1.2133    5.3147 H   0  0  0  0  0  0  0  0  0  0  0  0
  119.7367   -2.2108    3.8474 H   0  0  0  0  0  0  0  0  0  0  0  0
  121.5568   -1.1597    2.1662 H   0  0  0  0  0  0  0  0  0  0  0  0
   69.2189    0.0369    0.0018 C   0  0  0  0  0  0  0  0  0  0  0  0
   67.9967    0.0207    0.0168 C   0  0  0  0  0  0  0  0  0  0  0  0
   70.5681    0.0500   -0.0049 C   0  0  0  0  0  0  0  0  0  0  0  0
   71.7907    0.0643   -0.0125 C   0  0  0  0  0  0  0  0  0  0  0  0
   82.6752    0.0766   -0.0015 C   0  0  0  0  0  0  0  0  0  0  0  0
   81.4521    0.0731   -0.0013 C   0  0  0  0  0  0  0  0  0  0  0  0
   84.0232    0.0822    0.0019 C   0  0  0  0  0  0  0  0  0  0  0  0
   85.2463    0.0900    0.0023 C   0  0  0  0  0  0  0  0  0  0  0  0
   96.1328    0.0560    0.0200 C   0  0  0  0  0  0  0  0  0  0  0  0
   94.9097    0.0566    0.0215 C   0  0  0  0  0  0  0  0  0  0  0  0
   97.4809    0.0575    0.0242 C   0  0  0  0  0  0  0  0  0  0  0  0
   98.7040    0.0618    0.0235 C   0  0  0  0  0  0  0  0  0  0  0  0
  109.5895    0.0206    0.0240 C   0  0  0  0  0  0  0  0  0  0  0  0
  108.3670    0.0193    0.0317 C   0  0  0  0  0  0  0  0  0  0  0  0
  110.9388    0.0236    0.0165 C   0  0  0  0  0  0  0  0  0  0  0  0
  112.1612    0.0305    0.0033 C   0  0  0  0  0  0  0  0  0  0  0  0
   73.1957    0.0718   -0.0098 C   0  0  0  0  0  0  0  0  0  0  0  0
   73.8194   -0.2808    1.2031 C   0  0  0  0  0  0  0  0  0  0  0  0
   73.1676   -0.6679    2.4018 C   0  0  0  0  0  0  0  0  0  0  0  0
   74.1289   -0.8891    3.3507 C   0  0  0  0  0  0  0  0  0  0  0  0
   75.3956   -0.6334    2.7601 C   0  0  0  0  0  0  0  0  0  0  0  0
   75.1583   -0.2827    1.4576 N   0  0  0  0  0  0  0  0  0  0  0  0
   76.6520   -0.7249    3.3743 C   0  0  0  0  0  0  0  0  0  0  0  0
   76.6598   -1.0593    4.8180 C   0  0  0  0  0  0  0  0  0  0  0  0
   77.3184   -2.2005    5.2827 C   0  0  0  0  0  0  0  0  0  0  0  0
   77.3260   -2.5164    6.6296 C   0  0  0  0  0  0  0  0  0  0  0  0
   76.6839   -1.6831    7.5492 C   0  0  0  0  0  0  0  0  0  0  0  0
   76.6573   -2.0153    8.8925 N   0  0  0  0  0  0  0  0  0  0  0  0
   76.0185   -0.5426    7.0923 C   0  0  0  0  0  0  0  0  0  0  0  0
   76.0072   -0.2396    5.7424 C   0  0  0  0  0  0  0  0  0  0  0  0
   77.8773   -0.5235    2.7357 C   0  0  0  0  0  0  0  0  0  0  0  0
   79.1595   -0.5567    3.4152 C   0  0  0  0  0  0  0  0  0  0  0  0
   80.0992   -0.3381    2.4714 C   0  0  0  0  0  0  0  0  0  0  0  0
   78.0584   -0.2628    1.4109 N   0  0  0  0  0  0  0  0  0  0  0  0
   79.3889   -0.1600    1.2212 C   0  0  0  0  0  0  0  0  0  0  0  0
   80.0482    0.0720   -0.0036 C   0  0  0  0  0  0  0  0  0  0  0  0
   79.4244    0.3069   -1.2450 C   0  0  0  0  0  0  0  0  0  0  0  0
   80.0763    0.4930   -2.4907 C   0  0  0  0  0  0  0  0  0  0  0  0
   79.1148    0.7117   -3.4400 C   0  0  0  0  0  0  0  0  0  0  0  0
   77.8478    0.6775   -2.7975 C   0  0  0  0  0  0  0  0  0  0  0  0
   78.0856    0.4165   -1.4740 N   0  0  0  0  0  0  0  0  0  0  0  0
   76.5912    0.8661   -3.3878 C   0  0  0  0  0  0  0  0  0  0  0  0
   76.5800    1.1889   -4.8341 C   0  0  0  0  0  0  0  0  0  0  0  0
   77.2347    2.3238   -5.3193 C   0  0  0  0  0  0  0  0  0  0  0  0
   77.2232    2.6270   -6.6693 C   0  0  0  0  0  0  0  0  0  0  0  0
   76.5560    1.7926   -7.5697 C   0  0  0  0  0  0  0  0  0  0  0  0
   76.5841    2.0651   -8.9264 N   0  0  0  0  0  0  0  0  0  0  0  0
   75.9102    0.6483   -7.0943 C   0  0  0  0  0  0  0  0  0  0  0  0
   75.9176    0.3583   -5.7417 C   0  0  0  0  0  0  0  0  0  0  0  0
   75.3664    0.7704   -2.7231 C   0  0  0  0  0  0  0  0  0  0  0  0
   74.0849    1.0507   -3.3446 C   0  0  0  0  0  0  0  0  0  0  0  0
   73.1451    0.8297   -2.4014 C   0  0  0  0  0  0  0  0  0  0  0  0
   73.8545    0.4249   -1.2047 C   0  0  0  0  0  0  0  0  0  0  0  0
   75.1855    0.4139   -1.4215 N   0  0  0  0  0  0  0  0  0  0  0  0
   72.1000   -0.7671    2.5147 H   0  0  0  0  0  0  0  0  0  0  0  0
   73.9749   -1.2120    4.3674 H   0  0  0  0  0  0  0  0  0  0  0  0
   75.8814   -0.0626    0.7809 H   0  0  0  0  0  0  0  0  0  0  0  0
   77.8115   -2.8572    4.5743 H   0  0  0  0  0  0  0  0  0  0  0  0
   77.8315   -3.4110    6.9766 H   0  0  0  0  0  0  0  0  0  0  0  0
   77.4003   -2.6246    9.1953 H   0  0  0  0  0  0  0  0  0  0  0  0
   76.4820   -1.2453    9.5181 H   0  0  0  0  0  0  0  0  0  0  0  0
   75.5154    0.1065    7.8007 H   0  0  0  0  0  0  0  0  0  0  0  0
   75.5055    0.6585    5.3986 H   0  0  0  0  0  0  0  0  0  0  0  0
   79.3007   -0.7102    4.4728 H   0  0  0  0  0  0  0  0  0  0  0  0
   81.1703   -0.2877    2.5866 H   0  0  0  0  0  0  0  0  0  0  0  0
   81.1439    0.4554   -2.6356 H   0  0  0  0  0  0  0  0  0  0  0  0
   79.2689    0.8711   -4.4947 H   0  0  0  0  0  0  0  0  0  0  0  0
   77.3625    0.3106   -0.7703 H   0  0  0  0  0  0  0  0  0  0  0  0
   77.7384    2.9875   -4.6250 H   0  0  0  0  0  0  0  0  0  0  0  0
   77.7284    3.5153   -7.0325 H   0  0  0  0  0  0  0  0  0  0  0  0
   75.8407    1.6444   -9.4606 H   0  0  0  0  0  0  0  0  0  0  0  0
   76.7614    3.0280   -9.1638 H   0  0  0  0  0  0  0  0  0  0  0  0
   75.4027   -0.0107   -7.7902 H   0  0  0  0  0  0  0  0  0  0  0  0
   75.4218   -0.5364   -5.3815 H   0  0  0  0  0  0  0  0  0  0  0  0
   73.9449    1.3872   -4.3591 H   0  0  0  0  0  0  0  0  0  0  0  0
   72.0744    0.9319   -2.4803 H   0  0  0  0  0  0  0  0  0  0  0  0
   86.6502    0.0932    0.0079 C   0  0  0  0  0  0  0  0  0  0  0  0
   87.2718   -0.2042    1.2370 C   0  0  0  0  0  0  0  0  0  0  0  0
   86.6171   -0.5367    2.4502 C   0  0  0  0  0  0  0  0  0  0  0  0
   87.5772   -0.7376    3.4049 C   0  0  0  0  0  0  0  0  0  0  0  0
   88.8462   -0.5227    2.8030 C   0  0  0  0  0  0  0  0  0  0  0  0
   88.6109   -0.2131    1.4897 N   0  0  0  0  0  0  0  0  0  0  0  0
   90.1029   -0.6202    3.4155 C   0  0  0  0  0  0  0  0  0  0  0  0
   90.1104   -0.9244    4.8661 C   0  0  0  0  0  0  0  0  0  0  0  0
   90.7477   -2.0702    5.3490 C   0  0  0  0  0  0  0  0  0  0  0  0
   90.7552   -2.3614    6.7013 C   0  0  0  0  0  0  0  0  0  0  0  0
   90.1347   -1.4981    7.6080 C   0  0  0  0  0  0  0  0  0  0  0  0
   90.1078   -1.8052    8.9574 N   0  0  0  0  0  0  0  0  0  0  0  0
   89.4908   -0.3527    7.1329 C   0  0  0  0  0  0  0  0  0  0  0  0
   89.4793   -0.0744    5.7777 C   0  0  0  0  0  0  0  0  0  0  0  0
   91.3300   -0.4552    2.7697 C   0  0  0  0  0  0  0  0  0  0  0  0
   92.6124   -0.4927    3.4485 C   0  0  0  0  0  0  0  0  0  0  0  0
   93.5539   -0.3056    2.4998 C   0  0  0  0  0  0  0  0  0  0  0  0
   91.5130   -0.2253    1.4396 N   0  0  0  0  0  0  0  0  0  0  0  0
   92.8448   -0.1431    1.2469 C   0  0  0  0  0  0  0  0  0  0  0  0
   93.5058    0.0617    0.0183 C   0  0  0  0  0  0  0  0  0  0  0  0
   92.8836    0.2759   -1.2278 C   0  0  0  0  0  0  0  0  0  0  0  0
   93.5372    0.4407   -2.4754 C   0  0  0  0  0  0  0  0  0  0  0  0
   92.5768    0.6400   -3.4302 C   0  0  0  0  0  0  0  0  0  0  0  0
   91.3090    0.6134   -2.7896 C   0  0  0  0  0  0  0  0  0  0  0  0
   91.5449    0.3785   -1.4609 N   0  0  0  0  0  0  0  0  0  0  0  0
   90.0529    0.7806   -3.3878 C   0  0  0  0  0  0  0  0  0  0  0  0
   90.0459    1.0736   -4.8408 C   0  0  0  0  0  0  0  0  0  0  0  0
   90.6872    2.2084   -5.3437 C   0  0  0  0  0  0  0  0  0  0  0  0
   90.6784    2.4866   -6.6990 C   0  0  0  0  0  0  0  0  0  0  0  0
   90.0273    1.6265   -7.5870 C   0  0  0  0  0  0  0  0  0  0  0  0
   90.0579    1.8745   -8.9483 N   0  0  0  0  0  0  0  0  0  0  0  0
   89.3957    0.4818   -7.0936 C   0  0  0  0  0  0  0  0  0  0  0  0
   89.4003    0.2168   -5.7359 C   0  0  0  0  0  0  0  0  0  0  0  0
   88.8263    0.6917   -2.7266 C   0  0  0  0  0  0  0  0  0  0  0  0
   87.5450    0.9395   -3.3620 C   0  0  0  0  0  0  0  0  0  0  0  0
   86.6034    0.7438   -2.4150 C   0  0  0  0  0  0  0  0  0  0  0  0
   87.3116    0.3890   -1.2019 C   0  0  0  0  0  0  0  0  0  0  0  0
   88.6428    0.3778   -1.4137 N   0  0  0  0  0  0  0  0  0  0  0  0
   85.5485   -0.6167    2.5682 H   0  0  0  0  0  0  0  0  0  0  0  0
   87.4206   -1.0214    4.4327 H   0  0  0  0  0  0  0  0  0  0  0  0
   89.3354   -0.0295    0.8037 H   0  0  0  0  0  0  0  0  0  0  0  0
   91.2239   -2.7496    4.6506 H   0  0  0  0  0  0  0  0  0  0  0  0
   91.2438   -3.2596    7.0627 H   0  0  0  0  0  0  0  0  0  0  0  0
   90.8397   -2.4243    9.2674 H   0  0  0  0  0  0  0  0  0  0  0  0
   89.9524   -1.0201    9.5695 H   0  0  0  0  0  0  0  0  0  0  0  0
   89.0044    0.3196    7.8314 H   0  0  0  0  0  0  0  0  0  0  0  0
   88.9946    0.8274    5.4195 H   0  0  0  0  0  0  0  0  0  0  0  0
   92.7527   -0.6269    4.5089 H   0  0  0  0  0  0  0  0  0  0  0  0
   94.6257   -0.2676    2.6130 H   0  0  0  0  0  0  0  0  0  0  0  0
   94.6052    0.4029   -2.6177 H   0  0  0  0  0  0  0  0  0  0  0  0
   92.7323    0.7812   -4.4873 H   0  0  0  0  0  0  0  0  0  0  0  0
   90.8209    0.2851   -0.7563 H   0  0  0  0  0  0  0  0  0  0  0  0
   91.1783    2.8915   -4.6591 H   0  0  0  0  0  0  0  0  0  0  0  0
   91.1729    3.3751   -7.0761 H   0  0  0  0  0  0  0  0  0  0  0  0
   89.3221    1.4345   -9.4777 H   0  0  0  0  0  0  0  0  0  0  0  0
   90.2233    2.8352   -9.2026 H   0  0  0  0  0  0  0  0  0  0  0  0
   88.9011   -0.1970   -7.7797 H   0  0  0  0  0  0  0  0  0  0  0  0
   88.9154   -0.6780   -5.3615 H   0  0  0  0  0  0  0  0  0  0  0  0
   87.4059    1.2386   -4.3883 H   0  0  0  0  0  0  0  0  0  0  0  0
   85.5324    0.8348   -2.5015 H   0  0  0  0  0  0  0  0  0  0  0  0
  100.1080    0.0599    0.0273 C   0  0  0  0  0  0  0  0  0  0  0  0
  100.7301   -0.2534    1.2520 C   0  0  0  0  0  0  0  0  0  0  0  0
  100.0753   -0.5966    2.4624 C   0  0  0  0  0  0  0  0  0  0  0  0
  101.0357   -0.8190    3.4118 C   0  0  0  0  0  0  0  0  0  0  0  0
  102.3054   -0.6072    2.8099 C   0  0  0  0  0  0  0  0  0  0  0  0
  102.0696   -0.2764    1.5017 N   0  0  0  0  0  0  0  0  0  0  0  0
  103.5623   -0.7278    3.4170 C   0  0  0  0  0  0  0  0  0  0  0  0
  103.5707   -1.0606    4.8615 C   0  0  0  0  0  0  0  0  0  0  0  0
  104.1924   -2.2251    5.3192 C   0  0  0  0  0  0  0  0  0  0  0  0
  104.1992   -2.5437    6.6654 C   0  0  0  0  0  0  0  0  0  0  0  0
  103.5941   -1.6899    7.5912 C   0  0  0  0  0  0  0  0  0  0  0  0
  103.5654   -2.0243    8.9341 N   0  0  0  0  0  0  0  0  0  0  0  0
  102.9666   -0.5254    7.1414 C   0  0  0  0  0  0  0  0  0  0  0  0
  102.9554   -0.2196    5.7920 C   0  0  0  0  0  0  0  0  0  0  0  0
  104.7894   -0.5607    2.7712 C   0  0  0  0  0  0  0  0  0  0  0  0
  106.0732   -0.6250    3.4456 C   0  0  0  0  0  0  0  0  0  0  0  0
  107.0137   -0.4193    2.4999 C   0  0  0  0  0  0  0  0  0  0  0  0
  104.9706   -0.2992    1.4471 N   0  0  0  0  0  0  0  0  0  0  0  0
  106.3028   -0.2191    1.2532 C   0  0  0  0  0  0  0  0  0  0  0  0
  106.9618    0.0227    0.0311 C   0  0  0  0  0  0  0  0  0  0  0  0
  106.3396    0.2711   -1.2081 C   0  0  0  0  0  0  0  0  0  0  0  0
  106.9938    0.4673   -2.4512 C   0  0  0  0  0  0  0  0  0  0  0  0
  106.0333    0.6774   -3.4035 C   0  0  0  0  0  0  0  0  0  0  0  0
  104.7646    0.6272   -2.7656 C   0  0  0  0  0  0  0  0  0  0  0  0
  105.0004    0.3695   -1.4412 N   0  0  0  0  0  0  0  0  0  0  0  0
  103.5078    0.7911   -3.3629 C   0  0  0  0  0  0  0  0  0  0  0  0
  103.4981    1.0985   -4.8130 C   0  0  0  0  0  0  0  0  0  0  0  0
  104.1265    2.2446   -5.3060 C   0  0  0  0  0  0  0  0  0  0  0  0
  104.1133    2.5349   -6.6589 C   0  0  0  0  0  0  0  0  0  0  0  0
  103.4706    1.6760   -7.5541 C   0  0  0  0  0  0  0  0  0  0  0  0
  103.4964    1.9372   -8.9131 N   0  0  0  0  0  0  0  0  0  0  0  0
  102.8524    0.5199   -7.0707 C   0  0  0  0  0  0  0  0  0  0  0  0
  102.8614    0.2426   -5.7155 C   0  0  0  0  0  0  0  0  0  0  0  0
  102.2817    0.6860   -2.7031 C   0  0  0  0  0  0  0  0  0  0  0  0
  100.9993    0.9343   -3.3363 C   0  0  0  0  0  0  0  0  0  0  0  0
  100.0587    0.7283   -2.3906 C   0  0  0  0  0  0  0  0  0  0  0  0
  100.7685    0.3653   -1.1807 C   0  0  0  0  0  0  0  0  0  0  0  0
  102.0996    0.3592   -1.3933 N   0  0  0  0  0  0  0  0  0  0  0  0
   99.0063   -0.6690    2.5817 H   0  0  0  0  0  0  0  0  0  0  0  0
  100.8791   -1.1154    4.4361 H   0  0  0  0  0  0  0  0  0  0  0  0
  102.7943   -0.0891    0.8169 H   0  0  0  0  0  0  0  0  0  0  0  0
  104.6566   -2.8971    4.6058 H   0  0  0  0  0  0  0  0  0  0  0  0
  104.6753   -3.4563    7.0070 H   0  0  0  0  0  0  0  0  0  0  0  0
  104.2885   -2.6606    9.2296 H   0  0  0  0  0  0  0  0  0  0  0  0
  103.4235   -1.2498    9.5626 H   0  0  0  0  0  0  0  0  0  0  0  0
  102.4926    0.1399    7.8548 H   0  0  0  0  0  0  0  0  0  0  0  0
  102.4832    0.6963    5.4537 H   0  0  0  0  0  0  0  0  0  0  0  0
  106.2149   -0.7880    4.5018 H   0  0  0  0  0  0  0  0  0  0  0  0
  108.0859   -0.3911    2.6113 H   0  0  0  0  0  0  0  0  0  0  0  0
  108.0622    0.4407   -2.5926 H   0  0  0  0  0  0  0  0  0  0  0  0
  106.1893    0.8408   -4.4572 H   0  0  0  0  0  0  0  0  0  0  0  0
  104.2760    0.2556   -0.7402 H   0  0  0  0  0  0  0  0  0  0  0  0
  104.6106    2.9270   -4.6158 H   0  0  0  0  0  0  0  0  0  0  0  0
  104.5976    3.4323   -7.0283 H   0  0  0  0  0  0  0  0  0  0  0  0
  102.7650    1.4937   -9.4455 H   0  0  0  0  0  0  0  0  0  0  0  0
  103.6499    2.9023   -9.1582 H   0  0  0  0  0  0  0  0  0  0  0  0
  102.3646   -0.1581   -7.7625 H   0  0  0  0  0  0  0  0  0  0  0  0
  102.3866   -0.6608   -5.3488 H   0  0  0  0  0  0  0  0  0  0  0  0
  100.8590    1.2411   -4.3601 H   0  0  0  0  0  0  0  0  0  0  0  0
   98.9874    0.8166   -2.4760 H   0  0  0  0  0  0  0  0  0  0  0  0
  1  2  4  0  0  0  0
  2  3  4  0  0  0  0
  3  4  2  0  0  0  0
  4  5  4  0  0  0  0
  2  6  4  0  0  0  0
  5  6  4  0  0  0  0
  5  7  4  0  0  0  0
  7  8  1  0  0  0  0
  8  9  4  0  0  0  0
  9 10  4  0  0  0  0
 10 11  4  0  0  0  0
 11 12  1  0  0  0  0
 11 13  4  0  0  0  0
  8 14  4  0  0  0  0
 13 14  4  0  0  0  0
  7 15  4  0  0  0  0
 15 16  1  0  0  0  0
 16 17  2  0  0  0  0
 15 18  4  0  0  0  0
 17 19  1  0  0  0  0
 18 19  4  0  0  0  0
 19 20  4  0  0  0  0
 20 21  4  0  0  0  0
 21 22  4  0  0  0  0
 22 23  2  0  0  0  0
 23 24  4  0  0  0  0
 21 25  4  0  0  0  0
 24 25  4  0  0  0  0
 24 26  4  0  0  0  0
 26 27  1  0  0  0  0
 27 28  4  0  0  0  0
 28 29  4  0  0  0  0
 29 30  4  0  0  0  0
 30 31  1  0  0  0  0
 30 32  4  0  0  0  0
 27 33  4  0  0  0  0
 32 33  4  0  0  0  0
 26 34  4  0  0  0  0
 34 35  1  0  0  0  0
 35 36  2  0  0  0  0
  1 37  4  0  0  0  0
 36 37  1  0  0  0  0
 34 38  4  0  0  0  0
 37 38  4  0  0  0  0
  1 39  1  0  0  0  0
  3 40  1  0  0  0  0
  4 41  1  0  0  0  0
  6 42  1  0  0  0  0
  9 43  1  0  0  0  0
 10 44  1  0  0  0  0
 12 45  1  0  0  0  0
 12 46  1  0  0  0  0
 13 47  1  0  0  0  0
 14 48  1  0  0  0  0
 16 49  1  0  0  0  0
 17 50  1  0  0  0  0
 22 51  1  0  0  0  0
 23 52  1  0  0  0  0
 25 53  1  0  0  0  0
 28 54  1  0  0  0  0
 29 55  1  0  0  0  0
 31 56  1  0  0  0  0
 31 57  1  0  0  0  0
 32 58  1  0  0  0  0
 33 59  1  0  0  0  0
 35 60  1  0  0  0  0
 36 61  1  0  0  0  0
 62 63  4  0  0  0  0
 63 64  4  0  0  0  0
 64 65  2  0  0  0  0
 65 66  4  0  0  0  0
 63 67  4  0  0  0  0
 66 67  4  0  0  0  0
 66 68  4  0  0  0  0
 68 69  1  0  0  0  0
 69 70  4  0  0  0  0
 70 71  4  0  0  0  0
 71 72  4  0  0  0  0
 72 73  1  0  0  0  0
 72 74  4  0  0  0  0
 69 75  4  0  0  0  0
 74 75  4  0  0  0  0
 68 76  4  0  0  0  0
 76 77  1  0  0  0  0
 77 78  2  0  0  0  0
 76 79  4  0  0  0  0
 78 80  1  0  0  0  0
 79 80  4  0  0  0  0
 80 81  4  0  0  0  0
 81 82  4  0  0  0  0
 82 83  4  0  0  0  0
 83 84  2  0  0  0  0
 84 85  4  0  0  0  0
 82 86  4  0  0  0  0
 85 86  4  0  0  0  0
 85 87  4  0  0  0  0
 87 88  1  0  0  0  0
 88 89  4  0  0  0  0
 89 90  4  0  0  0  0
 90 91  4  0  0  0  0
 91 92  1  0  0  0  0
 91 93  4  0  0  0  0
 88 94  4  0  0  0  0
 93 94  4  0  0  0  0
 87 95  4  0  0  0  0
 95 96  1  0  0  0  0
 96 97  2  0  0  0  0
 62 98  4  0  0  0  0
 97 98  1  0  0  0  0
 95 99  4  0  0  0  0
 98 99  4  0  0  0  0
 62100  1  0  0  0  0
 64101  1  0  0  0  0
 65102  1  0  0  0  0
 67103  1  0  0  0  0
 70104  1  0  0  0  0
 71105  1  0  0  0  0
 73106  1  0  0  0  0
 73107  1  0  0  0  0
 74108  1  0  0  0  0
 75109  1  0  0  0  0
 77110  1  0  0  0  0
 78111  1  0  0  0  0
 83112  1  0  0  0  0
 84113  1  0  0  0  0
 86114  1  0  0  0  0
 89115  1  0  0  0  0
 90116  1  0  0  0  0
 92117  1  0  0  0  0
 92118  1  0  0  0  0
 93119  1  0  0  0  0
 94120  1  0  0  0  0
 96121  1  0  0  0  0
 97122  1  0  0  0  0
 20124  4  0  0  0  0
123124  3  0  0  0  0
123125  4  0  0  0  0
125126  3  0  0  0  0
127128  3  0  0  0  0
127129  4  0  0  0  0
129130  3  0  0  0  0
131132  3  0  0  0  0
131133  4  0  0  0  0
133134  3  0  0  0  0
135136  3  0  0  0  0
135137  4  0  0  0  0
 81138  4  0  0  0  0
137138  3  0  0  0  0
126139  4  0  0  0  0
139140  4  0  0  0  0
140141  4  0  0  0  0
141142  2  0  0  0  0
142143  4  0  0  0  0
140144  4  0  0  0  0
143144  4  0  0  0  0
143145  4  0  0  0  0
145146  1  0  0  0  0
146147  4  0  0  0  0
147148  4  0  0  0  0
148149  4  0  0  0  0
149150  1  0  0  0  0
149151  4  0  0  0  0
146152  4  0  0  0  0
151152  4  0  0  0  0
145153  4  0  0  0  0
153154  1  0  0  0  0
154155  2  0  0  0  0
153156  4  0  0  0  0
155157  1  0  0  0  0
156157  4  0  0  0  0
128158  4  0  0  0  0
157158  4  0  0  0  0
158159  4  0  0  0  0
159160  4  0  0  0  0
160161  2  0  0  0  0
161162  4  0  0  0  0
159163  4  0  0  0  0
162163  4  0  0  0  0
162164  4  0  0  0  0
164165  1  0  0  0  0
165166  4  0  0  0  0
166167  4  0  0  0  0
167168  4  0  0  0  0
168169  1  0  0  0  0
168170  4  0  0  0  0
165171  4  0  0  0  0
170171  4  0  0  0  0
164172  4  0  0  0  0
172173  1  0  0  0  0
173174  2  0  0  0  0
139175  4  0  0  0  0
174175  1  0  0  0  0
172176  4  0  0  0  0
175176  4  0  0  0  0
141177  1  0  0  0  0
142178  1  0  0  0  0
144179  1  0  0  0  0
147180  1  0  0  0  0
148181  1  0  0  0  0
150182  1  0  0  0  0
150183  1  0  0  0  0
151184  1  0  0  0  0
152185  1  0  0  0  0
154186  1  0  0  0  0
155187  1  0  0  0  0
160188  1  0  0  0  0
161189  1  0  0  0  0
163190  1  0  0  0  0
166191  1  0  0  0  0
167192  1  0  0  0  0
169193  1  0  0  0  0
169194  1  0  0  0  0
170195  1  0  0  0  0
171196  1  0  0  0  0
173197  1  0  0  0  0
174198  1  0  0  0  0
130199  4  0  0  0  0
199200  4  0  0  0  0
200201  4  0  0  0  0
201202  2  0  0  0  0
202203  4  0  0  0  0
200204  4  0  0  0  0
203204  4  0  0  0  0
203205  4  0  0  0  0
205206  1  0  0  0  0
206207  4  0  0  0  0
207208  4  0  0  0  0
208209  4  0  0  0  0
209210  1  0  0  0  0
209211  4  0  0  0  0
206212  4  0  0  0  0
211212  4  0  0  0  0
205213  4  0  0  0  0
213214  1  0  0  0  0
214215  2  0  0  0  0
213216  4  0  0  0  0
215217  1  0  0  0  0
216217  4  0  0  0  0
132218  4  0  0  0  0
217218  4  0  0  0  0
218219  4  0  0  0  0
219220  4  0  0  0  0
220221  2  0  0  0  0
221222  4  0  0  0  0
219223  4  0  0  0  0
222223  4  0  0  0  0
222224  4  0  0  0  0
224225  1  0  0  0  0
225226  4  0  0  0  0
226227  4  0  0  0  0
227228  4  0  0  0  0
228229  1  0  0  0  0
228230  4  0  0  0  0
225231  4  0  0  0  0
230231  4  0  0  0  0
224232  4  0  0  0  0
232233  1  0  0  0  0
233234  2  0  0  0  0
199235  4  0  0  0  0
234235  1  0  0  0  0
232236  4  0  0  0  0
235236  4  0  0  0  0
201237  1  0  0  0  0
202238  1  0  0  0  0
204239  1  0  0  0  0
207240  1  0  0  0  0
208241  1  0  0  0  0
210242  1  0  0  0  0
210243  1  0  0  0  0
211244  1  0  0  0  0
212245  1  0  0  0  0
214246  1  0  0  0  0
215247  1  0  0  0  0
220248  1  0  0  0  0
221249  1  0  0  0  0
223250  1  0  0  0  0
226251  1  0  0  0  0
227252  1  0  0  0  0
229253  1  0  0  0  0
229254  1  0  0  0  0
230255  1  0  0  0  0
231256  1  0  0  0  0
233257  1  0  0  0  0
234258  1  0  0  0  0
134259  4  0  0  0  0
259260  4  0  0  0  0
260261  4  0  0  0  0
261262  2  0  0  0  0
262263  4  0  0  0  0
260264  4  0  0  0  0
263264  4  0  0  0  0
263265  4  0  0  0  0
265266  1  0  0  0  0
266267  4  0  0  0  0
267268  4  0  0  0  0
268269  4  0  0  0  0
269270  1  0  0  0  0
269271  4  0  0  0  0
266272  4  0  0  0  0
271272  4  0  0  0  0
265273  4  0  0  0  0
273274  1  0  0  0  0
274275  2  0  0  0  0
273276  4  0  0  0  0
275277  1  0  0  0  0
276277  4  0  0  0  0
136278  4  0  0  0  0
277278  4  0  0  0  0
278279  4  0  0  0  0
279280  4  0  0  0  0
280281  2  0  0  0  0
281282  4  0  0  0  0
279283  4  0  0  0  0
282283  4  0  0  0  0
282284  4  0  0  0  0
284285  1  0  0  0  0
285286  4  0  0  0  0
286287  4  0  0  0  0
287288  4  0  0  0  0
288289  1  0  0  0  0
288290  4  0  0  0  0
285291  4  0  0  0  0
290291  4  0  0  0  0
284292  4  0  0  0  0
292293  1  0  0  0  0
293294  2  0  0  0  0
259295  4  0  0  0  0
294295  1  0  0  0  0
292296  4  0  0  0  0
295296  4  0  0  0  0
261297  1  0  0  0  0
262298  1  0  0  0  0
264299  1  0  0  0  0
267300  1  0  0  0  0
268301  1  0  0  0  0
270302  1  0  0  0  0
270303  1  0  0  0  0
271304  1  0  0  0  0
272305  1  0  0  0  0
274306  1  0  0  0  0
275307  1  0  0  0  0
280308  1  0  0  0  0
281309  1  0  0  0  0
283310  1  0  0  0  0
286311  1  0  0  0  0
287312  1  0  0  0  0
289313  1  0  0  0  0
289314  1  0  0  0  0
290315  1  0  0  0  0
291316  1  0  0  0  0
293317  1  0  0  0  0
294318  1  0  0  0  0
M  END
