 xtb: 6.5.1 (b24c23e)
          07292215493D

 74 89  0     0  0            999 V2000
    9.0880   -0.0650    0.0131 Fe  0  0  0  0  0  0  0  0  0  0  0  0
    5.6773   -0.0506   -0.0403 C   0  0  0  0  0  0  0  0  0  0  0  0
    6.3351   -0.8966   -0.9097 C   0  0  0  0  0  0  0  0  0  0  0  0
    5.6679   -1.7828   -1.8182 C   0  0  0  0  0  0  0  0  0  0  0  0
    6.6336   -2.4866   -2.4545 C   0  0  0  0  0  0  0  0  0  0  0  0
    7.8880   -2.0282   -1.9333 C   0  0  0  0  0  0  0  0  0  0  0  0
    7.6937   -1.0407   -1.0058 N   0  0  0  0  0  0  0  0  0  0  0  0
    9.1105   -2.5514   -2.3052 C   0  0  0  0  0  0  0  0  0  0  0  0
   10.3228   -2.1221   -1.8084 C   0  0  0  0  0  0  0  0  0  0  0  0
   11.5825   -2.6840   -2.1927 C   0  0  0  0  0  0  0  0  0  0  0  0
   12.5368   -1.9788   -1.5392 C   0  0  0  0  0  0  0  0  0  0  0  0
   10.5067   -1.0887   -0.9225 N   0  0  0  0  0  0  0  0  0  0  0  0
   11.8569   -0.9890   -0.7600 C   0  0  0  0  0  0  0  0  0  0  0  0
   12.5176   -0.0159   -0.0032 C   0  0  0  0  0  0  0  0  0  0  0  0
   11.8382    0.9472    0.7499 C   0  0  0  0  0  0  0  0  0  0  0  0
   12.4998    1.9345    1.5480 C   0  0  0  0  0  0  0  0  0  0  0  0
   11.5314    2.6280    2.1928 C   0  0  0  0  0  0  0  0  0  0  0  0
   10.2814    2.0605    1.7860 C   0  0  0  0  0  0  0  0  0  0  0  0
   10.4847    1.0440    0.8843 N   0  0  0  0  0  0  0  0  0  0  0  0
    9.0601    2.4725    2.2751 C   0  0  0  0  0  0  0  0  0  0  0  0
    7.8468    1.9386    1.8884 C   0  0  0  0  0  0  0  0  0  0  0  0
    6.5826    2.3754    2.4044 C   0  0  0  0  0  0  0  0  0  0  0  0
    5.6309    1.6686    1.7507 C   0  0  0  0  0  0  0  0  0  0  0  0
    6.3164    0.8004    0.8384 C   0  0  0  0  0  0  0  0  0  0  0  0
    7.6715    0.9687    0.9391 N   0  0  0  0  0  0  0  0  0  0  0  0
    4.5932   -0.0579   -0.0449 H   0  0  0  0  0  0  0  0  0  0  0  0
    4.5974   -1.8458   -1.9334 H   0  0  0  0  0  0  0  0  0  0  0  0
    6.5284   -3.2527   -3.2064 H   0  0  0  0  0  0  0  0  0  0  0  0
    9.1174   -3.3554   -3.0326 H   0  0  0  0  0  0  0  0  0  0  0  0
   11.7011   -3.5093   -2.8766 H   0  0  0  0  0  0  0  0  0  0  0  0
   13.6074   -2.0998   -1.5773 H   0  0  0  0  0  0  0  0  0  0  0  0
   13.5691    2.0602    1.6044 H   0  0  0  0  0  0  0  0  0  0  0  0
   11.6345    3.4452    2.8889 H   0  0  0  0  0  0  0  0  0  0  0  0
    9.0522    3.2687    3.0111 H   0  0  0  0  0  0  0  0  0  0  0  0
    6.4620    3.1295    3.1661 H   0  0  0  0  0  0  0  0  0  0  0  0
    4.5588    1.7155    1.8593 H   0  0  0  0  0  0  0  0  0  0  0  0
   19.9782    0.0393    0.0534 Fe  0  0  0  0  0  0  0  0  0  0  0  0
   23.3889    0.0645    0.0042 C   0  0  0  0  0  0  0  0  0  0  0  0
   22.7312    1.2754   -0.0698 C   0  0  0  0  0  0  0  0  0  0  0  0
   23.3984    2.5423   -0.1456 C   0  0  0  0  0  0  0  0  0  0  0  0
   22.4327    3.4910   -0.1428 C   0  0  0  0  0  0  0  0  0  0  0  0
   21.1783    2.8013   -0.0656 C   0  0  0  0  0  0  0  0  0  0  0  0
   21.3725    1.4467   -0.0439 N   0  0  0  0  0  0  0  0  0  0  0  0
   19.9558    3.4385    0.0112 C   0  0  0  0  0  0  0  0  0  0  0  0
   18.7435    2.7868    0.0898 C   0  0  0  0  0  0  0  0  0  0  0  0
   17.4838    3.4609    0.1835 C   0  0  0  0  0  0  0  0  0  0  0  0
   16.5295    2.4996    0.1924 C   0  0  0  0  0  0  0  0  0  0  0  0
   18.5595    1.4261    0.0499 N   0  0  0  0  0  0  0  0  0  0  0  0
   17.2094    1.2430    0.1030 C   0  0  0  0  0  0  0  0  0  0  0  0
   16.5486    0.0139    0.0082 C   0  0  0  0  0  0  0  0  0  0  0  0
   17.2280   -1.2052   -0.0826 C   0  0  0  0  0  0  0  0  0  0  0  0
   16.5664   -2.4726   -0.1564 C   0  0  0  0  0  0  0  0  0  0  0  0
   17.5349   -3.4195   -0.1459 C   0  0  0  0  0  0  0  0  0  0  0  0
   18.7849   -2.7259   -0.0650 C   0  0  0  0  0  0  0  0  0  0  0  0
   18.5815   -1.3673   -0.0483 N   0  0  0  0  0  0  0  0  0  0  0  0
   20.0061   -3.3598    0.0197 C   0  0  0  0  0  0  0  0  0  0  0  0
   21.2194   -2.7048    0.0928 C   0  0  0  0  0  0  0  0  0  0  0  0
   22.4836   -3.3751    0.1807 C   0  0  0  0  0  0  0  0  0  0  0  0
   23.4354   -2.4123    0.1725 C   0  0  0  0  0  0  0  0  0  0  0  0
   22.7498   -1.1563    0.0817 C   0  0  0  0  0  0  0  0  0  0  0  0
   21.3947   -1.3485    0.0430 N   0  0  0  0  0  0  0  0  0  0  0  0
   24.4730    0.0731    0.0057 H   0  0  0  0  0  0  0  0  0  0  0  0
   24.4689    2.6663   -0.1885 H   0  0  0  0  0  0  0  0  0  0  0  0
   22.5379    4.5637   -0.1835 H   0  0  0  0  0  0  0  0  0  0  0  0
   19.9489    4.5228    0.0140 H   0  0  0  0  0  0  0  0  0  0  0  0
   17.3652    4.5317    0.2328 H   0  0  0  0  0  0  0  0  0  0  0  0
   15.4588    2.6147    0.2456 H   0  0  0  0  0  0  0  0  0  0  0  0
   15.4971   -2.6036   -0.1993 H   0  0  0  0  0  0  0  0  0  0  0  0
   17.4317   -4.4924   -0.1808 H   0  0  0  0  0  0  0  0  0  0  0  0
   20.0140   -4.4441    0.0285 H   0  0  0  0  0  0  0  0  0  0  0  0
   22.6042   -4.4454    0.2369 H   0  0  0  0  0  0  0  0  0  0  0  0
   24.5074   -2.5201    0.2213 H   0  0  0  0  0  0  0  0  0  0  0  0
   13.9246   -0.0083    0.0035 C   0  0  0  0  0  0  0  0  0  0  0  0
   15.1417    0.0038    0.0082 C   0  0  0  0  0  0  0  0  0  0  0  0
  2  3  4  0  0  0  0
  3  4  4  0  0  0  0
  4  5  2  0  0  0  0
  5  6  4  0  0  0  0
  1  7  1  0  0  0  0
  3  7  4  0  0  0  0
  6  7  4  0  0  0  0
  6  8  4  0  0  0  0
  8  9  4  0  0  0  0
  9 10  4  0  0  0  0
 10 11  2  0  0  0  0
  1 12  1  0  0  0  0
  9 12  4  0  0  0  0
 11 13  4  0  0  0  0
 12 13  4  0  0  0  0
 13 14  4  0  0  0  0
 14 15  4  0  0  0  0
 15 16  4  0  0  0  0
 16 17  2  0  0  0  0
 17 18  4  0  0  0  0
  1 19  1  0  0  0  0
 15 19  4  0  0  0  0
 18 19  4  0  0  0  0
 18 20  4  0  0  0  0
 20 21  4  0  0  0  0
 21 22  4  0  0  0  0
 22 23  2  0  0  0  0
  2 24  4  0  0  0  0
 23 24  4  0  0  0  0
  1 25  1  0  0  0  0
 21 25  4  0  0  0  0
 24 25  4  0  0  0  0
  2 26  1  0  0  0  0
  4 27  1  0  0  0  0
  5 28  1  0  0  0  0
  8 29  1  0  0  0  0
 10 30  1  0  0  0  0
 11 31  1  0  0  0  0
 16 32  1  0  0  0  0
 17 33  1  0  0  0  0
 20 34  1  0  0  0  0
 22 35  1  0  0  0  0
 23 36  1  0  0  0  0
 38 39  4  0  0  0  0
 39 40  4  0  0  0  0
 40 41  2  0  0  0  0
 41 42  4  0  0  0  0
 37 43  1  0  0  0  0
 39 43  4  0  0  0  0
 42 43  4  0  0  0  0
 42 44  4  0  0  0  0
 44 45  4  0  0  0  0
 45 46  4  0  0  0  0
 46 47  2  0  0  0  0
 37 48  1  0  0  0  0
 45 48  4  0  0  0  0
 47 49  4  0  0  0  0
 48 49  4  0  0  0  0
 49 50  4  0  0  0  0
 50 51  4  0  0  0  0
 51 52  4  0  0  0  0
 52 53  2  0  0  0  0
 53 54  4  0  0  0  0
 37 55  1  0  0  0  0
 51 55  4  0  0  0  0
 54 55  4  0  0  0  0
 54 56  4  0  0  0  0
 56 57  4  0  0  0  0
 57 58  4  0  0  0  0
 58 59  2  0  0  0  0
 38 60  4  0  0  0  0
 59 60  4  0  0  0  0
 37 61  1  0  0  0  0
 57 61  4  0  0  0  0
 60 61  4  0  0  0  0
 38 62  1  0  0  0  0
 40 63  1  0  0  0  0
 41 64  1  0  0  0  0
 44 65  1  0  0  0  0
 46 66  1  0  0  0  0
 47 67  1  0  0  0  0
 52 68  1  0  0  0  0
 53 69  1  0  0  0  0
 56 70  1  0  0  0  0
 58 71  1  0  0  0  0
 59 72  1  0  0  0  0
 14 73  1  0  0  0  0
 50 74  1  0  0  0  0
 73 74  3  0  0  0  0
M  END
