 xtb: 6.5.1 (b24c23e)
          07302210343D

156175  0     0  0            999 V2000
   13.1976    0.0340    0.0132 Zn  0  0  0  0  0  0  0  0  0  0  0  0
    9.7782    0.1191   -0.0506 C   0  0  0  0  0  0  0  0  0  0  0  0
   10.4192    1.2510    0.4400 C   0  0  0  0  0  0  0  0  0  0  0  0
    9.7614    2.4363    0.9168 C   0  0  0  0  0  0  0  0  0  0  0  0
   10.7323    3.3034    1.2997 C   0  0  0  0  0  0  0  0  0  0  0  0
   11.9952    2.6571    1.0605 C   0  0  0  0  0  0  0  0  0  0  0  0
   11.7706    1.4157    0.5419 N   0  0  0  0  0  0  0  0  0  0  0  0
   13.2498    3.2164    1.3186 C   0  0  0  0  0  0  0  0  0  0  0  0
   13.2729    4.5992    1.8798 C   0  0  0  0  0  0  0  0  0  0  0  0
   13.2341    5.7007    1.0204 C   0  0  0  0  0  0  0  0  0  0  0  0
   13.1712    5.4887   -0.4690 C   0  0  0  0  0  0  0  0  0  0  0  0
   13.2529    6.9844    1.5530 C   0  0  0  0  0  0  0  0  0  0  0  0
   13.3087    7.1863    2.9283 C   0  0  0  0  0  0  0  0  0  0  0  0
   13.3478    8.5813    3.4916 C   0  0  0  0  0  0  0  0  0  0  0  0
   13.3492    6.0829    3.7743 C   0  0  0  0  0  0  0  0  0  0  0  0
   13.3316    4.7905    3.2630 C   0  0  0  0  0  0  0  0  0  0  0  0
   13.3756    3.5999    4.1836 C   0  0  0  0  0  0  0  0  0  0  0  0
   14.4832    2.6010    1.0969 C   0  0  0  0  0  0  0  0  0  0  0  0
   15.7622    3.1969    1.3664 C   0  0  0  0  0  0  0  0  0  0  0  0
   16.7075    2.2864    1.0186 C   0  0  0  0  0  0  0  0  0  0  0  0
   14.6749    1.3429    0.5905 N   0  0  0  0  0  0  0  0  0  0  0  0
   16.0159    1.1275    0.5328 C   0  0  0  0  0  0  0  0  0  0  0  0
   16.6427   -0.0481    0.0690 C   0  0  0  0  0  0  0  0  0  0  0  0
   15.9771   -1.1956   -0.4097 C   0  0  0  0  0  0  0  0  0  0  0  0
   16.6282   -2.3884   -0.8685 C   0  0  0  0  0  0  0  0  0  0  0  0
   15.6524   -3.2538   -1.2466 C   0  0  0  0  0  0  0  0  0  0  0  0
   14.3951   -2.5954   -1.0242 C   0  0  0  0  0  0  0  0  0  0  0  0
   14.6300   -1.3469   -0.5122 N   0  0  0  0  0  0  0  0  0  0  0  0
   13.1413   -3.1472   -1.2944 C   0  0  0  0  0  0  0  0  0  0  0  0
   13.1125   -4.5292   -1.8575 C   0  0  0  0  0  0  0  0  0  0  0  0
   13.2069   -4.7231   -3.2390 C   0  0  0  0  0  0  0  0  0  0  0  0
   13.3433   -3.5359   -4.1551 C   0  0  0  0  0  0  0  0  0  0  0  0
   13.1733   -6.0138   -3.7515 C   0  0  0  0  0  0  0  0  0  0  0  0
   13.0473   -7.1147   -2.9086 C   0  0  0  0  0  0  0  0  0  0  0  0
   13.0049   -8.5034   -3.4872 C   0  0  0  0  0  0  0  0  0  0  0  0
   12.9540   -6.9105   -1.5369 C   0  0  0  0  0  0  0  0  0  0  0  0
   12.9851   -5.6268   -1.0027 C   0  0  0  0  0  0  0  0  0  0  0  0
   12.8791   -5.4119    0.4838 C   0  0  0  0  0  0  0  0  0  0  0  0
   11.9076   -2.5247   -1.0844 C   0  0  0  0  0  0  0  0  0  0  0  0
   10.6242   -3.1060   -1.3755 C   0  0  0  0  0  0  0  0  0  0  0  0
    9.6836   -2.1926   -1.0262 C   0  0  0  0  0  0  0  0  0  0  0  0
   10.3807   -1.0428   -0.5192 C   0  0  0  0  0  0  0  0  0  0  0  0
   11.7252   -1.2748   -0.5696 N   0  0  0  0  0  0  0  0  0  0  0  0
    8.6931    0.1457   -0.0709 H   0  0  0  0  0  0  0  0  0  0  0  0
    8.6919    2.5753    0.9496 H   0  0  0  0  0  0  0  0  0  0  0  0
   10.6152    4.2936    1.7109 H   0  0  0  0  0  0  0  0  0  0  0  0
   12.2405    4.9861   -0.7401 H   0  0  0  0  0  0  0  0  0  0  0  0
   13.9988    4.8574   -0.7977 H   0  0  0  0  0  0  0  0  0  0  0  0
   13.2215    6.4384   -1.0007 H   0  0  0  0  0  0  0  0  0  0  0  0
   13.2223    7.8396    0.8856 H   0  0  0  0  0  0  0  0  0  0  0  0
   12.9160    8.6089    4.4923 H   0  0  0  0  0  0  0  0  0  0  0  0
   14.3824    8.9264    3.5582 H   0  0  0  0  0  0  0  0  0  0  0  0
   12.8006    9.2740    2.8515 H   0  0  0  0  0  0  0  0  0  0  0  0
   13.3931    6.2312    4.8484 H   0  0  0  0  0  0  0  0  0  0  0  0
   14.2819    3.0178    4.0048 H   0  0  0  0  0  0  0  0  0  0  0  0
   13.3631    3.9130    5.2272 H   0  0  0  0  0  0  0  0  0  0  0  0
   12.5194    2.9476    4.0019 H   0  0  0  0  0  0  0  0  0  0  0  0
   15.9093    4.1868    1.7680 H   0  0  0  0  0  0  0  0  0  0  0  0
   17.7797    2.3829    1.0821 H   0  0  0  0  0  0  0  0  0  0  0  0
   17.6962   -2.5368   -0.8933 H   0  0  0  0  0  0  0  0  0  0  0  0
   15.7651   -4.2515   -1.6403 H   0  0  0  0  0  0  0  0  0  0  0  0
   12.5202   -2.8369   -3.9952 H   0  0  0  0  0  0  0  0  0  0  0  0
   13.3416   -3.8468   -5.1994 H   0  0  0  0  0  0  0  0  0  0  0  0
   14.2755   -3.0058   -3.9502 H   0  0  0  0  0  0  0  0  0  0  0  0
   13.2457   -6.1656   -4.8236 H   0  0  0  0  0  0  0  0  0  0  0  0
   13.8672   -8.6735   -4.1341 H   0  0  0  0  0  0  0  0  0  0  0  0
   13.0056   -9.2559   -2.6987 H   0  0  0  0  0  0  0  0  0  0  0  0
   12.1030   -8.6331   -4.0889 H   0  0  0  0  0  0  0  0  0  0  0  0
   12.8556   -7.7620   -0.8716 H   0  0  0  0  0  0  0  0  0  0  0  0
   11.9654   -4.8631    0.7211 H   0  0  0  0  0  0  0  0  0  0  0  0
   13.7246   -4.8229    0.8440 H   0  0  0  0  0  0  0  0  0  0  0  0
   12.8618   -6.3629    1.0153 H   0  0  0  0  0  0  0  0  0  0  0  0
   10.4737   -4.0877   -1.7964 H   0  0  0  0  0  0  0  0  0  0  0  0
    8.6107   -2.2778   -1.1013 H   0  0  0  0  0  0  0  0  0  0  0  0
   31.8321   -0.0355   -0.0173 Zn  0  0  0  0  0  0  0  0  0  0  0  0
   35.2516   -0.0535   -0.1188 C   0  0  0  0  0  0  0  0  0  0  0  0
   34.6107   -1.2098   -0.5490 C   0  0  0  0  0  0  0  0  0  0  0  0
   35.2687   -2.3954   -1.0246 C   0  0  0  0  0  0  0  0  0  0  0  0
   34.2979   -3.2862   -1.3491 C   0  0  0  0  0  0  0  0  0  0  0  0
   33.0349   -2.6539   -1.0756 C   0  0  0  0  0  0  0  0  0  0  0  0
   33.2593   -1.3989   -0.5907 N   0  0  0  0  0  0  0  0  0  0  0  0
   31.7804   -3.2363   -1.2768 C   0  0  0  0  0  0  0  0  0  0  0  0
   31.7582   -4.6228   -1.8289 C   0  0  0  0  0  0  0  0  0  0  0  0
   31.7979   -4.8226   -3.2117 C   0  0  0  0  0  0  0  0  0  0  0  0
   31.8621   -3.6384   -4.1395 C   0  0  0  0  0  0  0  0  0  0  0  0
   31.7795   -6.1175   -3.7163 C   0  0  0  0  0  0  0  0  0  0  0  0
   31.7235   -7.2155   -2.8638 C   0  0  0  0  0  0  0  0  0  0  0  0
   31.6842   -8.6120   -3.4234 C   0  0  0  0  0  0  0  0  0  0  0  0
   31.6832   -7.0052   -1.4894 C   0  0  0  0  0  0  0  0  0  0  0  0
   31.7004   -5.7186   -0.9635 C   0  0  0  0  0  0  0  0  0  0  0  0
   31.6580   -5.4972    0.5252 C   0  0  0  0  0  0  0  0  0  0  0  0
   30.5468   -2.6388   -1.0115 C   0  0  0  0  0  0  0  0  0  0  0  0
   29.2678   -3.2557   -1.2289 C   0  0  0  0  0  0  0  0  0  0  0  0
   28.3225   -2.3574   -0.8509 C   0  0  0  0  0  0  0  0  0  0  0  0
   30.3549   -1.3797   -0.5076 N   0  0  0  0  0  0  0  0  0  0  0  0
   29.0139   -1.1842   -0.4006 C   0  0  0  0  0  0  0  0  0  0  0  0
   28.3869   -0.0146    0.0779 C   0  0  0  0  0  0  0  0  0  0  0  0
   29.0524    1.1446    0.5277 C   0  0  0  0  0  0  0  0  0  0  0  0
   28.4012    2.3222    1.0242 C   0  0  0  0  0  0  0  0  0  0  0  0
   29.3769    3.2080    1.3516 C   0  0  0  0  0  0  0  0  0  0  0  0
   30.6343    2.5795    1.0552 C   0  0  0  0  0  0  0  0  0  0  0  0
   30.3995    1.3248    0.5586 N   0  0  0  0  0  0  0  0  0  0  0  0
   31.8879    3.1648    1.2428 C   0  0  0  0  0  0  0  0  0  0  0  0
   31.9160    4.5517    1.7936 C   0  0  0  0  0  0  0  0  0  0  0  0
   31.8210    5.6481    0.9311 C   0  0  0  0  0  0  0  0  0  0  0  0
   31.6833    5.4257   -0.5517 C   0  0  0  0  0  0  0  0  0  0  0  0
   31.8547    6.9342    1.4550 C   0  0  0  0  0  0  0  0  0  0  0  0
   31.9809    7.1450    2.8254 C   0  0  0  0  0  0  0  0  0  0  0  0
   32.0238    8.5476    3.3694 C   0  0  0  0  0  0  0  0  0  0  0  0
   32.0736    6.0479    3.6738 C   0  0  0  0  0  0  0  0  0  0  0  0
   32.0425    4.7518    3.1704 C   0  0  0  0  0  0  0  0  0  0  0  0
   32.1468    3.5674    4.0943 C   0  0  0  0  0  0  0  0  0  0  0  0
   33.1219    2.5703    0.9639 C   0  0  0  0  0  0  0  0  0  0  0  0
   34.4052    3.1909    1.1581 C   0  0  0  0  0  0  0  0  0  0  0  0
   35.3460    2.2897    0.7786 C   0  0  0  0  0  0  0  0  0  0  0  0
   34.6489    1.1095    0.3470 C   0  0  0  0  0  0  0  0  0  0  0  0
   33.3043    1.3122    0.4697 N   0  0  0  0  0  0  0  0  0  0  0  0
   36.3367   -0.0590   -0.1508 H   0  0  0  0  0  0  0  0  0  0  0  0
   36.3382   -2.5188   -1.0961 H   0  0  0  0  0  0  0  0  0  0  0  0
   34.4151   -4.2856   -1.7374 H   0  0  0  0  0  0  0  0  0  0  0  0
   32.7931   -3.0888   -3.9862 H   0  0  0  0  0  0  0  0  0  0  0  0
   31.0349   -2.9547   -3.9404 H   0  0  0  0  0  0  0  0  0  0  0  0
   31.8126   -3.9555   -5.1807 H   0  0  0  0  0  0  0  0  0  0  0  0
   31.8107   -6.2725   -4.7899 H   0  0  0  0  0  0  0  0  0  0  0  0
   32.1152   -9.3250   -2.7202 H   0  0  0  0  0  0  0  0  0  0  0  0
   30.6498   -8.9065   -3.6152 H   0  0  0  0  0  0  0  0  0  0  0  0
   32.2322   -8.6687   -4.3644 H   0  0  0  0  0  0  0  0  0  0  0  0
   31.6399   -7.8559   -0.8171 H   0  0  0  0  0  0  0  0  0  0  0  0
   30.7519   -4.9538    0.8005 H   0  0  0  0  0  0  0  0  0  0  0  0
   31.6717   -6.4457    1.0613 H   0  0  0  0  0  0  0  0  0  0  0  0
   32.5144   -4.9004    0.8447 H   0  0  0  0  0  0  0  0  0  0  0  0
   29.1209   -4.2489   -1.6227 H   0  0  0  0  0  0  0  0  0  0  0  0
   27.2502   -2.4711   -0.8719 H   0  0  0  0  0  0  0  0  0  0  0  0
   27.3333    2.4461    1.1096 H   0  0  0  0  0  0  0  0  0  0  0  0
   29.2642    4.1997    1.7601 H   0  0  0  0  0  0  0  0  0  0  0  0
   32.5059    4.8107   -0.9213 H   0  0  0  0  0  0  0  0  0  0  0  0
   31.6840    6.3731   -1.0900 H   0  0  0  0  0  0  0  0  0  0  0  0
   30.7509    4.9011   -0.7697 H   0  0  0  0  0  0  0  0  0  0  0  0
   31.7820    7.7861    0.7866 H   0  0  0  0  0  0  0  0  0  0  0  0
   31.1623    9.1189    3.0195 H   0  0  0  0  0  0  0  0  0  0  0  0
   32.0221    8.5448    4.4593 H   0  0  0  0  0  0  0  0  0  0  0  0
   32.9265    9.0570    3.0258 H   0  0  0  0  0  0  0  0  0  0  0  0
   32.1714    6.2017    4.7435 H   0  0  0  0  0  0  0  0  0  0  0  0
   33.0602    3.0063    3.8865 H   0  0  0  0  0  0  0  0  0  0  0  0
   31.3008    2.8939    3.9456 H   0  0  0  0  0  0  0  0  0  0  0  0
   32.1633    3.8856    5.1363 H   0  0  0  0  0  0  0  0  0  0  0  0
   34.5556    4.1903    1.5347 H   0  0  0  0  0  0  0  0  0  0  0  0
   36.4189    2.4027    0.7848 H   0  0  0  0  0  0  0  0  0  0  0  0
   18.0472   -0.0717    0.0828 C   0  0  0  0  0  0  0  0  0  0  0  0
   19.2722   -0.0696    0.0917 C   0  0  0  0  0  0  0  0  0  0  0  0
   20.6149   -0.0682    0.0976 C   0  0  0  0  0  0  0  0  0  0  0  0
   21.8459   -0.0568    0.1102 C   0  0  0  0  0  0  0  0  0  0  0  0
   23.1838   -0.0401    0.1121 C   0  0  0  0  0  0  0  0  0  0  0  0
   24.4147   -0.0193    0.1150 C   0  0  0  0  0  0  0  0  0  0  0  0
   25.7574   -0.0113    0.1110 C   0  0  0  0  0  0  0  0  0  0  0  0
   26.9825   -0.0066    0.1040 C   0  0  0  0  0  0  0  0  0  0  0  0
  2  3  4  0  0  0  0
  3  4  1  0  0  0  0
  4  5  2  0  0  0  0
  5  6  4  0  0  0  0
  1  7  1  0  0  0  0
  3  7  4  0  0  0  0
  6  7  4  0  0  0  0
  6  8  4  0  0  0  0
  8  9  1  0  0  0  0
  9 10  4  0  0  0  0
 10 11  1  0  0  0  0
 10 12  4  0  0  0  0
 12 13  4  0  0  0  0
 13 14  1  0  0  0  0
 13 15  4  0  0  0  0
  9 16  4  0  0  0  0
 15 16  4  0  0  0  0
 16 17  1  0  0  0  0
  8 18  4  0  0  0  0
 18 19  4  0  0  0  0
 19 20  2  0  0  0  0
  1 21  1  0  0  0  0
 18 21  4  0  0  0  0
 20 22  4  0  0  0  0
 21 22  4  0  0  0  0
 22 23  4  0  0  0  0
 23 24  4  0  0  0  0
 24 25  4  0  0  0  0
 25 26  2  0  0  0  0
 26 27  4  0  0  0  0
  1 28  1  0  0  0  0
 24 28  4  0  0  0  0
 27 28  4  0  0  0  0
 27 29  4  0  0  0  0
 29 30  1  0  0  0  0
 30 31  4  0  0  0  0
 31 32  1  0  0  0  0
 31 33  4  0  0  0  0
 33 34  4  0  0  0  0
 34 35  1  0  0  0  0
 34 36  4  0  0  0  0
 30 37  4  0  0  0  0
 36 37  4  0  0  0  0
 37 38  1  0  0  0  0
 29 39  4  0  0  0  0
 39 40  4  0  0  0  0
 40 41  2  0  0  0  0
  2 42  4  0  0  0  0
 41 42  1  0  0  0  0
  1 43  1  0  0  0  0
 39 43  4  0  0  0  0
 42 43  4  0  0  0  0
  2 44  1  0  0  0  0
  4 45  1  0  0  0  0
  5 46  1  0  0  0  0
 11 47  1  0  0  0  0
 11 48  1  0  0  0  0
 11 49  1  0  0  0  0
 12 50  1  0  0  0  0
 14 51  1  0  0  0  0
 14 52  1  0  0  0  0
 14 53  1  0  0  0  0
 15 54  1  0  0  0  0
 17 55  1  0  0  0  0
 17 56  1  0  0  0  0
 17 57  1  0  0  0  0
 19 58  1  0  0  0  0
 20 59  1  0  0  0  0
 25 60  1  0  0  0  0
 26 61  1  0  0  0  0
 32 62  1  0  0  0  0
 32 63  1  0  0  0  0
 32 64  1  0  0  0  0
 33 65  1  0  0  0  0
 35 66  1  0  0  0  0
 35 67  1  0  0  0  0
 35 68  1  0  0  0  0
 36 69  1  0  0  0  0
 38 70  1  0  0  0  0
 38 71  1  0  0  0  0
 38 72  1  0  0  0  0
 40 73  1  0  0  0  0
 41 74  1  0  0  0  0
 76 77  4  0  0  0  0
 77 78  1  0  0  0  0
 78 79  2  0  0  0  0
 79 80  4  0  0  0  0
 75 81  1  0  0  0  0
 77 81  4  0  0  0  0
 80 81  4  0  0  0  0
 80 82  4  0  0  0  0
 82 83  1  0  0  0  0
 83 84  4  0  0  0  0
 84 85  1  0  0  0  0
 84 86  4  0  0  0  0
 86 87  4  0  0  0  0
 87 88  1  0  0  0  0
 87 89  4  0  0  0  0
 83 90  4  0  0  0  0
 89 90  4  0  0  0  0
 90 91  1  0  0  0  0
 82 92  4  0  0  0  0
 92 93  4  0  0  0  0
 93 94  2  0  0  0  0
 75 95  1  0  0  0  0
 92 95  4  0  0  0  0
 94 96  4  0  0  0  0
 95 96  4  0  0  0  0
 96 97  4  0  0  0  0
 97 98  4  0  0  0  0
 98 99  4  0  0  0  0
 99100  2  0  0  0  0
100101  4  0  0  0  0
 75102  1  0  0  0  0
 98102  4  0  0  0  0
101102  4  0  0  0  0
101103  4  0  0  0  0
103104  1  0  0  0  0
104105  4  0  0  0  0
105106  1  0  0  0  0
105107  4  0  0  0  0
107108  4  0  0  0  0
108109  1  0  0  0  0
108110  4  0  0  0  0
104111  4  0  0  0  0
110111  4  0  0  0  0
111112  1  0  0  0  0
103113  4  0  0  0  0
113114  4  0  0  0  0
114115  2  0  0  0  0
 76116  4  0  0  0  0
115116  1  0  0  0  0
 75117  1  0  0  0  0
113117  4  0  0  0  0
116117  4  0  0  0  0
 76118  1  0  0  0  0
 78119  1  0  0  0  0
 79120  1  0  0  0  0
 85121  1  0  0  0  0
 85122  1  0  0  0  0
 85123  1  0  0  0  0
 86124  1  0  0  0  0
 88125  1  0  0  0  0
 88126  1  0  0  0  0
 88127  1  0  0  0  0
 89128  1  0  0  0  0
 91129  1  0  0  0  0
 91130  1  0  0  0  0
 91131  1  0  0  0  0
 93132  1  0  0  0  0
 94133  1  0  0  0  0
 99134  1  0  0  0  0
100135  1  0  0  0  0
106136  1  0  0  0  0
106137  1  0  0  0  0
106138  1  0  0  0  0
107139  1  0  0  0  0
109140  1  0  0  0  0
109141  1  0  0  0  0
109142  1  0  0  0  0
110143  1  0  0  0  0
112144  1  0  0  0  0
112145  1  0  0  0  0
112146  1  0  0  0  0
114147  1  0  0  0  0
115148  1  0  0  0  0
 23149  4  0  0  0  0
149150  3  0  0  0  0
150151  4  0  0  0  0
151152  3  0  0  0  0
152153  4  0  0  0  0
153154  3  0  0  0  0
154155  4  0  0  0  0
 97156  4  0  0  0  0
155156  3  0  0  0  0
M  END
