 xtb: 6.5.1 (b24c23e)
          07302210313D

197226  0     0  0            999 V2000
   29.0872    0.1403   -0.3951 Zn  0  0  0  0  0  0  0  0  0  0  0  0
   25.6936    0.1034   -0.0712 C   0  0  0  0  0  0  0  0  0  0  0  0
   26.3118    1.3433    0.0351 C   0  0  0  0  0  0  0  0  0  0  0  0
   25.6299    2.5905    0.2418 C   0  0  0  0  0  0  0  0  0  0  0  0
   26.5787    3.5582    0.2924 C   0  0  0  0  0  0  0  0  0  0  0  0
   27.8542    2.9117    0.1280 C   0  0  0  0  0  0  0  0  0  0  0  0
   27.6561    1.5723   -0.0364 N   0  0  0  0  0  0  0  0  0  0  0  0
   29.0978    3.5549    0.1171 C   0  0  0  0  0  0  0  0  0  0  0  0
   29.1028    5.0231    0.3379 C   0  0  0  0  0  0  0  0  0  0  0  0
   28.6244    5.5620    1.5289 C   0  0  0  0  0  0  0  0  0  0  0  0
   28.6302    6.9411    1.7349 C   0  0  0  0  0  0  0  0  0  0  0  0
   28.1084    7.4535    3.0264 C   0  0  0  0  0  0  0  0  0  0  0  0
   28.1640    8.7892    3.1353 O   0  0  0  0  0  0  0  0  0  0  0  0
   27.6715    6.7585    3.9078 O   0  0  0  0  0  0  0  0  0  0  0  0
   29.1152    7.7942    0.7436 C   0  0  0  0  0  0  0  0  0  0  0  0
   29.5908    7.2606   -0.4439 C   0  0  0  0  0  0  0  0  0  0  0  0
   29.5869    5.8878   -0.6469 C   0  0  0  0  0  0  0  0  0  0  0  0
   30.3368    2.9357   -0.0813 C   0  0  0  0  0  0  0  0  0  0  0  0
   31.6124    3.5955   -0.0327 C   0  0  0  0  0  0  0  0  0  0  0  0
   32.5599    2.6521   -0.2669 C   0  0  0  0  0  0  0  0  0  0  0  0
   30.5349    1.6037   -0.3287 N   0  0  0  0  0  0  0  0  0  0  0  0
   31.8747    1.4066   -0.4518 C   0  0  0  0  0  0  0  0  0  0  0  0
   32.5082    0.1770   -0.7239 C   0  0  0  0  0  0  0  0  0  0  0  0
   31.8613   -1.0660   -0.8767 C   0  0  0  0  0  0  0  0  0  0  0  0
   32.5265   -2.2982   -1.1832 C   0  0  0  0  0  0  0  0  0  0  0  0
   31.5724   -3.2626   -1.2327 C   0  0  0  0  0  0  0  0  0  0  0  0
   30.3145   -2.6289   -0.9476 C   0  0  0  0  0  0  0  0  0  0  0  0
   30.5265   -1.2910   -0.7477 N   0  0  0  0  0  0  0  0  0  0  0  0
   29.0746   -3.2756   -0.9040 C   0  0  0  0  0  0  0  0  0  0  0  0
   29.0697   -4.7462   -1.1106 C   0  0  0  0  0  0  0  0  0  0  0  0
   29.7446   -5.5876   -0.2232 C   0  0  0  0  0  0  0  0  0  0  0  0
   29.7385   -6.9632   -0.4087 C   0  0  0  0  0  0  0  0  0  0  0  0
   29.0615   -7.5162   -1.4826 C   0  0  0  0  0  0  0  0  0  0  0  0
   28.3844   -6.6861   -2.3775 C   0  0  0  0  0  0  0  0  0  0  0  0
   27.6713   -7.3167   -3.5161 C   0  0  0  0  0  0  0  0  0  0  0  0
   27.0463   -6.4370   -4.3129 O   0  0  0  0  0  0  0  0  0  0  0  0
   27.6401   -8.5024   -3.7261 O   0  0  0  0  0  0  0  0  0  0  0  0
   28.3887   -5.3053   -2.1898 C   0  0  0  0  0  0  0  0  0  0  0  0
   27.8377   -2.6589   -0.6796 C   0  0  0  0  0  0  0  0  0  0  0  0
   26.5690   -3.3334   -0.5952 C   0  0  0  0  0  0  0  0  0  0  0  0
   25.6261   -2.3859   -0.3657 C   0  0  0  0  0  0  0  0  0  0  0  0
   26.3071   -1.1233   -0.2956 C   0  0  0  0  0  0  0  0  0  0  0  0
   27.6446   -1.3228   -0.4844 N   0  0  0  0  0  0  0  0  0  0  0  0
   24.6132    0.0913    0.0341 H   0  0  0  0  0  0  0  0  0  0  0  0
   24.5603    2.7003    0.3288 H   0  0  0  0  0  0  0  0  0  0  0  0
   26.4317    4.6187    0.4199 H   0  0  0  0  0  0  0  0  0  0  0  0
   28.2563    4.9135    2.3164 H   0  0  0  0  0  0  0  0  0  0  0  0
   27.8076    9.0425    4.0022 H   0  0  0  0  0  0  0  0  0  0  0  0
   29.1176    8.8654    0.9045 H   0  0  0  0  0  0  0  0  0  0  0  0
   29.9665    7.9178   -1.2201 H   0  0  0  0  0  0  0  0  0  0  0  0
   29.9487    5.4783   -1.5835 H   0  0  0  0  0  0  0  0  0  0  0  0
   31.7638    4.6436    0.1696 H   0  0  0  0  0  0  0  0  0  0  0  0
   33.6300    2.7797   -0.3050 H   0  0  0  0  0  0  0  0  0  0  0  0
   33.5874   -2.4030   -1.3455 H   0  0  0  0  0  0  0  0  0  0  0  0
   31.7054   -4.3092   -1.4552 H   0  0  0  0  0  0  0  0  0  0  0  0
   30.2644   -5.1577    0.6257 H   0  0  0  0  0  0  0  0  0  0  0  0
   30.2635   -7.6035    0.2911 H   0  0  0  0  0  0  0  0  0  0  0  0
   29.0464   -8.5884   -1.6424 H   0  0  0  0  0  0  0  0  0  0  0  0
   26.6078   -6.9270   -5.0273 H   0  0  0  0  0  0  0  0  0  0  0  0
   27.8735   -4.6624   -2.8937 H   0  0  0  0  0  0  0  0  0  0  0  0
   26.4239   -4.3978   -0.6893 H   0  0  0  0  0  0  0  0  0  0  0  0
   24.5625   -2.5193   -0.2449 H   0  0  0  0  0  0  0  0  0  0  0  0
   61.1331    0.1693   -0.2772 Zn  0  0  0  0  0  0  0  0  0  0  0  0
   64.5420    0.1019   -0.3102 C   0  0  0  0  0  0  0  0  0  0  0  0
   63.8961   -1.1037   -0.5555 C   0  0  0  0  0  0  0  0  0  0  0  0
   64.5535   -2.3471   -0.8471 C   0  0  0  0  0  0  0  0  0  0  0  0
   63.5831   -3.2786   -1.0185 C   0  0  0  0  0  0  0  0  0  0  0  0
   62.3194   -2.6173   -0.8231 C   0  0  0  0  0  0  0  0  0  0  0  0
   62.5446   -1.2989   -0.5559 N   0  0  0  0  0  0  0  0  0  0  0  0
   61.0601   -3.2230   -0.9163 C   0  0  0  0  0  0  0  0  0  0  0  0
   61.0318   -4.6818   -1.1891 C   0  0  0  0  0  0  0  0  0  0  0  0
   61.6238   -5.5791   -0.3044 C   0  0  0  0  0  0  0  0  0  0  0  0
   61.6030   -6.9488   -0.5646 C   0  0  0  0  0  0  0  0  0  0  0  0
   62.2554   -7.8527    0.4153 C   0  0  0  0  0  0  0  0  0  0  0  0
   62.1802   -9.1496    0.0814 O   0  0  0  0  0  0  0  0  0  0  0  0
   62.8086   -7.4826    1.4193 O   0  0  0  0  0  0  0  0  0  0  0  0
   60.9856   -7.4321   -1.7183 C   0  0  0  0  0  0  0  0  0  0  0  0
   60.3948   -6.5414   -2.6008 C   0  0  0  0  0  0  0  0  0  0  0  0
   60.4165   -5.1784   -2.3410 C   0  0  0  0  0  0  0  0  0  0  0  0
   59.8283   -2.5731   -0.7795 C   0  0  0  0  0  0  0  0  0  0  0  0
   58.5413   -3.2102   -0.8321 C   0  0  0  0  0  0  0  0  0  0  0  0
   57.6070   -2.2391   -0.6675 C   0  0  0  0  0  0  0  0  0  0  0  0
   59.6513   -1.2328   -0.5619 N   0  0  0  0  0  0  0  0  0  0  0  0
   58.3125   -1.0029   -0.4987 C   0  0  0  0  0  0  0  0  0  0  0  0
   57.6969    0.2499   -0.3011 C   0  0  0  0  0  0  0  0  0  0  0  0
   58.3668    1.4689   -0.0725 C   0  0  0  0  0  0  0  0  0  0  0  0
   57.7170    2.7324    0.1182 C   0  0  0  0  0  0  0  0  0  0  0  0
   58.6930    3.6551    0.3149 C   0  0  0  0  0  0  0  0  0  0  0  0
   59.9500    2.9618    0.2506 C   0  0  0  0  0  0  0  0  0  0  0  0
   59.7140    1.6353    0.0070 N   0  0  0  0  0  0  0  0  0  0  0  0
   61.2087    3.5575    0.3833 C   0  0  0  0  0  0  0  0  0  0  0  0
   61.2411    5.0139    0.6735 C   0  0  0  0  0  0  0  0  0  0  0  0
   60.6997    5.5118    1.8606 C   0  0  0  0  0  0  0  0  0  0  0  0
   60.7318    6.8717    2.1371 C   0  0  0  0  0  0  0  0  0  0  0  0
   61.2999    7.7514    1.2310 C   0  0  0  0  0  0  0  0  0  0  0  0
   61.8414    7.2665    0.0394 C   0  0  0  0  0  0  0  0  0  0  0  0
   62.4365    8.2413   -0.9083 C   0  0  0  0  0  0  0  0  0  0  0  0
   62.9275    7.6774   -2.0220 O   0  0  0  0  0  0  0  0  0  0  0  0
   62.4866    9.4298   -0.7191 O   0  0  0  0  0  0  0  0  0  0  0  0
   61.8133    5.9007   -0.2358 C   0  0  0  0  0  0  0  0  0  0  0  0
   62.4406    2.9040    0.2610 C   0  0  0  0  0  0  0  0  0  0  0  0
   63.7327    3.5155    0.4287 C   0  0  0  0  0  0  0  0  0  0  0  0
   64.6622    2.5478    0.2306 C   0  0  0  0  0  0  0  0  0  0  0  0
   63.9504    1.3320   -0.0492 C   0  0  0  0  0  0  0  0  0  0  0  0
   62.6081    1.5795   -0.0187 N   0  0  0  0  0  0  0  0  0  0  0  0
   65.6273    0.0801   -0.3223 H   0  0  0  0  0  0  0  0  0  0  0  0
   65.6221   -2.4771   -0.9164 H   0  0  0  0  0  0  0  0  0  0  0  0
   63.7075   -4.3204   -1.2668 H   0  0  0  0  0  0  0  0  0  0  0  0
   62.0957   -5.2233    0.6050 H   0  0  0  0  0  0  0  0  0  0  0  0
   62.6286   -9.6704    0.7674 H   0  0  0  0  0  0  0  0  0  0  0  0
   60.9715   -8.4963   -1.9199 H   0  0  0  0  0  0  0  0  0  0  0  0
   59.9159   -6.9095   -3.5012 H   0  0  0  0  0  0  0  0  0  0  0  0
   59.9663   -4.4866   -3.0443 H   0  0  0  0  0  0  0  0  0  0  0  0
   58.3745   -4.2672   -0.9637 H   0  0  0  0  0  0  0  0  0  0  0  0
   56.5340   -2.3448   -0.6499 H   0  0  0  0  0  0  0  0  0  0  0  0
   56.6499    2.8868    0.0979 H   0  0  0  0  0  0  0  0  0  0  0  0
   58.5748    4.7146    0.4759 H   0  0  0  0  0  0  0  0  0  0  0  0
   60.2641    4.8232    2.5760 H   0  0  0  0  0  0  0  0  0  0  0  0
   60.3122    7.2429    3.0652 H   0  0  0  0  0  0  0  0  0  0  0  0
   61.3322    8.8166    1.4304 H   0  0  0  0  0  0  0  0  0  0  0  0
   63.2943    8.3781   -2.5852 H   0  0  0  0  0  0  0  0  0  0  0  0
   62.2238    5.5279   -1.1667 H   0  0  0  0  0  0  0  0  0  0  0  0
   63.9018    4.5513    0.6760 H   0  0  0  0  0  0  0  0  0  0  0  0
   65.7364    2.6361    0.2749 H   0  0  0  0  0  0  0  0  0  0  0  0
   37.6967    0.2755   -1.0780 C   0  0  0  0  0  0  0  0  0  0  0  0
   36.4701    0.2428   -1.0168 C   0  0  0  0  0  0  0  0  0  0  0  0
   35.1288    0.2148   -0.9338 C   0  0  0  0  0  0  0  0  0  0  0  0
   33.9082    0.1928   -0.8433 C   0  0  0  0  0  0  0  0  0  0  0  0
   39.0396    0.3096   -1.1236 C   0  0  0  0  0  0  0  0  0  0  0  0
   40.2631    0.3440   -1.1487 C   0  0  0  0  0  0  0  0  0  0  0  0
   53.7292    0.3611   -0.4833 C   0  0  0  0  0  0  0  0  0  0  0  0
   52.5038    0.3931   -0.5660 C   0  0  0  0  0  0  0  0  0  0  0  0
   51.1633    0.4190   -0.6609 C   0  0  0  0  0  0  0  0  0  0  0  0
   49.9426    0.4376   -0.7534 C   0  0  0  0  0  0  0  0  0  0  0  0
   55.0707    0.3244   -0.4059 C   0  0  0  0  0  0  0  0  0  0  0  0
   56.2928    0.2878   -0.3436 C   0  0  0  0  0  0  0  0  0  0  0  0
   45.1061    0.4281   -1.0452 Zn  0  0  0  0  0  0  0  0  0  0  0  0
   41.6673    0.3786   -1.1483 C   0  0  0  0  0  0  0  0  0  0  0  0
   42.3416   -0.7678   -1.6156 C   0  0  0  0  0  0  0  0  0  0  0  0
   41.6963   -1.9274   -2.1567 C   0  0  0  0  0  0  0  0  0  0  0  0
   42.6757   -2.8023   -2.5004 C   0  0  0  0  0  0  0  0  0  0  0  0
   43.9289   -2.1905   -2.1560 C   0  0  0  0  0  0  0  0  0  0  0  0
   43.6891   -0.9483   -1.6323 N   0  0  0  0  0  0  0  0  0  0  0  0
   45.1903   -2.7675   -2.3373 C   0  0  0  0  0  0  0  0  0  0  0  0
   45.2319   -4.1342   -2.9170 C   0  0  0  0  0  0  0  0  0  0  0  0
   44.6405   -5.2068   -2.2561 C   0  0  0  0  0  0  0  0  0  0  0  0
   44.6801   -6.4867   -2.8083 C   0  0  0  0  0  0  0  0  0  0  0  0
   44.0316   -7.5895   -2.0555 C   0  0  0  0  0  0  0  0  0  0  0  0
   44.1265   -8.7815   -2.6629 O   0  0  0  0  0  0  0  0  0  0  0  0
   43.4669   -7.4531   -1.0004 O   0  0  0  0  0  0  0  0  0  0  0  0
   45.3134   -6.7013   -4.0324 C   0  0  0  0  0  0  0  0  0  0  0  0
   45.9034   -5.6349   -4.6925 C   0  0  0  0  0  0  0  0  0  0  0  0
   45.8657   -4.3620   -4.1410 C   0  0  0  0  0  0  0  0  0  0  0  0
   46.4184   -2.1765   -2.0201 C   0  0  0  0  0  0  0  0  0  0  0  0
   47.7002   -2.8136   -2.1374 C   0  0  0  0  0  0  0  0  0  0  0  0
   48.6308   -1.9198   -1.7147 C   0  0  0  0  0  0  0  0  0  0  0  0
   46.5927   -0.9140   -1.5203 N   0  0  0  0  0  0  0  0  0  0  0  0
   47.9272   -0.7314   -1.3329 C   0  0  0  0  0  0  0  0  0  0  0  0
   48.5416    0.4438   -0.8540 C   0  0  0  0  0  0  0  0  0  0  0  0
   47.8706    1.6239   -0.4734 C   0  0  0  0  0  0  0  0  0  0  0  0
   48.5199    2.8279   -0.0466 C   0  0  0  0  0  0  0  0  0  0  0  0
   47.5431    3.7311    0.2243 C   0  0  0  0  0  0  0  0  0  0  0  0
   46.2862    3.0806   -0.0210 C   0  0  0  0  0  0  0  0  0  0  0  0
   46.5229    1.8035   -0.4548 N   0  0  0  0  0  0  0  0  0  0  0  0
   45.0255    3.6636    0.1447 C   0  0  0  0  0  0  0  0  0  0  0  0
   44.9868    5.0639    0.6391 C   0  0  0  0  0  0  0  0  0  0  0  0
   44.4451    6.0767   -0.1556 C   0  0  0  0  0  0  0  0  0  0  0  0
   44.4081    7.3882    0.2971 C   0  0  0  0  0  0  0  0  0  0  0  0
   44.9070    7.7046    1.5495 C   0  0  0  0  0  0  0  0  0  0  0  0
   45.4479    6.7009    2.3547 C   0  0  0  0  0  0  0  0  0  0  0  0
   45.9684    7.0800    3.6920 C   0  0  0  0  0  0  0  0  0  0  0  0
   46.4682    6.0476    4.3868 O   0  0  0  0  0  0  0  0  0  0  0  0
   45.9554    8.2008    4.1333 O   0  0  0  0  0  0  0  0  0  0  0  0
   45.4885    5.3848    1.8984 C   0  0  0  0  0  0  0  0  0  0  0  0
   43.7948    3.0477   -0.1078 C   0  0  0  0  0  0  0  0  0  0  0  0
   42.5075    3.6334    0.1424 C   0  0  0  0  0  0  0  0  0  0  0  0
   41.5742    2.7125   -0.2103 C   0  0  0  0  0  0  0  0  0  0  0  0
   42.2815    1.5567   -0.6762 C   0  0  0  0  0  0  0  0  0  0  0  0
   43.6203    1.7820   -0.5995 N   0  0  0  0  0  0  0  0  0  0  0  0
   40.6301   -2.0456   -2.2661 H   0  0  0  0  0  0  0  0  0  0  0  0
   42.5604   -3.7734   -2.9541 H   0  0  0  0  0  0  0  0  0  0  0  0
   44.1553   -5.0617   -1.2971 H   0  0  0  0  0  0  0  0  0  0  0  0
   43.6799   -9.4445   -2.1117 H   0  0  0  0  0  0  0  0  0  0  0  0
   45.3411   -7.6958   -4.4609 H   0  0  0  0  0  0  0  0  0  0  0  0
   46.3953   -5.7936   -5.6455 H   0  0  0  0  0  0  0  0  0  0  0  0
   46.3186   -3.5299   -4.6685 H   0  0  0  0  0  0  0  0  0  0  0  0
   47.8648   -3.8213   -2.4836 H   0  0  0  0  0  0  0  0  0  0  0  0
   49.7000   -2.0490   -1.6597 H   0  0  0  0  0  0  0  0  0  0  0  0
   49.5876    2.9610    0.0251 H   0  0  0  0  0  0  0  0  0  0  0  0
   47.6625    4.7509    0.5530 H   0  0  0  0  0  0  0  0  0  0  0  0
   44.0637    5.8323   -1.1408 H   0  0  0  0  0  0  0  0  0  0  0  0
   43.9887    8.1642   -0.3332 H   0  0  0  0  0  0  0  0  0  0  0  0
   44.8852    8.7235    1.9193 H   0  0  0  0  0  0  0  0  0  0  0  0
   46.7844    6.3775    5.2435 H   0  0  0  0  0  0  0  0  0  0  0  0
   45.8972    4.6055    2.5308 H   0  0  0  0  0  0  0  0  0  0  0  0
   42.3403    4.6172    0.5506 H   0  0  0  0  0  0  0  0  0  0  0  0
   40.5007    2.8000   -0.1584 H   0  0  0  0  0  0  0  0  0  0  0  0
  2  3  4  0  0  0  0
  3  4  1  0  0  0  0
  4  5  2  0  0  0  0
  5  6  4  0  0  0  0
  1  7  1  0  0  0  0
  3  7  4  0  0  0  0
  6  7  4  0  0  0  0
  6  8  4  0  0  0  0
  8  9  1  0  0  0  0
  9 10  4  0  0  0  0
 10 11  4  0  0  0  0
 11 12  1  0  0  0  0
 12 13  4  0  0  0  0
 12 14  2  0  0  0  0
 11 15  4  0  0  0  0
 15 16  4  0  0  0  0
  9 17  4  0  0  0  0
 16 17  4  0  0  0  0
  8 18  4  0  0  0  0
 18 19  4  0  0  0  0
 19 20  2  0  0  0  0
  1 21  1  0  0  0  0
 18 21  4  0  0  0  0
 20 22  4  0  0  0  0
 21 22  4  0  0  0  0
 22 23  4  0  0  0  0
 23 24  4  0  0  0  0
 24 25  4  0  0  0  0
 25 26  2  0  0  0  0
 26 27  4  0  0  0  0
  1 28  1  0  0  0  0
 24 28  4  0  0  0  0
 27 28  4  0  0  0  0
 27 29  4  0  0  0  0
 29 30  1  0  0  0  0
 30 31  4  0  0  0  0
 31 32  4  0  0  0  0
 32 33  4  0  0  0  0
 33 34  4  0  0  0  0
 34 35  1  0  0  0  0
 35 36  4  0  0  0  0
 35 37  2  0  0  0  0
 30 38  4  0  0  0  0
 34 38  4  0  0  0  0
 29 39  4  0  0  0  0
 39 40  4  0  0  0  0
 40 41  2  0  0  0  0
  2 42  4  0  0  0  0
 41 42  1  0  0  0  0
  1 43  1  0  0  0  0
 39 43  4  0  0  0  0
 42 43  4  0  0  0  0
  2 44  1  0  0  0  0
  4 45  1  0  0  0  0
  5 46  1  0  0  0  0
 10 47  1  0  0  0  0
 13 48  1  0  0  0  0
 15 49  1  0  0  0  0
 16 50  1  0  0  0  0
 17 51  1  0  0  0  0
 19 52  1  0  0  0  0
 20 53  1  0  0  0  0
 25 54  1  0  0  0  0
 26 55  1  0  0  0  0
 31 56  1  0  0  0  0
 32 57  1  0  0  0  0
 33 58  1  0  0  0  0
 36 59  1  0  0  0  0
 38 60  1  0  0  0  0
 40 61  1  0  0  0  0
 41 62  1  0  0  0  0
 64 65  4  0  0  0  0
 65 66  1  0  0  0  0
 66 67  2  0  0  0  0
 67 68  4  0  0  0  0
 63 69  1  0  0  0  0
 65 69  4  0  0  0  0
 68 69  4  0  0  0  0
 68 70  4  0  0  0  0
 70 71  1  0  0  0  0
 71 72  4  0  0  0  0
 72 73  4  0  0  0  0
 73 74  1  0  0  0  0
 74 75  4  0  0  0  0
 74 76  2  0  0  0  0
 73 77  4  0  0  0  0
 77 78  4  0  0  0  0
 71 79  4  0  0  0  0
 78 79  4  0  0  0  0
 70 80  4  0  0  0  0
 80 81  4  0  0  0  0
 81 82  2  0  0  0  0
 63 83  1  0  0  0  0
 80 83  4  0  0  0  0
 82 84  4  0  0  0  0
 83 84  4  0  0  0  0
 84 85  4  0  0  0  0
 85 86  4  0  0  0  0
 86 87  4  0  0  0  0
 87 88  2  0  0  0  0
 88 89  4  0  0  0  0
 63 90  1  0  0  0  0
 86 90  4  0  0  0  0
 89 90  4  0  0  0  0
 89 91  4  0  0  0  0
 91 92  1  0  0  0  0
 92 93  4  0  0  0  0
 93 94  4  0  0  0  0
 94 95  4  0  0  0  0
 95 96  4  0  0  0  0
 96 97  1  0  0  0  0
 97 98  4  0  0  0  0
 97 99  2  0  0  0  0
 92100  4  0  0  0  0
 96100  4  0  0  0  0
 91101  4  0  0  0  0
101102  4  0  0  0  0
102103  2  0  0  0  0
 64104  4  0  0  0  0
103104  1  0  0  0  0
 63105  1  0  0  0  0
101105  4  0  0  0  0
104105  4  0  0  0  0
 64106  1  0  0  0  0
 66107  1  0  0  0  0
 67108  1  0  0  0  0
 72109  1  0  0  0  0
 75110  1  0  0  0  0
 77111  1  0  0  0  0
 78112  1  0  0  0  0
 79113  1  0  0  0  0
 81114  1  0  0  0  0
 82115  1  0  0  0  0
 87116  1  0  0  0  0
 88117  1  0  0  0  0
 93118  1  0  0  0  0
 94119  1  0  0  0  0
 95120  1  0  0  0  0
 98121  1  0  0  0  0
100122  1  0  0  0  0
102123  1  0  0  0  0
103124  1  0  0  0  0
125126  3  0  0  0  0
126127  4  0  0  0  0
 23128  4  0  0  0  0
127128  3  0  0  0  0
125129  4  0  0  0  0
129130  3  0  0  0  0
131132  3  0  0  0  0
132133  4  0  0  0  0
133134  3  0  0  0  0
131135  4  0  0  0  0
 85136  4  0  0  0  0
135136  3  0  0  0  0
130138  4  0  0  0  0
138139  4  0  0  0  0
139140  4  0  0  0  0
140141  2  0  0  0  0
141142  4  0  0  0  0
137143  1  0  0  0  0
139143  4  0  0  0  0
142143  4  0  0  0  0
142144  4  0  0  0  0
144145  1  0  0  0  0
145146  4  0  0  0  0
146147  4  0  0  0  0
147148  1  0  0  0  0
148149  4  0  0  0  0
148150  2  0  0  0  0
147151  4  0  0  0  0
151152  4  0  0  0  0
145153  4  0  0  0  0
152153  4  0  0  0  0
144154  4  0  0  0  0
154155  4  0  0  0  0
155156  2  0  0  0  0
137157  1  0  0  0  0
154157  4  0  0  0  0
156158  4  0  0  0  0
157158  4  0  0  0  0
134159  4  0  0  0  0
158159  4  0  0  0  0
159160  4  0  0  0  0
160161  4  0  0  0  0
161162  2  0  0  0  0
162163  4  0  0  0  0
137164  1  0  0  0  0
160164  4  0  0  0  0
163164  4  0  0  0  0
163165  4  0  0  0  0
165166  1  0  0  0  0
166167  4  0  0  0  0
167168  4  0  0  0  0
168169  4  0  0  0  0
169170  4  0  0  0  0
170171  1  0  0  0  0
171172  4  0  0  0  0
171173  2  0  0  0  0
166174  4  0  0  0  0
170174  4  0  0  0  0
165175  4  0  0  0  0
175176  4  0  0  0  0
176177  2  0  0  0  0
138178  4  0  0  0  0
177178  4  0  0  0  0
137179  1  0  0  0  0
175179  4  0  0  0  0
178179  4  0  0  0  0
140180  1  0  0  0  0
141181  1  0  0  0  0
146182  1  0  0  0  0
149183  1  0  0  0  0
151184  1  0  0  0  0
152185  1  0  0  0  0
153186  1  0  0  0  0
155187  1  0  0  0  0
156188  1  0  0  0  0
161189  1  0  0  0  0
162190  1  0  0  0  0
167191  1  0  0  0  0
168192  1  0  0  0  0
169193  1  0  0  0  0
172194  1  0  0  0  0
174195  1  0  0  0  0
176196  1  0  0  0  0
177197  1  0  0  0  0
M  END
