 xtb: 6.5.1 (b24c23e)
          07302206213D

126145  0     0  0            999 V2000
   17.2756    0.0681    0.0203 Ni  0  0  0  0  0  0  0  0  0  0  0  0
   13.8801    0.1086    0.0776 C   0  0  0  0  0  0  0  0  0  0  0  0
   14.5429    1.3123   -0.0482 C   0  0  0  0  0  0  0  0  0  0  0  0
   13.8756    2.5739   -0.1562 C   0  0  0  0  0  0  0  0  0  0  0  0
   14.8395    3.5238   -0.1628 C   0  0  0  0  0  0  0  0  0  0  0  0
   16.0964    2.8417   -0.0597 C   0  0  0  0  0  0  0  0  0  0  0  0
   15.9042    1.4831   -0.0138 N   0  0  0  0  0  0  0  0  0  0  0  0
   17.3157    3.4863    0.0985 C   0  0  0  0  0  0  0  0  0  0  0  0
   17.3354    4.9715    0.1253 C   0  0  0  0  0  0  0  0  0  0  0  0
   17.0142    5.6924   -1.0240 C   0  0  0  0  0  0  0  0  0  0  0  0
   17.0398    7.0823   -1.0029 C   0  0  0  0  0  0  0  0  0  0  0  0
   16.7379    7.7948   -2.1156 O   0  0  0  0  0  0  0  0  0  0  0  0
   17.3797    7.7533    0.1728 C   0  0  0  0  0  0  0  0  0  0  0  0
   17.3942    9.1238    0.1640 O   0  0  0  0  0  0  0  0  0  0  0  0
   17.6949    7.0318    1.3212 C   0  0  0  0  0  0  0  0  0  0  0  0
   18.0139    7.7603    2.4367 O   0  0  0  0  0  0  0  0  0  0  0  0
   17.6773    5.6423    1.3016 C   0  0  0  0  0  0  0  0  0  0  0  0
   18.5159    2.8027    0.2403 C   0  0  0  0  0  0  0  0  0  0  0  0
   19.7810    3.4473    0.4196 C   0  0  0  0  0  0  0  0  0  0  0  0
   20.7219    2.4734    0.4023 C   0  0  0  0  0  0  0  0  0  0  0  0
   18.6832    1.4403    0.1301 N   0  0  0  0  0  0  0  0  0  0  0  0
   20.0359    1.2386    0.1948 C   0  0  0  0  0  0  0  0  0  0  0  0
   20.6939    0.0220   -0.0093 C   0  0  0  0  0  0  0  0  0  0  0  0
   20.0033   -1.1767   -0.2078 C   0  0  0  0  0  0  0  0  0  0  0  0
   20.6489   -2.4280   -0.4508 C   0  0  0  0  0  0  0  0  0  0  0  0
   19.6793   -3.3736   -0.4649 C   0  0  0  0  0  0  0  0  0  0  0  0
   18.4405   -2.6948   -0.2381 C   0  0  0  0  0  0  0  0  0  0  0  0
   18.6475   -1.3393   -0.1170 N   0  0  0  0  0  0  0  0  0  0  0  0
   17.2272   -3.3467   -0.0858 C   0  0  0  0  0  0  0  0  0  0  0  0
   17.2095   -4.8362   -0.1294 C   0  0  0  0  0  0  0  0  0  0  0  0
   17.3631   -5.5661    1.0466 C   0  0  0  0  0  0  0  0  0  0  0  0
   17.3461   -6.9561    1.0066 C   0  0  0  0  0  0  0  0  0  0  0  0
   17.4946   -7.6815    2.1419 O   0  0  0  0  0  0  0  0  0  0  0  0
   17.1754   -7.6136   -0.2124 C   0  0  0  0  0  0  0  0  0  0  0  0
   17.1635   -8.9847   -0.2205 O   0  0  0  0  0  0  0  0  0  0  0  0
   17.0220   -6.8803   -1.3859 C   0  0  0  0  0  0  0  0  0  0  0  0
   16.8590   -7.5969   -2.5424 O   0  0  0  0  0  0  0  0  0  0  0  0
   17.0381   -5.4907   -1.3495 C   0  0  0  0  0  0  0  0  0  0  0  0
   16.0297   -2.6760    0.1041 C   0  0  0  0  0  0  0  0  0  0  0  0
   14.7651   -3.3315    0.2625 C   0  0  0  0  0  0  0  0  0  0  0  0
   13.8238   -2.3597    0.3034 C   0  0  0  0  0  0  0  0  0  0  0  0
   14.5150   -1.1124    0.1717 C   0  0  0  0  0  0  0  0  0  0  0  0
   15.8690   -1.3132    0.0786 N   0  0  0  0  0  0  0  0  0  0  0  0
   12.7968    0.1237    0.1013 H   0  0  0  0  0  0  0  0  0  0  0  0
   12.8055    2.6962   -0.2078 H   0  0  0  0  0  0  0  0  0  0  0  0
   14.7231    4.5941   -0.2154 H   0  0  0  0  0  0  0  0  0  0  0  0
   16.7605    5.1804   -1.9432 H   0  0  0  0  0  0  0  0  0  0  0  0
   16.8137    8.7396   -1.9025 H   0  0  0  0  0  0  0  0  0  0  0  0
   17.6491    9.4254    1.0505 H   0  0  0  0  0  0  0  0  0  0  0  0
   18.2224    7.1789    3.1798 H   0  0  0  0  0  0  0  0  0  0  0  0
   17.9127    5.0859    2.2011 H   0  0  0  0  0  0  0  0  0  0  0  0
   19.9235    4.5096    0.5319 H   0  0  0  0  0  0  0  0  0  0  0  0
   21.7892    2.5710    0.5111 H   0  0  0  0  0  0  0  0  0  0  0  0
   21.7098   -2.5532   -0.5900 H   0  0  0  0  0  0  0  0  0  0  0  0
   19.7780   -4.4372   -0.6100 H   0  0  0  0  0  0  0  0  0  0  0  0
   17.4965   -5.0622    1.9951 H   0  0  0  0  0  0  0  0  0  0  0  0
   17.4538   -8.6237    1.9086 H   0  0  0  0  0  0  0  0  0  0  0  0
   17.0377   -9.2764   -1.1374 H   0  0  0  0  0  0  0  0  0  0  0  0
   16.7641   -7.0072   -3.3018 H   0  0  0  0  0  0  0  0  0  0  0  0
   16.9179   -4.9224   -2.2642 H   0  0  0  0  0  0  0  0  0  0  0  0
   14.6343   -4.4000    0.3241 H   0  0  0  0  0  0  0  0  0  0  0  0
   12.7546   -2.4573    0.4050 H   0  0  0  0  0  0  0  0  0  0  0  0
   28.1499   -0.0699    0.0120 Ni  0  0  0  0  0  0  0  0  0  0  0  0
   31.5454   -0.1167    0.0649 C   0  0  0  0  0  0  0  0  0  0  0  0
   30.8827   -1.2984   -0.1966 C   0  0  0  0  0  0  0  0  0  0  0  0
   31.5499   -2.5396   -0.4469 C   0  0  0  0  0  0  0  0  0  0  0  0
   30.5860   -3.4827   -0.5611 C   0  0  0  0  0  0  0  0  0  0  0  0
   29.3291   -2.8166   -0.3814 C   0  0  0  0  0  0  0  0  0  0  0  0
   29.5214   -1.4720   -0.1818 N   0  0  0  0  0  0  0  0  0  0  0  0
   28.1099   -3.4750   -0.2973 C   0  0  0  0  0  0  0  0  0  0  0  0
   28.0902   -4.9537   -0.4390 C   0  0  0  0  0  0  0  0  0  0  0  0
   28.4113   -5.5397   -1.6626 C   0  0  0  0  0  0  0  0  0  0  0  0
   28.3857   -6.9230   -1.7992 C   0  0  0  0  0  0  0  0  0  0  0  0
   28.6876   -7.5048   -2.9855 O   0  0  0  0  0  0  0  0  0  0  0  0
   28.0458   -7.7230   -0.7072 C   0  0  0  0  0  0  0  0  0  0  0  0
   28.0313   -9.0836   -0.8712 O   0  0  0  0  0  0  0  0  0  0  0  0
   27.7306   -7.1362    0.5157 C   0  0  0  0  0  0  0  0  0  0  0  0
   27.4116   -7.9864    1.5414 O   0  0  0  0  0  0  0  0  0  0  0  0
   27.7482   -5.7535    0.6536 C   0  0  0  0  0  0  0  0  0  0  0  0
   26.9096   -2.8119   -0.0789 C   0  0  0  0  0  0  0  0  0  0  0  0
   25.6446   -3.4726    0.0262 C   0  0  0  0  0  0  0  0  0  0  0  0
   24.7036   -2.5030    0.1194 C   0  0  0  0  0  0  0  0  0  0  0  0
   26.7424   -1.4457   -0.0340 N   0  0  0  0  0  0  0  0  0  0  0  0
   25.3896   -1.2527    0.0532 C   0  0  0  0  0  0  0  0  0  0  0  0
   24.7316   -0.0208   -0.0117 C   0  0  0  0  0  0  0  0  0  0  0  0
   25.4222    1.1927   -0.0731 C   0  0  0  0  0  0  0  0  0  0  0  0
   24.7766    2.4634   -0.1726 C   0  0  0  0  0  0  0  0  0  0  0  0
   25.7462    3.4045   -0.0795 C   0  0  0  0  0  0  0  0  0  0  0  0
   26.9850    2.7044    0.0689 C   0  0  0  0  0  0  0  0  0  0  0  0
   26.7780    1.3440    0.0355 N   0  0  0  0  0  0  0  0  0  0  0  0
   28.1983    3.3348    0.2941 C   0  0  0  0  0  0  0  0  0  0  0  0
   28.2161    4.8198    0.4196 C   0  0  0  0  0  0  0  0  0  0  0  0
   28.0624    5.4116    1.6708 C   0  0  0  0  0  0  0  0  0  0  0  0
   28.0794    6.7971    1.7885 C   0  0  0  0  0  0  0  0  0  0  0  0
   27.9309    7.3892    2.9988 O   0  0  0  0  0  0  0  0  0  0  0  0
   28.2501    7.5886    0.6519 C   0  0  0  0  0  0  0  0  0  0  0  0
   28.2621    8.9517    0.7993 O   0  0  0  0  0  0  0  0  0  0  0  0
   28.4035    6.9931   -0.5971 C   0  0  0  0  0  0  0  0  0  0  0  0
   28.5665    7.8361   -1.6649 O   0  0  0  0  0  0  0  0  0  0  0  0
   28.3874    5.6083   -0.7185 C   0  0  0  0  0  0  0  0  0  0  0  0
   29.3958    2.6469    0.4068 C   0  0  0  0  0  0  0  0  0  0  0  0
   30.6604    3.2802    0.6384 C   0  0  0  0  0  0  0  0  0  0  0  0
   31.6017    2.3101    0.5689 C   0  0  0  0  0  0  0  0  0  0  0  0
   30.9105    1.0857    0.2967 C   0  0  0  0  0  0  0  0  0  0  0  0
   29.5565    1.2958    0.2269 N   0  0  0  0  0  0  0  0  0  0  0  0
   32.6288   -0.1343    0.0866 H   0  0  0  0  0  0  0  0  0  0  0  0
   32.6201   -2.6553   -0.5121 H   0  0  0  0  0  0  0  0  0  0  0  0
   30.7024   -4.5401   -0.7347 H   0  0  0  0  0  0  0  0  0  0  0  0
   28.6651   -4.9268   -2.5178 H   0  0  0  0  0  0  0  0  0  0  0  0
   28.6118   -8.4677   -2.8809 H   0  0  0  0  0  0  0  0  0  0  0  0
   27.7764   -9.4837   -0.0246 H   0  0  0  0  0  0  0  0  0  0  0  0
   27.2031   -7.4930    2.3456 H   0  0  0  0  0  0  0  0  0  0  0  0
   27.5129   -5.3026    1.6105 H   0  0  0  0  0  0  0  0  0  0  0  0
   25.5020   -4.5408    0.0174 H   0  0  0  0  0  0  0  0  0  0  0  0
   23.6364   -2.6124    0.2164 H   0  0  0  0  0  0  0  0  0  0  0  0
   23.7157    2.6037   -0.2968 H   0  0  0  0  0  0  0  0  0  0  0  0
   25.6476    4.4778   -0.1031 H   0  0  0  0  0  0  0  0  0  0  0  0
   27.9290    4.8035    2.5560 H   0  0  0  0  0  0  0  0  0  0  0  0
   27.9717    8.3518    2.8738 H   0  0  0  0  0  0  0  0  0  0  0  0
   28.3878    9.3456   -0.0786 H   0  0  0  0  0  0  0  0  0  0  0  0
   28.6614    7.3363   -2.4863 H   0  0  0  0  0  0  0  0  0  0  0  0
   28.5076    5.1473   -1.6917 H   0  0  0  0  0  0  0  0  0  0  0  0
   30.7912    4.3349    0.8207 H   0  0  0  0  0  0  0  0  0  0  0  0
   32.6709    2.3956    0.6809 H   0  0  0  0  0  0  0  0  0  0  0  0
   22.1044    0.0059   -0.0160 C   0  0  0  0  0  0  0  0  0  0  0  0
   23.3211   -0.0041   -0.0164 C   0  0  0  0  0  0  0  0  0  0  0  0
  2  3  4  0  0  0  0
  3  4  4  0  0  0  0
  4  5  2  0  0  0  0
  5  6  4  0  0  0  0
  1  7  1  0  0  0  0
  3  7  4  0  0  0  0
  6  7  4  0  0  0  0
  6  8  4  0  0  0  0
  8  9  1  0  0  0  0
  9 10  4  0  0  0  0
 10 11  4  0  0  0  0
 11 12  1  0  0  0  0
 11 13  4  0  0  0  0
 13 14  1  0  0  0  0
 13 15  4  0  0  0  0
 15 16  1  0  0  0  0
  9 17  4  0  0  0  0
 15 17  4  0  0  0  0
  8 18  4  0  0  0  0
 18 19  4  0  0  0  0
 19 20  2  0  0  0  0
  1 21  1  0  0  0  0
 18 21  4  0  0  0  0
 20 22  4  0  0  0  0
 21 22  4  0  0  0  0
 22 23  4  0  0  0  0
 23 24  4  0  0  0  0
 24 25  4  0  0  0  0
 25 26  2  0  0  0  0
 26 27  4  0  0  0  0
  1 28  1  0  0  0  0
 24 28  4  0  0  0  0
 27 28  4  0  0  0  0
 27 29  4  0  0  0  0
 29 30  1  0  0  0  0
 30 31  4  0  0  0  0
 31 32  4  0  0  0  0
 32 33  1  0  0  0  0
 32 34  4  0  0  0  0
 34 35  1  0  0  0  0
 34 36  4  0  0  0  0
 36 37  1  0  0  0  0
 30 38  4  0  0  0  0
 36 38  4  0  0  0  0
 29 39  4  0  0  0  0
 39 40  4  0  0  0  0
 40 41  2  0  0  0  0
  2 42  4  0  0  0  0
 41 42  4  0  0  0  0
  1 43  1  0  0  0  0
 39 43  4  0  0  0  0
 42 43  4  0  0  0  0
  2 44  1  0  0  0  0
  4 45  1  0  0  0  0
  5 46  1  0  0  0  0
 10 47  1  0  0  0  0
 12 48  1  0  0  0  0
 14 49  1  0  0  0  0
 16 50  1  0  0  0  0
 17 51  1  0  0  0  0
 19 52  1  0  0  0  0
 20 53  1  0  0  0  0
 25 54  1  0  0  0  0
 26 55  1  0  0  0  0
 31 56  1  0  0  0  0
 33 57  1  0  0  0  0
 35 58  1  0  0  0  0
 37 59  1  0  0  0  0
 38 60  1  0  0  0  0
 40 61  1  0  0  0  0
 41 62  1  0  0  0  0
 64 65  4  0  0  0  0
 65 66  4  0  0  0  0
 66 67  2  0  0  0  0
 67 68  4  0  0  0  0
 63 69  1  0  0  0  0
 65 69  4  0  0  0  0
 68 69  4  0  0  0  0
 68 70  4  0  0  0  0
 70 71  1  0  0  0  0
 71 72  4  0  0  0  0
 72 73  4  0  0  0  0
 73 74  1  0  0  0  0
 73 75  4  0  0  0  0
 75 76  1  0  0  0  0
 75 77  4  0  0  0  0
 77 78  1  0  0  0  0
 71 79  4  0  0  0  0
 77 79  4  0  0  0  0
 70 80  4  0  0  0  0
 80 81  4  0  0  0  0
 81 82  2  0  0  0  0
 63 83  1  0  0  0  0
 80 83  4  0  0  0  0
 82 84  4  0  0  0  0
 83 84  4  0  0  0  0
 84 85  4  0  0  0  0
 85 86  4  0  0  0  0
 86 87  4  0  0  0  0
 87 88  2  0  0  0  0
 88 89  4  0  0  0  0
 63 90  1  0  0  0  0
 86 90  4  0  0  0  0
 89 90  4  0  0  0  0
 89 91  4  0  0  0  0
 91 92  1  0  0  0  0
 92 93  4  0  0  0  0
 93 94  4  0  0  0  0
 94 95  1  0  0  0  0
 94 96  4  0  0  0  0
 96 97  1  0  0  0  0
 96 98  4  0  0  0  0
 98 99  1  0  0  0  0
 92100  4  0  0  0  0
 98100  4  0  0  0  0
 91101  4  0  0  0  0
101102  4  0  0  0  0
102103  2  0  0  0  0
 64104  4  0  0  0  0
103104  4  0  0  0  0
 63105  1  0  0  0  0
101105  4  0  0  0  0
104105  4  0  0  0  0
 64106  1  0  0  0  0
 66107  1  0  0  0  0
 67108  1  0  0  0  0
 72109  1  0  0  0  0
 74110  1  0  0  0  0
 76111  1  0  0  0  0
 78112  1  0  0  0  0
 79113  1  0  0  0  0
 81114  1  0  0  0  0
 82115  1  0  0  0  0
 87116  1  0  0  0  0
 88117  1  0  0  0  0
 93118  1  0  0  0  0
 95119  1  0  0  0  0
 97120  1  0  0  0  0
 99121  1  0  0  0  0
100122  1  0  0  0  0
102123  1  0  0  0  0
103124  1  0  0  0  0
 23125  4  0  0  0  0
 85126  4  0  0  0  0
125126  3  0  0  0  0
M  END
