 xtb: 6.5.1 (b24c23e)
          07302203353D

185214  0     0  0            999 V2000
   25.3254    0.2303    0.1012 Ni  0  0  0  0  0  0  0  0  0  0  0  0
   21.9344    0.2127    0.0236 C   0  0  0  0  0  0  0  0  0  0  0  0
   22.5860   -0.9983    0.1354 C   0  0  0  0  0  0  0  0  0  0  0  0
   21.9098   -2.2524    0.2651 C   0  0  0  0  0  0  0  0  0  0  0  0
   22.8668   -3.2100    0.2770 C   0  0  0  0  0  0  0  0  0  0  0  0
   24.1265   -2.5411    0.1322 C   0  0  0  0  0  0  0  0  0  0  0  0
   23.9454   -1.1805    0.0883 N   0  0  0  0  0  0  0  0  0  0  0  0
   25.3421   -3.1968   -0.0135 C   0  0  0  0  0  0  0  0  0  0  0  0
   25.3604   -4.6786   -0.0550 C   0  0  0  0  0  0  0  0  0  0  0  0
   24.7218   -5.3654   -1.0140 C   0  0  0  0  0  0  0  0  0  0  0  0
   24.7173   -6.8711   -1.0647 C   0  0  0  0  0  0  0  0  0  0  0  0
   25.7659   -7.4338   -0.2097 N   0  0  0  0  0  0  0  0  0  0  0  0
   26.2518   -6.7274    0.8590 C   0  0  0  0  0  0  0  0  0  0  0  0
   26.1137   -5.3939    0.9650 C   0  0  0  0  0  0  0  0  0  0  0  0
   26.5471   -2.5168   -0.1350 C   0  0  0  0  0  0  0  0  0  0  0  0
   27.8028   -3.1636   -0.3661 C   0  0  0  0  0  0  0  0  0  0  0  0
   28.7503   -2.1954   -0.3569 C   0  0  0  0  0  0  0  0  0  0  0  0
   26.7212   -1.1561   -0.0206 N   0  0  0  0  0  0  0  0  0  0  0  0
   28.0717   -0.9610   -0.1221 C   0  0  0  0  0  0  0  0  0  0  0  0
   28.7366    0.2531    0.0671 C   0  0  0  0  0  0  0  0  0  0  0  0
   28.0608    1.4552    0.2934 C   0  0  0  0  0  0  0  0  0  0  0  0
   28.7281    2.6896    0.5594 C   0  0  0  0  0  0  0  0  0  0  0  0
   27.7663    3.6393    0.6507 C   0  0  0  0  0  0  0  0  0  0  0  0
   26.5142    2.9839    0.4242 C   0  0  0  0  0  0  0  0  0  0  0  0
   26.7055    1.6326    0.2409 N   0  0  0  0  0  0  0  0  0  0  0  0
   25.2987    3.6507    0.3449 C   0  0  0  0  0  0  0  0  0  0  0  0
   25.2871    5.1273    0.4772 C   0  0  0  0  0  0  0  0  0  0  0  0
   24.6264    5.7366    1.4728 C   0  0  0  0  0  0  0  0  0  0  0  0
   24.5867    7.2353    1.6207 C   0  0  0  0  0  0  0  0  0  0  0  0
   25.6219    7.8768    0.8058 N   0  0  0  0  0  0  0  0  0  0  0  0
   26.1286    7.2511   -0.3028 C   0  0  0  0  0  0  0  0  0  0  0  0
   26.0262    5.9235   -0.4920 C   0  0  0  0  0  0  0  0  0  0  0  0
   24.0959    2.9878    0.1361 C   0  0  0  0  0  0  0  0  0  0  0  0
   22.8365    3.6504   -0.0372 C   0  0  0  0  0  0  0  0  0  0  0  0
   21.8941    2.6836   -0.1370 C   0  0  0  0  0  0  0  0  0  0  0  0
   22.5781    1.4316   -0.0287 C   0  0  0  0  0  0  0  0  0  0  0  0
   23.9308    1.6254    0.1024 N   0  0  0  0  0  0  0  0  0  0  0  0
   20.8511    0.2070   -0.0091 H   0  0  0  0  0  0  0  0  0  0  0  0
   20.8399   -2.3648    0.3422 H   0  0  0  0  0  0  0  0  0  0  0  0
   22.7438   -4.2763    0.3749 H   0  0  0  0  0  0  0  0  0  0  0  0
   24.1618   -4.8671   -1.7967 H   0  0  0  0  0  0  0  0  0  0  0  0
   24.8961   -7.2155   -2.0924 H   0  0  0  0  0  0  0  0  0  0  0  0
   23.7283   -7.2603   -0.7578 H   0  0  0  0  0  0  0  0  0  0  0  0
   25.7074   -8.4353   -0.0957 H   0  0  0  0  0  0  0  0  0  0  0  0
   26.8270   -7.3142    1.5681 H   0  0  0  0  0  0  0  0  0  0  0  0
   26.5481   -4.8455    1.7887 H   0  0  0  0  0  0  0  0  0  0  0  0
   27.9310   -4.2230   -0.5175 H   0  0  0  0  0  0  0  0  0  0  0  0
   29.8157   -2.2923   -0.4906 H   0  0  0  0  0  0  0  0  0  0  0  0
   29.7957    2.7987    0.6625 H   0  0  0  0  0  0  0  0  0  0  0  0
   27.8836    4.6919    0.8500 H   0  0  0  0  0  0  0  0  0  0  0  0
   24.0720    5.1762    2.2165 H   0  0  0  0  0  0  0  0  0  0  0  0
   24.7570    7.5166    2.6689 H   0  0  0  0  0  0  0  0  0  0  0  0
   23.5889    7.6202    1.3380 H   0  0  0  0  0  0  0  0  0  0  0  0
   25.5374    8.8815    0.7537 H   0  0  0  0  0  0  0  0  0  0  0  0
   26.6893    7.8958   -0.9721 H   0  0  0  0  0  0  0  0  0  0  0  0
   26.4752    5.4395   -1.3475 H   0  0  0  0  0  0  0  0  0  0  0  0
   22.7051    4.7193   -0.0819 H   0  0  0  0  0  0  0  0  0  0  0  0
   20.8288    2.7887   -0.2685 H   0  0  0  0  0  0  0  0  0  0  0  0
   57.2307    0.1410    0.1152 Ni  0  0  0  0  0  0  0  0  0  0  0  0
   60.6157    0.3216    0.1042 C   0  0  0  0  0  0  0  0  0  0  0  0
   59.9074    1.4520    0.4568 C   0  0  0  0  0  0  0  0  0  0  0  0
   60.5209    2.6804    0.8586 C   0  0  0  0  0  0  0  0  0  0  0  0
   59.5205    3.5770    1.0278 C   0  0  0  0  0  0  0  0  0  0  0  0
   58.2972    2.9003    0.7107 C   0  0  0  0  0  0  0  0  0  0  0  0
   58.5423    1.5841    0.4059 N   0  0  0  0  0  0  0  0  0  0  0  0
   57.0563    3.5219    0.6501 C   0  0  0  0  0  0  0  0  0  0  0  0
   56.9700    4.9824    0.8868 C   0  0  0  0  0  0  0  0  0  0  0  0
   57.6091    5.8636    0.1029 C   0  0  0  0  0  0  0  0  0  0  0  0
   57.5452    7.3504    0.3375 C   0  0  0  0  0  0  0  0  0  0  0  0
   56.4399    7.6991    1.2341 N   0  0  0  0  0  0  0  0  0  0  0  0
   55.9517    6.7842    2.1300 C   0  0  0  0  0  0  0  0  0  0  0  0
   56.1492    5.4614    1.9898 C   0  0  0  0  0  0  0  0  0  0  0  0
   55.8874    2.8256    0.3697 C   0  0  0  0  0  0  0  0  0  0  0  0
   54.6059    3.4471    0.2303 C   0  0  0  0  0  0  0  0  0  0  0  0
   53.7034    2.4512    0.0591 C   0  0  0  0  0  0  0  0  0  0  0  0
   55.7751    1.4596    0.2404 N   0  0  0  0  0  0  0  0  0  0  0  0
   54.4355    1.2253    0.0897 C   0  0  0  0  0  0  0  0  0  0  0  0
   53.8264   -0.0328    0.0752 C   0  0  0  0  0  0  0  0  0  0  0  0
   54.5579   -1.2230    0.0855 C   0  0  0  0  0  0  0  0  0  0  0  0
   53.9524   -2.5159    0.1205 C   0  0  0  0  0  0  0  0  0  0  0  0
   54.9565   -3.4181    0.0033 C   0  0  0  0  0  0  0  0  0  0  0  0
   56.1724   -2.6722   -0.1141 C   0  0  0  0  0  0  0  0  0  0  0  0
   55.9181   -1.3223   -0.0217 N   0  0  0  0  0  0  0  0  0  0  0  0
   57.4131   -3.2488   -0.3534 C   0  0  0  0  0  0  0  0  0  0  0  0
   57.4908   -4.7173   -0.5397 C   0  0  0  0  0  0  0  0  0  0  0  0
   58.2069   -5.4927    0.2880 C   0  0  0  0  0  0  0  0  0  0  0  0
   58.3148   -6.9847    0.1099 C   0  0  0  0  0  0  0  0  0  0  0  0
   57.2841   -7.4866   -0.8027 N   0  0  0  0  0  0  0  0  0  0  0  0
   56.7164   -6.6635   -1.7395 C   0  0  0  0  0  0  0  0  0  0  0  0
   56.7558   -5.3228   -1.6408 C   0  0  0  0  0  0  0  0  0  0  0  0
   58.5813   -2.5005   -0.4278 C   0  0  0  0  0  0  0  0  0  0  0  0
   59.8679   -3.0504   -0.7400 C   0  0  0  0  0  0  0  0  0  0  0  0
   60.7666   -2.0460   -0.6112 C   0  0  0  0  0  0  0  0  0  0  0  0
   60.0283   -0.8813   -0.2298 C   0  0  0  0  0  0  0  0  0  0  0  0
   58.6857   -1.1583   -0.1588 N   0  0  0  0  0  0  0  0  0  0  0  0
   61.6979    0.3798    0.0968 H   0  0  0  0  0  0  0  0  0  0  0  0
   61.5822    2.8187    0.9918 H   0  0  0  0  0  0  0  0  0  0  0  0
   59.5916    4.6064    1.3396 H   0  0  0  0  0  0  0  0  0  0  0  0
   58.2185    5.5457   -0.7350 H   0  0  0  0  0  0  0  0  0  0  0  0
   57.3895    7.8772   -0.6138 H   0  0  0  0  0  0  0  0  0  0  0  0
   58.5027    7.7119    0.7574 H   0  0  0  0  0  0  0  0  0  0  0  0
   56.4482    8.6619    1.5378 H   0  0  0  0  0  0  0  0  0  0  0  0
   55.3251    7.2026    2.9112 H   0  0  0  0  0  0  0  0  0  0  0  0
   55.7136    4.7503    2.6772 H   0  0  0  0  0  0  0  0  0  0  0  0
   54.4302    4.5100    0.2606 H   0  0  0  0  0  0  0  0  0  0  0  0
   52.6358    2.5241   -0.0722 H   0  0  0  0  0  0  0  0  0  0  0  0
   52.8936   -2.6929    0.2199 H   0  0  0  0  0  0  0  0  0  0  0  0
   54.8906   -4.4939   -0.0067 H   0  0  0  0  0  0  0  0  0  0  0  0
   58.7594   -5.0781    1.1231 H   0  0  0  0  0  0  0  0  0  0  0  0
   58.1884   -7.4912    1.0765 H   0  0  0  0  0  0  0  0  0  0  0  0
   59.3193   -7.2517   -0.2689 H   0  0  0  0  0  0  0  0  0  0  0  0
   57.4108   -8.4513   -1.0721 H   0  0  0  0  0  0  0  0  0  0  0  0
   56.1631   -7.1766   -2.5196 H   0  0  0  0  0  0  0  0  0  0  0  0
   56.2594   -4.6894   -2.3621 H   0  0  0  0  0  0  0  0  0  0  0  0
   60.0464   -4.0747   -1.0242 H   0  0  0  0  0  0  0  0  0  0  0  0
   61.8352   -2.0724   -0.7551 H   0  0  0  0  0  0  0  0  0  0  0  0
   33.9378    0.3338    0.1219 C   0  0  0  0  0  0  0  0  0  0  0  0
   32.7112    0.3002    0.0844 C   0  0  0  0  0  0  0  0  0  0  0  0
   31.3657    0.2762    0.0602 C   0  0  0  0  0  0  0  0  0  0  0  0
   30.1426    0.2632    0.0556 C   0  0  0  0  0  0  0  0  0  0  0  0
   35.2811    0.3846    0.1863 C   0  0  0  0  0  0  0  0  0  0  0  0
   36.5002    0.4490    0.2633 C   0  0  0  0  0  0  0  0  0  0  0  0
   49.8534   -0.1177    0.1002 C   0  0  0  0  0  0  0  0  0  0  0  0
   48.6269   -0.0784    0.1354 C   0  0  0  0  0  0  0  0  0  0  0  0
   47.2851    0.0057    0.1953 C   0  0  0  0  0  0  0  0  0  0  0  0
   46.0692    0.1208    0.2641 C   0  0  0  0  0  0  0  0  0  0  0  0
   51.1990   -0.1211    0.0763 C   0  0  0  0  0  0  0  0  0  0  0  0
   52.4219   -0.0950    0.0675 C   0  0  0  0  0  0  0  0  0  0  0  0
   41.2970    0.6586    0.5384 Ni  0  0  0  0  0  0  0  0  0  0  0  0
   37.8989    0.5369    0.3650 C   0  0  0  0  0  0  0  0  0  0  0  0
   38.5790    1.4344   -0.4657 C   0  0  0  0  0  0  0  0  0  0  0  0
   37.9193    2.3681   -1.3206 C   0  0  0  0  0  0  0  0  0  0  0  0
   38.8902    3.0904   -1.9318 C   0  0  0  0  0  0  0  0  0  0  0  0
   40.1424    2.5603   -1.4863 C   0  0  0  0  0  0  0  0  0  0  0  0
   39.9361    1.5684   -0.5526 N   0  0  0  0  0  0  0  0  0  0  0  0
   41.3749    2.9202   -2.0142 C   0  0  0  0  0  0  0  0  0  0  0  0
   41.4435    3.9679   -3.0600 C   0  0  0  0  0  0  0  0  0  0  0  0
   40.8330    3.8349   -4.2469 C   0  0  0  0  0  0  0  0  0  0  0  0
   40.9451    4.8731   -5.3323 C   0  0  0  0  0  0  0  0  0  0  0  0
   41.4320    6.1479   -4.7983 N   0  0  0  0  0  0  0  0  0  0  0  0
   42.1911    6.1833   -3.6579 C   0  0  0  0  0  0  0  0  0  0  0  0
   42.2121    5.1705   -2.7736 C   0  0  0  0  0  0  0  0  0  0  0  0
   42.5589    2.2947   -1.6410 C   0  0  0  0  0  0  0  0  0  0  0  0
   43.8039    2.4834   -2.3196 C   0  0  0  0  0  0  0  0  0  0  0  0
   44.7130    1.6921   -1.6992 C   0  0  0  0  0  0  0  0  0  0  0  0
   42.7040    1.3911   -0.6151 N   0  0  0  0  0  0  0  0  0  0  0  0
   44.0278    1.0458   -0.6257 C   0  0  0  0  0  0  0  0  0  0  0  0
   44.6777    0.2927    0.3569 C   0  0  0  0  0  0  0  0  0  0  0  0
   44.0121   -0.1946    1.4869 C   0  0  0  0  0  0  0  0  0  0  0  0
   44.6861   -0.7526    2.6148 C   0  0  0  0  0  0  0  0  0  0  0  0
   43.7310   -1.0616    3.5259 C   0  0  0  0  0  0  0  0  0  0  0  0
   42.4707   -0.7378    2.9304 C   0  0  0  0  0  0  0  0  0  0  0  0
   42.6610   -0.1679    1.6907 N   0  0  0  0  0  0  0  0  0  0  0  0
   41.2389   -1.0611    3.4837 C   0  0  0  0  0  0  0  0  0  0  0  0
   41.1851   -1.7197    4.8106 C   0  0  0  0  0  0  0  0  0  0  0  0
   41.7364   -2.9208    5.0380 C   0  0  0  0  0  0  0  0  0  0  0  0
   41.6978   -3.5867    6.3890 C   0  0  0  0  0  0  0  0  0  0  0  0
   40.7085   -2.9555    7.2667 N   0  0  0  0  0  0  0  0  0  0  0  0
   40.3078   -1.6622    7.0592 C   0  0  0  0  0  0  0  0  0  0  0  0
   40.4808   -1.0325    5.8836 C   0  0  0  0  0  0  0  0  0  0  0  0
   40.0395   -0.8384    2.8173 C   0  0  0  0  0  0  0  0  0  0  0  0
   38.7808   -1.3590    3.2544 C   0  0  0  0  0  0  0  0  0  0  0  0
   37.8580   -0.9765    2.3382 C   0  0  0  0  0  0  0  0  0  0  0  0
   38.5495   -0.1953    1.3626 C   0  0  0  0  0  0  0  0  0  0  0  0
   39.8878   -0.1411    1.6420 N   0  0  0  0  0  0  0  0  0  0  0  0
   36.8494    2.4632   -1.4136 H   0  0  0  0  0  0  0  0  0  0  0  0
   38.7771    3.9033   -2.6303 H   0  0  0  0  0  0  0  0  0  0  0  0
   40.2884    2.9362   -4.5120 H   0  0  0  0  0  0  0  0  0  0  0  0
   41.6172    4.5157   -6.1351 H   0  0  0  0  0  0  0  0  0  0  0  0
   39.9615    5.0498   -5.7884 H   0  0  0  0  0  0  0  0  0  0  0  0
   41.6624    6.8269   -5.5093 H   0  0  0  0  0  0  0  0  0  0  0  0
   42.7051    7.1231   -3.4833 H   0  0  0  0  0  0  0  0  0  0  0  0
   42.7587    5.2441   -1.8442 H   0  0  0  0  0  0  0  0  0  0  0  0
   43.9486    3.1269   -3.1724 H   0  0  0  0  0  0  0  0  0  0  0  0
   45.7594    1.5626   -1.9244 H   0  0  0  0  0  0  0  0  0  0  0  0
   45.7553   -0.8656    2.6950 H   0  0  0  0  0  0  0  0  0  0  0  0
   43.8603   -1.4793    4.5108 H   0  0  0  0  0  0  0  0  0  0  0  0
   42.2518   -3.4704    4.2591 H   0  0  0  0  0  0  0  0  0  0  0  0
   42.6982   -3.5513    6.8595 H   0  0  0  0  0  0  0  0  0  0  0  0
   41.4286   -4.6464    6.2804 H   0  0  0  0  0  0  0  0  0  0  0  0
   40.7598   -3.2604    8.2278 H   0  0  0  0  0  0  0  0  0  0  0  0
   39.7683   -1.2153    7.8882 H   0  0  0  0  0  0  0  0  0  0  0  0
   40.1093   -0.0311    5.7196 H   0  0  0  0  0  0  0  0  0  0  0  0
   38.6363   -1.9544    4.1412 H   0  0  0  0  0  0  0  0  0  0  0  0
   36.7991   -1.1781    2.3228 H   0  0  0  0  0  0  0  0  0  0  0  0
  2  3  4  0  0  0  0
  3  4  4  0  0  0  0
  4  5  2  0  0  0  0
  5  6  4  0  0  0  0
  1  7  1  0  0  0  0
  3  7  4  0  0  0  0
  6  7  4  0  0  0  0
  6  8  4  0  0  0  0
  8  9  1  0  0  0  0
  9 10  2  0  0  0  0
 10 11  1  0  0  0  0
 11 12  1  0  0  0  0
 12 13  1  0  0  0  0
  9 14  1  0  0  0  0
 13 14  2  0  0  0  0
  8 15  4  0  0  0  0
 15 16  4  0  0  0  0
 16 17  2  0  0  0  0
  1 18  1  0  0  0  0
 15 18  4  0  0  0  0
 17 19  4  0  0  0  0
 18 19  4  0  0  0  0
 19 20  4  0  0  0  0
 20 21  4  0  0  0  0
 21 22  4  0  0  0  0
 22 23  2  0  0  0  0
 23 24  4  0  0  0  0
  1 25  1  0  0  0  0
 21 25  4  0  0  0  0
 24 25  4  0  0  0  0
 24 26  4  0  0  0  0
 26 27  1  0  0  0  0
 27 28  2  0  0  0  0
 28 29  1  0  0  0  0
 29 30  1  0  0  0  0
 30 31  1  0  0  0  0
 27 32  1  0  0  0  0
 31 32  2  0  0  0  0
 26 33  4  0  0  0  0
 33 34  4  0  0  0  0
 34 35  2  0  0  0  0
  2 36  4  0  0  0  0
 35 36  4  0  0  0  0
  1 37  1  0  0  0  0
 33 37  4  0  0  0  0
 36 37  4  0  0  0  0
  2 38  1  0  0  0  0
  4 39  1  0  0  0  0
  5 40  1  0  0  0  0
 10 41  1  0  0  0  0
 11 42  1  0  0  0  0
 11 43  1  0  0  0  0
 12 44  1  0  0  0  0
 13 45  1  0  0  0  0
 14 46  1  0  0  0  0
 16 47  1  0  0  0  0
 17 48  1  0  0  0  0
 22 49  1  0  0  0  0
 23 50  1  0  0  0  0
 28 51  1  0  0  0  0
 29 52  1  0  0  0  0
 29 53  1  0  0  0  0
 30 54  1  0  0  0  0
 31 55  1  0  0  0  0
 32 56  1  0  0  0  0
 34 57  1  0  0  0  0
 35 58  1  0  0  0  0
 60 61  4  0  0  0  0
 61 62  4  0  0  0  0
 62 63  2  0  0  0  0
 63 64  4  0  0  0  0
 59 65  1  0  0  0  0
 61 65  4  0  0  0  0
 64 65  4  0  0  0  0
 64 66  4  0  0  0  0
 66 67  1  0  0  0  0
 67 68  2  0  0  0  0
 68 69  1  0  0  0  0
 69 70  1  0  0  0  0
 70 71  1  0  0  0  0
 67 72  1  0  0  0  0
 71 72  2  0  0  0  0
 66 73  4  0  0  0  0
 73 74  4  0  0  0  0
 74 75  2  0  0  0  0
 59 76  1  0  0  0  0
 73 76  4  0  0  0  0
 75 77  4  0  0  0  0
 76 77  4  0  0  0  0
 77 78  4  0  0  0  0
 78 79  4  0  0  0  0
 79 80  4  0  0  0  0
 80 81  2  0  0  0  0
 81 82  4  0  0  0  0
 59 83  1  0  0  0  0
 79 83  4  0  0  0  0
 82 83  4  0  0  0  0
 82 84  4  0  0  0  0
 84 85  1  0  0  0  0
 85 86  2  0  0  0  0
 86 87  1  0  0  0  0
 87 88  1  0  0  0  0
 88 89  1  0  0  0  0
 85 90  1  0  0  0  0
 89 90  2  0  0  0  0
 84 91  4  0  0  0  0
 91 92  4  0  0  0  0
 92 93  2  0  0  0  0
 60 94  4  0  0  0  0
 93 94  4  0  0  0  0
 59 95  1  0  0  0  0
 91 95  4  0  0  0  0
 94 95  4  0  0  0  0
 60 96  1  0  0  0  0
 62 97  1  0  0  0  0
 63 98  1  0  0  0  0
 68 99  1  0  0  0  0
 69100  1  0  0  0  0
 69101  1  0  0  0  0
 70102  1  0  0  0  0
 71103  1  0  0  0  0
 72104  1  0  0  0  0
 74105  1  0  0  0  0
 75106  1  0  0  0  0
 80107  1  0  0  0  0
 81108  1  0  0  0  0
 86109  1  0  0  0  0
 87110  1  0  0  0  0
 87111  1  0  0  0  0
 88112  1  0  0  0  0
 89113  1  0  0  0  0
 90114  1  0  0  0  0
 92115  1  0  0  0  0
 93116  1  0  0  0  0
117118  3  0  0  0  0
118119  4  0  0  0  0
 20120  4  0  0  0  0
119120  3  0  0  0  0
117121  4  0  0  0  0
121122  3  0  0  0  0
123124  3  0  0  0  0
124125  4  0  0  0  0
125126  3  0  0  0  0
123127  4  0  0  0  0
 78128  4  0  0  0  0
127128  3  0  0  0  0
122130  4  0  0  0  0
130131  4  0  0  0  0
131132  4  0  0  0  0
132133  2  0  0  0  0
133134  4  0  0  0  0
129135  1  0  0  0  0
131135  4  0  0  0  0
134135  4  0  0  0  0
134136  4  0  0  0  0
136137  1  0  0  0  0
137138  2  0  0  0  0
138139  1  0  0  0  0
139140  1  0  0  0  0
140141  1  0  0  0  0
137142  1  0  0  0  0
141142  2  0  0  0  0
136143  4  0  0  0  0
143144  4  0  0  0  0
144145  2  0  0  0  0
129146  1  0  0  0  0
143146  4  0  0  0  0
145147  4  0  0  0  0
146147  4  0  0  0  0
126148  4  0  0  0  0
147148  4  0  0  0  0
148149  4  0  0  0  0
149150  4  0  0  0  0
150151  2  0  0  0  0
151152  4  0  0  0  0
129153  1  0  0  0  0
149153  4  0  0  0  0
152153  4  0  0  0  0
152154  4  0  0  0  0
154155  1  0  0  0  0
155156  2  0  0  0  0
156157  1  0  0  0  0
157158  1  0  0  0  0
158159  1  0  0  0  0
155160  1  0  0  0  0
159160  2  0  0  0  0
154161  4  0  0  0  0
161162  4  0  0  0  0
162163  2  0  0  0  0
130164  4  0  0  0  0
163164  4  0  0  0  0
129165  1  0  0  0  0
161165  4  0  0  0  0
164165  4  0  0  0  0
132166  1  0  0  0  0
133167  1  0  0  0  0
138168  1  0  0  0  0
139169  1  0  0  0  0
139170  1  0  0  0  0
140171  1  0  0  0  0
141172  1  0  0  0  0
142173  1  0  0  0  0
144174  1  0  0  0  0
145175  1  0  0  0  0
150176  1  0  0  0  0
151177  1  0  0  0  0
156178  1  0  0  0  0
157179  1  0  0  0  0
157180  1  0  0  0  0
158181  1  0  0  0  0
159182  1  0  0  0  0
160183  1  0  0  0  0
162184  1  0  0  0  0
163185  1  0  0  0  0
M  END
