 xtb: 6.5.1 (b24c23e)
          07292215563D

 76 91  0     0  0            999 V2000
    7.7995   -0.0610    0.0118 Fe  0  0  0  0  0  0  0  0  0  0  0  0
    4.3890   -0.0421   -0.0292 C   0  0  0  0  0  0  0  0  0  0  0  0
    5.0425   -0.8832   -0.9065 C   0  0  0  0  0  0  0  0  0  0  0  0
    4.3712   -1.7625   -1.8188 C   0  0  0  0  0  0  0  0  0  0  0  0
    5.3336   -2.4676   -2.4584 C   0  0  0  0  0  0  0  0  0  0  0  0
    6.5903   -2.0166   -1.9362 C   0  0  0  0  0  0  0  0  0  0  0  0
    6.4004   -1.0320   -1.0048 N   0  0  0  0  0  0  0  0  0  0  0  0
    7.8104   -2.5448   -2.3091 C   0  0  0  0  0  0  0  0  0  0  0  0
    9.0247   -2.1195   -1.8142 C   0  0  0  0  0  0  0  0  0  0  0  0
   10.2824   -2.6854   -2.1994 C   0  0  0  0  0  0  0  0  0  0  0  0
   11.2401   -1.9798   -1.5512 C   0  0  0  0  0  0  0  0  0  0  0  0
    9.2130   -1.0839   -0.9314 N   0  0  0  0  0  0  0  0  0  0  0  0
   10.5635   -0.9853   -0.7752 C   0  0  0  0  0  0  0  0  0  0  0  0
   11.2294   -0.0142   -0.0187 C   0  0  0  0  0  0  0  0  0  0  0  0
   10.5527    0.9467    0.7411 C   0  0  0  0  0  0  0  0  0  0  0  0
   11.2192    1.9368    1.5315 C   0  0  0  0  0  0  0  0  0  0  0  0
   10.2540    2.6273    2.1847 C   0  0  0  0  0  0  0  0  0  0  0  0
    9.0020    2.0565    1.7885 C   0  0  0  0  0  0  0  0  0  0  0  0
    9.2005    1.0408    0.8845 N   0  0  0  0  0  0  0  0  0  0  0  0
    7.7835    2.4631    2.2885 C   0  0  0  0  0  0  0  0  0  0  0  0
    6.5686    1.9286    1.9072 C   0  0  0  0  0  0  0  0  0  0  0  0
    5.3070    2.3612    2.4331 C   0  0  0  0  0  0  0  0  0  0  0  0
    4.3518    1.6603    1.7780 C   0  0  0  0  0  0  0  0  0  0  0  0
    5.0326    0.7997    0.8551 C   0  0  0  0  0  0  0  0  0  0  0  0
    6.3883    0.9657    0.9517 N   0  0  0  0  0  0  0  0  0  0  0  0
    3.3049   -0.0469   -0.0308 H   0  0  0  0  0  0  0  0  0  0  0  0
    3.3003   -1.8204   -1.9334 H   0  0  0  0  0  0  0  0  0  0  0  0
    5.2252   -3.2303   -3.2134 H   0  0  0  0  0  0  0  0  0  0  0  0
    7.8135   -3.3489   -3.0365 H   0  0  0  0  0  0  0  0  0  0  0  0
   10.3970   -3.5142   -2.8799 H   0  0  0  0  0  0  0  0  0  0  0  0
   12.3107   -2.1036   -1.5869 H   0  0  0  0  0  0  0  0  0  0  0  0
   12.2887    2.0669    1.5741 H   0  0  0  0  0  0  0  0  0  0  0  0
   10.3603    3.4457    2.8790 H   0  0  0  0  0  0  0  0  0  0  0  0
    7.7787    3.2561    3.0279 H   0  0  0  0  0  0  0  0  0  0  0  0
    5.1906    3.1090    3.2016 H   0  0  0  0  0  0  0  0  0  0  0  0
    3.2803    1.7067    1.8919 H   0  0  0  0  0  0  0  0  0  0  0  0
   21.2601    0.0381    0.0497 Fe  0  0  0  0  0  0  0  0  0  0  0  0
   24.6710    0.0509    0.0101 C   0  0  0  0  0  0  0  0  0  0  0  0
   24.0179    1.2640   -0.0685 C   0  0  0  0  0  0  0  0  0  0  0  0
   24.6898    2.5282   -0.1465 C   0  0  0  0  0  0  0  0  0  0  0  0
   23.7276    3.4805   -0.1478 C   0  0  0  0  0  0  0  0  0  0  0  0
   22.4705    2.7955   -0.0711 C   0  0  0  0  0  0  0  0  0  0  0  0
   22.6599    1.4404   -0.0452 N   0  0  0  0  0  0  0  0  0  0  0  0
   21.2502    3.4375    0.0023 C   0  0  0  0  0  0  0  0  0  0  0  0
   20.0354    2.7902    0.0780 C   0  0  0  0  0  0  0  0  0  0  0  0
   18.7776    3.4688    0.1677 C   0  0  0  0  0  0  0  0  0  0  0  0
   17.8196    2.5110    0.1729 C   0  0  0  0  0  0  0  0  0  0  0  0
   19.8468    1.4300    0.0374 N   0  0  0  0  0  0  0  0  0  0  0  0
   18.4962    1.2526    0.0842 C   0  0  0  0  0  0  0  0  0  0  0  0
   17.8300    0.0250   -0.0037 C   0  0  0  0  0  0  0  0  0  0  0  0
   18.5062   -1.1978   -0.0819 C   0  0  0  0  0  0  0  0  0  0  0  0
   17.8390   -2.4622   -0.1562 C   0  0  0  0  0  0  0  0  0  0  0  0
   18.8039   -3.4128   -0.1380 C   0  0  0  0  0  0  0  0  0  0  0  0
   20.0565   -2.7239   -0.0545 C   0  0  0  0  0  0  0  0  0  0  0  0
   19.8584   -1.3642   -0.0424 N   0  0  0  0  0  0  0  0  0  0  0  0
   21.2754   -3.3615    0.0342 C   0  0  0  0  0  0  0  0  0  0  0  0
   22.4909   -2.7100    0.1057 C   0  0  0  0  0  0  0  0  0  0  0  0
   23.7525   -3.3846    0.1969 C   0  0  0  0  0  0  0  0  0  0  0  0
   24.7079   -2.4254    0.1863 C   0  0  0  0  0  0  0  0  0  0  0  0
   24.0271   -1.1672    0.0905 C   0  0  0  0  0  0  0  0  0  0  0  0
   22.6712   -1.3546    0.0514 N   0  0  0  0  0  0  0  0  0  0  0  0
   25.7551    0.0553    0.0134 H   0  0  0  0  0  0  0  0  0  0  0  0
   25.7609    2.6481   -0.1880 H   0  0  0  0  0  0  0  0  0  0  0  0
   23.8363    4.5527   -0.1913 H   0  0  0  0  0  0  0  0  0  0  0  0
   21.2473    4.5217    0.0041 H   0  0  0  0  0  0  0  0  0  0  0  0
   18.6632    4.5399    0.2183 H   0  0  0  0  0  0  0  0  0  0  0  0
   16.7490    2.6271    0.2265 H   0  0  0  0  0  0  0  0  0  0  0  0
   16.7692   -2.5868   -0.2076 H   0  0  0  0  0  0  0  0  0  0  0  0
   18.6971   -4.4854   -0.1708 H   0  0  0  0  0  0  0  0  0  0  0  0
   21.2799   -4.4456    0.0467 H   0  0  0  0  0  0  0  0  0  0  0  0
   23.8689   -4.4552    0.2567 H   0  0  0  0  0  0  0  0  0  0  0  0
   25.7795   -2.5368    0.2363 H   0  0  0  0  0  0  0  0  0  0  0  0
   13.8554    0.0033   -0.0106 C   0  0  0  0  0  0  0  0  0  0  0  0
   12.6326   -0.0079   -0.0161 C   0  0  0  0  0  0  0  0  0  0  0  0
   15.2038    0.0106   -0.0071 C   0  0  0  0  0  0  0  0  0  0  0  0
   16.4267    0.0193   -0.0079 C   0  0  0  0  0  0  0  0  0  0  0  0
  2  3  4  0  0  0  0
  3  4  1  0  0  0  0
  4  5  2  0  0  0  0
  5  6  4  0  0  0  0
  1  7  1  0  0  0  0
  3  7  4  0  0  0  0
  6  7  4  0  0  0  0
  6  8  4  0  0  0  0
  8  9  4  0  0  0  0
  9 10  4  0  0  0  0
 10 11  2  0  0  0  0
  1 12  1  0  0  0  0
  9 12  4  0  0  0  0
 11 13  4  0  0  0  0
 12 13  4  0  0  0  0
 13 14  4  0  0  0  0
 14 15  4  0  0  0  0
 15 16  4  0  0  0  0
 16 17  2  0  0  0  0
 17 18  4  0  0  0  0
  1 19  1  0  0  0  0
 15 19  4  0  0  0  0
 18 19  4  0  0  0  0
 18 20  4  0  0  0  0
 20 21  4  0  0  0  0
 21 22  4  0  0  0  0
 22 23  2  0  0  0  0
  2 24  4  0  0  0  0
 23 24  4  0  0  0  0
  1 25  1  0  0  0  0
 21 25  4  0  0  0  0
 24 25  4  0  0  0  0
  2 26  1  0  0  0  0
  4 27  1  0  0  0  0
  5 28  1  0  0  0  0
  8 29  1  0  0  0  0
 10 30  1  0  0  0  0
 11 31  1  0  0  0  0
 16 32  1  0  0  0  0
 17 33  1  0  0  0  0
 20 34  1  0  0  0  0
 22 35  1  0  0  0  0
 23 36  1  0  0  0  0
 38 39  4  0  0  0  0
 39 40  1  0  0  0  0
 40 41  2  0  0  0  0
 41 42  4  0  0  0  0
 37 43  1  0  0  0  0
 39 43  4  0  0  0  0
 42 43  4  0  0  0  0
 42 44  4  0  0  0  0
 44 45  4  0  0  0  0
 45 46  4  0  0  0  0
 46 47  2  0  0  0  0
 37 48  1  0  0  0  0
 45 48  4  0  0  0  0
 47 49  4  0  0  0  0
 48 49  4  0  0  0  0
 49 50  4  0  0  0  0
 50 51  4  0  0  0  0
 51 52  4  0  0  0  0
 52 53  2  0  0  0  0
 53 54  4  0  0  0  0
 37 55  1  0  0  0  0
 51 55  4  0  0  0  0
 54 55  4  0  0  0  0
 54 56  4  0  0  0  0
 56 57  4  0  0  0  0
 57 58  4  0  0  0  0
 58 59  2  0  0  0  0
 38 60  4  0  0  0  0
 59 60  4  0  0  0  0
 37 61  1  0  0  0  0
 57 61  4  0  0  0  0
 60 61  4  0  0  0  0
 38 62  1  0  0  0  0
 40 63  1  0  0  0  0
 41 64  1  0  0  0  0
 44 65  1  0  0  0  0
 46 66  1  0  0  0  0
 47 67  1  0  0  0  0
 52 68  1  0  0  0  0
 53 69  1  0  0  0  0
 56 70  1  0  0  0  0
 58 71  1  0  0  0  0
 59 72  1  0  0  0  0
 14 74  4  0  0  0  0
 73 74  3  0  0  0  0
 73 75  4  0  0  0  0
 50 76  4  0  0  0  0
 75 76  3  0  0  0  0
M  END
