 xtb: 6.5.1 (b24c23e)
          07302212283D

298337  0     0  0            999 V2000
   46.7079    0.0867   -0.0578 Cu  0  0  0  0  0  0  0  0  0  0  0  0
   43.3003    0.1779   -0.1178 C   0  0  0  0  0  0  0  0  0  0  0  0
   43.9323    1.0167    0.7883 C   0  0  0  0  0  0  0  0  0  0  0  0
   43.2547    1.8910    1.7033 C   0  0  0  0  0  0  0  0  0  0  0  0
   44.2118    2.5276    2.4227 C   0  0  0  0  0  0  0  0  0  0  0  0
   45.4831    2.0529    1.9493 C   0  0  0  0  0  0  0  0  0  0  0  0
   45.2819    1.1363    0.9578 N   0  0  0  0  0  0  0  0  0  0  0  0
   46.7239    2.4521    2.4472 C   0  0  0  0  0  0  0  0  0  0  0  0
   47.9574    1.9696    2.0110 C   0  0  0  0  0  0  0  0  0  0  0  0
   49.2314    2.4110    2.5031 C   0  0  0  0  0  0  0  0  0  0  0  0
   50.1823    1.7292    1.8160 C   0  0  0  0  0  0  0  0  0  0  0  0
   48.1526    1.0299    1.0336 N   0  0  0  0  0  0  0  0  0  0  0  0
   49.4969    0.8699    0.8965 C   0  0  0  0  0  0  0  0  0  0  0  0
   50.1378    0.0113   -0.0132 C   0  0  0  0  0  0  0  0  0  0  0  0
   49.4838   -0.8241   -0.9349 C   0  0  0  0  0  0  0  0  0  0  0  0
   50.1544   -1.7185   -1.8315 C   0  0  0  0  0  0  0  0  0  0  0  0
   49.1925   -2.3660   -2.5363 C   0  0  0  0  0  0  0  0  0  0  0  0
   47.9267   -1.8661   -2.0803 C   0  0  0  0  0  0  0  0  0  0  0  0
   46.6849   -2.2946   -2.5476 C   0  0  0  0  0  0  0  0  0  0  0  0
   46.6718   -3.3360   -3.6148 C   0  0  0  0  0  0  0  0  0  0  0  0
   47.0886   -3.0271   -4.9161 C   0  0  0  0  0  0  0  0  0  0  0  0
   47.4854   -1.7434   -5.1238 O   0  0  0  0  0  0  0  0  0  0  0  0
   47.9238   -1.3283   -6.4014 C   0  0  0  0  0  0  0  0  0  0  0  0
   47.0710   -4.0023   -5.9129 C   0  0  0  0  0  0  0  0  0  0  0  0
   46.6405   -5.2836   -5.6033 C   0  0  0  0  0  0  0  0  0  0  0  0
   46.2248   -5.6132   -4.3222 C   0  0  0  0  0  0  0  0  0  0  0  0
   46.2383   -4.6368   -3.3266 C   0  0  0  0  0  0  0  0  0  0  0  0
   45.8565   -4.8646   -2.0416 O   0  0  0  0  0  0  0  0  0  0  0  0
   45.3915   -6.1399   -1.6491 C   0  0  0  0  0  0  0  0  0  0  0  0
   45.4507   -1.8269   -2.0947 C   0  0  0  0  0  0  0  0  0  0  0  0
   44.1733   -2.2373   -2.6100 C   0  0  0  0  0  0  0  0  0  0  0  0
   43.2271   -1.5416   -1.9320 C   0  0  0  0  0  0  0  0  0  0  0  0
   43.9179   -0.6976   -0.9986 C   0  0  0  0  0  0  0  0  0  0  0  0
   45.2642   -0.8915   -1.1182 N   0  0  0  0  0  0  0  0  0  0  0  0
   48.1377   -0.9278   -1.1046 N   0  0  0  0  0  0  0  0  0  0  0  0
   46.7312    3.4789    3.5282 C   0  0  0  0  0  0  0  0  0  0  0  0
   47.1078    3.1345    4.8329 C   0  0  0  0  0  0  0  0  0  0  0  0
   47.4436    1.8318    5.0297 O   0  0  0  0  0  0  0  0  0  0  0  0
   47.8557    1.3836    6.3047 C   0  0  0  0  0  0  0  0  0  0  0  0
   47.1126    4.0960    5.8430 C   0  0  0  0  0  0  0  0  0  0  0  0
   46.7456    5.3992    5.5432 C   0  0  0  0  0  0  0  0  0  0  0  0
   46.3714    5.7643    4.2588 C   0  0  0  0  0  0  0  0  0  0  0  0
   46.3619    4.8016    3.2499 C   0  0  0  0  0  0  0  0  0  0  0  0
   46.0185    5.0633    1.9605 O   0  0  0  0  0  0  0  0  0  0  0  0
   45.6142    6.3615    1.5767 C   0  0  0  0  0  0  0  0  0  0  0  0
   42.2156    0.2078   -0.1377 H   0  0  0  0  0  0  0  0  0  0  0  0
   42.1829    1.9899    1.7783 H   0  0  0  0  0  0  0  0  0  0  0  0
   44.0783    3.2542    3.2082 H   0  0  0  0  0  0  0  0  0  0  0  0
   49.3733    3.1516    3.2735 H   0  0  0  0  0  0  0  0  0  0  0  0
   51.2543    1.7977    1.9117 H   0  0  0  0  0  0  0  0  0  0  0  0
   51.2246   -1.8329   -1.8996 H   0  0  0  0  0  0  0  0  0  0  0  0
   49.3214   -3.1184   -3.2977 H   0  0  0  0  0  0  0  0  0  0  0  0
   47.1310   -1.4333   -7.1520 H   0  0  0  0  0  0  0  0  0  0  0  0
   48.1879   -0.2736   -6.3043 H   0  0  0  0  0  0  0  0  0  0  0  0
   48.8070   -1.8919   -6.7261 H   0  0  0  0  0  0  0  0  0  0  0  0
   47.3875   -3.7729   -6.9216 H   0  0  0  0  0  0  0  0  0  0  0  0
   46.6285   -6.0424   -6.3780 H   0  0  0  0  0  0  0  0  0  0  0  0
   45.8955   -6.6214   -4.1086 H   0  0  0  0  0  0  0  0  0  0  0  0
   45.1447   -6.0604   -0.5887 H   0  0  0  0  0  0  0  0  0  0  0  0
   44.4925   -6.4290   -2.2071 H   0  0  0  0  0  0  0  0  0  0  0  0
   46.1631   -6.9080   -1.7823 H   0  0  0  0  0  0  0  0  0  0  0  0
   44.0290   -2.9634   -3.3942 H   0  0  0  0  0  0  0  0  0  0  0  0
   42.1549   -1.5825   -2.0459 H   0  0  0  0  0  0  0  0  0  0  0  0
   48.0799    0.3209    6.1952 H   0  0  0  0  0  0  0  0  0  0  0  0
   47.0618    1.5089    7.0510 H   0  0  0  0  0  0  0  0  0  0  0  0
   48.7572    1.9086    6.6432 H   0  0  0  0  0  0  0  0  0  0  0  0
   47.3977    3.8391    6.8544 H   0  0  0  0  0  0  0  0  0  0  0  0
   46.7515    6.1473    6.3283 H   0  0  0  0  0  0  0  0  0  0  0  0
   46.0925    6.7891    4.0529 H   0  0  0  0  0  0  0  0  0  0  0  0
   46.4146    7.0949    1.7325 H   0  0  0  0  0  0  0  0  0  0  0  0
   45.3827    6.3050    0.5114 H   0  0  0  0  0  0  0  0  0  0  0  0
   44.7185    6.6813    2.1230 H   0  0  0  0  0  0  0  0  0  0  0  0
   87.1504    0.0207   -0.0983 Cu  0  0  0  0  0  0  0  0  0  0  0  0
   90.5573    0.1160   -0.1823 C   0  0  0  0  0  0  0  0  0  0  0  0
   89.9283   -0.6269   -1.1704 C   0  0  0  0  0  0  0  0  0  0  0  0
   90.6086   -1.3694   -2.1934 C   0  0  0  0  0  0  0  0  0  0  0  0
   89.6534   -1.9575   -2.9554 C   0  0  0  0  0  0  0  0  0  0  0  0
   88.3805   -1.5724   -2.4102 C   0  0  0  0  0  0  0  0  0  0  0  0
   88.5790   -0.7688   -1.3246 N   0  0  0  0  0  0  0  0  0  0  0  0
   87.1401   -1.9705   -2.9100 C   0  0  0  0  0  0  0  0  0  0  0  0
   85.9049   -1.6169   -2.3680 C   0  0  0  0  0  0  0  0  0  0  0  0
   84.6319   -1.9895   -2.9162 C   0  0  0  0  0  0  0  0  0  0  0  0
   83.6792   -1.4476   -2.1161 C   0  0  0  0  0  0  0  0  0  0  0  0
   85.7074   -0.8513   -1.2493 N   0  0  0  0  0  0  0  0  0  0  0  0
   84.3626   -0.7391   -1.0749 C   0  0  0  0  0  0  0  0  0  0  0  0
   83.7204   -0.0526   -0.0297 C   0  0  0  0  0  0  0  0  0  0  0  0
   84.3740    0.6541    0.9949 C   0  0  0  0  0  0  0  0  0  0  0  0
   83.7032    1.3241    2.0692 C   0  0  0  0  0  0  0  0  0  0  0  0
   84.6635    1.8957    2.8390 C   0  0  0  0  0  0  0  0  0  0  0  0
   85.9282    1.5834    2.2368 C   0  0  0  0  0  0  0  0  0  0  0  0
   87.1680    1.9889    2.7296 C   0  0  0  0  0  0  0  0  0  0  0  0
   87.1767    2.8395    3.9541 C   0  0  0  0  0  0  0  0  0  0  0  0
   86.7146    4.1613    3.9034 C   0  0  0  0  0  0  0  0  0  0  0  0
   86.2825    4.5934    2.6890 O   0  0  0  0  0  0  0  0  0  0  0  0
   85.7826    5.9059    2.5328 C   0  0  0  0  0  0  0  0  0  0  0  0
   86.7261    4.9573    5.0484 C   0  0  0  0  0  0  0  0  0  0  0  0
   87.1955    4.4271    6.2406 C   0  0  0  0  0  0  0  0  0  0  0  0
   87.6566    3.1215    6.3155 C   0  0  0  0  0  0  0  0  0  0  0  0
   87.6495    2.3271    5.1694 C   0  0  0  0  0  0  0  0  0  0  0  0
   88.0740    1.0354    5.1445 O   0  0  0  0  0  0  0  0  0  0  0  0
   88.5880    0.4292    6.3128 C   0  0  0  0  0  0  0  0  0  0  0  0
   88.4022    1.6632    2.1660 C   0  0  0  0  0  0  0  0  0  0  0  0
   89.6769    2.1154    2.6522 C   0  0  0  0  0  0  0  0  0  0  0  0
   90.6244    1.5919    1.8354 C   0  0  0  0  0  0  0  0  0  0  0  0
   89.9370    0.8193    0.8397 C   0  0  0  0  0  0  0  0  0  0  0  0
   88.5912    0.8823    1.0623 N   0  0  0  0  0  0  0  0  0  0  0  0
   85.7187    0.8207    1.1182 N   0  0  0  0  0  0  0  0  0  0  0  0
   87.1349   -2.8435   -4.1186 C   0  0  0  0  0  0  0  0  0  0  0  0
   86.7362   -4.1833   -4.0217 C   0  0  0  0  0  0  0  0  0  0  0  0
   86.3768   -4.6074   -2.7812 O   0  0  0  0  0  0  0  0  0  0  0  0
   85.9396   -5.9355   -2.5770 C   0  0  0  0  0  0  0  0  0  0  0  0
   86.7353   -5.0027   -5.1501 C   0  0  0  0  0  0  0  0  0  0  0  0
   87.1280   -4.4776   -6.3720 C   0  0  0  0  0  0  0  0  0  0  0  0
   87.5239   -3.1541   -6.4929 C   0  0  0  0  0  0  0  0  0  0  0  0
   87.5297   -2.3362   -5.3635 C   0  0  0  0  0  0  0  0  0  0  0  0
   87.8934   -1.0260   -5.3826 O   0  0  0  0  0  0  0  0  0  0  0  0
   88.3321   -0.4227   -6.5824 C   0  0  0  0  0  0  0  0  0  0  0  0
   91.6418    0.1476   -0.2097 H   0  0  0  0  0  0  0  0  0  0  0  0
   91.6807   -1.4288   -2.2989 H   0  0  0  0  0  0  0  0  0  0  0  0
   89.7892   -2.5975   -3.8125 H   0  0  0  0  0  0  0  0  0  0  0  0
   84.4921   -2.5865   -3.8030 H   0  0  0  0  0  0  0  0  0  0  0  0
   82.6072   -1.5143   -2.2137 H   0  0  0  0  0  0  0  0  0  0  0  0
   82.6340    1.3451    2.2089 H   0  0  0  0  0  0  0  0  0  0  0  0
   84.5339    2.4772    3.7376 H   0  0  0  0  0  0  0  0  0  0  0  0
   86.5487    6.6575    2.7595 H   0  0  0  0  0  0  0  0  0  0  0  0
   85.4904    5.9971    1.4850 H   0  0  0  0  0  0  0  0  0  0  0  0
   84.9053    6.0799    3.1676 H   0  0  0  0  0  0  0  0  0  0  0  0
   86.3753    5.9802    5.0185 H   0  0  0  0  0  0  0  0  0  0  0  0
   87.2026    5.0456    7.1315 H   0  0  0  0  0  0  0  0  0  0  0  0
   88.0153    2.7335    7.2594 H   0  0  0  0  0  0  0  0  0  0  0  0
   88.8672   -0.5876    6.0300 H   0  0  0  0  0  0  0  0  0  0  0  0
   89.4762    0.9567    6.6815 H   0  0  0  0  0  0  0  0  0  0  0  0
   87.8350    0.3871    7.1091 H   0  0  0  0  0  0  0  0  0  0  0  0
   89.8188    2.7542    3.5093 H   0  0  0  0  0  0  0  0  0  0  0  0
   91.6953    1.7128    1.8874 H   0  0  0  0  0  0  0  0  0  0  0  0
   85.6983   -6.0158   -1.5154 H   0  0  0  0  0  0  0  0  0  0  0  0
   86.7252   -6.6599   -2.8233 H   0  0  0  0  0  0  0  0  0  0  0  0
   85.0429   -6.1585   -3.1678 H   0  0  0  0  0  0  0  0  0  0  0  0
   86.4338   -6.0396   -5.0846 H   0  0  0  0  0  0  0  0  0  0  0  0
   87.1255   -5.1143   -7.2499 H   0  0  0  0  0  0  0  0  0  0  0  0
   87.8226   -2.7705   -7.4594 H   0  0  0  0  0  0  0  0  0  0  0  0
   87.5460   -0.4291   -7.3471 H   0  0  0  0  0  0  0  0  0  0  0  0
   88.5782    0.6106   -6.3306 H   0  0  0  0  0  0  0  0  0  0  0  0
   89.2264   -0.9194   -6.9781 H   0  0  0  0  0  0  0  0  0  0  0  0
   52.7674   -0.0219    0.0112 C   0  0  0  0  0  0  0  0  0  0  0  0
   51.5460   -0.0114   -0.0001 C   0  0  0  0  0  0  0  0  0  0  0  0
   54.1191   -0.0294    0.0185 C   0  0  0  0  0  0  0  0  0  0  0  0
   55.3407   -0.0309    0.0246 C   0  0  0  0  0  0  0  0  0  0  0  0
   66.2552   -0.0150   -0.0070 C   0  0  0  0  0  0  0  0  0  0  0  0
   65.0328   -0.0096   -0.0060 C   0  0  0  0  0  0  0  0  0  0  0  0
   67.6052   -0.0217   -0.0073 C   0  0  0  0  0  0  0  0  0  0  0  0
   68.8276   -0.0290   -0.0059 C   0  0  0  0  0  0  0  0  0  0  0  0
   79.7403   -0.0936    0.0143 C   0  0  0  0  0  0  0  0  0  0  0  0
   78.5185   -0.0967    0.0187 C   0  0  0  0  0  0  0  0  0  0  0  0
   81.0914   -0.0855    0.0048 C   0  0  0  0  0  0  0  0  0  0  0  0
   82.3130   -0.0733   -0.0084 C   0  0  0  0  0  0  0  0  0  0  0  0
   60.1872   -0.0139    0.0099 Cu  0  0  0  0  0  0  0  0  0  0  0  0
   56.7485   -0.0284    0.0219 C   0  0  0  0  0  0  0  0  0  0  0  0
   57.4013    0.0103    1.2662 C   0  0  0  0  0  0  0  0  0  0  0  0
   56.7289    0.0120    2.5312 C   0  0  0  0  0  0  0  0  0  0  0  0
   57.6902    0.0387    3.4890 C   0  0  0  0  0  0  0  0  0  0  0  0
   58.9564    0.0595    2.8143 C   0  0  0  0  0  0  0  0  0  0  0  0
   58.7475    0.0403    1.4611 N   0  0  0  0  0  0  0  0  0  0  0  0
   60.1985    0.0741    3.4487 C   0  0  0  0  0  0  0  0  0  0  0  0
   61.4360    0.0588    2.8058 C   0  0  0  0  0  0  0  0  0  0  0  0
   62.7064    0.1139    3.4703 C   0  0  0  0  0  0  0  0  0  0  0  0
   63.6615    0.0922    2.5061 C   0  0  0  0  0  0  0  0  0  0  0  0
   61.6364    0.0099    1.4518 N   0  0  0  0  0  0  0  0  0  0  0  0
   62.9810    0.0286    1.2472 C   0  0  0  0  0  0  0  0  0  0  0  0
   63.6268   -0.0071   -0.0020 C   0  0  0  0  0  0  0  0  0  0  0  0
   62.9727   -0.0418   -1.2468 C   0  0  0  0  0  0  0  0  0  0  0  0
   63.6448   -0.0995   -2.5105 C   0  0  0  0  0  0  0  0  0  0  0  0
   62.6832   -0.1215   -3.4682 C   0  0  0  0  0  0  0  0  0  0  0  0
   61.4173   -0.0737   -2.7949 C   0  0  0  0  0  0  0  0  0  0  0  0
   60.1754   -0.0957   -3.4290 C   0  0  0  0  0  0  0  0  0  0  0  0
   60.1698   -0.1242   -4.9199 C   0  0  0  0  0  0  0  0  0  0  0  0
   59.7599   -1.2749   -5.6060 C   0  0  0  0  0  0  0  0  0  0  0  0
   59.3921   -2.3292   -4.8304 O   0  0  0  0  0  0  0  0  0  0  0  0
   58.9362   -3.5284   -5.4224 C   0  0  0  0  0  0  0  0  0  0  0  0
   59.7558   -1.3010   -7.0003 C   0  0  0  0  0  0  0  0  0  0  0  0
   60.1567   -0.1746   -7.7026 C   0  0  0  0  0  0  0  0  0  0  0  0
   60.5637    0.9766   -7.0454 C   0  0  0  0  0  0  0  0  0  0  0  0
   60.5726    1.0011   -5.6511 C   0  0  0  0  0  0  0  0  0  0  0  0
   60.9460    2.0831   -4.9178 O   0  0  0  0  0  0  0  0  0  0  0  0
   61.3811    3.2657   -5.5572 C   0  0  0  0  0  0  0  0  0  0  0  0
   58.9379   -0.0927   -2.7858 C   0  0  0  0  0  0  0  0  0  0  0  0
   57.6670   -0.0815   -3.4517 C   0  0  0  0  0  0  0  0  0  0  0  0
   56.7122   -0.0659   -2.4873 C   0  0  0  0  0  0  0  0  0  0  0  0
   57.3933   -0.0611   -1.2269 C   0  0  0  0  0  0  0  0  0  0  0  0
   58.7383   -0.0789   -1.4311 N   0  0  0  0  0  0  0  0  0  0  0  0
   61.6267   -0.0270   -1.4422 N   0  0  0  0  0  0  0  0  0  0  0  0
   60.2040    0.1057    4.9395 C   0  0  0  0  0  0  0  0  0  0  0  0
   60.6258   -1.0135    5.6694 C   0  0  0  0  0  0  0  0  0  0  0  0
   61.0054   -2.0925    4.9348 O   0  0  0  0  0  0  0  0  0  0  0  0
   61.4669   -3.2664    5.5717 C   0  0  0  0  0  0  0  0  0  0  0  0
   60.6285   -0.9862    7.0636 C   0  0  0  0  0  0  0  0  0  0  0  0
   60.2146    0.1619    7.7220 C   0  0  0  0  0  0  0  0  0  0  0  0
   59.7955    1.2825    7.0208 C   0  0  0  0  0  0  0  0  0  0  0  0
   59.7878    1.2534    5.6266 C   0  0  0  0  0  0  0  0  0  0  0  0
   59.4028    2.3021    4.8519 O   0  0  0  0  0  0  0  0  0  0  0  0
   58.9379    3.4975    5.4446 C   0  0  0  0  0  0  0  0  0  0  0  0
   55.6582   -0.0107    2.6589 H   0  0  0  0  0  0  0  0  0  0  0  0
   57.5596    0.0408    4.5591 H   0  0  0  0  0  0  0  0  0  0  0  0
   62.8438    0.1662    4.5383 H   0  0  0  0  0  0  0  0  0  0  0  0
   64.7329    0.1209    2.6258 H   0  0  0  0  0  0  0  0  0  0  0  0
   64.7155   -0.1239   -2.6374 H   0  0  0  0  0  0  0  0  0  0  0  0
   62.8134   -0.1701   -4.5374 H   0  0  0  0  0  0  0  0  0  0  0  0
   58.0403   -3.3599   -6.0324 H   0  0  0  0  0  0  0  0  0  0  0  0
   58.6871   -4.1988   -4.5977 H   0  0  0  0  0  0  0  0  0  0  0  0
   59.7138   -3.9927   -6.0413 H   0  0  0  0  0  0  0  0  0  0  0  0
   59.4455   -2.1861   -7.5393 H   0  0  0  0  0  0  0  0  0  0  0  0
   60.1516   -0.1942   -8.7870 H   0  0  0  0  0  0  0  0  0  0  0  0
   60.8687    1.8416   -7.6191 H   0  0  0  0  0  0  0  0  0  0  0  0
   61.6318    3.9677   -4.7598 H   0  0  0  0  0  0  0  0  0  0  0  0
   60.5909    3.6988   -6.1826 H   0  0  0  0  0  0  0  0  0  0  0  0
   62.2717    3.0859   -6.1716 H   0  0  0  0  0  0  0  0  0  0  0  0
   57.5290   -0.0818   -4.5209 H   0  0  0  0  0  0  0  0  0  0  0  0
   55.6406   -0.0525   -2.6078 H   0  0  0  0  0  0  0  0  0  0  0  0
   60.6906   -3.7117    6.2058 H   0  0  0  0  0  0  0  0  0  0  0  0
   61.7213   -3.9653    4.7727 H   0  0  0  0  0  0  0  0  0  0  0  0
   62.3606   -3.0704    6.1766 H   0  0  0  0  0  0  0  0  0  0  0  0
   60.9479   -1.8466    7.6364 H   0  0  0  0  0  0  0  0  0  0  0  0
   60.2186    0.1838    8.8063 H   0  0  0  0  0  0  0  0  0  0  0  0
   59.4808    2.1656    7.5607 H   0  0  0  0  0  0  0  0  0  0  0  0
   59.7155    3.9731    6.0547 H   0  0  0  0  0  0  0  0  0  0  0  0
   58.0498    3.3201    6.0634 H   0  0  0  0  0  0  0  0  0  0  0  0
   58.6730    4.1623    4.6202 H   0  0  0  0  0  0  0  0  0  0  0  0
   73.6725   -0.0650    0.0073 Cu  0  0  0  0  0  0  0  0  0  0  0  0
   70.2335   -0.0389   -0.0025 C   0  0  0  0  0  0  0  0  0  0  0  0
   70.8801   -0.0410    1.2468 C   0  0  0  0  0  0  0  0  0  0  0  0
   70.2006   -0.0628    2.5077 C   0  0  0  0  0  0  0  0  0  0  0  0
   71.1564   -0.0469    3.4713 C   0  0  0  0  0  0  0  0  0  0  0  0
   72.4261   -0.0099    2.8044 C   0  0  0  0  0  0  0  0  0  0  0  0
   72.2247   -0.0129    1.4496 N   0  0  0  0  0  0  0  0  0  0  0  0
   73.6640    0.0156    3.4460 C   0  0  0  0  0  0  0  0  0  0  0  0
   74.9054    0.0141    2.8101 C   0  0  0  0  0  0  0  0  0  0  0  0
   76.1715    0.0868    3.4810 C   0  0  0  0  0  0  0  0  0  0  0  0
   77.1323    0.0604    2.5225 C   0  0  0  0  0  0  0  0  0  0  0  0
   75.1134   -0.0464    1.4580 N   0  0  0  0  0  0  0  0  0  0  0  0
   76.4593   -0.0244    1.2608 C   0  0  0  0  0  0  0  0  0  0  0  0
   77.1114   -0.0928    0.0171 C   0  0  0  0  0  0  0  0  0  0  0  0
   76.4648   -0.1520   -1.2302 C   0  0  0  0  0  0  0  0  0  0  0  0
   77.1433   -0.2454   -2.4883 C   0  0  0  0  0  0  0  0  0  0  0  0
   76.1878   -0.2511   -3.4523 C   0  0  0  0  0  0  0  0  0  0  0  0
   74.9194   -0.1576   -2.7885 C   0  0  0  0  0  0  0  0  0  0  0  0
   73.6822   -0.1312   -3.4322 C   0  0  0  0  0  0  0  0  0  0  0  0
   73.6895   -0.1431   -4.9232 C   0  0  0  0  0  0  0  0  0  0  0  0
   73.2362   -1.2656   -5.6285 C   0  0  0  0  0  0  0  0  0  0  0  0
   72.8130   -2.3123   -4.8712 O   0  0  0  0  0  0  0  0  0  0  0  0
   72.3181   -3.4851   -5.4845 C   0  0  0  0  0  0  0  0  0  0  0  0
   73.2475   -1.2744   -7.0231 C   0  0  0  0  0  0  0  0  0  0  0  0
   73.7075   -0.1592   -7.7067 C   0  0  0  0  0  0  0  0  0  0  0  0
   74.1588    0.9641   -7.0304 C   0  0  0  0  0  0  0  0  0  0  0  0
   74.1522    0.9712   -5.6359 C   0  0  0  0  0  0  0  0  0  0  0  0
   74.5660    2.0264   -4.8853 O   0  0  0  0  0  0  0  0  0  0  0  0
   75.0818    3.1871   -5.5046 C   0  0  0  0  0  0  0  0  0  0  0  0
   72.4410   -0.0899   -2.7976 C   0  0  0  0  0  0  0  0  0  0  0  0
   71.1757   -0.0288   -3.4710 C   0  0  0  0  0  0  0  0  0  0  0  0
   70.2150   -0.0050   -2.5125 C   0  0  0  0  0  0  0  0  0  0  0  0
   70.8871   -0.0442   -1.2481 C   0  0  0  0  0  0  0  0  0  0  0  0
   72.2322   -0.0920   -1.4438 N   0  0  0  0  0  0  0  0  0  0  0  0
   75.1206   -0.1067   -1.4350 N   0  0  0  0  0  0  0  0  0  0  0  0
   73.6606    0.0459    4.9368 C   0  0  0  0  0  0  0  0  0  0  0  0
   74.0911   -1.0690    5.6680 C   0  0  0  0  0  0  0  0  0  0  0  0
   74.4870   -2.1429    4.9346 O   0  0  0  0  0  0  0  0  0  0  0  0
   74.9663   -3.3090    5.5727 C   0  0  0  0  0  0  0  0  0  0  0  0
   74.0853   -1.0432    7.0623 C   0  0  0  0  0  0  0  0  0  0  0  0
   73.6539    0.0993    7.7192 C   0  0  0  0  0  0  0  0  0  0  0  0
   73.2258    1.2156    7.0167 C   0  0  0  0  0  0  0  0  0  0  0  0
   73.2267    1.1880    5.6225 C   0  0  0  0  0  0  0  0  0  0  0  0
   72.8339    2.2327    4.8464 O   0  0  0  0  0  0  0  0  0  0  0  0
   72.3595    3.4253    5.4373 C   0  0  0  0  0  0  0  0  0  0  0  0
   69.1294   -0.0907    2.6292 H   0  0  0  0  0  0  0  0  0  0  0  0
   71.0199   -0.0613    4.5407 H   0  0  0  0  0  0  0  0  0  0  0  0
   76.3024    0.1526    4.5492 H   0  0  0  0  0  0  0  0  0  0  0  0
   78.2028    0.0975    2.6477 H   0  0  0  0  0  0  0  0  0  0  0  0
   78.2137   -0.3017   -2.6077 H   0  0  0  0  0  0  0  0  0  0  0  0
   76.3238   -0.3163   -4.5199 H   0  0  0  0  0  0  0  0  0  0  0  0
   71.4377   -3.2738   -6.1035 H   0  0  0  0  0  0  0  0  0  0  0  0
   72.0321   -4.1555   -4.6719 H   0  0  0  0  0  0  0  0  0  0  0  0
   73.0850   -3.9717   -6.0995 H   0  0  0  0  0  0  0  0  0  0  0  0
   72.9038   -2.1379   -7.5768 H   0  0  0  0  0  0  0  0  0  0  0  0
   73.7144   -0.1655   -8.7912 H   0  0  0  0  0  0  0  0  0  0  0  0
   74.5096    1.8212   -7.5895 H   0  0  0  0  0  0  0  0  0  0  0  0
   75.3617    3.8642   -4.6954 H   0  0  0  0  0  0  0  0  0  0  0  0
   74.3295    3.6739   -6.1371 H   0  0  0  0  0  0  0  0  0  0  0  0
   75.9697    2.9598   -6.1071 H   0  0  0  0  0  0  0  0  0  0  0  0
   71.0452   -0.0055   -4.5409 H   0  0  0  0  0  0  0  0  0  0  0  0
   69.1449    0.0398   -2.6394 H   0  0  0  0  0  0  0  0  0  0  0  0
   74.1953   -3.7685    6.2032 H   0  0  0  0  0  0  0  0  0  0  0  0
   75.2364   -4.0028    4.7743 H   0  0  0  0  0  0  0  0  0  0  0  0
   75.8538   -3.0977    6.1815 H   0  0  0  0  0  0  0  0  0  0  0  0
   74.4110   -1.9006    7.6361 H   0  0  0  0  0  0  0  0  0  0  0  0
   73.6511    0.1201    8.8035 H   0  0  0  0  0  0  0  0  0  0  0  0
   72.8970    2.0941    7.5556 H   0  0  0  0  0  0  0  0  0  0  0  0
   73.1313    3.9043    6.0521 H   0  0  0  0  0  0  0  0  0  0  0  0
   71.4688    3.2430    6.0509 H   0  0  0  0  0  0  0  0  0  0  0  0
   72.0960    4.0892    4.6119 H   0  0  0  0  0  0  0  0  0  0  0  0
  2  3  4  0  0  0  0
  3  4  1  0  0  0  0
  4  5  2  0  0  0  0
  5  6  4  0  0  0  0
  1  7  1  0  0  0  0
  3  7  4  0  0  0  0
  6  7  4  0  0  0  0
  6  8  4  0  0  0  0
  8  9  4  0  0  0  0
  9 10  4  0  0  0  0
 10 11  2  0  0  0  0
  1 12  1  0  0  0  0
  9 12  4  0  0  0  0
 11 13  4  0  0  0  0
 12 13  4  0  0  0  0
 13 14  4  0  0  0  0
 14 15  4  0  0  0  0
 15 16  4  0  0  0  0
 16 17  2  0  0  0  0
 17 18  4  0  0  0  0
 18 19  4  0  0  0  0
 19 20  1  0  0  0  0
 20 21  4  0  0  0  0
 21 22  1  0  0  0  0
 22 23  1  0  0  0  0
 21 24  4  0  0  0  0
 24 25  4  0  0  0  0
 25 26  4  0  0  0  0
 20 27  4  0  0  0  0
 26 27  4  0  0  0  0
 27 28  1  0  0  0  0
 28 29  1  0  0  0  0
 19 30  4  0  0  0  0
 30 31  4  0  0  0  0
 31 32  2  0  0  0  0
  2 33  4  0  0  0  0
 32 33  1  0  0  0  0
  1 34  1  0  0  0  0
 30 34  4  0  0  0  0
 33 34  4  0  0  0  0
  1 35  1  0  0  0  0
 15 35  4  0  0  0  0
 18 35  4  0  0  0  0
  8 36  1  0  0  0  0
 36 37  4  0  0  0  0
 37 38  1  0  0  0  0
 38 39  1  0  0  0  0
 37 40  4  0  0  0  0
 40 41  4  0  0  0  0
 41 42  4  0  0  0  0
 36 43  4  0  0  0  0
 42 43  4  0  0  0  0
 43 44  1  0  0  0  0
 44 45  1  0  0  0  0
  2 46  1  0  0  0  0
  4 47  1  0  0  0  0
  5 48  1  0  0  0  0
 10 49  1  0  0  0  0
 11 50  1  0  0  0  0
 16 51  1  0  0  0  0
 17 52  1  0  0  0  0
 23 53  1  0  0  0  0
 23 54  1  0  0  0  0
 23 55  1  0  0  0  0
 24 56  1  0  0  0  0
 25 57  1  0  0  0  0
 26 58  1  0  0  0  0
 29 59  1  0  0  0  0
 29 60  1  0  0  0  0
 29 61  1  0  0  0  0
 31 62  1  0  0  0  0
 32 63  1  0  0  0  0
 39 64  1  0  0  0  0
 39 65  1  0  0  0  0
 39 66  1  0  0  0  0
 40 67  1  0  0  0  0
 41 68  1  0  0  0  0
 42 69  1  0  0  0  0
 45 70  1  0  0  0  0
 45 71  1  0  0  0  0
 45 72  1  0  0  0  0
 74 75  4  0  0  0  0
 75 76  1  0  0  0  0
 76 77  2  0  0  0  0
 77 78  4  0  0  0  0
 73 79  1  0  0  0  0
 75 79  4  0  0  0  0
 78 79  4  0  0  0  0
 78 80  4  0  0  0  0
 80 81  4  0  0  0  0
 81 82  4  0  0  0  0
 82 83  2  0  0  0  0
 73 84  1  0  0  0  0
 81 84  4  0  0  0  0
 83 85  4  0  0  0  0
 84 85  4  0  0  0  0
 85 86  4  0  0  0  0
 86 87  4  0  0  0  0
 87 88  4  0  0  0  0
 88 89  2  0  0  0  0
 89 90  4  0  0  0  0
 90 91  4  0  0  0  0
 91 92  1  0  0  0  0
 92 93  4  0  0  0  0
 93 94  1  0  0  0  0
 94 95  1  0  0  0  0
 93 96  4  0  0  0  0
 96 97  4  0  0  0  0
 97 98  4  0  0  0  0
 92 99  4  0  0  0  0
 98 99  4  0  0  0  0
 99100  1  0  0  0  0
100101  1  0  0  0  0
 91102  4  0  0  0  0
102103  4  0  0  0  0
103104  2  0  0  0  0
 74105  4  0  0  0  0
104105  1  0  0  0  0
 73106  1  0  0  0  0
102106  4  0  0  0  0
105106  4  0  0  0  0
 73107  1  0  0  0  0
 87107  4  0  0  0  0
 90107  4  0  0  0  0
 80108  1  0  0  0  0
108109  4  0  0  0  0
109110  1  0  0  0  0
110111  1  0  0  0  0
109112  4  0  0  0  0
112113  4  0  0  0  0
113114  4  0  0  0  0
108115  4  0  0  0  0
114115  4  0  0  0  0
115116  1  0  0  0  0
116117  1  0  0  0  0
 74118  1  0  0  0  0
 76119  1  0  0  0  0
 77120  1  0  0  0  0
 82121  1  0  0  0  0
 83122  1  0  0  0  0
 88123  1  0  0  0  0
 89124  1  0  0  0  0
 95125  1  0  0  0  0
 95126  1  0  0  0  0
 95127  1  0  0  0  0
 96128  1  0  0  0  0
 97129  1  0  0  0  0
 98130  1  0  0  0  0
101131  1  0  0  0  0
101132  1  0  0  0  0
101133  1  0  0  0  0
103134  1  0  0  0  0
104135  1  0  0  0  0
111136  1  0  0  0  0
111137  1  0  0  0  0
111138  1  0  0  0  0
112139  1  0  0  0  0
113140  1  0  0  0  0
114141  1  0  0  0  0
117142  1  0  0  0  0
117143  1  0  0  0  0
117144  1  0  0  0  0
 14146  4  0  0  0  0
145146  3  0  0  0  0
145147  4  0  0  0  0
147148  3  0  0  0  0
149150  3  0  0  0  0
149151  4  0  0  0  0
151152  3  0  0  0  0
153154  3  0  0  0  0
153155  4  0  0  0  0
 86156  4  0  0  0  0
155156  3  0  0  0  0
148158  4  0  0  0  0
158159  4  0  0  0  0
159160  4  0  0  0  0
160161  2  0  0  0  0
161162  4  0  0  0  0
157163  1  0  0  0  0
159163  4  0  0  0  0
162163  4  0  0  0  0
162164  4  0  0  0  0
164165  4  0  0  0  0
165166  4  0  0  0  0
166167  2  0  0  0  0
157168  1  0  0  0  0
165168  4  0  0  0  0
167169  4  0  0  0  0
168169  4  0  0  0  0
150170  4  0  0  0  0
169170  4  0  0  0  0
170171  4  0  0  0  0
171172  4  0  0  0  0
172173  2  0  0  0  0
173174  4  0  0  0  0
174175  4  0  0  0  0
175176  1  0  0  0  0
176177  4  0  0  0  0
177178  1  0  0  0  0
178179  1  0  0  0  0
177180  4  0  0  0  0
180181  4  0  0  0  0
181182  4  0  0  0  0
176183  4  0  0  0  0
182183  4  0  0  0  0
183184  1  0  0  0  0
184185  1  0  0  0  0
175186  4  0  0  0  0
186187  4  0  0  0  0
187188  2  0  0  0  0
158189  4  0  0  0  0
188189  4  0  0  0  0
157190  1  0  0  0  0
186190  4  0  0  0  0
189190  4  0  0  0  0
157191  1  0  0  0  0
171191  4  0  0  0  0
174191  4  0  0  0  0
164192  1  0  0  0  0
192193  4  0  0  0  0
193194  1  0  0  0  0
194195  1  0  0  0  0
193196  4  0  0  0  0
196197  4  0  0  0  0
197198  4  0  0  0  0
192199  4  0  0  0  0
198199  4  0  0  0  0
199200  1  0  0  0  0
200201  1  0  0  0  0
160202  1  0  0  0  0
161203  1  0  0  0  0
166204  1  0  0  0  0
167205  1  0  0  0  0
172206  1  0  0  0  0
173207  1  0  0  0  0
179208  1  0  0  0  0
179209  1  0  0  0  0
179210  1  0  0  0  0
180211  1  0  0  0  0
181212  1  0  0  0  0
182213  1  0  0  0  0
185214  1  0  0  0  0
185215  1  0  0  0  0
185216  1  0  0  0  0
187217  1  0  0  0  0
188218  1  0  0  0  0
195219  1  0  0  0  0
195220  1  0  0  0  0
195221  1  0  0  0  0
196222  1  0  0  0  0
197223  1  0  0  0  0
198224  1  0  0  0  0
201225  1  0  0  0  0
201226  1  0  0  0  0
201227  1  0  0  0  0
152229  4  0  0  0  0
229230  4  0  0  0  0
230231  4  0  0  0  0
231232  2  0  0  0  0
232233  4  0  0  0  0
228234  1  0  0  0  0
230234  4  0  0  0  0
233234  4  0  0  0  0
233235  4  0  0  0  0
235236  4  0  0  0  0
236237  4  0  0  0  0
237238  2  0  0  0  0
228239  1  0  0  0  0
236239  4  0  0  0  0
238240  4  0  0  0  0
239240  4  0  0  0  0
154241  4  0  0  0  0
240241  4  0  0  0  0
241242  4  0  0  0  0
242243  4  0  0  0  0
243244  2  0  0  0  0
244245  4  0  0  0  0
245246  4  0  0  0  0
246247  1  0  0  0  0
247248  4  0  0  0  0
248249  1  0  0  0  0
249250  1  0  0  0  0
248251  4  0  0  0  0
251252  4  0  0  0  0
252253  4  0  0  0  0
247254  4  0  0  0  0
253254  4  0  0  0  0
254255  1  0  0  0  0
255256  1  0  0  0  0
246257  4  0  0  0  0
257258  4  0  0  0  0
258259  2  0  0  0  0
229260  4  0  0  0  0
259260  4  0  0  0  0
228261  1  0  0  0  0
257261  4  0  0  0  0
260261  4  0  0  0  0
228262  1  0  0  0  0
242262  4  0  0  0  0
245262  4  0  0  0  0
235263  1  0  0  0  0
263264  4  0  0  0  0
264265  1  0  0  0  0
265266  1  0  0  0  0
264267  4  0  0  0  0
267268  4  0  0  0  0
268269  4  0  0  0  0
263270  4  0  0  0  0
269270  4  0  0  0  0
270271  1  0  0  0  0
271272  1  0  0  0  0
231273  1  0  0  0  0
232274  1  0  0  0  0
237275  1  0  0  0  0
238276  1  0  0  0  0
243277  1  0  0  0  0
244278  1  0  0  0  0
250279  1  0  0  0  0
250280  1  0  0  0  0
250281  1  0  0  0  0
251282  1  0  0  0  0
252283  1  0  0  0  0
253284  1  0  0  0  0
256285  1  0  0  0  0
256286  1  0  0  0  0
256287  1  0  0  0  0
258288  1  0  0  0  0
259289  1  0  0  0  0
266290  1  0  0  0  0
266291  1  0  0  0  0
266292  1  0  0  0  0
267293  1  0  0  0  0
268294  1  0  0  0  0
269295  1  0  0  0  0
272296  1  0  0  0  0
272297  1  0  0  0  0
272298  1  0  0  0  0
M  END
