504

C 110.233637 -0.017606 -0.015136
C 110.961593 1.358001 0.080840
C 110.353838 2.592527 0.062390
C 111.376197 3.561559 0.234629
C 112.573408 2.883882 0.360575
N 112.314135 1.544563 0.211213
C 113.994965 3.520495 0.652550
C 114.031739 4.935011 1.085092
C 114.319114 5.946786 0.170438
C 114.330657 7.254271 0.624155
N 114.076605 7.618771 1.903041
C 113.802401 6.610261 2.764056
C 113.766985 5.272488 2.410781
C 115.126175 2.772016 0.553537
C 116.430515 3.309147 0.884244
C 117.333381 2.349750 0.718402
N 115.323031 1.468480 0.182341
C 116.654705 1.153181 0.261502
C 117.322628 -0.001639 -0.001210
C 116.543164 -1.280157 -0.525335
C 117.077715 -2.313186 -1.270001
C 116.052249 -3.270673 -1.470547
C 114.918044 -2.790443 -0.851233
N 115.211816 -1.553884 -0.327002
C 113.512140 -3.519264 -0.773880
C 113.487629 -4.989909 -0.918180
C 113.884247 -5.804989 0.139609
C 113.858959 -7.176499 -0.046307
N 113.474639 -7.783222 -1.194265
C 113.096703 -6.961247 -2.201192
C 113.087690 -5.579816 -2.116362
C 112.385730 -2.791790 -0.558567
C 111.066517 -3.391523 -0.459602
C 110.180089 -2.420232 -0.262047
C 110.898856 -1.170794 -0.214243
N 112.218930 -1.446080 -0.388445
H 109.156928 -0.031675 0.104825
H 109.295588 2.774401 -0.045432
H 111.247339 4.632201 0.286702
H 113.014389 0.806968 0.202442
H 114.531342 5.703757 -0.865142
H 114.553123 8.070345 -0.055443
H 113.603491 6.914194 3.786533
H 113.542487 4.499798 3.138139
H 116.644116 4.307775 1.221291
H 118.386998 2.465202 0.896088
H 118.096258 -2.380157 -1.621183
H 116.134790 -4.206839 -2.001932
H 114.532106 -0.922633 0.089199
H 114.201516 -5.367116 1.079870
H 114.159180 -7.845077 0.753886
H 112.788814 -7.458256 -3.115226
H 112.775062 -4.962524 -2.951819
H 110.837739 -4.439651 -0.529102
H 109.118028 -2.539076 -0.146099
C 209.461978 0.018934 -0.006276
C 208.734023 -1.247869 -0.550995
C 209.341778 -2.336849 -1.132816
C 208.319419 -3.277156 -1.423527
C 207.122208 -2.732420 -1.001187
N 207.381481 -1.473424 -0.520546
C 205.700651 -3.432063 -1.033208
C 205.663877 -4.887602 -1.296558
C 205.376502 -5.368102 -2.573038
C 205.364959 -6.738194 -2.768541
N 205.619011 -7.647954 -1.798621
C 205.893215 -7.145789 -0.571318
C 205.928631 -5.794775 -0.272654
C 204.569441 -2.721354 -0.778418
C 203.265101 -3.350302 -0.730446
C 202.362235 -2.421490 -0.438461
N 204.372585 -1.392567 -0.511365
C 203.040911 -1.148539 -0.296587
C 202.372988 -0.001639 -0.001210
C 203.152452 1.374951 0.118438
C 202.617901 2.634323 -0.070399
C 203.643367 3.577331 0.189861
C 204.777572 2.866782 0.520452
N 204.483800 1.527443 0.420115
C 206.183476 3.479239 0.923019
C 206.207987 4.852658 1.468308
C 205.811369 5.092748 2.781939
C 205.836657 6.397102 3.244829
N 206.220977 7.462220 2.502236
C 206.598913 7.192704 1.230660
C 206.607926 5.925830 0.673365
C 207.309886 2.733936 0.781234
C 208.629099 3.221742 1.143890
C 209.515527 2.267832 0.874649
C 208.796760 1.135252 0.344895
N 207.476686 1.459752 0.316121
H 210.538687 -0.023503 0.106806
H 210.400028 -2.449143 -1.311963
H 208.448277 -4.252752 -1.867597
H 206.681227 -0.813723 -0.190520
H 205.164274 -4.677760 -3.382307
H 205.142493 -7.152382 -3.746436
H 206.092125 -7.884271 0.198409
H 206.153129 -5.441027 0.727827
H 203.051500 -4.392401 -0.888206
H 201.308618 -2.605503 -0.333386
H 201.599358 2.854700 -0.351909
H 203.560826 4.652913 0.146257
H 205.163510 0.775671 0.500979
H 205.494100 4.272857 3.417236
H 205.536436 6.624941 4.262373
H 206.906802 8.053153 0.645763
H 206.920554 5.759732 -0.352037
H 208.857877 4.185306 1.562157
H 210.577587 2.320374 1.032152
C 119.734498 -0.001639 -0.001210
C 120.956416 -0.001639 -0.001210
C 131.020884 -0.001639 -0.001210
C 132.242802 -0.001639 -0.001210
C 142.307270 -0.001639 -0.001210
C 143.529188 -0.001639 -0.001210
C 153.593656 -0.001639 -0.001210
C 154.815574 -0.001639 -0.001210
C 164.880042 -0.001639 -0.001210
C 166.101960 -0.001639 -0.001210
C 176.166428 -0.001639 -0.001210
C 177.388346 -0.001639 -0.001210
C 187.452814 -0.001639 -0.001210
C 188.674732 -0.001639 -0.001210
C 198.739200 -0.001639 -0.001210
C 199.961118 -0.001639 -0.001210
C 122.408560 0.000546 0.000403
C 123.204341 -1.244953 0.571515
C 122.703946 -2.240311 1.384034
C 123.742148 -3.186154 1.584779
C 124.845632 -2.735451 0.891201
N 124.530406 -1.517886 0.343889
C 126.234203 -3.480954 0.745215
C 126.226847 -4.957628 0.823316
C 126.644499 -5.608516 1.983462
C 126.603204 -6.991915 2.009392
N 126.178692 -7.760198 0.978792
C 125.779310 -7.095284 -0.131129
C 125.782635 -5.716469 -0.257027
C 127.369788 -2.771658 0.515987
C 128.656804 -3.407744 0.322089
C 129.565388 -2.459909 0.118104
N 127.578005 -1.425554 0.404308
C 128.903155 -1.172546 0.170969
C 129.566868 0.000546 0.000403
C 128.769748 1.367025 0.069415
C 129.262748 2.590395 0.473008
C 128.224911 3.542421 0.303436
C 127.128839 2.868113 -0.191378
N 127.447244 1.535074 -0.258024
C 125.743655 3.505093 -0.611473
C 125.755416 4.898648 -1.104763
C 125.359483 5.947891 -0.277555
C 125.402432 7.234373 -0.786016
N 125.808402 7.544422 -2.039121
C 126.187286 6.501283 -2.814479
C 126.181220 5.180418 -2.400823
C 124.606977 2.763526 -0.556032
C 123.320811 3.282080 -0.974137
C 122.411546 2.327784 -0.807945
C 123.072672 1.152834 -0.277218
N 124.397273 1.474517 -0.153108
H 121.700541 -2.292571 1.773852
H 123.684848 -4.099692 2.154233
H 125.189298 -0.892990 -0.113544
H 126.994267 -5.035957 2.836133
H 126.920751 -7.534884 2.892813
H 125.442037 -7.721570 -0.950934
H 125.451610 -5.231358 -1.168459
H 128.853992 -4.464993 0.329450
H 130.610394 -2.638177 -0.058261
H 130.262435 2.782432 0.830650
H 128.277666 4.602009 0.502949
H 126.793229 0.785985 -0.465212
H 125.024678 5.749407 0.734708
H 125.100345 8.078114 -0.174551
H 126.509353 6.761637 -3.816942
H 126.495423 4.379369 -3.060979
H 123.124570 4.265907 -1.361834
H 121.366460 2.428542 -1.037204
C 133.694946 0.000546 0.000403
C 134.490727 -1.244953 0.571515
C 133.990332 -2.240311 1.384034
C 135.028534 -3.186154 1.584779
C 136.132018 -2.735451 0.891201
N 135.816792 -1.517886 0.343889
C 137.520589 -3.480954 0.745215
C 137.513233 -4.957628 0.823316
C 137.930885 -5.608516 1.983462
C 137.889590 -6.991915 2.009392
N 137.465078 -7.760198 0.978792
C 137.065696 -7.095284 -0.131129
C 137.069021 -5.716469 -0.257027
C 138.656174 -2.771658 0.515987
C 139.943190 -3.407744 0.322089
C 140.851774 -2.459909 0.118104
N 138.864391 -1.425554 0.404308
C 140.189541 -1.172546 0.170969
C 140.853254 0.000546 0.000403
C 140.056134 1.367025 0.069415
C 140.549135 2.590395 0.473008
C 139.511297 3.542421 0.303436
C 138.415225 2.868113 -0.191378
N 138.733630 1.535074 -0.258024
C 137.030041 3.505093 -0.611473
C 137.041803 4.898648 -1.104763
C 136.645869 5.947891 -0.277555
C 136.688818 7.234373 -0.786016
N 137.094788 7.544422 -2.039121
C 137.473672 6.501283 -2.814479
C 137.467606 5.180418 -2.400823
C 135.893363 2.763526 -0.556032
C 134.607197 3.282080 -0.974137
C 133.697932 2.327784 -0.807945
C 134.359058 1.152834 -0.277218
N 135.683659 1.474517 -0.153108
H 132.986927 -2.292571 1.773852
H 134.971234 -4.099692 2.154233
H 136.475684 -0.892990 -0.113544
H 138.280653 -5.035957 2.836133
H 138.207137 -7.534884 2.892813
H 136.728423 -7.721570 -0.950934
H 136.737996 -5.231358 -1.168459
H 140.140378 -4.464993 0.329450
H 141.896780 -2.638177 -0.058261
H 141.548821 2.782432 0.830650
H 139.564052 4.602009 0.502949
H 138.079615 0.785985 -0.465212
H 136.311064 5.749407 0.734708
H 136.386731 8.078114 -0.174551
H 137.795739 6.761637 -3.816942
H 137.781809 4.379369 -3.060979
H 134.410956 4.265907 -1.361834
H 132.652846 2.428542 -1.037204
C 144.981332 0.000546 0.000403
C 145.777113 -1.244953 0.571515
C 145.276718 -2.240311 1.384034
C 146.314920 -3.186154 1.584779
C 147.418404 -2.735451 0.891201
N 147.103178 -1.517886 0.343889
C 148.806975 -3.480954 0.745215
C 148.799619 -4.957628 0.823316
C 149.217271 -5.608516 1.983462
C 149.175976 -6.991915 2.009392
N 148.751464 -7.760198 0.978792
C 148.352082 -7.095284 -0.131129
C 148.355407 -5.716469 -0.257027
C 149.942560 -2.771658 0.515987
C 151.229576 -3.407744 0.322089
C 152.138160 -2.459909 0.118104
N 150.150777 -1.425554 0.404308
C 151.475927 -1.172546 0.170969
C 152.139640 0.000546 0.000403
C 151.342520 1.367025 0.069415
C 151.835521 2.590395 0.473008
C 150.797683 3.542421 0.303436
C 149.701611 2.868113 -0.191378
N 150.020016 1.535074 -0.258024
C 148.316427 3.505093 -0.611473
C 148.328189 4.898648 -1.104763
C 147.932255 5.947891 -0.277555
C 147.975204 7.234373 -0.786016
N 148.381174 7.544422 -2.039121
C 148.760058 6.501283 -2.814479
C 148.753992 5.180418 -2.400823
C 147.179749 2.763526 -0.556032
C 145.893583 3.282080 -0.974137
C 144.984318 2.327784 -0.807945
C 145.645444 1.152834 -0.277218
N 146.970045 1.474517 -0.153108
H 144.273313 -2.292571 1.773852
H 146.257620 -4.099692 2.154233
H 147.762070 -0.892990 -0.113544
H 149.567039 -5.035957 2.836133
H 149.493523 -7.534884 2.892813
H 148.014809 -7.721570 -0.950934
H 148.024382 -5.231358 -1.168459
H 151.426764 -4.464993 0.329450
H 153.183166 -2.638177 -0.058261
H 152.835207 2.782432 0.830650
H 150.850438 4.602009 0.502949
H 149.366001 0.785985 -0.465212
H 147.597450 5.749407 0.734708
H 147.673117 8.078114 -0.174551
H 149.082125 6.761637 -3.816942
H 149.068195 4.379369 -3.060979
H 145.697342 4.265907 -1.361834
H 143.939232 2.428542 -1.037204
C 156.267718 0.000546 0.000403
C 157.063499 -1.244953 0.571515
C 156.563104 -2.240311 1.384034
C 157.601306 -3.186154 1.584779
C 158.704790 -2.735451 0.891201
N 158.389564 -1.517886 0.343889
C 160.093361 -3.480954 0.745215
C 160.086005 -4.957628 0.823316
C 160.503657 -5.608516 1.983462
C 160.462362 -6.991915 2.009392
N 160.037850 -7.760198 0.978792
C 159.638468 -7.095284 -0.131129
C 159.641793 -5.716469 -0.257027
C 161.228946 -2.771658 0.515987
C 162.515962 -3.407744 0.322089
C 163.424546 -2.459909 0.118104
N 161.437163 -1.425554 0.404308
C 162.762313 -1.172546 0.170969
C 163.426026 0.000546 0.000403
C 162.628906 1.367025 0.069415
C 163.121907 2.590395 0.473008
C 162.084069 3.542421 0.303436
C 160.987997 2.868113 -0.191378
N 161.306402 1.535074 -0.258024
C 159.602813 3.505093 -0.611473
C 159.614575 4.898648 -1.104763
C 159.218641 5.947891 -0.277555
C 159.261590 7.234373 -0.786016
N 159.667560 7.544422 -2.039121
C 160.046444 6.501283 -2.814479
C 160.040378 5.180418 -2.400823
C 158.466135 2.763526 -0.556032
C 157.179969 3.282080 -0.974137
C 156.270704 2.327784 -0.807945
C 156.931830 1.152834 -0.277218
N 158.256431 1.474517 -0.153108
H 155.559699 -2.292571 1.773852
H 157.544006 -4.099692 2.154233
H 159.048456 -0.892990 -0.113544
H 160.853425 -5.035957 2.836133
H 160.779909 -7.534884 2.892813
H 159.301195 -7.721570 -0.950934
H 159.310768 -5.231358 -1.168459
H 162.713150 -4.464993 0.329450
H 164.469552 -2.638177 -0.058261
H 164.121593 2.782432 0.830650
H 162.136824 4.602009 0.502949
H 160.652387 0.785985 -0.465212
H 158.883836 5.749407 0.734708
H 158.959504 8.078114 -0.174551
H 160.368511 6.761637 -3.816942
H 160.354581 4.379369 -3.060979
H 156.983728 4.265907 -1.361834
H 155.225618 2.428542 -1.037204
C 167.554104 0.000546 0.000403
C 168.349885 -1.244953 0.571515
C 167.849490 -2.240311 1.384034
C 168.887692 -3.186154 1.584779
C 169.991176 -2.735451 0.891201
N 169.675950 -1.517886 0.343889
C 171.379747 -3.480954 0.745215
C 171.372391 -4.957628 0.823316
C 171.790043 -5.608516 1.983462
C 171.748748 -6.991915 2.009392
N 171.324236 -7.760198 0.978792
C 170.924854 -7.095284 -0.131129
C 170.928179 -5.716469 -0.257027
C 172.515332 -2.771658 0.515987
C 173.802348 -3.407744 0.322089
C 174.710932 -2.459909 0.118104
N 172.723549 -1.425554 0.404308
C 174.048699 -1.172546 0.170969
C 174.712412 0.000546 0.000403
C 173.915292 1.367025 0.069415
C 174.408293 2.590395 0.473008
C 173.370455 3.542421 0.303436
C 172.274383 2.868113 -0.191378
N 172.592788 1.535074 -0.258024
C 170.889199 3.505093 -0.611473
C 170.900961 4.898648 -1.104763
C 170.505027 5.947891 -0.277555
C 170.547976 7.234373 -0.786016
N 170.953946 7.544422 -2.039121
C 171.332830 6.501283 -2.814479
C 171.326764 5.180418 -2.400823
C 169.752521 2.763526 -0.556032
C 168.466355 3.282080 -0.974137
C 167.557090 2.327784 -0.807945
C 168.218216 1.152834 -0.277218
N 169.542817 1.474517 -0.153108
H 166.846085 -2.292571 1.773852
H 168.830392 -4.099692 2.154233
H 170.334842 -0.892990 -0.113544
H 172.139811 -5.035957 2.836133
H 172.066295 -7.534884 2.892813
H 170.587581 -7.721570 -0.950934
H 170.597154 -5.231358 -1.168459
H 173.999536 -4.464993 0.329450
H 175.755938 -2.638177 -0.058261
H 175.407979 2.782432 0.830650
H 173.423210 4.602009 0.502949
H 171.938773 0.785985 -0.465212
H 170.170222 5.749407 0.734708
H 170.245890 8.078114 -0.174551
H 171.654897 6.761637 -3.816942
H 171.640967 4.379369 -3.060979
H 168.270114 4.265907 -1.361834
H 166.512004 2.428542 -1.037204
C 178.840490 0.000546 0.000403
C 179.636271 -1.244953 0.571515
C 179.135876 -2.240311 1.384034
C 180.174078 -3.186154 1.584779
C 181.277562 -2.735451 0.891201
N 180.962336 -1.517886 0.343889
C 182.666133 -3.480954 0.745215
C 182.658777 -4.957628 0.823316
C 183.076429 -5.608516 1.983462
C 183.035134 -6.991915 2.009392
N 182.610622 -7.760198 0.978792
C 182.211240 -7.095284 -0.131129
C 182.214565 -5.716469 -0.257027
C 183.801718 -2.771658 0.515987
C 185.088734 -3.407744 0.322089
C 185.997318 -2.459909 0.118104
N 184.009935 -1.425554 0.404308
C 185.335085 -1.172546 0.170969
C 185.998798 0.000546 0.000403
C 185.201678 1.367025 0.069415
C 185.694679 2.590395 0.473008
C 184.656841 3.542421 0.303436
C 183.560769 2.868113 -0.191378
N 183.879174 1.535074 -0.258024
C 182.175585 3.505093 -0.611473
C 182.187347 4.898648 -1.104763
C 181.791413 5.947891 -0.277555
C 181.834362 7.234373 -0.786016
N 182.240332 7.544422 -2.039121
C 182.619216 6.501283 -2.814479
C 182.613150 5.180418 -2.400823
C 181.038907 2.763526 -0.556032
C 179.752742 3.282080 -0.974137
C 178.843476 2.327784 -0.807945
C 179.504602 1.152834 -0.277218
N 180.829203 1.474517 -0.153108
H 178.132471 -2.292571 1.773852
H 180.116778 -4.099692 2.154233
H 181.621228 -0.892990 -0.113544
H 183.426197 -5.035957 2.836133
H 183.352681 -7.534884 2.892813
H 181.873967 -7.721570 -0.950934
H 181.883540 -5.231358 -1.168459
H 185.285922 -4.464993 0.329450
H 187.042324 -2.638177 -0.058261
H 186.694365 2.782432 0.830650
H 184.709596 4.602009 0.502949
H 183.225159 0.785985 -0.465212
H 181.456608 5.749407 0.734708
H 181.532276 8.078114 -0.174551
H 182.941283 6.761637 -3.816942
H 182.927353 4.379369 -3.060979
H 179.556500 4.265907 -1.361834
H 177.798390 2.428542 -1.037204
C 190.126876 0.000546 0.000403
C 190.922657 -1.244953 0.571515
C 190.422262 -2.240311 1.384034
C 191.460464 -3.186154 1.584779
C 192.563948 -2.735451 0.891201
N 192.248722 -1.517886 0.343889
C 193.952519 -3.480954 0.745215
C 193.945163 -4.957628 0.823316
C 194.362815 -5.608516 1.983462
C 194.321520 -6.991915 2.009392
N 193.897008 -7.760198 0.978792
C 193.497626 -7.095284 -0.131129
C 193.500951 -5.716469 -0.257027
C 195.088104 -2.771658 0.515987
C 196.375120 -3.407744 0.322089
C 197.283704 -2.459909 0.118104
N 195.296321 -1.425554 0.404308
C 196.621471 -1.172546 0.170969
C 197.285184 0.000546 0.000403
C 196.488064 1.367025 0.069415
C 196.981065 2.590395 0.473008
C 195.943227 3.542421 0.303436
C 194.847155 2.868113 -0.191378
N 195.165560 1.535074 -0.258024
C 193.461971 3.505093 -0.611473
C 193.473733 4.898648 -1.104763
C 193.077799 5.947891 -0.277555
C 193.120748 7.234373 -0.786016
N 193.526718 7.544422 -2.039121
C 193.905602 6.501283 -2.814479
C 193.899536 5.180418 -2.400823
C 192.325293 2.763526 -0.556032
C 191.039128 3.282080 -0.974137
C 190.129862 2.327784 -0.807945
C 190.790988 1.152834 -0.277218
N 192.115589 1.474517 -0.153108
H 189.418857 -2.292571 1.773852
H 191.403164 -4.099692 2.154233
H 192.907614 -0.892990 -0.113544
H 194.712583 -5.035957 2.836133
H 194.639067 -7.534884 2.892813
H 193.160353 -7.721570 -0.950934
H 193.169926 -5.231358 -1.168459
H 196.572308 -4.464993 0.329450
H 198.328710 -2.638177 -0.058261
H 197.980751 2.782432 0.830650
H 195.995982 4.602009 0.502949
H 194.511545 0.785985 -0.465212
H 192.742995 5.749407 0.734708
H 192.818662 8.078114 -0.174551
H 194.227669 6.761637 -3.816942
H 194.213739 4.379369 -3.060979
H 190.842886 4.265907 -1.361834
H 189.084776 2.428542 -1.037204
