 xtb: 6.5.1 (b24c23e)
          07292221393D

252291  0     0  0            999 V2000
   57.9072   -0.0052    0.0069 Fe  0  0  0  0  0  0  0  0  0  0  0  0
   54.5232   -0.0274    0.0258 C   0  0  0  0  0  0  0  0  0  0  0  0
   55.1747    0.1034    1.2351 C   0  0  0  0  0  0  0  0  0  0  0  0
   54.5008    0.2326    2.4921 C   0  0  0  0  0  0  0  0  0  0  0  0
   55.4544    0.4820    3.4200 C   0  0  0  0  0  0  0  0  0  0  0  0
   56.7120    0.4985    2.7292 C   0  0  0  0  0  0  0  0  0  0  0  0
   56.5286    0.2376    1.3984 N   0  0  0  0  0  0  0  0  0  0  0  0
   57.9187    0.8640    3.3165 C   0  0  0  0  0  0  0  0  0  0  0  0
   59.1181    0.8989    2.6190 C   0  0  0  0  0  0  0  0  0  0  0  0
   60.3763    1.2604    3.2021 C   0  0  0  0  0  0  0  0  0  0  0  0
   61.3243    1.0248    2.2636 C   0  0  0  0  0  0  0  0  0  0  0  0
   59.2996    0.4707    1.3258 N   0  0  0  0  0  0  0  0  0  0  0  0
   60.6462    0.5130    1.1135 C   0  0  0  0  0  0  0  0  0  0  0  0
   61.3097   -0.0052   -0.0044 C   0  0  0  0  0  0  0  0  0  0  0  0
   60.6366   -0.5143   -1.1206 C   0  0  0  0  0  0  0  0  0  0  0  0
   61.3011   -1.0552   -2.2651 C   0  0  0  0  0  0  0  0  0  0  0  0
   60.3468   -1.2747   -3.2017 C   0  0  0  0  0  0  0  0  0  0  0  0
   59.1012   -0.8605   -2.6272 C   0  0  0  0  0  0  0  0  0  0  0  0
   57.8949   -0.8362   -3.3146 C   0  0  0  0  0  0  0  0  0  0  0  0
   57.8924   -1.1746   -4.7557 C   0  0  0  0  0  0  0  0  0  0  0  0
   57.1446   -2.2550   -5.2315 C   0  0  0  0  0  0  0  0  0  0  0  0
   57.1390   -2.5593   -6.5803 C   0  0  0  0  0  0  0  0  0  0  0  0
   57.8762   -1.7862   -7.4793 C   0  0  0  0  0  0  0  0  0  0  0  0
   57.8294   -2.1453   -8.9171 C   0  0  0  0  0  0  0  0  0  0  0  0
   58.5692   -1.3412   -9.6956 O   0  0  0  0  0  0  0  0  0  0  0  0
   57.1951   -3.0648   -9.3681 O   0  0  0  0  0  0  0  0  0  0  0  0
   58.6261   -0.7077   -7.0091 C   0  0  0  0  0  0  0  0  0  0  0  0
   58.6353   -0.4087   -5.6580 C   0  0  0  0  0  0  0  0  0  0  0  0
   56.6882   -0.5067   -2.7054 C   0  0  0  0  0  0  0  0  0  0  0  0
   55.4289   -0.4422   -3.3903 C   0  0  0  0  0  0  0  0  0  0  0  0
   54.4811   -0.2282   -2.4473 C   0  0  0  0  0  0  0  0  0  0  0  0
   55.1632   -0.1442   -1.1911 C   0  0  0  0  0  0  0  0  0  0  0  0
   56.5159   -0.2721   -1.3683 N   0  0  0  0  0  0  0  0  0  0  0  0
   59.2910   -0.4421   -1.3327 N   0  0  0  0  0  0  0  0  0  0  0  0
   57.9217    1.2293    4.7533 C   0  0  0  0  0  0  0  0  0  0  0  0
   57.6301    0.2668    5.7229 C   0  0  0  0  0  0  0  0  0  0  0  0
   57.6337    0.6053    7.0636 C   0  0  0  0  0  0  0  0  0  0  0  0
   57.9239    1.9127    7.4581 C   0  0  0  0  0  0  0  0  0  0  0  0
   57.9111    2.2271    8.9071 C   0  0  0  0  0  0  0  0  0  0  0  0
   58.2053    3.5068    9.1818 O   0  0  0  0  0  0  0  0  0  0  0  0
   57.6627    1.4283    9.7739 O   0  0  0  0  0  0  0  0  0  0  0  0
   58.2135    2.8774    6.4928 C   0  0  0  0  0  0  0  0  0  0  0  0
   58.2143    2.5355    5.1514 C   0  0  0  0  0  0  0  0  0  0  0  0
   53.4391   -0.0299    0.0313 H   0  0  0  0  0  0  0  0  0  0  0  0
   53.4335    0.1545    2.6247 H   0  0  0  0  0  0  0  0  0  0  0  0
   55.3284    0.6583    4.4758 H   0  0  0  0  0  0  0  0  0  0  0  0
   60.5099    1.6278    4.2065 H   0  0  0  0  0  0  0  0  0  0  0  0
   62.3910    1.1618    2.3377 H   0  0  0  0  0  0  0  0  0  0  0  0
   62.3624   -1.2319   -2.3330 H   0  0  0  0  0  0  0  0  0  0  0  0
   60.4649   -1.6840   -4.1918 H   0  0  0  0  0  0  0  0  0  0  0  0
   56.5804   -2.8632   -4.5338 H   0  0  0  0  0  0  0  0  0  0  0  0
   56.5638   -3.3983   -6.9561 H   0  0  0  0  0  0  0  0  0  0  0  0
   58.4835   -1.6402  -10.6154 H   0  0  0  0  0  0  0  0  0  0  0  0
   59.1983   -0.1040   -7.7035 H   0  0  0  0  0  0  0  0  0  0  0  0
   59.2073    0.4374   -5.2940 H   0  0  0  0  0  0  0  0  0  0  0  0
   55.2994   -0.5470   -4.4552 H   0  0  0  0  0  0  0  0  0  0  0  0
   53.4143   -0.1319   -2.5719 H   0  0  0  0  0  0  0  0  0  0  0  0
   57.4150   -0.7509    5.4180 H   0  0  0  0  0  0  0  0  0  0  0  0
   57.4130   -0.1371    7.8227 H   0  0  0  0  0  0  0  0  0  0  0  0
   58.1747    3.6284   10.1447 H   0  0  0  0  0  0  0  0  0  0  0  0
   58.4360    3.8939    6.7949 H   0  0  0  0  0  0  0  0  0  0  0  0
   58.4278    3.2873    4.4001 H   0  0  0  0  0  0  0  0  0  0  0  0
   90.3931   -0.0075   -0.0845 Fe  0  0  0  0  0  0  0  0  0  0  0  0
   93.7786   -0.0999   -0.1278 C   0  0  0  0  0  0  0  0  0  0  0  0
   93.1247    0.1497   -1.3167 C   0  0  0  0  0  0  0  0  0  0  0  0
   93.7989    0.3815   -2.5587 C   0  0  0  0  0  0  0  0  0  0  0  0
   92.8476    0.7253   -3.4581 C   0  0  0  0  0  0  0  0  0  0  0  0
   91.5907    0.6912   -2.7667 C   0  0  0  0  0  0  0  0  0  0  0  0
   91.7725    0.3168   -1.4632 N   0  0  0  0  0  0  0  0  0  0  0  0
   90.3829    1.0932   -3.3274 C   0  0  0  0  0  0  0  0  0  0  0  0
   89.1803    1.0612   -2.6359 C   0  0  0  0  0  0  0  0  0  0  0  0
   87.9198    1.4362   -3.2054 C   0  0  0  0  0  0  0  0  0  0  0  0
   86.9705    1.1287   -2.2896 C   0  0  0  0  0  0  0  0  0  0  0  0
   88.9983    0.5514   -1.3724 N   0  0  0  0  0  0  0  0  0  0  0  0
   87.6506    0.5647   -1.1656 C   0  0  0  0  0  0  0  0  0  0  0  0
   86.9872   -0.0002   -0.0701 C   0  0  0  0  0  0  0  0  0  0  0  0
   87.6604   -0.5430    1.0303 C   0  0  0  0  0  0  0  0  0  0  0  0
   86.9922   -1.1084    2.1606 C   0  0  0  0  0  0  0  0  0  0  0  0
   87.9463   -1.3709    3.0858 C   0  0  0  0  0  0  0  0  0  0  0  0
   89.1962   -0.9617    2.5172 C   0  0  0  0  0  0  0  0  0  0  0  0
   90.4081   -1.0053    3.1930 C   0  0  0  0  0  0  0  0  0  0  0  0
   90.4091   -1.4145    4.6161 C   0  0  0  0  0  0  0  0  0  0  0  0
   91.1075   -2.5524    5.0283 C   0  0  0  0  0  0  0  0  0  0  0  0
   91.1070   -2.9266    6.3594 C   0  0  0  0  0  0  0  0  0  0  0  0
   90.4134   -2.1673    7.3036 C   0  0  0  0  0  0  0  0  0  0  0  0
   90.4507   -2.6041    8.7202 C   0  0  0  0  0  0  0  0  0  0  0  0
   89.7532   -1.8093    9.5455 O   0  0  0  0  0  0  0  0  0  0  0  0
   91.0433   -3.5751    9.1168 O   0  0  0  0  0  0  0  0  0  0  0  0
   89.7138   -1.0308    6.8969 C   0  0  0  0  0  0  0  0  0  0  0  0
   89.7102   -0.6616    5.5632 C   0  0  0  0  0  0  0  0  0  0  0  0
   91.6207   -0.6913    2.5880 C   0  0  0  0  0  0  0  0  0  0  0  0
   92.8874   -0.7171    3.2612 C   0  0  0  0  0  0  0  0  0  0  0  0
   93.8341   -0.4830    2.3221 C   0  0  0  0  0  0  0  0  0  0  0  0
   93.1439   -0.2933    1.0820 C   0  0  0  0  0  0  0  0  0  0  0  0
   91.7892   -0.3851    1.2649 N   0  0  0  0  0  0  0  0  0  0  0  0
   89.0074   -0.4943    1.2393 N   0  0  0  0  0  0  0  0  0  0  0  0
   90.3795    1.5656   -4.7326 C   0  0  0  0  0  0  0  0  0  0  0  0
   90.6893    0.6841   -5.7711 C   0  0  0  0  0  0  0  0  0  0  0  0
   90.6848    1.1232   -7.0823 C   0  0  0  0  0  0  0  0  0  0  0  0
   90.3749    2.4520   -7.3779 C   0  0  0  0  0  0  0  0  0  0  0  0
   90.3888    2.8762   -8.7986 C   0  0  0  0  0  0  0  0  0  0  0  0
   90.0741    4.1680   -8.9765 O   0  0  0  0  0  0  0  0  0  0  0  0
   90.6538    2.1497   -9.7224 O   0  0  0  0  0  0  0  0  0  0  0  0
   90.0659    3.3358   -6.3435 C   0  0  0  0  0  0  0  0  0  0  0  0
   90.0664    2.8932   -5.0320 C   0  0  0  0  0  0  0  0  0  0  0  0
   94.8623   -0.1293   -0.1421 H   0  0  0  0  0  0  0  0  0  0  0  0
   94.8651    0.3030   -2.6999 H   0  0  0  0  0  0  0  0  0  0  0  0
   92.9747    0.9946   -4.4940 H   0  0  0  0  0  0  0  0  0  0  0  0
   87.7862    1.8601   -4.1871 H   0  0  0  0  0  0  0  0  0  0  0  0
   85.9022    1.2519   -2.3632 H   0  0  0  0  0  0  0  0  0  0  0  0
   85.9285   -1.2695    2.2286 H   0  0  0  0  0  0  0  0  0  0  0  0
   87.8256   -1.8077    4.0637 H   0  0  0  0  0  0  0  0  0  0  0  0
   91.6368   -3.1498    4.2947 H   0  0  0  0  0  0  0  0  0  0  0  0
   91.6430   -3.8109    6.6862 H   0  0  0  0  0  0  0  0  0  0  0  0
   89.8294   -2.1604   10.4476 H   0  0  0  0  0  0  0  0  0  0  0  0
   89.1756   -0.4377    7.6267 H   0  0  0  0  0  0  0  0  0  0  0  0
   89.1765    0.2279    5.2482 H   0  0  0  0  0  0  0  0  0  0  0  0
   93.0224   -0.8920    4.3162 H   0  0  0  0  0  0  0  0  0  0  0  0
   94.9049   -0.4351    2.4399 H   0  0  0  0  0  0  0  0  0  0  0  0
   90.9192   -0.3505   -5.5434 H   0  0  0  0  0  0  0  0  0  0  0  0
   90.9200    0.4442   -7.8945 H   0  0  0  0  0  0  0  0  0  0  0  0
   90.1077    4.3645   -9.9268 H   0  0  0  0  0  0  0  0  0  0  0  0
   89.8272    4.3685   -6.5687 H   0  0  0  0  0  0  0  0  0  0  0  0
   89.8375    3.5821   -4.2268 H   0  0  0  0  0  0  0  0  0  0  0  0
   62.7150   -0.0127   -0.0059 C   0  0  0  0  0  0  0  0  0  0  0  0
   63.9332   -0.0138   -0.0054 C   0  0  0  0  0  0  0  0  0  0  0  0
   73.5364   -0.0183    0.0188 C   0  0  0  0  0  0  0  0  0  0  0  0
   74.7576   -0.0208    0.0122 C   0  0  0  0  0  0  0  0  0  0  0  0
   84.3639   -0.0212   -0.0653 C   0  0  0  0  0  0  0  0  0  0  0  0
   85.5824   -0.0128   -0.0694 C   0  0  0  0  0  0  0  0  0  0  0  0
   68.7342   -0.0161    0.0151 Fe  0  0  0  0  0  0  0  0  0  0  0  0
   65.3371   -0.0143   -0.0012 C   0  0  0  0  0  0  0  0  0  0  0  0
   66.0150   -1.0985   -0.5740 C   0  0  0  0  0  0  0  0  0  0  0  0
   65.3708   -2.2106   -1.1983 C   0  0  0  0  0  0  0  0  0  0  0  0
   66.3264   -3.1530   -1.3974 C   0  0  0  0  0  0  0  0  0  0  0  0
   67.5493   -2.6146   -0.8825 C   0  0  0  0  0  0  0  0  0  0  0  0
   67.3530   -1.3300   -0.4445 N   0  0  0  0  0  0  0  0  0  0  0  0
   68.7316   -3.3334   -0.7267 C   0  0  0  0  0  0  0  0  0  0  0  0
   69.9146   -2.7480   -0.2899 C   0  0  0  0  0  0  0  0  0  0  0  0
   71.1355   -3.4549   -0.0449 C   0  0  0  0  0  0  0  0  0  0  0  0
   72.0927   -2.5173    0.1667 C   0  0  0  0  0  0  0  0  0  0  0  0
   70.1171   -1.3962   -0.1531 N   0  0  0  0  0  0  0  0  0  0  0  0
   71.4541   -1.2443    0.0582 C   0  0  0  0  0  0  0  0  0  0  0  0
   72.1367   -0.0170    0.0222 C   0  0  0  0  0  0  0  0  0  0  0  0
   71.4552    1.2109   -0.0124 C   0  0  0  0  0  0  0  0  0  0  0  0
   72.0955    2.4837   -0.1128 C   0  0  0  0  0  0  0  0  0  0  0  0
   71.1381    3.4214    0.0976 C   0  0  0  0  0  0  0  0  0  0  0  0
   69.9151    2.7148    0.3326 C   0  0  0  0  0  0  0  0  0  0  0  0
   68.7288    3.3009    0.7596 C   0  0  0  0  0  0  0  0  0  0  0  0
   68.7232    4.7469    1.0684 C   0  0  0  0  0  0  0  0  0  0  0  0
   69.5939    5.2700    2.0287 C   0  0  0  0  0  0  0  0  0  0  0  0
   69.5869    6.6229    2.3134 C   0  0  0  0  0  0  0  0  0  0  0  0
   68.7145    7.4794    1.6391 C   0  0  0  0  0  0  0  0  0  0  0  0
   68.7499    8.9239    1.9743 C   0  0  0  0  0  0  0  0  0  0  0  0
   67.8742    9.6586    1.2730 O   0  0  0  0  0  0  0  0  0  0  0  0
   69.4859    9.4133    2.7926 O   0  0  0  0  0  0  0  0  0  0  0  0
   67.8445    6.9628    0.6786 C   0  0  0  0  0  0  0  0  0  0  0  0
   67.8481    5.6074    0.3998 C   0  0  0  0  0  0  0  0  0  0  0  0
   67.5438    2.5837    0.9024 C   0  0  0  0  0  0  0  0  0  0  0  0
   66.3166    3.1233    1.4053 C   0  0  0  0  0  0  0  0  0  0  0  0
   65.3618    2.1823    1.1960 C   0  0  0  0  0  0  0  0  0  0  0  0
   66.0107    1.0697    0.5776 C   0  0  0  0  0  0  0  0  0  0  0  0
   67.3499    1.3001    0.4605 N   0  0  0  0  0  0  0  0  0  0  0  0
   70.1171    1.3633    0.1922 N   0  0  0  0  0  0  0  0  0  0  0  0
   68.7263   -4.7795   -1.0352 C   0  0  0  0  0  0  0  0  0  0  0  0
   67.8431   -5.6389   -0.3754 C   0  0  0  0  0  0  0  0  0  0  0  0
   67.8413   -6.9914   -0.6618 C   0  0  0  0  0  0  0  0  0  0  0  0
   68.7168   -7.5093   -1.6179 C   0  0  0  0  0  0  0  0  0  0  0  0
   68.6740   -8.9665   -1.8930 C   0  0  0  0  0  0  0  0  0  0  0  0
   69.5533   -9.3620   -2.8249 O   0  0  0  0  0  0  0  0  0  0  0  0
   67.9299   -9.7390   -1.3452 O   0  0  0  0  0  0  0  0  0  0  0  0
   69.5980   -6.6555   -2.2818 C   0  0  0  0  0  0  0  0  0  0  0  0
   69.6035   -5.3030   -1.9888 C   0  0  0  0  0  0  0  0  0  0  0  0
   64.3209   -2.2579   -1.4382 H   0  0  0  0  0  0  0  0  0  0  0  0
   66.2201   -4.1252   -1.8503 H   0  0  0  0  0  0  0  0  0  0  0  0
   71.2387   -4.5277   -0.0333 H   0  0  0  0  0  0  0  0  0  0  0  0
   73.1384   -2.6642    0.3803 H   0  0  0  0  0  0  0  0  0  0  0  0
   73.1426    2.6306   -0.3192 H   0  0  0  0  0  0  0  0  0  0  0  0
   71.2427    4.4941    0.0914 H   0  0  0  0  0  0  0  0  0  0  0  0
   70.2626    4.6045    2.5626 H   0  0  0  0  0  0  0  0  0  0  0  0
   70.2557    7.0347    3.0611 H   0  0  0  0  0  0  0  0  0  0  0  0
   67.9598   10.5860    1.5481 H   0  0  0  0  0  0  0  0  0  0  0  0
   67.1681    7.6245    0.1507 H   0  0  0  0  0  0  0  0  0  0  0  0
   67.1821    5.2083   -0.3568 H   0  0  0  0  0  0  0  0  0  0  0  0
   66.2069    4.0952    1.8584 H   0  0  0  0  0  0  0  0  0  0  0  0
   64.3096    2.2312    1.4257 H   0  0  0  0  0  0  0  0  0  0  0  0
   67.1721   -5.2407    0.3772 H   0  0  0  0  0  0  0  0  0  0  0  0
   67.1633   -7.6649   -0.1490 H   0  0  0  0  0  0  0  0  0  0  0  0
   69.4639  -10.3213   -2.9459 H   0  0  0  0  0  0  0  0  0  0  0  0
   70.2765   -7.0528   -3.0274 H   0  0  0  0  0  0  0  0  0  0  0  0
   70.2786   -4.6374   -2.5147 H   0  0  0  0  0  0  0  0  0  0  0  0
   79.5613   -0.0260   -0.0357 Fe  0  0  0  0  0  0  0  0  0  0  0  0
   76.1573   -0.0226    0.0001 C   0  0  0  0  0  0  0  0  0  0  0  0
   76.8380   -1.2513   -0.0011 C   0  0  0  0  0  0  0  0  0  0  0  0
   76.1956   -2.5257   -0.0556 C   0  0  0  0  0  0  0  0  0  0  0  0
   77.1546   -3.4577    0.1722 C   0  0  0  0  0  0  0  0  0  0  0  0
   78.3805   -2.7455    0.3723 C   0  0  0  0  0  0  0  0  0  0  0  0
   78.1782   -1.3987    0.1935 N   0  0  0  0  0  0  0  0  0  0  0  0
   79.5701   -3.3205    0.8052 C   0  0  0  0  0  0  0  0  0  0  0  0
   80.7573   -2.6019    0.9165 C   0  0  0  0  0  0  0  0  0  0  0  0
   81.9877   -3.1301    1.4237 C   0  0  0  0  0  0  0  0  0  0  0  0
   82.9414   -2.1955    1.1842 C   0  0  0  0  0  0  0  0  0  0  0  0
   80.9491   -1.3300    0.4401 N   0  0  0  0  0  0  0  0  0  0  0  0
   82.2890   -1.0977    0.5436 C   0  0  0  0  0  0  0  0  0  0  0  0
   82.9605   -0.0255   -0.0594 C   0  0  0  0  0  0  0  0  0  0  0  0
   82.2800    1.0439   -0.6576 C   0  0  0  0  0  0  0  0  0  0  0  0
   82.9231    2.1387   -1.3126 C   0  0  0  0  0  0  0  0  0  0  0  0
   81.9652    3.0702   -1.5471 C   0  0  0  0  0  0  0  0  0  0  0  0
   80.7420    2.5440   -1.0207 C   0  0  0  0  0  0  0  0  0  0  0  0
   79.5574    3.2641   -0.8946 C   0  0  0  0  0  0  0  0  0  0  0  0
   79.5568    4.6964   -1.2624 C   0  0  0  0  0  0  0  0  0  0  0  0
   80.4323    5.5881   -0.6362 C   0  0  0  0  0  0  0  0  0  0  0  0
   80.4285    6.9270   -0.9810 C   0  0  0  0  0  0  0  0  0  0  0  0
   79.5545    7.3983   -1.9624 C   0  0  0  0  0  0  0  0  0  0  0  0
   79.5919    8.8421   -2.3010 C   0  0  0  0  0  0  0  0  0  0  0  0
   78.7115    9.1931   -3.2496 O   0  0  0  0  0  0  0  0  0  0  0  0
   80.3328    9.6409   -1.7875 O   0  0  0  0  0  0  0  0  0  0  0  0
   78.6803    6.5120   -2.5920 C   0  0  0  0  0  0  0  0  0  0  0  0
   78.6806    5.1735   -2.2409 C   0  0  0  0  0  0  0  0  0  0  0  0
   78.3760    2.6937   -0.4340 C   0  0  0  0  0  0  0  0  0  0  0  0
   77.1563    3.4094   -0.2106 C   0  0  0  0  0  0  0  0  0  0  0  0
   76.2015    2.4807    0.0466 C   0  0  0  0  0  0  0  0  0  0  0  0
   76.8403    1.2048   -0.0154 C   0  0  0  0  0  0  0  0  0  0  0  0
   78.1758    1.3485   -0.2425 N   0  0  0  0  0  0  0  0  0  0  0  0
   80.9412    1.2748   -0.5396 N   0  0  0  0  0  0  0  0  0  0  0  0
   79.5749   -4.7559    1.1609 C   0  0  0  0  0  0  0  0  0  0  0  0
   78.7143   -5.2428    2.1488 C   0  0  0  0  0  0  0  0  0  0  0  0
   78.7212   -6.5851    2.4800 C   0  0  0  0  0  0  0  0  0  0  0  0
   79.5834   -7.4668    1.8257 C   0  0  0  0  0  0  0  0  0  0  0  0
   79.5497   -8.8985    2.2129 C   0  0  0  0  0  0  0  0  0  0  0  0
   80.4179   -9.6589    1.5303 O   0  0  0  0  0  0  0  0  0  0  0  0
   78.8210   -9.3568    3.0553 O   0  0  0  0  0  0  0  0  0  0  0  0
   80.4427   -6.9865    0.8372 C   0  0  0  0  0  0  0  0  0  0  0  0
   80.4392   -5.6415    0.5115 C   0  0  0  0  0  0  0  0  0  0  0  0
   75.1461   -2.6777   -0.2459 H   0  0  0  0  0  0  0  0  0  0  0  0
   77.0494   -4.5300    0.1993 H   0  0  0  0  0  0  0  0  0  0  0  0
   82.0999   -4.0905    1.8998 H   0  0  0  0  0  0  0  0  0  0  0  0
   83.9952   -2.2398    1.4070 H   0  0  0  0  0  0  0  0  0  0  0  0
   83.9740    2.1833   -1.5482 H   0  0  0  0  0  0  0  0  0  0  0  0
   82.0704    4.0277   -2.0306 H   0  0  0  0  0  0  0  0  0  0  0  0
   81.1020    5.2264    0.1356 H   0  0  0  0  0  0  0  0  0  0  0  0
   81.1008    7.6256   -0.4952 H   0  0  0  0  0  0  0  0  0  0  0  0
   78.7974   10.1465   -3.4126 H   0  0  0  0  0  0  0  0  0  0  0  0
   78.0029    6.8732   -3.3567 H   0  0  0  0  0  0  0  0  0  0  0  0
   78.0110    4.4821   -2.7398 H   0  0  0  0  0  0  0  0  0  0  0  0
   77.0524    4.4817   -0.2427 H   0  0  0  0  0  0  0  0  0  0  0  0
   75.1573    2.6360    0.2614 H   0  0  0  0  0  0  0  0  0  0  0  0
   78.0538   -4.5572    2.6673 H   0  0  0  0  0  0  0  0  0  0  0  0
   78.0604   -6.9688    3.2495 H   0  0  0  0  0  0  0  0  0  0  0  0
   80.3353  -10.5755    1.8401 H   0  0  0  0  0  0  0  0  0  0  0  0
   81.1110   -7.6681    0.3245 H   0  0  0  0  0  0  0  0  0  0  0  0
   81.0969   -5.2708   -0.2665 H   0  0  0  0  0  0  0  0  0  0  0  0
  2  3  4  0  0  0  0
  3  4  4  0  0  0  0
  4  5  2  0  0  0  0
  5  6  4  0  0  0  0
  1  7  1  0  0  0  0
  3  7  4  0  0  0  0
  6  7  4  0  0  0  0
  6  8  4  0  0  0  0
  8  9  4  0  0  0  0
  9 10  4  0  0  0  0
 10 11  2  0  0  0  0
  1 12  1  0  0  0  0
  9 12  4  0  0  0  0
 11 13  4  0  0  0  0
 12 13  4  0  0  0  0
 13 14  4  0  0  0  0
 14 15  4  0  0  0  0
 15 16  4  0  0  0  0
 16 17  2  0  0  0  0
 17 18  4  0  0  0  0
 18 19  4  0  0  0  0
 19 20  1  0  0  0  0
 20 21  4  0  0  0  0
 21 22  4  0  0  0  0
 22 23  4  0  0  0  0
 23 24  1  0  0  0  0
 24 25  4  0  0  0  0
 24 26  2  0  0  0  0
 23 27  4  0  0  0  0
 20 28  4  0  0  0  0
 27 28  4  0  0  0  0
 19 29  4  0  0  0  0
 29 30  4  0  0  0  0
 30 31  2  0  0  0  0
  2 32  4  0  0  0  0
 31 32  4  0  0  0  0
  1 33  1  0  0  0  0
 29 33  4  0  0  0  0
 32 33  4  0  0  0  0
  1 34  1  0  0  0  0
 15 34  4  0  0  0  0
 18 34  4  0  0  0  0
  8 35  1  0  0  0  0
 35 36  4  0  0  0  0
 36 37  4  0  0  0  0
 37 38  4  0  0  0  0
 38 39  1  0  0  0  0
 39 40  4  0  0  0  0
 39 41  2  0  0  0  0
 38 42  4  0  0  0  0
 35 43  4  0  0  0  0
 42 43  4  0  0  0  0
  2 44  1  0  0  0  0
  4 45  1  0  0  0  0
  5 46  1  0  0  0  0
 10 47  1  0  0  0  0
 11 48  1  0  0  0  0
 16 49  1  0  0  0  0
 17 50  1  0  0  0  0
 21 51  1  0  0  0  0
 22 52  1  0  0  0  0
 25 53  1  0  0  0  0
 27 54  1  0  0  0  0
 28 55  1  0  0  0  0
 30 56  1  0  0  0  0
 31 57  1  0  0  0  0
 36 58  1  0  0  0  0
 37 59  1  0  0  0  0
 40 60  1  0  0  0  0
 42 61  1  0  0  0  0
 43 62  1  0  0  0  0
 64 65  4  0  0  0  0
 65 66  4  0  0  0  0
 66 67  2  0  0  0  0
 67 68  4  0  0  0  0
 63 69  1  0  0  0  0
 65 69  4  0  0  0  0
 68 69  4  0  0  0  0
 68 70  4  0  0  0  0
 70 71  4  0  0  0  0
 71 72  4  0  0  0  0
 72 73  2  0  0  0  0
 63 74  1  0  0  0  0
 71 74  4  0  0  0  0
 73 75  4  0  0  0  0
 74 75  4  0  0  0  0
 75 76  4  0  0  0  0
 76 77  4  0  0  0  0
 77 78  4  0  0  0  0
 78 79  2  0  0  0  0
 79 80  4  0  0  0  0
 80 81  4  0  0  0  0
 81 82  1  0  0  0  0
 82 83  4  0  0  0  0
 83 84  4  0  0  0  0
 84 85  4  0  0  0  0
 85 86  1  0  0  0  0
 86 87  4  0  0  0  0
 86 88  2  0  0  0  0
 85 89  4  0  0  0  0
 82 90  4  0  0  0  0
 89 90  4  0  0  0  0
 81 91  4  0  0  0  0
 91 92  4  0  0  0  0
 92 93  2  0  0  0  0
 64 94  4  0  0  0  0
 93 94  4  0  0  0  0
 63 95  1  0  0  0  0
 91 95  4  0  0  0  0
 94 95  4  0  0  0  0
 63 96  1  0  0  0  0
 77 96  4  0  0  0  0
 80 96  4  0  0  0  0
 70 97  1  0  0  0  0
 97 98  4  0  0  0  0
 98 99  4  0  0  0  0
 99100  4  0  0  0  0
100101  1  0  0  0  0
101102  4  0  0  0  0
101103  2  0  0  0  0
100104  4  0  0  0  0
 97105  4  0  0  0  0
104105  4  0  0  0  0
 64106  1  0  0  0  0
 66107  1  0  0  0  0
 67108  1  0  0  0  0
 72109  1  0  0  0  0
 73110  1  0  0  0  0
 78111  1  0  0  0  0
 79112  1  0  0  0  0
 83113  1  0  0  0  0
 84114  1  0  0  0  0
 87115  1  0  0  0  0
 89116  1  0  0  0  0
 90117  1  0  0  0  0
 92118  1  0  0  0  0
 93119  1  0  0  0  0
 98120  1  0  0  0  0
 99121  1  0  0  0  0
102122  1  0  0  0  0
104123  1  0  0  0  0
105124  1  0  0  0  0
 14125  1  0  0  0  0
125126  3  0  0  0  0
127128  3  0  0  0  0
 76130  1  0  0  0  0
129130  3  0  0  0  0
126132  1  0  0  0  0
132133  4  0  0  0  0
133134  4  0  0  0  0
134135  2  0  0  0  0
135136  4  0  0  0  0
131137  1  0  0  0  0
133137  4  0  0  0  0
136137  4  0  0  0  0
136138  4  0  0  0  0
138139  4  0  0  0  0
139140  4  0  0  0  0
140141  2  0  0  0  0
131142  1  0  0  0  0
139142  4  0  0  0  0
141143  4  0  0  0  0
142143  4  0  0  0  0
127144  4  0  0  0  0
143144  4  0  0  0  0
144145  4  0  0  0  0
145146  4  0  0  0  0
146147  2  0  0  0  0
147148  4  0  0  0  0
148149  4  0  0  0  0
149150  1  0  0  0  0
150151  4  0  0  0  0
151152  4  0  0  0  0
152153  4  0  0  0  0
153154  1  0  0  0  0
154155  4  0  0  0  0
154156  2  0  0  0  0
153157  4  0  0  0  0
150158  4  0  0  0  0
157158  4  0  0  0  0
149159  4  0  0  0  0
159160  4  0  0  0  0
160161  2  0  0  0  0
132162  4  0  0  0  0
161162  4  0  0  0  0
131163  1  0  0  0  0
159163  4  0  0  0  0
162163  4  0  0  0  0
131164  1  0  0  0  0
145164  4  0  0  0  0
148164  4  0  0  0  0
138165  1  0  0  0  0
165166  4  0  0  0  0
166167  4  0  0  0  0
167168  4  0  0  0  0
168169  1  0  0  0  0
169170  4  0  0  0  0
169171  2  0  0  0  0
168172  4  0  0  0  0
165173  4  0  0  0  0
172173  4  0  0  0  0
134174  1  0  0  0  0
135175  1  0  0  0  0
140176  1  0  0  0  0
141177  1  0  0  0  0
146178  1  0  0  0  0
147179  1  0  0  0  0
151180  1  0  0  0  0
152181  1  0  0  0  0
155182  1  0  0  0  0
157183  1  0  0  0  0
158184  1  0  0  0  0
160185  1  0  0  0  0
161186  1  0  0  0  0
166187  1  0  0  0  0
167188  1  0  0  0  0
170189  1  0  0  0  0
172190  1  0  0  0  0
173191  1  0  0  0  0
128193  4  0  0  0  0
193194  4  0  0  0  0
194195  4  0  0  0  0
195196  2  0  0  0  0
196197  4  0  0  0  0
192198  1  0  0  0  0
194198  4  0  0  0  0
197198  4  0  0  0  0
197199  4  0  0  0  0
199200  4  0  0  0  0
200201  4  0  0  0  0
201202  2  0  0  0  0
192203  1  0  0  0  0
200203  4  0  0  0  0
202204  4  0  0  0  0
203204  4  0  0  0  0
129205  1  0  0  0  0
204205  4  0  0  0  0
205206  4  0  0  0  0
206207  4  0  0  0  0
207208  2  0  0  0  0
208209  4  0  0  0  0
209210  4  0  0  0  0
210211  1  0  0  0  0
211212  4  0  0  0  0
212213  4  0  0  0  0
213214  4  0  0  0  0
214215  1  0  0  0  0
215216  4  0  0  0  0
215217  2  0  0  0  0
214218  4  0  0  0  0
211219  4  0  0  0  0
218219  4  0  0  0  0
210220  4  0  0  0  0
220221  4  0  0  0  0
221222  2  0  0  0  0
193223  4  0  0  0  0
222223  4  0  0  0  0
192224  1  0  0  0  0
220224  4  0  0  0  0
223224  4  0  0  0  0
192225  1  0  0  0  0
206225  4  0  0  0  0
209225  4  0  0  0  0
199226  1  0  0  0  0
226227  4  0  0  0  0
227228  4  0  0  0  0
228229  4  0  0  0  0
229230  1  0  0  0  0
230231  4  0  0  0  0
230232  2  0  0  0  0
229233  4  0  0  0  0
226234  4  0  0  0  0
233234  4  0  0  0  0
195235  1  0  0  0  0
196236  1  0  0  0  0
201237  1  0  0  0  0
202238  1  0  0  0  0
207239  1  0  0  0  0
208240  1  0  0  0  0
212241  1  0  0  0  0
213242  1  0  0  0  0
216243  1  0  0  0  0
218244  1  0  0  0  0
219245  1  0  0  0  0
221246  1  0  0  0  0
222247  1  0  0  0  0
227248  1  0  0  0  0
228249  1  0  0  0  0
231250  1  0  0  0  0
233251  1  0  0  0  0
234252  1  0  0  0  0
M  END
