 xtb: 6.5.1 (b24c23e)
          07302215523D

260299  0     0  0            999 V2000
   54.8380    0.0055   -0.0128 Zn  0  0  0  0  0  0  0  0  0  0  0  0
   51.4314   -0.0123   -0.0117 C   0  0  0  0  0  0  0  0  0  0  0  0
   52.0507   -0.0687    1.2309 C   0  0  0  0  0  0  0  0  0  0  0  0
   51.3666   -0.1685    2.4902 C   0  0  0  0  0  0  0  0  0  0  0  0
   52.3166   -0.1947    3.4574 C   0  0  0  0  0  0  0  0  0  0  0  0
   53.5942   -0.0967    2.8009 C   0  0  0  0  0  0  0  0  0  0  0  0
   53.3976   -0.0347    1.4526 N   0  0  0  0  0  0  0  0  0  0  0  0
   54.8403   -0.0855    3.4391 C   0  0  0  0  0  0  0  0  0  0  0  0
   54.8438   -0.1503    4.9211 C   0  0  0  0  0  0  0  0  0  0  0  0
   54.2422    0.8591    5.6769 C   0  0  0  0  0  0  0  0  0  0  0  0
   54.2442    0.7988    7.0608 C   0  0  0  0  0  0  0  0  0  0  0  0
   54.8487   -0.2840    7.6785 C   0  0  0  0  0  0  0  0  0  0  0  0
   54.8616   -0.3638    9.4294 S   0  0  0  0  0  0  0  0  0  0  0  0
   54.7091    0.9436    9.9959 O   0  0  0  0  0  0  0  0  0  0  0  0
   53.4736   -1.1813    9.6410 O   0  0  0  0  0  0  0  0  0  0  0  0
   55.9343   -1.1920    9.8983 O   0  0  0  0  0  0  0  0  0  0  0  0
   55.4556   -1.2995    6.9572 C   0  0  0  0  0  0  0  0  0  0  0  0
   55.4517   -1.2260    5.5743 C   0  0  0  0  0  0  0  0  0  0  0  0
   56.0853   -0.0255    2.8014 C   0  0  0  0  0  0  0  0  0  0  0  0
   57.3574    0.0536    3.4663 C   0  0  0  0  0  0  0  0  0  0  0  0
   58.3108    0.0943    2.5014 C   0  0  0  0  0  0  0  0  0  0  0  0
   56.2887   -0.0124    1.4490 N   0  0  0  0  0  0  0  0  0  0  0  0
   57.6324    0.0474    1.2388 C   0  0  0  0  0  0  0  0  0  0  0  0
   58.2706    0.0245   -0.0139 C   0  0  0  0  0  0  0  0  0  0  0  0
   57.6319   -0.0051   -1.2663 C   0  0  0  0  0  0  0  0  0  0  0  0
   58.3098   -0.0426   -2.5295 C   0  0  0  0  0  0  0  0  0  0  0  0
   57.3550   -0.0144   -3.4937 C   0  0  0  0  0  0  0  0  0  0  0  0
   56.0827    0.0472   -2.8274 C   0  0  0  0  0  0  0  0  0  0  0  0
   56.2875    0.0373   -1.4753 N   0  0  0  0  0  0  0  0  0  0  0  0
   54.8368    0.0891   -3.4645 C   0  0  0  0  0  0  0  0  0  0  0  0
   54.8403    0.1531   -4.9468 C   0  0  0  0  0  0  0  0  0  0  0  0
   54.2637   -0.8694   -5.7042 C   0  0  0  0  0  0  0  0  0  0  0  0
   54.2663   -0.8075   -7.0882 C   0  0  0  0  0  0  0  0  0  0  0  0
   54.8458    0.2900   -7.7037 C   0  0  0  0  0  0  0  0  0  0  0  0
   54.8365    0.3889   -9.4538 S   0  0  0  0  0  0  0  0  0  0  0  0
   54.8449    1.7567   -9.8803 O   0  0  0  0  0  0  0  0  0  0  0  0
   56.3046   -0.2467   -9.7381 O   0  0  0  0  0  0  0  0  0  0  0  0
   53.8589   -0.4974  -10.0150 O   0  0  0  0  0  0  0  0  0  0  0  0
   55.4203    1.3228   -6.9803 C   0  0  0  0  0  0  0  0  0  0  0  0
   55.4187    1.2463   -5.5976 C   0  0  0  0  0  0  0  0  0  0  0  0
   53.5911    0.0862   -2.8260 C   0  0  0  0  0  0  0  0  0  0  0  0
   52.3121    0.1663   -3.4823 C   0  0  0  0  0  0  0  0  0  0  0  0
   51.3631    0.1352   -2.5143 C   0  0  0  0  0  0  0  0  0  0  0  0
   52.0491    0.0481   -1.2549 C   0  0  0  0  0  0  0  0  0  0  0  0
   53.3961    0.0272   -1.4773 N   0  0  0  0  0  0  0  0  0  0  0  0
   50.3458   -0.0171   -0.0112 H   0  0  0  0  0  0  0  0  0  0  0  0
   50.2955   -0.2203    2.6065 H   0  0  0  0  0  0  0  0  0  0  0  0
   52.1703   -0.2830    4.5220 H   0  0  0  0  0  0  0  0  0  0  0  0
   53.7861    1.7043    5.1748 H   0  0  0  0  0  0  0  0  0  0  0  0
   53.7904    1.5812    7.6560 H   0  0  0  0  0  0  0  0  0  0  0  0
   53.3775   -1.4407   10.5654 H   0  0  0  0  0  0  0  0  0  0  0  0
   55.9240   -2.1286    7.4726 H   0  0  0  0  0  0  0  0  0  0  0  0
   55.9115   -2.0153    4.9910 H   0  0  0  0  0  0  0  0  0  0  0  0
   57.5005    0.0872    4.5344 H   0  0  0  0  0  0  0  0  0  0  0  0
   59.3804    0.1544    2.6259 H   0  0  0  0  0  0  0  0  0  0  0  0
   59.3800   -0.0878   -2.6551 H   0  0  0  0  0  0  0  0  0  0  0  0
   57.4971   -0.0449   -4.5620 H   0  0  0  0  0  0  0  0  0  0  0  0
   53.8237   -1.7240   -5.2035 H   0  0  0  0  0  0  0  0  0  0  0  0
   53.8225   -1.5947   -7.6846 H   0  0  0  0  0  0  0  0  0  0  0  0
   56.4142   -0.4203  -10.6809 H   0  0  0  0  0  0  0  0  0  0  0  0
   55.8538    2.1717   -7.4938 H   0  0  0  0  0  0  0  0  0  0  0  0
   55.8533    2.0482   -5.0122 H   0  0  0  0  0  0  0  0  0  0  0  0
   52.1646    0.2463   -4.5473 H   0  0  0  0  0  0  0  0  0  0  0  0
   50.2914    0.1750   -2.6299 H   0  0  0  0  0  0  0  0  0  0  0  0
   87.5807   -0.0051   -0.0543 Zn  0  0  0  0  0  0  0  0  0  0  0  0
   90.9902   -0.0322   -0.0648 C   0  0  0  0  0  0  0  0  0  0  0  0
   90.3664   -0.1789   -1.2977 C   0  0  0  0  0  0  0  0  0  0  0  0
   91.0465   -0.3618   -2.5497 C   0  0  0  0  0  0  0  0  0  0  0  0
   90.0928   -0.4667   -3.5080 C   0  0  0  0  0  0  0  0  0  0  0  0
   88.8170   -0.3401   -2.8531 C   0  0  0  0  0  0  0  0  0  0  0  0
   89.0182   -0.1745   -1.5146 N   0  0  0  0  0  0  0  0  0  0  0  0
   87.5683   -0.4102   -3.4828 C   0  0  0  0  0  0  0  0  0  0  0  0
   87.5643   -0.5695   -4.9579 C   0  0  0  0  0  0  0  0  0  0  0  0
   88.1267    0.4166   -5.7725 C   0  0  0  0  0  0  0  0  0  0  0  0
   88.1227    0.2785   -7.1507 C   0  0  0  0  0  0  0  0  0  0  0  0
   87.5560   -0.8586   -7.7031 C   0  0  0  0  0  0  0  0  0  0  0  0
   87.5394   -1.0355   -9.4474 S   0  0  0  0  0  0  0  0  0  0  0  0
   87.6712    0.2432  -10.0794 O   0  0  0  0  0  0  0  0  0  0  0  0
   88.9345   -1.8492   -9.6244 O   0  0  0  0  0  0  0  0  0  0  0  0
   86.4789   -1.9042   -9.8684 O   0  0  0  0  0  0  0  0  0  0  0  0
   86.9901   -1.8537   -6.9224 C   0  0  0  0  0  0  0  0  0  0  0  0
   86.9954   -1.7024   -5.5456 C   0  0  0  0  0  0  0  0  0  0  0  0
   86.3245   -0.3388   -2.8451 C   0  0  0  0  0  0  0  0  0  0  0  0
   85.0487   -0.3627   -3.5067 C   0  0  0  0  0  0  0  0  0  0  0  0
   84.0980   -0.2510   -2.5448 C   0  0  0  0  0  0  0  0  0  0  0  0
   86.1243   -0.1995   -1.4984 N   0  0  0  0  0  0  0  0  0  0  0  0
   84.7810   -0.1481   -1.2883 C   0  0  0  0  0  0  0  0  0  0  0  0
   84.1454    0.0072   -0.0416 C   0  0  0  0  0  0  0  0  0  0  0  0
   84.7910    0.1639    1.1998 C   0  0  0  0  0  0  0  0  0  0  0  0
   84.1185    0.2837    2.4604 C   0  0  0  0  0  0  0  0  0  0  0  0
   85.0775    0.3982    3.4140 C   0  0  0  0  0  0  0  0  0  0  0  0
   86.3477    0.3553    2.7431 C   0  0  0  0  0  0  0  0  0  0  0  0
   86.1362    0.2058    1.3993 N   0  0  0  0  0  0  0  0  0  0  0  0
   87.5964    0.4165    3.3718 C   0  0  0  0  0  0  0  0  0  0  0  0
   87.6021    0.5946    4.8451 C   0  0  0  0  0  0  0  0  0  0  0  0
   88.1413   -0.3935    5.6724 C   0  0  0  0  0  0  0  0  0  0  0  0
   88.1458   -0.2344    7.0486 C   0  0  0  0  0  0  0  0  0  0  0  0
   87.6105    0.9249    7.5854 C   0  0  0  0  0  0  0  0  0  0  0  0
   87.6244    1.1413    9.3256 S   0  0  0  0  0  0  0  0  0  0  0  0
   87.6791    2.5318    9.6730 O   0  0  0  0  0  0  0  0  0  0  0  0
   86.1202    0.6221    9.6522 O   0  0  0  0  0  0  0  0  0  0  0  0
   88.5631    0.2445    9.9300 O   0  0  0  0  0  0  0  0  0  0  0  0
   87.0752    1.9262    6.7909 C   0  0  0  0  0  0  0  0  0  0  0  0
   87.0703    1.7534    5.4168 C   0  0  0  0  0  0  0  0  0  0  0  0
   88.8398    0.3219    2.7356 C   0  0  0  0  0  0  0  0  0  0  0  0
   90.1215    0.4290    3.3824 C   0  0  0  0  0  0  0  0  0  0  0  0
   91.0674    0.3025    2.4191 C   0  0  0  0  0  0  0  0  0  0  0  0
   90.3767    0.1266    1.1718 C   0  0  0  0  0  0  0  0  0  0  0  0
   89.0300    0.1458    1.3967 N   0  0  0  0  0  0  0  0  0  0  0  0
   92.0757   -0.0414   -0.0682 H   0  0  0  0  0  0  0  0  0  0  0  0
   92.1176   -0.4096   -2.6673 H   0  0  0  0  0  0  0  0  0  0  0  0
   90.2352   -0.6283   -4.5645 H   0  0  0  0  0  0  0  0  0  0  0  0
   88.5535    1.3045   -5.3208 H   0  0  0  0  0  0  0  0  0  0  0  0
   88.5456    1.0421   -7.7912 H   0  0  0  0  0  0  0  0  0  0  0  0
   88.9629   -2.2732  -10.4907 H   0  0  0  0  0  0  0  0  0  0  0  0
   86.5507   -2.7270   -7.3878 H   0  0  0  0  0  0  0  0  0  0  0  0
   86.5674   -2.4741   -4.9165 H   0  0  0  0  0  0  0  0  0  0  0  0
   84.9005   -0.4396   -4.5717 H   0  0  0  0  0  0  0  0  0  0  0  0
   83.0273   -0.2259   -2.6704 H   0  0  0  0  0  0  0  0  0  0  0  0
   83.0486    0.2693    2.5943 H   0  0  0  0  0  0  0  0  0  0  0  0
   84.9387    0.4889    4.4792 H   0  0  0  0  0  0  0  0  0  0  0  0
   88.5460   -1.2977    5.2327 H   0  0  0  0  0  0  0  0  0  0  0  0
   88.5597   -0.9949    7.6987 H   0  0  0  0  0  0  0  0  0  0  0  0
   85.8273    0.9708   10.5029 H   0  0  0  0  0  0  0  0  0  0  0  0
   86.6768    2.8256    7.2434 H   0  0  0  0  0  0  0  0  0  0  0  0
   86.6662    2.5290    4.7766 H   0  0  0  0  0  0  0  0  0  0  0  0
   90.2728    0.5921    4.4374 H   0  0  0  0  0  0  0  0  0  0  0  0
   92.1399    0.3319    2.5299 H   0  0  0  0  0  0  0  0  0  0  0  0
   59.6840    0.0289   -0.0144 C   0  0  0  0  0  0  0  0  0  0  0  0
   60.8993    0.0291   -0.0147 C   0  0  0  0  0  0  0  0  0  0  0  0
   70.5982   -0.0100   -0.0148 C   0  0  0  0  0  0  0  0  0  0  0  0
   71.8155   -0.0140   -0.0132 C   0  0  0  0  0  0  0  0  0  0  0  0
   81.5186    0.0032   -0.0338 C   0  0  0  0  0  0  0  0  0  0  0  0
   82.7350    0.0069   -0.0365 C   0  0  0  0  0  0  0  0  0  0  0  0
   65.7494    0.0109   -0.0159 Zn  0  0  0  0  0  0  0  0  0  0  0  0
   62.3122    0.0253   -0.0158 C   0  0  0  0  0  0  0  0  0  0  0  0
   62.9568    1.0113    0.7521 C   0  0  0  0  0  0  0  0  0  0  0  0
   62.2854    1.9990    1.5452 C   0  0  0  0  0  0  0  0  0  0  0  0
   63.2438    2.7982    2.0791 C   0  0  0  0  0  0  0  0  0  0  0  0
   64.5109    2.3090    1.6104 C   0  0  0  0  0  0  0  0  0  0  0  0
   64.3014    1.2119    0.8213 N   0  0  0  0  0  0  0  0  0  0  0  0
   65.7584    2.8657    1.9151 C   0  0  0  0  0  0  0  0  0  0  0  0
   65.7611    4.1108    2.7217 C   0  0  0  0  0  0  0  0  0  0  0  0
   66.3886    4.1464    3.9697 C   0  0  0  0  0  0  0  0  0  0  0  0
   66.3962    5.3104    4.7204 C   0  0  0  0  0  0  0  0  0  0  0  0
   65.7740    6.4371    4.2074 C   0  0  0  0  0  0  0  0  0  0  0  0
   65.7972    7.9198    5.1427 S   0  0  0  0  0  0  0  0  0  0  0  0
   65.6086    9.0543    4.2884 O   0  0  0  0  0  0  0  0  0  0  0  0
   64.4376    7.6852    5.9997 O   0  0  0  0  0  0  0  0  0  0  0  0
   66.8962    7.9301    6.0638 O   0  0  0  0  0  0  0  0  0  0  0  0
   65.1472    6.4346    2.9719 C   0  0  0  0  0  0  0  0  0  0  0  0
   65.1407    5.2635    2.2326 C   0  0  0  0  0  0  0  0  0  0  0  0
   67.0021    2.3620    1.5179 C   0  0  0  0  0  0  0  0  0  0  0  0
   68.2718    2.9788    1.7827 C   0  0  0  0  0  0  0  0  0  0  0  0
   69.2246    2.1769    1.2426 C   0  0  0  0  0  0  0  0  0  0  0  0
   67.2059    1.2111    0.8053 N   0  0  0  0  0  0  0  0  0  0  0  0
   68.5485    1.0676    0.6377 C   0  0  0  0  0  0  0  0  0  0  0  0
   69.1892   -0.0040   -0.0158 C   0  0  0  0  0  0  0  0  0  0  0  0
   68.5395   -1.0696   -0.6701 C   0  0  0  0  0  0  0  0  0  0  0  0
   69.2061   -2.1835   -1.2769 C   0  0  0  0  0  0  0  0  0  0  0  0
   68.2466   -2.9766   -1.8180 C   0  0  0  0  0  0  0  0  0  0  0  0
   66.9821   -2.3497   -1.5517 C   0  0  0  0  0  0  0  0  0  0  0  0
   67.1956   -1.2016   -0.8375 N   0  0  0  0  0  0  0  0  0  0  0  0
   65.7342   -2.8431   -1.9486 C   0  0  0  0  0  0  0  0  0  0  0  0
   65.7265   -4.0864   -2.7580 C   0  0  0  0  0  0  0  0  0  0  0  0
   66.3502   -4.1222   -4.0079 C   0  0  0  0  0  0  0  0  0  0  0  0
   66.3471   -5.2834   -4.7629 C   0  0  0  0  0  0  0  0  0  0  0  0
   65.7181   -6.4073   -4.2521 C   0  0  0  0  0  0  0  0  0  0  0  0
   65.7259   -7.8858   -5.1938 S   0  0  0  0  0  0  0  0  0  0  0  0
   65.5313   -9.0247   -4.3465 O   0  0  0  0  0  0  0  0  0  0  0  0
   64.3623   -7.6358   -6.0410 O   0  0  0  0  0  0  0  0  0  0  0  0
   66.8212   -7.8996   -6.1190 O   0  0  0  0  0  0  0  0  0  0  0  0
   65.0956   -6.4049   -3.0144 C   0  0  0  0  0  0  0  0  0  0  0  0
   65.0999   -5.2364   -2.2708 C   0  0  0  0  0  0  0  0  0  0  0  0
   64.4914   -2.2769   -1.6426 C   0  0  0  0  0  0  0  0  0  0  0  0
   63.2201   -2.7562   -2.1102 C   0  0  0  0  0  0  0  0  0  0  0  0
   62.2685   -1.9489   -1.5760 C   0  0  0  0  0  0  0  0  0  0  0  0
   62.9485   -0.9660   -0.7842 C   0  0  0  0  0  0  0  0  0  0  0  0
   64.2913   -1.1776   -0.8541 N   0  0  0  0  0  0  0  0  0  0  0  0
   61.2168    2.0647    1.6746 H   0  0  0  0  0  0  0  0  0  0  0  0
   63.1073    3.6374    2.7420 H   0  0  0  0  0  0  0  0  0  0  0  0
   66.8613    3.2514    4.3571 H   0  0  0  0  0  0  0  0  0  0  0  0
   66.8808    5.3493    5.6879 H   0  0  0  0  0  0  0  0  0  0  0  0
   64.3868    8.3201    6.7246 H   0  0  0  0  0  0  0  0  0  0  0  0
   64.6806    7.3366    2.5963 H   0  0  0  0  0  0  0  0  0  0  0  0
   64.6671    5.2433    1.2580 H   0  0  0  0  0  0  0  0  0  0  0  0
   68.4152    3.9130    2.3012 H   0  0  0  0  0  0  0  0  0  0  0  0
   70.2919    2.3275    1.2385 H   0  0  0  0  0  0  0  0  0  0  0  0
   70.2722   -2.3428   -1.2736 H   0  0  0  0  0  0  0  0  0  0  0  0
   68.3819   -3.9111   -2.3383 H   0  0  0  0  0  0  0  0  0  0  0  0
   66.8283   -3.2292   -4.3934 H   0  0  0  0  0  0  0  0  0  0  0  0
   66.8283   -5.3223   -5.7321 H   0  0  0  0  0  0  0  0  0  0  0  0
   64.2692   -8.3074   -6.7276 H   0  0  0  0  0  0  0  0  0  0  0  0
   64.6239   -7.3049   -2.6404 H   0  0  0  0  0  0  0  0  0  0  0  0
   64.6294   -5.2164   -1.2946 H   0  0  0  0  0  0  0  0  0  0  0  0
   63.0763   -3.5950   -2.7719 H   0  0  0  0  0  0  0  0  0  0  0  0
   61.1993   -2.0062   -1.7048 H   0  0  0  0  0  0  0  0  0  0  0  0
   76.6683   -0.0134   -0.0178 Zn  0  0  0  0  0  0  0  0  0  0  0  0
   73.2245   -0.0162   -0.0127 C   0  0  0  0  0  0  0  0  0  0  0  0
   73.8701    0.7360    0.9890 C   0  0  0  0  0  0  0  0  0  0  0  0
   73.1976    1.4528    2.0320 C   0  0  0  0  0  0  0  0  0  0  0  0
   74.1547    2.0501    2.7868 C   0  0  0  0  0  0  0  0  0  0  0  0
   75.4233    1.7056    2.2084 C   0  0  0  0  0  0  0  0  0  0  0  0
   75.2142    0.8964    1.1242 N   0  0  0  0  0  0  0  0  0  0  0  0
   76.6700    2.1116    2.6959 C   0  0  0  0  0  0  0  0  0  0  0  0
   76.6699    3.0304    3.8614 C   0  0  0  0  0  0  0  0  0  0  0  0
   77.2451    2.6351    5.0716 C   0  0  0  0  0  0  0  0  0  0  0  0
   77.2486    3.4900    6.1616 C   0  0  0  0  0  0  0  0  0  0  0  0
   76.6756    4.7438    6.0251 C   0  0  0  0  0  0  0  0  0  0  0  0
   76.6932    5.8390    7.3944 S   0  0  0  0  0  0  0  0  0  0  0  0
   76.6548    7.2055    6.9615 O   0  0  0  0  0  0  0  0  0  0  0  0
   75.2345    5.4797    8.0111 O   0  0  0  0  0  0  0  0  0  0  0  0
   77.6992    5.4456    8.3352 O   0  0  0  0  0  0  0  0  0  0  0  0
   76.1022    5.1667    4.8367 C   0  0  0  0  0  0  0  0  0  0  0  0
   76.0988    4.3012    3.7553 C   0  0  0  0  0  0  0  0  0  0  0  0
   77.9169    1.7328    2.1862 C   0  0  0  0  0  0  0  0  0  0  0  0
   79.1876    2.2023    2.6639 C   0  0  0  0  0  0  0  0  0  0  0  0
   80.1430    1.6094    1.9035 C   0  0  0  0  0  0  0  0  0  0  0  0
   78.1225    0.8769    1.1386 N   0  0  0  0  0  0  0  0  0  0  0  0
   79.4667    0.7791    0.9509 C   0  0  0  0  0  0  0  0  0  0  0  0
   80.1086   -0.0018   -0.0291 C   0  0  0  0  0  0  0  0  0  0  0  0
   79.4657   -0.7896   -1.0032 C   0  0  0  0  0  0  0  0  0  0  0  0
   80.1416   -1.6203   -1.9558 C   0  0  0  0  0  0  0  0  0  0  0  0
   79.1852   -2.2270   -2.7040 C   0  0  0  0  0  0  0  0  0  0  0  0
   77.9144   -1.7640   -2.2202 C   0  0  0  0  0  0  0  0  0  0  0  0
   78.1210   -0.8990   -1.1802 N   0  0  0  0  0  0  0  0  0  0  0  0
   76.6664   -2.1552   -2.7178 C   0  0  0  0  0  0  0  0  0  0  0  0
   76.6625   -3.0940   -3.8673 C   0  0  0  0  0  0  0  0  0  0  0  0
   77.2309   -2.7228   -5.0882 C   0  0  0  0  0  0  0  0  0  0  0  0
   77.2326   -3.6011   -6.1595 C   0  0  0  0  0  0  0  0  0  0  0  0
   76.6637   -4.8533   -5.9938 C   0  0  0  0  0  0  0  0  0  0  0  0
   76.6816   -5.9794   -7.3377 S   0  0  0  0  0  0  0  0  0  0  0  0
   76.6172   -7.3344   -6.8730 O   0  0  0  0  0  0  0  0  0  0  0  0
   75.2369   -5.6096   -7.9809 O   0  0  0  0  0  0  0  0  0  0  0  0
   77.7046   -5.6249   -8.2756 O   0  0  0  0  0  0  0  0  0  0  0  0
   76.0953   -5.2517   -4.7947 C   0  0  0  0  0  0  0  0  0  0  0  0
   76.0943   -4.3635   -3.7322 C   0  0  0  0  0  0  0  0  0  0  0  0
   75.4205   -1.7482   -2.2285 C   0  0  0  0  0  0  0  0  0  0  0  0
   74.1509   -2.0995   -2.8007 C   0  0  0  0  0  0  0  0  0  0  0  0
   73.1950   -1.4966   -2.0490 C   0  0  0  0  0  0  0  0  0  0  0  0
   73.8689   -0.7713   -1.0128 C   0  0  0  0  0  0  0  0  0  0  0  0
   75.2130   -0.9309   -1.1502 N   0  0  0  0  0  0  0  0  0  0  0  0
   72.1295    1.4804    2.1742 H   0  0  0  0  0  0  0  0  0  0  0  0
   74.0155    2.6570    3.6669 H   0  0  0  0  0  0  0  0  0  0  0  0
   77.6799    1.6463    5.1599 H   0  0  0  0  0  0  0  0  0  0  0  0
   77.6916    3.1937    7.1041 H   0  0  0  0  0  0  0  0  0  0  0  0
   74.9605    6.1609    8.6373 H   0  0  0  0  0  0  0  0  0  0  0  0
   75.6740    6.1583    4.7614 H   0  0  0  0  0  0  0  0  0  0  0  0
   75.6657    4.6163    2.8131 H   0  0  0  0  0  0  0  0  0  0  0  0
   79.3294    2.9068    3.4675 H   0  0  0  0  0  0  0  0  0  0  0  0
   81.2125    1.7296    1.9695 H   0  0  0  0  0  0  0  0  0  0  0  0
   81.2115   -1.7319   -2.0296 H   0  0  0  0  0  0  0  0  0  0  0  0
   79.3268   -2.9360   -3.5036 H   0  0  0  0  0  0  0  0  0  0  0  0
   77.6622   -1.7348   -5.1998 H   0  0  0  0  0  0  0  0  0  0  0  0
   77.6716   -3.3241   -7.1098 H   0  0  0  0  0  0  0  0  0  0  0  0
   74.9818   -6.2753   -8.6313 H   0  0  0  0  0  0  0  0  0  0  0  0
   75.6696   -6.2425   -4.6966 H   0  0  0  0  0  0  0  0  0  0  0  0
   75.6657   -4.6592   -2.7816 H   0  0  0  0  0  0  0  0  0  0  0  0
   74.0105   -2.7138   -3.6754 H   0  0  0  0  0  0  0  0  0  0  0  0
   72.1265   -1.5269   -2.1882 H   0  0  0  0  0  0  0  0  0  0  0  0
  2  3  4  0  0  0  0
  3  4  1  0  0  0  0
  4  5  2  0  0  0  0
  5  6  4  0  0  0  0
  1  7  1  0  0  0  0
  3  7  4  0  0  0  0
  6  7  4  0  0  0  0
  6  8  4  0  0  0  0
  8  9  1  0  0  0  0
  9 10  4  0  0  0  0
 10 11  4  0  0  0  0
 11 12  4  0  0  0  0
 12 13  1  0  0  0  0
 13 14  2  0  0  0  0
 13 15  1  0  0  0  0
 13 16  2  0  0  0  0
 12 17  4  0  0  0  0
  9 18  4  0  0  0  0
 17 18  4  0  0  0  0
  8 19  4  0  0  0  0
 19 20  4  0  0  0  0
 20 21  2  0  0  0  0
  1 22  1  0  0  0  0
 19 22  4  0  0  0  0
 21 23  4  0  0  0  0
 22 23  4  0  0  0  0
 23 24  4  0  0  0  0
 24 25  4  0  0  0  0
 25 26  4  0  0  0  0
 26 27  2  0  0  0  0
 27 28  4  0  0  0  0
  1 29  1  0  0  0  0
 25 29  4  0  0  0  0
 28 29  4  0  0  0  0
 28 30  4  0  0  0  0
 30 31  1  0  0  0  0
 31 32  4  0  0  0  0
 32 33  4  0  0  0  0
 33 34  4  0  0  0  0
 34 35  1  0  0  0  0
 35 36  2  0  0  0  0
 35 37  1  0  0  0  0
 35 38  2  0  0  0  0
 34 39  4  0  0  0  0
 31 40  4  0  0  0  0
 39 40  4  0  0  0  0
 30 41  4  0  0  0  0
 41 42  4  0  0  0  0
 42 43  2  0  0  0  0
  2 44  4  0  0  0  0
 43 44  1  0  0  0  0
  1 45  1  0  0  0  0
 41 45  4  0  0  0  0
 44 45  4  0  0  0  0
  2 46  1  0  0  0  0
  4 47  1  0  0  0  0
  5 48  1  0  0  0  0
 10 49  1  0  0  0  0
 11 50  1  0  0  0  0
 15 51  1  0  0  0  0
 17 52  1  0  0  0  0
 18 53  1  0  0  0  0
 20 54  1  0  0  0  0
 21 55  1  0  0  0  0
 26 56  1  0  0  0  0
 27 57  1  0  0  0  0
 32 58  1  0  0  0  0
 33 59  1  0  0  0  0
 37 60  1  0  0  0  0
 39 61  1  0  0  0  0
 40 62  1  0  0  0  0
 42 63  1  0  0  0  0
 43 64  1  0  0  0  0
 66 67  4  0  0  0  0
 67 68  1  0  0  0  0
 68 69  2  0  0  0  0
 69 70  4  0  0  0  0
 65 71  1  0  0  0  0
 67 71  4  0  0  0  0
 70 71  4  0  0  0  0
 70 72  4  0  0  0  0
 72 73  1  0  0  0  0
 73 74  4  0  0  0  0
 74 75  4  0  0  0  0
 75 76  4  0  0  0  0
 76 77  1  0  0  0  0
 77 78  2  0  0  0  0
 77 79  1  0  0  0  0
 77 80  2  0  0  0  0
 76 81  4  0  0  0  0
 73 82  4  0  0  0  0
 81 82  4  0  0  0  0
 72 83  4  0  0  0  0
 83 84  4  0  0  0  0
 84 85  2  0  0  0  0
 65 86  1  0  0  0  0
 83 86  4  0  0  0  0
 85 87  4  0  0  0  0
 86 87  4  0  0  0  0
 87 88  4  0  0  0  0
 88 89  4  0  0  0  0
 89 90  4  0  0  0  0
 90 91  2  0  0  0  0
 91 92  4  0  0  0  0
 65 93  1  0  0  0  0
 89 93  4  0  0  0  0
 92 93  4  0  0  0  0
 92 94  4  0  0  0  0
 94 95  1  0  0  0  0
 95 96  4  0  0  0  0
 96 97  4  0  0  0  0
 97 98  4  0  0  0  0
 98 99  1  0  0  0  0
 99100  2  0  0  0  0
 99101  1  0  0  0  0
 99102  2  0  0  0  0
 98103  4  0  0  0  0
 95104  4  0  0  0  0
103104  4  0  0  0  0
 94105  4  0  0  0  0
105106  4  0  0  0  0
106107  2  0  0  0  0
 66108  4  0  0  0  0
107108  1  0  0  0  0
 65109  1  0  0  0  0
105109  4  0  0  0  0
108109  4  0  0  0  0
 66110  1  0  0  0  0
 68111  1  0  0  0  0
 69112  1  0  0  0  0
 74113  1  0  0  0  0
 75114  1  0  0  0  0
 79115  1  0  0  0  0
 81116  1  0  0  0  0
 82117  1  0  0  0  0
 84118  1  0  0  0  0
 85119  1  0  0  0  0
 90120  1  0  0  0  0
 91121  1  0  0  0  0
 96122  1  0  0  0  0
 97123  1  0  0  0  0
101124  1  0  0  0  0
103125  1  0  0  0  0
104126  1  0  0  0  0
106127  1  0  0  0  0
107128  1  0  0  0  0
 24129  1  0  0  0  0
129130  3  0  0  0  0
131132  3  0  0  0  0
 88134  4  0  0  0  0
133134  3  0  0  0  0
130136  1  0  0  0  0
136137  4  0  0  0  0
137138  4  0  0  0  0
138139  2  0  0  0  0
139140  4  0  0  0  0
135141  1  0  0  0  0
137141  4  0  0  0  0
140141  4  0  0  0  0
140142  4  0  0  0  0
142143  1  0  0  0  0
143144  4  0  0  0  0
144145  4  0  0  0  0
145146  4  0  0  0  0
146147  1  0  0  0  0
147148  2  0  0  0  0
147149  1  0  0  0  0
147150  2  0  0  0  0
146151  4  0  0  0  0
143152  4  0  0  0  0
151152  4  0  0  0  0
142153  4  0  0  0  0
153154  4  0  0  0  0
154155  2  0  0  0  0
135156  1  0  0  0  0
153156  4  0  0  0  0
155157  4  0  0  0  0
156157  4  0  0  0  0
131158  4  0  0  0  0
157158  4  0  0  0  0
158159  4  0  0  0  0
159160  4  0  0  0  0
160161  2  0  0  0  0
161162  4  0  0  0  0
135163  1  0  0  0  0
159163  4  0  0  0  0
162163  4  0  0  0  0
162164  4  0  0  0  0
164165  1  0  0  0  0
165166  4  0  0  0  0
166167  4  0  0  0  0
167168  4  0  0  0  0
168169  1  0  0  0  0
169170  2  0  0  0  0
169171  1  0  0  0  0
169172  2  0  0  0  0
168173  4  0  0  0  0
165174  4  0  0  0  0
173174  4  0  0  0  0
164175  4  0  0  0  0
175176  4  0  0  0  0
176177  2  0  0  0  0
136178  4  0  0  0  0
177178  4  0  0  0  0
135179  1  0  0  0  0
175179  4  0  0  0  0
178179  4  0  0  0  0
138180  1  0  0  0  0
139181  1  0  0  0  0
144182  1  0  0  0  0
145183  1  0  0  0  0
149184  1  0  0  0  0
151185  1  0  0  0  0
152186  1  0  0  0  0
154187  1  0  0  0  0
155188  1  0  0  0  0
160189  1  0  0  0  0
161190  1  0  0  0  0
166191  1  0  0  0  0
167192  1  0  0  0  0
171193  1  0  0  0  0
173194  1  0  0  0  0
174195  1  0  0  0  0
176196  1  0  0  0  0
177197  1  0  0  0  0
132199  4  0  0  0  0
199200  4  0  0  0  0
200201  4  0  0  0  0
201202  2  0  0  0  0
202203  4  0  0  0  0
198204  1  0  0  0  0
200204  4  0  0  0  0
203204  4  0  0  0  0
203205  4  0  0  0  0
205206  1  0  0  0  0
206207  4  0  0  0  0
207208  4  0  0  0  0
208209  4  0  0  0  0
209210  1  0  0  0  0
210211  2  0  0  0  0
210212  1  0  0  0  0
210213  2  0  0  0  0
209214  4  0  0  0  0
206215  4  0  0  0  0
214215  4  0  0  0  0
205216  4  0  0  0  0
216217  4  0  0  0  0
217218  2  0  0  0  0
198219  1  0  0  0  0
216219  4  0  0  0  0
218220  4  0  0  0  0
219220  4  0  0  0  0
133221  4  0  0  0  0
220221  4  0  0  0  0
221222  4  0  0  0  0
222223  4  0  0  0  0
223224  2  0  0  0  0
224225  4  0  0  0  0
198226  1  0  0  0  0
222226  4  0  0  0  0
225226  4  0  0  0  0
225227  4  0  0  0  0
227228  1  0  0  0  0
228229  4  0  0  0  0
229230  4  0  0  0  0
230231  4  0  0  0  0
231232  1  0  0  0  0
232233  2  0  0  0  0
232234  1  0  0  0  0
232235  2  0  0  0  0
231236  4  0  0  0  0
228237  4  0  0  0  0
236237  4  0  0  0  0
227238  4  0  0  0  0
238239  4  0  0  0  0
239240  2  0  0  0  0
199241  4  0  0  0  0
240241  4  0  0  0  0
198242  1  0  0  0  0
238242  4  0  0  0  0
241242  4  0  0  0  0
201243  1  0  0  0  0
202244  1  0  0  0  0
207245  1  0  0  0  0
208246  1  0  0  0  0
212247  1  0  0  0  0
214248  1  0  0  0  0
215249  1  0  0  0  0
217250  1  0  0  0  0
218251  1  0  0  0  0
223252  1  0  0  0  0
224253  1  0  0  0  0
229254  1  0  0  0  0
230255  1  0  0  0  0
234256  1  0  0  0  0
236257  1  0  0  0  0
237258  1  0  0  0  0
239259  1  0  0  0  0
240260  1  0  0  0  0
M  END
