180

C 15.669203 -0.017556 -0.015056
C 16.397159 1.358052 0.080920
C 15.789404 2.592577 0.062471
C 16.811763 3.561609 0.234710
C 18.008974 2.883932 0.360655
N 17.749700 1.544613 0.211294
C 19.430531 3.520545 0.652631
C 19.467305 4.935061 1.085172
C 19.754679 5.946836 0.170518
C 19.766223 7.254321 0.624236
N 19.512170 7.618821 1.903121
C 19.237966 6.610311 2.764137
C 19.202551 5.272538 2.410862
C 20.561740 2.772066 0.553617
C 21.866081 3.309197 0.884324
C 22.768946 2.349800 0.718483
N 20.758597 1.468530 0.182422
C 22.090271 1.153231 0.261582
C 22.758194 -0.001589 -0.001130
C 21.978729 -1.280107 -0.525255
C 22.513281 -2.313136 -1.269921
C 21.487815 -3.270623 -1.470466
C 20.353610 -2.790393 -0.851153
N 20.647381 -1.553834 -0.326922
C 18.947705 -3.519214 -0.773800
C 18.923194 -4.989859 -0.918099
C 19.319813 -5.804938 0.139689
C 19.294525 -7.176449 -0.046227
N 18.910205 -7.783172 -1.194185
C 18.532269 -6.961197 -2.201112
C 18.523255 -5.579766 -2.116282
C 17.821296 -2.791740 -0.558487
C 16.502083 -3.391473 -0.459521
C 15.615655 -2.420181 -0.261967
C 16.334422 -1.170744 -0.214163
N 17.654495 -1.446030 -0.388364
H 14.592494 -0.031624 0.104905
H 14.731153 2.774451 -0.045352
H 16.682905 4.632251 0.286783
H 18.449955 0.807018 0.202522
H 19.966908 5.703807 -0.865062
H 19.988688 8.070395 -0.055362
H 19.039057 6.914244 3.786613
H 18.978052 4.499848 3.138219
H 22.079682 4.307825 1.221371
H 23.822564 2.465252 0.896168
H 23.531824 -2.380107 -1.621103
H 21.570356 -4.206789 -2.001851
H 19.967671 -0.922583 0.089279
H 19.637081 -5.367066 1.079951
H 19.594745 -7.845027 0.753967
H 18.224379 -7.458206 -3.115145
H 18.210627 -4.962474 -2.951738
H 16.273305 -4.439601 -0.529022
H 14.553594 -2.539026 -0.146019
C 64.264148 0.018984 -0.006196
C 63.536193 -1.247819 -0.550915
C 64.143947 -2.336799 -1.132735
C 63.121588 -3.277106 -1.423446
C 61.924377 -2.732370 -1.001107
N 62.183651 -1.473374 -0.520466
C 60.502820 -3.432013 -1.033128
C 60.466047 -4.887552 -1.296477
C 60.178672 -5.368052 -2.572957
C 60.167128 -6.738144 -2.768461
N 60.421181 -7.647904 -1.798541
C 60.695385 -7.145739 -0.571238
C 60.730800 -5.794725 -0.272573
C 59.371611 -2.721304 -0.778338
C 58.067270 -3.350252 -0.730365
C 57.164405 -2.421440 -0.438381
N 59.174755 -1.392517 -0.511285
C 57.843080 -1.148489 -0.296507
C 57.175157 -0.001589 -0.001130
C 57.954622 1.375001 0.118518
C 57.420070 2.634373 -0.070318
C 58.445536 3.577381 0.189942
C 59.579742 2.866832 0.520532
N 59.285970 1.527493 0.420195
C 60.985646 3.479289 0.923099
C 61.010157 4.852708 1.468388
C 60.613538 5.092798 2.782019
C 60.638826 6.397152 3.244910
N 61.023146 7.462270 2.502316
C 61.401082 7.192754 1.230740
C 61.410096 5.925880 0.673446
C 62.112055 2.733986 0.781314
C 63.431268 3.221792 1.143971
C 64.317696 2.267882 0.874729
C 63.598929 1.135302 0.344975
N 62.278856 1.459802 0.316201
H 65.340857 -0.023453 0.106887
H 65.202198 -2.449093 -1.311883
H 63.250447 -4.252702 -1.867516
H 61.483397 -0.813673 -0.190440
H 59.966443 -4.677709 -3.382226
H 59.944663 -7.152332 -3.746356
H 60.894295 -7.884221 0.198489
H 60.955299 -5.440977 0.727907
H 57.853670 -4.392351 -0.888126
H 56.110787 -2.605453 -0.333305
H 56.401527 2.854750 -0.351828
H 58.362995 4.652963 0.146337
H 59.965680 0.775721 0.501060
H 60.296270 4.272907 3.417316
H 60.338606 6.624991 4.262454
H 61.708972 8.053203 0.645844
H 61.722724 5.759782 -0.351956
H 63.660046 4.185356 1.562237
H 65.379757 2.320424 1.032233
C 25.922638 0.010922 0.007622
C 27.380864 -0.010914 -0.010252
C 28.514792 -0.031668 -0.011743
C 29.876174 -0.044258 -0.013934
C 31.150393 -0.033951 -0.018699
C 32.338855 -0.015153 -0.024855
C 33.691216 0.009631 -0.008987
C 34.791483 0.010922 0.007622
C 45.036232 0.010922 0.007622
C 46.494458 -0.010914 -0.010252
C 47.628386 -0.031668 -0.011743
C 48.989768 -0.044258 -0.013934
C 50.263987 -0.033951 -0.018699
C 51.452449 -0.015153 -0.024855
C 52.804810 0.009631 -0.008987
C 53.905077 0.010922 0.007622
C 36.386841 -0.000000 0.000043
C 37.182622 -1.245499 0.571155
C 36.682228 -2.240857 1.383674
C 37.720429 -3.186700 1.584419
C 38.823913 -2.735997 0.890841
N 38.508687 -1.518433 0.343529
C 40.212484 -3.481500 0.744855
C 40.205128 -4.958174 0.822956
C 40.622780 -5.609062 1.983102
C 40.581486 -6.992462 2.009032
N 40.156973 -7.760745 0.978432
C 39.757591 -7.095830 -0.131489
C 39.760917 -5.717015 -0.257387
C 41.348069 -2.772205 0.515627
C 42.635085 -3.408290 0.321729
C 43.543669 -2.460455 0.117744
N 41.556286 -1.426101 0.403948
C 42.881436 -1.173092 0.170609
C 43.545149 -0.000000 0.000043
C 42.748029 1.366478 0.069055
C 43.241030 2.589849 0.472648
C 42.203192 3.541875 0.303075
C 41.107120 2.867567 -0.191738
N 41.425525 1.534527 -0.258384
C 39.721937 3.504547 -0.611834
C 39.733698 4.898102 -1.105123
C 39.337764 5.947344 -0.277916
C 39.380713 7.233826 -0.786376
N 39.786683 7.543876 -2.039481
C 40.165567 6.500737 -2.814839
C 40.159501 5.179871 -2.401183
C 38.585258 2.762980 -0.556392
C 37.299093 3.281534 -0.974497
C 36.389827 2.327237 -0.808305
C 37.050953 1.152288 -0.277578
N 38.375554 1.473971 -0.153468
H 35.678822 -2.293117 1.773492
H 37.663129 -4.100238 2.153872
H 39.167579 -0.893536 -0.113904
H 40.972548 -5.036504 2.835773
H 40.899032 -7.535431 2.892453
H 39.420318 -7.722116 -0.951294
H 39.429891 -5.231905 -1.168819
H 42.832273 -4.465540 0.329089
H 44.588675 -2.638723 -0.058621
H 44.240716 2.781885 0.830290
H 42.255947 4.601463 0.502589
H 40.771511 0.785439 -0.465572
H 39.002960 5.748861 0.734348
H 39.078627 8.077567 -0.174911
H 40.487634 6.761091 -3.817302
H 40.473704 4.378823 -3.061339
H 37.102851 4.265360 -1.362194
H 35.344741 2.427995 -1.037564
