 xtb: 6.5.1 (b24c23e)
          07302206593D

140159  0     0  0            999 V2000
   15.0323    0.0283    0.0023 Cu  0  0  0  0  0  0  0  0  0  0  0  0
   11.6297    0.0940   -0.0666 C   0  0  0  0  0  0  0  0  0  0  0  0
   12.2545    1.0201    0.7559 C   0  0  0  0  0  0  0  0  0  0  0  0
   11.5695    1.9457    1.6112 C   0  0  0  0  0  0  0  0  0  0  0  0
   12.5212    2.6701    2.2517 C   0  0  0  0  0  0  0  0  0  0  0  0
   13.7966    2.2042    1.7806 C   0  0  0  0  0  0  0  0  0  0  0  0
   13.6034    1.1969    0.8797 N   0  0  0  0  0  0  0  0  0  0  0  0
   15.0370    2.7000    2.1946 C   0  0  0  0  0  0  0  0  0  0  0  0
   15.0460    3.8410    3.1399 C   0  0  0  0  0  0  0  0  0  0  0  0
   14.4412    5.0556    2.8045 C   0  0  0  0  0  0  0  0  0  0  0  0
   14.4676    6.1243    3.6806 C   0  0  0  0  0  0  0  0  0  0  0  0
   15.0918    6.0068    4.9287 C   0  0  0  0  0  0  0  0  0  0  0  0
   15.1420    7.1235    5.7496 N   0  0  0  0  0  0  0  0  0  0  0  0
   15.3434    6.9590    7.1827 C   0  0  0  0  0  0  0  0  0  0  0  0
   15.6980    4.7942    5.2695 C   0  0  0  0  0  0  0  0  0  0  0  0
   15.6728    3.7314    4.3827 C   0  0  0  0  0  0  0  0  0  0  0  0
   16.2737    2.1993    1.7800 C   0  0  0  0  0  0  0  0  0  0  0  0
   17.5467    2.7619    2.1319 C   0  0  0  0  0  0  0  0  0  0  0  0
   18.4985    2.0012    1.5336 C   0  0  0  0  0  0  0  0  0  0  0  0
   16.4709    1.1168    0.9634 N   0  0  0  0  0  0  0  0  0  0  0  0
   17.8148    0.9756    0.8058 C   0  0  0  0  0  0  0  0  0  0  0  0
   18.4581   -0.0247    0.0552 C   0  0  0  0  0  0  0  0  0  0  0  0
   17.8075   -1.0098   -0.7094 C   0  0  0  0  0  0  0  0  0  0  0  0
   18.4812   -2.0610   -1.4095 C   0  0  0  0  0  0  0  0  0  0  0  0
   17.5248   -2.7975   -2.0305 C   0  0  0  0  0  0  0  0  0  0  0  0
   16.2598   -2.1928   -1.7225 C   0  0  0  0  0  0  0  0  0  0  0  0
   16.4653   -1.1113   -0.9066 N   0  0  0  0  0  0  0  0  0  0  0  0
   15.0219   -2.6537   -2.1775 C   0  0  0  0  0  0  0  0  0  0  0  0
   15.0243   -3.8017   -3.1143 C   0  0  0  0  0  0  0  0  0  0  0  0
   15.6976   -3.7236   -4.3350 C   0  0  0  0  0  0  0  0  0  0  0  0
   15.7182   -4.7940   -5.2125 C   0  0  0  0  0  0  0  0  0  0  0  0
   15.0604   -5.9830   -4.8844 C   0  0  0  0  0  0  0  0  0  0  0  0
   15.1033   -7.1084   -5.6938 N   0  0  0  0  0  0  0  0  0  0  0  0
   15.3646   -6.9647   -7.1195 C   0  0  0  0  0  0  0  0  0  0  0  0
   14.3883   -6.0686   -3.6588 C   0  0  0  0  0  0  0  0  0  0  0  0
   14.3667   -4.9922   -2.7921 C   0  0  0  0  0  0  0  0  0  0  0  0
   13.7859   -2.1092   -1.8147 C   0  0  0  0  0  0  0  0  0  0  0  0
   12.5136   -2.5284   -2.3353 C   0  0  0  0  0  0  0  0  0  0  0  0
   11.5657   -1.7617   -1.7399 C   0  0  0  0  0  0  0  0  0  0  0  0
   12.2509   -0.8586   -0.8610 C   0  0  0  0  0  0  0  0  0  0  0  0
   13.5958   -1.0891   -0.9278 N   0  0  0  0  0  0  0  0  0  0  0  0
   10.5449    0.1160   -0.0897 H   0  0  0  0  0  0  0  0  0  0  0  0
   10.4974    2.0128    1.7107 H   0  0  0  0  0  0  0  0  0  0  0  0
   12.3782    3.4431    2.9897 H   0  0  0  0  0  0  0  0  0  0  0  0
   13.9667    5.1670    1.8356 H   0  0  0  0  0  0  0  0  0  0  0  0
   14.0063    7.0659    3.4019 H   0  0  0  0  0  0  0  0  0  0  0  0
   14.4196    7.8005    5.5359 H   0  0  0  0  0  0  0  0  0  0  0  0
   16.3541    6.5988    7.3790 H   0  0  0  0  0  0  0  0  0  0  0  0
   14.6203    6.2574    7.6142 H   0  0  0  0  0  0  0  0  0  0  0  0
   15.2238    7.9348    7.6536 H   0  0  0  0  0  0  0  0  0  0  0  0
   16.1934    4.6736    6.2250 H   0  0  0  0  0  0  0  0  0  0  0  0
   16.1329    2.7907    4.6657 H   0  0  0  0  0  0  0  0  0  0  0  0
   17.6910    3.6389    2.7418 H   0  0  0  0  0  0  0  0  0  0  0  0
   19.5695    2.1222    1.5688 H   0  0  0  0  0  0  0  0  0  0  0  0
   19.5484   -2.2149   -1.4109 H   0  0  0  0  0  0  0  0  0  0  0  0
   17.6605   -3.6836   -2.6291 H   0  0  0  0  0  0  0  0  0  0  0  0
   16.1985   -2.8011   -4.6085 H   0  0  0  0  0  0  0  0  0  0  0  0
   16.2505   -4.6979   -6.1508 H   0  0  0  0  0  0  0  0  0  0  0  0
   14.3508   -7.7587   -5.5023 H   0  0  0  0  0  0  0  0  0  0  0  0
   14.6785   -6.2481   -7.5856 H   0  0  0  0  0  0  0  0  0  0  0  0
   15.2363   -7.9418   -7.5853 H   0  0  0  0  0  0  0  0  0  0  0  0
   16.3917   -6.6345   -7.2795 H   0  0  0  0  0  0  0  0  0  0  0  0
   13.8858   -6.9919   -3.3898 H   0  0  0  0  0  0  0  0  0  0  0  0
   13.8541   -5.0791   -1.8403 H   0  0  0  0  0  0  0  0  0  0  0  0
   12.3709   -3.3011   -3.0737 H   0  0  0  0  0  0  0  0  0  0  0  0
   10.4969   -1.7868   -1.8840 H   0  0  0  0  0  0  0  0  0  0  0  0
   33.6249   -0.0112   -0.0285 Cu  0  0  0  0  0  0  0  0  0  0  0  0
   37.0275    0.0428   -0.1043 C   0  0  0  0  0  0  0  0  0  0  0  0
   36.4039   -0.9621   -0.8293 C   0  0  0  0  0  0  0  0  0  0  0  0
   37.0899   -1.9984   -1.5455 C   0  0  0  0  0  0  0  0  0  0  0  0
   36.1390   -2.7816   -2.1140 C   0  0  0  0  0  0  0  0  0  0  0  0
   34.8631   -2.2208   -1.7631 C   0  0  0  0  0  0  0  0  0  0  0  0
   35.0551   -1.1220   -0.9762 N   0  0  0  0  0  0  0  0  0  0  0  0
   33.6233   -2.7334   -2.1579 C   0  0  0  0  0  0  0  0  0  0  0  0
   33.6155   -3.9048   -3.0653 C   0  0  0  0  0  0  0  0  0  0  0  0
   34.2194   -3.8415   -4.3241 C   0  0  0  0  0  0  0  0  0  0  0  0
   34.1932   -4.9293   -5.1763 C   0  0  0  0  0  0  0  0  0  0  0  0
   33.5703   -6.1224   -4.7894 C   0  0  0  0  0  0  0  0  0  0  0  0
   33.5199   -7.1665   -5.7008 N   0  0  0  0  0  0  0  0  0  0  0  0
   33.3186   -8.5296   -5.2286 C   0  0  0  0  0  0  0  0  0  0  0  0
   32.9654   -6.1915   -3.5311 C   0  0  0  0  0  0  0  0  0  0  0  0
   32.9901   -5.0945   -2.6871 C   0  0  0  0  0  0  0  0  0  0  0  0
   32.3860   -2.2200   -1.7609 C   0  0  0  0  0  0  0  0  0  0  0  0
   31.1137   -2.6868   -2.2343 C   0  0  0  0  0  0  0  0  0  0  0  0
   30.1609   -1.9372   -1.6235 C   0  0  0  0  0  0  0  0  0  0  0  0
   32.1876   -1.1869   -0.8829 N   0  0  0  0  0  0  0  0  0  0  0  0
   30.8435   -1.0029   -0.7808 C   0  0  0  0  0  0  0  0  0  0  0  0
   30.1991   -0.0524    0.0312 C   0  0  0  0  0  0  0  0  0  0  0  0
   30.8486    0.9089    0.8263 C   0  0  0  0  0  0  0  0  0  0  0  0
   30.1737    1.8210    1.6990 C   0  0  0  0  0  0  0  0  0  0  0  0
   31.1291    2.5879    2.2834 C   0  0  0  0  0  0  0  0  0  0  0  0
   32.3948    2.1563    1.7614 C   0  0  0  0  0  0  0  0  0  0  0  0
   32.1906    1.1241    0.8836 N   0  0  0  0  0  0  0  0  0  0  0  0
   33.6322    2.7015    2.1130 C   0  0  0  0  0  0  0  0  0  0  0  0
   33.6286    3.8662    3.0289 C   0  0  0  0  0  0  0  0  0  0  0  0
   32.9533    5.0394    2.6866 C   0  0  0  0  0  0  0  0  0  0  0  0
   32.9318    6.1295    3.5395 C   0  0  0  0  0  0  0  0  0  0  0  0
   33.5910    6.0701    4.7708 C   0  0  0  0  0  0  0  0  0  0  0  0
   33.5479    7.1060    5.6919 N   0  0  0  0  0  0  0  0  0  0  0  0
   33.2852    8.4654    5.2399 C   0  0  0  0  0  0  0  0  0  0  0  0
   34.2650    4.8937    5.1216 C   0  0  0  0  0  0  0  0  0  0  0  0
   34.2871    3.8128    4.2605 C   0  0  0  0  0  0  0  0  0  0  0  0
   34.8688    2.2290    1.6620 C   0  0  0  0  0  0  0  0  0  0  0  0
   36.1406    2.8292    1.9583 C   0  0  0  0  0  0  0  0  0  0  0  0
   37.0893    2.0810    1.3412 C   0  0  0  0  0  0  0  0  0  0  0  0
   36.4052    1.0257    0.6512 C   0  0  0  0  0  0  0  0  0  0  0  0
   35.0601    1.1407    0.8604 N   0  0  0  0  0  0  0  0  0  0  0  0
   38.1124    0.0609   -0.1296 H   0  0  0  0  0  0  0  0  0  0  0  0
   38.1621   -2.1098   -1.5883 H   0  0  0  0  0  0  0  0  0  0  0  0
   36.2828   -3.6701   -2.7077 H   0  0  0  0  0  0  0  0  0  0  0  0
   34.6929   -2.9197   -4.6442 H   0  0  0  0  0  0  0  0  0  0  0  0
   34.6537   -4.8618   -6.1565 H   0  0  0  0  0  0  0  0  0  0  0  0
   34.2418   -7.1051   -6.4085 H   0  0  0  0  0  0  0  0  0  0  0  0
   32.3082   -8.6427   -4.8336 H   0  0  0  0  0  0  0  0  0  0  0  0
   34.0423   -8.7984   -4.4506 H   0  0  0  0  0  0  0  0  0  0  0  0
   33.4374   -9.2013   -6.0788 H   0  0  0  0  0  0  0  0  0  0  0  0
   32.4713   -7.0984   -3.2048 H   0  0  0  0  0  0  0  0  0  0  0  0
   32.5309   -5.1662   -1.7070 H   0  0  0  0  0  0  0  0  0  0  0  0
   30.9705   -3.4735   -2.9571 H   0  0  0  0  0  0  0  0  0  0  0  0
   29.0901   -1.9983   -1.7350 H   0  0  0  0  0  0  0  0  0  0  0  0
   29.1063    1.8555    1.8480 H   0  0  0  0  0  0  0  0  0  0  0  0
   30.9923    3.3651    3.0177 H   0  0  0  0  0  0  0  0  0  0  0  0
   32.4515    5.1041    1.7271 H   0  0  0  0  0  0  0  0  0  0  0  0
   32.3979    7.0233    3.2413 H   0  0  0  0  0  0  0  0  0  0  0  0
   34.3010    7.0620    6.3677 H   0  0  0  0  0  0  0  0  0  0  0  0
   33.9700    8.7637    4.4377 H   0  0  0  0  0  0  0  0  0  0  0  0
   33.4142    9.1340    6.0911 H   0  0  0  0  0  0  0  0  0  0  0  0
   32.2575    8.5486    4.8840 H   0  0  0  0  0  0  0  0  0  0  0  0
   34.7684    4.8336    6.0808 H   0  0  0  0  0  0  0  0  0  0  0  0
   34.8011    2.9035    4.5530 H   0  0  0  0  0  0  0  0  0  0  0  0
   36.2825    3.7189    2.5508 H   0  0  0  0  0  0  0  0  0  0  0  0
   38.1581    2.2275    1.3351 H   0  0  0  0  0  0  0  0  0  0  0  0
   19.8625   -0.0408    0.0692 C   0  0  0  0  0  0  0  0  0  0  0  0
   21.0870   -0.0497    0.0767 C   0  0  0  0  0  0  0  0  0  0  0  0
   22.4291   -0.0578    0.0802 C   0  0  0  0  0  0  0  0  0  0  0  0
   23.6598   -0.0637    0.0803 C   0  0  0  0  0  0  0  0  0  0  0  0
   24.9973   -0.0681    0.0765 C   0  0  0  0  0  0  0  0  0  0  0  0
   26.2280   -0.0698    0.0695 C   0  0  0  0  0  0  0  0  0  0  0  0
   27.5701   -0.0677    0.0598 C   0  0  0  0  0  0  0  0  0  0  0  0
   28.7947   -0.0634    0.0494 C   0  0  0  0  0  0  0  0  0  0  0  0
  2  3  4  0  0  0  0
  3  4  4  0  0  0  0
  4  5  2  0  0  0  0
  5  6  4  0  0  0  0
  1  7  1  0  0  0  0
  3  7  4  0  0  0  0
  6  7  4  0  0  0  0
  6  8  4  0  0  0  0
  8  9  1  0  0  0  0
  9 10  4  0  0  0  0
 10 11  4  0  0  0  0
 11 12  4  0  0  0  0
 12 13  1  0  0  0  0
 13 14  1  0  0  0  0
 12 15  4  0  0  0  0
  9 16  4  0  0  0  0
 15 16  4  0  0  0  0
  8 17  4  0  0  0  0
 17 18  4  0  0  0  0
 18 19  2  0  0  0  0
  1 20  1  0  0  0  0
 17 20  4  0  0  0  0
 19 21  4  0  0  0  0
 20 21  4  0  0  0  0
 21 22  4  0  0  0  0
 22 23  4  0  0  0  0
 23 24  4  0  0  0  0
 24 25  2  0  0  0  0
 25 26  4  0  0  0  0
  1 27  1  0  0  0  0
 23 27  4  0  0  0  0
 26 27  4  0  0  0  0
 26 28  4  0  0  0  0
 28 29  1  0  0  0  0
 29 30  4  0  0  0  0
 30 31  4  0  0  0  0
 31 32  4  0  0  0  0
 32 33  1  0  0  0  0
 33 34  1  0  0  0  0
 32 35  4  0  0  0  0
 29 36  4  0  0  0  0
 35 36  4  0  0  0  0
 28 37  4  0  0  0  0
 37 38  4  0  0  0  0
 38 39  2  0  0  0  0
  2 40  4  0  0  0  0
 39 40  4  0  0  0  0
  1 41  1  0  0  0  0
 37 41  4  0  0  0  0
 40 41  4  0  0  0  0
  2 42  1  0  0  0  0
  4 43  1  0  0  0  0
  5 44  1  0  0  0  0
 10 45  1  0  0  0  0
 11 46  1  0  0  0  0
 13 47  1  0  0  0  0
 14 48  1  0  0  0  0
 14 49  1  0  0  0  0
 14 50  1  0  0  0  0
 15 51  1  0  0  0  0
 16 52  1  0  0  0  0
 18 53  1  0  0  0  0
 19 54  1  0  0  0  0
 24 55  1  0  0  0  0
 25 56  1  0  0  0  0
 30 57  1  0  0  0  0
 31 58  1  0  0  0  0
 33 59  1  0  0  0  0
 34 60  1  0  0  0  0
 34 61  1  0  0  0  0
 34 62  1  0  0  0  0
 35 63  1  0  0  0  0
 36 64  1  0  0  0  0
 38 65  1  0  0  0  0
 39 66  1  0  0  0  0
 68 69  4  0  0  0  0
 69 70  4  0  0  0  0
 70 71  2  0  0  0  0
 71 72  4  0  0  0  0
 67 73  1  0  0  0  0
 69 73  4  0  0  0  0
 72 73  4  0  0  0  0
 72 74  4  0  0  0  0
 74 75  1  0  0  0  0
 75 76  4  0  0  0  0
 76 77  4  0  0  0  0
 77 78  4  0  0  0  0
 78 79  1  0  0  0  0
 79 80  1  0  0  0  0
 78 81  4  0  0  0  0
 75 82  4  0  0  0  0
 81 82  4  0  0  0  0
 74 83  4  0  0  0  0
 83 84  4  0  0  0  0
 84 85  2  0  0  0  0
 67 86  1  0  0  0  0
 83 86  4  0  0  0  0
 85 87  4  0  0  0  0
 86 87  4  0  0  0  0
 87 88  4  0  0  0  0
 88 89  4  0  0  0  0
 89 90  4  0  0  0  0
 90 91  2  0  0  0  0
 91 92  4  0  0  0  0
 67 93  1  0  0  0  0
 89 93  4  0  0  0  0
 92 93  4  0  0  0  0
 92 94  4  0  0  0  0
 94 95  1  0  0  0  0
 95 96  4  0  0  0  0
 96 97  4  0  0  0  0
 97 98  4  0  0  0  0
 98 99  1  0  0  0  0
 99100  1  0  0  0  0
 98101  4  0  0  0  0
 95102  4  0  0  0  0
101102  4  0  0  0  0
 94103  4  0  0  0  0
103104  4  0  0  0  0
104105  2  0  0  0  0
 68106  4  0  0  0  0
105106  4  0  0  0  0
 67107  1  0  0  0  0
103107  4  0  0  0  0
106107  4  0  0  0  0
 68108  1  0  0  0  0
 70109  1  0  0  0  0
 71110  1  0  0  0  0
 76111  1  0  0  0  0
 77112  1  0  0  0  0
 79113  1  0  0  0  0
 80114  1  0  0  0  0
 80115  1  0  0  0  0
 80116  1  0  0  0  0
 81117  1  0  0  0  0
 82118  1  0  0  0  0
 84119  1  0  0  0  0
 85120  1  0  0  0  0
 90121  1  0  0  0  0
 91122  1  0  0  0  0
 96123  1  0  0  0  0
 97124  1  0  0  0  0
 99125  1  0  0  0  0
100126  1  0  0  0  0
100127  1  0  0  0  0
100128  1  0  0  0  0
101129  1  0  0  0  0
102130  1  0  0  0  0
104131  1  0  0  0  0
105132  1  0  0  0  0
 22133  4  0  0  0  0
133134  3  0  0  0  0
134135  4  0  0  0  0
135136  3  0  0  0  0
136137  4  0  0  0  0
137138  3  0  0  0  0
138139  4  0  0  0  0
 88140  4  0  0  0  0
139140  3  0  0  0  0
M  END
