77

Fe -0.103522 0.176637 0.011461
C -3.532804 0.540530 0.163761
C -4.984884 0.820240 0.103530
C -5.510376 1.576372 -0.956521
C -6.877330 1.865483 -1.000584
C -7.723404 1.408397 0.015759
C -7.204563 0.660993 1.077793
C -5.838665 0.365809 1.123874
C -3.078924 -0.707669 -0.047891
C -3.895719 -1.869225 -0.382826
C -3.066953 -2.891335 -0.444713
C -1.716940 -2.394598 -0.145840
C -0.520169 -3.266972 -0.036686
C -0.747362 -4.730540 0.014251
C -0.321432 -5.552481 -1.042930
C -0.556178 -6.929835 -0.998961
C -1.221051 -7.493008 0.094376
C -1.654879 -6.680369 1.145415
C -1.420871 -5.302085 1.106785
C 0.739132 -2.784080 0.028898
C 1.940765 -3.600606 0.225649
C 2.990399 -2.804254 0.221767
C 2.526184 -1.428393 0.018048
N 1.100101 -1.405365 -0.089882
C 3.329451 -0.346875 -0.072193
C 4.800345 -0.512785 0.001346
C 5.494267 -1.188800 -1.016900
C 6.884650 -1.321539 -0.950588
C 7.589610 -0.775982 0.127497
C 6.905975 -0.096486 1.140785
C 5.515974 0.039854 1.076335
C 2.809590 1.033361 -0.237029
C 3.638748 2.174817 -0.643101
C 2.881396 3.252450 -0.614502
N 1.592547 1.395583 0.024774
C 1.558923 2.806848 -0.187770
C 0.487511 3.594335 0.027428
C 0.603095 5.068471 -0.100388
C 1.463839 5.792985 0.743750
C 1.551882 7.184195 0.633695
C 0.776908 7.862151 -0.311646
C -0.089060 7.149253 -1.147498
C -0.180214 5.757642 -1.041392
C -0.830073 3.016418 0.377279
C -1.805098 3.678276 0.990255
C -2.959559 2.800622 1.028707
C -2.608905 1.664123 0.437251
N -1.253038 1.707888 -0.002553
N -1.717753 -1.118074 0.082883
H -4.861724 1.939895 -1.747484
H -7.281187 2.448163 -1.819499
H -8.780544 1.635767 -0.019083
H -7.861713 0.315614 1.865524
H -5.442636 -0.204381 1.955714
H -4.963747 -1.910970 -0.553720
H -3.351742 -3.909245 -0.677117
H 0.188540 -5.126010 -1.898914
H -0.227328 -7.560807 -1.814514
H -1.402519 -8.559197 0.124954
H -2.174736 -7.118754 1.988151
H -1.764771 -4.680032 1.924074
H 1.987699 -4.671773 0.372029
H 4.010098 -3.138375 0.365423
H 4.957953 -1.608919 -1.858753
H 7.416342 -1.843243 -1.737446
H 8.665975 -0.879266 0.177235
H 7.453261 0.327263 1.973184
H 4.996850 0.573168 1.864228
H 4.682092 2.153576 -0.929089
H 3.198239 4.253656 -0.874930
H 2.061376 5.280876 1.489247
H 2.217359 7.736089 1.285867
H 0.842875 8.939924 -0.392737
H -0.690708 7.675509 -1.876799
H -0.856320 5.216955 -1.693056
H -1.762741 4.696518 1.354534
H -3.935067 3.043097 1.428506
