
  xtb     07262211213D
 xtb: 6.4.1 (bd6e46d)
 77 88  0     0  0            999 V2000
   -0.0903    0.1693    0.0161 Fe  0  0  0  0  0  0  0  0  0  0  0  0
   -3.3741    0.6220    0.0901 C   0  0  0  0  0  0  0  0  0  0  0  0
   -4.8411    0.8234    0.1243 C   0  0  0  0  0  0  0  0  0  0  0  0
   -5.4774    1.5474   -0.8789 C   0  0  0  0  0  0  0  0  0  0  0  0
   -6.8480    1.7309   -0.8488 C   0  0  0  0  0  0  0  0  0  0  0  0
   -7.5987    1.1996    0.1865 C   0  0  0  0  0  0  0  0  0  0  0  0
   -6.9725    0.4804    1.1908 C   0  0  0  0  0  0  0  0  0  0  0  0
   -5.6029    0.2900    1.1590 C   0  0  0  0  0  0  0  0  0  0  0  0
   -2.9097   -0.6784   -0.0743 C   0  0  0  0  0  0  0  0  0  0  0  0
   -3.7857   -1.7950   -0.2921 C   0  0  0  0  0  0  0  0  0  0  0  0
   -3.0128   -2.9046   -0.3117 C   0  0  0  0  0  0  0  0  0  0  0  0
   -1.6654   -2.4654   -0.1038 C   0  0  0  0  0  0  0  0  0  0  0  0
   -0.5687   -3.3089    0.0272 C   0  0  0  0  0  0  0  0  0  0  0  0
   -0.7694   -4.7689    0.0276 C   0  0  0  0  0  0  0  0  0  0  0  0
   -0.1407   -5.5691   -0.9225 C   0  0  0  0  0  0  0  0  0  0  0  0
   -0.3330   -6.9385   -0.9239 C   0  0  0  0  0  0  0  0  0  0  0  0
   -1.1502   -7.5282    0.0261 C   0  0  0  0  0  0  0  0  0  0  0  0
   -1.7768   -6.7403    0.9772 C   0  0  0  0  0  0  0  0  0  0  0  0
   -1.5908   -5.3700    0.9774 C   0  0  0  0  0  0  0  0  0  0  0  0
    0.7146   -2.7925    0.1611 C   0  0  0  0  0  0  0  0  0  0  0  0
    1.8911   -3.5779    0.3854 C   0  0  0  0  0  0  0  0  0  0  0  0
    2.9346   -2.7176    0.3778 C   0  0  0  0  0  0  0  0  0  0  0  0
    2.3950   -1.4074    0.1455 C   0  0  0  0  0  0  0  0  0  0  0  0
    1.0291   -1.4668    0.0625 N   0  0  0  0  0  0  0  0  0  0  0  0
    3.1941   -0.2824   -0.0246 C   0  0  0  0  0  0  0  0  0  0  0  0
    4.6623   -0.4778   -0.0290 C   0  0  0  0  0  0  0  0  0  0  0  0
    5.2769   -1.2118   -1.0383 C   0  0  0  0  0  0  0  0  0  0  0  0
    6.6492   -1.3853   -1.0418 C   0  0  0  0  0  0  0  0  0  0  0  0
    7.4232   -0.8341   -0.0344 C   0  0  0  0  0  0  0  0  0  0  0  0
    6.8186   -0.1052    0.9761 C   0  0  0  0  0  0  0  0  0  0  0  0
    5.4474    0.0753    0.9777 C   0  0  0  0  0  0  0  0  0  0  0  0
    2.7228    1.0152   -0.1924 C   0  0  0  0  0  0  0  0  0  0  0  0
    3.5894    2.1278   -0.4621 C   0  0  0  0  0  0  0  0  0  0  0  0
    2.8157    3.2370   -0.4712 C   0  0  0  0  0  0  0  0  0  0  0  0
    1.4260    1.4416   -0.0839 N   0  0  0  0  0  0  0  0  0  0  0  0
    1.4777    2.8017   -0.2031 C   0  0  0  0  0  0  0  0  0  0  0  0
    0.3872    3.6473   -0.0391 C   0  0  0  0  0  0  0  0  0  0  0  0
    0.5869    5.1069   -0.0732 C   0  0  0  0  0  0  0  0  0  0  0  0
    1.4514    5.7256    0.8257 C   0  0  0  0  0  0  0  0  0  0  0  0
    1.6393    7.0952    0.7883 C   0  0  0  0  0  0  0  0  0  0  0  0
    0.9710    7.8646   -0.1494 C   0  0  0  0  0  0  0  0  0  0  0  0
    0.1094    7.2575   -1.0479 C   0  0  0  0  0  0  0  0  0  0  0  0
   -0.0843    5.8889   -1.0093 C   0  0  0  0  0  0  0  0  0  0  0  0
   -0.8891    3.1326    0.1555 C   0  0  0  0  0  0  0  0  0  0  0  0
   -2.0559    3.9209    0.4172 C   0  0  0  0  0  0  0  0  0  0  0  0
   -3.0991    3.0610    0.4576 C   0  0  0  0  0  0  0  0  0  0  0  0
   -2.5687    1.7482    0.2191 C   0  0  0  0  0  0  0  0  0  0  0  0
   -1.2069    1.8060    0.0848 N   0  0  0  0  0  0  0  0  0  0  0  0
   -1.6095   -1.1037   -0.0084 N   0  0  0  0  0  0  0  0  0  0  0  0
   -4.8898    1.9587   -1.6868 H   0  0  0  0  0  0  0  0  0  0  0  0
   -7.3322    2.2906   -1.6359 H   0  0  0  0  0  0  0  0  0  0  0  0
   -8.6686    1.3452    0.2105 H   0  0  0  0  0  0  0  0  0  0  0  0
   -7.5536    0.0658    2.0016 H   0  0  0  0  0  0  0  0  0  0  0  0
   -5.1118   -0.2689    1.9424 H   0  0  0  0  0  0  0  0  0  0  0  0
   -4.8479   -1.7255   -0.4228 H   0  0  0  0  0  0  0  0  0  0  0  0
   -3.3123   -3.9231   -0.4626 H   0  0  0  0  0  0  0  0  0  0  0  0
    0.4895   -5.1070   -1.6685 H   0  0  0  0  0  0  0  0  0  0  0  0
    0.1562   -7.5485   -1.6694 H   0  0  0  0  0  0  0  0  0  0  0  0
   -1.2982   -8.5980    0.0253 H   0  0  0  0  0  0  0  0  0  0  0  0
   -2.4130   -7.1957    1.7222 H   0  0  0  0  0  0  0  0  0  0  0  0
   -2.0719   -4.7554    1.7244 H   0  0  0  0  0  0  0  0  0  0  0  0
    1.9028   -4.6391    0.5398 H   0  0  0  0  0  0  0  0  0  0  0  0
    3.9743   -2.9363    0.5234 H   0  0  0  0  0  0  0  0  0  0  0  0
    4.6714   -1.6381   -1.8250 H   0  0  0  0  0  0  0  0  0  0  0  0
    7.1167   -1.9525   -1.8336 H   0  0  0  0  0  0  0  0  0  0  0  0
    8.4944   -0.9719   -0.0369 H   0  0  0  0  0  0  0  0  0  0  0  0
    7.4178    0.3251    1.7654 H   0  0  0  0  0  0  0  0  0  0  0  0
    4.9729    0.6423    1.7655 H   0  0  0  0  0  0  0  0  0  0  0  0
    4.6457    2.0558   -0.6328 H   0  0  0  0  0  0  0  0  0  0  0  0
    3.1085    4.2526   -0.6518 H   0  0  0  0  0  0  0  0  0  0  0  0
    1.9653    5.1257    1.5627 H   0  0  0  0  0  0  0  0  0  0  0  0
    2.3098    7.5645    1.4935 H   0  0  0  0  0  0  0  0  0  0  0  0
    1.1211    8.9337   -0.1800 H   0  0  0  0  0  0  0  0  0  0  0  0
   -0.4126    7.8530   -1.7828 H   0  0  0  0  0  0  0  0  0  0  0  0
   -0.7487    5.4129   -1.7157 H   0  0  0  0  0  0  0  0  0  0  0  0
   -2.0614    4.9835    0.5615 H   0  0  0  0  0  0  0  0  0  0  0  0
   -4.1325    3.2817    0.6405 H   0  0  0  0  0  0  0  0  0  0  0  0
  2  3  1  0  0  0  0
  3  4  4  0  0  0  0
  4  5  4  0  0  0  0
  5  6  4  0  0  0  0
  6  7  4  0  0  0  0
  3  8  4  0  0  0  0
  7  8  4  0  0  0  0
  2  9  4  0  0  0  0
  9 10  4  0  0  0  0
 10 11  2  0  0  0  0
 11 12  4  0  0  0  0
 12 13  4  0  0  0  0
 13 14  1  0  0  0  0
 14 15  4  0  0  0  0
 15 16  4  0  0  0  0
 16 17  4  0  0  0  0
 17 18  4  0  0  0  0
 14 19  4  0  0  0  0
 18 19  4  0  0  0  0
 13 20  4  0  0  0  0
 20 21  4  0  0  0  0
 21 22  2  0  0  0  0
 22 23  4  0  0  0  0
  1 24  1  0  0  0  0
 20 24  4  0  0  0  0
 23 24  4  0  0  0  0
 23 25  4  0  0  0  0
 25 26  1  0  0  0  0
 26 27  4  0  0  0  0
 27 28  4  0  0  0  0
 28 29  4  0  0  0  0
 29 30  4  0  0  0  0
 26 31  4  0  0  0  0
 30 31  4  0  0  0  0
 25 32  4  0  0  0  0
 32 33  4  0  0  0  0
 33 34  2  0  0  0  0
  1 35  1  0  0  0  0
 32 35  4  0  0  0  0
 34 36  4  0  0  0  0
 35 36  4  0  0  0  0
 36 37  4  0  0  0  0
 37 38  1  0  0  0  0
 38 39  4  0  0  0  0
 39 40  4  0  0  0  0
 40 41  4  0  0  0  0
 41 42  4  0  0  0  0
 38 43  4  0  0  0  0
 42 43  4  0  0  0  0
 37 44  4  0  0  0  0
 44 45  4  0  0  0  0
 45 46  2  0  0  0  0
  2 47  4  0  0  0  0
 46 47  4  0  0  0  0
  1 48  1  0  0  0  0
 44 48  4  0  0  0  0
 47 48  4  0  0  0  0
  1 49  1  0  0  0  0
  9 49  4  0  0  0  0
 12 49  4  0  0  0  0
  4 50  1  0  0  0  0
  5 51  1  0  0  0  0
  6 52  1  0  0  0  0
  7 53  1  0  0  0  0
  8 54  1  0  0  0  0
 10 55  1  0  0  0  0
 11 56  1  0  0  0  0
 15 57  1  0  0  0  0
 16 58  1  0  0  0  0
 17 59  1  0  0  0  0
 18 60  1  0  0  0  0
 19 61  1  0  0  0  0
 21 62  1  0  0  0  0
 22 63  1  0  0  0  0
 27 64  1  0  0  0  0
 28 65  1  0  0  0  0
 29 66  1  0  0  0  0
 30 67  1  0  0  0  0
 31 68  1  0  0  0  0
 33 69  1  0  0  0  0
 34 70  1  0  0  0  0
 39 71  1  0  0  0  0
 40 72  1  0  0  0  0
 41 73  1  0  0  0  0
 42 74  1  0  0  0  0
 43 75  1  0  0  0  0
 45 76  1  0  0  0  0
 46 77  1  0  0  0  0
M  END
