207

Ni 27.683801 0.008793 -0.061099
C 24.351924 0.098633 0.082851
C 25.006598 -0.232430 1.199630
C 24.347313 -0.632900 2.436696
C 25.282041 -0.860771 3.340637
C 26.592065 -0.603064 2.726663
N 26.423766 -0.213759 1.362890
C 27.781278 -0.699765 3.357058
C 27.823358 -1.072254 4.789765
C 27.341535 -0.189147 5.768599
C 27.397900 -0.538780 7.120744
C 27.947054 -1.768681 7.509019
S 28.009549 -2.216513 9.209961
O 28.048947 -0.977987 10.061614
O 26.645811 -3.122029 9.592905
O 29.247719 -3.027949 9.471845
C 28.428619 -2.651117 6.532574
C 28.371147 -2.303444 5.179918
C 29.077256 -0.439087 2.677170
C 30.359155 -0.316283 3.382038
C 31.298950 -0.123095 2.479069
N 29.225909 -0.321046 1.393352
C 30.623775 -0.117751 1.187138
C 31.223433 -0.007502 -0.009382
C 30.464360 0.003421 -1.279512
C 30.996113 -0.243226 -2.469992
C 29.958886 -0.023438 -3.459296
C 28.863172 0.347973 -2.807152
N 29.092788 0.381513 -1.397697
C 27.591326 0.747058 -3.462757
C 27.622956 1.130984 -4.895150
C 26.930047 0.372537 -5.852552
C 26.982066 0.726243 -7.203917
C 27.728029 1.839756 -7.613253
S 27.808939 2.275894 -9.317229
O 27.967220 3.763847 -9.460431
O 29.111671 1.497509 -10.039435
O 26.539389 1.860858 -10.005727
C 28.433681 2.588204 -6.661619
C 28.382165 2.235888 -5.309956
C 26.427459 0.769962 -2.785119
C 25.126971 1.181100 -3.311479
C 24.259767 0.993001 -2.335480
C 24.998148 0.477097 -1.183947
N 26.262155 0.343004 -1.434507
H 23.268301 0.091806 0.101115
H 23.282310 -0.737772 2.599392
H 25.087135 -1.184451 4.354619
H 26.923152 0.768291 5.482903
H 27.013693 0.149769 7.862312
H 26.750080 -3.348112 10.551902
H 28.847471 -3.607899 6.817513
H 28.750544 -2.993221 4.435851
H 30.525350 -0.369803 4.449950
H 32.353174 0.002086 2.687252
H 32.019366 -0.527648 -2.675612
H 30.070325 -0.118724 -4.531646
H 26.355786 -0.495234 -5.551849
H 26.445670 0.128443 -7.929728
H 29.903750 1.794771 -9.524163
H 29.026589 3.441555 -6.965423
H 28.933058 2.823616 -4.585782
H 24.893466 1.566828 -4.295009
H 23.197961 1.194303 -2.389508
Ni 67.248584 -0.011461 0.044696
C 70.580461 0.125195 -0.055893
C 69.925787 0.230016 -1.215984
C 70.585072 0.314766 -2.513492
C 69.650343 0.436872 -3.437681
C 68.340320 0.449590 -2.771936
N 68.508619 0.307666 -1.360804
C 67.151107 0.592559 -3.393474
C 67.109027 0.775571 -4.862454
C 67.590850 1.957762 -5.445907
C 67.534485 2.132258 -6.831580
C 66.985331 1.132728 -7.646658
S 66.922836 1.344794 -9.392736
O 66.883438 2.810301 -9.726727
O 68.286574 0.644743 -10.083049
O 65.684666 0.687458 -9.935801
C 66.503765 -0.047958 -7.065178
C 66.561238 -0.224464 -5.679754
C 65.855129 0.583693 -2.665379
C 64.573230 0.958153 -3.275050
C 63.633435 0.804174 -2.364575
N 65.706476 0.219216 -1.428739
C 64.308610 0.331973 -1.162019
C 63.708952 -0.007502 -0.009382
C 64.468025 -0.466467 1.174974
C 63.936272 -1.135371 2.190181
C 64.973499 -1.296518 3.190712
C 66.069213 -0.710503 2.721857
N 65.839597 -0.158760 1.424449
C 67.341059 -0.581780 3.478505
C 67.309429 -0.754046 4.951419
C 68.002338 -1.812477 5.560998
C 67.950319 -1.982900 6.947450
C 67.204355 -1.099307 7.739113
S 67.123446 -1.323361 9.483691
O 66.965165 0.006491 10.166334
O 65.820713 -2.313451 9.867338
O 68.392996 -1.963344 9.970215
C 66.498704 -0.052299 7.131202
C 66.550220 0.119526 5.744985
C 68.504926 -0.310214 2.857242
C 69.805414 -0.122554 3.498236
C 70.672618 0.063127 2.521773
C 69.934237 0.009014 1.261116
N 68.670230 -0.208141 1.444433
H 71.664084 0.125596 -0.075388
H 71.650075 0.277400 -2.703417
H 69.845250 0.510588 -4.499516
H 68.009233 2.741982 -4.826787
H 67.918692 3.046016 -7.266402
H 68.182305 0.788846 -11.057741
H 66.084914 -0.831848 -7.683352
H 66.181841 -1.140286 -5.243063
H 64.407034 1.302844 -4.287220
H 62.579211 0.997396 -2.511803
H 62.913019 -1.475627 2.276212
H 64.862060 -1.781133 4.152045
H 68.576599 -2.507827 4.961050
H 68.486715 -2.806505 7.401147
H 65.028635 -1.846895 9.498292
H 65.905796 0.628506 7.728705
H 65.999327 0.933166 5.289090
H 70.038919 -0.127361 4.554689
H 71.734424 0.230241 2.646331
C 33.773647 0.007188 0.000894
C 35.231874 -0.014648 -0.016980
C 36.365802 -0.035402 -0.018471
C 37.727183 -0.047992 -0.020662
C 39.001402 -0.037685 -0.025427
C 40.189865 -0.018887 -0.031583
C 41.542225 0.005897 -0.015715
C 42.642493 0.007188 0.000894
C 52.165855 0.007188 0.000894
C 53.624082 -0.014648 -0.016980
C 54.758010 -0.035402 -0.018471
C 56.119392 -0.047992 -0.020662
C 57.393610 -0.037685 -0.025427
C 58.582073 -0.018887 -0.031583
C 59.934434 0.005897 -0.015715
C 61.034701 0.007188 0.000894
Ni 47.431678 -0.029429 -0.031523
C 44.050192 0.013417 0.018835
C 44.705628 1.010820 0.640981
C 44.064665 2.073595 1.418127
C 45.001510 2.895100 1.848181
C 46.299149 2.410474 1.366531
N 46.121042 1.211335 0.608413
C 47.484112 3.015497 1.596708
C 47.520698 4.287625 2.355006
C 48.100317 4.328553 3.632004
C 48.146199 5.529250 4.346129
C 47.621482 6.702517 3.787708
S 47.663286 8.210137 4.696434
O 47.710961 9.380155 3.753728
O 46.295827 8.323399 5.667145
O 48.891131 8.242048 5.562538
C 47.041462 6.663397 2.512388
C 46.995672 5.463555 1.796813
C 48.780921 2.461634 1.130693
C 50.049405 3.200445 1.177186
C 51.001260 2.395111 0.751304
N 48.948382 1.253983 0.689157
C 50.346374 1.134716 0.425163
C 50.961742 0.013417 0.018835
C 50.211361 -1.215761 -0.312578
C 50.743230 -2.430217 -0.363417
C 49.710891 -3.330779 -0.840584
C 48.620350 -2.602821 -1.052223
N 48.846447 -1.232459 -0.727853
C 47.366132 -3.122244 -1.647172
C 47.427319 -4.367429 -2.450292
C 48.199865 -4.410997 -3.620835
C 48.268684 -5.584856 -4.376748
C 47.575761 -6.731465 -3.963674
S 47.642927 -8.212077 -4.914665
O 47.856596 -9.390527 -4.005979
O 46.205244 -8.402727 -5.764784
O 48.784328 -8.145021 -5.890526
C 46.809527 -6.692009 -2.791433
C 46.738208 -5.518299 -2.035806
C 46.194309 -2.477255 -1.489777
C 44.917994 -2.858412 -2.085840
C 44.029977 -1.998410 -1.630392
C 44.728141 -1.058849 -0.745971
N 45.993263 -1.331617 -0.661929
H 43.009721 2.190346 1.626804
H 44.814977 3.768582 2.459160
H 48.511728 3.429557 4.074392
H 48.588079 5.542383 5.334328
H 45.531473 8.254045 5.040161
H 46.623563 7.559659 2.072385
H 46.550319 5.448631 0.809681
H 50.198970 4.221912 1.501981
H 52.050471 2.647616 0.673957
H 51.763988 -2.699807 -0.127283
H 49.823504 -4.390983 -1.026483
H 48.741491 -3.533066 -3.951453
H 48.860410 -5.595636 -5.282860
H 45.504806 -8.478693 -5.068547
H 46.267626 -7.569956 -2.463227
H 46.147932 -5.505044 -1.127761
H 44.713701 -3.670861 -2.770814
H 42.978947 -2.001321 -1.885795
