 xtb: 6.5.1 (b24c23e)
          07302211183D

207236  0     0  0            999 V2000
   28.9133    0.0723    0.0201 Ni  0  0  0  0  0  0  0  0  0  0  0  0
   25.5232    0.1898    0.0747 C   0  0  0  0  0  0  0  0  0  0  0  0
   26.1743   -0.2634    1.2031 C   0  0  0  0  0  0  0  0  0  0  0  0
   25.4981   -0.7193    2.3792 C   0  0  0  0  0  0  0  0  0  0  0  0
   26.4554   -0.9925    3.2960 C   0  0  0  0  0  0  0  0  0  0  0  0
   27.7156   -0.6868    2.6834 C   0  0  0  0  0  0  0  0  0  0  0  0
   27.5345   -0.2797    1.3857 N   0  0  0  0  0  0  0  0  0  0  0  0
   28.9351   -0.7414    3.3456 C   0  0  0  0  0  0  0  0  0  0  0  0
   28.9460   -1.0990    4.7840 C   0  0  0  0  0  0  0  0  0  0  0  0
   28.2935   -0.2877    5.7156 C   0  0  0  0  0  0  0  0  0  0  0  0
   28.3013   -0.6164    7.0610 C   0  0  0  0  0  0  0  0  0  0  0  0
   28.9614   -1.7672    7.4606 C   0  0  0  0  0  0  0  0  0  0  0  0
   28.9781   -2.1839    9.1635 S   0  0  0  0  0  0  0  0  0  0  0  0
   28.8601   -1.0101    9.9777 O   0  0  0  0  0  0  0  0  0  0  0  0
   27.5643   -2.9814    9.2234 O   0  0  0  0  0  0  0  0  0  0  0  0
   30.0324   -3.1116    9.4497 O   0  0  0  0  0  0  0  0  0  0  0  0
   29.6190   -2.5901    6.5610 C   0  0  0  0  0  0  0  0  0  0  0  0
   29.6106   -2.2482    5.2185 C   0  0  0  0  0  0  0  0  0  0  0  0
   30.1438   -0.4638    2.7207 C   0  0  0  0  0  0  0  0  0  0  0  0
   31.4044   -0.4366    3.3989 C   0  0  0  0  0  0  0  0  0  0  0  0
   32.3503   -0.2099    2.4562 C   0  0  0  0  0  0  0  0  0  0  0  0
   30.3136   -0.2153    1.3780 N   0  0  0  0  0  0  0  0  0  0  0  0
   31.6659   -0.0955    1.2078 C   0  0  0  0  0  0  0  0  0  0  0  0
   32.3255    0.0263   -0.0182 C   0  0  0  0  0  0  0  0  0  0  0  0
   31.6426    0.1467   -1.2317 C   0  0  0  0  0  0  0  0  0  0  0  0
   32.3011    0.2126   -2.4974 C   0  0  0  0  0  0  0  0  0  0  0  0
   31.3383    0.4275   -3.4259 C   0  0  0  0  0  0  0  0  0  0  0  0
   30.0949    0.5062   -2.7207 C   0  0  0  0  0  0  0  0  0  0  0  0
   30.2898    0.2909   -1.3754 N   0  0  0  0  0  0  0  0  0  0  0  0
   28.8821    0.8165   -3.3217 C   0  0  0  0  0  0  0  0  0  0  0  0
   28.8650    1.1340   -4.7692 C   0  0  0  0  0  0  0  0  0  0  0  0
   28.1347    0.3380   -5.6550 C   0  0  0  0  0  0  0  0  0  0  0  0
   28.1080    0.6342   -7.0079 C   0  0  0  0  0  0  0  0  0  0  0  0
   28.8158    1.7354   -7.4614 C   0  0  0  0  0  0  0  0  0  0  0  0
   28.7705    2.1274   -9.1698 S   0  0  0  0  0  0  0  0  0  0  0  0
   29.0451    3.5179   -9.3856 O   0  0  0  0  0  0  0  0  0  0  0  0
   30.0763    1.2846   -9.6418 O   0  0  0  0  0  0  0  0  0  0  0  0
   27.6112    1.5547   -9.7869 O   0  0  0  0  0  0  0  0  0  0  0  0
   29.5457    2.5458   -6.6070 C   0  0  0  0  0  0  0  0  0  0  0  0
   29.5696    2.2374   -5.2568 C   0  0  0  0  0  0  0  0  0  0  0  0
   27.6827    0.8515   -2.6219 C   0  0  0  0  0  0  0  0  0  0  0  0
   26.4273    1.2330   -3.2009 C   0  0  0  0  0  0  0  0  0  0  0  0
   25.4863    1.0611   -2.2437 C   0  0  0  0  0  0  0  0  0  0  0  0
   26.1677    0.5825   -1.0796 C   0  0  0  0  0  0  0  0  0  0  0  0
   27.5183    0.4916   -1.3084 N   0  0  0  0  0  0  0  0  0  0  0  0
   24.4406    0.2322    0.0935 H   0  0  0  0  0  0  0  0  0  0  0  0
   24.4279   -0.8133    2.4710 H   0  0  0  0  0  0  0  0  0  0  0  0
   26.3328   -1.3687    4.2986 H   0  0  0  0  0  0  0  0  0  0  0  0
   27.7920    0.6136    5.3828 H   0  0  0  0  0  0  0  0  0  0  0  0
   27.8089    0.0108    7.7935 H   0  0  0  0  0  0  0  0  0  0  0  0
   27.3750   -3.2581   10.1283 H   0  0  0  0  0  0  0  0  0  0  0  0
   30.1297   -3.4792    6.9090 H   0  0  0  0  0  0  0  0  0  0  0  0
   30.1115   -2.8824    4.4965 H   0  0  0  0  0  0  0  0  0  0  0  0
   31.5373   -0.5678    4.4603 H   0  0  0  0  0  0  0  0  0  0  0  0
   33.4182   -0.1289    2.5788 H   0  0  0  0  0  0  0  0  0  0  0  0
   33.3641    0.1053   -2.6407 H   0  0  0  0  0  0  0  0  0  0  0  0
   31.4498    0.5224   -4.4937 H   0  0  0  0  0  0  0  0  0  0  0  0
   27.5948   -0.5237   -5.2802 H   0  0  0  0  0  0  0  0  0  0  0  0
   27.5439    0.0254   -7.7033 H   0  0  0  0  0  0  0  0  0  0  0  0
   30.3041    1.5052  -10.5531 H   0  0  0  0  0  0  0  0  0  0  0  0
   30.0774    3.4059   -6.9941 H   0  0  0  0  0  0  0  0  0  0  0  0
   30.1238    2.8656   -4.5692 H   0  0  0  0  0  0  0  0  0  0  0  0
   26.2971    1.5902   -4.2095 H   0  0  0  0  0  0  0  0  0  0  0  0
   24.4237    1.2344   -2.3016 H   0  0  0  0  0  0  0  0  0  0  0  0
   66.0533    0.0569   -0.0044 Ni  0  0  0  0  0  0  0  0  0  0  0  0
   69.4444    0.1816   -0.0184 C   0  0  0  0  0  0  0  0  0  0  0  0
   68.7907    0.1843   -1.2329 C   0  0  0  0  0  0  0  0  0  0  0  0
   69.4647    0.2030   -2.4953 C   0  0  0  0  0  0  0  0  0  0  0  0
   68.5058    0.2944   -3.4459 C   0  0  0  0  0  0  0  0  0  0  0  0
   67.2467    0.3464   -2.7611 C   0  0  0  0  0  0  0  0  0  0  0  0
   67.4300    0.2379   -1.4058 N   0  0  0  0  0  0  0  0  0  0  0  0
   66.0256    0.5371   -3.3946 C   0  0  0  0  0  0  0  0  0  0  0  0
   66.0140    0.7439   -4.8623 C   0  0  0  0  0  0  0  0  0  0  0  0
   66.6582    1.8506   -5.4210 C   0  0  0  0  0  0  0  0  0  0  0  0
   66.6515    2.0497   -6.7916 C   0  0  0  0  0  0  0  0  0  0  0  0
   66.0010    1.1265   -7.5943 C   0  0  0  0  0  0  0  0  0  0  0  0
   65.9872    1.3768   -9.3296 S   0  0  0  0  0  0  0  0  0  0  0  0
   66.1040    2.7702   -9.6448 O   0  0  0  0  0  0  0  0  0  0  0  0
   67.4021    0.6600   -9.6803 O   0  0  0  0  0  0  0  0  0  0  0  0
   64.9357    0.6221   -9.9451 O   0  0  0  0  0  0  0  0  0  0  0  0
   65.3515    0.0211   -7.0697 C   0  0  0  0  0  0  0  0  0  0  0  0
   65.3587   -0.1645   -5.6969 C   0  0  0  0  0  0  0  0  0  0  0  0
   64.8171    0.5525   -2.7109 C   0  0  0  0  0  0  0  0  0  0  0  0
   63.5540    0.8172   -3.3310 C   0  0  0  0  0  0  0  0  0  0  0  0
   62.6095    0.6711   -2.3712 C   0  0  0  0  0  0  0  0  0  0  0  0
   64.6499    0.2854   -1.3714 N   0  0  0  0  0  0  0  0  0  0  0  0
   63.2974    0.3236   -1.1685 C   0  0  0  0  0  0  0  0  0  0  0  0
   62.6405   -0.0111    0.0187 C   0  0  0  0  0  0  0  0  0  0  0  0
   63.3257   -0.3343    1.1930 C   0  0  0  0  0  0  0  0  0  0  0  0
   62.6692   -0.7313    2.3977 C   0  0  0  0  0  0  0  0  0  0  0  0
   63.6334   -0.8673    3.3394 C   0  0  0  0  0  0  0  0  0  0  0  0
   64.8759   -0.5393    2.7082 C   0  0  0  0  0  0  0  0  0  0  0  0
   64.6788   -0.2513    1.3770 N   0  0  0  0  0  0  0  0  0  0  0  0
   66.0905   -0.4741    3.3782 C   0  0  0  0  0  0  0  0  0  0  0  0
   66.1107   -0.7090    4.8415 C   0  0  0  0  0  0  0  0  0  0  0  0
   66.8370   -1.7782    5.3714 C   0  0  0  0  0  0  0  0  0  0  0  0
   66.8680   -1.9982    6.7386 C   0  0  0  0  0  0  0  0  0  0  0  0
   66.1683   -1.1356    7.5666 C   0  0  0  0  0  0  0  0  0  0  0  0
   66.2199   -1.3963    9.2998 S   0  0  0  0  0  0  0  0  0  0  0  0
   65.9574   -0.1793   10.0109 O   0  0  0  0  0  0  0  0  0  0  0  0
   64.9078   -2.3437    9.4373 O   0  0  0  0  0  0  0  0  0  0  0  0
   67.3756   -2.1632    9.6587 O   0  0  0  0  0  0  0  0  0  0  0  0
   65.4421   -0.0648    7.0711 C   0  0  0  0  0  0  0  0  0  0  0  0
   65.4139    0.1429    5.7019 C   0  0  0  0  0  0  0  0  0  0  0  0
   67.2897   -0.1908    2.7371 C   0  0  0  0  0  0  0  0  0  0  0  0
   68.5474   -0.0553    3.4129 C   0  0  0  0  0  0  0  0  0  0  0  0
   69.4871    0.1321    2.4574 C   0  0  0  0  0  0  0  0  0  0  0  0
   68.8025    0.1194    1.2005 C   0  0  0  0  0  0  0  0  0  0  0  0
   67.4516   -0.0435    1.3828 N   0  0  0  0  0  0  0  0  0  0  0  0
   70.5271    0.2251   -0.0225 H   0  0  0  0  0  0  0  0  0  0  0  0
   70.5347    0.1504   -2.6174 H   0  0  0  0  0  0  0  0  0  0  0  0
   68.6265    0.3223   -4.5166 H   0  0  0  0  0  0  0  0  0  0  0  0
   67.1526    2.5656   -4.7738 H   0  0  0  0  0  0  0  0  0  0  0  0
   67.1377    2.9096   -7.2349 H   0  0  0  0  0  0  0  0  0  0  0  0
   67.5800    0.7173  -10.6269 H   0  0  0  0  0  0  0  0  0  0  0  0
   64.8482   -0.6772   -7.7264 H   0  0  0  0  0  0  0  0  0  0  0  0
   64.8644   -1.0274   -5.2660 H   0  0  0  0  0  0  0  0  0  0  0  0
   63.4186    1.0859   -4.3658 H   0  0  0  0  0  0  0  0  0  0  0  0
   61.5406    0.7822   -2.4550 H   0  0  0  0  0  0  0  0  0  0  0  0
   61.6063   -0.8832    2.4942 H   0  0  0  0  0  0  0  0  0  0  0  0
   63.5238   -1.1657    4.3692 H   0  0  0  0  0  0  0  0  0  0  0  0
   67.3707   -2.4457    4.7050 H   0  0  0  0  0  0  0  0  0  0  0  0
   67.4293   -2.8223    7.1606 H   0  0  0  0  0  0  0  0  0  0  0  0
   64.6795   -2.4643   10.3670 H   0  0  0  0  0  0  0  0  0  0  0  0
   64.9167    0.5967    7.7485 H   0  0  0  0  0  0  0  0  0  0  0  0
   64.8627    0.9822    5.2942 H   0  0  0  0  0  0  0  0  0  0  0  0
   68.6800   -0.0947    4.4818 H   0  0  0  0  0  0  0  0  0  0  0  0
   70.5507    0.2668    2.5724 H   0  0  0  0  0  0  0  0  0  0  0  0
   33.7306    0.0175   -0.0318 C   0  0  0  0  0  0  0  0  0  0  0  0
   34.9545    0.0115   -0.0403 C   0  0  0  0  0  0  0  0  0  0  0  0
   36.2979    0.0062   -0.0466 C   0  0  0  0  0  0  0  0  0  0  0  0
   37.5281   -0.0015   -0.0492 C   0  0  0  0  0  0  0  0  0  0  0  0
   38.8666   -0.0096   -0.0494 C   0  0  0  0  0  0  0  0  0  0  0  0
   40.0969   -0.0162   -0.0481 C   0  0  0  0  0  0  0  0  0  0  0  0
   41.4401   -0.0227   -0.0458 C   0  0  0  0  0  0  0  0  0  0  0  0
   42.6642   -0.0273   -0.0426 C   0  0  0  0  0  0  0  0  0  0  0  0
   52.3008   -0.0636    0.0122 C   0  0  0  0  0  0  0  0  0  0  0  0
   53.5249   -0.0660    0.0214 C   0  0  0  0  0  0  0  0  0  0  0  0
   54.8684   -0.0659    0.0293 C   0  0  0  0  0  0  0  0  0  0  0  0
   56.0986   -0.0628    0.0355 C   0  0  0  0  0  0  0  0  0  0  0  0
   57.4374   -0.0577    0.0395 C   0  0  0  0  0  0  0  0  0  0  0  0
   58.6675   -0.0517    0.0406 C   0  0  0  0  0  0  0  0  0  0  0  0
   60.0113   -0.0398    0.0360 C   0  0  0  0  0  0  0  0  0  0  0  0
   61.2351   -0.0286    0.0293 C   0  0  0  0  0  0  0  0  0  0  0  0
   47.4825   -0.0408   -0.0248 Ni  0  0  0  0  0  0  0  0  0  0  0  0
   44.0685   -0.0313   -0.0378 C   0  0  0  0  0  0  0  0  0  0  0  0
   44.7425    0.9198    0.7342 C   0  0  0  0  0  0  0  0  0  0  0  0
   44.0770    1.8805    1.5548 C   0  0  0  0  0  0  0  0  0  0  0  0
   45.0324    2.7188    2.0247 C   0  0  0  0  0  0  0  0  0  0  0  0
   46.2782    2.2704    1.4811 C   0  0  0  0  0  0  0  0  0  0  0  0
   46.0934    1.1342    0.7275 N   0  0  0  0  0  0  0  0  0  0  0  0
   47.4835    2.9423    1.6399 C   0  0  0  0  0  0  0  0  0  0  0  0
   47.4784    4.2422    2.3511 C   0  0  0  0  0  0  0  0  0  0  0  0
   48.2114    4.4072    3.5287 C   0  0  0  0  0  0  0  0  0  0  0  0
   48.2047    5.6211    4.1963 C   0  0  0  0  0  0  0  0  0  0  0  0
   47.4621    6.6654    3.6700 C   0  0  0  0  0  0  0  0  0  0  0  0
   47.4594    8.2099    4.5003 S   0  0  0  0  0  0  0  0  0  0  0  0
   47.2055    9.2847    3.5859 O   0  0  0  0  0  0  0  0  0  0  0  0
   46.1203    7.9974    5.3945 O   0  0  0  0  0  0  0  0  0  0  0  0
   48.5861    8.3096    5.3792 O   0  0  0  0  0  0  0  0  0  0  0  0
   46.7307    6.5341    2.5005 C   0  0  0  0  0  0  0  0  0  0  0  0
   46.7393    5.3144    1.8446 C   0  0  0  0  0  0  0  0  0  0  0  0
   48.6897    2.4503    1.1584 C   0  0  0  0  0  0  0  0  0  0  0  0
   49.9377    3.1433    1.2619 C   0  0  0  0  0  0  0  0  0  0  0  0
   50.8928    2.2978    0.8044 C   0  0  0  0  0  0  0  0  0  0  0  0
   48.8732    1.2105    0.5902 N   0  0  0  0  0  0  0  0  0  0  0  0
   50.2247    1.0981    0.4123 C   0  0  0  0  0  0  0  0  0  0  0  0
   50.8962   -0.0572    0.0008 C   0  0  0  0  0  0  0  0  0  0  0  0
   50.2199   -1.2046   -0.4245 C   0  0  0  0  0  0  0  0  0  0  0  0
   50.8824   -2.4083   -0.8140 C   0  0  0  0  0  0  0  0  0  0  0  0
   49.9268   -3.2405   -1.2941 C   0  0  0  0  0  0  0  0  0  0  0  0
   48.6839   -2.5364   -1.2047 C   0  0  0  0  0  0  0  0  0  0  0  0
   48.8703   -1.3025   -0.6248 N   0  0  0  0  0  0  0  0  0  0  0  0
   47.4800   -3.0151   -1.7050 C   0  0  0  0  0  0  0  0  0  0  0  0
   47.4746   -4.3085   -2.4281 C   0  0  0  0  0  0  0  0  0  0  0  0
   48.2190   -4.4663   -3.5995 C   0  0  0  0  0  0  0  0  0  0  0  0
   48.2114   -5.6732   -4.2796 C   0  0  0  0  0  0  0  0  0  0  0  0
   47.4562   -6.7178   -3.7721 C   0  0  0  0  0  0  0  0  0  0  0  0
   47.4511   -8.2526   -4.6202 S   0  0  0  0  0  0  0  0  0  0  0  0
   47.1383   -9.3314   -3.7291 O   0  0  0  0  0  0  0  0  0  0  0  0
   46.1531   -7.9991   -5.5630 O   0  0  0  0  0  0  0  0  0  0  0  0
   48.6081   -8.3683   -5.4568 O   0  0  0  0  0  0  0  0  0  0  0  0
   46.7139   -6.5938   -2.6088 C   0  0  0  0  0  0  0  0  0  0  0  0
   46.7240   -5.3811   -1.9400 C   0  0  0  0  0  0  0  0  0  0  0  0
   46.2774   -2.3371   -1.5526 C   0  0  0  0  0  0  0  0  0  0  0  0
   45.0332   -2.7761   -2.1075 C   0  0  0  0  0  0  0  0  0  0  0  0
   44.0784   -1.9371   -1.6375 C   0  0  0  0  0  0  0  0  0  0  0  0
   44.7429   -0.9842   -0.8072 C   0  0  0  0  0  0  0  0  0  0  0  0
   46.0927   -1.2049   -0.7929 N   0  0  0  0  0  0  0  0  0  0  0  0
   43.0145    1.9006    1.7352 H   0  0  0  0  0  0  0  0  0  0  0  0
   44.9143    3.5639    2.6830 H   0  0  0  0  0  0  0  0  0  0  0  0
   48.7776    3.5743    3.9288 H   0  0  0  0  0  0  0  0  0  0  0  0
   48.7684    5.7604    5.1102 H   0  0  0  0  0  0  0  0  0  0  0  0
   45.8464    8.8347    5.7883 H   0  0  0  0  0  0  0  0  0  0  0  0
   46.1713    7.3753    2.1108 H   0  0  0  0  0  0  0  0  0  0  0  0
   46.1826    5.1928    0.9228 H   0  0  0  0  0  0  0  0  0  0  0  0
   50.0579    4.1471    1.6351 H   0  0  0  0  0  0  0  0  0  0  0  0
   51.9566    2.4571    0.7345 H   0  0  0  0  0  0  0  0  0  0  0  0
   51.9434   -2.5784   -0.7282 H   0  0  0  0  0  0  0  0  0  0  0  0
   50.0431   -4.2425   -1.6733 H   0  0  0  0  0  0  0  0  0  0  0  0
   48.7950   -3.6331   -3.9848 H   0  0  0  0  0  0  0  0  0  0  0  0
   48.7839   -5.8069   -5.1889 H   0  0  0  0  0  0  0  0  0  0  0  0
   45.8812   -8.8236   -5.9842 H   0  0  0  0  0  0  0  0  0  0  0  0
   46.1450   -7.4353   -2.2336 H   0  0  0  0  0  0  0  0  0  0  0  0
   46.1589   -5.2656   -1.0225 H   0  0  0  0  0  0  0  0  0  0  0  0
   44.9155   -3.6162   -2.7722 H   0  0  0  0  0  0  0  0  0  0  0  0
   43.0169   -1.9515   -1.8245 H   0  0  0  0  0  0  0  0  0  0  0  0
  2  3  4  0  0  0  0
  3  4  4  0  0  0  0
  4  5  2  0  0  0  0
  5  6  4  0  0  0  0
  1  7  1  0  0  0  0
  3  7  4  0  0  0  0
  6  7  4  0  0  0  0
  6  8  4  0  0  0  0
  8  9  1  0  0  0  0
  9 10  4  0  0  0  0
 10 11  4  0  0  0  0
 11 12  4  0  0  0  0
 12 13  1  0  0  0  0
 13 14  2  0  0  0  0
 13 15  1  0  0  0  0
 13 16  2  0  0  0  0
 12 17  4  0  0  0  0
  9 18  4  0  0  0  0
 17 18  4  0  0  0  0
  8 19  4  0  0  0  0
 19 20  4  0  0  0  0
 20 21  2  0  0  0  0
  1 22  1  0  0  0  0
 19 22  4  0  0  0  0
 21 23  4  0  0  0  0
 22 23  4  0  0  0  0
 23 24  4  0  0  0  0
 24 25  4  0  0  0  0
 25 26  4  0  0  0  0
 26 27  2  0  0  0  0
 27 28  4  0  0  0  0
  1 29  1  0  0  0  0
 25 29  4  0  0  0  0
 28 29  4  0  0  0  0
 28 30  4  0  0  0  0
 30 31  1  0  0  0  0
 31 32  4  0  0  0  0
 32 33  4  0  0  0  0
 33 34  4  0  0  0  0
 34 35  1  0  0  0  0
 35 36  2  0  0  0  0
 35 37  1  0  0  0  0
 35 38  2  0  0  0  0
 34 39  4  0  0  0  0
 31 40  4  0  0  0  0
 39 40  4  0  0  0  0
 30 41  4  0  0  0  0
 41 42  4  0  0  0  0
 42 43  2  0  0  0  0
  2 44  4  0  0  0  0
 43 44  4  0  0  0  0
  1 45  1  0  0  0  0
 41 45  4  0  0  0  0
 44 45  4  0  0  0  0
  2 46  1  0  0  0  0
  4 47  1  0  0  0  0
  5 48  1  0  0  0  0
 10 49  1  0  0  0  0
 11 50  1  0  0  0  0
 15 51  1  0  0  0  0
 17 52  1  0  0  0  0
 18 53  1  0  0  0  0
 20 54  1  0  0  0  0
 21 55  1  0  0  0  0
 26 56  1  0  0  0  0
 27 57  1  0  0  0  0
 32 58  1  0  0  0  0
 33 59  1  0  0  0  0
 37 60  1  0  0  0  0
 39 61  1  0  0  0  0
 40 62  1  0  0  0  0
 42 63  1  0  0  0  0
 43 64  1  0  0  0  0
 66 67  4  0  0  0  0
 67 68  4  0  0  0  0
 68 69  2  0  0  0  0
 69 70  4  0  0  0  0
 65 71  1  0  0  0  0
 67 71  4  0  0  0  0
 70 71  4  0  0  0  0
 70 72  4  0  0  0  0
 72 73  1  0  0  0  0
 73 74  4  0  0  0  0
 74 75  4  0  0  0  0
 75 76  4  0  0  0  0
 76 77  1  0  0  0  0
 77 78  2  0  0  0  0
 77 79  1  0  0  0  0
 77 80  2  0  0  0  0
 76 81  4  0  0  0  0
 73 82  4  0  0  0  0
 81 82  4  0  0  0  0
 72 83  4  0  0  0  0
 83 84  4  0  0  0  0
 84 85  2  0  0  0  0
 65 86  1  0  0  0  0
 83 86  4  0  0  0  0
 85 87  4  0  0  0  0
 86 87  4  0  0  0  0
 87 88  4  0  0  0  0
 88 89  4  0  0  0  0
 89 90  4  0  0  0  0
 90 91  2  0  0  0  0
 91 92  4  0  0  0  0
 65 93  1  0  0  0  0
 89 93  4  0  0  0  0
 92 93  4  0  0  0  0
 92 94  4  0  0  0  0
 94 95  1  0  0  0  0
 95 96  4  0  0  0  0
 96 97  4  0  0  0  0
 97 98  4  0  0  0  0
 98 99  1  0  0  0  0
 99100  2  0  0  0  0
 99101  1  0  0  0  0
 99102  2  0  0  0  0
 98103  4  0  0  0  0
 95104  4  0  0  0  0
103104  4  0  0  0  0
 94105  4  0  0  0  0
105106  4  0  0  0  0
106107  2  0  0  0  0
 66108  4  0  0  0  0
107108  4  0  0  0  0
 65109  1  0  0  0  0
105109  4  0  0  0  0
108109  4  0  0  0  0
 66110  1  0  0  0  0
 68111  1  0  0  0  0
 69112  1  0  0  0  0
 74113  1  0  0  0  0
 75114  1  0  0  0  0
 79115  1  0  0  0  0
 81116  1  0  0  0  0
 82117  1  0  0  0  0
 84118  1  0  0  0  0
 85119  1  0  0  0  0
 90120  1  0  0  0  0
 91121  1  0  0  0  0
 96122  1  0  0  0  0
 97123  1  0  0  0  0
101124  1  0  0  0  0
103125  1  0  0  0  0
104126  1  0  0  0  0
106127  1  0  0  0  0
107128  1  0  0  0  0
 24129  4  0  0  0  0
129130  3  0  0  0  0
130131  4  0  0  0  0
131132  3  0  0  0  0
132133  4  0  0  0  0
133134  3  0  0  0  0
134135  4  0  0  0  0
135136  3  0  0  0  0
137138  3  0  0  0  0
138139  4  0  0  0  0
139140  3  0  0  0  0
140141  4  0  0  0  0
141142  3  0  0  0  0
142143  4  0  0  0  0
 88144  4  0  0  0  0
143144  3  0  0  0  0
136146  4  0  0  0  0
146147  4  0  0  0  0
147148  4  0  0  0  0
148149  2  0  0  0  0
149150  4  0  0  0  0
145151  1  0  0  0  0
147151  4  0  0  0  0
150151  4  0  0  0  0
150152  4  0  0  0  0
152153  1  0  0  0  0
153154  4  0  0  0  0
154155  4  0  0  0  0
155156  4  0  0  0  0
156157  1  0  0  0  0
157158  2  0  0  0  0
157159  1  0  0  0  0
157160  2  0  0  0  0
156161  4  0  0  0  0
153162  4  0  0  0  0
161162  4  0  0  0  0
152163  4  0  0  0  0
163164  4  0  0  0  0
164165  2  0  0  0  0
145166  1  0  0  0  0
163166  4  0  0  0  0
165167  4  0  0  0  0
166167  4  0  0  0  0
137168  4  0  0  0  0
167168  4  0  0  0  0
168169  4  0  0  0  0
169170  4  0  0  0  0
170171  2  0  0  0  0
171172  4  0  0  0  0
145173  1  0  0  0  0
169173  4  0  0  0  0
172173  4  0  0  0  0
172174  4  0  0  0  0
174175  1  0  0  0  0
175176  4  0  0  0  0
176177  4  0  0  0  0
177178  4  0  0  0  0
178179  1  0  0  0  0
179180  2  0  0  0  0
179181  1  0  0  0  0
179182  2  0  0  0  0
178183  4  0  0  0  0
175184  4  0  0  0  0
183184  4  0  0  0  0
174185  4  0  0  0  0
185186  4  0  0  0  0
186187  2  0  0  0  0
146188  4  0  0  0  0
187188  4  0  0  0  0
145189  1  0  0  0  0
185189  4  0  0  0  0
188189  4  0  0  0  0
148190  1  0  0  0  0
149191  1  0  0  0  0
154192  1  0  0  0  0
155193  1  0  0  0  0
159194  1  0  0  0  0
161195  1  0  0  0  0
162196  1  0  0  0  0
164197  1  0  0  0  0
165198  1  0  0  0  0
170199  1  0  0  0  0
171200  1  0  0  0  0
176201  1  0  0  0  0
177202  1  0  0  0  0
181203  1  0  0  0  0
183204  1  0  0  0  0
184205  1  0  0  0  0
186206  1  0  0  0  0
187207  1  0  0  0  0
M  END
