 xtb: 6.5.1 (b24c23e)
          07302214113D

278317  0     0  0            999 V2000
   43.2983    0.0456    0.0082 Cu  0  0  0  0  0  0  0  0  0  0  0  0
   39.8922    0.1091    0.0583 C   0  0  0  0  0  0  0  0  0  0  0  0
   40.5282   -0.2007    1.2508 C   0  0  0  0  0  0  0  0  0  0  0  0
   39.8542   -0.5283    2.4749 C   0  0  0  0  0  0  0  0  0  0  0  0
   40.8136   -0.7697    3.4017 C   0  0  0  0  0  0  0  0  0  0  0  0
   42.0837   -0.5800    2.7540 C   0  0  0  0  0  0  0  0  0  0  0  0
   41.8793   -0.2425    1.4475 N   0  0  0  0  0  0  0  0  0  0  0  0
   43.3298   -0.7410    3.3638 C   0  0  0  0  0  0  0  0  0  0  0  0
   43.3442   -1.0879    4.8065 C   0  0  0  0  0  0  0  0  0  0  0  0
   42.8148   -0.2039    5.7498 C   0  0  0  0  0  0  0  0  0  0  0  0
   42.8279   -0.5231    7.0977 C   0  0  0  0  0  0  0  0  0  0  0  0
   43.3693   -1.7372    7.4882 C   0  0  0  0  0  0  0  0  0  0  0  0
   43.3949   -2.1446    9.1930 S   0  0  0  0  0  0  0  0  0  0  0  0
   43.3545   -0.9614   10.0011 O   0  0  0  0  0  0  0  0  0  0  0  0
   41.9434   -2.8689    9.2831 O   0  0  0  0  0  0  0  0  0  0  0  0
   44.4028   -3.1260    9.4675 O   0  0  0  0  0  0  0  0  0  0  0  0
   43.9027   -2.6339    6.5768 C   0  0  0  0  0  0  0  0  0  0  0  0
   43.8895   -2.3017    5.2321 C   0  0  0  0  0  0  0  0  0  0  0  0
   44.5634   -0.6024    2.7243 C   0  0  0  0  0  0  0  0  0  0  0  0
   45.8410   -0.7057    3.3714 C   0  0  0  0  0  0  0  0  0  0  0  0
   46.7861   -0.4945    2.4210 C   0  0  0  0  0  0  0  0  0  0  0  0
   44.7501   -0.3200    1.3975 N   0  0  0  0  0  0  0  0  0  0  0  0
   46.0939   -0.2550    1.1902 C   0  0  0  0  0  0  0  0  0  0  0  0
   46.7285   -0.0023   -0.0384 C   0  0  0  0  0  0  0  0  0  0  0  0
   46.0683    0.2616   -1.2510 C   0  0  0  0  0  0  0  0  0  0  0  0
   46.7331    0.4724   -2.5019 C   0  0  0  0  0  0  0  0  0  0  0  0
   45.7685    0.7009   -3.4286 C   0  0  0  0  0  0  0  0  0  0  0  0
   44.5067    0.6403   -2.7462 C   0  0  0  0  0  0  0  0  0  0  0  0
   44.7216    0.3624   -1.4227 N   0  0  0  0  0  0  0  0  0  0  0  0
   43.2604    0.8148   -3.3515 C   0  0  0  0  0  0  0  0  0  0  0  0
   43.2437    1.1461   -4.7977 C   0  0  0  0  0  0  0  0  0  0  0  0
   42.6451    0.2760   -5.7123 C   0  0  0  0  0  0  0  0  0  0  0  0
   42.6242    0.5808   -7.0633 C   0  0  0  0  0  0  0  0  0  0  0  0
   43.2056    1.7649   -7.4868 C   0  0  0  0  0  0  0  0  0  0  0  0
   43.1684    2.1627   -9.1940 S   0  0  0  0  0  0  0  0  0  0  0  0
   43.3371    3.5720   -9.3993 O   0  0  0  0  0  0  0  0  0  0  0  0
   44.5486    1.4329   -9.6428 O   0  0  0  0  0  0  0  0  0  0  0  0
   42.0721    1.5022   -9.8372 O   0  0  0  0  0  0  0  0  0  0  0  0
   43.8023    2.6501   -6.6038 C   0  0  0  0  0  0  0  0  0  0  0  0
   43.8207    2.3332   -5.2555 C   0  0  0  0  0  0  0  0  0  0  0  0
   42.0278    0.7045   -2.7039 C   0  0  0  0  0  0  0  0  0  0  0  0
   40.7472    0.9412   -3.3144 C   0  0  0  0  0  0  0  0  0  0  0  0
   39.8073    0.7423   -2.3579 C   0  0  0  0  0  0  0  0  0  0  0  0
   40.5044    0.3928   -1.1530 C   0  0  0  0  0  0  0  0  0  0  0  0
   41.8496    0.3810   -1.3900 N   0  0  0  0  0  0  0  0  0  0  0  0
   38.8075    0.1305    0.0743 H   0  0  0  0  0  0  0  0  0  0  0  0
   38.7831   -0.5735    2.5929 H   0  0  0  0  0  0  0  0  0  0  0  0
   40.6808   -1.0616    4.4310 H   0  0  0  0  0  0  0  0  0  0  0  0
   42.4063    0.7455    5.4239 H   0  0  0  0  0  0  0  0  0  0  0  0
   42.4311    0.1595    7.8386 H   0  0  0  0  0  0  0  0  0  0  0  0
   41.7751   -3.1679   10.1850 H   0  0  0  0  0  0  0  0  0  0  0  0
   44.3228   -3.5718    6.9177 H   0  0  0  0  0  0  0  0  0  0  0  0
   44.2932   -2.9927    4.5013 H   0  0  0  0  0  0  0  0  0  0  0  0
   45.9913   -0.9000    4.4210 H   0  0  0  0  0  0  0  0  0  0  0  0
   47.8582   -0.4930    2.5347 H   0  0  0  0  0  0  0  0  0  0  0  0
   47.8013    0.4394   -2.6443 H   0  0  0  0  0  0  0  0  0  0  0  0
   45.8957    0.8812   -4.4838 H   0  0  0  0  0  0  0  0  0  0  0  0
   42.2052   -0.6502   -5.3612 H   0  0  0  0  0  0  0  0  0  0  0  0
   42.1618   -0.0856   -7.7806 H   0  0  0  0  0  0  0  0  0  0  0  0
   44.8199    1.7419  -10.5157 H   0  0  0  0  0  0  0  0  0  0  0  0
   44.2365    3.5728   -6.9678 H   0  0  0  0  0  0  0  0  0  0  0  0
   44.2710    3.0179   -4.5462 H   0  0  0  0  0  0  0  0  0  0  0  0
   40.5948    1.2344   -4.3406 H   0  0  0  0  0  0  0  0  0  0  0  0
   38.7358    0.8296   -2.4441 H   0  0  0  0  0  0  0  0  0  0  0  0
   99.1426    0.0386   -0.0114 Cu  0  0  0  0  0  0  0  0  0  0  0  0
  102.5485    0.1314   -0.0341 C   0  0  0  0  0  0  0  0  0  0  0  0
  101.9116    0.2822   -1.2563 C   0  0  0  0  0  0  0  0  0  0  0  0
  102.5850    0.4351   -2.5143 C   0  0  0  0  0  0  0  0  0  0  0  0
  101.6251    0.5488   -3.4649 C   0  0  0  0  0  0  0  0  0  0  0  0
  100.3554    0.4777   -2.7934 C   0  0  0  0  0  0  0  0  0  0  0  0
  100.5602    0.3088   -1.4545 N   0  0  0  0  0  0  0  0  0  0  0  0
   99.1094    0.5452   -3.4203 C   0  0  0  0  0  0  0  0  0  0  0  0
   99.0949    0.7590   -4.8888 C   0  0  0  0  0  0  0  0  0  0  0  0
   99.6149    1.9352   -5.4344 C   0  0  0  0  0  0  0  0  0  0  0  0
   99.6022    2.1406   -6.8042 C   0  0  0  0  0  0  0  0  0  0  0  0
   99.0708    1.1544   -7.6194 C   0  0  0  0  0  0  0  0  0  0  0  0
   99.0472    1.4101   -9.3535 S   0  0  0  0  0  0  0  0  0  0  0  0
   99.0824    2.8092   -9.6626 O   0  0  0  0  0  0  0  0  0  0  0  0
  100.5014    0.7759   -9.7035 O   0  0  0  0  0  0  0  0  0  0  0  0
   98.0441    0.5972   -9.9760 O   0  0  0  0  0  0  0  0  0  0  0  0
   98.5466   -0.0217   -7.1080 C   0  0  0  0  0  0  0  0  0  0  0  0
   98.5591   -0.2137   -5.7363 C   0  0  0  0  0  0  0  0  0  0  0  0
   97.8766    0.4283   -2.7756 C   0  0  0  0  0  0  0  0  0  0  0  0
   96.5985    0.5606   -3.4160 C   0  0  0  0  0  0  0  0  0  0  0  0
   95.6540    0.4009   -2.4551 C   0  0  0  0  0  0  0  0  0  0  0  0
   97.6910    0.2013   -1.4378 N   0  0  0  0  0  0  0  0  0  0  0  0
   96.3470    0.1768   -1.2220 C   0  0  0  0  0  0  0  0  0  0  0  0
   95.7127   -0.0381    0.0138 C   0  0  0  0  0  0  0  0  0  0  0  0
   96.3739   -0.2312    1.2390 C   0  0  0  0  0  0  0  0  0  0  0  0
   95.7099   -0.4947    2.4802 C   0  0  0  0  0  0  0  0  0  0  0  0
   96.6749   -0.6207    3.4258 C   0  0  0  0  0  0  0  0  0  0  0  0
   97.9361   -0.4247    2.7684 C   0  0  0  0  0  0  0  0  0  0  0  0
   97.7207   -0.1975    1.4352 N   0  0  0  0  0  0  0  0  0  0  0  0
   99.1824   -0.4839    3.3952 C   0  0  0  0  0  0  0  0  0  0  0  0
   99.2007   -0.7108    4.8615 C   0  0  0  0  0  0  0  0  0  0  0  0
   99.8007   -1.8572    5.3884 C   0  0  0  0  0  0  0  0  0  0  0  0
   99.8243   -2.0734    6.7563 C   0  0  0  0  0  0  0  0  0  0  0  0
   99.2442   -1.1300    7.5887 C   0  0  0  0  0  0  0  0  0  0  0  0
   99.2865   -1.3907    9.3221 S   0  0  0  0  0  0  0  0  0  0  0  0
   99.1234   -0.1564   10.0338 O   0  0  0  0  0  0  0  0  0  0  0  0
   97.9047   -2.2307    9.4754 O   0  0  0  0  0  0  0  0  0  0  0  0
  100.3822   -2.2447    9.6715 O   0  0  0  0  0  0  0  0  0  0  0  0
   98.6457    0.0185    7.0966 C   0  0  0  0  0  0  0  0  0  0  0  0
   98.6246    0.2226    5.7267 C   0  0  0  0  0  0  0  0  0  0  0  0
  100.4143   -0.3450    2.7520 C   0  0  0  0  0  0  0  0  0  0  0  0
  101.6949   -0.3469    3.4066 C   0  0  0  0  0  0  0  0  0  0  0  0
  102.6341   -0.1748    2.4444 C   0  0  0  0  0  0  0  0  0  0  0  0
  101.9367   -0.0562    1.1958 C   0  0  0  0  0  0  0  0  0  0  0  0
  100.5916   -0.1595    1.4113 N   0  0  0  0  0  0  0  0  0  0  0  0
  103.6330    0.1620   -0.0409 H   0  0  0  0  0  0  0  0  0  0  0  0
  103.6561    0.4427   -2.6404 H   0  0  0  0  0  0  0  0  0  0  0  0
  101.7574    0.6598   -4.5291 H   0  0  0  0  0  0  0  0  0  0  0  0
  100.0159    2.6985   -4.7778 H   0  0  0  0  0  0  0  0  0  0  0  0
   99.9920    3.0532   -7.2372 H   0  0  0  0  0  0  0  0  0  0  0  0
  100.6611    0.8118  -10.6544 H   0  0  0  0  0  0  0  0  0  0  0  0
   98.1340   -0.7688   -7.7743 H   0  0  0  0  0  0  0  0  0  0  0  0
   98.1627   -1.1306   -5.3159 H   0  0  0  0  0  0  0  0  0  0  0  0
   96.4474    0.7643   -4.4637 H   0  0  0  0  0  0  0  0  0  0  0  0
   94.5816    0.4364   -2.5608 H   0  0  0  0  0  0  0  0  0  0  0  0
   94.6418   -0.5793    2.6008 H   0  0  0  0  0  0  0  0  0  0  0  0
   96.5485   -0.8401    4.4736 H   0  0  0  0  0  0  0  0  0  0  0  0
  100.2397   -2.5876    4.7189 H   0  0  0  0  0  0  0  0  0  0  0  0
  100.2880   -2.9575    7.1755 H   0  0  0  0  0  0  0  0  0  0  0  0
   97.6305   -2.2544   10.4002 H   0  0  0  0  0  0  0  0  0  0  0  0
   98.2126    0.7411    7.7768 H   0  0  0  0  0  0  0  0  0  0  0  0
   98.1731    1.1207    5.3217 H   0  0  0  0  0  0  0  0  0  0  0  0
  101.8475   -0.4535    4.4685 H   0  0  0  0  0  0  0  0  0  0  0  0
  103.7055   -0.1219    2.5566 H   0  0  0  0  0  0  0  0  0  0  0  0
   48.1348   -0.0142   -0.0546 C   0  0  0  0  0  0  0  0  0  0  0  0
   49.3589   -0.0204   -0.0628 C   0  0  0  0  0  0  0  0  0  0  0  0
   50.7023   -0.0251   -0.0684 C   0  0  0  0  0  0  0  0  0  0  0  0
   51.9326   -0.0277   -0.0685 C   0  0  0  0  0  0  0  0  0  0  0  0
   53.2711   -0.0294   -0.0668 C   0  0  0  0  0  0  0  0  0  0  0  0
   54.5015   -0.0292   -0.0640 C   0  0  0  0  0  0  0  0  0  0  0  0
   55.8447   -0.0277   -0.0605 C   0  0  0  0  0  0  0  0  0  0  0  0
   57.0690   -0.0279   -0.0560 C   0  0  0  0  0  0  0  0  0  0  0  0
   66.7539   -0.0283   -0.0286 C   0  0  0  0  0  0  0  0  0  0  0  0
   67.9786   -0.0287   -0.0257 C   0  0  0  0  0  0  0  0  0  0  0  0
   69.3211   -0.0292   -0.0229 C   0  0  0  0  0  0  0  0  0  0  0  0
   70.5519   -0.0288   -0.0199 C   0  0  0  0  0  0  0  0  0  0  0  0
   71.8896   -0.0286   -0.0174 C   0  0  0  0  0  0  0  0  0  0  0  0
   73.1204   -0.0297   -0.0169 C   0  0  0  0  0  0  0  0  0  0  0  0
   74.4629   -0.0305   -0.0165 C   0  0  0  0  0  0  0  0  0  0  0  0
   75.6876   -0.0318   -0.0169 C   0  0  0  0  0  0  0  0  0  0  0  0
   85.3724   -0.0695    0.0106 C   0  0  0  0  0  0  0  0  0  0  0  0
   86.5967   -0.0761    0.0176 C   0  0  0  0  0  0  0  0  0  0  0  0
   87.9398   -0.0815    0.0239 C   0  0  0  0  0  0  0  0  0  0  0  0
   89.1702   -0.0847    0.0267 C   0  0  0  0  0  0  0  0  0  0  0  0
   90.5087   -0.0835    0.0304 C   0  0  0  0  0  0  0  0  0  0  0  0
   91.7390   -0.0803    0.0311 C   0  0  0  0  0  0  0  0  0  0  0  0
   93.0824   -0.0712    0.0291 C   0  0  0  0  0  0  0  0  0  0  0  0
   94.3065   -0.0599    0.0242 C   0  0  0  0  0  0  0  0  0  0  0  0
   61.9120   -0.0282   -0.0422 Cu  0  0  0  0  0  0  0  0  0  0  0  0
   58.4747   -0.0280   -0.0513 C   0  0  0  0  0  0  0  0  0  0  0  0
   59.1215    1.0440    0.5890 C   0  0  0  0  0  0  0  0  0  0  0  0
   58.4423    2.1058    1.2689 C   0  0  0  0  0  0  0  0  0  0  0  0
   59.3972    2.9463    1.7418 C   0  0  0  0  0  0  0  0  0  0  0  0
   60.6666    2.4057    1.3449 C   0  0  0  0  0  0  0  0  0  0  0  0
   60.4661    1.2424    0.6519 N   0  0  0  0  0  0  0  0  0  0  0  0
   61.9074    2.9737    1.6423 C   0  0  0  0  0  0  0  0  0  0  0  0
   61.9018    4.2701    2.3647 C   0  0  0  0  0  0  0  0  0  0  0  0
   62.4683    4.3722    3.6374 C   0  0  0  0  0  0  0  0  0  0  0  0
   62.4572    5.5791    4.3174 C   0  0  0  0  0  0  0  0  0  0  0  0
   61.8774    6.6801    3.7084 C   0  0  0  0  0  0  0  0  0  0  0  0
   61.8663    8.2131    4.5598 S   0  0  0  0  0  0  0  0  0  0  0  0
   61.7548    9.3113    3.6441 O   0  0  0  0  0  0  0  0  0  0  0  0
   60.4359    8.0612    5.3147 O   0  0  0  0  0  0  0  0  0  0  0  0
   62.9045    8.2440    5.5459 O   0  0  0  0  0  0  0  0  0  0  0  0
   61.3150    6.6122    2.4440 C   0  0  0  0  0  0  0  0  0  0  0  0
   61.3277    5.3994    1.7753 C   0  0  0  0  0  0  0  0  0  0  0  0
   63.1498    2.4263    1.3163 C   0  0  0  0  0  0  0  0  0  0  0  0
   64.4176    3.0487    1.5736 C   0  0  0  0  0  0  0  0  0  0  0  0
   65.3747    2.2088    1.1042 C   0  0  0  0  0  0  0  0  0  0  0  0
   63.3537    1.2286    0.6847 N   0  0  0  0  0  0  0  0  0  0  0  0
   64.6986    1.0741    0.5504 C   0  0  0  0  0  0  0  0  0  0  0  0
   65.3490   -0.0287   -0.0326 C   0  0  0  0  0  0  0  0  0  0  0  0
   64.7016   -1.1312   -0.6196 C   0  0  0  0  0  0  0  0  0  0  0  0
   65.3804   -2.2658   -1.1702 C   0  0  0  0  0  0  0  0  0  0  0  0
   64.4256   -3.1049   -1.6458 C   0  0  0  0  0  0  0  0  0  0  0  0
   63.1566   -2.4823   -1.3952 C   0  0  0  0  0  0  0  0  0  0  0  0
   63.3574   -1.2852   -0.7616 N   0  0  0  0  0  0  0  0  0  0  0  0
   61.9159   -3.0290   -1.7288 C   0  0  0  0  0  0  0  0  0  0  0  0
   61.9141   -4.3234   -2.4547 C   0  0  0  0  0  0  0  0  0  0  0  0
   62.4864   -4.4207   -3.7252 C   0  0  0  0  0  0  0  0  0  0  0  0
   62.4778   -5.6249   -4.4101 C   0  0  0  0  0  0  0  0  0  0  0  0
   61.8947   -6.7279   -3.8081 C   0  0  0  0  0  0  0  0  0  0  0  0
   61.8851   -8.2567   -4.6667 S   0  0  0  0  0  0  0  0  0  0  0  0
   61.7605   -9.3588   -3.7576 O   0  0  0  0  0  0  0  0  0  0  0  0
   60.4626   -8.0933   -5.4344 O   0  0  0  0  0  0  0  0  0  0  0  0
   62.9319   -8.2882   -5.6439 O   0  0  0  0  0  0  0  0  0  0  0  0
   61.3271   -6.6649   -2.5457 C   0  0  0  0  0  0  0  0  0  0  0  0
   61.3373   -5.4547   -1.8722 C   0  0  0  0  0  0  0  0  0  0  0  0
   60.6736   -2.4613   -1.4373 C   0  0  0  0  0  0  0  0  0  0  0  0
   59.4063   -3.0015   -1.8411 C   0  0  0  0  0  0  0  0  0  0  0  0
   58.4491   -2.1612   -1.3725 C   0  0  0  0  0  0  0  0  0  0  0  0
   59.1248   -1.0999   -0.6884 C   0  0  0  0  0  0  0  0  0  0  0  0
   60.4697   -1.2985   -0.7444 N   0  0  0  0  0  0  0  0  0  0  0  0
   57.3721    2.1853    1.3729 H   0  0  0  0  0  0  0  0  0  0  0  0
   59.2580    3.8453    2.3200 H   0  0  0  0  0  0  0  0  0  0  0  0
   62.9068    3.4960    4.1004 H   0  0  0  0  0  0  0  0  0  0  0  0
   62.8926    5.6695    5.3046 H   0  0  0  0  0  0  0  0  0  0  0  0
   60.1300    8.9230    5.6228 H   0  0  0  0  0  0  0  0  0  0  0  0
   60.8818    7.4958    1.9924 H   0  0  0  0  0  0  0  0  0  0  0  0
   60.9027    5.3266    0.7810 H   0  0  0  0  0  0  0  0  0  0  0  0
   64.5540    4.0106    2.0405 H   0  0  0  0  0  0  0  0  0  0  0  0
   66.4447    2.3408    1.1199 H   0  0  0  0  0  0  0  0  0  0  0  0
   66.4503   -2.3982   -1.1799 H   0  0  0  0  0  0  0  0  0  0  0  0
   64.5642   -4.0666   -2.1125 H   0  0  0  0  0  0  0  0  0  0  0  0
   62.9274   -3.5428   -4.1828 H   0  0  0  0  0  0  0  0  0  0  0  0
   62.9174   -5.7116   -5.3957 H   0  0  0  0  0  0  0  0  0  0  0  0
   60.1653   -8.9486   -5.7680 H   0  0  0  0  0  0  0  0  0  0  0  0
   60.8915   -7.5502   -2.0996 H   0  0  0  0  0  0  0  0  0  0  0  0
   60.9079   -5.3857   -0.8795 H   0  0  0  0  0  0  0  0  0  0  0  0
   59.2700   -3.9001   -2.4205 H   0  0  0  0  0  0  0  0  0  0  0  0
   57.3794   -2.2406   -1.4819 H   0  0  0  0  0  0  0  0  0  0  0  0
   80.5299   -0.0458   -0.0113 Cu  0  0  0  0  0  0  0  0  0  0  0  0
   77.0925   -0.0357   -0.0144 C   0  0  0  0  0  0  0  0  0  0  0  0
   77.7441    1.0380    0.6190 C   0  0  0  0  0  0  0  0  0  0  0  0
   77.0691    2.1063    1.2928 C   0  0  0  0  0  0  0  0  0  0  0  0
   78.0273    2.9451    1.7622 C   0  0  0  0  0  0  0  0  0  0  0  0
   79.2945    2.3963    1.3705 C   0  0  0  0  0  0  0  0  0  0  0  0
   79.0894    1.2306    0.6820 N   0  0  0  0  0  0  0  0  0  0  0  0
   80.5372    2.9577    1.6704 C   0  0  0  0  0  0  0  0  0  0  0  0
   80.5414    4.2559    2.3897 C   0  0  0  0  0  0  0  0  0  0  0  0
   81.1074    4.3546    3.6630 C   0  0  0  0  0  0  0  0  0  0  0  0
   81.1193    5.5656    4.3355 C   0  0  0  0  0  0  0  0  0  0  0  0
   80.5623    6.6741    3.7188 C   0  0  0  0  0  0  0  0  0  0  0  0
   80.5935    8.2149    4.5555 S   0  0  0  0  0  0  0  0  0  0  0  0
   80.5154    9.3066    3.6287 O   0  0  0  0  0  0  0  0  0  0  0  0
   79.1591    8.1131    5.3105 O   0  0  0  0  0  0  0  0  0  0  0  0
   81.6318    8.2250    5.5419 O   0  0  0  0  0  0  0  0  0  0  0  0
   79.9965    6.6083    2.4558 C   0  0  0  0  0  0  0  0  0  0  0  0
   79.9858    5.3912    1.7946 C   0  0  0  0  0  0  0  0  0  0  0  0
   81.7773    2.4021    1.3491 C   0  0  0  0  0  0  0  0  0  0  0  0
   83.0478    3.0171    1.6107 C   0  0  0  0  0  0  0  0  0  0  0  0
   84.0017    2.1714    1.1451 C   0  0  0  0  0  0  0  0  0  0  0  0
   81.9761    1.2031    0.7185 N   0  0  0  0  0  0  0  0  0  0  0  0
   83.3208    1.0413    0.5882 C   0  0  0  0  0  0  0  0  0  0  0  0
   83.9667   -0.0621    0.0028 C   0  0  0  0  0  0  0  0  0  0  0  0
   83.3153   -1.1576   -0.5913 C   0  0  0  0  0  0  0  0  0  0  0  0
   83.9899   -2.2916   -1.1479 C   0  0  0  0  0  0  0  0  0  0  0  0
   83.0320   -3.1245   -1.6279 C   0  0  0  0  0  0  0  0  0  0  0  0
   81.7653   -2.4987   -1.3735 C   0  0  0  0  0  0  0  0  0  0  0  0
   81.9702   -1.3055   -0.7342 N   0  0  0  0  0  0  0  0  0  0  0  0
   80.5227   -3.0417   -1.7066 C   0  0  0  0  0  0  0  0  0  0  0  0
   80.5213   -4.3328   -2.4387 C   0  0  0  0  0  0  0  0  0  0  0  0
   81.0944   -4.4218   -3.7096 C   0  0  0  0  0  0  0  0  0  0  0  0
   81.1002   -5.6251   -4.3958 C   0  0  0  0  0  0  0  0  0  0  0  0
   80.5300   -6.7357   -3.7952 C   0  0  0  0  0  0  0  0  0  0  0  0
   80.5517   -8.2664   -4.6503 S   0  0  0  0  0  0  0  0  0  0  0  0
   80.4395   -9.3678   -3.7388 O   0  0  0  0  0  0  0  0  0  0  0  0
   79.1335   -8.1298   -5.4299 O   0  0  0  0  0  0  0  0  0  0  0  0
   81.6072   -8.2823   -5.6185 O   0  0  0  0  0  0  0  0  0  0  0  0
   79.9577   -6.6797   -2.5347 C   0  0  0  0  0  0  0  0  0  0  0  0
   79.9534   -5.4702   -1.8596 C   0  0  0  0  0  0  0  0  0  0  0  0
   79.2827   -2.4742   -1.4070 C   0  0  0  0  0  0  0  0  0  0  0  0
   78.0130   -3.0133   -1.8037 C   0  0  0  0  0  0  0  0  0  0  0  0
   77.0590   -2.1724   -1.3297 C   0  0  0  0  0  0  0  0  0  0  0  0
   77.7391   -1.1115   -0.6495 C   0  0  0  0  0  0  0  0  0  0  0  0
   79.0834   -1.3114   -0.7118 N   0  0  0  0  0  0  0  0  0  0  0  0
   75.9992    2.1913    1.3949 H   0  0  0  0  0  0  0  0  0  0  0  0
   77.8921    3.8481    2.3351 H   0  0  0  0  0  0  0  0  0  0  0  0
   81.5300    3.4732    4.1310 H   0  0  0  0  0  0  0  0  0  0  0  0
   81.5571    5.6539    5.3218 H   0  0  0  0  0  0  0  0  0  0  0  0
   78.8779    8.9868    5.6085 H   0  0  0  0  0  0  0  0  0  0  0  0
   79.5805    7.4973    1.9986 H   0  0  0  0  0  0  0  0  0  0  0  0
   79.5595    5.3205    0.8007 H   0  0  0  0  0  0  0  0  0  0  0  0
   83.1885    3.9783    2.0777 H   0  0  0  0  0  0  0  0  0  0  0  0
   85.0723    2.2972    1.1644 H   0  0  0  0  0  0  0  0  0  0  0  0
   85.0593   -2.4280   -1.1582 H   0  0  0  0  0  0  0  0  0  0  0  0
   83.1672   -4.0841   -2.0998 H   0  0  0  0  0  0  0  0  0  0  0  0
   81.5271   -3.5387   -4.1649 H   0  0  0  0  0  0  0  0  0  0  0  0
   81.5431   -5.7059   -5.3805 H   0  0  0  0  0  0  0  0  0  0  0  0
   78.8551   -8.9900   -5.7672 H   0  0  0  0  0  0  0  0  0  0  0  0
   79.5315   -7.5703   -2.0902 H   0  0  0  0  0  0  0  0  0  0  0  0
   79.5223   -5.4074   -0.8672 H   0  0  0  0  0  0  0  0  0  0  0  0
   77.8732   -3.9120   -2.3823 H   0  0  0  0  0  0  0  0  0  0  0  0
   75.9887   -2.2511   -1.4331 H   0  0  0  0  0  0  0  0  0  0  0  0
  2  3  4  0  0  0  0
  3  4  1  0  0  0  0
  4  5  2  0  0  0  0
  5  6  4  0  0  0  0
  1  7  1  0  0  0  0
  3  7  4  0  0  0  0
  6  7  4  0  0  0  0
  6  8  4  0  0  0  0
  8  9  1  0  0  0  0
  9 10  4  0  0  0  0
 10 11  4  0  0  0  0
 11 12  4  0  0  0  0
 12 13  1  0  0  0  0
 13 14  2  0  0  0  0
 13 15  1  0  0  0  0
 13 16  2  0  0  0  0
 12 17  4  0  0  0  0
  9 18  4  0  0  0  0
 17 18  4  0  0  0  0
  8 19  4  0  0  0  0
 19 20  4  0  0  0  0
 20 21  2  0  0  0  0
  1 22  1  0  0  0  0
 19 22  4  0  0  0  0
 21 23  4  0  0  0  0
 22 23  4  0  0  0  0
 23 24  4  0  0  0  0
 24 25  4  0  0  0  0
 25 26  4  0  0  0  0
 26 27  2  0  0  0  0
 27 28  4  0  0  0  0
  1 29  1  0  0  0  0
 25 29  4  0  0  0  0
 28 29  4  0  0  0  0
 28 30  4  0  0  0  0
 30 31  1  0  0  0  0
 31 32  4  0  0  0  0
 32 33  4  0  0  0  0
 33 34  4  0  0  0  0
 34 35  1  0  0  0  0
 35 36  2  0  0  0  0
 35 37  1  0  0  0  0
 35 38  2  0  0  0  0
 34 39  4  0  0  0  0
 31 40  4  0  0  0  0
 39 40  4  0  0  0  0
 30 41  4  0  0  0  0
 41 42  4  0  0  0  0
 42 43  2  0  0  0  0
  2 44  4  0  0  0  0
 43 44  1  0  0  0  0
  1 45  1  0  0  0  0
 41 45  4  0  0  0  0
 44 45  4  0  0  0  0
  2 46  1  0  0  0  0
  4 47  1  0  0  0  0
  5 48  1  0  0  0  0
 10 49  1  0  0  0  0
 11 50  1  0  0  0  0
 15 51  1  0  0  0  0
 17 52  1  0  0  0  0
 18 53  1  0  0  0  0
 20 54  1  0  0  0  0
 21 55  1  0  0  0  0
 26 56  1  0  0  0  0
 27 57  1  0  0  0  0
 32 58  1  0  0  0  0
 33 59  1  0  0  0  0
 37 60  1  0  0  0  0
 39 61  1  0  0  0  0
 40 62  1  0  0  0  0
 42 63  1  0  0  0  0
 43 64  1  0  0  0  0
 66 67  4  0  0  0  0
 67 68  1  0  0  0  0
 68 69  2  0  0  0  0
 69 70  4  0  0  0  0
 65 71  1  0  0  0  0
 67 71  4  0  0  0  0
 70 71  4  0  0  0  0
 70 72  4  0  0  0  0
 72 73  1  0  0  0  0
 73 74  4  0  0  0  0
 74 75  4  0  0  0  0
 75 76  4  0  0  0  0
 76 77  1  0  0  0  0
 77 78  2  0  0  0  0
 77 79  1  0  0  0  0
 77 80  2  0  0  0  0
 76 81  4  0  0  0  0
 73 82  4  0  0  0  0
 81 82  4  0  0  0  0
 72 83  4  0  0  0  0
 83 84  4  0  0  0  0
 84 85  2  0  0  0  0
 65 86  1  0  0  0  0
 83 86  4  0  0  0  0
 85 87  4  0  0  0  0
 86 87  4  0  0  0  0
 87 88  4  0  0  0  0
 88 89  4  0  0  0  0
 89 90  4  0  0  0  0
 90 91  2  0  0  0  0
 91 92  4  0  0  0  0
 65 93  1  0  0  0  0
 89 93  4  0  0  0  0
 92 93  4  0  0  0  0
 92 94  4  0  0  0  0
 94 95  1  0  0  0  0
 95 96  4  0  0  0  0
 96 97  4  0  0  0  0
 97 98  4  0  0  0  0
 98 99  1  0  0  0  0
 99100  2  0  0  0  0
 99101  1  0  0  0  0
 99102  2  0  0  0  0
 98103  4  0  0  0  0
 95104  4  0  0  0  0
103104  4  0  0  0  0
 94105  4  0  0  0  0
105106  4  0  0  0  0
106107  2  0  0  0  0
 66108  4  0  0  0  0
107108  1  0  0  0  0
 65109  1  0  0  0  0
105109  4  0  0  0  0
108109  4  0  0  0  0
 66110  1  0  0  0  0
 68111  1  0  0  0  0
 69112  1  0  0  0  0
 74113  1  0  0  0  0
 75114  1  0  0  0  0
 79115  1  0  0  0  0
 81116  1  0  0  0  0
 82117  1  0  0  0  0
 84118  1  0  0  0  0
 85119  1  0  0  0  0
 90120  1  0  0  0  0
 91121  1  0  0  0  0
 96122  1  0  0  0  0
 97123  1  0  0  0  0
101124  1  0  0  0  0
103125  1  0  0  0  0
104126  1  0  0  0  0
106127  1  0  0  0  0
107128  1  0  0  0  0
 24129  4  0  0  0  0
129130  3  0  0  0  0
130131  4  0  0  0  0
131132  3  0  0  0  0
132133  4  0  0  0  0
133134  3  0  0  0  0
134135  4  0  0  0  0
135136  3  0  0  0  0
137138  3  0  0  0  0
138139  4  0  0  0  0
139140  3  0  0  0  0
140141  4  0  0  0  0
141142  3  0  0  0  0
142143  4  0  0  0  0
143144  3  0  0  0  0
145146  3  0  0  0  0
146147  4  0  0  0  0
147148  3  0  0  0  0
148149  4  0  0  0  0
149150  3  0  0  0  0
150151  4  0  0  0  0
 88152  4  0  0  0  0
151152  3  0  0  0  0
136154  4  0  0  0  0
154155  4  0  0  0  0
155156  4  0  0  0  0
156157  2  0  0  0  0
157158  4  0  0  0  0
153159  1  0  0  0  0
155159  4  0  0  0  0
158159  4  0  0  0  0
158160  4  0  0  0  0
160161  1  0  0  0  0
161162  4  0  0  0  0
162163  4  0  0  0  0
163164  4  0  0  0  0
164165  1  0  0  0  0
165166  2  0  0  0  0
165167  1  0  0  0  0
165168  2  0  0  0  0
164169  4  0  0  0  0
161170  4  0  0  0  0
169170  4  0  0  0  0
160171  4  0  0  0  0
171172  4  0  0  0  0
172173  2  0  0  0  0
153174  1  0  0  0  0
171174  4  0  0  0  0
173175  4  0  0  0  0
174175  4  0  0  0  0
137176  4  0  0  0  0
175176  4  0  0  0  0
176177  4  0  0  0  0
177178  4  0  0  0  0
178179  2  0  0  0  0
179180  4  0  0  0  0
153181  1  0  0  0  0
177181  4  0  0  0  0
180181  4  0  0  0  0
180182  4  0  0  0  0
182183  1  0  0  0  0
183184  4  0  0  0  0
184185  4  0  0  0  0
185186  4  0  0  0  0
186187  1  0  0  0  0
187188  2  0  0  0  0
187189  1  0  0  0  0
187190  2  0  0  0  0
186191  4  0  0  0  0
183192  4  0  0  0  0
191192  4  0  0  0  0
182193  4  0  0  0  0
193194  4  0  0  0  0
194195  2  0  0  0  0
154196  4  0  0  0  0
195196  4  0  0  0  0
153197  1  0  0  0  0
193197  4  0  0  0  0
196197  4  0  0  0  0
156198  1  0  0  0  0
157199  1  0  0  0  0
162200  1  0  0  0  0
163201  1  0  0  0  0
167202  1  0  0  0  0
169203  1  0  0  0  0
170204  1  0  0  0  0
172205  1  0  0  0  0
173206  1  0  0  0  0
178207  1  0  0  0  0
179208  1  0  0  0  0
184209  1  0  0  0  0
185210  1  0  0  0  0
189211  1  0  0  0  0
191212  1  0  0  0  0
192213  1  0  0  0  0
194214  1  0  0  0  0
195215  1  0  0  0  0
144217  4  0  0  0  0
217218  4  0  0  0  0
218219  4  0  0  0  0
219220  2  0  0  0  0
220221  4  0  0  0  0
216222  1  0  0  0  0
218222  4  0  0  0  0
221222  4  0  0  0  0
221223  4  0  0  0  0
223224  1  0  0  0  0
224225  4  0  0  0  0
225226  4  0  0  0  0
226227  4  0  0  0  0
227228  1  0  0  0  0
228229  2  0  0  0  0
228230  1  0  0  0  0
228231  2  0  0  0  0
227232  4  0  0  0  0
224233  4  0  0  0  0
232233  4  0  0  0  0
223234  4  0  0  0  0
234235  4  0  0  0  0
235236  2  0  0  0  0
216237  1  0  0  0  0
234237  4  0  0  0  0
236238  4  0  0  0  0
237238  4  0  0  0  0
145239  4  0  0  0  0
238239  4  0  0  0  0
239240  4  0  0  0  0
240241  4  0  0  0  0
241242  2  0  0  0  0
242243  4  0  0  0  0
216244  1  0  0  0  0
240244  4  0  0  0  0
243244  4  0  0  0  0
243245  4  0  0  0  0
245246  1  0  0  0  0
246247  4  0  0  0  0
247248  4  0  0  0  0
248249  4  0  0  0  0
249250  1  0  0  0  0
250251  2  0  0  0  0
250252  1  0  0  0  0
250253  2  0  0  0  0
249254  4  0  0  0  0
246255  4  0  0  0  0
254255  4  0  0  0  0
245256  4  0  0  0  0
256257  4  0  0  0  0
257258  2  0  0  0  0
217259  4  0  0  0  0
258259  4  0  0  0  0
216260  1  0  0  0  0
256260  4  0  0  0  0
259260  4  0  0  0  0
219261  1  0  0  0  0
220262  1  0  0  0  0
225263  1  0  0  0  0
226264  1  0  0  0  0
230265  1  0  0  0  0
232266  1  0  0  0  0
233267  1  0  0  0  0
235268  1  0  0  0  0
236269  1  0  0  0  0
241270  1  0  0  0  0
242271  1  0  0  0  0
247272  1  0  0  0  0
248273  1  0  0  0  0
252274  1  0  0  0  0
254275  1  0  0  0  0
255276  1  0  0  0  0
257277  1  0  0  0  0
258278  1  0  0  0  0
M  END
