195

Fe 35.763415 0.007786 -0.063194
C 32.431538 0.097627 0.080756
C 33.086212 -0.233437 1.197535
C 32.426927 -0.633907 2.434601
C 33.361656 -0.861778 3.338542
C 34.671679 -0.604071 2.724568
N 34.503380 -0.214766 1.360795
C 35.860893 -0.700772 3.354963
C 35.902973 -1.073260 4.787670
C 35.421149 -0.190154 5.766504
C 35.477514 -0.539787 7.118649
C 36.026669 -1.769688 7.506924
S 36.089163 -2.217520 9.207866
O 36.128561 -0.978993 10.059518
O 34.725425 -3.123036 9.590809
O 37.327333 -3.028955 9.469749
C 36.508234 -2.652124 6.530478
C 36.450761 -2.304451 5.177823
C 37.156871 -0.440093 2.675075
C 38.438769 -0.317290 3.379943
C 39.378564 -0.124101 2.476974
N 37.305523 -0.322052 1.391257
C 38.703389 -0.118758 1.185043
C 39.303048 -0.008509 -0.011477
C 38.543974 0.002414 -1.281607
C 39.075727 -0.244232 -2.472087
C 38.038501 -0.024444 -3.461392
C 36.942787 0.346966 -2.809247
N 37.172402 0.380506 -1.399793
C 35.670940 0.746051 -3.464852
C 35.702571 1.129978 -4.897245
C 35.009661 0.371531 -5.854647
C 35.061680 0.725236 -7.206012
C 35.807644 1.838749 -7.615348
S 35.888553 2.274887 -9.319325
O 36.046834 3.762840 -9.462527
O 37.191286 1.496502 -10.041530
O 34.619004 1.859851 -10.007822
C 36.513295 2.587198 -6.663715
C 36.461779 2.234882 -5.312051
C 34.507073 0.768955 -2.787215
C 33.206586 1.180093 -3.313575
C 32.339381 0.991994 -2.337575
C 33.077762 0.476091 -1.186042
N 34.341769 0.341997 -1.436602
H 31.347916 0.090800 0.099020
H 31.361924 -0.738778 2.597296
H 33.166749 -1.185458 4.352524
H 35.002766 0.767284 5.480808
H 35.093307 0.148762 7.860217
H 34.829695 -3.349119 10.549807
H 36.927086 -3.608906 6.815418
H 36.830158 -2.994228 4.433756
H 38.604965 -0.370809 4.447855
H 40.432788 0.001080 2.685157
H 40.098981 -0.528655 -2.677707
H 38.149940 -0.119730 -4.533742
H 34.435401 -0.496240 -5.553944
H 34.525284 0.127436 -7.931823
H 37.983364 1.793765 -9.526258
H 37.106203 3.440549 -6.967518
H 37.012672 2.822609 -4.587877
H 32.973080 1.565822 -4.297105
H 31.277575 1.193297 -2.391603
Fe 59.151236 -0.012467 0.042601
C 62.483113 0.124188 -0.057988
C 61.828439 0.229010 -1.218079
C 62.487725 0.313759 -2.515587
C 61.552996 0.435866 -3.439776
C 60.242972 0.448583 -2.774032
N 60.411271 0.306659 -1.362900
C 59.053759 0.591552 -3.395569
C 59.011679 0.774564 -4.864550
C 59.493502 1.956755 -5.448002
C 59.437137 2.131252 -6.833675
C 58.887983 1.131721 -7.648754
S 58.825488 1.343787 -9.394831
O 58.786090 2.809294 -9.728822
O 60.189226 0.643736 -10.085144
O 57.587318 0.686452 -9.937896
C 58.406418 -0.048965 -7.067273
C 58.463890 -0.225471 -5.681849
C 57.757781 0.582686 -2.667474
C 56.475882 0.957146 -3.277146
C 55.536087 0.803168 -2.366670
N 57.609128 0.218210 -1.430834
C 56.211262 0.330966 -1.164115
C 55.611604 -0.008509 -0.011477
C 56.370677 -0.467473 1.172879
C 55.838924 -1.136377 2.188085
C 56.876151 -1.297524 3.188616
C 57.971865 -0.711509 2.719761
N 57.742250 -0.159767 1.422354
C 59.243711 -0.582786 3.476410
C 59.212081 -0.755053 4.949324
C 59.904990 -1.813484 5.558902
C 59.852971 -1.983907 6.945355
C 59.107008 -1.100313 7.737018
S 59.026098 -1.324368 9.481595
O 58.867817 0.005485 10.164239
O 57.723366 -2.314458 9.865243
O 60.295648 -1.964351 9.968120
C 58.401356 -0.053305 7.129107
C 58.452872 0.118520 5.742890
C 60.407578 -0.311221 2.855146
C 61.708066 -0.123561 3.496140
C 62.575270 0.062120 2.519678
C 61.836889 0.008007 1.259021
N 60.572882 -0.209148 1.442338
H 63.566736 0.124589 -0.077483
H 63.552728 0.276393 -2.705513
H 61.747902 0.509581 -4.501611
H 59.911885 2.740975 -4.828883
H 59.821344 3.045009 -7.268497
H 60.084957 0.787839 -11.059836
H 57.987566 -0.832855 -7.685447
H 58.084493 -1.141293 -5.245158
H 56.309687 1.301838 -4.289315
H 54.481863 0.996389 -2.513898
H 54.815671 -1.476634 2.274117
H 56.764712 -1.782139 4.149950
H 60.479251 -2.508834 4.958954
H 60.389368 -2.807512 7.399052
H 56.931287 -1.847901 9.496197
H 57.808448 0.627499 7.726609
H 57.901979 0.932160 5.286994
H 61.941571 -0.128368 4.552594
H 63.637076 0.229234 2.644236
C 41.416159 -0.008509 -0.011477
C 42.638077 -0.008509 -0.011477
C 52.276574 -0.008509 -0.011477
C 53.498492 -0.008509 -0.011477
Fe 47.433113 -0.025017 -0.026311
C 44.051626 0.017828 0.024048
C 44.707063 1.015232 0.646194
C 44.066100 2.078006 1.423340
C 45.002944 2.899511 1.853394
C 46.300584 2.414885 1.371744
N 46.122476 1.215746 0.613626
C 47.485547 3.019908 1.601921
C 47.522133 4.292036 2.360219
C 48.101751 4.332964 3.637216
C 48.147633 5.533661 4.351342
C 47.622916 6.706928 3.792921
S 47.664721 8.214548 4.701647
O 47.712396 9.384566 3.758940
O 46.297261 8.327810 5.672358
O 48.892566 8.246459 5.567751
C 47.042896 6.667809 2.517601
C 46.997106 5.467966 1.802025
C 48.782356 2.466045 1.135906
C 50.050840 3.204856 1.182399
C 51.002694 2.399522 0.756516
N 48.949816 1.258394 0.694369
C 50.347808 1.139127 0.430376
C 50.963177 0.017828 0.024048
C 50.212796 -1.211350 -0.307365
C 50.744665 -2.425806 -0.358204
C 49.712325 -3.326368 -0.835371
C 48.621784 -2.598409 -1.047010
N 48.847881 -1.228048 -0.722640
C 47.367566 -3.117833 -1.641960
C 47.428753 -4.363018 -2.445079
C 48.201299 -4.406586 -3.615622
C 48.270118 -5.580445 -4.371535
C 47.577196 -6.727054 -3.958461
S 47.644361 -8.207666 -4.909452
O 47.858030 -9.386116 -4.000766
O 46.206679 -8.398316 -5.759571
O 48.785763 -8.140610 -5.885313
C 46.810962 -6.687598 -2.786220
C 46.739642 -5.513887 -2.030594
C 46.195744 -2.472844 -1.484564
C 44.919429 -2.854001 -2.080628
C 44.031412 -1.993999 -1.625179
C 44.729576 -1.054438 -0.740758
N 45.994698 -1.327206 -0.656716
H 43.011155 2.194757 1.632017
H 44.816412 3.772993 2.464373
H 48.513163 3.433968 4.079605
H 48.589514 5.546794 5.339541
H 45.532907 8.258456 5.045374
H 46.624998 7.564071 2.077598
H 46.551754 5.453042 0.814894
H 50.200404 4.226323 1.507194
H 52.051906 2.652027 0.679170
H 51.765423 -2.695396 -0.122071
H 49.824939 -4.386571 -1.021270
H 48.742925 -3.528654 -3.946240
H 48.861844 -5.591224 -5.277647
H 45.506240 -8.474282 -5.063334
H 46.269061 -7.565545 -2.458014
H 46.149367 -5.500633 -1.122548
H 44.715135 -3.666450 -2.765601
H 42.980382 -1.996910 -1.880583
