146

Zn 15.536049 -0.020032 -0.022363
C 12.191998 0.109585 0.070010
C 12.859872 0.894074 0.920493
C 12.214982 1.773398 1.888756
C 13.160876 2.423848 2.540235
C 14.462803 1.992666 2.014619
N 14.279545 1.017251 0.988617
C 15.656396 2.470975 2.417298
C 16.949925 2.018170 1.845255
C 18.241489 2.635470 2.167624
C 19.175861 1.980072 1.509899
N 17.087603 1.021418 1.025283
C 18.488364 0.932933 0.763485
C 19.081498 -0.000000 -0.000000
C 18.321095 -1.047872 -0.720306
C 18.867731 -2.141869 -1.236252
C 17.819227 -2.863994 -1.928566
C 16.699727 -2.163117 -1.792352
C 15.405028 -2.529060 -2.422404
C 15.408892 -3.538244 -3.511687
C 15.936537 -3.199539 -4.773833
O 16.434565 -1.900797 -4.973247
C 16.997764 -1.429503 -6.192562
C 15.947783 -4.164504 -5.797669
C 15.443188 -5.443925 -5.565890
C 14.926175 -5.781142 -4.315110
C 14.908153 -4.834689 -3.274126
O 14.408774 -5.145339 -1.997798
C 13.861346 -6.406836 -1.629580
C 14.242013 -1.968897 -2.041219
C 12.925355 -2.250750 -2.609622
C 12.064805 -1.531924 -1.915340
C 12.823413 -0.785087 -0.913044
N 14.093956 -1.032469 -0.976598
N 16.926172 -0.981105 -1.021165
C 15.700468 3.510293 3.471888
C 15.830887 3.130505 4.821904
O 15.916121 1.763540 5.135221
C 16.037727 1.243547 6.455339
C 15.870606 4.125779 5.815756
C 15.783905 5.473898 5.466494
C 15.658949 5.848942 4.128254
C 15.617673 4.871125 3.117252
O 15.497148 5.210664 1.759110
C 15.418240 6.543442 1.263874
H 11.108605 0.132385 0.092467
H 11.151178 1.887978 2.053803
H 12.980539 3.153056 3.319609
H 18.418076 3.476900 2.824813
H 20.235133 2.196007 1.546045
H 19.906100 -2.438783 -1.175304
H 17.938179 -3.790365 -2.475414
H 16.242590 -1.477295 -7.005319
H 17.312532 -0.373789 -6.061657
H 17.889369 -2.034804 -6.460298
H 16.343669 -3.935471 -6.777591
H 15.455701 -6.179780 -6.359705
H 14.546947 -6.782779 -4.166778
H 13.542873 -6.367286 -0.568000
H 12.974625 -6.635701 -2.257719
H 14.626967 -7.203650 -1.741956
H 12.678548 -2.914092 -3.428455
H 10.994196 -1.508377 -2.070895
H 16.085213 0.136724 6.405231
H 15.154365 1.534452 7.062323
H 16.969997 1.618905 6.928767
H 15.966828 3.868476 6.861829
H 15.814685 6.232999 6.237684
H 15.595931 6.902123 3.890864
H 16.336231 7.107035 1.535980
H 15.334555 6.514153 0.158394
H 14.519782 7.050078 1.675351
Zn 26.820335 0.019290 0.023005
C 30.164386 -0.053733 -0.118418
C 29.496512 -0.784154 -1.015764
C 30.141401 -1.617691 -2.023714
C 29.195508 -2.170167 -2.760110
C 27.893581 -1.711130 -2.258637
N 28.076839 -0.834090 -1.147369
C 26.699988 -2.041781 -2.789296
C 25.406459 -1.539861 -2.259824
C 24.114894 -1.771273 -2.916657
C 23.180523 -1.213318 -2.174475
N 25.268781 -0.869793 -1.156702
C 23.868020 -0.623220 -1.031926
C 23.274885 0.000000 0.000000
C 24.035289 0.564151 1.139565
C 23.488653 0.919462 2.295760
C 24.537157 1.502177 3.108906
C 25.656657 1.466904 2.395786
C 26.951355 2.038585 2.847518
C 26.947492 2.973467 4.001202
C 26.419847 4.270928 3.845219
O 25.921819 4.652806 2.587974
C 25.358619 5.926704 2.294664
C 26.408600 5.147307 4.945836
C 26.913196 4.736136 6.179358
C 27.430208 3.450138 6.335482
C 27.448231 2.554154 5.250754
O 27.947610 1.246641 5.376951
C 28.495037 0.702960 6.573350
C 28.114371 1.740837 2.238888
C 29.431029 2.263438 2.598625
C 30.291578 1.678306 1.788464
C 29.532971 0.792263 0.906824
N 28.262428 0.820032 1.160725
N 25.430212 0.871443 1.116213
C 26.655916 -2.938042 -3.967880
C 26.525496 -4.328317 -3.783714
O 26.440263 -4.832635 -2.475118
C 26.318657 -6.213231 -2.147921
C 26.485778 -5.170712 -4.910073
C 26.572478 -4.633490 -6.194908
C 26.697435 -3.255545 -6.376051
C 26.738710 -2.393694 -5.264537
O 26.859236 -1.001093 -5.407708
C 26.938144 -0.321558 -6.656622
H 31.247779 -0.072724 -0.144178
H 31.205205 -1.764788 -2.160577
H 29.375844 -2.838052 -3.592635
H 23.938308 -2.302272 -3.842908
H 22.121250 -1.218423 -2.393354
H 22.450284 0.816955 2.581005
H 24.418205 1.911889 4.103562
H 26.113793 6.724430 2.457424
H 25.043852 5.947091 1.231060
H 24.467014 6.105742 2.931859
H 26.012715 6.149827 4.858323
H 26.900683 5.417373 7.020513
H 27.809437 3.161027 7.305890
H 28.813511 -0.342236 6.383403
H 29.381758 1.292219 6.889121
H 27.729416 0.701009 7.378047
H 29.677836 2.979740 3.371555
H 31.362187 1.835629 1.787253
H 26.271171 -6.320857 -1.045205
H 27.202019 -6.772737 -2.522099
H 25.386386 -6.628539 -2.586724
H 26.389556 -6.242727 -4.803974
H 26.541699 -5.289029 -7.055860
H 26.760452 -2.870958 -7.384831
H 26.020153 -0.510846 -7.253152
H 27.021829 0.768552 -6.470595
H 27.836602 -0.656894 -7.216570
C 20.567233 -0.000000 -0.000000
C 21.789151 -0.000000 -0.000000
