 xtb: 6.5.1 (b24c23e)
          07302206283D

252291  0     0  0            999 V2000
   53.8219    0.0003   -0.0770 Ni  0  0  0  0  0  0  0  0  0  0  0  0
   50.4268    0.0149   -0.1303 C   0  0  0  0  0  0  0  0  0  0  0  0
   51.0772    1.2253   -0.0140 C   0  0  0  0  0  0  0  0  0  0  0  0
   50.3954    2.4761    0.1209 C   0  0  0  0  0  0  0  0  0  0  0  0
   51.3489    3.4355    0.1569 C   0  0  0  0  0  0  0  0  0  0  0  0
   52.6128    2.7704    0.0294 C   0  0  0  0  0  0  0  0  0  0  0  0
   52.4367    1.4108   -0.0446 N   0  0  0  0  0  0  0  0  0  0  0  0
   53.8317    3.4318   -0.0371 C   0  0  0  0  0  0  0  0  0  0  0  0
   53.8405    4.9154   -0.0043 C   0  0  0  0  0  0  0  0  0  0  0  0
   53.2156    5.6454   -1.0152 C   0  0  0  0  0  0  0  0  0  0  0  0
   53.2246    7.0350   -0.9783 C   0  0  0  0  0  0  0  0  0  0  0  0
   52.6266    7.7549   -1.9586 O   0  0  0  0  0  0  0  0  0  0  0  0
   53.8532    7.6986    0.0766 C   0  0  0  0  0  0  0  0  0  0  0  0
   53.8412    9.0686    0.0889 O   0  0  0  0  0  0  0  0  0  0  0  0
   54.4748    6.9691    1.0869 C   0  0  0  0  0  0  0  0  0  0  0  0
   55.0673    7.6900    2.0899 O   0  0  0  0  0  0  0  0  0  0  0  0
   54.4750    5.5803    1.0484 C   0  0  0  0  0  0  0  0  0  0  0  0
   55.0445    2.7617   -0.1292 C   0  0  0  0  0  0  0  0  0  0  0  0
   56.3062    3.4232   -0.2665 C   0  0  0  0  0  0  0  0  0  0  0  0
   57.2561    2.4574   -0.2669 C   0  0  0  0  0  0  0  0  0  0  0  0
   55.2194    1.3969   -0.0820 N   0  0  0  0  0  0  0  0  0  0  0  0
   56.5740    1.2100   -0.1345 C   0  0  0  0  0  0  0  0  0  0  0  0
   57.2369   -0.0156   -0.0358 C   0  0  0  0  0  0  0  0  0  0  0  0
   56.5617   -1.2348    0.0533 C   0  0  0  0  0  0  0  0  0  0  0  0
   57.2330   -2.4906    0.1642 C   0  0  0  0  0  0  0  0  0  0  0  0
   56.2756   -3.4478    0.1445 C   0  0  0  0  0  0  0  0  0  0  0  0
   55.0181   -2.7726    0.0333 C   0  0  0  0  0  0  0  0  0  0  0  0
   55.2058   -1.4089   -0.0085 N   0  0  0  0  0  0  0  0  0  0  0  0
   53.8029   -3.4302   -0.0975 C   0  0  0  0  0  0  0  0  0  0  0  0
   53.7952   -4.9157   -0.1107 C   0  0  0  0  0  0  0  0  0  0  0  0
   54.1627   -5.6290    1.0295 C   0  0  0  0  0  0  0  0  0  0  0  0
   54.1510   -7.0192    1.0144 C   0  0  0  0  0  0  0  0  0  0  0  0
   54.4991   -7.7240    2.1183 O   0  0  0  0  0  0  0  0  0  0  0  0
   53.7780   -7.6986   -0.1464 C   0  0  0  0  0  0  0  0  0  0  0  0
   53.7794   -9.0692   -0.1329 O   0  0  0  0  0  0  0  0  0  0  0  0
   53.4147   -6.9849   -1.2853 C   0  0  0  0  0  0  0  0  0  0  0  0
   53.0645   -7.7210   -2.3869 O   0  0  0  0  0  0  0  0  0  0  0  0
   53.4178   -5.5954   -1.2712 C   0  0  0  0  0  0  0  0  0  0  0  0
   52.5936   -2.7591   -0.2191 C   0  0  0  0  0  0  0  0  0  0  0  0
   51.3245   -3.4180   -0.3244 C   0  0  0  0  0  0  0  0  0  0  0  0
   50.3790   -2.4498   -0.3335 C   0  0  0  0  0  0  0  0  0  0  0  0
   51.0698   -1.2013   -0.2267 C   0  0  0  0  0  0  0  0  0  0  0  0
   52.4271   -1.3973   -0.1709 N   0  0  0  0  0  0  0  0  0  0  0  0
   49.3431    0.0190   -0.1393 H   0  0  0  0  0  0  0  0  0  0  0  0
   49.3242    2.5845    0.1821 H   0  0  0  0  0  0  0  0  0  0  0  0
   51.2214    4.5005    0.2622 H   0  0  0  0  0  0  0  0  0  0  0  0
   52.7360    5.1409   -1.8441 H   0  0  0  0  0  0  0  0  0  0  0  0
   52.7378    8.6983   -1.7553 H   0  0  0  0  0  0  0  0  0  0  0  0
   54.3150    9.3648    0.8824 H   0  0  0  0  0  0  0  0  0  0  0  0
   55.4658    7.1039    2.7466 H   0  0  0  0  0  0  0  0  0  0  0  0
   54.9500    5.0180    1.8437 H   0  0  0  0  0  0  0  0  0  0  0  0
   56.4379    4.4887   -0.3609 H   0  0  0  0  0  0  0  0  0  0  0  0
   58.3248    2.5661   -0.3549 H   0  0  0  0  0  0  0  0  0  0  0  0
   58.3014   -2.6103    0.2409 H   0  0  0  0  0  0  0  0  0  0  0  0
   56.4002   -4.5171    0.1907 H   0  0  0  0  0  0  0  0  0  0  0  0
   54.4424   -5.1112    1.9379 H   0  0  0  0  0  0  0  0  0  0  0  0
   54.4257   -8.6704    1.9118 H   0  0  0  0  0  0  0  0  0  0  0  0
   53.4926   -9.3764   -1.0077 H   0  0  0  0  0  0  0  0  0  0  0  0
   52.8292   -7.1440   -3.1253 H   0  0  0  0  0  0  0  0  0  0  0  0
   53.1445   -5.0452   -2.1639 H   0  0  0  0  0  0  0  0  0  0  0  0
   51.1874   -4.4862   -0.3688 H   0  0  0  0  0  0  0  0  0  0  0  0
   49.3071   -2.5517   -0.3939 H   0  0  0  0  0  0  0  0  0  0  0  0
   86.3662   -0.0722   -0.0322 Ni  0  0  0  0  0  0  0  0  0  0  0  0
   89.7599   -0.0998   -0.0763 C   0  0  0  0  0  0  0  0  0  0  0  0
   89.1026   -1.3121   -0.0872 C   0  0  0  0  0  0  0  0  0  0  0  0
   89.7758   -2.5748   -0.0805 C   0  0  0  0  0  0  0  0  0  0  0  0
   88.8168   -3.5259   -0.1648 C   0  0  0  0  0  0  0  0  0  0  0  0
   87.5585   -2.8422   -0.2358 C   0  0  0  0  0  0  0  0  0  0  0  0
   87.7426   -1.4844   -0.1533 N   0  0  0  0  0  0  0  0  0  0  0  0
   86.3376   -3.4828   -0.4015 C   0  0  0  0  0  0  0  0  0  0  0  0
   86.3208   -4.9588   -0.5526 C   0  0  0  0  0  0  0  0  0  0  0  0
   86.9615   -5.5619   -1.6347 C   0  0  0  0  0  0  0  0  0  0  0  0
   86.9417   -6.9450   -1.7733 C   0  0  0  0  0  0  0  0  0  0  0  0
   87.5541   -7.5417   -2.8248 O   0  0  0  0  0  0  0  0  0  0  0  0
   86.2871   -7.7299   -0.8226 C   0  0  0  0  0  0  0  0  0  0  0  0
   86.2887   -9.0908   -0.9824 O   0  0  0  0  0  0  0  0  0  0  0  0
   85.6508   -7.1271    0.2595 C   0  0  0  0  0  0  0  0  0  0  0  0
   85.0336   -7.9626    1.1532 O   0  0  0  0  0  0  0  0  0  0  0  0
   85.6609   -5.7446    0.3960 C   0  0  0  0  0  0  0  0  0  0  0  0
   85.1299   -2.7980   -0.4278 C   0  0  0  0  0  0  0  0  0  0  0  0
   83.8656   -3.4279   -0.6590 C   0  0  0  0  0  0  0  0  0  0  0  0
   82.9208   -2.4648   -0.5382 C   0  0  0  0  0  0  0  0  0  0  0  0
   84.9621   -1.4493   -0.2071 N   0  0  0  0  0  0  0  0  0  0  0  0
   83.6089   -1.2494   -0.2405 C   0  0  0  0  0  0  0  0  0  0  0  0
   82.9531   -0.0439    0.0196 C   0  0  0  0  0  0  0  0  0  0  0  0
   83.6352    1.1507    0.2606 C   0  0  0  0  0  0  0  0  0  0  0  0
   82.9718    2.3862    0.5311 C   0  0  0  0  0  0  0  0  0  0  0  0
   83.9340    3.3354    0.6144 C   0  0  0  0  0  0  0  0  0  0  0  0
   85.1866    2.6739    0.4075 C   0  0  0  0  0  0  0  0  0  0  0  0
   84.9912    1.3255    0.2067 N   0  0  0  0  0  0  0  0  0  0  0  0
   86.4032    3.3379    0.3336 C   0  0  0  0  0  0  0  0  0  0  0  0
   86.4177    4.8151    0.4880 C   0  0  0  0  0  0  0  0  0  0  0  0
   86.0657    5.3956    1.7060 C   0  0  0  0  0  0  0  0  0  0  0  0
   86.0807    6.7786    1.8478 C   0  0  0  0  0  0  0  0  0  0  0  0
   85.7459    7.3544    3.0279 O   0  0  0  0  0  0  0  0  0  0  0  0
   86.4425    7.5844    0.7670 C   0  0  0  0  0  0  0  0  0  0  0  0
   86.4449    8.9442    0.9358 O   0  0  0  0  0  0  0  0  0  0  0  0
   86.7908    7.0033   -0.4495 C   0  0  0  0  0  0  0  0  0  0  0  0
   87.1306    7.8585   -1.4646 O   0  0  0  0  0  0  0  0  0  0  0  0
   86.7837    5.6210   -0.5926 C   0  0  0  0  0  0  0  0  0  0  0  0
   87.6073    2.6794    0.1221 C   0  0  0  0  0  0  0  0  0  0  0  0
   88.8790    3.3399    0.0756 C   0  0  0  0  0  0  0  0  0  0  0  0
   89.8196    2.3734   -0.0375 C   0  0  0  0  0  0  0  0  0  0  0  0
   89.1232    1.1235   -0.0538 C   0  0  0  0  0  0  0  0  0  0  0  0
   87.7672    1.3193    0.0268 N   0  0  0  0  0  0  0  0  0  0  0  0
   90.8437   -0.1088   -0.0814 H   0  0  0  0  0  0  0  0  0  0  0  0
   90.8454   -2.6966   -0.0169 H   0  0  0  0  0  0  0  0  0  0  0  0
   88.9370   -4.5970   -0.1766 H   0  0  0  0  0  0  0  0  0  0  0  0
   87.4610   -4.9618   -2.3843 H   0  0  0  0  0  0  0  0  0  0  0  0
   87.4279   -8.5017   -2.7466 H   0  0  0  0  0  0  0  0  0  0  0  0
   85.7928   -9.4786   -0.2438 H   0  0  0  0  0  0  0  0  0  0  0  0
   84.6208   -7.4585    1.8665 H   0  0  0  0  0  0  0  0  0  0  0  0
   85.1737   -5.2823    1.2465 H   0  0  0  0  0  0  0  0  0  0  0  0
   83.7288   -4.4710   -0.8930 H   0  0  0  0  0  0  0  0  0  0  0  0
   81.8522   -2.5545   -0.6459 H   0  0  0  0  0  0  0  0  0  0  0  0
   81.9050    2.4999    0.6338 H   0  0  0  0  0  0  0  0  0  0  0  0
   83.8150    4.3920    0.7894 H   0  0  0  0  0  0  0  0  0  0  0  0
   85.7952    4.7789    2.5532 H   0  0  0  0  0  0  0  0  0  0  0  0
   85.8150    8.3183    2.9275 H   0  0  0  0  0  0  0  0  0  0  0  0
   86.7147    9.3494    0.0963 H   0  0  0  0  0  0  0  0  0  0  0  0
   87.3487    7.3690   -2.2685 H   0  0  0  0  0  0  0  0  0  0  0  0
   87.0443    5.1749   -1.5452 H   0  0  0  0  0  0  0  0  0  0  0  0
   89.0214    4.4065    0.1391 H   0  0  0  0  0  0  0  0  0  0  0  0
   90.8917    2.4763   -0.0938 H   0  0  0  0  0  0  0  0  0  0  0  0
   58.6462   -0.0211   -0.0299 C   0  0  0  0  0  0  0  0  0  0  0  0
   59.8623   -0.0237   -0.0231 C   0  0  0  0  0  0  0  0  0  0  0  0
   69.4884   -0.0048    0.0036 C   0  0  0  0  0  0  0  0  0  0  0  0
   70.7045   -0.0020    0.0071 C   0  0  0  0  0  0  0  0  0  0  0  0
   80.3280   -0.0238    0.0388 C   0  0  0  0  0  0  0  0  0  0  0  0
   81.5441   -0.0321    0.0314 C   0  0  0  0  0  0  0  0  0  0  0  0
   64.6769   -0.0141   -0.0298 Ni  0  0  0  0  0  0  0  0  0  0  0  0
   61.2705   -0.0226   -0.0233 C   0  0  0  0  0  0  0  0  0  0  0  0
   61.9439    1.1533    0.3214 C   0  0  0  0  0  0  0  0  0  0  0  0
   61.2896    2.3490    0.7448 C   0  0  0  0  0  0  0  0  0  0  0  0
   62.2424    3.3116    0.8150 C   0  0  0  0  0  0  0  0  0  0  0  0
   63.4766    2.7006    0.4274 C   0  0  0  0  0  0  0  0  0  0  0  0
   63.2897    1.3591    0.1842 N   0  0  0  0  0  0  0  0  0  0  0  0
   64.6667    3.3922    0.2301 C   0  0  0  0  0  0  0  0  0  0  0  0
   64.6549    4.8696    0.3231 C   0  0  0  0  0  0  0  0  0  0  0  0
   65.4910    5.5302    1.2245 C   0  0  0  0  0  0  0  0  0  0  0  0
   65.4877    6.9190    1.3194 C   0  0  0  0  0  0  0  0  0  0  0  0
   66.2909    7.5726    2.1986 O   0  0  0  0  0  0  0  0  0  0  0  0
   64.6423    7.6690    0.4951 C   0  0  0  0  0  0  0  0  0  0  0  0
   64.6204    9.0253    0.5596 O   0  0  0  0  0  0  0  0  0  0  0  0
   63.8100    7.0007   -0.4071 C   0  0  0  0  0  0  0  0  0  0  0  0
   63.0093    7.7942   -1.1877 O   0  0  0  0  0  0  0  0  0  0  0  0
   63.8051    5.6162   -0.4962 C   0  0  0  0  0  0  0  0  0  0  0  0
   65.8641    2.7461   -0.0541 C   0  0  0  0  0  0  0  0  0  0  0  0
   67.1004    3.4144   -0.3231 C   0  0  0  0  0  0  0  0  0  0  0  0
   68.0598    2.4574   -0.3757 C   0  0  0  0  0  0  0  0  0  0  0  0
   66.0575    1.3837   -0.0106 N   0  0  0  0  0  0  0  0  0  0  0  0
   67.4061    1.2080   -0.1541 C   0  0  0  0  0  0  0  0  0  0  0  0
   68.0812   -0.0072   -0.0044 C   0  0  0  0  0  0  0  0  0  0  0  0
   67.4080   -1.2247    0.1280 C   0  0  0  0  0  0  0  0  0  0  0  0
   68.0642   -2.4755    0.3374 C   0  0  0  0  0  0  0  0  0  0  0  0
   67.1116   -3.4357    0.2471 C   0  0  0  0  0  0  0  0  0  0  0  0
   65.8757   -2.7675   -0.0253 C   0  0  0  0  0  0  0  0  0  0  0  0
   66.0621   -1.4038   -0.0398 N   0  0  0  0  0  0  0  0  0  0  0  0
   64.6845   -3.4144   -0.3297 C   0  0  0  0  0  0  0  0  0  0  0  0
   64.6866   -4.8911   -0.4574 C   0  0  0  0  0  0  0  0  0  0  0  0
   65.5131   -5.5103   -1.3962 C   0  0  0  0  0  0  0  0  0  0  0  0
   65.5043   -6.8946   -1.5213 C   0  0  0  0  0  0  0  0  0  0  0  0
   66.2883   -7.5086   -2.4390 O   0  0  0  0  0  0  0  0  0  0  0  0
   64.6741   -7.6609   -0.7010 C   0  0  0  0  0  0  0  0  0  0  0  0
   64.6995   -9.0401   -0.8540 O   0  0  0  0  0  0  0  0  0  0  0  0
   63.8766   -7.0462    0.2626 C   0  0  0  0  0  0  0  0  0  0  0  0
   63.0909   -7.7936    1.0894 O   0  0  0  0  0  0  0  0  0  0  0  0
   63.8685   -5.6603    0.3710 C   0  0  0  0  0  0  0  0  0  0  0  0
   63.4893   -2.7292   -0.5121 C   0  0  0  0  0  0  0  0  0  0  0  0
   62.2552   -3.3453   -0.8928 C   0  0  0  0  0  0  0  0  0  0  0  0
   61.2969   -2.3906   -0.8021 C   0  0  0  0  0  0  0  0  0  0  0  0
   61.9476   -1.1937   -0.3751 C   0  0  0  0  0  0  0  0  0  0  0  0
   63.2961   -1.3916   -0.2528 N   0  0  0  0  0  0  0  0  0  0  0  0
   60.2366    2.4292    0.9609 H   0  0  0  0  0  0  0  0  0  0  0  0
   62.1286    4.3422    1.1096 H   0  0  0  0  0  0  0  0  0  0  0  0
   66.1388    4.9588    1.8797 H   0  0  0  0  0  0  0  0  0  0  0  0
   66.8234    6.9522    2.7134 H   0  0  0  0  0  0  0  0  0  0  0  0
   63.9723    9.3497   -0.0863 H   0  0  0  0  0  0  0  0  0  0  0  0
   62.4723    7.2588   -1.7861 H   0  0  0  0  0  0  0  0  0  0  0  0
   63.1616    5.1226   -1.2150 H   0  0  0  0  0  0  0  0  0  0  0  0
   67.2122    4.4779   -0.4578 H   0  0  0  0  0  0  0  0  0  0  0  0
   69.1170    2.5743   -0.5520 H   0  0  0  0  0  0  0  0  0  0  0  0
   69.1189   -2.5903    0.5286 H   0  0  0  0  0  0  0  0  0  0  0  0
   67.2260   -4.5017    0.3572 H   0  0  0  0  0  0  0  0  0  0  0  0
   66.1442   -4.9232   -2.0506 H   0  0  0  0  0  0  0  0  0  0  0  0
   66.1420   -8.4671   -2.3714 H   0  0  0  0  0  0  0  0  0  0  0  0
   63.8047   -9.4037   -0.8289 H   0  0  0  0  0  0  0  0  0  0  0  0
   63.3884   -8.7145    1.0925 H   0  0  0  0  0  0  0  0  0  0  0  0
   63.2461   -5.1928    1.1230 H   0  0  0  0  0  0  0  0  0  0  0  0
   62.1455   -4.3748   -1.1921 H   0  0  0  0  0  0  0  0  0  0  0  0
   60.2418   -2.4763   -1.0054 H   0  0  0  0  0  0  0  0  0  0  0  0
   75.5155   -0.0089    0.0101 Ni  0  0  0  0  0  0  0  0  0  0  0  0
   72.1117   -0.0034    0.0066 C   0  0  0  0  0  0  0  0  0  0  0  0
   72.7876    1.1823    0.3101 C   0  0  0  0  0  0  0  0  0  0  0  0
   72.1348    2.3942    0.6880 C   0  0  0  0  0  0  0  0  0  0  0  0
   73.0921    3.3536    0.7381 C   0  0  0  0  0  0  0  0  0  0  0  0
   74.3268    2.7249    0.3810 C   0  0  0  0  0  0  0  0  0  0  0  0
   74.1348    1.3773    0.1764 N   0  0  0  0  0  0  0  0  0  0  0  0
   75.5221    3.4030    0.1718 C   0  0  0  0  0  0  0  0  0  0  0  0
   75.5243    4.8822    0.2354 C   0  0  0  0  0  0  0  0  0  0  0  0
   76.3622    5.5489    1.1308 C   0  0  0  0  0  0  0  0  0  0  0  0
   76.3729    6.9389    1.2033 C   0  0  0  0  0  0  0  0  0  0  0  0
   77.1762    7.5985    2.0777 O   0  0  0  0  0  0  0  0  0  0  0  0
   75.5413    7.6840    0.3605 C   0  0  0  0  0  0  0  0  0  0  0  0
   75.5338    9.0411    0.4023 O   0  0  0  0  0  0  0  0  0  0  0  0
   74.7082    7.0096   -0.5364 C   0  0  0  0  0  0  0  0  0  0  0  0
   73.9228    7.7988   -1.3363 O   0  0  0  0  0  0  0  0  0  0  0  0
   74.6881    5.6238   -0.6021 C   0  0  0  0  0  0  0  0  0  0  0  0
   76.7153    2.7416   -0.0962 C   0  0  0  0  0  0  0  0  0  0  0  0
   77.9529    3.3954   -0.3928 C   0  0  0  0  0  0  0  0  0  0  0  0
   78.9068    2.4321   -0.4256 C   0  0  0  0  0  0  0  0  0  0  0  0
   76.9021    1.3805   -0.0137 N   0  0  0  0  0  0  0  0  0  0  0  0
   78.2497    1.1934   -0.1592 C   0  0  0  0  0  0  0  0  0  0  0  0
   78.9200   -0.0177    0.0370 C   0  0  0  0  0  0  0  0  0  0  0  0
   78.2402   -1.2250    0.2213 C   0  0  0  0  0  0  0  0  0  0  0  0
   78.8872   -2.4701    0.4844 C   0  0  0  0  0  0  0  0  0  0  0  0
   77.9307   -3.4288    0.4190 C   0  0  0  0  0  0  0  0  0  0  0  0
   76.7012   -2.7652    0.1099 C   0  0  0  0  0  0  0  0  0  0  0  0
   76.8942   -1.4041    0.0510 N   0  0  0  0  0  0  0  0  0  0  0  0
   75.5106   -3.4175   -0.1888 C   0  0  0  0  0  0  0  0  0  0  0  0
   75.5146   -4.8960   -0.2905 C   0  0  0  0  0  0  0  0  0  0  0  0
   76.3594   -5.5263   -1.2055 C   0  0  0  0  0  0  0  0  0  0  0  0
   76.3549   -6.9120   -1.3134 C   0  0  0  0  0  0  0  0  0  0  0  0
   77.1594   -7.5363   -2.2053 O   0  0  0  0  0  0  0  0  0  0  0  0
   75.5077   -7.6683   -0.5012 C   0  0  0  0  0  0  0  0  0  0  0  0
   75.5367   -9.0512   -0.6300 O   0  0  0  0  0  0  0  0  0  0  0  0
   74.6914   -7.0424    0.4395 C   0  0  0  0  0  0  0  0  0  0  0  0
   73.8933   -7.7825    1.2590 O   0  0  0  0  0  0  0  0  0  0  0  0
   74.6815   -5.6552    0.5324 C   0  0  0  0  0  0  0  0  0  0  0  0
   74.3190   -2.7339   -0.3964 C   0  0  0  0  0  0  0  0  0  0  0  0
   73.0826   -3.3549   -0.7624 C   0  0  0  0  0  0  0  0  0  0  0  0
   72.1277   -2.3949   -0.6967 C   0  0  0  0  0  0  0  0  0  0  0  0
   72.7837   -1.1890   -0.3039 C   0  0  0  0  0  0  0  0  0  0  0  0
   74.1306   -1.3885   -0.1740 N   0  0  0  0  0  0  0  0  0  0  0  0
   71.0795    2.4861    0.8881 H   0  0  0  0  0  0  0  0  0  0  0  0
   72.9808    4.3935    0.9987 H   0  0  0  0  0  0  0  0  0  0  0  0
   77.0002    4.9813    1.7990 H   0  0  0  0  0  0  0  0  0  0  0  0
   77.6997    6.9814    2.6056 H   0  0  0  0  0  0  0  0  0  0  0  0
   74.8920    9.3617   -0.2518 H   0  0  0  0  0  0  0  0  0  0  0  0
   73.3786    7.2599   -1.9250 H   0  0  0  0  0  0  0  0  0  0  0  0
   74.0441    5.1253   -1.3171 H   0  0  0  0  0  0  0  0  0  0  0  0
   78.0685    4.4540   -0.5592 H   0  0  0  0  0  0  0  0  0  0  0  0
   79.9624    2.5385   -0.6159 H   0  0  0  0  0  0  0  0  0  0  0  0
   79.9388   -2.5832    0.6924 H   0  0  0  0  0  0  0  0  0  0  0  0
   78.0386   -4.4905    0.5697 H   0  0  0  0  0  0  0  0  0  0  0  0
   77.0025   -4.9462   -1.8547 H   0  0  0  0  0  0  0  0  0  0  0  0
   77.0197   -8.4948   -2.1225 H   0  0  0  0  0  0  0  0  0  0  0  0
   74.6427   -9.4080   -0.7132 H   0  0  0  0  0  0  0  0  0  0  0  0
   74.1736   -8.7093    1.2439 H   0  0  0  0  0  0  0  0  0  0  0  0
   74.0459   -5.1792    1.2677 H   0  0  0  0  0  0  0  0  0  0  0  0
   72.9687   -4.3914   -1.0349 H   0  0  0  0  0  0  0  0  0  0  0  0
   71.0720   -2.4820   -0.8967 H   0  0  0  0  0  0  0  0  0  0  0  0
  2  3  4  0  0  0  0
  3  4  4  0  0  0  0
  4  5  2  0  0  0  0
  5  6  4  0  0  0  0
  1  7  1  0  0  0  0
  3  7  4  0  0  0  0
  6  7  4  0  0  0  0
  6  8  4  0  0  0  0
  8  9  1  0  0  0  0
  9 10  4  0  0  0  0
 10 11  4  0  0  0  0
 11 12  1  0  0  0  0
 11 13  4  0  0  0  0
 13 14  1  0  0  0  0
 13 15  4  0  0  0  0
 15 16  1  0  0  0  0
  9 17  4  0  0  0  0
 15 17  4  0  0  0  0
  8 18  4  0  0  0  0
 18 19  4  0  0  0  0
 19 20  2  0  0  0  0
  1 21  1  0  0  0  0
 18 21  4  0  0  0  0
 20 22  4  0  0  0  0
 21 22  4  0  0  0  0
 22 23  4  0  0  0  0
 23 24  4  0  0  0  0
 24 25  4  0  0  0  0
 25 26  2  0  0  0  0
 26 27  4  0  0  0  0
  1 28  1  0  0  0  0
 24 28  4  0  0  0  0
 27 28  4  0  0  0  0
 27 29  4  0  0  0  0
 29 30  1  0  0  0  0
 30 31  4  0  0  0  0
 31 32  4  0  0  0  0
 32 33  1  0  0  0  0
 32 34  4  0  0  0  0
 34 35  1  0  0  0  0
 34 36  4  0  0  0  0
 36 37  1  0  0  0  0
 30 38  4  0  0  0  0
 36 38  4  0  0  0  0
 29 39  4  0  0  0  0
 39 40  4  0  0  0  0
 40 41  2  0  0  0  0
  2 42  4  0  0  0  0
 41 42  4  0  0  0  0
  1 43  1  0  0  0  0
 39 43  4  0  0  0  0
 42 43  4  0  0  0  0
  2 44  1  0  0  0  0
  4 45  1  0  0  0  0
  5 46  1  0  0  0  0
 10 47  1  0  0  0  0
 12 48  1  0  0  0  0
 14 49  1  0  0  0  0
 16 50  1  0  0  0  0
 17 51  1  0  0  0  0
 19 52  1  0  0  0  0
 20 53  1  0  0  0  0
 25 54  1  0  0  0  0
 26 55  1  0  0  0  0
 31 56  1  0  0  0  0
 33 57  1  0  0  0  0
 35 58  1  0  0  0  0
 37 59  1  0  0  0  0
 38 60  1  0  0  0  0
 40 61  1  0  0  0  0
 41 62  1  0  0  0  0
 64 65  4  0  0  0  0
 65 66  4  0  0  0  0
 66 67  2  0  0  0  0
 67 68  4  0  0  0  0
 63 69  1  0  0  0  0
 65 69  4  0  0  0  0
 68 69  4  0  0  0  0
 68 70  4  0  0  0  0
 70 71  1  0  0  0  0
 71 72  4  0  0  0  0
 72 73  4  0  0  0  0
 73 74  1  0  0  0  0
 73 75  4  0  0  0  0
 75 76  1  0  0  0  0
 75 77  4  0  0  0  0
 77 78  1  0  0  0  0
 71 79  4  0  0  0  0
 77 79  4  0  0  0  0
 70 80  4  0  0  0  0
 80 81  4  0  0  0  0
 81 82  2  0  0  0  0
 63 83  1  0  0  0  0
 80 83  4  0  0  0  0
 82 84  4  0  0  0  0
 83 84  4  0  0  0  0
 84 85  4  0  0  0  0
 85 86  4  0  0  0  0
 86 87  4  0  0  0  0
 87 88  2  0  0  0  0
 88 89  4  0  0  0  0
 63 90  1  0  0  0  0
 86 90  4  0  0  0  0
 89 90  4  0  0  0  0
 89 91  4  0  0  0  0
 91 92  1  0  0  0  0
 92 93  4  0  0  0  0
 93 94  4  0  0  0  0
 94 95  1  0  0  0  0
 94 96  4  0  0  0  0
 96 97  1  0  0  0  0
 96 98  4  0  0  0  0
 98 99  1  0  0  0  0
 92100  4  0  0  0  0
 98100  4  0  0  0  0
 91101  4  0  0  0  0
101102  4  0  0  0  0
102103  2  0  0  0  0
 64104  4  0  0  0  0
103104  4  0  0  0  0
 63105  1  0  0  0  0
101105  4  0  0  0  0
104105  4  0  0  0  0
 64106  1  0  0  0  0
 66107  1  0  0  0  0
 67108  1  0  0  0  0
 72109  1  0  0  0  0
 74110  1  0  0  0  0
 76111  1  0  0  0  0
 78112  1  0  0  0  0
 79113  1  0  0  0  0
 81114  1  0  0  0  0
 82115  1  0  0  0  0
 87116  1  0  0  0  0
 88117  1  0  0  0  0
 93118  1  0  0  0  0
 95119  1  0  0  0  0
 97120  1  0  0  0  0
 99121  1  0  0  0  0
100122  1  0  0  0  0
102123  1  0  0  0  0
103124  1  0  0  0  0
 23125  4  0  0  0  0
125126  3  0  0  0  0
127128  3  0  0  0  0
 85130  4  0  0  0  0
129130  3  0  0  0  0
126132  4  0  0  0  0
132133  4  0  0  0  0
133134  4  0  0  0  0
134135  2  0  0  0  0
135136  4  0  0  0  0
131137  1  0  0  0  0
133137  4  0  0  0  0
136137  4  0  0  0  0
136138  4  0  0  0  0
138139  1  0  0  0  0
139140  4  0  0  0  0
140141  4  0  0  0  0
141142  1  0  0  0  0
141143  4  0  0  0  0
143144  1  0  0  0  0
143145  4  0  0  0  0
145146  1  0  0  0  0
139147  4  0  0  0  0
145147  4  0  0  0  0
138148  4  0  0  0  0
148149  4  0  0  0  0
149150  2  0  0  0  0
131151  1  0  0  0  0
148151  4  0  0  0  0
150152  4  0  0  0  0
151152  4  0  0  0  0
127153  4  0  0  0  0
152153  4  0  0  0  0
153154  4  0  0  0  0
154155  4  0  0  0  0
155156  2  0  0  0  0
156157  4  0  0  0  0
131158  1  0  0  0  0
154158  4  0  0  0  0
157158  4  0  0  0  0
157159  4  0  0  0  0
159160  1  0  0  0  0
160161  4  0  0  0  0
161162  4  0  0  0  0
162163  1  0  0  0  0
162164  4  0  0  0  0
164165  1  0  0  0  0
164166  4  0  0  0  0
166167  1  0  0  0  0
160168  4  0  0  0  0
166168  4  0  0  0  0
159169  4  0  0  0  0
169170  4  0  0  0  0
170171  2  0  0  0  0
132172  4  0  0  0  0
171172  4  0  0  0  0
131173  1  0  0  0  0
169173  4  0  0  0  0
172173  4  0  0  0  0
134174  1  0  0  0  0
135175  1  0  0  0  0
140176  1  0  0  0  0
142177  1  0  0  0  0
144178  1  0  0  0  0
146179  1  0  0  0  0
147180  1  0  0  0  0
149181  1  0  0  0  0
150182  1  0  0  0  0
155183  1  0  0  0  0
156184  1  0  0  0  0
161185  1  0  0  0  0
163186  1  0  0  0  0
165187  1  0  0  0  0
167188  1  0  0  0  0
168189  1  0  0  0  0
170190  1  0  0  0  0
171191  1  0  0  0  0
128193  4  0  0  0  0
193194  4  0  0  0  0
194195  4  0  0  0  0
195196  2  0  0  0  0
196197  4  0  0  0  0
192198  1  0  0  0  0
194198  4  0  0  0  0
197198  4  0  0  0  0
197199  4  0  0  0  0
199200  1  0  0  0  0
200201  4  0  0  0  0
201202  4  0  0  0  0
202203  1  0  0  0  0
202204  4  0  0  0  0
204205  1  0  0  0  0
204206  4  0  0  0  0
206207  1  0  0  0  0
200208  4  0  0  0  0
206208  4  0  0  0  0
199209  4  0  0  0  0
209210  4  0  0  0  0
210211  2  0  0  0  0
192212  1  0  0  0  0
209212  4  0  0  0  0
211213  4  0  0  0  0
212213  4  0  0  0  0
129214  4  0  0  0  0
213214  4  0  0  0  0
214215  4  0  0  0  0
215216  4  0  0  0  0
216217  2  0  0  0  0
217218  4  0  0  0  0
192219  1  0  0  0  0
215219  4  0  0  0  0
218219  4  0  0  0  0
218220  4  0  0  0  0
220221  1  0  0  0  0
221222  4  0  0  0  0
222223  4  0  0  0  0
223224  1  0  0  0  0
223225  4  0  0  0  0
225226  1  0  0  0  0
225227  4  0  0  0  0
227228  1  0  0  0  0
221229  4  0  0  0  0
227229  4  0  0  0  0
220230  4  0  0  0  0
230231  4  0  0  0  0
231232  2  0  0  0  0
193233  4  0  0  0  0
232233  4  0  0  0  0
192234  1  0  0  0  0
230234  4  0  0  0  0
233234  4  0  0  0  0
195235  1  0  0  0  0
196236  1  0  0  0  0
201237  1  0  0  0  0
203238  1  0  0  0  0
205239  1  0  0  0  0
207240  1  0  0  0  0
208241  1  0  0  0  0
210242  1  0  0  0  0
211243  1  0  0  0  0
216244  1  0  0  0  0
217245  1  0  0  0  0
222246  1  0  0  0  0
224247  1  0  0  0  0
226248  1  0  0  0  0
228249  1  0  0  0  0
229250  1  0  0  0  0
231251  1  0  0  0  0
232252  1  0  0  0  0
M  END
