 xtb: 6.5.1 (b24c23e)
          07302211163D

254293  0     0  0            999 V2000
   40.7119   -0.2735   -0.1841 Zn  0  0  0  0  0  0  0  0  0  0  0  0
   37.2926   -0.2262   -0.1567 C   0  0  0  0  0  0  0  0  0  0  0  0
   37.9307    0.6504    0.7123 C   0  0  0  0  0  0  0  0  0  0  0  0
   37.2701    1.5602    1.6059 C   0  0  0  0  0  0  0  0  0  0  0  0
   38.2404    2.2331    2.2755 C   0  0  0  0  0  0  0  0  0  0  0  0
   39.5012    1.7398    1.7966 C   0  0  0  0  0  0  0  0  0  0  0  0
   39.2844    0.7856    0.8538 N   0  0  0  0  0  0  0  0  0  0  0  0
   40.7632    2.1794    2.2389 C   0  0  0  0  0  0  0  0  0  0  0  0
   40.7835    3.1854    3.2303 C   0  0  0  0  0  0  0  0  0  0  0  0
   40.7993    4.0502    4.0818 C   0  0  0  0  0  0  0  0  0  0  0  0
   40.8201    5.0574    5.0731 C   0  0  0  0  0  0  0  0  0  0  0  0
   42.0277    5.5556    5.5768 C   0  0  0  0  0  0  0  0  0  0  0  0
   41.9939    6.5417    6.5464 C   0  0  0  0  0  0  0  0  0  0  0  0
   40.8624    7.0476    7.0309 N   0  0  0  0  0  0  0  0  0  0  0  0
   39.7102    6.5795    6.5572 C   0  0  0  0  0  0  0  0  0  0  0  0
   39.6345    5.5951    5.5882 C   0  0  0  0  0  0  0  0  0  0  0  0
   42.0050    1.7049    1.7797 C   0  0  0  0  0  0  0  0  0  0  0  0
   43.2814    2.1646    2.2438 C   0  0  0  0  0  0  0  0  0  0  0  0
   44.2267    1.4671    1.5616 C   0  0  0  0  0  0  0  0  0  0  0  0
   42.1897    0.7428    0.8302 N   0  0  0  0  0  0  0  0  0  0  0  0
   43.5332    0.5777    0.6769 C   0  0  0  0  0  0  0  0  0  0  0  0
   44.1559   -0.3222   -0.2107 C   0  0  0  0  0  0  0  0  0  0  0  0
   43.4939   -1.2032   -1.0891 C   0  0  0  0  0  0  0  0  0  0  0  0
   44.1482   -2.1107   -1.9853 C   0  0  0  0  0  0  0  0  0  0  0  0
   43.1731   -2.7807   -2.6530 C   0  0  0  0  0  0  0  0  0  0  0  0
   41.9177   -2.2859   -2.1684 C   0  0  0  0  0  0  0  0  0  0  0  0
   42.1441   -1.3303   -1.2215 N   0  0  0  0  0  0  0  0  0  0  0  0
   40.6562   -2.7256   -2.6080 C   0  0  0  0  0  0  0  0  0  0  0  0
   40.6329   -3.7314   -3.5995 C   0  0  0  0  0  0  0  0  0  0  0  0
   40.6118   -4.5968   -4.4502 C   0  0  0  0  0  0  0  0  0  0  0  0
   40.5874   -5.6048   -5.4406 C   0  0  0  0  0  0  0  0  0  0  0  0
   41.7713   -6.1443   -5.9578 C   0  0  0  0  0  0  0  0  0  0  0  0
   41.6924   -7.1297   -6.9255 C   0  0  0  0  0  0  0  0  0  0  0  0
   40.5387   -7.5971   -7.3961 N   0  0  0  0  0  0  0  0  0  0  0  0
   39.4088   -7.0894   -6.9096 C   0  0  0  0  0  0  0  0  0  0  0  0
   39.3782   -6.1021   -5.9411 C   0  0  0  0  0  0  0  0  0  0  0  0
   39.4141   -2.2514   -2.1456 C   0  0  0  0  0  0  0  0  0  0  0  0
   38.1326   -2.7092   -2.6045 C   0  0  0  0  0  0  0  0  0  0  0  0
   37.1922   -2.0102   -1.9191 C   0  0  0  0  0  0  0  0  0  0  0  0
   37.8920   -1.1198   -1.0358 C   0  0  0  0  0  0  0  0  0  0  0  0
   39.2390   -1.2923   -1.1991 N   0  0  0  0  0  0  0  0  0  0  0  0
   36.2070   -0.2112   -0.1478 H   0  0  0  0  0  0  0  0  0  0  0  0
   36.2004    1.6621    1.7002 H   0  0  0  0  0  0  0  0  0  0  0  0
   38.1240    2.9968    3.0283 H   0  0  0  0  0  0  0  0  0  0  0  0
   42.9723    5.1720    5.2104 H   0  0  0  0  0  0  0  0  0  0  0  0
   42.9158    6.9459    6.9546 H   0  0  0  0  0  0  0  0  0  0  0  0
   38.8061    7.0140    6.9742 H   0  0  0  0  0  0  0  0  0  0  0  0
   38.6742    5.2432    5.2310 H   0  0  0  0  0  0  0  0  0  0  0  0
   43.4272    2.9240    2.9955 H   0  0  0  0  0  0  0  0  0  0  0  0
   45.2993    1.5424    1.6442 H   0  0  0  0  0  0  0  0  0  0  0  0
   45.2167   -2.2161   -2.0851 H   0  0  0  0  0  0  0  0  0  0  0  0
   43.2859   -3.5428   -3.4077 H   0  0  0  0  0  0  0  0  0  0  0  0
   42.7327   -5.7930   -5.6030 H   0  0  0  0  0  0  0  0  0  0  0  0
   42.5951   -7.5657   -7.3438 H   0  0  0  0  0  0  0  0  0  0  0  0
   38.4856   -7.4931   -7.3154 H   0  0  0  0  0  0  0  0  0  0  0  0
   38.4348   -5.7172   -5.5731 H   0  0  0  0  0  0  0  0  0  0  0  0
   37.9831   -3.4687   -3.3556 H   0  0  0  0  0  0  0  0  0  0  0  0
   36.1187   -2.0825   -1.9962 H   0  0  0  0  0  0  0  0  0  0  0  0
   96.6216   -0.3336   -0.2117 Zn  0  0  0  0  0  0  0  0  0  0  0  0
  100.0413   -0.3615   -0.2350 C   0  0  0  0  0  0  0  0  0  0  0  0
   99.4108   -1.5609   -0.5428 C   0  0  0  0  0  0  0  0  0  0  0  0
  100.0790   -2.7905   -0.8656 C   0  0  0  0  0  0  0  0  0  0  0  0
   99.1144   -3.7165   -1.0996 C   0  0  0  0  0  0  0  0  0  0  0  0
   97.8496   -3.0601   -0.9217 C   0  0  0  0  0  0  0  0  0  0  0  0
   98.0583   -1.7599   -0.5864 N   0  0  0  0  0  0  0  0  0  0  0  0
   96.5913   -3.6728   -1.0722 C   0  0  0  0  0  0  0  0  0  0  0  0
   96.5783   -5.0406   -1.4246 C   0  0  0  0  0  0  0  0  0  0  0  0
   96.5659   -6.2160   -1.7270 C   0  0  0  0  0  0  0  0  0  0  0  0
   96.5501   -7.5848   -2.0788 C   0  0  0  0  0  0  0  0  0  0  0  0
   95.3450   -8.2756   -2.2541 C   0  0  0  0  0  0  0  0  0  0  0  0
   95.3838   -9.6149   -2.5981 C   0  0  0  0  0  0  0  0  0  0  0  0
   96.5179  -10.2889   -2.7731 N   0  0  0  0  0  0  0  0  0  0  0  0
   97.6677   -9.6394   -2.6083 C   0  0  0  0  0  0  0  0  0  0  0  0
   97.7384   -8.3012   -2.2649 C   0  0  0  0  0  0  0  0  0  0  0  0
   95.3458   -3.0419   -0.9030 C   0  0  0  0  0  0  0  0  0  0  0  0
   94.0735   -3.6834   -1.0623 C   0  0  0  0  0  0  0  0  0  0  0  0
   93.1224   -2.7448   -0.8178 C   0  0  0  0  0  0  0  0  0  0  0  0
   95.1530   -1.7340   -0.5661 N   0  0  0  0  0  0  0  0  0  0  0  0
   93.8083   -1.5249   -0.5076 C   0  0  0  0  0  0  0  0  0  0  0  0
   93.1773   -0.3039   -0.1954 C   0  0  0  0  0  0  0  0  0  0  0  0
   93.8312    0.9055    0.1129 C   0  0  0  0  0  0  0  0  0  0  0  0
   93.1693    2.1368    0.4299 C   0  0  0  0  0  0  0  0  0  0  0  0
   94.1388    3.0586    0.6664 C   0  0  0  0  0  0  0  0  0  0  0  0
   95.3985    2.3955    0.4947 C   0  0  0  0  0  0  0  0  0  0  0  0
   95.1800    1.0912    0.1595 N   0  0  0  0  0  0  0  0  0  0  0  0
   96.6565    3.0050    0.6497 C   0  0  0  0  0  0  0  0  0  0  0  0
   96.6726    4.3727    1.0025 C   0  0  0  0  0  0  0  0  0  0  0  0
   96.6905    5.5478    1.3055 C   0  0  0  0  0  0  0  0  0  0  0  0
   96.7103    6.9166    1.6570 C   0  0  0  0  0  0  0  0  0  0  0  0
   95.5240    7.6368    1.8415 C   0  0  0  0  0  0  0  0  0  0  0  0
   95.5983    8.9749    2.1845 C   0  0  0  0  0  0  0  0  0  0  0  0
   96.7499    9.6209    2.3504 N   0  0  0  0  0  0  0  0  0  0  0  0
   97.8821    8.9434    2.1772 C   0  0  0  0  0  0  0  0  0  0  0  0
   97.9172    7.6038    1.8338 C   0  0  0  0  0  0  0  0  0  0  0  0
   97.9025    2.3716    0.4826 C   0  0  0  0  0  0  0  0  0  0  0  0
   99.1801    3.0077    0.6421 C   0  0  0  0  0  0  0  0  0  0  0  0
  100.1264    2.0665    0.3943 C   0  0  0  0  0  0  0  0  0  0  0  0
   99.4342    0.8476    0.0816 C   0  0  0  0  0  0  0  0  0  0  0  0
   98.0857    1.0682    0.1447 N   0  0  0  0  0  0  0  0  0  0  0  0
  101.1269   -0.3700   -0.2428 H   0  0  0  0  0  0  0  0  0  0  0  0
  101.1495   -2.9170   -0.9051 H   0  0  0  0  0  0  0  0  0  0  0  0
   99.2370   -4.7537   -1.3692 H   0  0  0  0  0  0  0  0  0  0  0  0
   94.3985   -7.7655   -2.1216 H   0  0  0  0  0  0  0  0  0  0  0  0
   94.4640  -10.1749   -2.7404 H   0  0  0  0  0  0  0  0  0  0  0  0
   98.5740  -10.2191   -2.7586 H   0  0  0  0  0  0  0  0  0  0  0  0
   98.6968   -7.8117   -2.1408 H   0  0  0  0  0  0  0  0  0  0  0  0
   93.9339   -4.7193   -1.3277 H   0  0  0  0  0  0  0  0  0  0  0  0
   92.0506   -2.8606   -0.8435 H   0  0  0  0  0  0  0  0  0  0  0  0
   92.0998    2.2704    0.4651 H   0  0  0  0  0  0  0  0  0  0  0  0
   94.0198    4.0967    0.9335 H   0  0  0  0  0  0  0  0  0  0  0  0
   94.5642    7.1502    1.7164 H   0  0  0  0  0  0  0  0  0  0  0  0
   94.6936    9.5574    2.3334 H   0  0  0  0  0  0  0  0  0  0  0  0
   98.8035    9.5007    2.3204 H   0  0  0  0  0  0  0  0  0  0  0  0
   98.8625    7.0909    1.7027 H   0  0  0  0  0  0  0  0  0  0  0  0
   99.3234    4.0428    0.9094 H   0  0  0  0  0  0  0  0  0  0  0  0
  101.1993    2.1760    0.4180 H   0  0  0  0  0  0  0  0  0  0  0  0
   45.5616   -0.3449   -0.2226 C   0  0  0  0  0  0  0  0  0  0  0  0
   46.7856   -0.3721   -0.2379 C   0  0  0  0  0  0  0  0  0  0  0  0
   48.1283   -0.4048   -0.2570 C   0  0  0  0  0  0  0  0  0  0  0  0
   49.3581   -0.4391   -0.2792 C   0  0  0  0  0  0  0  0  0  0  0  0
   50.6957   -0.4770   -0.3040 C   0  0  0  0  0  0  0  0  0  0  0  0
   51.9254   -0.5138   -0.3281 C   0  0  0  0  0  0  0  0  0  0  0  0
   53.2677   -0.5514   -0.3536 C   0  0  0  0  0  0  0  0  0  0  0  0
   54.4916   -0.5853   -0.3770 C   0  0  0  0  0  0  0  0  0  0  0  0
   64.1998   -0.6410   -0.4176 C   0  0  0  0  0  0  0  0  0  0  0  0
   65.4247   -0.6306   -0.4113 C   0  0  0  0  0  0  0  0  0  0  0  0
   66.7668   -0.6231   -0.4066 C   0  0  0  0  0  0  0  0  0  0  0  0
   67.9978   -0.6183   -0.4025 C   0  0  0  0  0  0  0  0  0  0  0  0
   69.3352   -0.6155   -0.4006 C   0  0  0  0  0  0  0  0  0  0  0  0
   70.5663   -0.6146   -0.4014 C   0  0  0  0  0  0  0  0  0  0  0  0
   71.9084   -0.6157   -0.4031 C   0  0  0  0  0  0  0  0  0  0  0  0
   73.1334   -0.6189   -0.4058 C   0  0  0  0  0  0  0  0  0  0  0  0
   82.8408   -0.5006   -0.3308 C   0  0  0  0  0  0  0  0  0  0  0  0
   84.0645   -0.4605   -0.3050 C   0  0  0  0  0  0  0  0  0  0  0  0
   85.4065   -0.4185   -0.2779 C   0  0  0  0  0  0  0  0  0  0  0  0
   86.6363   -0.3810   -0.2543 C   0  0  0  0  0  0  0  0  0  0  0  0
   87.9740   -0.3467   -0.2325 C   0  0  0  0  0  0  0  0  0  0  0  0
   89.2041   -0.3199   -0.2150 C   0  0  0  0  0  0  0  0  0  0  0  0
   90.5471   -0.3036   -0.2022 C   0  0  0  0  0  0  0  0  0  0  0  0
   91.7715   -0.2954   -0.1949 C   0  0  0  0  0  0  0  0  0  0  0  0
   59.3459   -0.6561   -0.4280 Zn  0  0  0  0  0  0  0  0  0  0  0  0
   55.8966   -0.6154   -0.3985 C   0  0  0  0  0  0  0  0  0  0  0  0
   56.5400    0.0991   -1.4288 C   0  0  0  0  0  0  0  0  0  0  0  0
   55.8668    0.8326   -2.4594 C   0  0  0  0  0  0  0  0  0  0  0  0
   56.8278    1.3674   -3.2574 C   0  0  0  0  0  0  0  0  0  0  0  0
   58.0924    0.9663   -2.7154 C   0  0  0  0  0  0  0  0  0  0  0  0
   57.8869    0.1978   -1.6075 N   0  0  0  0  0  0  0  0  0  0  0  0
   59.3452    1.3203   -3.2481 C   0  0  0  0  0  0  0  0  0  0  0  0
   59.3439    2.1116   -4.4187 C   0  0  0  0  0  0  0  0  0  0  0  0
   59.3407    2.7806   -5.4312 C   0  0  0  0  0  0  0  0  0  0  0  0
   59.3343    3.5547   -6.6139 C   0  0  0  0  0  0  0  0  0  0  0  0
   60.5272    3.9480   -7.2320 C   0  0  0  0  0  0  0  0  0  0  0  0
   60.4649    4.7007   -8.3911 C   0  0  0  0  0  0  0  0  0  0  0  0
   59.3193    5.0747   -8.9553 N   0  0  0  0  0  0  0  0  0  0  0  0
   58.1809    4.7054   -8.3734 C   0  0  0  0  0  0  0  0  0  0  0  0
   58.1336    3.9530   -7.2136 C   0  0  0  0  0  0  0  0  0  0  0  0
   60.5980    0.9568   -2.7228 C   0  0  0  0  0  0  0  0  0  0  0  0
   61.8625    1.3479   -3.2722 C   0  0  0  0  0  0  0  0  0  0  0  0
   62.8239    0.8032   -2.4813 C   0  0  0  0  0  0  0  0  0  0  0  0
   60.8042    0.1853   -1.6167 N   0  0  0  0  0  0  0  0  0  0  0  0
   62.1511    0.0741   -1.4475 C   0  0  0  0  0  0  0  0  0  0  0  0
   62.7955   -0.6502   -0.4239 C   0  0  0  0  0  0  0  0  0  0  0  0
   62.1513   -1.3886    0.5897 C   0  0  0  0  0  0  0  0  0  0  0  0
   62.8244   -2.1348    1.6110 C   0  0  0  0  0  0  0  0  0  0  0  0
   61.8631   -2.7077    2.3818 C   0  0  0  0  0  0  0  0  0  0  0  0
   60.5985   -2.3112    1.8366 C   0  0  0  0  0  0  0  0  0  0  0  0
   60.8045   -1.5120    0.7503 N   0  0  0  0  0  0  0  0  0  0  0  0
   59.3457   -2.6890    2.3517 C   0  0  0  0  0  0  0  0  0  0  0  0
   59.3444   -3.5369    3.4820 C   0  0  0  0  0  0  0  0  0  0  0  0
   59.3410   -4.2713    4.4482 C   0  0  0  0  0  0  0  0  0  0  0  0
   59.3349   -5.1285    5.5721 C   0  0  0  0  0  0  0  0  0  0  0  0
   58.1344   -5.5600    6.1488 C   0  0  0  0  0  0  0  0  0  0  0  0
   58.1821   -6.4003    7.2467 C   0  0  0  0  0  0  0  0  0  0  0  0
   59.3207   -6.8246    7.7893 N   0  0  0  0  0  0  0  0  0  0  0  0
   60.4661   -6.4189    7.2470 C   0  0  0  0  0  0  0  0  0  0  0  0
   60.5279   -5.5794    6.1491 C   0  0  0  0  0  0  0  0  0  0  0  0
   58.0928   -2.2987    1.8451 C   0  0  0  0  0  0  0  0  0  0  0  0
   56.8283   -2.6824    2.3998 C   0  0  0  0  0  0  0  0  0  0  0  0
   55.8672   -2.0993    1.6365 C   0  0  0  0  0  0  0  0  0  0  0  0
   56.5402   -1.3600    0.6100 C   0  0  0  0  0  0  0  0  0  0  0  0
   57.8872   -1.4977    0.7605 N   0  0  0  0  0  0  0  0  0  0  0  0
   54.7963    0.9208   -2.5550 H   0  0  0  0  0  0  0  0  0  0  0  0
   56.6991    1.9812   -4.1347 H   0  0  0  0  0  0  0  0  0  0  0  0
   61.4825    3.6647   -6.8068 H   0  0  0  0  0  0  0  0  0  0  0  0
   61.3748    5.0189   -8.8919 H   0  0  0  0  0  0  0  0  0  0  0  0
   57.2647    5.0274   -8.8600 H   0  0  0  0  0  0  0  0  0  0  0  0
   57.1839    3.6736   -6.7735 H   0  0  0  0  0  0  0  0  0  0  0  0
   61.9908    1.9620   -4.1493 H   0  0  0  0  0  0  0  0  0  0  0  0
   63.8945    0.8824   -2.5836 H   0  0  0  0  0  0  0  0  0  0  0  0
   63.8949   -2.2078    1.7175 H   0  0  0  0  0  0  0  0  0  0  0  0
   61.9915   -3.3418    3.2446 H   0  0  0  0  0  0  0  0  0  0  0  0
   57.1845   -5.2388    5.7386 H   0  0  0  0  0  0  0  0  0  0  0  0
   57.2660   -6.7505    7.7138 H   0  0  0  0  0  0  0  0  0  0  0  0
   61.3762   -6.7839    7.7144 H   0  0  0  0  0  0  0  0  0  0  0  0
   61.4831   -5.2738    5.7393 H   0  0  0  0  0  0  0  0  0  0  0  0
   56.6998   -3.3153    3.2634 H   0  0  0  0  0  0  0  0  0  0  0  0
   54.7968   -2.1615    1.7509 H   0  0  0  0  0  0  0  0  0  0  0  0
   77.9873   -0.6036   -0.3997 Zn  0  0  0  0  0  0  0  0  0  0  0  0
   74.5377   -0.6198   -0.4077 C   0  0  0  0  0  0  0  0  0  0  0  0
   75.1810    0.1117   -1.4269 C   0  0  0  0  0  0  0  0  0  0  0  0
   74.5071    0.8388   -2.4614 C   0  0  0  0  0  0  0  0  0  0  0  0
   75.4677    1.3923   -3.2471 C   0  0  0  0  0  0  0  0  0  0  0  0
   76.7328    1.0089   -2.6936 C   0  0  0  0  0  0  0  0  0  0  0  0
   76.5276    0.2328   -1.5905 N   0  0  0  0  0  0  0  0  0  0  0  0
   77.9851    1.3836   -3.2121 C   0  0  0  0  0  0  0  0  0  0  0  0
   77.9852    2.1773   -4.3811 C   0  0  0  0  0  0  0  0  0  0  0  0
   77.9866    2.8481   -5.3925 C   0  0  0  0  0  0  0  0  0  0  0  0
   77.9894    3.6244   -6.5737 C   0  0  0  0  0  0  0  0  0  0  0  0
   79.1877    4.0374   -7.1681 C   0  0  0  0  0  0  0  0  0  0  0  0
   79.1362    4.7919   -8.3265 C   0  0  0  0  0  0  0  0  0  0  0  0
   77.9960    5.1498   -8.9117 N   0  0  0  0  0  0  0  0  0  0  0  0
   76.8525    4.7615   -8.3527 C   0  0  0  0  0  0  0  0  0  0  0  0
   76.7945    4.0056   -7.1955 C   0  0  0  0  0  0  0  0  0  0  0  0
   79.2382    1.0386   -2.6743 C   0  0  0  0  0  0  0  0  0  0  0  0
   80.5020    1.4524   -3.2086 C   0  0  0  0  0  0  0  0  0  0  0  0
   81.4635    0.9223   -2.4081 C   0  0  0  0  0  0  0  0  0  0  0  0
   79.4448    0.2674   -1.5685 N   0  0  0  0  0  0  0  0  0  0  0  0
   80.7916    0.1787   -1.3841 C   0  0  0  0  0  0  0  0  0  0  0  0
   81.4362   -0.5393   -0.3569 C   0  0  0  0  0  0  0  0  0  0  0  0
   80.7940   -1.2971    0.6428 C   0  0  0  0  0  0  0  0  0  0  0  0
   81.4682   -2.0410    1.6651 C   0  0  0  0  0  0  0  0  0  0  0  0
   80.5082   -2.6351    2.4213 C   0  0  0  0  0  0  0  0  0  0  0  0
   79.2432   -2.2536    1.8665 C   0  0  0  0  0  0  0  0  0  0  0  0
   79.4474   -1.4432    0.7886 N   0  0  0  0  0  0  0  0  0  0  0  0
   77.9910   -2.6534    2.3674 C   0  0  0  0  0  0  0  0  0  0  0  0
   77.9934   -3.5097    3.4914 C   0  0  0  0  0  0  0  0  0  0  0  0
   77.9964   -4.2520    4.4514 C   0  0  0  0  0  0  0  0  0  0  0  0
   78.0019   -5.1188    5.5680 C   0  0  0  0  0  0  0  0  0  0  0  0
   76.8085   -5.5822    6.1343 C   0  0  0  0  0  0  0  0  0  0  0  0
   76.8695   -6.4311    7.2250 C   0  0  0  0  0  0  0  0  0  0  0  0
   78.0144   -6.8346    7.7700 N   0  0  0  0  0  0  0  0  0  0  0  0
   79.1533   -6.3983    7.2376 C   0  0  0  0  0  0  0  0  0  0  0  0
   79.2019   -5.5480    6.1475 C   0  0  0  0  0  0  0  0  0  0  0  0
   76.7376   -2.2784    1.8517 C   0  0  0  0  0  0  0  0  0  0  0  0
   75.4737   -2.6844    2.3916 C   0  0  0  0  0  0  0  0  0  0  0  0
   74.5114   -2.1128    1.6211 C   0  0  0  0  0  0  0  0  0  0  0  0
   75.1831   -1.3580    0.6051 C   0  0  0  0  0  0  0  0  0  0  0  0
   76.5301   -1.4746    0.7691 N   0  0  0  0  0  0  0  0  0  0  0  0
   73.4364    0.9107   -2.5678 H   0  0  0  0  0  0  0  0  0  0  0  0
   75.3385    2.0078   -4.1231 H   0  0  0  0  0  0  0  0  0  0  0  0
   80.1389    3.7676   -6.7252 H   0  0  0  0  0  0  0  0  0  0  0  0
   80.0506    5.1253   -8.8089 H   0  0  0  0  0  0  0  0  0  0  0  0
   75.9409    5.0706   -8.8561 H   0  0  0  0  0  0  0  0  0  0  0  0
   75.8409    3.7105   -6.7745 H   0  0  0  0  0  0  0  0  0  0  0  0
   80.6297    2.0706   -4.0829 H   0  0  0  0  0  0  0  0  0  0  0  0
   82.5337    1.0195   -2.4984 H   0  0  0  0  0  0  0  0  0  0  0  0
   82.5387   -2.0985    1.7818 H   0  0  0  0  0  0  0  0  0  0  0  0
   80.6379   -3.2742    3.2802 H   0  0  0  0  0  0  0  0  0  0  0  0
   75.8538   -5.2789    5.7218 H   0  0  0  0  0  0  0  0  0  0  0  0
   75.9591   -6.8060    7.6839 H   0  0  0  0  0  0  0  0  0  0  0  0
   80.0689   -6.7470    7.7067 H   0  0  0  0  0  0  0  0  0  0  0  0
   80.1520   -5.2173    5.7455 H   0  0  0  0  0  0  0  0  0  0  0  0
   75.3463   -3.3234    3.2509 H   0  0  0  0  0  0  0  0  0  0  0  0
   73.4409   -2.1922    1.7243 H   0  0  0  0  0  0  0  0  0  0  0  0
  2  3  4  0  0  0  0
  3  4  4  0  0  0  0
  4  5  2  0  0  0  0
  5  6  4  0  0  0  0
  1  7  1  0  0  0  0
  3  7  4  0  0  0  0
  6  7  4  0  0  0  0
  6  8  4  0  0  0  0
  8  9  1  0  0  0  0
  9 10  3  0  0  0  0
 10 11  1  0  0  0  0
 11 12  4  0  0  0  0
 12 13  4  0  0  0  0
 13 14  4  0  0  0  0
 14 15  4  0  0  0  0
 11 16  4  0  0  0  0
 15 16  4  0  0  0  0
  8 17  4  0  0  0  0
 17 18  4  0  0  0  0
 18 19  2  0  0  0  0
  1 20  1  0  0  0  0
 17 20  4  0  0  0  0
 19 21  4  0  0  0  0
 20 21  4  0  0  0  0
 21 22  4  0  0  0  0
 22 23  4  0  0  0  0
 23 24  4  0  0  0  0
 24 25  2  0  0  0  0
 25 26  4  0  0  0  0
  1 27  1  0  0  0  0
 23 27  4  0  0  0  0
 26 27  4  0  0  0  0
 26 28  4  0  0  0  0
 28 29  1  0  0  0  0
 29 30  3  0  0  0  0
 30 31  1  0  0  0  0
 31 32  4  0  0  0  0
 32 33  4  0  0  0  0
 33 34  4  0  0  0  0
 34 35  4  0  0  0  0
 31 36  4  0  0  0  0
 35 36  4  0  0  0  0
 28 37  4  0  0  0  0
 37 38  4  0  0  0  0
 38 39  2  0  0  0  0
  2 40  4  0  0  0  0
 39 40  4  0  0  0  0
  1 41  1  0  0  0  0
 37 41  4  0  0  0  0
 40 41  4  0  0  0  0
  2 42  1  0  0  0  0
  4 43  1  0  0  0  0
  5 44  1  0  0  0  0
 12 45  1  0  0  0  0
 13 46  1  0  0  0  0
 15 47  1  0  0  0  0
 16 48  1  0  0  0  0
 18 49  1  0  0  0  0
 19 50  1  0  0  0  0
 24 51  1  0  0  0  0
 25 52  1  0  0  0  0
 32 53  1  0  0  0  0
 33 54  1  0  0  0  0
 35 55  1  0  0  0  0
 36 56  1  0  0  0  0
 38 57  1  0  0  0  0
 39 58  1  0  0  0  0
 60 61  4  0  0  0  0
 61 62  4  0  0  0  0
 62 63  2  0  0  0  0
 63 64  4  0  0  0  0
 59 65  1  0  0  0  0
 61 65  4  0  0  0  0
 64 65  4  0  0  0  0
 64 66  4  0  0  0  0
 66 67  1  0  0  0  0
 67 68  3  0  0  0  0
 68 69  1  0  0  0  0
 69 70  4  0  0  0  0
 70 71  4  0  0  0  0
 71 72  4  0  0  0  0
 72 73  4  0  0  0  0
 69 74  4  0  0  0  0
 73 74  4  0  0  0  0
 66 75  4  0  0  0  0
 75 76  4  0  0  0  0
 76 77  2  0  0  0  0
 59 78  1  0  0  0  0
 75 78  4  0  0  0  0
 77 79  4  0  0  0  0
 78 79  4  0  0  0  0
 79 80  4  0  0  0  0
 80 81  4  0  0  0  0
 81 82  4  0  0  0  0
 82 83  2  0  0  0  0
 83 84  4  0  0  0  0
 59 85  1  0  0  0  0
 81 85  4  0  0  0  0
 84 85  4  0  0  0  0
 84 86  4  0  0  0  0
 86 87  1  0  0  0  0
 87 88  3  0  0  0  0
 88 89  1  0  0  0  0
 89 90  4  0  0  0  0
 90 91  4  0  0  0  0
 91 92  4  0  0  0  0
 92 93  4  0  0  0  0
 89 94  4  0  0  0  0
 93 94  4  0  0  0  0
 86 95  4  0  0  0  0
 95 96  4  0  0  0  0
 96 97  2  0  0  0  0
 60 98  4  0  0  0  0
 97 98  4  0  0  0  0
 59 99  1  0  0  0  0
 95 99  4  0  0  0  0
 98 99  4  0  0  0  0
 60100  1  0  0  0  0
 62101  1  0  0  0  0
 63102  1  0  0  0  0
 70103  1  0  0  0  0
 71104  1  0  0  0  0
 73105  1  0  0  0  0
 74106  1  0  0  0  0
 76107  1  0  0  0  0
 77108  1  0  0  0  0
 82109  1  0  0  0  0
 83110  1  0  0  0  0
 90111  1  0  0  0  0
 91112  1  0  0  0  0
 93113  1  0  0  0  0
 94114  1  0  0  0  0
 96115  1  0  0  0  0
 97116  1  0  0  0  0
 22117  4  0  0  0  0
117118  3  0  0  0  0
118119  4  0  0  0  0
119120  3  0  0  0  0
120121  4  0  0  0  0
121122  3  0  0  0  0
122123  4  0  0  0  0
123124  3  0  0  0  0
125126  3  0  0  0  0
126127  4  0  0  0  0
127128  3  0  0  0  0
128129  4  0  0  0  0
129130  3  0  0  0  0
130131  4  0  0  0  0
131132  3  0  0  0  0
133134  3  0  0  0  0
134135  4  0  0  0  0
135136  3  0  0  0  0
136137  4  0  0  0  0
137138  3  0  0  0  0
138139  4  0  0  0  0
 80140  4  0  0  0  0
139140  3  0  0  0  0
124142  4  0  0  0  0
142143  4  0  0  0  0
143144  4  0  0  0  0
144145  2  0  0  0  0
145146  4  0  0  0  0
141147  1  0  0  0  0
143147  4  0  0  0  0
146147  4  0  0  0  0
146148  4  0  0  0  0
148149  1  0  0  0  0
149150  3  0  0  0  0
150151  1  0  0  0  0
151152  4  0  0  0  0
152153  4  0  0  0  0
153154  4  0  0  0  0
154155  4  0  0  0  0
151156  4  0  0  0  0
155156  4  0  0  0  0
148157  4  0  0  0  0
157158  4  0  0  0  0
158159  2  0  0  0  0
141160  1  0  0  0  0
157160  4  0  0  0  0
159161  4  0  0  0  0
160161  4  0  0  0  0
125162  4  0  0  0  0
161162  4  0  0  0  0
162163  4  0  0  0  0
163164  4  0  0  0  0
164165  2  0  0  0  0
165166  4  0  0  0  0
141167  1  0  0  0  0
163167  4  0  0  0  0
166167  4  0  0  0  0
166168  4  0  0  0  0
168169  1  0  0  0  0
169170  3  0  0  0  0
170171  1  0  0  0  0
171172  4  0  0  0  0
172173  4  0  0  0  0
173174  4  0  0  0  0
174175  4  0  0  0  0
171176  4  0  0  0  0
175176  4  0  0  0  0
168177  4  0  0  0  0
177178  4  0  0  0  0
178179  2  0  0  0  0
142180  4  0  0  0  0
179180  4  0  0  0  0
141181  1  0  0  0  0
177181  4  0  0  0  0
180181  4  0  0  0  0
144182  1  0  0  0  0
145183  1  0  0  0  0
152184  1  0  0  0  0
153185  1  0  0  0  0
155186  1  0  0  0  0
156187  1  0  0  0  0
158188  1  0  0  0  0
159189  1  0  0  0  0
164190  1  0  0  0  0
165191  1  0  0  0  0
172192  1  0  0  0  0
173193  1  0  0  0  0
175194  1  0  0  0  0
176195  1  0  0  0  0
178196  1  0  0  0  0
179197  1  0  0  0  0
132199  4  0  0  0  0
199200  4  0  0  0  0
200201  4  0  0  0  0
201202  2  0  0  0  0
202203  4  0  0  0  0
198204  1  0  0  0  0
200204  4  0  0  0  0
203204  4  0  0  0  0
203205  4  0  0  0  0
205206  1  0  0  0  0
206207  3  0  0  0  0
207208  1  0  0  0  0
208209  4  0  0  0  0
209210  4  0  0  0  0
210211  4  0  0  0  0
211212  4  0  0  0  0
208213  4  0  0  0  0
212213  4  0  0  0  0
205214  4  0  0  0  0
214215  4  0  0  0  0
215216  2  0  0  0  0
198217  1  0  0  0  0
214217  4  0  0  0  0
216218  4  0  0  0  0
217218  4  0  0  0  0
133219  4  0  0  0  0
218219  4  0  0  0  0
219220  4  0  0  0  0
220221  4  0  0  0  0
221222  2  0  0  0  0
222223  4  0  0  0  0
198224  1  0  0  0  0
220224  4  0  0  0  0
223224  4  0  0  0  0
223225  4  0  0  0  0
225226  1  0  0  0  0
226227  3  0  0  0  0
227228  1  0  0  0  0
228229  4  0  0  0  0
229230  4  0  0  0  0
230231  4  0  0  0  0
231232  4  0  0  0  0
228233  4  0  0  0  0
232233  4  0  0  0  0
225234  4  0  0  0  0
234235  4  0  0  0  0
235236  2  0  0  0  0
199237  4  0  0  0  0
236237  4  0  0  0  0
198238  1  0  0  0  0
234238  4  0  0  0  0
237238  4  0  0  0  0
201239  1  0  0  0  0
202240  1  0  0  0  0
209241  1  0  0  0  0
210242  1  0  0  0  0
212243  1  0  0  0  0
213244  1  0  0  0  0
215245  1  0  0  0  0
216246  1  0  0  0  0
221247  1  0  0  0  0
222248  1  0  0  0  0
229249  1  0  0  0  0
230250  1  0  0  0  0
232251  1  0  0  0  0
233252  1  0  0  0  0
235253  1  0  0  0  0
236254  1  0  0  0  0
M  END
