 xtb: 6.5.1 (b24c23e)
          07302206313D

258297  0     0  0            999 V2000
   53.9967    0.0310    0.0115 Ni  0  0  0  0  0  0  0  0  0  0  0  0
   50.6033    0.1286    0.0292 C   0  0  0  0  0  0  0  0  0  0  0  0
   51.2513   -0.0443    1.2341 C   0  0  0  0  0  0  0  0  0  0  0  0
   50.5676   -0.1822    2.4839 C   0  0  0  0  0  0  0  0  0  0  0  0
   51.5210   -0.2761    3.4393 C   0  0  0  0  0  0  0  0  0  0  0  0
   52.7875   -0.1947    2.7714 C   0  0  0  0  0  0  0  0  0  0  0  0
   52.6115   -0.0653    1.4165 N   0  0  0  0  0  0  0  0  0  0  0  0
   54.0063   -0.1522    3.4347 C   0  0  0  0  0  0  0  0  0  0  0  0
   55.2193   -0.0132    2.7743 C   0  0  0  0  0  0  0  0  0  0  0  0
   56.4846    0.0388    3.4427 C   0  0  0  0  0  0  0  0  0  0  0  0
   57.4334    0.1078    2.4794 C   0  0  0  0  0  0  0  0  0  0  0  0
   55.3927    0.0227    1.4095 N   0  0  0  0  0  0  0  0  0  0  0  0
   56.7477    0.0818    1.2262 C   0  0  0  0  0  0  0  0  0  0  0  0
   57.4106    0.0388   -0.0012 C   0  0  0  0  0  0  0  0  0  0  0  0
   56.7387   -0.0305   -1.2225 C   0  0  0  0  0  0  0  0  0  0  0  0
   57.4123   -0.1372   -2.4778 C   0  0  0  0  0  0  0  0  0  0  0  0
   56.4540   -0.1298   -3.4346 C   0  0  0  0  0  0  0  0  0  0  0  0
   55.1975   -0.0023   -2.7600 C   0  0  0  0  0  0  0  0  0  0  0  0
   53.9793    0.1086   -3.4168 C   0  0  0  0  0  0  0  0  0  0  0  0
   53.9712    0.1321   -4.8987 C   0  0  0  0  0  0  0  0  0  0  0  0
   53.3295   -0.8797   -5.6172 C   0  0  0  0  0  0  0  0  0  0  0  0
   53.3260   -0.8586   -6.9998 C   0  0  0  0  0  0  0  0  0  0  0  0
   53.9588    0.1777   -7.6890 C   0  0  0  0  0  0  0  0  0  0  0  0
   53.9257    0.1581   -9.1712 C   0  0  0  0  0  0  0  0  0  0  0  0
   54.5673    1.1921   -9.7361 O   0  0  0  0  0  0  0  0  0  0  0  0
   53.3820   -0.6928   -9.8282 O   0  0  0  0  0  0  0  0  0  0  0  0
   54.5974    1.1926   -6.9758 C   0  0  0  0  0  0  0  0  0  0  0  0
   54.6043    1.1665   -5.5921 C   0  0  0  0  0  0  0  0  0  0  0  0
   52.7687    0.2095   -2.7441 C   0  0  0  0  0  0  0  0  0  0  0  0
   51.5058    0.3927   -3.3983 C   0  0  0  0  0  0  0  0  0  0  0  0
   50.5613    0.4067   -2.4294 C   0  0  0  0  0  0  0  0  0  0  0  0
   51.2477    0.2364   -1.1851 C   0  0  0  0  0  0  0  0  0  0  0  0
   52.6027    0.1429   -1.3837 N   0  0  0  0  0  0  0  0  0  0  0  0
   55.3825    0.0256   -1.3967 N   0  0  0  0  0  0  0  0  0  0  0  0
   54.0111   -0.2466    4.9149 C   0  0  0  0  0  0  0  0  0  0  0  0
   53.6094   -1.4261    5.5461 C   0  0  0  0  0  0  0  0  0  0  0  0
   53.6205   -1.5164    6.9259 C   0  0  0  0  0  0  0  0  0  0  0  0
   54.0287   -0.4277    7.6987 C   0  0  0  0  0  0  0  0  0  0  0  0
   54.0247   -0.5735    9.1744 C   0  0  0  0  0  0  0  0  0  0  0  0
   54.4525    0.5202    9.8228 O   0  0  0  0  0  0  0  0  0  0  0  0
   53.6750   -1.5673    9.7586 O   0  0  0  0  0  0  0  0  0  0  0  0
   54.4254    0.7540    7.0724 C   0  0  0  0  0  0  0  0  0  0  0  0
   54.4175    0.8409    5.6910 C   0  0  0  0  0  0  0  0  0  0  0  0
   49.5205    0.1730    0.0359 H   0  0  0  0  0  0  0  0  0  0  0  0
   49.4951   -0.1962    2.5950 H   0  0  0  0  0  0  0  0  0  0  0  0
   51.3929   -0.3751    4.5049 H   0  0  0  0  0  0  0  0  0  0  0  0
   56.6197    0.0133    4.5116 H   0  0  0  0  0  0  0  0  0  0  0  0
   58.5046    0.1565    2.5902 H   0  0  0  0  0  0  0  0  0  0  0  0
   58.4813   -0.2124   -2.5945 H   0  0  0  0  0  0  0  0  0  0  0  0
   56.5764   -0.2075   -4.5025 H   0  0  0  0  0  0  0  0  0  0  0  0
   52.8469   -1.6904   -5.0831 H   0  0  0  0  0  0  0  0  0  0  0  0
   52.8353   -1.6436   -7.5645 H   0  0  0  0  0  0  0  0  0  0  0  0
   54.4990    1.1063  -10.7009 H   0  0  0  0  0  0  0  0  0  0  0  0
   55.0861    2.0008   -7.5068 H   0  0  0  0  0  0  0  0  0  0  0  0
   55.0910    1.9607   -5.0373 H   0  0  0  0  0  0  0  0  0  0  0  0
   51.3743    0.5027   -4.4624 H   0  0  0  0  0  0  0  0  0  0  0  0
   49.4934    0.5189   -2.5276 H   0  0  0  0  0  0  0  0  0  0  0  0
   53.3026   -2.2754    4.9463 H   0  0  0  0  0  0  0  0  0  0  0  0
   53.3161   -2.4306    7.4236 H   0  0  0  0  0  0  0  0  0  0  0  0
   54.4198    0.3443   10.7772 H   0  0  0  0  0  0  0  0  0  0  0  0
   54.7382    1.6029    7.6688 H   0  0  0  0  0  0  0  0  0  0  0  0
   54.7159    1.7623    5.2037 H   0  0  0  0  0  0  0  0  0  0  0  0
   94.2893    0.0408   -0.0481 Ni  0  0  0  0  0  0  0  0  0  0  0  0
   97.6815    0.1367   -0.0570 C   0  0  0  0  0  0  0  0  0  0  0  0
   97.0327    0.0929   -1.2733 C   0  0  0  0  0  0  0  0  0  0  0  0
   97.7145    0.0861   -2.5317 C   0  0  0  0  0  0  0  0  0  0  0  0
   96.7600    0.1094   -3.4903 C   0  0  0  0  0  0  0  0  0  0  0  0
   95.4946    0.1316   -2.8158 C   0  0  0  0  0  0  0  0  0  0  0  0
   95.6725    0.1043   -1.4553 N   0  0  0  0  0  0  0  0  0  0  0  0
   94.2767    0.2755   -3.4667 C   0  0  0  0  0  0  0  0  0  0  0  0
   93.0662    0.3547   -2.7916 C   0  0  0  0  0  0  0  0  0  0  0  0
   91.8016    0.5128   -3.4444 C   0  0  0  0  0  0  0  0  0  0  0  0
   90.8538    0.4639   -2.4786 C   0  0  0  0  0  0  0  0  0  0  0  0
   92.8934    0.2133   -1.4336 N   0  0  0  0  0  0  0  0  0  0  0  0
   91.5392    0.2605   -1.2417 C   0  0  0  0  0  0  0  0  0  0  0  0
   90.8767    0.0436   -0.0322 C   0  0  0  0  0  0  0  0  0  0  0  0
   91.5502   -0.1967    1.1667 C   0  0  0  0  0  0  0  0  0  0  0  0
   90.8796   -0.4789    2.3961 C   0  0  0  0  0  0  0  0  0  0  0  0
   91.8387   -0.5838    3.3465 C   0  0  0  0  0  0  0  0  0  0  0  0
   93.0926   -0.3499    2.6959 C   0  0  0  0  0  0  0  0  0  0  0  0
   94.3091   -0.2964    3.3631 C   0  0  0  0  0  0  0  0  0  0  0  0
   94.3183   -0.4489    4.8371 C   0  0  0  0  0  0  0  0  0  0  0  0
   94.9878   -1.5214    5.4317 C   0  0  0  0  0  0  0  0  0  0  0  0
   94.9935   -1.6637    6.8071 C   0  0  0  0  0  0  0  0  0  0  0  0
   94.3351   -0.7332    7.6133 C   0  0  0  0  0  0  0  0  0  0  0  0
   94.3716   -0.9272    9.0829 C   0  0  0  0  0  0  0  0  0  0  0  0
   93.7057    0.0163    9.7654 O   0  0  0  0  0  0  0  0  0  0  0  0
   94.9380   -1.8359    9.6348 O   0  0  0  0  0  0  0  0  0  0  0  0
   93.6684    0.3415    7.0243 C   0  0  0  0  0  0  0  0  0  0  0  0
   93.6594    0.4790    5.6472 C   0  0  0  0  0  0  0  0  0  0  0  0
   95.5171   -0.0954    2.7081 C   0  0  0  0  0  0  0  0  0  0  0  0
   96.7782    0.0298    3.3790 C   0  0  0  0  0  0  0  0  0  0  0  0
   97.7221    0.1582    2.4179 C   0  0  0  0  0  0  0  0  0  0  0  0
   97.0371    0.1168    1.1620 C   0  0  0  0  0  0  0  0  0  0  0  0
   95.6830   -0.0082    1.3488 N   0  0  0  0  0  0  0  0  0  0  0  0
   92.9057   -0.1487    1.3474 N   0  0  0  0  0  0  0  0  0  0  0  0
   94.2701    0.3589   -4.9475 C   0  0  0  0  0  0  0  0  0  0  0  0
   94.6483   -0.7450   -5.7152 C   0  0  0  0  0  0  0  0  0  0  0  0
   94.6340   -0.6712   -7.0960 C   0  0  0  0  0  0  0  0  0  0  0  0
   94.2458    0.5088   -7.7332 C   0  0  0  0  0  0  0  0  0  0  0  0
   94.2439    0.5381   -9.2156 C   0  0  0  0  0  0  0  0  0  0  0  0
   93.8383    1.7093   -9.7289 O   0  0  0  0  0  0  0  0  0  0  0  0
   94.5711   -0.3871   -9.9145 O   0  0  0  0  0  0  0  0  0  0  0  0
   93.8733    1.6157   -6.9700 C   0  0  0  0  0  0  0  0  0  0  0  0
   93.8844    1.5384   -5.5881 C   0  0  0  0  0  0  0  0  0  0  0  0
   98.7643    0.1809   -0.0594 H   0  0  0  0  0  0  0  0  0  0  0  0
   98.7868    0.0730   -2.6452 H   0  0  0  0  0  0  0  0  0  0  0  0
   96.8870    0.1283   -4.5605 H   0  0  0  0  0  0  0  0  0  0  0  0
   91.6657    0.6325   -4.5067 H   0  0  0  0  0  0  0  0  0  0  0  0
   89.7833    0.5400   -2.5801 H   0  0  0  0  0  0  0  0  0  0  0  0
   89.8119   -0.5834    2.5011 H   0  0  0  0  0  0  0  0  0  0  0  0
   91.7186   -0.8029    4.3948 H   0  0  0  0  0  0  0  0  0  0  0  0
   95.4903   -2.2504    4.8062 H   0  0  0  0  0  0  0  0  0  0  0  0
   95.5059   -2.4968    7.2756 H   0  0  0  0  0  0  0  0  0  0  0  0
   93.7776   -0.1812   10.7134 H   0  0  0  0  0  0  0  0  0  0  0  0
   93.1597    1.0682    7.6466 H   0  0  0  0  0  0  0  0  0  0  0  0
   93.1510    1.3202    5.1897 H   0  0  0  0  0  0  0  0  0  0  0  0
   96.9093    0.0250    4.4489 H   0  0  0  0  0  0  0  0  0  0  0  0
   98.7890    0.2696    2.5284 H   0  0  0  0  0  0  0  0  0  0  0  0
   94.9392   -1.6649   -5.2210 H   0  0  0  0  0  0  0  0  0  0  0  0
   94.9200   -1.5258   -7.6993 H   0  0  0  0  0  0  0  0  0  0  0  0
   93.8660    1.6466  -10.6975 H   0  0  0  0  0  0  0  0  0  0  0  0
   93.5764    2.5350   -7.4608 H   0  0  0  0  0  0  0  0  0  0  0  0
   93.6048    2.4013   -4.9943 H   0  0  0  0  0  0  0  0  0  0  0  0
   60.0401    0.0497   -0.0122 C   0  0  0  0  0  0  0  0  0  0  0  0
   58.8197    0.0449   -0.0071 C   0  0  0  0  0  0  0  0  0  0  0  0
   61.3931    0.0518   -0.0159 C   0  0  0  0  0  0  0  0  0  0  0  0
   62.6135    0.0529   -0.0193 C   0  0  0  0  0  0  0  0  0  0  0  0
   73.4701    0.0349   -0.0033 C   0  0  0  0  0  0  0  0  0  0  0  0
   72.2487    0.0346   -0.0144 C   0  0  0  0  0  0  0  0  0  0  0  0
   74.8203    0.0335    0.0062 C   0  0  0  0  0  0  0  0  0  0  0  0
   76.0418    0.0353    0.0137 C   0  0  0  0  0  0  0  0  0  0  0  0
   86.8951    0.0580   -0.0110 C   0  0  0  0  0  0  0  0  0  0  0  0
   85.6745    0.0601   -0.0067 C   0  0  0  0  0  0  0  0  0  0  0  0
   88.2476    0.0540   -0.0177 C   0  0  0  0  0  0  0  0  0  0  0  0
   89.4681    0.0482   -0.0249 C   0  0  0  0  0  0  0  0  0  0  0  0
   67.4322    0.0421   -0.0345 Ni  0  0  0  0  0  0  0  0  0  0  0  0
   64.0218    0.0496   -0.0247 C   0  0  0  0  0  0  0  0  0  0  0  0
   64.6900   -1.1649   -0.1943 C   0  0  0  0  0  0  0  0  0  0  0  0
   64.0213   -2.4093   -0.4043 C   0  0  0  0  0  0  0  0  0  0  0  0
   64.9740   -3.3724   -0.3759 C   0  0  0  0  0  0  0  0  0  0  0  0
   66.2215   -2.7122   -0.1376 C   0  0  0  0  0  0  0  0  0  0  0  0
   66.0408   -1.3500   -0.0759 N   0  0  0  0  0  0  0  0  0  0  0  0
   67.4238   -3.3746    0.0763 C   0  0  0  0  0  0  0  0  0  0  0  0
   68.6292   -2.7061    0.2466 C   0  0  0  0  0  0  0  0  0  0  0  0
   69.8732   -3.3554    0.5290 C   0  0  0  0  0  0  0  0  0  0  0  0
   70.8303   -2.3966    0.4986 C   0  0  0  0  0  0  0  0  0  0  0  0
   68.8173   -1.3509    0.0977 N   0  0  0  0  0  0  0  0  0  0  0  0
   70.1677   -1.1653    0.2087 C   0  0  0  0  0  0  0  0  0  0  0  0
   70.8436    0.0358   -0.0244 C   0  0  0  0  0  0  0  0  0  0  0  0
   70.1736    1.2383   -0.2675 C   0  0  0  0  0  0  0  0  0  0  0  0
   70.8420    2.4650   -0.5634 C   0  0  0  0  0  0  0  0  0  0  0  0
   69.8881    3.4265   -0.6085 C   0  0  0  0  0  0  0  0  0  0  0  0
   68.6407    2.7841   -0.3255 C   0  0  0  0  0  0  0  0  0  0  0  0
   67.4382    3.4584   -0.1576 C   0  0  0  0  0  0  0  0  0  0  0  0
   67.4397    4.9380   -0.2184 C   0  0  0  0  0  0  0  0  0  0  0  0
   68.2020    5.6827    0.6855 C   0  0  0  0  0  0  0  0  0  0  0  0
   68.2030    7.0640    0.6250 C   0  0  0  0  0  0  0  0  0  0  0  0
   67.4458    7.7264   -0.3430 C   0  0  0  0  0  0  0  0  0  0  0  0
   67.4832    9.2085   -0.3706 C   0  0  0  0  0  0  0  0  0  0  0  0
   66.7176    9.7470   -1.3315 O   0  0  0  0  0  0  0  0  0  0  0  0
   68.1319    9.8863    0.3852 O   0  0  0  0  0  0  0  0  0  0  0  0
   66.6837    6.9874   -1.2484 C   0  0  0  0  0  0  0  0  0  0  0  0
   66.6801    5.6051   -1.1829 C   0  0  0  0  0  0  0  0  0  0  0  0
   66.2343    2.8019    0.0664 C   0  0  0  0  0  0  0  0  0  0  0  0
   64.9915    3.4679    0.3123 C   0  0  0  0  0  0  0  0  0  0  0  0
   64.0350    2.5088    0.3516 C   0  0  0  0  0  0  0  0  0  0  0  0
   64.6969    1.2611    0.1393 C   0  0  0  0  0  0  0  0  0  0  0  0
   66.0475    1.4402    0.0104 N   0  0  0  0  0  0  0  0  0  0  0  0
   68.8232    1.4292   -0.1663 N   0  0  0  0  0  0  0  0  0  0  0  0
   67.4201   -4.8546    0.1302 C   0  0  0  0  0  0  0  0  0  0  0  0
   66.6685   -5.5240    1.0996 C   0  0  0  0  0  0  0  0  0  0  0  0
   66.6728   -6.9056    1.1541 C   0  0  0  0  0  0  0  0  0  0  0  0
   67.4235   -7.6435    0.2371 C   0  0  0  0  0  0  0  0  0  0  0  0
   67.3951   -9.1230    0.3356 C   0  0  0  0  0  0  0  0  0  0  0  0
   68.1520   -9.7367   -0.5860 O   0  0  0  0  0  0  0  0  0  0  0  0
   66.7616   -9.7372    1.1556 O   0  0  0  0  0  0  0  0  0  0  0  0
   68.1720   -6.9800   -0.7355 C   0  0  0  0  0  0  0  0  0  0  0  0
   68.1711   -5.5969   -0.7847 C   0  0  0  0  0  0  0  0  0  0  0  0
   62.9585   -2.5163   -0.5497 H   0  0  0  0  0  0  0  0  0  0  0  0
   64.8533   -4.4354   -0.5059 H   0  0  0  0  0  0  0  0  0  0  0  0
   69.9890   -4.4083    0.7275 H   0  0  0  0  0  0  0  0  0  0  0  0
   71.8922   -2.4989    0.6537 H   0  0  0  0  0  0  0  0  0  0  0  0
   71.9050    2.5625   -0.7135 H   0  0  0  0  0  0  0  0  0  0  0  0
   70.0087    4.4771   -0.8163 H   0  0  0  0  0  0  0  0  0  0  0  0
   68.7809    5.1704    1.4455 H   0  0  0  0  0  0  0  0  0  0  0  0
   68.7886    7.6486    1.3261 H   0  0  0  0  0  0  0  0  0  0  0  0
   66.7973   10.7135   -1.2827 H   0  0  0  0  0  0  0  0  0  0  0  0
   66.0970    7.4975   -2.0033 H   0  0  0  0  0  0  0  0  0  0  0  0
   66.0979    5.0304   -1.8943 H   0  0  0  0  0  0  0  0  0  0  0  0
   64.8761    4.5317    0.4410 H   0  0  0  0  0  0  0  0  0  0  0  0
   62.9739    2.6205    0.5054 H   0  0  0  0  0  0  0  0  0  0  0  0
   66.0952   -4.9521    1.8203 H   0  0  0  0  0  0  0  0  0  0  0  0
   66.0974   -7.4318    1.9078 H   0  0  0  0  0  0  0  0  0  0  0  0
   68.0807  -10.6960   -0.4539 H   0  0  0  0  0  0  0  0  0  0  0  0
   68.7529   -7.5491   -1.4516 H   0  0  0  0  0  0  0  0  0  0  0  0
   68.7437   -5.0812   -1.5473 H   0  0  0  0  0  0  0  0  0  0  0  0
   80.8572    0.0475    0.0052 Ni  0  0  0  0  0  0  0  0  0  0  0  0
   77.4469    0.0381    0.0155 C   0  0  0  0  0  0  0  0  0  0  0  0
   78.1228   -1.1786   -0.1142 C   0  0  0  0  0  0  0  0  0  0  0  0
   77.4613   -2.4311   -0.2950 C   0  0  0  0  0  0  0  0  0  0  0  0
   78.4200   -3.3878   -0.2470 C   0  0  0  0  0  0  0  0  0  0  0  0
   79.6636   -2.7153   -0.0234 C   0  0  0  0  0  0  0  0  0  0  0  0
   79.4738   -1.3524    0.0077 N   0  0  0  0  0  0  0  0  0  0  0  0
   80.8694   -3.3640    0.2093 C   0  0  0  0  0  0  0  0  0  0  0  0
   82.0690   -2.6822    0.3724 C   0  0  0  0  0  0  0  0  0  0  0  0
   83.3150   -3.3141    0.6833 C   0  0  0  0  0  0  0  0  0  0  0  0
   84.2666   -2.3508    0.6275 C   0  0  0  0  0  0  0  0  0  0  0  0
   82.2489   -1.3318    0.1828 N   0  0  0  0  0  0  0  0  0  0  0  0
   83.5986   -1.1339    0.2918 C   0  0  0  0  0  0  0  0  0  0  0  0
   84.2669    0.0570   -0.0022 C   0  0  0  0  0  0  0  0  0  0  0  0
   83.5905    1.2438   -0.2941 C   0  0  0  0  0  0  0  0  0  0  0  0
   84.2503    2.4633   -0.6365 C   0  0  0  0  0  0  0  0  0  0  0  0
   83.2929    3.4207   -0.6933 C   0  0  0  0  0  0  0  0  0  0  0  0
   82.0517    2.7831   -0.3749 C   0  0  0  0  0  0  0  0  0  0  0  0
   80.8485    3.4583   -0.2100 C   0  0  0  0  0  0  0  0  0  0  0  0
   80.8455    4.9364   -0.2986 C   0  0  0  0  0  0  0  0  0  0  0  0
   81.6140    5.6987    0.5854 C   0  0  0  0  0  0  0  0  0  0  0  0
   81.6062    7.0789    0.5047 C   0  0  0  0  0  0  0  0  0  0  0  0
   80.8341    7.7227   -0.4642 C   0  0  0  0  0  0  0  0  0  0  0  0
   80.8598    9.2047   -0.5116 C   0  0  0  0  0  0  0  0  0  0  0  0
   80.0787    9.7243   -1.4703 O   0  0  0  0  0  0  0  0  0  0  0  0
   81.5121    9.8972    0.2275 O   0  0  0  0  0  0  0  0  0  0  0  0
   80.0679    6.9661   -1.3513 C   0  0  0  0  0  0  0  0  0  0  0  0
   80.0732    5.5849   -1.2656 C   0  0  0  0  0  0  0  0  0  0  0  0
   79.6484    2.8033    0.0355 C   0  0  0  0  0  0  0  0  0  0  0  0
   78.4029    3.4694    0.2673 C   0  0  0  0  0  0  0  0  0  0  0  0
   77.4501    2.5074    0.3259 C   0  0  0  0  0  0  0  0  0  0  0  0
   78.1172    1.2582    0.1427 C   0  0  0  0  0  0  0  0  0  0  0  0
   79.4663    1.4394    0.0105 N   0  0  0  0  0  0  0  0  0  0  0  0
   82.2401    1.4344   -0.1807 N   0  0  0  0  0  0  0  0  0  0  0  0
   80.8781   -4.8430    0.2815 C   0  0  0  0  0  0  0  0  0  0  0  0
   80.1220   -5.5108    1.2484 C   0  0  0  0  0  0  0  0  0  0  0  0
   80.1306   -6.8922    1.3088 C   0  0  0  0  0  0  0  0  0  0  0  0
   80.8907   -7.6315    0.4006 C   0  0  0  0  0  0  0  0  0  0  0  0
   80.8630   -9.1107    0.5018 C   0  0  0  0  0  0  0  0  0  0  0  0
   81.6307   -9.7252   -0.4104 O   0  0  0  0  0  0  0  0  0  0  0  0
   80.2197   -9.7245    1.3146 O   0  0  0  0  0  0  0  0  0  0  0  0
   81.6467   -6.9694   -0.5671 C   0  0  0  0  0  0  0  0  0  0  0  0
   81.6413   -5.5867   -0.6222 C   0  0  0  0  0  0  0  0  0  0  0  0
   76.3991   -2.5479   -0.4370 H   0  0  0  0  0  0  0  0  0  0  0  0
   78.3051   -4.4539   -0.3544 H   0  0  0  0  0  0  0  0  0  0  0  0
   83.4356   -4.3595    0.9163 H   0  0  0  0  0  0  0  0  0  0  0  0
   85.3283   -2.4415    0.7913 H   0  0  0  0  0  0  0  0  0  0  0  0
   85.3108    2.5593   -0.8043 H   0  0  0  0  0  0  0  0  0  0  0  0
   83.4071    4.4657   -0.9309 H   0  0  0  0  0  0  0  0  0  0  0  0
   82.2039    5.2009    1.3465 H   0  0  0  0  0  0  0  0  0  0  0  0
   82.1954    7.6770    1.1912 H   0  0  0  0  0  0  0  0  0  0  0  0
   80.1500   10.6920   -1.4349 H   0  0  0  0  0  0  0  0  0  0  0  0
   79.4701    7.4617   -2.1071 H   0  0  0  0  0  0  0  0  0  0  0  0
   79.4873    4.9965   -1.9627 H   0  0  0  0  0  0  0  0  0  0  0  0
   78.2828    4.5351    0.3734 H   0  0  0  0  0  0  0  0  0  0  0  0
   76.3885    2.6184    0.4771 H   0  0  0  0  0  0  0  0  0  0  0  0
   79.5404   -4.9380    1.9617 H   0  0  0  0  0  0  0  0  0  0  0  0
   79.5502   -7.4172    2.0595 H   0  0  0  0  0  0  0  0  0  0  0  0
   81.5580  -10.6845   -0.2785 H   0  0  0  0  0  0  0  0  0  0  0  0
   82.2355   -7.5394   -1.2760 H   0  0  0  0  0  0  0  0  0  0  0  0
   82.2188   -5.0722   -1.3819 H   0  0  0  0  0  0  0  0  0  0  0  0
  2  3  4  0  0  0  0
  3  4  4  0  0  0  0
  4  5  2  0  0  0  0
  5  6  4  0  0  0  0
  1  7  1  0  0  0  0
  3  7  4  0  0  0  0
  6  7  4  0  0  0  0
  6  8  4  0  0  0  0
  8  9  4  0  0  0  0
  9 10  4  0  0  0  0
 10 11  2  0  0  0  0
  1 12  1  0  0  0  0
  9 12  4  0  0  0  0
 11 13  4  0  0  0  0
 12 13  4  0  0  0  0
 13 14  4  0  0  0  0
 14 15  4  0  0  0  0
 15 16  4  0  0  0  0
 16 17  2  0  0  0  0
 17 18  4  0  0  0  0
 18 19  4  0  0  0  0
 19 20  1  0  0  0  0
 20 21  4  0  0  0  0
 21 22  4  0  0  0  0
 22 23  4  0  0  0  0
 23 24  1  0  0  0  0
 24 25  4  0  0  0  0
 24 26  2  0  0  0  0
 23 27  4  0  0  0  0
 20 28  4  0  0  0  0
 27 28  4  0  0  0  0
 19 29  4  0  0  0  0
 29 30  4  0  0  0  0
 30 31  2  0  0  0  0
  2 32  4  0  0  0  0
 31 32  4  0  0  0  0
  1 33  1  0  0  0  0
 29 33  4  0  0  0  0
 32 33  4  0  0  0  0
  1 34  1  0  0  0  0
 15 34  4  0  0  0  0
 18 34  4  0  0  0  0
  8 35  1  0  0  0  0
 35 36  4  0  0  0  0
 36 37  4  0  0  0  0
 37 38  4  0  0  0  0
 38 39  1  0  0  0  0
 39 40  4  0  0  0  0
 39 41  2  0  0  0  0
 38 42  4  0  0  0  0
 35 43  4  0  0  0  0
 42 43  4  0  0  0  0
  2 44  1  0  0  0  0
  4 45  1  0  0  0  0
  5 46  1  0  0  0  0
 10 47  1  0  0  0  0
 11 48  1  0  0  0  0
 16 49  1  0  0  0  0
 17 50  1  0  0  0  0
 21 51  1  0  0  0  0
 22 52  1  0  0  0  0
 25 53  1  0  0  0  0
 27 54  1  0  0  0  0
 28 55  1  0  0  0  0
 30 56  1  0  0  0  0
 31 57  1  0  0  0  0
 36 58  1  0  0  0  0
 37 59  1  0  0  0  0
 40 60  1  0  0  0  0
 42 61  1  0  0  0  0
 43 62  1  0  0  0  0
 64 65  4  0  0  0  0
 65 66  4  0  0  0  0
 66 67  2  0  0  0  0
 67 68  4  0  0  0  0
 63 69  1  0  0  0  0
 65 69  4  0  0  0  0
 68 69  4  0  0  0  0
 68 70  4  0  0  0  0
 70 71  4  0  0  0  0
 71 72  4  0  0  0  0
 72 73  2  0  0  0  0
 63 74  1  0  0  0  0
 71 74  4  0  0  0  0
 73 75  4  0  0  0  0
 74 75  4  0  0  0  0
 75 76  4  0  0  0  0
 76 77  4  0  0  0  0
 77 78  4  0  0  0  0
 78 79  2  0  0  0  0
 79 80  4  0  0  0  0
 80 81  4  0  0  0  0
 81 82  1  0  0  0  0
 82 83  4  0  0  0  0
 83 84  4  0  0  0  0
 84 85  4  0  0  0  0
 85 86  1  0  0  0  0
 86 87  4  0  0  0  0
 86 88  2  0  0  0  0
 85 89  4  0  0  0  0
 82 90  4  0  0  0  0
 89 90  4  0  0  0  0
 81 91  4  0  0  0  0
 91 92  4  0  0  0  0
 92 93  2  0  0  0  0
 64 94  4  0  0  0  0
 93 94  4  0  0  0  0
 63 95  1  0  0  0  0
 91 95  4  0  0  0  0
 94 95  4  0  0  0  0
 63 96  1  0  0  0  0
 77 96  4  0  0  0  0
 80 96  4  0  0  0  0
 70 97  1  0  0  0  0
 97 98  4  0  0  0  0
 98 99  4  0  0  0  0
 99100  4  0  0  0  0
100101  1  0  0  0  0
101102  4  0  0  0  0
101103  2  0  0  0  0
100104  4  0  0  0  0
 97105  4  0  0  0  0
104105  4  0  0  0  0
 64106  1  0  0  0  0
 66107  1  0  0  0  0
 67108  1  0  0  0  0
 72109  1  0  0  0  0
 73110  1  0  0  0  0
 78111  1  0  0  0  0
 79112  1  0  0  0  0
 83113  1  0  0  0  0
 84114  1  0  0  0  0
 87115  1  0  0  0  0
 89116  1  0  0  0  0
 90117  1  0  0  0  0
 92118  1  0  0  0  0
 93119  1  0  0  0  0
 98120  1  0  0  0  0
 99121  1  0  0  0  0
102122  1  0  0  0  0
104123  1  0  0  0  0
105124  1  0  0  0  0
 14126  1  0  0  0  0
125126  3  0  0  0  0
125127  4  0  0  0  0
127128  3  0  0  0  0
129130  3  0  0  0  0
129131  4  0  0  0  0
131132  3  0  0  0  0
133134  3  0  0  0  0
133135  4  0  0  0  0
 76136  4  0  0  0  0
135136  3  0  0  0  0
128138  1  0  0  0  0
138139  4  0  0  0  0
139140  4  0  0  0  0
140141  2  0  0  0  0
141142  4  0  0  0  0
137143  1  0  0  0  0
139143  4  0  0  0  0
142143  4  0  0  0  0
142144  4  0  0  0  0
144145  4  0  0  0  0
145146  4  0  0  0  0
146147  2  0  0  0  0
137148  1  0  0  0  0
145148  4  0  0  0  0
147149  4  0  0  0  0
148149  4  0  0  0  0
130150  4  0  0  0  0
149150  4  0  0  0  0
150151  4  0  0  0  0
151152  4  0  0  0  0
152153  2  0  0  0  0
153154  4  0  0  0  0
154155  4  0  0  0  0
155156  1  0  0  0  0
156157  4  0  0  0  0
157158  4  0  0  0  0
158159  4  0  0  0  0
159160  1  0  0  0  0
160161  4  0  0  0  0
160162  2  0  0  0  0
159163  4  0  0  0  0
156164  4  0  0  0  0
163164  4  0  0  0  0
155165  4  0  0  0  0
165166  4  0  0  0  0
166167  2  0  0  0  0
138168  4  0  0  0  0
167168  4  0  0  0  0
137169  1  0  0  0  0
165169  4  0  0  0  0
168169  4  0  0  0  0
137170  1  0  0  0  0
151170  4  0  0  0  0
154170  4  0  0  0  0
144171  1  0  0  0  0
171172  4  0  0  0  0
172173  4  0  0  0  0
173174  4  0  0  0  0
174175  1  0  0  0  0
175176  4  0  0  0  0
175177  2  0  0  0  0
174178  4  0  0  0  0
171179  4  0  0  0  0
178179  4  0  0  0  0
140180  1  0  0  0  0
141181  1  0  0  0  0
146182  1  0  0  0  0
147183  1  0  0  0  0
152184  1  0  0  0  0
153185  1  0  0  0  0
157186  1  0  0  0  0
158187  1  0  0  0  0
161188  1  0  0  0  0
163189  1  0  0  0  0
164190  1  0  0  0  0
166191  1  0  0  0  0
167192  1  0  0  0  0
172193  1  0  0  0  0
173194  1  0  0  0  0
176195  1  0  0  0  0
178196  1  0  0  0  0
179197  1  0  0  0  0
132199  4  0  0  0  0
199200  4  0  0  0  0
200201  4  0  0  0  0
201202  2  0  0  0  0
202203  4  0  0  0  0
198204  1  0  0  0  0
200204  4  0  0  0  0
203204  4  0  0  0  0
203205  4  0  0  0  0
205206  4  0  0  0  0
206207  4  0  0  0  0
207208  2  0  0  0  0
198209  1  0  0  0  0
206209  4  0  0  0  0
208210  4  0  0  0  0
209210  4  0  0  0  0
134211  4  0  0  0  0
210211  4  0  0  0  0
211212  4  0  0  0  0
212213  4  0  0  0  0
213214  2  0  0  0  0
214215  4  0  0  0  0
215216  4  0  0  0  0
216217  1  0  0  0  0
217218  4  0  0  0  0
218219  4  0  0  0  0
219220  4  0  0  0  0
220221  1  0  0  0  0
221222  4  0  0  0  0
221223  2  0  0  0  0
220224  4  0  0  0  0
217225  4  0  0  0  0
224225  4  0  0  0  0
216226  4  0  0  0  0
226227  4  0  0  0  0
227228  2  0  0  0  0
199229  4  0  0  0  0
228229  4  0  0  0  0
198230  1  0  0  0  0
226230  4  0  0  0  0
229230  4  0  0  0  0
198231  1  0  0  0  0
212231  4  0  0  0  0
215231  4  0  0  0  0
205232  1  0  0  0  0
232233  4  0  0  0  0
233234  4  0  0  0  0
234235  4  0  0  0  0
235236  1  0  0  0  0
236237  4  0  0  0  0
236238  2  0  0  0  0
235239  4  0  0  0  0
232240  4  0  0  0  0
239240  4  0  0  0  0
201241  1  0  0  0  0
202242  1  0  0  0  0
207243  1  0  0  0  0
208244  1  0  0  0  0
213245  1  0  0  0  0
214246  1  0  0  0  0
218247  1  0  0  0  0
219248  1  0  0  0  0
222249  1  0  0  0  0
224250  1  0  0  0  0
225251  1  0  0  0  0
227252  1  0  0  0  0
228253  1  0  0  0  0
233254  1  0  0  0  0
234255  1  0  0  0  0
237256  1  0  0  0  0
239257  1  0  0  0  0
240258  1  0  0  0  0
M  END
