662

C 108.982484 -0.056083 0.069994
C 109.711083 1.223985 0.583044
C 109.100958 2.330453 1.128523
C 110.122555 3.276506 1.401670
C 111.322486 2.716756 1.008678
N 111.064218 1.447003 0.555975
C 112.746021 3.415052 1.039700
C 113.874343 2.702473 0.774135
C 115.178140 3.331519 0.722214
C 116.078767 2.405483 0.415367
N 114.069839 1.374353 0.498893
C 115.399991 1.132358 0.272059
C 116.067319 -0.012593 -0.032548
C 115.292733 -1.393836 -0.141787
C 115.840303 -2.650447 0.031360
C 114.815715 -3.600079 -0.205070
C 113.668139 -2.897558 -0.503536
C 112.255404 -3.522788 -0.866082
C 112.223973 -4.909193 -1.386507
C 111.860659 -5.973790 -0.552018
C 111.841211 -7.287715 -1.035906
C 111.409682 -8.414343 -0.148109
C 112.176196 -7.525719 -2.376609
C 112.558831 -6.473285 -3.220446
C 112.889177 -6.725170 -4.659572
C 112.570836 -5.166046 -2.717584
C 111.130176 -2.776986 -0.712314
C 109.805838 -3.276621 -1.037453
C 108.921293 -2.320774 -0.769060
C 109.645863 -1.175570 -0.274641
N 110.967563 -1.494787 -0.266072
N 113.955444 -1.555735 -0.411708
C 112.785153 4.870815 1.318858
C 113.055787 5.334904 2.611891
C 113.084075 6.707631 2.887359
C 113.420672 7.188081 4.265500
C 112.854432 7.617218 1.845080
C 112.565707 7.168311 0.548251
C 112.347538 8.141074 -0.569969
C 112.543225 5.791510 0.292776
H 107.903731 -0.022064 -0.023797
H 108.041680 2.449943 1.295571
H 109.994630 4.265217 1.816924
H 111.765872 0.781502 0.239712
H 115.389328 4.372912 0.888240
H 117.131320 2.590949 0.304601
H 116.866471 -2.864673 0.288131
H 114.904248 -4.675595 -0.165088
H 111.587916 -5.752097 0.478442
H 110.356567 -8.653099 -0.330197
H 112.015406 -9.307877 -0.335786
H 111.532161 -8.154810 0.909271
H 112.138606 -8.539906 -2.766021
H 113.633994 -6.008563 -5.020071
H 113.310819 -7.726648 -4.794739
H 111.987116 -6.636207 -5.272202
H 112.844506 -4.325311 -3.352942
H 109.575845 -4.250408 -1.430864
H 107.856582 -2.380604 -0.903426
H 113.268132 -0.809372 -0.478616
H 113.251586 4.603387 3.394146
H 113.031074 6.501446 5.024659
H 112.975877 8.169858 4.457147
H 114.505577 7.265478 4.380281
H 112.900779 8.684592 2.044427
H 111.933292 9.082814 -0.194862
H 113.295427 8.349569 -1.074661
H 111.636320 7.742710 -1.300906
H 112.342347 5.411572 -0.707556
C 240.164346 -0.026863 0.077918
C 239.435747 -1.390762 -0.125978
C 240.045872 -2.621224 -0.214188
C 239.024276 -3.575670 -0.456385
C 237.824344 -2.894067 -0.512768
N 238.082612 -1.569555 -0.262003
C 236.400809 -3.512377 -0.838761
C 235.272488 -2.763254 -0.707966
C 233.968690 -3.279899 -1.070556
C 233.068063 -2.325705 -0.867555
N 235.076991 -1.478020 -0.274565
C 233.746839 -1.154583 -0.348074
C 233.079511 -0.012593 -0.032548
C 233.854097 1.234624 0.570954
C 233.306527 2.231627 1.355197
C 234.331115 3.170612 1.630890
C 235.478691 2.715106 1.018409
C 236.891426 3.437839 1.021380
C 236.922858 4.897234 1.272631
C 237.286171 5.394429 2.530620
C 237.305619 6.772815 2.776786
C 237.737148 7.296614 4.112118
C 236.970634 7.655512 1.739976
C 236.587999 7.173536 0.480063
C 236.257653 8.117935 -0.634675
C 236.575994 5.791335 0.253650
C 238.016654 2.716521 0.777320
C 239.340992 3.311967 0.749126
C 240.225537 2.351470 0.497879
C 239.500967 1.113373 0.346035
N 238.179267 1.384532 0.514692
N 235.191386 1.510704 0.419796
C 236.361677 -4.909747 -1.333266
C 236.091043 -5.963476 -0.451809
C 236.062755 -7.287319 -0.907550
C 235.726158 -8.398164 0.039091
C 236.292399 -7.545768 -2.266557
C 236.581123 -6.503222 -3.158959
C 236.799292 -6.777828 -4.615420
C 236.603605 -5.185963 -2.683905
H 241.243099 -0.008841 -0.020211
H 241.105150 -2.808735 -0.130387
H 239.152200 -4.638719 -0.597492
H 237.380958 -0.835449 -0.198745
H 233.757502 -4.262509 -1.453365
H 232.015510 -2.429808 -1.056841
H 232.280359 2.286791 1.685017
H 234.242582 4.078599 2.208723
H 237.558914 4.682538 3.307926
H 238.790263 7.594651 4.075587
H 237.131425 8.162557 4.401545
H 237.614669 6.538466 4.893540
H 237.008224 8.727493 1.916254
H 235.512836 7.681609 -1.307806
H 235.836012 9.050508 -0.245399
H 237.159715 8.350646 -1.208325
H 236.302324 5.386739 -0.719396
H 239.570985 4.351102 0.901545
H 241.290248 2.470984 0.412144
H 235.878698 0.900383 -0.014994
H 235.895244 -5.727346 0.592836
H 236.115756 -8.189100 1.041130
H 236.170953 -9.342267 -0.291489
H 234.641254 -8.522943 0.099049
H 236.246051 -8.567632 -2.633733
H 237.213538 -7.780059 -4.767445
H 235.851403 -6.702801 -5.156303
H 237.510510 -6.064779 -5.044983
H 236.804483 -4.352723 -3.355269
C 121.915715 -0.011490 -0.024059
C 120.706775 -0.024946 -0.032506
C 119.285246 -0.016126 -0.044489
C 118.073577 -0.008688 -0.033626
C 123.332319 -0.018166 -0.023525
C 124.553015 -0.008688 -0.033626
C 137.133299 -0.011490 -0.024059
C 135.924359 -0.024946 -0.032506
C 134.502831 -0.016126 -0.044489
C 133.291161 -0.008688 -0.033626
C 138.549903 -0.018166 -0.023525
C 139.770599 -0.008688 -0.033626
C 152.350883 -0.011490 -0.024059
C 151.141944 -0.024946 -0.032506
C 149.720415 -0.016126 -0.044489
C 148.508745 -0.008688 -0.033626
C 153.767487 -0.018166 -0.023525
C 154.988183 -0.008688 -0.033626
C 167.568467 -0.011490 -0.024059
C 166.359528 -0.024946 -0.032506
C 164.937999 -0.016126 -0.044489
C 163.726329 -0.008688 -0.033626
C 168.985071 -0.018166 -0.023525
C 170.205767 -0.008688 -0.033626
C 182.786051 -0.011490 -0.024059
C 181.577112 -0.024946 -0.032506
C 180.155583 -0.016126 -0.044489
C 178.943913 -0.008688 -0.033626
C 184.202655 -0.018166 -0.023525
C 185.423351 -0.008688 -0.033626
C 198.003635 -0.011490 -0.024059
C 196.794696 -0.024946 -0.032506
C 195.373167 -0.016126 -0.044489
C 194.161497 -0.008688 -0.033626
C 199.420239 -0.018166 -0.023525
C 200.640935 -0.008688 -0.033626
C 213.221219 -0.011490 -0.024059
C 212.012280 -0.024946 -0.032506
C 210.590751 -0.016126 -0.044489
C 209.379081 -0.008688 -0.033626
C 214.637823 -0.018166 -0.023525
C 215.858519 -0.008688 -0.033626
C 228.438803 -0.011490 -0.024059
C 227.229864 -0.024946 -0.032506
C 225.808335 -0.016126 -0.044489
C 224.596665 -0.008688 -0.033626
C 229.855408 -0.018166 -0.023525
C 231.076103 -0.008688 -0.033626
C 125.345327 0.004527 0.012827
C 126.136713 -1.135244 0.778781
C 125.623703 -2.001422 1.723078
C 126.660436 -2.900463 2.081053
C 127.776441 -2.550613 1.350302
N 127.468187 -1.431683 0.617391
C 129.169258 -3.305665 1.344396
C 130.303252 -2.640130 1.000308
C 131.591330 -3.297723 0.920879
C 132.498318 -2.398942 0.553610
N 130.510015 -1.331852 0.659396
C 131.834743 -1.121677 0.383944
C 132.498505 0.004527 0.012827
C 131.706413 1.367536 -0.149685
C 132.216874 2.640257 0.009711
C 131.180402 3.555140 -0.306365
C 130.067030 2.813134 -0.640883
C 128.675062 3.381183 -1.139588
C 128.680325 4.691881 -1.831917
C 128.252612 5.847802 -1.166382
C 128.273312 7.092581 -1.807852
C 127.849325 8.326062 -1.070782
C 128.751963 7.173585 -3.123285
C 129.172666 6.024441 -3.808035
C 129.710827 6.117146 -5.202977
C 129.143241 4.788750 -3.149024
C 127.541066 2.652444 -0.965445
C 126.253189 3.098512 -1.455441
C 125.346084 2.178363 -1.146212
C 126.009431 1.099985 -0.440790
N 127.334141 1.439095 -0.368999
N 130.376418 1.486524 -0.471506
C 129.163622 -4.749958 1.678274
C 128.702055 -5.685004 0.744916
C 128.668183 -7.050228 1.056655
C 128.131103 -8.032573 0.061122
C 129.083048 -7.470694 2.328632
C 129.560649 -6.548809 3.270909
C 129.977492 -6.996500 4.638443
C 129.586209 -5.188181 2.939772
H 124.611445 -2.003232 2.097530
H 126.595775 -3.723428 2.777006
H 128.132546 -0.885224 0.077139
H 131.786515 -4.337607 1.113717
H 133.543383 -2.604551 0.410510
H 133.227295 2.885779 0.299390
H 131.243270 4.633043 -0.309410
H 127.904661 5.754171 -0.138950
H 128.713427 8.785047 -0.580197
H 127.402185 9.054108 -1.755849
H 127.095948 8.090739 -0.311217
H 128.796630 8.139680 -3.619291
H 129.496725 5.202735 -5.766173
H 130.793821 6.271899 -5.176933
H 129.248074 6.947984 -5.746061
H 129.482912 3.882471 -3.647593
H 126.057877 4.011649 -1.988992
H 124.301185 2.241272 -1.389202
H 129.712825 0.719680 -0.529156
H 128.365891 -5.326223 -0.226500
H 128.581528 -9.020437 0.204093
H 128.360990 -7.716971 -0.962101
H 127.045671 -8.120636 0.169890
H 129.034358 -8.525289 2.586929
H 130.765209 -6.349538 5.038828
H 130.377563 -8.015475 4.611244
H 129.119997 -6.972198 5.317982
H 129.932773 -4.445110 3.656199
C 140.562911 0.004527 0.012827
C 141.354297 -1.135244 0.778781
C 140.841287 -2.001422 1.723078
C 141.878020 -2.900463 2.081053
C 142.994025 -2.550613 1.350302
N 142.685771 -1.431683 0.617391
C 144.386842 -3.305665 1.344396
C 145.520836 -2.640130 1.000308
C 146.808915 -3.297723 0.920879
C 147.715902 -2.398942 0.553610
N 145.727599 -1.331852 0.659396
C 147.052327 -1.121677 0.383944
C 147.716089 0.004527 0.012827
C 146.923998 1.367536 -0.149685
C 147.434458 2.640257 0.009711
C 146.397986 3.555140 -0.306365
C 145.284614 2.813134 -0.640883
C 143.892646 3.381183 -1.139588
C 143.897909 4.691881 -1.831917
C 143.470196 5.847802 -1.166382
C 143.490896 7.092581 -1.807852
C 143.066909 8.326062 -1.070782
C 143.969547 7.173585 -3.123285
C 144.390250 6.024441 -3.808035
C 144.928411 6.117146 -5.202977
C 144.360825 4.788750 -3.149024
C 142.758650 2.652444 -0.965445
C 141.470773 3.098512 -1.455441
C 140.563668 2.178363 -1.146212
C 141.227015 1.099985 -0.440790
N 142.551725 1.439095 -0.368999
N 145.594002 1.486524 -0.471506
C 144.381206 -4.749958 1.678274
C 143.919639 -5.685004 0.744916
C 143.885767 -7.050228 1.056655
C 143.348687 -8.032573 0.061122
C 144.300632 -7.470694 2.328632
C 144.778233 -6.548809 3.270909
C 145.195076 -6.996500 4.638443
C 144.803793 -5.188181 2.939772
H 139.829029 -2.003232 2.097530
H 141.813359 -3.723428 2.777006
H 143.350130 -0.885224 0.077139
H 147.004099 -4.337607 1.113717
H 148.760967 -2.604551 0.410510
H 148.444879 2.885779 0.299390
H 146.460854 4.633043 -0.309410
H 143.122245 5.754171 -0.138950
H 143.931011 8.785047 -0.580197
H 142.619769 9.054108 -1.755849
H 142.313532 8.090739 -0.311217
H 144.014215 8.139680 -3.619291
H 144.714309 5.202735 -5.766173
H 146.011405 6.271899 -5.176933
H 144.465658 6.947984 -5.746061
H 144.700496 3.882471 -3.647593
H 141.275461 4.011649 -1.988992
H 139.518770 2.241272 -1.389202
H 144.930409 0.719680 -0.529156
H 143.583475 -5.326223 -0.226500
H 143.799112 -9.020437 0.204093
H 143.578574 -7.716971 -0.962101
H 142.263255 -8.120636 0.169890
H 144.251942 -8.525289 2.586929
H 145.982793 -6.349538 5.038828
H 145.595147 -8.015475 4.611244
H 144.337582 -6.972198 5.317982
H 145.150357 -4.445110 3.656199
C 155.780496 0.004527 0.012827
C 156.571881 -1.135244 0.778781
C 156.058871 -2.001422 1.723078
C 157.095604 -2.900463 2.081053
C 158.211609 -2.550613 1.350302
N 157.903355 -1.431683 0.617391
C 159.604426 -3.305665 1.344396
C 160.738420 -2.640130 1.000308
C 162.026499 -3.297723 0.920879
C 162.933486 -2.398942 0.553610
N 160.945183 -1.331852 0.659396
C 162.269911 -1.121677 0.383944
C 162.933673 0.004527 0.012827
C 162.141582 1.367536 -0.149685
C 162.652042 2.640257 0.009711
C 161.615570 3.555140 -0.306365
C 160.502198 2.813134 -0.640883
C 159.110230 3.381183 -1.139588
C 159.115493 4.691881 -1.831917
C 158.687780 5.847802 -1.166382
C 158.708480 7.092581 -1.807852
C 158.284493 8.326062 -1.070782
C 159.187131 7.173585 -3.123285
C 159.607834 6.024441 -3.808035
C 160.145995 6.117146 -5.202977
C 159.578409 4.788750 -3.149024
C 157.976234 2.652444 -0.965445
C 156.688357 3.098512 -1.455441
C 155.781253 2.178363 -1.146212
C 156.444599 1.099985 -0.440790
N 157.769309 1.439095 -0.368999
N 160.811586 1.486524 -0.471506
C 159.598790 -4.749958 1.678274
C 159.137223 -5.685004 0.744916
C 159.103351 -7.050228 1.056655
C 158.566271 -8.032573 0.061122
C 159.518216 -7.470694 2.328632
C 159.995817 -6.548809 3.270909
C 160.412660 -6.996500 4.638443
C 160.021377 -5.188181 2.939772
H 155.046613 -2.003232 2.097530
H 157.030943 -3.723428 2.777006
H 158.567714 -0.885224 0.077139
H 162.221683 -4.337607 1.113717
H 163.978551 -2.604551 0.410510
H 163.662464 2.885779 0.299390
H 161.678438 4.633043 -0.309410
H 158.339829 5.754171 -0.138950
H 159.148595 8.785047 -0.580197
H 157.837354 9.054108 -1.755849
H 157.531116 8.090739 -0.311217
H 159.231799 8.139680 -3.619291
H 159.931893 5.202735 -5.766173
H 161.228989 6.271899 -5.176933
H 159.683242 6.947984 -5.746061
H 159.918080 3.882471 -3.647593
H 156.493045 4.011649 -1.988992
H 154.736354 2.241272 -1.389202
H 160.147993 0.719680 -0.529156
H 158.801059 -5.326223 -0.226500
H 159.016696 -9.020437 0.204093
H 158.796158 -7.716971 -0.962101
H 157.480839 -8.120636 0.169890
H 159.469527 -8.525289 2.586929
H 161.200377 -6.349538 5.038828
H 160.812731 -8.015475 4.611244
H 159.555166 -6.972198 5.317982
H 160.367941 -4.445110 3.656199
C 170.998080 0.004527 0.012827
C 171.789465 -1.135244 0.778781
C 171.276455 -2.001422 1.723078
C 172.313189 -2.900463 2.081053
C 173.429193 -2.550613 1.350302
N 173.120939 -1.431683 0.617391
C 174.822010 -3.305665 1.344396
C 175.956004 -2.640130 1.000308
C 177.244083 -3.297723 0.920879
C 178.151070 -2.398942 0.553610
N 176.162767 -1.331852 0.659396
C 177.487495 -1.121677 0.383944
C 178.151257 0.004527 0.012827
C 177.359166 1.367536 -0.149685
C 177.869626 2.640257 0.009711
C 176.833154 3.555140 -0.306365
C 175.719782 2.813134 -0.640883
C 174.327815 3.381183 -1.139588
C 174.333077 4.691881 -1.831917
C 173.905365 5.847802 -1.166382
C 173.926064 7.092581 -1.807852
C 173.502077 8.326062 -1.070782
C 174.404715 7.173585 -3.123285
C 174.825418 6.024441 -3.808035
C 175.363579 6.117146 -5.202977
C 174.795993 4.788750 -3.149024
C 173.193818 2.652444 -0.965445
C 171.905941 3.098512 -1.455441
C 170.998837 2.178363 -1.146212
C 171.662183 1.099985 -0.440790
N 172.986893 1.439095 -0.368999
N 176.029170 1.486524 -0.471506
C 174.816374 -4.749958 1.678274
C 174.354807 -5.685004 0.744916
C 174.320935 -7.050228 1.056655
C 173.783855 -8.032573 0.061122
C 174.735800 -7.470694 2.328632
C 175.213401 -6.548809 3.270909
C 175.630244 -6.996500 4.638443
C 175.238961 -5.188181 2.939772
H 170.264197 -2.003232 2.097530
H 172.248527 -3.723428 2.777006
H 173.785298 -0.885224 0.077139
H 177.439267 -4.337607 1.113717
H 179.196135 -2.604551 0.410510
H 178.880048 2.885779 0.299390
H 176.896022 4.633043 -0.309410
H 173.557413 5.754171 -0.138950
H 174.366179 8.785047 -0.580197
H 173.054938 9.054108 -1.755849
H 172.748700 8.090739 -0.311217
H 174.449383 8.139680 -3.619291
H 175.149477 5.202735 -5.766173
H 176.446573 6.271899 -5.176933
H 174.900826 6.947984 -5.746061
H 175.135664 3.882471 -3.647593
H 171.710629 4.011649 -1.988992
H 169.953938 2.241272 -1.389202
H 175.365577 0.719680 -0.529156
H 174.018643 -5.326223 -0.226500
H 174.234280 -9.020437 0.204093
H 174.013742 -7.716971 -0.962101
H 172.698423 -8.120636 0.169890
H 174.687111 -8.525289 2.586929
H 176.417961 -6.349538 5.038828
H 176.030316 -8.015475 4.611244
H 174.772750 -6.972198 5.317982
H 175.585525 -4.445110 3.656199
C 186.215664 0.004527 0.012827
C 187.007049 -1.135244 0.778781
C 186.494039 -2.001422 1.723078
C 187.530773 -2.900463 2.081053
C 188.646777 -2.550613 1.350302
N 188.338523 -1.431683 0.617391
C 190.039594 -3.305665 1.344396
C 191.173588 -2.640130 1.000308
C 192.461667 -3.297723 0.920879
C 193.368654 -2.398942 0.553610
N 191.380351 -1.331852 0.659396
C 192.705079 -1.121677 0.383944
C 193.368841 0.004527 0.012827
C 192.576750 1.367536 -0.149685
C 193.087211 2.640257 0.009711
C 192.050738 3.555140 -0.306365
C 190.937366 2.813134 -0.640883
C 189.545399 3.381183 -1.139588
C 189.550661 4.691881 -1.831917
C 189.122949 5.847802 -1.166382
C 189.143648 7.092581 -1.807852
C 188.719661 8.326062 -1.070782
C 189.622299 7.173585 -3.123285
C 190.043002 6.024441 -3.808035
C 190.581163 6.117146 -5.202977
C 190.013577 4.788750 -3.149024
C 188.411402 2.652444 -0.965445
C 187.123525 3.098512 -1.455441
C 186.216421 2.178363 -1.146212
C 186.879767 1.099985 -0.440790
N 188.204477 1.439095 -0.368999
N 191.246755 1.486524 -0.471506
C 190.033958 -4.749958 1.678274
C 189.572391 -5.685004 0.744916
C 189.538519 -7.050228 1.056655
C 189.001439 -8.032573 0.061122
C 189.953384 -7.470694 2.328632
C 190.430985 -6.548809 3.270909
C 190.847828 -6.996500 4.638443
C 190.456545 -5.188181 2.939772
H 185.481781 -2.003232 2.097530
H 187.466111 -3.723428 2.777006
H 189.002882 -0.885224 0.077139
H 192.656851 -4.337607 1.113717
H 194.413719 -2.604551 0.410510
H 194.097632 2.885779 0.299390
H 192.113606 4.633043 -0.309410
H 188.774997 5.754171 -0.138950
H 189.583763 8.785047 -0.580197
H 188.272522 9.054108 -1.755849
H 187.966284 8.090739 -0.311217
H 189.666967 8.139680 -3.619291
H 190.367062 5.202735 -5.766173
H 191.664157 6.271899 -5.176933
H 190.118410 6.947984 -5.746061
H 190.353248 3.882471 -3.647593
H 186.928213 4.011649 -1.988992
H 185.171522 2.241272 -1.389202
H 190.583161 0.719680 -0.529156
H 189.236227 -5.326223 -0.226500
H 189.451864 -9.020437 0.204093
H 189.231326 -7.716971 -0.962101
H 187.916007 -8.120636 0.169890
H 189.904695 -8.525289 2.586929
H 191.635546 -6.349538 5.038828
H 191.247900 -8.015475 4.611244
H 189.990334 -6.972198 5.317982
H 190.803109 -4.445110 3.656199
C 201.433248 0.004527 0.012827
C 202.224633 -1.135244 0.778781
C 201.711623 -2.001422 1.723078
C 202.748357 -2.900463 2.081053
C 203.864361 -2.550613 1.350302
N 203.556107 -1.431683 0.617391
C 205.257178 -3.305665 1.344396
C 206.391172 -2.640130 1.000308
C 207.679251 -3.297723 0.920879
C 208.586238 -2.398942 0.553610
N 206.597935 -1.331852 0.659396
C 207.922663 -1.121677 0.383944
C 208.586425 0.004527 0.012827
C 207.794334 1.367536 -0.149685
C 208.304795 2.640257 0.009711
C 207.268322 3.555140 -0.306365
C 206.154950 2.813134 -0.640883
C 204.762983 3.381183 -1.139588
C 204.768245 4.691881 -1.831917
C 204.340533 5.847802 -1.166382
C 204.361232 7.092581 -1.807852
C 203.937245 8.326062 -1.070782
C 204.839883 7.173585 -3.123285
C 205.260586 6.024441 -3.808035
C 205.798747 6.117146 -5.202977
C 205.231161 4.788750 -3.149024
C 203.628986 2.652444 -0.965445
C 202.341109 3.098512 -1.455441
C 201.434005 2.178363 -1.146212
C 202.097351 1.099985 -0.440790
N 203.422061 1.439095 -0.368999
N 206.464339 1.486524 -0.471506
C 205.251542 -4.749958 1.678274
C 204.789975 -5.685004 0.744916
C 204.756104 -7.050228 1.056655
C 204.219023 -8.032573 0.061122
C 205.170968 -7.470694 2.328632
C 205.648569 -6.548809 3.270909
C 206.065412 -6.996500 4.638443
C 205.674130 -5.188181 2.939772
H 200.699365 -2.003232 2.097530
H 202.683696 -3.723428 2.777006
H 204.220467 -0.885224 0.077139
H 207.874436 -4.337607 1.113717
H 209.631303 -2.604551 0.410510
H 209.315216 2.885779 0.299390
H 207.331190 4.633043 -0.309410
H 203.992581 5.754171 -0.138950
H 204.801348 8.785047 -0.580197
H 203.490106 9.054108 -1.755849
H 203.183868 8.090739 -0.311217
H 204.884551 8.139680 -3.619291
H 205.584646 5.202735 -5.766173
H 206.881741 6.271899 -5.176933
H 205.335994 6.947984 -5.746061
H 205.570832 3.882471 -3.647593
H 202.145797 4.011649 -1.988992
H 200.389106 2.241272 -1.389202
H 205.800745 0.719680 -0.529156
H 204.453811 -5.326223 -0.226500
H 204.669448 -9.020437 0.204093
H 204.448911 -7.716971 -0.962101
H 203.133591 -8.120636 0.169890
H 205.122279 -8.525289 2.586929
H 206.853130 -6.349538 5.038828
H 206.465484 -8.015475 4.611244
H 205.207918 -6.972198 5.317982
H 206.020693 -4.445110 3.656199
C 216.650832 0.004527 0.012827
C 217.442217 -1.135244 0.778781
C 216.929207 -2.001422 1.723078
C 217.965941 -2.900463 2.081053
C 219.081945 -2.550613 1.350302
N 218.773691 -1.431683 0.617391
C 220.474763 -3.305665 1.344396
C 221.608756 -2.640130 1.000308
C 222.896835 -3.297723 0.920879
C 223.803822 -2.398942 0.553610
N 221.815519 -1.331852 0.659396
C 223.140248 -1.121677 0.383944
C 223.804009 0.004527 0.012827
C 223.011918 1.367536 -0.149685
C 223.522379 2.640257 0.009711
C 222.485906 3.555140 -0.306365
C 221.372534 2.813134 -0.640883
C 219.980567 3.381183 -1.139588
C 219.985829 4.691881 -1.831917
C 219.558117 5.847802 -1.166382
C 219.578816 7.092581 -1.807852
C 219.154830 8.326062 -1.070782
C 220.057467 7.173585 -3.123285
C 220.478170 6.024441 -3.808035
C 221.016331 6.117146 -5.202977
C 220.448745 4.788750 -3.149024
C 218.846570 2.652444 -0.965445
C 217.558693 3.098512 -1.455441
C 216.651589 2.178363 -1.146212
C 217.314935 1.099985 -0.440790
N 218.639645 1.439095 -0.368999
N 221.681923 1.486524 -0.471506
C 220.469126 -4.749958 1.678274
C 220.007560 -5.685004 0.744916
C 219.973688 -7.050228 1.056655
C 219.436607 -8.032573 0.061122
C 220.388552 -7.470694 2.328632
C 220.866153 -6.548809 3.270909
C 221.282996 -6.996500 4.638443
C 220.891714 -5.188181 2.939772
H 215.916949 -2.003232 2.097530
H 217.901280 -3.723428 2.777006
H 219.438051 -0.885224 0.077139
H 223.092020 -4.337607 1.113717
H 224.848887 -2.604551 0.410510
H 224.532800 2.885779 0.299390
H 222.548774 4.633043 -0.309410
H 219.210166 5.754171 -0.138950
H 220.018932 8.785047 -0.580197
H 218.707690 9.054108 -1.755849
H 218.401452 8.090739 -0.311217
H 220.102135 8.139680 -3.619291
H 220.802230 5.202735 -5.766173
H 222.099325 6.271899 -5.176933
H 220.553578 6.947984 -5.746061
H 220.788416 3.882471 -3.647593
H 217.363382 4.011649 -1.988992
H 215.606690 2.241272 -1.389202
H 221.018329 0.719680 -0.529156
H 219.671395 -5.326223 -0.226500
H 219.887032 -9.020437 0.204093
H 219.666495 -7.716971 -0.962101
H 218.351176 -8.120636 0.169890
H 220.339863 -8.525289 2.586929
H 222.070714 -6.349538 5.038828
H 221.683068 -8.015475 4.611244
H 220.425502 -6.972198 5.317982
H 221.238277 -4.445110 3.656199
