 xtb: 6.5.1 (b24c23e)
          07302214383D

248287  0     0  0            999 V2000
   46.7736    0.0363    0.0143 Cu  0  0  0  0  0  0  0  0  0  0  0  0
   43.3687    0.0602    0.1146 C   0  0  0  0  0  0  0  0  0  0  0  0
   44.0072    1.2743    0.3162 C   0  0  0  0  0  0  0  0  0  0  0  0
   43.3359    2.5266    0.5171 C   0  0  0  0  0  0  0  0  0  0  0  0
   44.2976    3.4694    0.6744 C   0  0  0  0  0  0  0  0  0  0  0  0
   45.5661    2.7983    0.5837 C   0  0  0  0  0  0  0  0  0  0  0  0
   45.3588    1.4682    0.3579 N   0  0  0  0  0  0  0  0  0  0  0  0
   46.8135    3.4181    0.6902 C   0  0  0  0  0  0  0  0  0  0  0  0
   46.8332    4.8739    0.9731 C   0  0  0  0  0  0  0  0  0  0  0  0
   46.2854    5.3748    2.1562 C   0  0  0  0  0  0  0  0  0  0  0  0
   46.3067    6.7320    2.4235 C   0  0  0  0  0  0  0  0  0  0  0  0
   46.8743    7.6187    1.5037 C   0  0  0  0  0  0  0  0  0  0  0  0
   46.8963    9.0161    1.7743 C   0  0  0  0  0  0  0  0  0  0  0  0
   46.9150   10.1459    1.9920 N   0  0  0  0  0  0  0  0  0  0  0  0
   47.4207    7.1229    0.3162 C   0  0  0  0  0  0  0  0  0  0  0  0
   47.4012    5.7640    0.0585 C   0  0  0  0  0  0  0  0  0  0  0  0
   48.0445    2.7737    0.5508 C   0  0  0  0  0  0  0  0  0  0  0  0
   49.3237    3.3995    0.7317 C   0  0  0  0  0  0  0  0  0  0  0  0
   50.2664    2.4457    0.5237 C   0  0  0  0  0  0  0  0  0  0  0  0
   48.2279    1.4504    0.2485 N   0  0  0  0  0  0  0  0  0  0  0  0
   49.5711    1.2310    0.2214 C   0  0  0  0  0  0  0  0  0  0  0  0
   50.2029    0.0087   -0.0681 C   0  0  0  0  0  0  0  0  0  0  0  0
   49.5386   -1.2014   -0.3350 C   0  0  0  0  0  0  0  0  0  0  0  0
   50.1992   -2.4240   -0.6802 C   0  0  0  0  0  0  0  0  0  0  0  0
   49.2324   -3.3612   -0.8500 C   0  0  0  0  0  0  0  0  0  0  0  0
   47.9736   -2.7179   -0.5996 C   0  0  0  0  0  0  0  0  0  0  0  0
   48.1926   -1.3997   -0.2987 N   0  0  0  0  0  0  0  0  0  0  0  0
   46.7270   -3.3432   -0.6735 C   0  0  0  0  0  0  0  0  0  0  0  0
   46.7075   -4.7970   -0.9656 C   0  0  0  0  0  0  0  0  0  0  0  0
   46.0754   -5.2813   -2.1132 C   0  0  0  0  0  0  0  0  0  0  0  0
   46.0578   -6.6367   -2.3897 C   0  0  0  0  0  0  0  0  0  0  0  0
   46.6711   -7.5384   -1.5150 C   0  0  0  0  0  0  0  0  0  0  0  0
   46.6531   -8.9340   -1.7950 C   0  0  0  0  0  0  0  0  0  0  0  0
   46.6393  -10.0623   -2.0206 N   0  0  0  0  0  0  0  0  0  0  0  0
   47.3025   -7.0593   -0.3633 C   0  0  0  0  0  0  0  0  0  0  0  0
   47.3207   -5.7022   -0.0962 C   0  0  0  0  0  0  0  0  0  0  0  0
   45.4971   -2.7061   -0.4904 C   0  0  0  0  0  0  0  0  0  0  0  0
   44.2163   -3.3597   -0.5044 C   0  0  0  0  0  0  0  0  0  0  0  0
   43.2789   -2.4046   -0.2867 C   0  0  0  0  0  0  0  0  0  0  0  0
   43.9781   -1.1619   -0.1256 C   0  0  0  0  0  0  0  0  0  0  0  0
   45.3220   -1.3739   -0.2497 N   0  0  0  0  0  0  0  0  0  0  0  0
   42.2841    0.0670    0.1474 H   0  0  0  0  0  0  0  0  0  0  0  0
   42.2650    2.6551    0.5239 H   0  0  0  0  0  0  0  0  0  0  0  0
   44.1666    4.5286    0.8268 H   0  0  0  0  0  0  0  0  0  0  0  0
   45.8555    4.6893    2.8778 H   0  0  0  0  0  0  0  0  0  0  0  0
   45.8855    7.1125    3.3467 H   0  0  0  0  0  0  0  0  0  0  0  0
   47.8582    7.8076   -0.4009 H   0  0  0  0  0  0  0  0  0  0  0  0
   47.8159    5.3841   -0.8684 H   0  0  0  0  0  0  0  0  0  0  0  0
   49.4770    4.4323    0.9997 H   0  0  0  0  0  0  0  0  0  0  0  0
   51.3388    2.5449    0.5747 H   0  0  0  0  0  0  0  0  0  0  0  0
   51.2661   -2.5388   -0.7855 H   0  0  0  0  0  0  0  0  0  0  0  0
   49.3563   -4.3935   -1.1343 H   0  0  0  0  0  0  0  0  0  0  0  0
   45.6096   -4.5841   -2.8005 H   0  0  0  0  0  0  0  0  0  0  0  0
   45.5704   -7.0042   -3.2852 H   0  0  0  0  0  0  0  0  0  0  0  0
   47.7759   -7.7557    0.3189 H   0  0  0  0  0  0  0  0  0  0  0  0
   47.8008   -5.3356    0.8042 H   0  0  0  0  0  0  0  0  0  0  0  0
   44.0620   -4.4168   -0.6494 H   0  0  0  0  0  0  0  0  0  0  0  0
   42.2080   -2.5188   -0.2278 H   0  0  0  0  0  0  0  0  0  0  0  0
   94.9073    0.0076    0.0344 Cu  0  0  0  0  0  0  0  0  0  0  0  0
   98.3130   -0.0201    0.1050 C   0  0  0  0  0  0  0  0  0  0  0  0
   97.6733   -1.2198    0.3774 C   0  0  0  0  0  0  0  0  0  0  0  0
   98.3438   -2.4609    0.6402 C   0  0  0  0  0  0  0  0  0  0  0  0
   97.3816   -3.3923    0.8524 C   0  0  0  0  0  0  0  0  0  0  0  0
   96.1135   -2.7246    0.7336 C   0  0  0  0  0  0  0  0  0  0  0  0
   96.3217   -1.4084    0.4378 N   0  0  0  0  0  0  0  0  0  0  0  0
   94.8660   -3.3368    0.8762 C   0  0  0  0  0  0  0  0  0  0  0  0
   94.8466   -4.7766    1.2322 C   0  0  0  0  0  0  0  0  0  0  0  0
   95.3976   -5.2169    2.4377 C   0  0  0  0  0  0  0  0  0  0  0  0
   95.3780   -6.5588    2.7732 C   0  0  0  0  0  0  0  0  0  0  0  0
   94.8086   -7.4911    1.9007 C   0  0  0  0  0  0  0  0  0  0  0  0
   94.7895   -8.8731    2.2415 C   0  0  0  0  0  0  0  0  0  0  0  0
   94.7728   -9.9906    2.5151 N   0  0  0  0  0  0  0  0  0  0  0  0
   94.2584   -7.0560    0.6913 C   0  0  0  0  0  0  0  0  0  0  0  0
   94.2764   -5.7118    0.3653 C   0  0  0  0  0  0  0  0  0  0  0  0
   93.6350   -2.6988    0.7098 C   0  0  0  0  0  0  0  0  0  0  0  0
   92.3557   -3.3139    0.9243 C   0  0  0  0  0  0  0  0  0  0  0  0
   91.4134   -2.3692    0.6769 C   0  0  0  0  0  0  0  0  0  0  0  0
   93.4520   -1.3907    0.3475 N   0  0  0  0  0  0  0  0  0  0  0  0
   92.1091   -1.1704    0.3170 C   0  0  0  0  0  0  0  0  0  0  0  0
   91.4778    0.0404   -0.0169 C   0  0  0  0  0  0  0  0  0  0  0  0
   92.1417    1.2366   -0.3397 C   0  0  0  0  0  0  0  0  0  0  0  0
   91.4803    2.4445   -0.7322 C   0  0  0  0  0  0  0  0  0  0  0  0
   92.4477    3.3680   -0.9621 C   0  0  0  0  0  0  0  0  0  0  0  0
   93.7079    2.7320   -0.7006 C   0  0  0  0  0  0  0  0  0  0  0  0
   93.4891    1.4311   -0.3319 N   0  0  0  0  0  0  0  0  0  0  0  0
   94.9554    3.3469   -0.8275 C   0  0  0  0  0  0  0  0  0  0  0  0
   94.9762    4.7818   -1.2020 C   0  0  0  0  0  0  0  0  0  0  0  0
   95.5893    5.1950   -2.3871 C   0  0  0  0  0  0  0  0  0  0  0  0
   95.6075    6.5317   -2.7427 C   0  0  0  0  0  0  0  0  0  0  0  0
   95.0139    7.4862   -1.9113 C   0  0  0  0  0  0  0  0  0  0  0  0
   95.0314    8.8626   -2.2738 C   0  0  0  0  0  0  0  0  0  0  0  0
   95.0444    9.9757   -2.5654 N   0  0  0  0  0  0  0  0  0  0  0  0
   94.4023    7.0785   -0.7220 C   0  0  0  0  0  0  0  0  0  0  0  0
   94.3834    5.7394   -0.3757 C   0  0  0  0  0  0  0  0  0  0  0  0
   96.1857    2.7156   -0.6283 C   0  0  0  0  0  0  0  0  0  0  0  0
   97.4682    3.3627   -0.6949 C   0  0  0  0  0  0  0  0  0  0  0  0
   98.4054    2.4181   -0.4349 C   0  0  0  0  0  0  0  0  0  0  0  0
   97.7046    1.1888   -0.1964 C   0  0  0  0  0  0  0  0  0  0  0  0
   96.3600    1.3982   -0.3165 N   0  0  0  0  0  0  0  0  0  0  0  0
   99.3978   -0.0286    0.1287 H   0  0  0  0  0  0  0  0  0  0  0  0
   99.4145   -2.5910    0.6474 H   0  0  0  0  0  0  0  0  0  0  0  0
   97.5116   -4.4423    1.0595 H   0  0  0  0  0  0  0  0  0  0  0  0
   95.8291   -4.4955    3.1225 H   0  0  0  0  0  0  0  0  0  0  0  0
   95.8018   -6.8922    3.7132 H   0  0  0  0  0  0  0  0  0  0  0  0
   93.8194   -7.7762    0.0109 H   0  0  0  0  0  0  0  0  0  0  0  0
   93.8590   -5.3793   -0.5785 H   0  0  0  0  0  0  0  0  0  0  0  0
   92.2020   -4.3332    1.2395 H   0  0  0  0  0  0  0  0  0  0  0  0
   90.3411   -2.4643    0.7374 H   0  0  0  0  0  0  0  0  0  0  0  0
   90.4123    2.5586   -0.8263 H   0  0  0  0  0  0  0  0  0  0  0  0
   92.3231    4.3860   -1.2940 H   0  0  0  0  0  0  0  0  0  0  0  0
   96.0399    4.4565   -3.0407 H   0  0  0  0  0  0  0  0  0  0  0  0
   96.0798    6.8437   -3.6669 H   0  0  0  0  0  0  0  0  0  0  0  0
   93.9447    7.8160   -0.0731 H   0  0  0  0  0  0  0  0  0  0  0  0
   93.9188    5.4286    0.5533 H   0  0  0  0  0  0  0  0  0  0  0  0
   97.6239    4.4095   -0.9009 H   0  0  0  0  0  0  0  0  0  0  0  0
   99.4772    2.5315   -0.3953 H   0  0  0  0  0  0  0  0  0  0  0  0
   55.4054   -0.0022   -0.0977 C   0  0  0  0  0  0  0  0  0  0  0  0
   54.1771   -0.0066   -0.1011 C   0  0  0  0  0  0  0  0  0  0  0  0
   52.8324   -0.0073   -0.0968 C   0  0  0  0  0  0  0  0  0  0  0  0
   51.6086   -0.0029   -0.0902 C   0  0  0  0  0  0  0  0  0  0  0  0
   56.7499    0.0011   -0.0940 C   0  0  0  0  0  0  0  0  0  0  0  0
   57.9739    0.0084   -0.0870 C   0  0  0  0  0  0  0  0  0  0  0  0
   71.4534    0.0207    0.0287 C   0  0  0  0  0  0  0  0  0  0  0  0
   70.2248    0.0192    0.0309 C   0  0  0  0  0  0  0  0  0  0  0  0
   68.8806    0.0181    0.0285 C   0  0  0  0  0  0  0  0  0  0  0  0
   67.6565    0.0169    0.0247 C   0  0  0  0  0  0  0  0  0  0  0  0
   72.7976    0.0232    0.0247 C   0  0  0  0  0  0  0  0  0  0  0  0
   74.0217    0.0258    0.0188 C   0  0  0  0  0  0  0  0  0  0  0  0
   87.5023    0.0633   -0.0318 C   0  0  0  0  0  0  0  0  0  0  0  0
   86.2743    0.0626   -0.0366 C   0  0  0  0  0  0  0  0  0  0  0  0
   84.9292    0.0634   -0.0331 C   0  0  0  0  0  0  0  0  0  0  0  0
   83.7055    0.0611   -0.0278 C   0  0  0  0  0  0  0  0  0  0  0  0
   88.8476    0.0593   -0.0306 C   0  0  0  0  0  0  0  0  0  0  0  0
   90.0712    0.0544   -0.0289 C   0  0  0  0  0  0  0  0  0  0  0  0
   62.8152    0.0139   -0.0314 Cu  0  0  0  0  0  0  0  0  0  0  0  0
   59.3790    0.0119   -0.0738 C   0  0  0  0  0  0  0  0  0  0  0  0
   60.0340   -1.1599   -0.4941 C   0  0  0  0  0  0  0  0  0  0  0  0
   59.3627   -2.3620   -0.8871 C   0  0  0  0  0  0  0  0  0  0  0  0
   60.3236   -3.2540   -1.2386 C   0  0  0  0  0  0  0  0  0  0  0  0
   61.5887   -2.5973   -1.0700 C   0  0  0  0  0  0  0  0  0  0  0  0
   61.3796   -1.3260   -0.6061 N   0  0  0  0  0  0  0  0  0  0  0  0
   62.8328   -3.1780   -1.3262 C   0  0  0  0  0  0  0  0  0  0  0  0
   62.8407   -4.5513   -1.8866 C   0  0  0  0  0  0  0  0  0  0  0  0
   62.2533   -4.8132   -3.1265 C   0  0  0  0  0  0  0  0  0  0  0  0
   62.2636   -6.0914   -3.6553 C   0  0  0  0  0  0  0  0  0  0  0  0
   62.8597   -7.1384   -2.9461 C   0  0  0  0  0  0  0  0  0  0  0  0
   62.8702   -8.4555   -3.4859 C   0  0  0  0  0  0  0  0  0  0  0  0
   62.8816   -9.5198   -3.9234 N   0  0  0  0  0  0  0  0  0  0  0  0
   63.4454   -6.8824   -1.7028 C   0  0  0  0  0  0  0  0  0  0  0  0
   63.4368   -5.6005   -1.1830 C   0  0  0  0  0  0  0  0  0  0  0  0
   64.0705   -2.5718   -1.0992 C   0  0  0  0  0  0  0  0  0  0  0  0
   65.3424   -3.1486   -1.4304 C   0  0  0  0  0  0  0  0  0  0  0  0
   66.2935   -2.2555   -1.0558 C   0  0  0  0  0  0  0  0  0  0  0  0
   64.2657   -1.3352   -0.5445 N   0  0  0  0  0  0  0  0  0  0  0  0
   65.6093   -1.1257   -0.5029 C   0  0  0  0  0  0  0  0  0  0  0  0
   66.2515    0.0148    0.0126 C   0  0  0  0  0  0  0  0  0  0  0  0
   65.5955    1.1538    0.5137 C   0  0  0  0  0  0  0  0  0  0  0  0
   66.2644    2.2832    1.0855 C   0  0  0  0  0  0  0  0  0  0  0  0
   65.3035    3.1763    1.4342 C   0  0  0  0  0  0  0  0  0  0  0  0
   64.0410    2.6001    1.0678 C   0  0  0  0  0  0  0  0  0  0  0  0
   64.2512    1.3630    0.5196 N   0  0  0  0  0  0  0  0  0  0  0  0
   62.7977    3.2081    1.2573 C   0  0  0  0  0  0  0  0  0  0  0  0
   62.7912    4.5847    1.8093 C   0  0  0  0  0  0  0  0  0  0  0  0
   62.1633    4.8578    3.0268 C   0  0  0  0  0  0  0  0  0  0  0  0
   62.1581    6.1402    3.5453 C   0  0  0  0  0  0  0  0  0  0  0  0
   62.7799    7.1805    2.8483 C   0  0  0  0  0  0  0  0  0  0  0  0
   62.7745    8.5021    3.3772 C   0  0  0  0  0  0  0  0  0  0  0  0
   62.7701    9.5702    3.8051 N   0  0  0  0  0  0  0  0  0  0  0  0
   63.4076    6.9131    1.6280 C   0  0  0  0  0  0  0  0  0  0  0  0
   63.4136    5.6271    1.1185 C   0  0  0  0  0  0  0  0  0  0  0  0
   61.5608    2.6268    0.9686 C   0  0  0  0  0  0  0  0  0  0  0  0
   60.2914    3.2836    1.1009 C   0  0  0  0  0  0  0  0  0  0  0  0
   59.3403    2.3892    0.7296 C   0  0  0  0  0  0  0  0  0  0  0  0
   60.0221    1.1858    0.3590 C   0  0  0  0  0  0  0  0  0  0  0  0
   61.3644    1.3536    0.5045 N   0  0  0  0  0  0  0  0  0  0  0  0
   58.2933   -2.4996   -0.8836 H   0  0  0  0  0  0  0  0  0  0  0  0
   60.1911   -4.2716   -1.5685 H   0  0  0  0  0  0  0  0  0  0  0  0
   61.8006   -4.0015   -3.6847 H   0  0  0  0  0  0  0  0  0  0  0  0
   61.8113   -6.2855   -4.6208 H   0  0  0  0  0  0  0  0  0  0  0  0
   63.9048   -7.6924   -1.1484 H   0  0  0  0  0  0  0  0  0  0  0  0
   63.8819   -5.4079   -0.2134 H   0  0  0  0  0  0  0  0  0  0  0  0
   65.4860   -4.1067   -1.9029 H   0  0  0  0  0  0  0  0  0  0  0  0
   67.3641   -2.3420   -1.1495 H   0  0  0  0  0  0  0  0  0  0  0  0
   67.3321    2.3691    1.2088 H   0  0  0  0  0  0  0  0  0  0  0  0
   65.4344    4.1339    1.9114 H   0  0  0  0  0  0  0  0  0  0  0  0
   61.6904    4.0516    3.5762 H   0  0  0  0  0  0  0  0  0  0  0  0
   61.6738    6.3430    4.4933 H   0  0  0  0  0  0  0  0  0  0  0  0
   63.8878    7.7176    1.0833 H   0  0  0  0  0  0  0  0  0  0  0  0
   63.8910    5.4261    0.1660 H   0  0  0  0  0  0  0  0  0  0  0  0
   60.1498    4.3029    1.4217 H   0  0  0  0  0  0  0  0  0  0  0  0
   58.2713    2.5261    0.6976 H   0  0  0  0  0  0  0  0  0  0  0  0
   78.8632    0.0449   -0.0081 Cu  0  0  0  0  0  0  0  0  0  0  0  0
   75.4267    0.0309    0.0114 C   0  0  0  0  0  0  0  0  0  0  0  0
   76.0780   -1.1363   -0.4273 C   0  0  0  0  0  0  0  0  0  0  0  0
   75.4036   -2.3377   -0.8171 C   0  0  0  0  0  0  0  0  0  0  0  0
   76.3612   -3.2259   -1.1866 C   0  0  0  0  0  0  0  0  0  0  0  0
   77.6273   -2.5677   -1.0319 C   0  0  0  0  0  0  0  0  0  0  0  0
   77.4222   -1.2990   -0.5593 N   0  0  0  0  0  0  0  0  0  0  0  0
   78.8689   -3.1463   -1.3047 C   0  0  0  0  0  0  0  0  0  0  0  0
   78.8702   -4.5186   -1.8678 C   0  0  0  0  0  0  0  0  0  0  0  0
   78.2695   -4.7772   -3.1021 C   0  0  0  0  0  0  0  0  0  0  0  0
   78.2700   -6.0549   -3.6324 C   0  0  0  0  0  0  0  0  0  0  0  0
   78.8698   -7.1046   -2.9304 C   0  0  0  0  0  0  0  0  0  0  0  0
   78.8690   -8.4215   -3.4710 C   0  0  0  0  0  0  0  0  0  0  0  0
   78.8675   -9.4861   -3.9078 N   0  0  0  0  0  0  0  0  0  0  0  0
   79.4702   -6.8516   -1.6934 C   0  0  0  0  0  0  0  0  0  0  0  0
   79.4710   -5.5702   -1.1721 C   0  0  0  0  0  0  0  0  0  0  0  0
   80.1086   -2.5393   -1.0918 C   0  0  0  0  0  0  0  0  0  0  0  0
   81.3773   -3.1159   -1.4358 C   0  0  0  0  0  0  0  0  0  0  0  0
   82.3318   -2.2208   -1.0751 C   0  0  0  0  0  0  0  0  0  0  0  0
   80.3091   -1.3009   -0.5429 N   0  0  0  0  0  0  0  0  0  0  0  0
   81.6529   -1.0894   -0.5188 C   0  0  0  0  0  0  0  0  0  0  0  0
   82.2995    0.0567   -0.0224 C   0  0  0  0  0  0  0  0  0  0  0  0
   81.6491    1.1985    0.4783 C   0  0  0  0  0  0  0  0  0  0  0  0
   82.3246    2.3348    1.0288 C   0  0  0  0  0  0  0  0  0  0  0  0
   81.3670    3.2247    1.3940 C   0  0  0  0  0  0  0  0  0  0  0  0
   80.0996    2.6398    1.0591 C   0  0  0  0  0  0  0  0  0  0  0  0
   80.3040    1.4016    0.5116 N   0  0  0  0  0  0  0  0  0  0  0  0
   78.8576    3.2403    1.2783 C   0  0  0  0  0  0  0  0  0  0  0  0
   78.8555    4.6174    1.8291 C   0  0  0  0  0  0  0  0  0  0  0  0
   78.2564    4.8875    3.0617 C   0  0  0  0  0  0  0  0  0  0  0  0
   78.2544    6.1707    3.5784 C   0  0  0  0  0  0  0  0  0  0  0  0
   78.8505    7.2147    2.8645 C   0  0  0  0  0  0  0  0  0  0  0  0
   78.8473    8.5370    3.3915 C   0  0  0  0  0  0  0  0  0  0  0  0
   78.8460    9.6059    3.8177 N   0  0  0  0  0  0  0  0  0  0  0  0
   79.4492    6.9503    1.6292 C   0  0  0  0  0  0  0  0  0  0  0  0
   79.4522    5.6636    1.1214 C   0  0  0  0  0  0  0  0  0  0  0  0
   77.6177    2.6514    1.0204 C   0  0  0  0  0  0  0  0  0  0  0  0
   76.3480    3.3006    1.1841 C   0  0  0  0  0  0  0  0  0  0  0  0
   75.3936    2.4023    0.8309 C   0  0  0  0  0  0  0  0  0  0  0  0
   76.0735    1.2042    0.4404 C   0  0  0  0  0  0  0  0  0  0  0  0
   77.4177    1.3783    0.5573 N   0  0  0  0  0  0  0  0  0  0  0  0
   74.3346   -2.4776   -0.7992 H   0  0  0  0  0  0  0  0  0  0  0  0
   76.2259   -4.2421   -1.5199 H   0  0  0  0  0  0  0  0  0  0  0  0
   77.8132   -3.9635   -3.6545 H   0  0  0  0  0  0  0  0  0  0  0  0
   77.8070   -6.2465   -4.5933 H   0  0  0  0  0  0  0  0  0  0  0  0
   79.9330   -7.6636   -1.1449 H   0  0  0  0  0  0  0  0  0  0  0  0
   79.9271   -5.3802   -0.2071 H   0  0  0  0  0  0  0  0  0  0  0  0
   81.5163   -4.0757   -1.9064 H   0  0  0  0  0  0  0  0  0  0  0  0
   83.4014   -2.3063   -1.1812 H   0  0  0  0  0  0  0  0  0  0  0  0
   83.3943    2.4269    1.1278 H   0  0  0  0  0  0  0  0  0  0  0  0
   81.5031    4.1857    1.8630 H   0  0  0  0  0  0  0  0  0  0  0  0
   77.8036    4.0786    3.6239 H   0  0  0  0  0  0  0  0  0  0  0  0
   77.7923    6.3714    4.5379 H   0  0  0  0  0  0  0  0  0  0  0  0
   79.9092    7.7576    1.0714 H   0  0  0  0  0  0  0  0  0  0  0  0
   79.9069    5.4647    0.1575 H   0  0  0  0  0  0  0  0  0  0  0  0
   76.2078    4.3179    1.5118 H   0  0  0  0  0  0  0  0  0  0  0  0
   74.3235    2.5335    0.8237 H   0  0  0  0  0  0  0  0  0  0  0  0
  2  3  4  0  0  0  0
  3  4  1  0  0  0  0
  4  5  2  0  0  0  0
  5  6  4  0  0  0  0
  1  7  1  0  0  0  0
  3  7  4  0  0  0  0
  6  7  4  0  0  0  0
  6  8  4  0  0  0  0
  8  9  1  0  0  0  0
  9 10  4  0  0  0  0
 10 11  4  0  0  0  0
 11 12  4  0  0  0  0
 12 13  1  0  0  0  0
 13 14  3  0  0  0  0
 12 15  4  0  0  0  0
  9 16  4  0  0  0  0
 15 16  4  0  0  0  0
  8 17  4  0  0  0  0
 17 18  4  0  0  0  0
 18 19  2  0  0  0  0
  1 20  1  0  0  0  0
 17 20  4  0  0  0  0
 19 21  4  0  0  0  0
 20 21  4  0  0  0  0
 21 22  4  0  0  0  0
 22 23  4  0  0  0  0
 23 24  4  0  0  0  0
 24 25  2  0  0  0  0
 25 26  4  0  0  0  0
  1 27  1  0  0  0  0
 23 27  4  0  0  0  0
 26 27  4  0  0  0  0
 26 28  4  0  0  0  0
 28 29  1  0  0  0  0
 29 30  4  0  0  0  0
 30 31  4  0  0  0  0
 31 32  4  0  0  0  0
 32 33  1  0  0  0  0
 33 34  3  0  0  0  0
 32 35  4  0  0  0  0
 29 36  4  0  0  0  0
 35 36  4  0  0  0  0
 28 37  4  0  0  0  0
 37 38  4  0  0  0  0
 38 39  2  0  0  0  0
  2 40  4  0  0  0  0
 39 40  1  0  0  0  0
  1 41  1  0  0  0  0
 37 41  4  0  0  0  0
 40 41  4  0  0  0  0
  2 42  1  0  0  0  0
  4 43  1  0  0  0  0
  5 44  1  0  0  0  0
 10 45  1  0  0  0  0
 11 46  1  0  0  0  0
 15 47  1  0  0  0  0
 16 48  1  0  0  0  0
 18 49  1  0  0  0  0
 19 50  1  0  0  0  0
 24 51  1  0  0  0  0
 25 52  1  0  0  0  0
 30 53  1  0  0  0  0
 31 54  1  0  0  0  0
 35 55  1  0  0  0  0
 36 56  1  0  0  0  0
 38 57  1  0  0  0  0
 39 58  1  0  0  0  0
 60 61  4  0  0  0  0
 61 62  1  0  0  0  0
 62 63  2  0  0  0  0
 63 64  4  0  0  0  0
 59 65  1  0  0  0  0
 61 65  4  0  0  0  0
 64 65  4  0  0  0  0
 64 66  4  0  0  0  0
 66 67  1  0  0  0  0
 67 68  4  0  0  0  0
 68 69  4  0  0  0  0
 69 70  4  0  0  0  0
 70 71  1  0  0  0  0
 71 72  3  0  0  0  0
 70 73  4  0  0  0  0
 67 74  4  0  0  0  0
 73 74  4  0  0  0  0
 66 75  4  0  0  0  0
 75 76  4  0  0  0  0
 76 77  2  0  0  0  0
 59 78  1  0  0  0  0
 75 78  4  0  0  0  0
 77 79  4  0  0  0  0
 78 79  4  0  0  0  0
 79 80  4  0  0  0  0
 80 81  4  0  0  0  0
 81 82  4  0  0  0  0
 82 83  2  0  0  0  0
 83 84  4  0  0  0  0
 59 85  1  0  0  0  0
 81 85  4  0  0  0  0
 84 85  4  0  0  0  0
 84 86  4  0  0  0  0
 86 87  1  0  0  0  0
 87 88  4  0  0  0  0
 88 89  4  0  0  0  0
 89 90  4  0  0  0  0
 90 91  1  0  0  0  0
 91 92  3  0  0  0  0
 90 93  4  0  0  0  0
 87 94  4  0  0  0  0
 93 94  4  0  0  0  0
 86 95  4  0  0  0  0
 95 96  4  0  0  0  0
 96 97  2  0  0  0  0
 60 98  4  0  0  0  0
 97 98  1  0  0  0  0
 59 99  1  0  0  0  0
 95 99  4  0  0  0  0
 98 99  4  0  0  0  0
 60100  1  0  0  0  0
 62101  1  0  0  0  0
 63102  1  0  0  0  0
 68103  1  0  0  0  0
 69104  1  0  0  0  0
 73105  1  0  0  0  0
 74106  1  0  0  0  0
 76107  1  0  0  0  0
 77108  1  0  0  0  0
 82109  1  0  0  0  0
 83110  1  0  0  0  0
 88111  1  0  0  0  0
 89112  1  0  0  0  0
 93113  1  0  0  0  0
 94114  1  0  0  0  0
 96115  1  0  0  0  0
 97116  1  0  0  0  0
117118  3  0  0  0  0
118119  4  0  0  0  0
 22120  4  0  0  0  0
119120  3  0  0  0  0
117121  4  0  0  0  0
121122  3  0  0  0  0
123124  3  0  0  0  0
124125  4  0  0  0  0
125126  3  0  0  0  0
123127  4  0  0  0  0
127128  3  0  0  0  0
129130  3  0  0  0  0
130131  4  0  0  0  0
131132  3  0  0  0  0
129133  4  0  0  0  0
 80134  4  0  0  0  0
133134  3  0  0  0  0
122136  4  0  0  0  0
136137  4  0  0  0  0
137138  4  0  0  0  0
138139  2  0  0  0  0
139140  4  0  0  0  0
135141  1  0  0  0  0
137141  4  0  0  0  0
140141  4  0  0  0  0
140142  4  0  0  0  0
142143  1  0  0  0  0
143144  4  0  0  0  0
144145  4  0  0  0  0
145146  4  0  0  0  0
146147  1  0  0  0  0
147148  3  0  0  0  0
146149  4  0  0  0  0
143150  4  0  0  0  0
149150  4  0  0  0  0
142151  4  0  0  0  0
151152  4  0  0  0  0
152153  2  0  0  0  0
135154  1  0  0  0  0
151154  4  0  0  0  0
153155  4  0  0  0  0
154155  4  0  0  0  0
126156  4  0  0  0  0
155156  4  0  0  0  0
156157  4  0  0  0  0
157158  4  0  0  0  0
158159  2  0  0  0  0
159160  4  0  0  0  0
135161  1  0  0  0  0
157161  4  0  0  0  0
160161  4  0  0  0  0
160162  4  0  0  0  0
162163  1  0  0  0  0
163164  4  0  0  0  0
164165  4  0  0  0  0
165166  4  0  0  0  0
166167  1  0  0  0  0
167168  3  0  0  0  0
166169  4  0  0  0  0
163170  4  0  0  0  0
169170  4  0  0  0  0
162171  4  0  0  0  0
171172  4  0  0  0  0
172173  2  0  0  0  0
136174  4  0  0  0  0
173174  4  0  0  0  0
135175  1  0  0  0  0
171175  4  0  0  0  0
174175  4  0  0  0  0
138176  1  0  0  0  0
139177  1  0  0  0  0
144178  1  0  0  0  0
145179  1  0  0  0  0
149180  1  0  0  0  0
150181  1  0  0  0  0
152182  1  0  0  0  0
153183  1  0  0  0  0
158184  1  0  0  0  0
159185  1  0  0  0  0
164186  1  0  0  0  0
165187  1  0  0  0  0
169188  1  0  0  0  0
170189  1  0  0  0  0
172190  1  0  0  0  0
173191  1  0  0  0  0
128193  4  0  0  0  0
193194  4  0  0  0  0
194195  4  0  0  0  0
195196  2  0  0  0  0
196197  4  0  0  0  0
192198  1  0  0  0  0
194198  4  0  0  0  0
197198  4  0  0  0  0
197199  4  0  0  0  0
199200  1  0  0  0  0
200201  4  0  0  0  0
201202  4  0  0  0  0
202203  4  0  0  0  0
203204  1  0  0  0  0
204205  3  0  0  0  0
203206  4  0  0  0  0
200207  4  0  0  0  0
206207  4  0  0  0  0
199208  4  0  0  0  0
208209  4  0  0  0  0
209210  2  0  0  0  0
192211  1  0  0  0  0
208211  4  0  0  0  0
210212  4  0  0  0  0
211212  4  0  0  0  0
132213  4  0  0  0  0
212213  4  0  0  0  0
213214  4  0  0  0  0
214215  4  0  0  0  0
215216  2  0  0  0  0
216217  4  0  0  0  0
192218  1  0  0  0  0
214218  4  0  0  0  0
217218  4  0  0  0  0
217219  4  0  0  0  0
219220  1  0  0  0  0
220221  4  0  0  0  0
221222  4  0  0  0  0
222223  4  0  0  0  0
223224  1  0  0  0  0
224225  3  0  0  0  0
223226  4  0  0  0  0
220227  4  0  0  0  0
226227  4  0  0  0  0
219228  4  0  0  0  0
228229  4  0  0  0  0
229230  2  0  0  0  0
193231  4  0  0  0  0
230231  4  0  0  0  0
192232  1  0  0  0  0
228232  4  0  0  0  0
231232  4  0  0  0  0
195233  1  0  0  0  0
196234  1  0  0  0  0
201235  1  0  0  0  0
202236  1  0  0  0  0
206237  1  0  0  0  0
207238  1  0  0  0  0
209239  1  0  0  0  0
210240  1  0  0  0  0
215241  1  0  0  0  0
216242  1  0  0  0  0
221243  1  0  0  0  0
222244  1  0  0  0  0
226245  1  0  0  0  0
227246  1  0  0  0  0
229247  1  0  0  0  0
230248  1  0  0  0  0
M  END
