 xtb: 6.5.1 (b24c23e)
          07272222353D

370411  0     0  0            999 V2000
   68.6339    0.0522    0.0815 C   0  0  0  0  0  0  0  0  0  0  0  0
   69.2472    1.2275    0.4947 C   0  0  0  0  0  0  0  0  0  0  0  0
   68.5995    2.4143    0.9395 C   0  0  0  0  0  0  0  0  0  0  0  0
   69.5644    3.3350    1.2364 C   0  0  0  0  0  0  0  0  0  0  0  0
   70.8337    2.7439    0.9751 C   0  0  0  0  0  0  0  0  0  0  0  0
   70.5909    1.4711    0.5407 N   0  0  0  0  0  0  0  0  0  0  0  0
   72.0975    3.3198    1.1425 C   0  0  0  0  0  0  0  0  0  0  0  0
   72.1350    4.7342    1.5883 C   0  0  0  0  0  0  0  0  0  0  0  0
   71.5879    5.7160    0.8557 C   0  0  0  0  0  0  0  0  0  0  0  0
   71.5990    7.1573    1.2944 C   0  0  0  0  0  0  0  0  0  0  0  0
   72.5710    7.3772    2.3685 N   0  0  0  0  0  0  0  0  0  0  0  0
   72.9521    6.3471    3.1882 C   0  0  0  0  0  0  0  0  0  0  0  0
   72.7963    5.0563    2.8445 C   0  0  0  0  0  0  0  0  0  0  0  0
   73.3106    2.6621    0.9197 C   0  0  0  0  0  0  0  0  0  0  0  0
   74.6106    3.2923    1.0640 C   0  0  0  0  0  0  0  0  0  0  0  0
   75.5283    2.3500    0.7648 C   0  0  0  0  0  0  0  0  0  0  0  0
   73.4598    1.3693    0.5230 N   0  0  0  0  0  0  0  0  0  0  0  0
   74.7881    1.1493    0.4269 C   0  0  0  0  0  0  0  0  0  0  0  0
   75.4186   -0.0529    0.0549 C   0  0  0  0  0  0  0  0  0  0  0  0
   74.7804   -1.2436   -0.3362 C   0  0  0  0  0  0  0  0  0  0  0  0
   75.4210   -2.4577   -0.7012 C   0  0  0  0  0  0  0  0  0  0  0  0
   74.4515   -3.3652   -1.0266 C   0  0  0  0  0  0  0  0  0  0  0  0
   73.1872   -2.7312   -0.8749 C   0  0  0  0  0  0  0  0  0  0  0  0
   73.4380   -1.4529   -0.4505 N   0  0  0  0  0  0  0  0  0  0  0  0
   71.9243   -3.2961   -1.0839 C   0  0  0  0  0  0  0  0  0  0  0  0
   71.8931   -4.6986   -1.5641 C   0  0  0  0  0  0  0  0  0  0  0  0
   71.3078   -5.6743   -0.8534 C   0  0  0  0  0  0  0  0  0  0  0  0
   71.2477   -7.1009   -1.3334 C   0  0  0  0  0  0  0  0  0  0  0  0
   72.2091   -7.3383   -2.4137 N   0  0  0  0  0  0  0  0  0  0  0  0
   72.6303   -6.3049   -3.2100 C   0  0  0  0  0  0  0  0  0  0  0  0
   72.5343   -5.0180   -2.8321 C   0  0  0  0  0  0  0  0  0  0  0  0
   70.7103   -2.6342   -0.8725 C   0  0  0  0  0  0  0  0  0  0  0  0
   69.4032   -3.2128   -1.1419 C   0  0  0  0  0  0  0  0  0  0  0  0
   68.4930   -2.2763   -0.8057 C   0  0  0  0  0  0  0  0  0  0  0  0
   69.2429   -1.1210   -0.3460 C   0  0  0  0  0  0  0  0  0  0  0  0
   70.5737   -1.3691   -0.4075 N   0  0  0  0  0  0  0  0  0  0  0  0
   67.5485    0.0623    0.0909 H   0  0  0  0  0  0  0  0  0  0  0  0
   67.5307    2.5331    1.0220 H   0  0  0  0  0  0  0  0  0  0  0  0
   69.4170    4.3342    1.6130 H   0  0  0  0  0  0  0  0  0  0  0  0
   71.3142    0.8052    0.2902 H   0  0  0  0  0  0  0  0  0  0  0  0
   71.0973    5.5172   -0.0902 H   0  0  0  0  0  0  0  0  0  0  0  0
   70.5893    7.4626    1.6280 H   0  0  0  0  0  0  0  0  0  0  0  0
   71.8715    7.8070    0.4516 H   0  0  0  0  0  0  0  0  0  0  0  0
   72.5081    8.2895    2.7963 H   0  0  0  0  0  0  0  0  0  0  0  0
   73.4630    6.6535    4.0953 H   0  0  0  0  0  0  0  0  0  0  0  0
   73.1477    4.2570    3.4814 H   0  0  0  0  0  0  0  0  0  0  0  0
   74.7758    4.3190    1.3482 H   0  0  0  0  0  0  0  0  0  0  0  0
   76.6032    2.4357    0.7565 H   0  0  0  0  0  0  0  0  0  0  0  0
   76.4886   -2.6081   -0.7074 H   0  0  0  0  0  0  0  0  0  0  0  0
   74.5947   -4.3869   -1.3388 H   0  0  0  0  0  0  0  0  0  0  0  0
   72.7178   -0.7687   -0.2434 H   0  0  0  0  0  0  0  0  0  0  0  0
   70.8319   -5.4788    0.1004 H   0  0  0  0  0  0  0  0  0  0  0  0
   70.2245   -7.3454   -1.6755 H   0  0  0  0  0  0  0  0  0  0  0  0
   71.4867   -7.7876   -0.5101 H   0  0  0  0  0  0  0  0  0  0  0  0
   72.0982   -8.2334   -2.8677 H   0  0  0  0  0  0  0  0  0  0  0  0
   73.1224   -6.6099   -4.1281 H   0  0  0  0  0  0  0  0  0  0  0  0
   72.9156   -4.2192   -3.4524 H   0  0  0  0  0  0  0  0  0  0  0  0
   69.2301   -4.1972   -1.5460 H   0  0  0  0  0  0  0  0  0  0  0  0
   67.4169   -2.3288   -0.8630 H   0  0  0  0  0  0  0  0  0  0  0  0
  142.7473   -0.0913    0.0472 C   0  0  0  0  0  0  0  0  0  0  0  0
  142.1331   -1.3042   -0.2358 C   0  0  0  0  0  0  0  0  0  0  0  0
  142.7786   -2.5516   -0.4659 C   0  0  0  0  0  0  0  0  0  0  0  0
  141.8135   -3.4847   -0.7211 C   0  0  0  0  0  0  0  0  0  0  0  0
  140.5466   -2.8361   -0.6646 C   0  0  0  0  0  0  0  0  0  0  0  0
  140.7905   -1.5267   -0.3581 N   0  0  0  0  0  0  0  0  0  0  0  0
  139.2836   -3.4045   -0.8599 C   0  0  0  0  0  0  0  0  0  0  0  0
  139.2446   -4.8426   -1.2216 C   0  0  0  0  0  0  0  0  0  0  0  0
  139.8219   -5.3024   -2.3420 C   0  0  0  0  0  0  0  0  0  0  0  0
  139.8108   -6.7610   -2.7193 C   0  0  0  0  0  0  0  0  0  0  0  0
  138.8076   -7.5005   -1.9489 N   0  0  0  0  0  0  0  0  0  0  0  0
  138.3931   -7.0463   -0.7240 C   0  0  0  0  0  0  0  0  0  0  0  0
  138.5485   -5.7674   -0.3387 C   0  0  0  0  0  0  0  0  0  0  0  0
  138.0717   -2.7187   -0.7374 C   0  0  0  0  0  0  0  0  0  0  0  0
  136.7738   -3.3196   -0.9876 C   0  0  0  0  0  0  0  0  0  0  0  0
  135.8563   -2.3560   -0.7655 C   0  0  0  0  0  0  0  0  0  0  0  0
  137.9221   -1.4118   -0.3905 N   0  0  0  0  0  0  0  0  0  0  0  0
  136.5948   -1.1655   -0.3900 C   0  0  0  0  0  0  0  0  0  0  0  0
  135.9638    0.0511   -0.0691 C   0  0  0  0  0  0  0  0  0  0  0  0
  136.6018    1.2611    0.2574 C   0  0  0  0  0  0  0  0  0  0  0  0
  135.9612    2.4846    0.5896 C   0  0  0  0  0  0  0  0  0  0  0  0
  136.9315    3.4202    0.8191 C   0  0  0  0  0  0  0  0  0  0  0  0
  138.1962    2.7976    0.6291 C   0  0  0  0  0  0  0  0  0  0  0  0
  137.9450    1.4923    0.2974 N   0  0  0  0  0  0  0  0  0  0  0  0
  139.4596    3.3807    0.7762 C   0  0  0  0  0  0  0  0  0  0  0  0
  139.4917    4.8225    1.1207 C   0  0  0  0  0  0  0  0  0  0  0  0
  140.0593    5.2641    2.2532 C   0  0  0  0  0  0  0  0  0  0  0  0
  140.1200    6.7260    2.6117 C   0  0  0  0  0  0  0  0  0  0  0  0
  139.1769    7.5090    1.8085 N   0  0  0  0  0  0  0  0  0  0  0  0
  138.7750    7.0635    0.5758 C   0  0  0  0  0  0  0  0  0  0  0  0
  138.8709    5.7734    0.2089 C   0  0  0  0  0  0  0  0  0  0  0  0
  140.6733    2.7023    0.6229 C   0  0  0  0  0  0  0  0  0  0  0  0
  141.9817    3.3294    0.7266 C   0  0  0  0  0  0  0  0  0  0  0  0
  142.8909    2.3531    0.5306 C   0  0  0  0  0  0  0  0  0  0  0  0
  142.1396    1.1337    0.2922 C   0  0  0  0  0  0  0  0  0  0  0  0
  140.8087    1.3832    0.3461 N   0  0  0  0  0  0  0  0  0  0  0  0
  143.8323   -0.1110    0.0738 H   0  0  0  0  0  0  0  0  0  0  0  0
  143.8458   -2.7031   -0.4316 H   0  0  0  0  0  0  0  0  0  0  0  0
  141.9593   -4.5336   -0.9223 H   0  0  0  0  0  0  0  0  0  0  0  0
  140.0686   -0.8241   -0.2378 H   0  0  0  0  0  0  0  0  0  0  0  0
  140.3388   -4.6436   -3.0302 H   0  0  0  0  0  0  0  0  0  0  0  0
  140.8124   -7.2037   -2.5615 H   0  0  0  0  0  0  0  0  0  0  0  0
  139.5713   -6.8742   -3.7854 H   0  0  0  0  0  0  0  0  0  0  0  0
  138.8657   -8.5026   -2.0580 H   0  0  0  0  0  0  0  0  0  0  0  0
  137.8573   -7.7766   -0.1261 H   0  0  0  0  0  0  0  0  0  0  0  0
  138.1709   -5.4148    0.6105 H   0  0  0  0  0  0  0  0  0  0  0  0
  136.6102   -4.3388   -1.2985 H   0  0  0  0  0  0  0  0  0  0  0  0
  134.7829   -2.4164   -0.8482 H   0  0  0  0  0  0  0  0  0  0  0  0
  134.8931    2.6201    0.6461 H   0  0  0  0  0  0  0  0  0  0  0  0
  136.7883    4.4506    1.1011 H   0  0  0  0  0  0  0  0  0  0  0  0
  138.6649    0.8001    0.1185 H   0  0  0  0  0  0  0  0  0  0  0  0
  140.5197    4.5866    2.9628 H   0  0  0  0  0  0  0  0  0  0  0  0
  141.1477    7.1106    2.4721 H   0  0  0  0  0  0  0  0  0  0  0  0
  139.8623    6.8670    3.6701 H   0  0  0  0  0  0  0  0  0  0  0  0
  139.2910    8.5076    1.9055 H   0  0  0  0  0  0  0  0  0  0  0  0
  138.2976    7.8145   -0.0455 H   0  0  0  0  0  0  0  0  0  0  0  0
  138.5047    5.4318   -0.7489 H   0  0  0  0  0  0  0  0  0  0  0  0
  142.1563    4.3772    0.9109 H   0  0  0  0  0  0  0  0  0  0  0  0
  143.9676    2.4228    0.5302 H   0  0  0  0  0  0  0  0  0  0  0  0
   78.0500   -0.0931    0.0762 C   0  0  0  0  0  0  0  0  0  0  0  0
   76.8291   -0.0780    0.0673 C   0  0  0  0  0  0  0  0  0  0  0  0
   79.4029   -0.1016    0.0809 C   0  0  0  0  0  0  0  0  0  0  0  0
   80.6241   -0.1013    0.0819 C   0  0  0  0  0  0  0  0  0  0  0  0
   91.5342   -0.0090    0.0161 C   0  0  0  0  0  0  0  0  0  0  0  0
   90.3113   -0.0090    0.0297 C   0  0  0  0  0  0  0  0  0  0  0  0
   92.8829   -0.0093    0.0087 C   0  0  0  0  0  0  0  0  0  0  0  0
   94.1059   -0.0087   -0.0005 C   0  0  0  0  0  0  0  0  0  0  0  0
  105.0170   -0.0009    0.0001 C   0  0  0  0  0  0  0  0  0  0  0  0
  103.7937    0.0032    0.0037 C   0  0  0  0  0  0  0  0  0  0  0  0
  106.3655   -0.0069    0.0001 C   0  0  0  0  0  0  0  0  0  0  0  0
  107.5887   -0.0116   -0.0035 C   0  0  0  0  0  0  0  0  0  0  0  0
  118.4993   -0.0015   -0.0000 C   0  0  0  0  0  0  0  0  0  0  0  0
  117.2763   -0.0011    0.0076 C   0  0  0  0  0  0  0  0  0  0  0  0
  119.8480   -0.0022   -0.0058 C   0  0  0  0  0  0  0  0  0  0  0  0
  121.0710    0.0006   -0.0154 C   0  0  0  0  0  0  0  0  0  0  0  0
  131.9791    0.0898   -0.0602 C   0  0  0  0  0  0  0  0  0  0  0  0
  130.7580    0.0880   -0.0515 C   0  0  0  0  0  0  0  0  0  0  0  0
  133.3321    0.0840   -0.0662 C   0  0  0  0  0  0  0  0  0  0  0  0
  134.5531    0.0722   -0.0716 C   0  0  0  0  0  0  0  0  0  0  0  0
   82.0337   -0.1027    0.0759 C   0  0  0  0  0  0  0  0  0  0  0  0
   82.6669   -0.2984    1.3167 C   0  0  0  0  0  0  0  0  0  0  0  0
   82.0277   -0.4721    2.5719 C   0  0  0  0  0  0  0  0  0  0  0  0
   83.0004   -0.6098    3.5239 C   0  0  0  0  0  0  0  0  0  0  0  0
   84.2635   -0.5327    2.8758 C   0  0  0  0  0  0  0  0  0  0  0  0
   84.0107   -0.3396    1.5438 N   0  0  0  0  0  0  0  0  0  0  0  0
   85.5269   -0.6115    3.4727 C   0  0  0  0  0  0  0  0  0  0  0  0
   85.5555   -0.8455    4.9385 C   0  0  0  0  0  0  0  0  0  0  0  0
   85.0693   -1.9712    5.4822 C   0  0  0  0  0  0  0  0  0  0  0  0
   85.1387   -2.2481    6.9611 C   0  0  0  0  0  0  0  0  0  0  0  0
   85.3962   -1.0199    7.7175 N   0  0  0  0  0  0  0  0  0  0  0  0
   86.0384    0.0396    7.1308 C   0  0  0  0  0  0  0  0  0  0  0  0
   86.1217    0.1848    5.7966 C   0  0  0  0  0  0  0  0  0  0  0  0
   86.7486   -0.4889    2.8092 C   0  0  0  0  0  0  0  0  0  0  0  0
   88.0366   -0.6386    3.4619 C   0  0  0  0  0  0  0  0  0  0  0  0
   88.9729   -0.4726    2.5045 C   0  0  0  0  0  0  0  0  0  0  0  0
   86.9236   -0.2479    1.4803 N   0  0  0  0  0  0  0  0  0  0  0  0
   88.2551   -0.2270    1.2694 C   0  0  0  0  0  0  0  0  0  0  0  0
   88.9067   -0.0092    0.0383 C   0  0  0  0  0  0  0  0  0  0  0  0
   88.2708    0.2022   -1.2009 C   0  0  0  0  0  0  0  0  0  0  0  0
   88.9095    0.3926   -2.4533 C   0  0  0  0  0  0  0  0  0  0  0  0
   87.9362    0.5378   -3.4041 C   0  0  0  0  0  0  0  0  0  0  0  0
   86.6736    0.4481   -2.7572 C   0  0  0  0  0  0  0  0  0  0  0  0
   86.9275    0.2418   -1.4269 N   0  0  0  0  0  0  0  0  0  0  0  0
   85.4104    0.5223   -3.3544 C   0  0  0  0  0  0  0  0  0  0  0  0
   85.3806    0.7717   -4.8175 C   0  0  0  0  0  0  0  0  0  0  0  0
   85.8567    1.9083   -5.3474 C   0  0  0  0  0  0  0  0  0  0  0  0
   85.7844    2.2047   -6.8223 C   0  0  0  0  0  0  0  0  0  0  0  0
   85.5221    0.9879   -7.5955 N   0  0  0  0  0  0  0  0  0  0  0  0
   84.8938   -0.0856   -7.0201 C   0  0  0  0  0  0  0  0  0  0  0  0
   84.8209   -0.2519   -5.6877 C   0  0  0  0  0  0  0  0  0  0  0  0
   84.1888    0.3834   -2.6930 C   0  0  0  0  0  0  0  0  0  0  0  0
   82.8998    0.5222   -3.3473 C   0  0  0  0  0  0  0  0  0  0  0  0
   81.9641    0.3463   -2.3916 C   0  0  0  0  0  0  0  0  0  0  0  0
   82.6825    0.1075   -1.1552 C   0  0  0  0  0  0  0  0  0  0  0  0
   84.0154    0.1387   -1.3659 N   0  0  0  0  0  0  0  0  0  0  0  0
   80.9596   -0.4817    2.7187 H   0  0  0  0  0  0  0  0  0  0  0  0
   82.8597   -0.7439    4.5840 H   0  0  0  0  0  0  0  0  0  0  0  0
   84.7252   -0.2338    0.8314 H   0  0  0  0  0  0  0  0  0  0  0  0
   84.6688   -2.7729    4.8725 H   0  0  0  0  0  0  0  0  0  0  0  0
   85.9246   -2.9973    7.1735 H   0  0  0  0  0  0  0  0  0  0  0  0
   84.1867   -2.6693    7.3117 H   0  0  0  0  0  0  0  0  0  0  0  0
   85.5960   -1.1769    8.6948 H   0  0  0  0  0  0  0  0  0  0  0  0
   86.3976    0.7930    7.8246 H   0  0  0  0  0  0  0  0  0  0  0  0
   86.5643    1.0648    5.3521 H   0  0  0  0  0  0  0  0  0  0  0  0
   88.1817   -0.8552    4.5081 H   0  0  0  0  0  0  0  0  0  0  0  0
   90.0465   -0.5137    2.5974 H   0  0  0  0  0  0  0  0  0  0  0  0
   89.9774    0.4076   -2.6003 H   0  0  0  0  0  0  0  0  0  0  0  0
   88.0766    0.6845   -4.4625 H   0  0  0  0  0  0  0  0  0  0  0  0
   86.2135    0.1266   -0.7154 H   0  0  0  0  0  0  0  0  0  0  0  0
   86.2503    2.7056   -4.7276 H   0  0  0  0  0  0  0  0  0  0  0  0
   84.9998    2.9584   -7.0225 H   0  0  0  0  0  0  0  0  0  0  0  0
   86.7365    2.6290   -7.1693 H   0  0  0  0  0  0  0  0  0  0  0  0
   85.3124    1.1595   -8.5682 H   0  0  0  0  0  0  0  0  0  0  0  0
   84.5356   -0.8312   -7.7228 H   0  0  0  0  0  0  0  0  0  0  0  0
   84.3894   -1.1427   -5.2539 H   0  0  0  0  0  0  0  0  0  0  0  0
   82.7538    0.7384   -4.3934 H   0  0  0  0  0  0  0  0  0  0  0  0
   80.8904    0.3778   -2.4858 H   0  0  0  0  0  0  0  0  0  0  0  0
   95.5103   -0.0156   -0.0015 C   0  0  0  0  0  0  0  0  0  0  0  0
   96.1372   -0.2300    1.2421 C   0  0  0  0  0  0  0  0  0  0  0  0
   95.4894   -0.4098    2.4910 C   0  0  0  0  0  0  0  0  0  0  0  0
   96.4560   -0.5624    3.4479 C   0  0  0  0  0  0  0  0  0  0  0  0
   97.7227   -0.4892    2.8078 C   0  0  0  0  0  0  0  0  0  0  0  0
   97.4787   -0.2833    1.4757 N   0  0  0  0  0  0  0  0  0  0  0  0
   98.9822   -0.5805    3.4122 C   0  0  0  0  0  0  0  0  0  0  0  0
   98.9980   -0.8262    4.8762 C   0  0  0  0  0  0  0  0  0  0  0  0
   98.4989   -1.9527    5.4067 C   0  0  0  0  0  0  0  0  0  0  0  0
   98.5535   -2.2421    6.8838 C   0  0  0  0  0  0  0  0  0  0  0  0
   98.8142   -1.0221    7.6523 N   0  0  0  0  0  0  0  0  0  0  0  0
   99.4691    0.0372    7.0797 C   0  0  0  0  0  0  0  0  0  0  0  0
   99.5648    0.1926    5.7474 C   0  0  0  0  0  0  0  0  0  0  0  0
  100.2092   -0.4606    2.7587 C   0  0  0  0  0  0  0  0  0  0  0  0
  101.4916   -0.6207    3.4196 C   0  0  0  0  0  0  0  0  0  0  0  0
  102.4356   -0.4558    2.4696 C   0  0  0  0  0  0  0  0  0  0  0  0
  100.3952   -0.2144    1.4319 N   0  0  0  0  0  0  0  0  0  0  0  0
  101.7281   -0.2013    1.2306 C   0  0  0  0  0  0  0  0  0  0  0  0
  102.3895    0.0136    0.0039 C   0  0  0  0  0  0  0  0  0  0  0  0
  101.7626    0.2290   -1.2396 C   0  0  0  0  0  0  0  0  0  0  0  0
  102.4102    0.4089   -2.4886 C   0  0  0  0  0  0  0  0  0  0  0  0
  101.4436    0.5625   -3.4452 C   0  0  0  0  0  0  0  0  0  0  0  0
  100.1769    0.4895   -2.8051 C   0  0  0  0  0  0  0  0  0  0  0  0
  100.4211    0.2830   -1.4730 N   0  0  0  0  0  0  0  0  0  0  0  0
   98.9174    0.5808   -3.4094 C   0  0  0  0  0  0  0  0  0  0  0  0
   98.9009    0.8262   -4.8735 C   0  0  0  0  0  0  0  0  0  0  0  0
   99.3995    1.9525   -5.4048 C   0  0  0  0  0  0  0  0  0  0  0  0
   99.3431    2.2419   -6.8818 C   0  0  0  0  0  0  0  0  0  0  0  0
   99.0793    1.0225   -7.6501 N   0  0  0  0  0  0  0  0  0  0  0  0
   98.4252   -0.0368   -7.0762 C   0  0  0  0  0  0  0  0  0  0  0  0
   98.3325   -0.1925   -5.7438 C   0  0  0  0  0  0  0  0  0  0  0  0
   97.6904    0.4605   -2.7559 C   0  0  0  0  0  0  0  0  0  0  0  0
   96.4078    0.6202   -3.4169 C   0  0  0  0  0  0  0  0  0  0  0  0
   95.4638    0.4541   -2.4670 C   0  0  0  0  0  0  0  0  0  0  0  0
   96.1715    0.1999   -1.2280 C   0  0  0  0  0  0  0  0  0  0  0  0
   97.5044    0.2139   -1.4293 N   0  0  0  0  0  0  0  0  0  0  0  0
   94.4206   -0.4125    2.6322 H   0  0  0  0  0  0  0  0  0  0  0  0
   96.3076   -0.7037    4.5060 H   0  0  0  0  0  0  0  0  0  0  0  0
   98.1977   -0.1774    0.7678 H   0  0  0  0  0  0  0  0  0  0  0  0
   98.0975   -2.7463    4.7872 H   0  0  0  0  0  0  0  0  0  0  0  0
   99.3314   -2.9993    7.0969 H   0  0  0  0  0  0  0  0  0  0  0  0
   97.5951   -2.6584    7.2226 H   0  0  0  0  0  0  0  0  0  0  0  0
   99.0045   -1.1887    8.6299 H   0  0  0  0  0  0  0  0  0  0  0  0
   99.8281    0.7822    7.7826 H   0  0  0  0  0  0  0  0  0  0  0  0
  100.0173    1.0731    5.3140 H   0  0  0  0  0  0  0  0  0  0  0  0
  101.6282   -0.8427    4.4659 H   0  0  0  0  0  0  0  0  0  0  0  0
  103.5083   -0.5036    2.5699 H   0  0  0  0  0  0  0  0  0  0  0  0
  103.4791    0.4113   -2.6299 H   0  0  0  0  0  0  0  0  0  0  0  0
  101.5918    0.7045   -4.5033 H   0  0  0  0  0  0  0  0  0  0  0  0
   99.7022    0.1770   -0.7651 H   0  0  0  0  0  0  0  0  0  0  0  0
   99.8016    2.7462   -4.7858 H   0  0  0  0  0  0  0  0  0  0  0  0
   98.5659    3.0003   -7.0935 H   0  0  0  0  0  0  0  0  0  0  0  0
  100.3015    2.6569   -7.2222 H   0  0  0  0  0  0  0  0  0  0  0  0
   98.8862    1.1896   -8.6271 H   0  0  0  0  0  0  0  0  0  0  0  0
   98.0643   -0.7814   -7.7785 H   0  0  0  0  0  0  0  0  0  0  0  0
   97.8806   -1.0729   -5.3096 H   0  0  0  0  0  0  0  0  0  0  0  0
   96.2710    0.8427   -4.4630 H   0  0  0  0  0  0  0  0  0  0  0  0
   94.3911    0.5011   -2.5672 H   0  0  0  0  0  0  0  0  0  0  0  0
  108.9929   -0.0218   -0.0028 C   0  0  0  0  0  0  0  0  0  0  0  0
  109.6188   -0.2357    1.2414 C   0  0  0  0  0  0  0  0  0  0  0  0
  108.9702   -0.4132    2.4903 C   0  0  0  0  0  0  0  0  0  0  0  0
  109.9361   -0.5658    3.4479 C   0  0  0  0  0  0  0  0  0  0  0  0
  111.2032   -0.4946    2.8085 C   0  0  0  0  0  0  0  0  0  0  0  0
  110.9601   -0.2900    1.4759 N   0  0  0  0  0  0  0  0  0  0  0  0
  112.4623   -0.5864    3.4136 C   0  0  0  0  0  0  0  0  0  0  0  0
  112.4782   -0.8299    4.8780 C   0  0  0  0  0  0  0  0  0  0  0  0
  111.9775   -1.9545    5.4109 C   0  0  0  0  0  0  0  0  0  0  0  0
  112.0338   -2.2421    6.8883 C   0  0  0  0  0  0  0  0  0  0  0  0
  112.3008   -1.0224    7.6550 N   0  0  0  0  0  0  0  0  0  0  0  0
  112.9565    0.0349    7.0795 C   0  0  0  0  0  0  0  0  0  0  0  0
  113.0488    0.1889    5.7468 C   0  0  0  0  0  0  0  0  0  0  0  0
  113.6898   -0.4683    2.7606 C   0  0  0  0  0  0  0  0  0  0  0  0
  114.9718   -0.6298    3.4221 C   0  0  0  0  0  0  0  0  0  0  0  0
  115.9165   -0.4649    2.4727 C   0  0  0  0  0  0  0  0  0  0  0  0
  113.8767   -0.2220    1.4340 N   0  0  0  0  0  0  0  0  0  0  0  0
  115.2098   -0.2091    1.2335 C   0  0  0  0  0  0  0  0  0  0  0  0
  115.8720    0.0070    0.0076 C   0  0  0  0  0  0  0  0  0  0  0  0
  115.2460    0.2221   -1.2363 C   0  0  0  0  0  0  0  0  0  0  0  0
  115.8948    0.4021   -2.4847 C   0  0  0  0  0  0  0  0  0  0  0  0
  114.9289    0.5555   -3.4422 C   0  0  0  0  0  0  0  0  0  0  0  0
  113.6617    0.4822   -2.8032 C   0  0  0  0  0  0  0  0  0  0  0  0
  113.9047    0.2754   -1.4710 N   0  0  0  0  0  0  0  0  0  0  0  0
  112.4027    0.5736   -3.4085 C   0  0  0  0  0  0  0  0  0  0  0  0
  112.3885    0.8212   -4.8722 C   0  0  0  0  0  0  0  0  0  0  0  0
  112.8902    1.9474   -5.4006 C   0  0  0  0  0  0  0  0  0  0  0  0
  112.8387    2.2390   -6.8774 C   0  0  0  0  0  0  0  0  0  0  0  0
  112.5745    1.0212   -7.6480 N   0  0  0  0  0  0  0  0  0  0  0  0
  111.9173   -0.0378   -7.0775 C   0  0  0  0  0  0  0  0  0  0  0  0
  111.8207   -0.1954   -5.7455 C   0  0  0  0  0  0  0  0  0  0  0  0
  111.1752    0.4527   -2.7562 C   0  0  0  0  0  0  0  0  0  0  0  0
  109.8931    0.6123   -3.4180 C   0  0  0  0  0  0  0  0  0  0  0  0
  108.9485    0.4466   -2.4687 C   0  0  0  0  0  0  0  0  0  0  0  0
  109.6552    0.1923   -1.2292 C   0  0  0  0  0  0  0  0  0  0  0  0
  110.9883    0.2062   -1.4295 N   0  0  0  0  0  0  0  0  0  0  0  0
  107.9013   -0.4147    2.6309 H   0  0  0  0  0  0  0  0  0  0  0  0
  109.7870   -0.7058    4.5060 H   0  0  0  0  0  0  0  0  0  0  0  0
  111.6796   -0.1854    0.7683 H   0  0  0  0  0  0  0  0  0  0  0  0
  111.5739   -2.7483    4.7931 H   0  0  0  0  0  0  0  0  0  0  0  0
  112.8093   -3.0020    7.1007 H   0  0  0  0  0  0  0  0  0  0  0  0
  111.0746   -2.6545    7.2296 H   0  0  0  0  0  0  0  0  0  0  0  0
  112.4943   -1.1888    8.6320 H   0  0  0  0  0  0  0  0  0  0  0  0
  113.3194    0.7796    7.7807 H   0  0  0  0  0  0  0  0  0  0  0  0
  113.5022    1.0678    5.3114 H   0  0  0  0  0  0  0  0  0  0  0  0
  115.1078   -0.8528    4.4682 H   0  0  0  0  0  0  0  0  0  0  0  0
  116.9891   -0.5135    2.5734 H   0  0  0  0  0  0  0  0  0  0  0  0
  116.9637    0.4047   -2.6251 H   0  0  0  0  0  0  0  0  0  0  0  0
  115.0782    0.6973   -4.5001 H   0  0  0  0  0  0  0  0  0  0  0  0
  113.1852    0.1694   -0.7636 H   0  0  0  0  0  0  0  0  0  0  0  0
  113.2923    2.7395   -4.7795 H   0  0  0  0  0  0  0  0  0  0  0  0
  112.0638    2.9994   -7.0905 H   0  0  0  0  0  0  0  0  0  0  0  0
  113.7990    2.6523   -7.2143 H   0  0  0  0  0  0  0  0  0  0  0  0
  112.3851    1.1898   -8.6255 H   0  0  0  0  0  0  0  0  0  0  0  0
  111.5572   -0.7809   -7.7818 H   0  0  0  0  0  0  0  0  0  0  0  0
  111.3664   -1.0758   -5.3139 H   0  0  0  0  0  0  0  0  0  0  0  0
  109.7571    0.8346   -4.4642 H   0  0  0  0  0  0  0  0  0  0  0  0
  107.8759    0.4936   -2.5698 H   0  0  0  0  0  0  0  0  0  0  0  0
  122.4756   -0.0003   -0.0220 C   0  0  0  0  0  0  0  0  0  0  0  0
  123.1088   -0.2102    1.2188 C   0  0  0  0  0  0  0  0  0  0  0  0
  122.4672   -0.3967    2.4703 C   0  0  0  0  0  0  0  0  0  0  0  0
  123.4382   -0.5423    3.4232 C   0  0  0  0  0  0  0  0  0  0  0  0
  124.7023   -0.4568    2.7787 C   0  0  0  0  0  0  0  0  0  0  0  0
  124.4515   -0.2519    1.4476 N   0  0  0  0  0  0  0  0  0  0  0  0
  125.9642   -0.5347    3.3785 C   0  0  0  0  0  0  0  0  0  0  0  0
  125.9898   -0.7838    4.8417 C   0  0  0  0  0  0  0  0  0  0  0  0
  125.5056   -1.9173    5.3710 C   0  0  0  0  0  0  0  0  0  0  0  0
  125.5722   -2.2130    6.8464 C   0  0  0  0  0  0  0  0  0  0  0  0
  125.8379   -0.9968    7.6193 N   0  0  0  0  0  0  0  0  0  0  0  0
  126.4747    0.0724    7.0452 C   0  0  0  0  0  0  0  0  0  0  0  0
  126.5532    0.2369    5.7128 C   0  0  0  0  0  0  0  0  0  0  0  0
  127.1875   -0.3996    2.7193 C   0  0  0  0  0  0  0  0  0  0  0  0
  128.4750   -0.5438    3.3754 C   0  0  0  0  0  0  0  0  0  0  0  0
  129.4129   -0.3687    2.4216 C   0  0  0  0  0  0  0  0  0  0  0  0
  127.3639   -0.1529    1.3931 N   0  0  0  0  0  0  0  0  0  0  0  0
  128.6973   -0.1250    1.1846 C   0  0  0  0  0  0  0  0  0  0  0  0
  129.3483    0.0889   -0.0446 C   0  0  0  0  0  0  0  0  0  0  0  0
  128.7174    0.2896   -1.2857 C   0  0  0  0  0  0  0  0  0  0  0  0
  129.3598    0.4663   -2.5389 C   0  0  0  0  0  0  0  0  0  0  0  0
  128.3894    0.6057   -3.4930 C   0  0  0  0  0  0  0  0  0  0  0  0
  127.1247    0.5271   -2.8482 C   0  0  0  0  0  0  0  0  0  0  0  0
  127.3742    0.3313   -1.5160 N   0  0  0  0  0  0  0  0  0  0  0  0
  125.8628    0.6060   -3.4483 C   0  0  0  0  0  0  0  0  0  0  0  0
  125.8393    0.8429   -4.9137 C   0  0  0  0  0  0  0  0  0  0  0  0
  126.3302    1.9686   -5.4533 C   0  0  0  0  0  0  0  0  0  0  0  0
  126.2689    2.2480   -6.9321 C   0  0  0  0  0  0  0  0  0  0  0  0
  126.0129    1.0214   -7.6914 N   0  0  0  0  0  0  0  0  0  0  0  0
  125.3654   -0.0376   -7.1098 C   0  0  0  0  0  0  0  0  0  0  0  0
  125.2748   -0.1846   -5.7762 C   0  0  0  0  0  0  0  0  0  0  0  0
  124.6396    0.4809   -2.7882 C   0  0  0  0  0  0  0  0  0  0  0  0
  123.3530    0.6295   -3.4439 C   0  0  0  0  0  0  0  0  0  0  0  0
  122.4146    0.4618   -2.4888 C   0  0  0  0  0  0  0  0  0  0  0  0
  123.1298    0.2167   -1.2520 C   0  0  0  0  0  0  0  0  0  0  0  0
  124.4617    0.2388   -1.4600 N   0  0  0  0  0  0  0  0  0  0  0  0
  121.3989   -0.4091    2.6152 H   0  0  0  0  0  0  0  0  0  0  0  0
  123.2952   -0.6863    4.4817 H   0  0  0  0  0  0  0  0  0  0  0  0
  125.1672   -0.1393    0.7374 H   0  0  0  0  0  0  0  0  0  0  0  0
  125.1087   -2.7126    4.7508 H   0  0  0  0  0  0  0  0  0  0  0  0
  126.3526   -2.9703    7.0495 H   0  0  0  0  0  0  0  0  0  0  0  0
  124.6170   -2.6324    7.1908 H   0  0  0  0  0  0  0  0  0  0  0  0
  126.0429   -1.1685    8.5930 H   0  0  0  0  0  0  0  0  0  0  0  0
  126.8349    0.8165    7.7483 H   0  0  0  0  0  0  0  0  0  0  0  0
  126.9914    1.1248    5.2798 H   0  0  0  0  0  0  0  0  0  0  0  0
  128.6186   -0.7629    4.4213 H   0  0  0  0  0  0  0  0  0  0  0  0
  130.4864   -0.4037    2.5172 H   0  0  0  0  0  0  0  0  0  0  0  0
  130.4281    0.4763   -2.6833 H   0  0  0  0  0  0  0  0  0  0  0  0
  128.5328    0.7417   -4.5525 H   0  0  0  0  0  0  0  0  0  0  0  0
  126.6580    0.2238   -0.8055 H   0  0  0  0  0  0  0  0  0  0  0  0
  126.7297    2.7683   -4.8403 H   0  0  0  0  0  0  0  0  0  0  0  0
  125.4857    2.9992   -7.1474 H   0  0  0  0  0  0  0  0  0  0  0  0
  127.2236    2.6677   -7.2770 H   0  0  0  0  0  0  0  0  0  0  0  0
  125.8192    1.1800   -8.6697 H   0  0  0  0  0  0  0  0  0  0  0  0
  125.0081   -0.7891   -7.8066 H   0  0  0  0  0  0  0  0  0  0  0  0
  124.8284   -1.0645   -5.3354 H   0  0  0  0  0  0  0  0  0  0  0  0
  123.2101    0.8465   -4.4903 H   0  0  0  0  0  0  0  0  0  0  0  0
  121.3412    0.5016   -2.5842 H   0  0  0  0  0  0  0  0  0  0  0  0
  1  2  4  0  0  0  0
  2  3  4  0  0  0  0
  3  4  2  0  0  0  0
  4  5  4  0  0  0  0
  2  6  4  0  0  0  0
  5  6  4  0  0  0  0
  5  7  4  0  0  0  0
  7  8  1  0  0  0  0
  8  9  2  0  0  0  0
  9 10  1  0  0  0  0
 10 11  1  0  0  0  0
 11 12  1  0  0  0  0
  8 13  1  0  0  0  0
 12 13  2  0  0  0  0
  7 14  4  0  0  0  0
 14 15  1  0  0  0  0
 15 16  2  0  0  0  0
 14 17  4  0  0  0  0
 16 18  1  0  0  0  0
 17 18  4  0  0  0  0
 18 19  4  0  0  0  0
 19 20  4  0  0  0  0
 20 21  4  0  0  0  0
 21 22  2  0  0  0  0
 22 23  4  0  0  0  0
 20 24  4  0  0  0  0
 23 24  4  0  0  0  0
 23 25  4  0  0  0  0
 25 26  1  0  0  0  0
 26 27  2  0  0  0  0
 27 28  1  0  0  0  0
 28 29  1  0  0  0  0
 29 30  1  0  0  0  0
 26 31  1  0  0  0  0
 30 31  2  0  0  0  0
 25 32  4  0  0  0  0
 32 33  1  0  0  0  0
 33 34  2  0  0  0  0
  1 35  4  0  0  0  0
 34 35  1  0  0  0  0
 32 36  4  0  0  0  0
 35 36  4  0  0  0  0
  1 37  1  0  0  0  0
  3 38  1  0  0  0  0
  4 39  1  0  0  0  0
  6 40  1  0  0  0  0
  9 41  1  0  0  0  0
 10 42  1  0  0  0  0
 10 43  1  0  0  0  0
 11 44  1  0  0  0  0
 12 45  1  0  0  0  0
 13 46  1  0  0  0  0
 15 47  1  0  0  0  0
 16 48  1  0  0  0  0
 21 49  1  0  0  0  0
 22 50  1  0  0  0  0
 24 51  1  0  0  0  0
 27 52  1  0  0  0  0
 28 53  1  0  0  0  0
 28 54  1  0  0  0  0
 29 55  1  0  0  0  0
 30 56  1  0  0  0  0
 31 57  1  0  0  0  0
 33 58  1  0  0  0  0
 34 59  1  0  0  0  0
 60 61  4  0  0  0  0
 61 62  4  0  0  0  0
 62 63  2  0  0  0  0
 63 64  4  0  0  0  0
 61 65  4  0  0  0  0
 64 65  4  0  0  0  0
 64 66  4  0  0  0  0
 66 67  1  0  0  0  0
 67 68  2  0  0  0  0
 68 69  1  0  0  0  0
 69 70  1  0  0  0  0
 70 71  1  0  0  0  0
 67 72  1  0  0  0  0
 71 72  2  0  0  0  0
 66 73  4  0  0  0  0
 73 74  1  0  0  0  0
 74 75  2  0  0  0  0
 73 76  4  0  0  0  0
 75 77  1  0  0  0  0
 76 77  4  0  0  0  0
 77 78  4  0  0  0  0
 78 79  4  0  0  0  0
 79 80  4  0  0  0  0
 80 81  2  0  0  0  0
 81 82  4  0  0  0  0
 79 83  4  0  0  0  0
 82 83  4  0  0  0  0
 82 84  4  0  0  0  0
 84 85  1  0  0  0  0
 85 86  2  0  0  0  0
 86 87  1  0  0  0  0
 87 88  1  0  0  0  0
 88 89  1  0  0  0  0
 85 90  1  0  0  0  0
 89 90  2  0  0  0  0
 84 91  4  0  0  0  0
 91 92  1  0  0  0  0
 92 93  2  0  0  0  0
 60 94  4  0  0  0  0
 93 94  1  0  0  0  0
 91 95  4  0  0  0  0
 94 95  4  0  0  0  0
 60 96  1  0  0  0  0
 62 97  1  0  0  0  0
 63 98  1  0  0  0  0
 65 99  1  0  0  0  0
 68100  1  0  0  0  0
 69101  1  0  0  0  0
 69102  1  0  0  0  0
 70103  1  0  0  0  0
 71104  1  0  0  0  0
 72105  1  0  0  0  0
 74106  1  0  0  0  0
 75107  1  0  0  0  0
 80108  1  0  0  0  0
 81109  1  0  0  0  0
 83110  1  0  0  0  0
 86111  1  0  0  0  0
 87112  1  0  0  0  0
 87113  1  0  0  0  0
 88114  1  0  0  0  0
 89115  1  0  0  0  0
 90116  1  0  0  0  0
 92117  1  0  0  0  0
 93118  1  0  0  0  0
 19120  1  0  0  0  0
119120  3  0  0  0  0
119121  4  0  0  0  0
121122  3  0  0  0  0
123124  3  0  0  0  0
123125  4  0  0  0  0
125126  3  0  0  0  0
127128  3  0  0  0  0
127129  4  0  0  0  0
129130  3  0  0  0  0
131132  3  0  0  0  0
131133  4  0  0  0  0
133134  3  0  0  0  0
135136  3  0  0  0  0
135137  4  0  0  0  0
 78138  1  0  0  0  0
137138  3  0  0  0  0
122139  1  0  0  0  0
139140  4  0  0  0  0
140141  4  0  0  0  0
141142  2  0  0  0  0
142143  4  0  0  0  0
140144  4  0  0  0  0
143144  4  0  0  0  0
143145  4  0  0  0  0
145146  1  0  0  0  0
146147  2  0  0  0  0
147148  1  0  0  0  0
148149  1  0  0  0  0
149150  1  0  0  0  0
146151  1  0  0  0  0
150151  2  0  0  0  0
145152  4  0  0  0  0
152153  1  0  0  0  0
153154  2  0  0  0  0
152155  4  0  0  0  0
154156  1  0  0  0  0
155156  4  0  0  0  0
124157  4  0  0  0  0
156157  4  0  0  0  0
157158  4  0  0  0  0
158159  4  0  0  0  0
159160  2  0  0  0  0
160161  4  0  0  0  0
158162  4  0  0  0  0
161162  4  0  0  0  0
161163  4  0  0  0  0
163164  1  0  0  0  0
164165  2  0  0  0  0
165166  1  0  0  0  0
166167  1  0  0  0  0
167168  1  0  0  0  0
164169  1  0  0  0  0
168169  2  0  0  0  0
163170  4  0  0  0  0
170171  1  0  0  0  0
171172  2  0  0  0  0
139173  4  0  0  0  0
172173  1  0  0  0  0
170174  4  0  0  0  0
173174  4  0  0  0  0
141175  1  0  0  0  0
142176  1  0  0  0  0
144177  1  0  0  0  0
147178  1  0  0  0  0
148179  1  0  0  0  0
148180  1  0  0  0  0
149181  1  0  0  0  0
150182  1  0  0  0  0
151183  1  0  0  0  0
153184  1  0  0  0  0
154185  1  0  0  0  0
159186  1  0  0  0  0
160187  1  0  0  0  0
162188  1  0  0  0  0
165189  1  0  0  0  0
166190  1  0  0  0  0
166191  1  0  0  0  0
167192  1  0  0  0  0
168193  1  0  0  0  0
169194  1  0  0  0  0
171195  1  0  0  0  0
172196  1  0  0  0  0
126197  4  0  0  0  0
197198  4  0  0  0  0
198199  4  0  0  0  0
199200  2  0  0  0  0
200201  4  0  0  0  0
198202  4  0  0  0  0
201202  4  0  0  0  0
201203  4  0  0  0  0
203204  1  0  0  0  0
204205  2  0  0  0  0
205206  1  0  0  0  0
206207  1  0  0  0  0
207208  1  0  0  0  0
204209  1  0  0  0  0
208209  2  0  0  0  0
203210  4  0  0  0  0
210211  1  0  0  0  0
211212  2  0  0  0  0
210213  4  0  0  0  0
212214  1  0  0  0  0
213214  4  0  0  0  0
128215  4  0  0  0  0
214215  4  0  0  0  0
215216  4  0  0  0  0
216217  4  0  0  0  0
217218  2  0  0  0  0
218219  4  0  0  0  0
216220  4  0  0  0  0
219220  4  0  0  0  0
219221  4  0  0  0  0
221222  1  0  0  0  0
222223  2  0  0  0  0
223224  1  0  0  0  0
224225  1  0  0  0  0
225226  1  0  0  0  0
222227  1  0  0  0  0
226227  2  0  0  0  0
221228  4  0  0  0  0
228229  1  0  0  0  0
229230  2  0  0  0  0
197231  4  0  0  0  0
230231  1  0  0  0  0
228232  4  0  0  0  0
231232  4  0  0  0  0
199233  1  0  0  0  0
200234  1  0  0  0  0
202235  1  0  0  0  0
205236  1  0  0  0  0
206237  1  0  0  0  0
206238  1  0  0  0  0
207239  1  0  0  0  0
208240  1  0  0  0  0
209241  1  0  0  0  0
211242  1  0  0  0  0
212243  1  0  0  0  0
217244  1  0  0  0  0
218245  1  0  0  0  0
220246  1  0  0  0  0
223247  1  0  0  0  0
224248  1  0  0  0  0
224249  1  0  0  0  0
225250  1  0  0  0  0
226251  1  0  0  0  0
227252  1  0  0  0  0
229253  1  0  0  0  0
230254  1  0  0  0  0
130255  4  0  0  0  0
255256  4  0  0  0  0
256257  4  0  0  0  0
257258  2  0  0  0  0
258259  4  0  0  0  0
256260  4  0  0  0  0
259260  4  0  0  0  0
259261  4  0  0  0  0
261262  1  0  0  0  0
262263  2  0  0  0  0
263264  1  0  0  0  0
264265  1  0  0  0  0
265266  1  0  0  0  0
262267  1  0  0  0  0
266267  2  0  0  0  0
261268  4  0  0  0  0
268269  1  0  0  0  0
269270  2  0  0  0  0
268271  4  0  0  0  0
270272  1  0  0  0  0
271272  4  0  0  0  0
132273  4  0  0  0  0
272273  4  0  0  0  0
273274  4  0  0  0  0
274275  4  0  0  0  0
275276  2  0  0  0  0
276277  4  0  0  0  0
274278  4  0  0  0  0
277278  4  0  0  0  0
277279  4  0  0  0  0
279280  1  0  0  0  0
280281  2  0  0  0  0
281282  1  0  0  0  0
282283  1  0  0  0  0
283284  1  0  0  0  0
280285  1  0  0  0  0
284285  2  0  0  0  0
279286  4  0  0  0  0
286287  1  0  0  0  0
287288  2  0  0  0  0
255289  4  0  0  0  0
288289  1  0  0  0  0
286290  4  0  0  0  0
289290  4  0  0  0  0
257291  1  0  0  0  0
258292  1  0  0  0  0
260293  1  0  0  0  0
263294  1  0  0  0  0
264295  1  0  0  0  0
264296  1  0  0  0  0
265297  1  0  0  0  0
266298  1  0  0  0  0
267299  1  0  0  0  0
269300  1  0  0  0  0
270301  1  0  0  0  0
275302  1  0  0  0  0
276303  1  0  0  0  0
278304  1  0  0  0  0
281305  1  0  0  0  0
282306  1  0  0  0  0
282307  1  0  0  0  0
283308  1  0  0  0  0
284309  1  0  0  0  0
285310  1  0  0  0  0
287311  1  0  0  0  0
288312  1  0  0  0  0
134313  4  0  0  0  0
313314  4  0  0  0  0
314315  4  0  0  0  0
315316  2  0  0  0  0
316317  4  0  0  0  0
314318  4  0  0  0  0
317318  4  0  0  0  0
317319  4  0  0  0  0
319320  1  0  0  0  0
320321  2  0  0  0  0
321322  1  0  0  0  0
322323  1  0  0  0  0
323324  1  0  0  0  0
320325  1  0  0  0  0
324325  2  0  0  0  0
319326  4  0  0  0  0
326327  1  0  0  0  0
327328  2  0  0  0  0
326329  4  0  0  0  0
328330  1  0  0  0  0
329330  4  0  0  0  0
136331  1  0  0  0  0
330331  4  0  0  0  0
331332  4  0  0  0  0
332333  4  0  0  0  0
333334  2  0  0  0  0
334335  4  0  0  0  0
332336  4  0  0  0  0
335336  4  0  0  0  0
335337  4  0  0  0  0
337338  1  0  0  0  0
338339  2  0  0  0  0
339340  1  0  0  0  0
340341  1  0  0  0  0
341342  1  0  0  0  0
338343  1  0  0  0  0
342343  2  0  0  0  0
337344  4  0  0  0  0
344345  1  0  0  0  0
345346  2  0  0  0  0
313347  4  0  0  0  0
346347  1  0  0  0  0
344348  4  0  0  0  0
347348  4  0  0  0  0
315349  1  0  0  0  0
316350  1  0  0  0  0
318351  1  0  0  0  0
321352  1  0  0  0  0
322353  1  0  0  0  0
322354  1  0  0  0  0
323355  1  0  0  0  0
324356  1  0  0  0  0
325357  1  0  0  0  0
327358  1  0  0  0  0
328359  1  0  0  0  0
333360  1  0  0  0  0
334361  1  0  0  0  0
336362  1  0  0  0  0
339363  1  0  0  0  0
340364  1  0  0  0  0
340365  1  0  0  0  0
341366  1  0  0  0  0
342367  1  0  0  0  0
343368  1  0  0  0  0
345369  1  0  0  0  0
346370  1  0  0  0  0
M  END
