 xtb: 6.5.1 (b24c23e)
          07292220063D

118137  0     0  0            999 V2000
   12.7794   -0.0328   -0.0746 Fe  0  0  0  0  0  0  0  0  0  0  0  0
    9.3908   -0.0606   -0.0846 C   0  0  0  0  0  0  0  0  0  0  0  0
   10.0463   -1.2579   -0.2856 C   0  0  0  0  0  0  0  0  0  0  0  0
    9.3728   -2.5028   -0.5019 C   0  0  0  0  0  0  0  0  0  0  0  0
   10.3285   -3.4614   -0.5263 C   0  0  0  0  0  0  0  0  0  0  0  0
   11.5863   -2.7984   -0.3371 C   0  0  0  0  0  0  0  0  0  0  0  0
   11.4008   -1.4488   -0.2058 N   0  0  0  0  0  0  0  0  0  0  0  0
   12.8018   -3.4610   -0.2048 C   0  0  0  0  0  0  0  0  0  0  0  0
   14.0073   -2.7976   -0.0293 C   0  0  0  0  0  0  0  0  0  0  0  0
   15.2750   -3.4598    0.0545 C   0  0  0  0  0  0  0  0  0  0  0  0
   16.2213   -2.4909    0.0806 C   0  0  0  0  0  0  0  0  0  0  0  0
   14.1811   -1.4334   -0.0276 N   0  0  0  0  0  0  0  0  0  0  0  0
   15.5300   -1.2417    0.0125 C   0  0  0  0  0  0  0  0  0  0  0  0
   16.1871   -0.0071   -0.0632 C   0  0  0  0  0  0  0  0  0  0  0  0
   15.5071    1.2163   -0.1096 C   0  0  0  0  0  0  0  0  0  0  0  0
   16.1717    2.4772   -0.2124 C   0  0  0  0  0  0  0  0  0  0  0  0
   15.2116    3.4296   -0.1285 C   0  0  0  0  0  0  0  0  0  0  0  0
   13.9633    2.7453    0.0318 C   0  0  0  0  0  0  0  0  0  0  0  0
   12.7465    3.3864    0.2204 C   0  0  0  0  0  0  0  0  0  0  0  0
   12.7333    4.8642    0.3313 C   0  0  0  0  0  0  0  0  0  0  0  0
   12.0345    5.6384   -0.5961 C   0  0  0  0  0  0  0  0  0  0  0  0
   12.0260    7.0210   -0.4898 C   0  0  0  0  0  0  0  0  0  0  0  0
   12.7093    7.6461    0.5445 C   0  0  0  0  0  0  0  0  0  0  0  0
   13.4055    6.8826    1.4717 C   0  0  0  0  0  0  0  0  0  0  0  0
   13.4213    5.5001    1.3658 C   0  0  0  0  0  0  0  0  0  0  0  0
   11.5384    2.7013    0.2966 C   0  0  0  0  0  0  0  0  0  0  0  0
   10.2692    3.3339    0.5130 C   0  0  0  0  0  0  0  0  0  0  0  0
    9.3274    2.3667    0.4117 C   0  0  0  0  0  0  0  0  0  0  0  0
   10.0229    1.1428    0.1511 C   0  0  0  0  0  0  0  0  0  0  0  0
   11.3769    1.3529    0.1239 N   0  0  0  0  0  0  0  0  0  0  0  0
   14.1594    1.3851    0.0090 N   0  0  0  0  0  0  0  0  0  0  0  0
   12.8107   -4.9440   -0.2581 C   0  0  0  0  0  0  0  0  0  0  0  0
   12.4826   -5.6137   -1.4368 C   0  0  0  0  0  0  0  0  0  0  0  0
   12.4925   -7.0000   -1.4792 C   0  0  0  0  0  0  0  0  0  0  0  0
   12.8236   -7.7310   -0.3464 C   0  0  0  0  0  0  0  0  0  0  0  0
   13.1499   -7.0705    0.8302 C   0  0  0  0  0  0  0  0  0  0  0  0
   13.1473   -5.6844    0.8753 C   0  0  0  0  0  0  0  0  0  0  0  0
    8.3066   -0.0684   -0.0999 H   0  0  0  0  0  0  0  0  0  0  0  0
    8.3048   -2.6108   -0.6051 H   0  0  0  0  0  0  0  0  0  0  0  0
   10.2045   -4.5251   -0.6487 H   0  0  0  0  0  0  0  0  0  0  0  0
   15.4133   -4.5286    0.0695 H   0  0  0  0  0  0  0  0  0  0  0  0
   17.2929   -2.5976    0.1308 H   0  0  0  0  0  0  0  0  0  0  0  0
   17.2357    2.6019   -0.3332 H   0  0  0  0  0  0  0  0  0  0  0  0
   15.3271    4.5000   -0.1798 H   0  0  0  0  0  0  0  0  0  0  0  0
   11.5113    5.1526   -1.4122 H   0  0  0  0  0  0  0  0  0  0  0  0
   11.4838    7.6131   -1.2187 H   0  0  0  0  0  0  0  0  0  0  0  0
   12.6995    8.7270    0.6276 H   0  0  0  0  0  0  0  0  0  0  0  0
   13.9390    7.3661    2.2826 H   0  0  0  0  0  0  0  0  0  0  0  0
   13.9554    4.9041    2.0973 H   0  0  0  0  0  0  0  0  0  0  0  0
   10.1295    4.3830    0.7177 H   0  0  0  0  0  0  0  0  0  0  0  0
    8.2564    2.4540    0.5044 H   0  0  0  0  0  0  0  0  0  0  0  0
   12.2341   -5.0434   -2.3249 H   0  0  0  0  0  0  0  0  0  0  0  0
   12.2407   -7.5117   -2.4015 H   0  0  0  0  0  0  0  0  0  0  0  0
   12.8277   -8.8146   -0.3807 H   0  0  0  0  0  0  0  0  0  0  0  0
   13.4073   -7.6371    1.7182 H   0  0  0  0  0  0  0  0  0  0  0  0
   13.3930   -5.1684    1.7967 H   0  0  0  0  0  0  0  0  0  0  0  0
   28.7595    0.0355   -0.0725 Fe  0  0  0  0  0  0  0  0  0  0  0  0
   32.1481    0.0644   -0.0769 C   0  0  0  0  0  0  0  0  0  0  0  0
   31.4927    1.2692   -0.2274 C   0  0  0  0  0  0  0  0  0  0  0  0
   32.1662    2.5223   -0.3891 C   0  0  0  0  0  0  0  0  0  0  0  0
   31.2102    3.4808   -0.3744 C   0  0  0  0  0  0  0  0  0  0  0  0
   29.9523    2.8102   -0.2156 C   0  0  0  0  0  0  0  0  0  0  0  0
   30.1380    1.4562   -0.1419 N   0  0  0  0  0  0  0  0  0  0  0  0
   28.7365    3.4662   -0.0558 C   0  0  0  0  0  0  0  0  0  0  0  0
   27.5312    2.7957    0.0908 C   0  0  0  0  0  0  0  0  0  0  0  0
   26.2633    3.4534    0.2032 C   0  0  0  0  0  0  0  0  0  0  0  0
   25.3172    2.4841    0.1873 C   0  0  0  0  0  0  0  0  0  0  0  0
   27.3575    1.4326    0.0333 N   0  0  0  0  0  0  0  0  0  0  0  0
   26.0087    1.2391    0.0652 C   0  0  0  0  0  0  0  0  0  0  0  0
   25.3518    0.0088   -0.0642 C   0  0  0  0  0  0  0  0  0  0  0  0
   26.0321   -1.2113   -0.1637 C   0  0  0  0  0  0  0  0  0  0  0  0
   25.3676   -2.4665   -0.3214 C   0  0  0  0  0  0  0  0  0  0  0  0
   26.3278   -3.4217   -0.2789 C   0  0  0  0  0  0  0  0  0  0  0  0
   27.5760   -2.7449   -0.0888 C   0  0  0  0  0  0  0  0  0  0  0  0
   28.7928   -3.3935    0.0721 C   0  0  0  0  0  0  0  0  0  0  0  0
   28.8061   -4.8747    0.1184 C   0  0  0  0  0  0  0  0  0  0  0  0
   29.5065   -5.6075   -0.8409 C   0  0  0  0  0  0  0  0  0  0  0  0
   29.5149   -6.9935   -0.7953 C   0  0  0  0  0  0  0  0  0  0  0  0
   28.8299   -7.6633    0.2094 C   0  0  0  0  0  0  0  0  0  0  0  0
   28.1322   -6.9413    1.1680 C   0  0  0  0  0  0  0  0  0  0  0  0
   28.1166   -5.5554    1.1229 C   0  0  0  0  0  0  0  0  0  0  0  0
   30.0007   -2.7121    0.1791 C   0  0  0  0  0  0  0  0  0  0  0  0
   31.2697   -3.3533    0.3692 C   0  0  0  0  0  0  0  0  0  0  0  0
   32.2114   -2.3822    0.3122 C   0  0  0  0  0  0  0  0  0  0  0  0
   31.5159   -1.1483    0.1046 C   0  0  0  0  0  0  0  0  0  0  0  0
   30.1620   -1.3574    0.0660 N   0  0  0  0  0  0  0  0  0  0  0  0
   27.3798   -1.3850   -0.0525 N   0  0  0  0  0  0  0  0  0  0  0  0
   28.7276    4.9501   -0.0450 C   0  0  0  0  0  0  0  0  0  0  0  0
   29.0575    5.6701   -1.1932 C   0  0  0  0  0  0  0  0  0  0  0  0
   29.0477    7.0569   -1.1758 C   0  0  0  0  0  0  0  0  0  0  0  0
   28.7150    7.7384   -0.0130 C   0  0  0  0  0  0  0  0  0  0  0  0
   28.3870    7.0277    1.1336 C   0  0  0  0  0  0  0  0  0  0  0  0
   28.3895    5.6410    1.1188 C   0  0  0  0  0  0  0  0  0  0  0  0
   33.2323    0.0730   -0.0898 H   0  0  0  0  0  0  0  0  0  0  0  0
   33.2344    2.6349   -0.4857 H   0  0  0  0  0  0  0  0  0  0  0  0
   31.3343    4.5488   -0.4513 H   0  0  0  0  0  0  0  0  0  0  0  0
   26.1248    4.5204    0.2646 H   0  0  0  0  0  0  0  0  0  0  0  0
   24.2455    2.5883    0.2422 H   0  0  0  0  0  0  0  0  0  0  0  0
   24.3036   -2.5860   -0.4477 H   0  0  0  0  0  0  0  0  0  0  0  0
   26.2123   -4.4888   -0.3767 H   0  0  0  0  0  0  0  0  0  0  0  0
   30.0309   -5.0864   -1.6341 H   0  0  0  0  0  0  0  0  0  0  0  0
   30.0584   -7.5530   -1.5486 H   0  0  0  0  0  0  0  0  0  0  0  0
   28.8396   -8.7468    0.2449 H   0  0  0  0  0  0  0  0  0  0  0  0
   27.5973   -7.4598    1.9560 H   0  0  0  0  0  0  0  0  0  0  0  0
   27.5813   -4.9922    1.8791 H   0  0  0  0  0  0  0  0  0  0  0  0
   31.4096   -4.4103    0.5276 H   0  0  0  0  0  0  0  0  0  0  0  0
   33.2823   -2.4733    0.4026 H   0  0  0  0  0  0  0  0  0  0  0  0
   29.3073    5.1386   -2.1047 H   0  0  0  0  0  0  0  0  0  0  0  0
   29.3013    7.6079   -2.0746 H   0  0  0  0  0  0  0  0  0  0  0  0
   28.7112    8.8224   -0.0003 H   0  0  0  0  0  0  0  0  0  0  0  0
   28.1283    7.5555    2.0448 H   0  0  0  0  0  0  0  0  0  0  0  0
   28.1424    5.0858    2.0168 H   0  0  0  0  0  0  0  0  0  0  0  0
   21.3847   -0.0013   -0.1097 C   0  0  0  0  0  0  0  0  0  0  0  0
   20.1543    0.0054   -0.1060 C   0  0  0  0  0  0  0  0  0  0  0  0
   18.8132    0.0028   -0.0989 C   0  0  0  0  0  0  0  0  0  0  0  0
   17.5875    0.0027   -0.0852 C   0  0  0  0  0  0  0  0  0  0  0  0
   22.7258   -0.0026   -0.1015 C   0  0  0  0  0  0  0  0  0  0  0  0
   23.9515   -0.0008   -0.0876 C   0  0  0  0  0  0  0  0  0  0  0  0
  2  3  4  0  0  0  0
  3  4  4  0  0  0  0
  4  5  2  0  0  0  0
  5  6  4  0  0  0  0
  1  7  1  0  0  0  0
  3  7  4  0  0  0  0
  6  7  4  0  0  0  0
  6  8  4  0  0  0  0
  8  9  4  0  0  0  0
  9 10  4  0  0  0  0
 10 11  2  0  0  0  0
  1 12  1  0  0  0  0
  9 12  4  0  0  0  0
 11 13  4  0  0  0  0
 12 13  4  0  0  0  0
 13 14  4  0  0  0  0
 14 15  4  0  0  0  0
 15 16  4  0  0  0  0
 16 17  2  0  0  0  0
 17 18  4  0  0  0  0
 18 19  4  0  0  0  0
 19 20  1  0  0  0  0
 20 21  4  0  0  0  0
 21 22  4  0  0  0  0
 22 23  4  0  0  0  0
 23 24  4  0  0  0  0
 20 25  4  0  0  0  0
 24 25  4  0  0  0  0
 19 26  4  0  0  0  0
 26 27  4  0  0  0  0
 27 28  2  0  0  0  0
  2 29  4  0  0  0  0
 28 29  4  0  0  0  0
  1 30  1  0  0  0  0
 26 30  4  0  0  0  0
 29 30  4  0  0  0  0
  1 31  1  0  0  0  0
 15 31  4  0  0  0  0
 18 31  4  0  0  0  0
  8 32  1  0  0  0  0
 32 33  4  0  0  0  0
 33 34  4  0  0  0  0
 34 35  4  0  0  0  0
 35 36  4  0  0  0  0
 32 37  4  0  0  0  0
 36 37  4  0  0  0  0
  2 38  1  0  0  0  0
  4 39  1  0  0  0  0
  5 40  1  0  0  0  0
 10 41  1  0  0  0  0
 11 42  1  0  0  0  0
 16 43  1  0  0  0  0
 17 44  1  0  0  0  0
 21 45  1  0  0  0  0
 22 46  1  0  0  0  0
 23 47  1  0  0  0  0
 24 48  1  0  0  0  0
 25 49  1  0  0  0  0
 27 50  1  0  0  0  0
 28 51  1  0  0  0  0
 33 52  1  0  0  0  0
 34 53  1  0  0  0  0
 35 54  1  0  0  0  0
 36 55  1  0  0  0  0
 37 56  1  0  0  0  0
 58 59  4  0  0  0  0
 59 60  4  0  0  0  0
 60 61  2  0  0  0  0
 61 62  4  0  0  0  0
 57 63  1  0  0  0  0
 59 63  4  0  0  0  0
 62 63  4  0  0  0  0
 62 64  4  0  0  0  0
 64 65  4  0  0  0  0
 65 66  4  0  0  0  0
 66 67  2  0  0  0  0
 57 68  1  0  0  0  0
 65 68  4  0  0  0  0
 67 69  4  0  0  0  0
 68 69  4  0  0  0  0
 69 70  4  0  0  0  0
 70 71  4  0  0  0  0
 71 72  4  0  0  0  0
 72 73  2  0  0  0  0
 73 74  4  0  0  0  0
 74 75  4  0  0  0  0
 75 76  1  0  0  0  0
 76 77  4  0  0  0  0
 77 78  4  0  0  0  0
 78 79  4  0  0  0  0
 79 80  4  0  0  0  0
 76 81  4  0  0  0  0
 80 81  4  0  0  0  0
 75 82  4  0  0  0  0
 82 83  4  0  0  0  0
 83 84  2  0  0  0  0
 58 85  4  0  0  0  0
 84 85  4  0  0  0  0
 57 86  1  0  0  0  0
 82 86  4  0  0  0  0
 85 86  4  0  0  0  0
 57 87  1  0  0  0  0
 71 87  4  0  0  0  0
 74 87  4  0  0  0  0
 64 88  1  0  0  0  0
 88 89  4  0  0  0  0
 89 90  4  0  0  0  0
 90 91  4  0  0  0  0
 91 92  4  0  0  0  0
 88 93  4  0  0  0  0
 92 93  4  0  0  0  0
 58 94  1  0  0  0  0
 60 95  1  0  0  0  0
 61 96  1  0  0  0  0
 66 97  1  0  0  0  0
 67 98  1  0  0  0  0
 72 99  1  0  0  0  0
 73100  1  0  0  0  0
 77101  1  0  0  0  0
 78102  1  0  0  0  0
 79103  1  0  0  0  0
 80104  1  0  0  0  0
 81105  1  0  0  0  0
 83106  1  0  0  0  0
 84107  1  0  0  0  0
 89108  1  0  0  0  0
 90109  1  0  0  0  0
 91110  1  0  0  0  0
 92111  1  0  0  0  0
 93112  1  0  0  0  0
113114  3  0  0  0  0
114115  4  0  0  0  0
 14116  4  0  0  0  0
115116  3  0  0  0  0
113117  4  0  0  0  0
 70118  4  0  0  0  0
117118  3  0  0  0  0
M  END
