 xtb: 6.5.1 (b24c23e)
          07302202083D

 76 91  0     0  0            999 V2000
    7.7968   -0.0213   -0.0101 Ni  0  0  0  0  0  0  0  0  0  0  0  0
    4.3863   -0.0560   -0.0381 C   0  0  0  0  0  0  0  0  0  0  0  0
    5.0523   -0.9038   -0.8990 C   0  0  0  0  0  0  0  0  0  0  0  0
    4.3897   -1.7949   -1.8053 C   0  0  0  0  0  0  0  0  0  0  0  0
    5.3593   -2.4543   -2.4809 C   0  0  0  0  0  0  0  0  0  0  0  0
    6.6117   -1.9665   -1.9837 C   0  0  0  0  0  0  0  0  0  0  0  0
    6.4144   -1.0154   -1.0154 N   0  0  0  0  0  0  0  0  0  0  0  0
    7.8376   -2.4147   -2.4295 C   0  0  0  0  0  0  0  0  0  0  0  0
    9.0473   -1.9605   -1.9475 C   0  0  0  0  0  0  0  0  0  0  0  0
   10.3127   -2.4435   -2.4092 C   0  0  0  0  0  0  0  0  0  0  0  0
   11.2609   -1.7758   -1.7099 C   0  0  0  0  0  0  0  0  0  0  0  0
    9.2167   -1.0033   -0.9744 N   0  0  0  0  0  0  0  0  0  0  0  0
   10.5708   -0.8860   -0.8272 C   0  0  0  0  0  0  0  0  0  0  0  0
   11.2256   -0.0128    0.0444 C   0  0  0  0  0  0  0  0  0  0  0  0
   10.5395    0.8636    0.8880 C   0  0  0  0  0  0  0  0  0  0  0  0
   11.1967    1.7684    1.7802 C   0  0  0  0  0  0  0  0  0  0  0  0
   10.2233    2.4451    2.4352 C   0  0  0  0  0  0  0  0  0  0  0  0
    8.9755    1.9489    1.9404 C   0  0  0  0  0  0  0  0  0  0  0  0
    9.1806    0.9779    0.9883 N   0  0  0  0  0  0  0  0  0  0  0  0
    7.7489    2.3980    2.3831 C   0  0  0  0  0  0  0  0  0  0  0  0
    6.5396    1.9229    1.9202 C   0  0  0  0  0  0  0  0  0  0  0  0
    5.2693    2.3898    2.3918 C   0  0  0  0  0  0  0  0  0  0  0  0
    4.3247    1.6977    1.7136 C   0  0  0  0  0  0  0  0  0  0  0  0
    5.0202    0.8108    0.8280 C   0  0  0  0  0  0  0  0  0  0  0  0
    6.3775    0.9545    0.9624 N   0  0  0  0  0  0  0  0  0  0  0  0
    3.3027   -0.0689   -0.0459 H   0  0  0  0  0  0  0  0  0  0  0  0
    3.3188   -1.8860   -1.8959 H   0  0  0  0  0  0  0  0  0  0  0  0
    5.2597   -3.2064   -3.2475 H   0  0  0  0  0  0  0  0  0  0  0  0
    7.8521   -3.1744   -3.2024 H   0  0  0  0  0  0  0  0  0  0  0  0
   10.4379   -3.1969   -3.1705 H   0  0  0  0  0  0  0  0  0  0  0  0
   12.3337   -1.8618   -1.7740 H   0  0  0  0  0  0  0  0  0  0  0  0
   12.2666    1.8592    1.8785 H   0  0  0  0  0  0  0  0  0  0  0  0
   10.3203    3.2113    3.1878 H   0  0  0  0  0  0  0  0  0  0  0  0
    7.7353    3.1696    3.1442 H   0  0  0  0  0  0  0  0  0  0  0  0
    5.1416    3.1502    3.1460 H   0  0  0  0  0  0  0  0  0  0  0  0
    3.2508    1.7655    1.7881 H   0  0  0  0  0  0  0  0  0  0  0  0
   21.2629    0.0237    0.0078 Ni  0  0  0  0  0  0  0  0  0  0  0  0
   24.6733    0.0670    0.0092 C   0  0  0  0  0  0  0  0  0  0  0  0
   24.0077    1.2737   -0.0572 C   0  0  0  0  0  0  0  0  0  0  0  0
   24.6708    2.5424   -0.1283 C   0  0  0  0  0  0  0  0  0  0  0  0
   23.7016    3.4852   -0.1842 C   0  0  0  0  0  0  0  0  0  0  0  0
   22.4489    2.7902   -0.1444 C   0  0  0  0  0  0  0  0  0  0  0  0
   22.6458    1.4350   -0.0679 N   0  0  0  0  0  0  0  0  0  0  0  0
   21.2232    3.4221   -0.1724 C   0  0  0  0  0  0  0  0  0  0  0  0
   20.0133    2.7622   -0.1214 C   0  0  0  0  0  0  0  0  0  0  0  0
   18.7481    3.4305   -0.1377 C   0  0  0  0  0  0  0  0  0  0  0  0
   17.7996    2.4663   -0.0696 C   0  0  0  0  0  0  0  0  0  0  0  0
   19.8435    1.3994   -0.0456 N   0  0  0  0  0  0  0  0  0  0  0  0
   18.4893    1.2140   -0.0153 C   0  0  0  0  0  0  0  0  0  0  0  0
   17.8340   -0.0182    0.0422 C   0  0  0  0  0  0  0  0  0  0  0  0
   18.5197   -1.2344    0.0765 C   0  0  0  0  0  0  0  0  0  0  0  0
   17.8621   -2.5039    0.1279 C   0  0  0  0  0  0  0  0  0  0  0  0
   18.8352   -3.4455    0.1570 C   0  0  0  0  0  0  0  0  0  0  0  0
   20.0832   -2.7459    0.1248 C   0  0  0  0  0  0  0  0  0  0  0  0
   19.8785   -1.3868    0.0736 N   0  0  0  0  0  0  0  0  0  0  0  0
   21.3096   -3.3764    0.1501 C   0  0  0  0  0  0  0  0  0  0  0  0
   22.5192   -2.7138    0.1271 C   0  0  0  0  0  0  0  0  0  0  0  0
   23.7892   -3.3770    0.1616 C   0  0  0  0  0  0  0  0  0  0  0  0
   24.7342   -2.4090    0.1254 C   0  0  0  0  0  0  0  0  0  0  0  0
   24.0390   -1.1568    0.0670 C   0  0  0  0  0  0  0  0  0  0  0  0
   22.6817   -1.3531    0.0699 N   0  0  0  0  0  0  0  0  0  0  0  0
   25.7570    0.0814    0.0119 H   0  0  0  0  0  0  0  0  0  0  0  0
   25.7417    2.6705   -0.1342 H   0  0  0  0  0  0  0  0  0  0  0  0
   23.8015    4.5573   -0.2454 H   0  0  0  0  0  0  0  0  0  0  0  0
   21.2090    4.5042   -0.2330 H   0  0  0  0  0  0  0  0  0  0  0  0
   18.6232    4.5002   -0.1940 H   0  0  0  0  0  0  0  0  0  0  0  0
   16.7268    2.5734   -0.0590 H   0  0  0  0  0  0  0  0  0  0  0  0
   16.7922   -2.6369    0.1396 H   0  0  0  0  0  0  0  0  0  0  0  0
   18.7378   -4.5187    0.1982 H   0  0  0  0  0  0  0  0  0  0  0  0
   21.3228   -4.4593    0.1939 H   0  0  0  0  0  0  0  0  0  0  0  0
   23.9166   -4.4470    0.2080 H   0  0  0  0  0  0  0  0  0  0  0  0
   25.8080   -2.5097    0.1348 H   0  0  0  0  0  0  0  0  0  0  0  0
   13.8538   -0.0260    0.0690 C   0  0  0  0  0  0  0  0  0  0  0  0
   12.6332   -0.0127    0.0649 C   0  0  0  0  0  0  0  0  0  0  0  0
   15.2059   -0.0283    0.0681 C   0  0  0  0  0  0  0  0  0  0  0  0
   16.4264   -0.0314    0.0578 C   0  0  0  0  0  0  0  0  0  0  0  0
  2  3  4  0  0  0  0
  3  4  4  0  0  0  0
  4  5  2  0  0  0  0
  5  6  4  0  0  0  0
  1  7  1  0  0  0  0
  3  7  4  0  0  0  0
  6  7  4  0  0  0  0
  6  8  4  0  0  0  0
  8  9  4  0  0  0  0
  9 10  4  0  0  0  0
 10 11  2  0  0  0  0
  1 12  1  0  0  0  0
  9 12  4  0  0  0  0
 11 13  4  0  0  0  0
 12 13  4  0  0  0  0
 13 14  4  0  0  0  0
 14 15  4  0  0  0  0
 15 16  4  0  0  0  0
 16 17  2  0  0  0  0
 17 18  4  0  0  0  0
  1 19  1  0  0  0  0
 15 19  4  0  0  0  0
 18 19  4  0  0  0  0
 18 20  4  0  0  0  0
 20 21  4  0  0  0  0
 21 22  4  0  0  0  0
 22 23  2  0  0  0  0
  2 24  4  0  0  0  0
 23 24  1  0  0  0  0
  1 25  1  0  0  0  0
 21 25  4  0  0  0  0
 24 25  4  0  0  0  0
  2 26  1  0  0  0  0
  4 27  1  0  0  0  0
  5 28  1  0  0  0  0
  8 29  1  0  0  0  0
 10 30  1  0  0  0  0
 11 31  1  0  0  0  0
 16 32  1  0  0  0  0
 17 33  1  0  0  0  0
 20 34  1  0  0  0  0
 22 35  1  0  0  0  0
 23 36  1  0  0  0  0
 38 39  4  0  0  0  0
 39 40  4  0  0  0  0
 40 41  2  0  0  0  0
 41 42  4  0  0  0  0
 37 43  1  0  0  0  0
 39 43  4  0  0  0  0
 42 43  4  0  0  0  0
 42 44  4  0  0  0  0
 44 45  4  0  0  0  0
 45 46  4  0  0  0  0
 46 47  2  0  0  0  0
 37 48  1  0  0  0  0
 45 48  4  0  0  0  0
 47 49  4  0  0  0  0
 48 49  4  0  0  0  0
 49 50  4  0  0  0  0
 50 51  4  0  0  0  0
 51 52  4  0  0  0  0
 52 53  2  0  0  0  0
 53 54  4  0  0  0  0
 37 55  1  0  0  0  0
 51 55  4  0  0  0  0
 54 55  4  0  0  0  0
 54 56  4  0  0  0  0
 56 57  4  0  0  0  0
 57 58  4  0  0  0  0
 58 59  2  0  0  0  0
 38 60  4  0  0  0  0
 59 60  1  0  0  0  0
 37 61  1  0  0  0  0
 57 61  4  0  0  0  0
 60 61  4  0  0  0  0
 38 62  1  0  0  0  0
 40 63  1  0  0  0  0
 41 64  1  0  0  0  0
 44 65  1  0  0  0  0
 46 66  1  0  0  0  0
 47 67  1  0  0  0  0
 52 68  1  0  0  0  0
 53 69  1  0  0  0  0
 56 70  1  0  0  0  0
 58 71  1  0  0  0  0
 59 72  1  0  0  0  0
 14 74  4  0  0  0  0
 73 74  3  0  0  0  0
 73 75  4  0  0  0  0
 50 76  4  0  0  0  0
 75 76  3  0  0  0  0
M  END
