 xtb: 6.5.1 (b24c23e)
          07302205563D

312351  0     0  0            999 V2000
   45.6176    0.0211   -0.0396 Ni  0  0  0  0  0  0  0  0  0  0  0  0
   42.2152    0.1013   -0.1118 C   0  0  0  0  0  0  0  0  0  0  0  0
   42.8786    1.1961    0.4016 C   0  0  0  0  0  0  0  0  0  0  0  0
   42.2111    2.3561    0.9099 C   0  0  0  0  0  0  0  0  0  0  0  0
   43.1770    3.2144    1.3128 C   0  0  0  0  0  0  0  0  0  0  0  0
   44.4333    2.5780    1.0455 C   0  0  0  0  0  0  0  0  0  0  0  0
   44.2409    1.3365    0.4932 N   0  0  0  0  0  0  0  0  0  0  0  0
   45.6598    3.1718    1.3009 C   0  0  0  0  0  0  0  0  0  0  0  0
   45.6763    4.5435    1.8838 C   0  0  0  0  0  0  0  0  0  0  0  0
   45.6381    5.6586    1.0415 C   0  0  0  0  0  0  0  0  0  0  0  0
   45.5832    5.4719   -0.4514 C   0  0  0  0  0  0  0  0  0  0  0  0
   45.6480    6.9332    1.5954 C   0  0  0  0  0  0  0  0  0  0  0  0
   45.6935    7.1133    2.9742 C   0  0  0  0  0  0  0  0  0  0  0  0
   45.7225    8.4994    3.5594 C   0  0  0  0  0  0  0  0  0  0  0  0
   45.7318    5.9965    3.8024 C   0  0  0  0  0  0  0  0  0  0  0  0
   45.7231    4.7122    3.2705 C   0  0  0  0  0  0  0  0  0  0  0  0
   45.7608    3.5078    4.1730 C   0  0  0  0  0  0  0  0  0  0  0  0
   46.8688    2.5517    1.0290 C   0  0  0  0  0  0  0  0  0  0  0  0
   48.1385    3.1654    1.2739 C   0  0  0  0  0  0  0  0  0  0  0  0
   49.0829    2.2702    0.8982 C   0  0  0  0  0  0  0  0  0  0  0  0
   47.0336    1.2894    0.5042 N   0  0  0  0  0  0  0  0  0  0  0  0
   48.3881    1.1133    0.4280 C   0  0  0  0  0  0  0  0  0  0  0  0
   49.0418   -0.0349   -0.0273 C   0  0  0  0  0  0  0  0  0  0  0  0
   48.3545   -1.1671   -0.4727 C   0  0  0  0  0  0  0  0  0  0  0  0
   49.0143   -2.3556   -0.9135 C   0  0  0  0  0  0  0  0  0  0  0  0
   48.0434   -3.2313   -1.2672 C   0  0  0  0  0  0  0  0  0  0  0  0
   46.7928   -2.5710   -1.0462 C   0  0  0  0  0  0  0  0  0  0  0  0
   46.9954   -1.3026   -0.5503 N   0  0  0  0  0  0  0  0  0  0  0  0
   45.5664   -3.1515   -1.3275 C   0  0  0  0  0  0  0  0  0  0  0  0
   45.5413   -4.5360   -1.8790 C   0  0  0  0  0  0  0  0  0  0  0  0
   45.6197   -4.7385   -3.2604 C   0  0  0  0  0  0  0  0  0  0  0  0
   45.7322   -3.5580   -4.1878 C   0  0  0  0  0  0  0  0  0  0  0  0
   45.5922   -6.0336   -3.7626 C   0  0  0  0  0  0  0  0  0  0  0  0
   45.4886   -7.1294   -2.9106 C   0  0  0  0  0  0  0  0  0  0  0  0
   45.4454   -8.5235   -3.4757 C   0  0  0  0  0  0  0  0  0  0  0  0
   45.4097   -6.9157   -1.5391 C   0  0  0  0  0  0  0  0  0  0  0  0
   45.4349   -5.6284   -1.0141 C   0  0  0  0  0  0  0  0  0  0  0  0
   45.3464   -5.4048    0.4720 C   0  0  0  0  0  0  0  0  0  0  0  0
   44.3595   -2.4996   -1.1264 C   0  0  0  0  0  0  0  0  0  0  0  0
   43.0866   -3.0819   -1.4355 C   0  0  0  0  0  0  0  0  0  0  0  0
   42.1471   -2.1668   -1.1011 C   0  0  0  0  0  0  0  0  0  0  0  0
   42.8471   -1.0294   -0.5854 C   0  0  0  0  0  0  0  0  0  0  0  0
   44.2035   -1.2377   -0.6100 N   0  0  0  0  0  0  0  0  0  0  0  0
   41.1321    0.1283   -0.1381 H   0  0  0  0  0  0  0  0  0  0  0  0
   41.1401    2.4773    0.9456 H   0  0  0  0  0  0  0  0  0  0  0  0
   43.0690    4.1932    1.7516 H   0  0  0  0  0  0  0  0  0  0  0  0
   44.6716    4.9411   -0.7328 H   0  0  0  0  0  0  0  0  0  0  0  0
   46.4333    4.8777   -0.7915 H   0  0  0  0  0  0  0  0  0  0  0  0
   45.5995    6.4328   -0.9647 H   0  0  0  0  0  0  0  0  0  0  0  0
   45.6174    7.7989    0.9419 H   0  0  0  0  0  0  0  0  0  0  0  0
   45.3001    8.5065    4.5644 H   0  0  0  0  0  0  0  0  0  0  0  0
   46.7537    8.8551    3.6214 H   0  0  0  0  0  0  0  0  0  0  0  0
   45.1615    9.1958    2.9355 H   0  0  0  0  0  0  0  0  0  0  0  0
   45.7665    6.1273    4.8790 H   0  0  0  0  0  0  0  0  0  0  0  0
   46.6522    2.9109    3.9709 H   0  0  0  0  0  0  0  0  0  0  0  0
   45.7709    3.8066    5.2208 H   0  0  0  0  0  0  0  0  0  0  0  0
   44.8890    2.8748    3.9973 H   0  0  0  0  0  0  0  0  0  0  0  0
   48.2719    4.1549    1.6802 H   0  0  0  0  0  0  0  0  0  0  0  0
   50.1561    2.3673    0.9320 H   0  0  0  0  0  0  0  0  0  0  0  0
   50.0841   -2.4868   -0.9404 H   0  0  0  0  0  0  0  0  0  0  0  0
   48.1471   -4.2351   -1.6462 H   0  0  0  0  0  0  0  0  0  0  0  0
   44.8853   -2.8836   -4.0477 H   0  0  0  0  0  0  0  0  0  0  0  0
   45.7541   -3.8810   -5.2281 H   0  0  0  0  0  0  0  0  0  0  0  0
   46.6441   -2.9962   -3.9769 H   0  0  0  0  0  0  0  0  0  0  0  0
   45.6532   -6.1921   -4.8344 H   0  0  0  0  0  0  0  0  0  0  0  0
   46.1857   -8.6405   -4.2683 H   0  0  0  0  0  0  0  0  0  0  0  0
   45.6391   -9.2653   -2.7009 H   0  0  0  0  0  0  0  0  0  0  0  0
   44.4601   -8.7228   -3.9030 H   0  0  0  0  0  0  0  0  0  0  0  0
   45.3282   -7.7635   -0.8668 H   0  0  0  0  0  0  0  0  0  0  0  0
   44.4458   -4.8377    0.7157 H   0  0  0  0  0  0  0  0  0  0  0  0
   46.2064   -4.8310    0.8221 H   0  0  0  0  0  0  0  0  0  0  0  0
   45.3164   -6.3533    1.0074 H   0  0  0  0  0  0  0  0  0  0  0  0
   42.9505   -4.0655   -1.8556 H   0  0  0  0  0  0  0  0  0  0  0  0
   41.0741   -2.2366   -1.1848 H   0  0  0  0  0  0  0  0  0  0  0  0
   93.7246   -0.0111   -0.0834 Ni  0  0  0  0  0  0  0  0  0  0  0  0
   97.1260   -0.0250   -0.1902 C   0  0  0  0  0  0  0  0  0  0  0  0
   96.4608   -1.1749   -0.5612 C   0  0  0  0  0  0  0  0  0  0  0  0
   97.1258   -2.3724   -0.9777 C   0  0  0  0  0  0  0  0  0  0  0  0
   96.1578   -3.2667   -1.2863 C   0  0  0  0  0  0  0  0  0  0  0  0
   94.9027   -2.6112   -1.0630 C   0  0  0  0  0  0  0  0  0  0  0  0
   95.0979   -1.3321   -0.6054 N   0  0  0  0  0  0  0  0  0  0  0  0
   93.6758   -3.2016   -1.3239 C   0  0  0  0  0  0  0  0  0  0  0  0
   93.6568   -4.5933   -1.8573 C   0  0  0  0  0  0  0  0  0  0  0  0
   93.7330   -4.8131   -3.2357 C   0  0  0  0  0  0  0  0  0  0  0  0
   93.8329   -3.6442   -4.1792 C   0  0  0  0  0  0  0  0  0  0  0  0
   93.7196   -6.1154   -3.7210 C   0  0  0  0  0  0  0  0  0  0  0  0
   93.6334   -7.2004   -2.8546 C   0  0  0  0  0  0  0  0  0  0  0  0
   93.6004   -8.6048   -3.3942 C   0  0  0  0  0  0  0  0  0  0  0  0
   93.5581   -6.9695   -1.4849 C   0  0  0  0  0  0  0  0  0  0  0  0
   93.5695   -5.6756   -0.9772 C   0  0  0  0  0  0  0  0  0  0  0  0
   93.4922   -5.4331    0.5066 C   0  0  0  0  0  0  0  0  0  0  0  0
   92.4686   -2.5518   -1.1219 C   0  0  0  0  0  0  0  0  0  0  0  0
   91.1986   -3.1423   -1.4169 C   0  0  0  0  0  0  0  0  0  0  0  0
   90.2561   -2.2333   -1.0701 C   0  0  0  0  0  0  0  0  0  0  0  0
   92.3060   -1.2863   -0.6047 N   0  0  0  0  0  0  0  0  0  0  0  0
   90.9524   -1.0941   -0.5605 C   0  0  0  0  0  0  0  0  0  0  0  0
   90.3013    0.0316   -0.0486 C   0  0  0  0  0  0  0  0  0  0  0  0
   90.9916    1.1319    0.4667 C   0  0  0  0  0  0  0  0  0  0  0  0
   90.3351    2.2745    1.0197 C   0  0  0  0  0  0  0  0  0  0  0  0
   91.3079    3.1438    1.3840 C   0  0  0  0  0  0  0  0  0  0  0  0
   92.5563    2.5302    1.0464 C   0  0  0  0  0  0  0  0  0  0  0  0
   92.3507    1.2854    0.4948 N   0  0  0  0  0  0  0  0  0  0  0  0
   93.7820    3.1519    1.2239 C   0  0  0  0  0  0  0  0  0  0  0  0
   93.8089    4.5265    1.7997 C   0  0  0  0  0  0  0  0  0  0  0  0
   93.7023    5.6376    0.9574 C   0  0  0  0  0  0  0  0  0  0  0  0
   93.5569    5.4433   -0.5284 C   0  0  0  0  0  0  0  0  0  0  0  0
   93.7318    6.9142    1.5049 C   0  0  0  0  0  0  0  0  0  0  0  0
   93.8647    7.1011    2.8777 C   0  0  0  0  0  0  0  0  0  0  0  0
   93.9102    8.4922    3.4498 C   0  0  0  0  0  0  0  0  0  0  0  0
   93.9711    5.9889    3.7053 C   0  0  0  0  0  0  0  0  0  0  0  0
   93.9447    4.7019    3.1794 C   0  0  0  0  0  0  0  0  0  0  0  0
   94.0629    3.5027    4.0818 C   0  0  0  0  0  0  0  0  0  0  0  0
   94.9861    2.5564    0.8807 C   0  0  0  0  0  0  0  0  0  0  0  0
   96.2584    3.1980    1.0366 C   0  0  0  0  0  0  0  0  0  0  0  0
   97.1961    2.3088    0.6339 C   0  0  0  0  0  0  0  0  0  0  0  0
   96.4956    1.1253    0.2361 C   0  0  0  0  0  0  0  0  0  0  0  0
   95.1403    1.2890    0.3777 N   0  0  0  0  0  0  0  0  0  0  0  0
   98.2091   -0.0284   -0.2282 H   0  0  0  0  0  0  0  0  0  0  0  0
   98.1967   -2.4921   -1.0213 H   0  0  0  0  0  0  0  0  0  0  0  0
   96.2635   -4.2803   -1.6383 H   0  0  0  0  0  0  0  0  0  0  0  0
   94.7500   -3.0828   -3.9896 H   0  0  0  0  0  0  0  0  0  0  0  0
   92.9906   -2.9654   -4.0339 H   0  0  0  0  0  0  0  0  0  0  0  0
   93.8379   -3.9799   -5.2157 H   0  0  0  0  0  0  0  0  0  0  0  0
   93.7797   -6.2865   -4.7909 H   0  0  0  0  0  0  0  0  0  0  0  0
   94.0132   -9.3090   -2.6715 H   0  0  0  0  0  0  0  0  0  0  0  0
   92.5690   -8.8982   -3.6035 H   0  0  0  0  0  0  0  0  0  0  0  0
   94.1680   -8.6777   -4.3223 H   0  0  0  0  0  0  0  0  0  0  0  0
   93.4920   -7.8098   -0.8016 H   0  0  0  0  0  0  0  0  0  0  0  0
   92.5997   -4.8535    0.7497 H   0  0  0  0  0  0  0  0  0  0  0  0
   93.4567   -6.3746    1.0538 H   0  0  0  0  0  0  0  0  0  0  0  0
   94.3609   -4.8643    0.8436 H   0  0  0  0  0  0  0  0  0  0  0  0
   91.0634   -4.1266   -1.8352 H   0  0  0  0  0  0  0  0  0  0  0  0
   89.1834   -2.3133   -1.1410 H   0  0  0  0  0  0  0  0  0  0  0  0
   89.2661    2.3815    1.1091 H   0  0  0  0  0  0  0  0  0  0  0  0
   91.2070    4.1167    1.8370 H   0  0  0  0  0  0  0  0  0  0  0  0
   94.3980    4.8682   -0.9200 H   0  0  0  0  0  0  0  0  0  0  0  0
   93.5179    6.4021   -1.0443 H   0  0  0  0  0  0  0  0  0  0  0  0
   92.6426    4.8896   -0.7500 H   0  0  0  0  0  0  0  0  0  0  0  0
   93.6490    7.7771    0.8521 H   0  0  0  0  0  0  0  0  0  0  0  0
   93.1694    9.1314    2.9678 H   0  0  0  0  0  0  0  0  0  0  0  0
   93.7197    8.4796    4.5229 H   0  0  0  0  0  0  0  0  0  0  0  0
   94.8957    8.9325    3.2817 H   0  0  0  0  0  0  0  0  0  0  0  0
   94.0752    6.1242    4.7768 H   0  0  0  0  0  0  0  0  0  0  0  0
   94.9635    2.9349    3.8393 H   0  0  0  0  0  0  0  0  0  0  0  0
   93.2055    2.8406    3.9485 H   0  0  0  0  0  0  0  0  0  0  0  0
   94.1129    3.8056    5.1272 H   0  0  0  0  0  0  0  0  0  0  0  0
   96.3958    4.2007    1.4083 H   0  0  0  0  0  0  0  0  0  0  0  0
   98.2683    2.4220    0.6055 H   0  0  0  0  0  0  0  0  0  0  0  0
   54.2453   -0.0798   -0.0337 C   0  0  0  0  0  0  0  0  0  0  0  0
   53.0176   -0.0743   -0.0315 C   0  0  0  0  0  0  0  0  0  0  0  0
   51.6714   -0.0625   -0.0287 C   0  0  0  0  0  0  0  0  0  0  0  0
   50.4482   -0.0540   -0.0290 C   0  0  0  0  0  0  0  0  0  0  0  0
   55.5914   -0.0853   -0.0327 C   0  0  0  0  0  0  0  0  0  0  0  0
   56.8147   -0.0876   -0.0264 C   0  0  0  0  0  0  0  0  0  0  0  0
   70.2840   -0.0064   -0.0399 C   0  0  0  0  0  0  0  0  0  0  0  0
   69.0556   -0.0076   -0.0342 C   0  0  0  0  0  0  0  0  0  0  0  0
   67.7104   -0.0103   -0.0367 C   0  0  0  0  0  0  0  0  0  0  0  0
   66.4864   -0.0156   -0.0357 C   0  0  0  0  0  0  0  0  0  0  0  0
   71.6292   -0.0064   -0.0353 C   0  0  0  0  0  0  0  0  0  0  0  0
   72.8532   -0.0031   -0.0319 C   0  0  0  0  0  0  0  0  0  0  0  0
   86.3253    0.0613   -0.0367 C   0  0  0  0  0  0  0  0  0  0  0  0
   85.0976    0.0600   -0.0289 C   0  0  0  0  0  0  0  0  0  0  0  0
   83.7515    0.0553   -0.0299 C   0  0  0  0  0  0  0  0  0  0  0  0
   82.5281    0.0484   -0.0230 C   0  0  0  0  0  0  0  0  0  0  0  0
   87.6716    0.0575   -0.0403 C   0  0  0  0  0  0  0  0  0  0  0  0
   88.8948    0.0505   -0.0419 C   0  0  0  0  0  0  0  0  0  0  0  0
   61.6511   -0.0626   -0.0294 Ni  0  0  0  0  0  0  0  0  0  0  0  0
   58.2207   -0.0851   -0.0263 C   0  0  0  0  0  0  0  0  0  0  0  0
   58.8927    0.1417    1.1780 C   0  0  0  0  0  0  0  0  0  0  0  0
   58.2172    0.3691    2.4162 C   0  0  0  0  0  0  0  0  0  0  0  0
   59.1757    0.4838    3.3668 C   0  0  0  0  0  0  0  0  0  0  0  0
   60.4336    0.3273    2.7032 C   0  0  0  0  0  0  0  0  0  0  0  0
   60.2493    0.1312    1.3533 N   0  0  0  0  0  0  0  0  0  0  0  0
   61.6509    0.3377    3.3655 C   0  0  0  0  0  0  0  0  0  0  0  0
   61.6523    0.5088    4.8462 C   0  0  0  0  0  0  0  0  0  0  0  0
   61.7423    1.7889    5.3999 C   0  0  0  0  0  0  0  0  0  0  0  0
   61.8335    2.9924    4.5001 C   0  0  0  0  0  0  0  0  0  0  0  0
   61.7458    1.9359    6.7822 C   0  0  0  0  0  0  0  0  0  0  0  0
   61.6604    0.8282    7.6190 C   0  0  0  0  0  0  0  0  0  0  0  0
   61.6873    0.9963    9.1142 C   0  0  0  0  0  0  0  0  0  0  0  0
   61.5705   -0.4410    7.0562 C   0  0  0  0  0  0  0  0  0  0  0  0
   61.5647   -0.6120    5.6771 C   0  0  0  0  0  0  0  0  0  0  0  0
   61.4641   -1.9881    5.0747 C   0  0  0  0  0  0  0  0  0  0  0  0
   62.8680    0.1989    2.7178 C   0  0  0  0  0  0  0  0  0  0  0  0
   64.1263    0.2088    3.3987 C   0  0  0  0  0  0  0  0  0  0  0  0
   65.0851    0.1100    2.4465 C   0  0  0  0  0  0  0  0  0  0  0  0
   63.0527    0.0794    1.3587 N   0  0  0  0  0  0  0  0  0  0  0  0
   64.4093    0.0388    1.1899 C   0  0  0  0  0  0  0  0  0  0  0  0
   65.0817   -0.0265   -0.0344 C   0  0  0  0  0  0  0  0  0  0  0  0
   64.4072   -0.1065   -1.2567 C   0  0  0  0  0  0  0  0  0  0  0  0
   65.0806   -0.1659   -2.5152 C   0  0  0  0  0  0  0  0  0  0  0  0
   64.1215   -0.2919   -3.4639 C   0  0  0  0  0  0  0  0  0  0  0  0
   62.8655   -0.3095   -2.7790 C   0  0  0  0  0  0  0  0  0  0  0  0
   63.0514   -0.1793   -1.4211 N   0  0  0  0  0  0  0  0  0  0  0  0
   61.6498   -0.4794   -3.4223 C   0  0  0  0  0  0  0  0  0  0  0  0
   61.6503   -0.6564   -4.9022 C   0  0  0  0  0  0  0  0  0  0  0  0
   61.5180    0.4576   -5.7364 C   0  0  0  0  0  0  0  0  0  0  0  0
   61.3681    1.8310   -5.1383 C   0  0  0  0  0  0  0  0  0  0  0  0
   61.5245    0.2823   -7.1150 C   0  0  0  0  0  0  0  0  0  0  0  0
   61.6587   -0.9847   -7.6740 C   0  0  0  0  0  0  0  0  0  0  0  0
   61.6866   -1.1565   -9.1687 C   0  0  0  0  0  0  0  0  0  0  0  0
   61.7873   -2.0858   -6.8340 C   0  0  0  0  0  0  0  0  0  0  0  0
   61.7841   -1.9343   -5.4522 C   0  0  0  0  0  0  0  0  0  0  0  0
   61.9222   -3.1307   -4.5488 C   0  0  0  0  0  0  0  0  0  0  0  0
   60.4343   -0.4889   -2.7566 C   0  0  0  0  0  0  0  0  0  0  0  0
   59.1777   -0.6700   -3.4164 C   0  0  0  0  0  0  0  0  0  0  0  0
   58.2192   -0.5584   -2.4655 C   0  0  0  0  0  0  0  0  0  0  0  0
   58.8935   -0.3109   -1.2305 C   0  0  0  0  0  0  0  0  0  0  0  0
   60.2496   -0.2848   -1.4080 N   0  0  0  0  0  0  0  0  0  0  0  0
   57.1463    0.4252    2.5271 H   0  0  0  0  0  0  0  0  0  0  0  0
   59.0582    0.6555    4.4244 H   0  0  0  0  0  0  0  0  0  0  0  0
   62.7269    2.9316    3.8757 H   0  0  0  0  0  0  0  0  0  0  0  0
   61.8769    3.9119    5.0830 H   0  0  0  0  0  0  0  0  0  0  0  0
   60.9667    3.0376    3.8382 H   0  0  0  0  0  0  0  0  0  0  0  0
   61.8150    2.9298    7.2122 H   0  0  0  0  0  0  0  0  0  0  0  0
   62.7113    0.8935    9.4810 H   0  0  0  0  0  0  0  0  0  0  0  0
   61.0760    0.2358    9.6010 H   0  0  0  0  0  0  0  0  0  0  0  0
   61.3207    1.9818    9.4019 H   0  0  0  0  0  0  0  0  0  0  0  0
   61.5026   -1.3106    7.7018 H   0  0  0  0  0  0  0  0  0  0  0  0
   60.5651   -2.0674    4.4605 H   0  0  0  0  0  0  0  0  0  0  0  0
   62.3247   -2.1853    4.4329 H   0  0  0  0  0  0  0  0  0  0  0  0
   61.4246   -2.7511    5.8515 H   0  0  0  0  0  0  0  0  0  0  0  0
   64.2440    0.2859    4.4674 H   0  0  0  0  0  0  0  0  0  0  0  0
   66.1562    0.0894    2.5669 H   0  0  0  0  0  0  0  0  0  0  0  0
   66.1505   -0.1195   -2.6391 H   0  0  0  0  0  0  0  0  0  0  0  0
   64.2376   -0.3701   -4.5327 H   0  0  0  0  0  0  0  0  0  0  0  0
   60.4602    1.8833   -4.5343 H   0  0  0  0  0  0  0  0  0  0  0  0
   61.3128    2.5908   -5.9173 H   0  0  0  0  0  0  0  0  0  0  0  0
   62.2148    2.0566   -4.4875 H   0  0  0  0  0  0  0  0  0  0  0  0
   61.4223    1.1466   -7.7630 H   0  0  0  0  0  0  0  0  0  0  0  0
   61.3523   -2.1546   -9.4524 H   0  0  0  0  0  0  0  0  0  0  0  0
   62.7055   -1.0208   -9.5390 H   0  0  0  0  0  0  0  0  0  0  0  0
   61.0489   -0.4184   -9.6559 H   0  0  0  0  0  0  0  0  0  0  0  0
   61.8904   -3.0780   -7.2611 H   0  0  0  0  0  0  0  0  0  0  0  0
   61.9789   -4.0516   -5.1284 H   0  0  0  0  0  0  0  0  0  0  0  0
   61.0691   -3.1948   -3.8709 H   0  0  0  0  0  0  0  0  0  0  0  0
   62.8250   -3.0440   -3.9412 H   0  0  0  0  0  0  0  0  0  0  0  0
   59.0610   -0.8546   -4.4720 H   0  0  0  0  0  0  0  0  0  0  0  0
   57.1491   -0.6308   -2.5740 H   0  0  0  0  0  0  0  0  0  0  0  0
   77.6904   -0.0011   -0.0238 Ni  0  0  0  0  0  0  0  0  0  0  0  0
   74.2580   -0.0051   -0.0291 C   0  0  0  0  0  0  0  0  0  0  0  0
   74.9294    0.1702    1.1849 C   0  0  0  0  0  0  0  0  0  0  0  0
   74.2511    0.3496    2.4293 C   0  0  0  0  0  0  0  0  0  0  0  0
   75.2082    0.4524    3.3825 C   0  0  0  0  0  0  0  0  0  0  0  0
   76.4681    0.3377    2.7142 C   0  0  0  0  0  0  0  0  0  0  0  0
   76.2858    0.1710    1.3597 N   0  0  0  0  0  0  0  0  0  0  0  0
   77.6855    0.3786    3.3748 C   0  0  0  0  0  0  0  0  0  0  0  0
   77.6819    0.5327    4.8574 C   0  0  0  0  0  0  0  0  0  0  0  0
   77.7345    1.8079    5.4273 C   0  0  0  0  0  0  0  0  0  0  0  0
   77.8003    3.0243    4.5428 C   0  0  0  0  0  0  0  0  0  0  0  0
   77.7245    1.9378    6.8112 C   0  0  0  0  0  0  0  0  0  0  0  0
   77.6625    0.8180    7.6339 C   0  0  0  0  0  0  0  0  0  0  0  0
   77.6694    0.9686    9.1311 C   0  0  0  0  0  0  0  0  0  0  0  0
   77.6139   -0.4463    7.0552 C   0  0  0  0  0  0  0  0  0  0  0  0
   77.6224   -0.6003    5.6740 C   0  0  0  0  0  0  0  0  0  0  0  0
   77.5669   -1.9713    5.0545 C   0  0  0  0  0  0  0  0  0  0  0  0
   78.9055    0.2850    2.7243 C   0  0  0  0  0  0  0  0  0  0  0  0
   80.1637    0.3370    3.4035 C   0  0  0  0  0  0  0  0  0  0  0  0
   81.1237    0.2470    2.4518 C   0  0  0  0  0  0  0  0  0  0  0  0
   79.0913    0.1551    1.3666 N   0  0  0  0  0  0  0  0  0  0  0  0
   80.4486    0.1372    1.1975 C   0  0  0  0  0  0  0  0  0  0  0  0
   81.1221    0.0340   -0.0227 C   0  0  0  0  0  0  0  0  0  0  0  0
   80.4516   -0.0888   -1.2427 C   0  0  0  0  0  0  0  0  0  0  0  0
   81.1296   -0.1964   -2.4956 C   0  0  0  0  0  0  0  0  0  0  0  0
   80.1726   -0.3232   -3.4460 C   0  0  0  0  0  0  0  0  0  0  0  0
   78.9131   -0.2920   -2.7677 C   0  0  0  0  0  0  0  0  0  0  0  0
   79.0951   -0.1405   -1.4118 N   0  0  0  0  0  0  0  0  0  0  0  0
   77.6961   -0.4177   -3.4184 C   0  0  0  0  0  0  0  0  0  0  0  0
   77.6986   -0.6040   -4.8972 C   0  0  0  0  0  0  0  0  0  0  0  0
   77.6178    0.5080   -5.7406 C   0  0  0  0  0  0  0  0  0  0  0  0
   77.5334    1.8918   -5.1539 C   0  0  0  0  0  0  0  0  0  0  0  0
   77.6158    0.3211   -7.1177 C   0  0  0  0  0  0  0  0  0  0  0  0
   77.6919   -0.9553   -7.6662 C   0  0  0  0  0  0  0  0  0  0  0  0
   77.7058   -1.1412   -9.1594 C   0  0  0  0  0  0  0  0  0  0  0  0
   77.7754   -2.0538   -6.8172 C   0  0  0  0  0  0  0  0  0  0  0  0
   77.7794   -1.8909   -5.4367 C   0  0  0  0  0  0  0  0  0  0  0  0
   77.8693   -3.0845   -4.5236 C   0  0  0  0  0  0  0  0  0  0  0  0
   76.4766   -0.3765   -2.7618 C   0  0  0  0  0  0  0  0  0  0  0  0
   75.2191   -0.5027   -3.4323 C   0  0  0  0  0  0  0  0  0  0  0  0
   74.2587   -0.3827   -2.4843 C   0  0  0  0  0  0  0  0  0  0  0  0
   74.9328   -0.1867   -1.2402 C   0  0  0  0  0  0  0  0  0  0  0  0
   76.2898   -0.1901   -1.4105 N   0  0  0  0  0  0  0  0  0  0  0  0
   73.1796    0.3869    2.5418 H   0  0  0  0  0  0  0  0  0  0  0  0
   75.0887    0.5937    4.4444 H   0  0  0  0  0  0  0  0  0  0  0  0
   78.7010    2.9958    3.9266 H   0  0  0  0  0  0  0  0  0  0  0  0
   77.8129    3.9375    5.1371 H   0  0  0  0  0  0  0  0  0  0  0  0
   76.9389    3.0537    3.8730 H   0  0  0  0  0  0  0  0  0  0  0  0
   77.7633    2.9278    7.2538 H   0  0  0  0  0  0  0  0  0  0  0  0
   78.6930    0.8999    9.5069 H   0  0  0  0  0  0  0  0  0  0  0  0
   77.0824    0.1801    9.6029 H   0  0  0  0  0  0  0  0  0  0  0  0
   77.2634    1.9362    9.4269 H   0  0  0  0  0  0  0  0  0  0  0  0
   77.5663   -1.3254    7.6895 H   0  0  0  0  0  0  0  0  0  0  0  0
   76.6731   -2.0714    4.4357 H   0  0  0  0  0  0  0  0  0  0  0  0
   78.4357   -2.1333    4.4138 H   0  0  0  0  0  0  0  0  0  0  0  0
   77.5487   -2.7447    5.8217 H   0  0  0  0  0  0  0  0  0  0  0  0
   80.2803    0.4324    4.4708 H   0  0  0  0  0  0  0  0  0  0  0  0
   82.1952    0.2528    2.5710 H   0  0  0  0  0  0  0  0  0  0  0  0
   82.2009   -0.1773   -2.6149 H   0  0  0  0  0  0  0  0  0  0  0  0
   80.2918   -0.4289   -4.5121 H   0  0  0  0  0  0  0  0  0  0  0  0
   76.6330    1.9906   -4.5444 H   0  0  0  0  0  0  0  0  0  0  0  0
   77.5076    2.6466   -5.9392 H   0  0  0  0  0  0  0  0  0  0  0  0
   78.3941    2.0842   -4.5107 H   0  0  0  0  0  0  0  0  0  0  0  0
   77.5518    1.1837   -7.7728 H   0  0  0  0  0  0  0  0  0  0  0  0
   77.3243   -2.1252   -9.4326 H   0  0  0  0  0  0  0  0  0  0  0  0
   78.7282   -1.0562   -9.5351 H   0  0  0  0  0  0  0  0  0  0  0  0
   77.1006   -0.3788   -9.6507 H   0  0  0  0  0  0  0  0  0  0  0  0
   77.8360   -3.0529   -7.2360 H   0  0  0  0  0  0  0  0  0  0  0  0
   77.8983   -4.0111   -5.0960 H   0  0  0  0  0  0  0  0  0  0  0  0
   77.0098   -3.1140   -3.8514 H   0  0  0  0  0  0  0  0  0  0  0  0
   78.7704   -3.0243   -3.9102 H   0  0  0  0  0  0  0  0  0  0  0  0
   75.1030   -0.6608   -4.4922 H   0  0  0  0  0  0  0  0  0  0  0  0
   73.1875   -0.4209   -2.6002 H   0  0  0  0  0  0  0  0  0  0  0  0
  2  3  4  0  0  0  0
  3  4  4  0  0  0  0
  4  5  2  0  0  0  0
  5  6  4  0  0  0  0
  1  7  1  0  0  0  0
  3  7  4  0  0  0  0
  6  7  4  0  0  0  0
  6  8  4  0  0  0  0
  8  9  1  0  0  0  0
  9 10  4  0  0  0  0
 10 11  1  0  0  0  0
 10 12  4  0  0  0  0
 12 13  4  0  0  0  0
 13 14  1  0  0  0  0
 13 15  4  0  0  0  0
  9 16  4  0  0  0  0
 15 16  4  0  0  0  0
 16 17  1  0  0  0  0
  8 18  4  0  0  0  0
 18 19  4  0  0  0  0
 19 20  2  0  0  0  0
  1 21  1  0  0  0  0
 18 21  4  0  0  0  0
 20 22  4  0  0  0  0
 21 22  4  0  0  0  0
 22 23  4  0  0  0  0
 23 24  4  0  0  0  0
 24 25  4  0  0  0  0
 25 26  2  0  0  0  0
 26 27  4  0  0  0  0
  1 28  1  0  0  0  0
 24 28  4  0  0  0  0
 27 28  4  0  0  0  0
 27 29  4  0  0  0  0
 29 30  1  0  0  0  0
 30 31  4  0  0  0  0
 31 32  1  0  0  0  0
 31 33  4  0  0  0  0
 33 34  4  0  0  0  0
 34 35  1  0  0  0  0
 34 36  4  0  0  0  0
 30 37  4  0  0  0  0
 36 37  4  0  0  0  0
 37 38  1  0  0  0  0
 29 39  4  0  0  0  0
 39 40  4  0  0  0  0
 40 41  2  0  0  0  0
  2 42  4  0  0  0  0
 41 42  4  0  0  0  0
  1 43  1  0  0  0  0
 39 43  4  0  0  0  0
 42 43  4  0  0  0  0
  2 44  1  0  0  0  0
  4 45  1  0  0  0  0
  5 46  1  0  0  0  0
 11 47  1  0  0  0  0
 11 48  1  0  0  0  0
 11 49  1  0  0  0  0
 12 50  1  0  0  0  0
 14 51  1  0  0  0  0
 14 52  1  0  0  0  0
 14 53  1  0  0  0  0
 15 54  1  0  0  0  0
 17 55  1  0  0  0  0
 17 56  1  0  0  0  0
 17 57  1  0  0  0  0
 19 58  1  0  0  0  0
 20 59  1  0  0  0  0
 25 60  1  0  0  0  0
 26 61  1  0  0  0  0
 32 62  1  0  0  0  0
 32 63  1  0  0  0  0
 32 64  1  0  0  0  0
 33 65  1  0  0  0  0
 35 66  1  0  0  0  0
 35 67  1  0  0  0  0
 35 68  1  0  0  0  0
 36 69  1  0  0  0  0
 38 70  1  0  0  0  0
 38 71  1  0  0  0  0
 38 72  1  0  0  0  0
 40 73  1  0  0  0  0
 41 74  1  0  0  0  0
 76 77  4  0  0  0  0
 77 78  4  0  0  0  0
 78 79  2  0  0  0  0
 79 80  4  0  0  0  0
 75 81  1  0  0  0  0
 77 81  4  0  0  0  0
 80 81  4  0  0  0  0
 80 82  4  0  0  0  0
 82 83  1  0  0  0  0
 83 84  4  0  0  0  0
 84 85  1  0  0  0  0
 84 86  4  0  0  0  0
 86 87  4  0  0  0  0
 87 88  1  0  0  0  0
 87 89  4  0  0  0  0
 83 90  4  0  0  0  0
 89 90  4  0  0  0  0
 90 91  1  0  0  0  0
 82 92  4  0  0  0  0
 92 93  4  0  0  0  0
 93 94  2  0  0  0  0
 75 95  1  0  0  0  0
 92 95  4  0  0  0  0
 94 96  4  0  0  0  0
 95 96  4  0  0  0  0
 96 97  4  0  0  0  0
 97 98  4  0  0  0  0
 98 99  4  0  0  0  0
 99100  2  0  0  0  0
100101  4  0  0  0  0
 75102  1  0  0  0  0
 98102  4  0  0  0  0
101102  4  0  0  0  0
101103  4  0  0  0  0
103104  1  0  0  0  0
104105  4  0  0  0  0
105106  1  0  0  0  0
105107  4  0  0  0  0
107108  4  0  0  0  0
108109  1  0  0  0  0
108110  4  0  0  0  0
104111  4  0  0  0  0
110111  4  0  0  0  0
111112  1  0  0  0  0
103113  4  0  0  0  0
113114  4  0  0  0  0
114115  2  0  0  0  0
 76116  4  0  0  0  0
115116  4  0  0  0  0
 75117  1  0  0  0  0
113117  4  0  0  0  0
116117  4  0  0  0  0
 76118  1  0  0  0  0
 78119  1  0  0  0  0
 79120  1  0  0  0  0
 85121  1  0  0  0  0
 85122  1  0  0  0  0
 85123  1  0  0  0  0
 86124  1  0  0  0  0
 88125  1  0  0  0  0
 88126  1  0  0  0  0
 88127  1  0  0  0  0
 89128  1  0  0  0  0
 91129  1  0  0  0  0
 91130  1  0  0  0  0
 91131  1  0  0  0  0
 93132  1  0  0  0  0
 94133  1  0  0  0  0
 99134  1  0  0  0  0
100135  1  0  0  0  0
106136  1  0  0  0  0
106137  1  0  0  0  0
106138  1  0  0  0  0
107139  1  0  0  0  0
109140  1  0  0  0  0
109141  1  0  0  0  0
109142  1  0  0  0  0
110143  1  0  0  0  0
112144  1  0  0  0  0
112145  1  0  0  0  0
112146  1  0  0  0  0
114147  1  0  0  0  0
115148  1  0  0  0  0
149150  3  0  0  0  0
150151  4  0  0  0  0
 23152  4  0  0  0  0
151152  3  0  0  0  0
149153  4  0  0  0  0
153154  3  0  0  0  0
155156  3  0  0  0  0
156157  4  0  0  0  0
157158  3  0  0  0  0
155159  4  0  0  0  0
159160  3  0  0  0  0
161162  3  0  0  0  0
162163  4  0  0  0  0
163164  3  0  0  0  0
161165  4  0  0  0  0
 97166  4  0  0  0  0
165166  3  0  0  0  0
154168  4  0  0  0  0
168169  4  0  0  0  0
169170  4  0  0  0  0
170171  2  0  0  0  0
171172  4  0  0  0  0
167173  1  0  0  0  0
169173  4  0  0  0  0
172173  4  0  0  0  0
172174  4  0  0  0  0
174175  1  0  0  0  0
175176  4  0  0  0  0
176177  1  0  0  0  0
176178  4  0  0  0  0
178179  4  0  0  0  0
179180  1  0  0  0  0
179181  4  0  0  0  0
175182  4  0  0  0  0
181182  4  0  0  0  0
182183  1  0  0  0  0
174184  4  0  0  0  0
184185  4  0  0  0  0
185186  2  0  0  0  0
167187  1  0  0  0  0
184187  4  0  0  0  0
186188  4  0  0  0  0
187188  4  0  0  0  0
158189  4  0  0  0  0
188189  4  0  0  0  0
189190  4  0  0  0  0
190191  4  0  0  0  0
191192  2  0  0  0  0
192193  4  0  0  0  0
167194  1  0  0  0  0
190194  4  0  0  0  0
193194  4  0  0  0  0
193195  4  0  0  0  0
195196  1  0  0  0  0
196197  4  0  0  0  0
197198  1  0  0  0  0
197199  4  0  0  0  0
199200  4  0  0  0  0
200201  1  0  0  0  0
200202  4  0  0  0  0
196203  4  0  0  0  0
202203  4  0  0  0  0
203204  1  0  0  0  0
195205  4  0  0  0  0
205206  4  0  0  0  0
206207  2  0  0  0  0
168208  4  0  0  0  0
207208  4  0  0  0  0
167209  1  0  0  0  0
205209  4  0  0  0  0
208209  4  0  0  0  0
170210  1  0  0  0  0
171211  1  0  0  0  0
177212  1  0  0  0  0
177213  1  0  0  0  0
177214  1  0  0  0  0
178215  1  0  0  0  0
180216  1  0  0  0  0
180217  1  0  0  0  0
180218  1  0  0  0  0
181219  1  0  0  0  0
183220  1  0  0  0  0
183221  1  0  0  0  0
183222  1  0  0  0  0
185223  1  0  0  0  0
186224  1  0  0  0  0
191225  1  0  0  0  0
192226  1  0  0  0  0
198227  1  0  0  0  0
198228  1  0  0  0  0
198229  1  0  0  0  0
199230  1  0  0  0  0
201231  1  0  0  0  0
201232  1  0  0  0  0
201233  1  0  0  0  0
202234  1  0  0  0  0
204235  1  0  0  0  0
204236  1  0  0  0  0
204237  1  0  0  0  0
206238  1  0  0  0  0
207239  1  0  0  0  0
160241  4  0  0  0  0
241242  4  0  0  0  0
242243  4  0  0  0  0
243244  2  0  0  0  0
244245  4  0  0  0  0
240246  1  0  0  0  0
242246  4  0  0  0  0
245246  4  0  0  0  0
245247  4  0  0  0  0
247248  1  0  0  0  0
248249  4  0  0  0  0
249250  1  0  0  0  0
249251  4  0  0  0  0
251252  4  0  0  0  0
252253  1  0  0  0  0
252254  4  0  0  0  0
248255  4  0  0  0  0
254255  4  0  0  0  0
255256  1  0  0  0  0
247257  4  0  0  0  0
257258  4  0  0  0  0
258259  2  0  0  0  0
240260  1  0  0  0  0
257260  4  0  0  0  0
259261  4  0  0  0  0
260261  4  0  0  0  0
164262  4  0  0  0  0
261262  4  0  0  0  0
262263  4  0  0  0  0
263264  4  0  0  0  0
264265  2  0  0  0  0
265266  4  0  0  0  0
240267  1  0  0  0  0
263267  4  0  0  0  0
266267  4  0  0  0  0
266268  4  0  0  0  0
268269  1  0  0  0  0
269270  4  0  0  0  0
270271  1  0  0  0  0
270272  4  0  0  0  0
272273  4  0  0  0  0
273274  1  0  0  0  0
273275  4  0  0  0  0
269276  4  0  0  0  0
275276  4  0  0  0  0
276277  1  0  0  0  0
268278  4  0  0  0  0
278279  4  0  0  0  0
279280  2  0  0  0  0
241281  4  0  0  0  0
280281  4  0  0  0  0
240282  1  0  0  0  0
278282  4  0  0  0  0
281282  4  0  0  0  0
243283  1  0  0  0  0
244284  1  0  0  0  0
250285  1  0  0  0  0
250286  1  0  0  0  0
250287  1  0  0  0  0
251288  1  0  0  0  0
253289  1  0  0  0  0
253290  1  0  0  0  0
253291  1  0  0  0  0
254292  1  0  0  0  0
256293  1  0  0  0  0
256294  1  0  0  0  0
256295  1  0  0  0  0
258296  1  0  0  0  0
259297  1  0  0  0  0
264298  1  0  0  0  0
265299  1  0  0  0  0
271300  1  0  0  0  0
271301  1  0  0  0  0
271302  1  0  0  0  0
272303  1  0  0  0  0
274304  1  0  0  0  0
274305  1  0  0  0  0
274306  1  0  0  0  0
275307  1  0  0  0  0
277308  1  0  0  0  0
277309  1  0  0  0  0
277310  1  0  0  0  0
279311  1  0  0  0  0
280312  1  0  0  0  0
M  END
