 xtb: 6.5.1 (b24c23e)
          07292218013D

213242  0     0  0            999 V2000
   30.9797    0.0651   -0.0620 Fe  0  0  0  0  0  0  0  0  0  0  0  0
   27.6000    0.1417   -0.1353 C   0  0  0  0  0  0  0  0  0  0  0  0
   28.2423    0.8865    0.8334 C   0  0  0  0  0  0  0  0  0  0  0  0
   27.5652    1.6479    1.8384 C   0  0  0  0  0  0  0  0  0  0  0  0
   28.5186    2.3334    2.5141 C   0  0  0  0  0  0  0  0  0  0  0  0
   29.7757    2.0058    1.9059 C   0  0  0  0  0  0  0  0  0  0  0  0
   29.5969    1.0771    0.9172 N   0  0  0  0  0  0  0  0  0  0  0  0
   30.9852    2.6197    2.2244 C   0  0  0  0  0  0  0  0  0  0  0  0
   30.9883    3.7157    3.2159 C   0  0  0  0  0  0  0  0  0  0  0  0
   30.1939    4.8520    3.0319 C   0  0  0  0  0  0  0  0  0  0  0  0
   30.2012    5.8775    3.9574 C   0  0  0  0  0  0  0  0  0  0  0  0
   30.9993    5.7947    5.1057 C   0  0  0  0  0  0  0  0  0  0  0  0
   30.9288    6.8201    6.0345 N   0  0  0  0  0  0  0  0  0  0  0  0
   32.0312    7.0362    6.9615 C   0  0  0  0  0  0  0  0  0  0  0  0
   31.7844    4.6543    5.3023 C   0  0  0  0  0  0  0  0  0  0  0  0
   31.7822    3.6384    4.3625 C   0  0  0  0  0  0  0  0  0  0  0  0
   32.1877    2.2448    1.6369 C   0  0  0  0  0  0  0  0  0  0  0  0
   33.4372    2.9073    1.8647 C   0  0  0  0  0  0  0  0  0  0  0  0
   34.3870    2.1860    1.2199 C   0  0  0  0  0  0  0  0  0  0  0  0
   32.3705    1.1605    0.8124 N   0  0  0  0  0  0  0  0  0  0  0  0
   33.7145    1.0913    0.5947 C   0  0  0  0  0  0  0  0  0  0  0  0
   34.3811    0.0382   -0.0460 C   0  0  0  0  0  0  0  0  0  0  0  0
   33.7047   -1.0153   -0.6762 C   0  0  0  0  0  0  0  0  0  0  0  0
   34.3656   -2.1362   -1.2662 C   0  0  0  0  0  0  0  0  0  0  0  0
   33.4078   -2.8698   -1.8846 C   0  0  0  0  0  0  0  0  0  0  0  0
   32.1665   -2.1828   -1.6855 C   0  0  0  0  0  0  0  0  0  0  0  0
   32.3608   -1.0749   -0.8948 N   0  0  0  0  0  0  0  0  0  0  0  0
   30.9655   -2.5480   -2.2813 C   0  0  0  0  0  0  0  0  0  0  0  0
   30.9524   -3.6841   -3.2265 C   0  0  0  0  0  0  0  0  0  0  0  0
   31.7713   -3.6856   -4.3580 C   0  0  0  0  0  0  0  0  0  0  0  0
   31.7597   -4.7443   -5.2494 C   0  0  0  0  0  0  0  0  0  0  0  0
   30.9341   -5.8487   -5.0175 C   0  0  0  0  0  0  0  0  0  0  0  0
   30.8519   -6.9156   -5.8976 N   0  0  0  0  0  0  0  0  0  0  0  0
   31.9697   -7.2120   -6.7832 C   0  0  0  0  0  0  0  0  0  0  0  0
   30.1073   -5.8505   -3.8866 C   0  0  0  0  0  0  0  0  0  0  0  0
   30.1143   -4.7827   -3.0103 C   0  0  0  0  0  0  0  0  0  0  0  0
   29.7706   -1.8786   -2.0239 C   0  0  0  0  0  0  0  0  0  0  0  0
   28.5271   -2.1666   -2.6781 C   0  0  0  0  0  0  0  0  0  0  0  0
   27.5814   -1.4055   -2.0766 C   0  0  0  0  0  0  0  0  0  0  0  0
   28.2494   -0.6469   -1.0632 C   0  0  0  0  0  0  0  0  0  0  0  0
   29.5950   -0.9092   -1.0753 N   0  0  0  0  0  0  0  0  0  0  0  0
   26.5164    0.1701   -0.1623 H   0  0  0  0  0  0  0  0  0  0  0  0
   26.4980    1.6437    1.9947 H   0  0  0  0  0  0  0  0  0  0  0  0
   28.3925    2.9992    3.3524 H   0  0  0  0  0  0  0  0  0  0  0  0
   29.5860    4.9398    2.1382 H   0  0  0  0  0  0  0  0  0  0  0  0
   29.5875    6.7577    3.7972 H   0  0  0  0  0  0  0  0  0  0  0  0
   30.5750    7.6843    5.6428 H   0  0  0  0  0  0  0  0  0  0  0  0
   32.9897    7.1145    6.4358 H   0  0  0  0  0  0  0  0  0  0  0  0
   32.0820    6.2171    7.6800 H   0  0  0  0  0  0  0  0  0  0  0  0
   31.8399    7.9631    7.5021 H   0  0  0  0  0  0  0  0  0  0  0  0
   32.3962    4.5526    6.1903 H   0  0  0  0  0  0  0  0  0  0  0  0
   32.3874    2.7545    4.5323 H   0  0  0  0  0  0  0  0  0  0  0  0
   33.5621    3.8122    2.4370 H   0  0  0  0  0  0  0  0  0  0  0  0
   35.4488    2.3654    1.1666 H   0  0  0  0  0  0  0  0  0  0  0  0
   35.4251   -2.3263   -1.2051 H   0  0  0  0  0  0  0  0  0  0  0  0
   33.5230   -3.7960   -2.4238 H   0  0  0  0  0  0  0  0  0  0  0  0
   32.4079   -2.8300   -4.5559 H   0  0  0  0  0  0  0  0  0  0  0  0
   32.3929   -4.7040   -6.1272 H   0  0  0  0  0  0  0  0  0  0  0  0
   30.4615   -7.7480   -5.4731 H   0  0  0  0  0  0  0  0  0  0  0  0
   32.0649   -6.4319   -7.5396 H   0  0  0  0  0  0  0  0  0  0  0  0
   31.7621   -8.1585   -7.2823 H   0  0  0  0  0  0  0  0  0  0  0  0
   32.9116   -7.2935   -6.2289 H   0  0  0  0  0  0  0  0  0  0  0  0
   29.4601   -6.7012   -3.7008 H   0  0  0  0  0  0  0  0  0  0  0  0
   29.4828   -4.8071   -2.1289 H   0  0  0  0  0  0  0  0  0  0  0  0
   28.4055   -2.8575   -3.4966 H   0  0  0  0  0  0  0  0  0  0  0  0
   26.5245   -1.3520   -2.2849 H   0  0  0  0  0  0  0  0  0  0  0  0
   68.0579    0.0199   -0.0258 Fe  0  0  0  0  0  0  0  0  0  0  0  0
   71.4367    0.0973   -0.1593 C   0  0  0  0  0  0  0  0  0  0  0  0
   70.7951   -1.0125   -0.6710 C   0  0  0  0  0  0  0  0  0  0  0  0
   71.4734   -2.1496   -1.2145 C   0  0  0  0  0  0  0  0  0  0  0  0
   70.5190   -2.9602   -1.7315 C   0  0  0  0  0  0  0  0  0  0  0  0
   69.2596   -2.3073   -1.5192 C   0  0  0  0  0  0  0  0  0  0  0  0
   69.4390   -1.1448   -0.8206 N   0  0  0  0  0  0  0  0  0  0  0  0
   68.0455   -2.7605   -2.0306 C   0  0  0  0  0  0  0  0  0  0  0  0
   68.0409   -3.9570   -2.8983 C   0  0  0  0  0  0  0  0  0  0  0  0
   68.8105   -3.9980   -4.0653 C   0  0  0  0  0  0  0  0  0  0  0  0
   68.7983   -5.1123   -4.8817 C   0  0  0  0  0  0  0  0  0  0  0  0
   68.0202   -6.2290   -4.5503 C   0  0  0  0  0  0  0  0  0  0  0  0
   68.0832   -7.3447   -5.3695 N   0  0  0  0  0  0  0  0  0  0  0  0
   66.9893   -8.3064   -5.3683 C   0  0  0  0  0  0  0  0  0  0  0  0
   67.2624   -6.2005   -3.3755 C   0  0  0  0  0  0  0  0  0  0  0  0
   67.2690   -5.0741   -2.5713 C   0  0  0  0  0  0  0  0  0  0  0  0
   66.8398   -2.1233   -1.7629 C   0  0  0  0  0  0  0  0  0  0  0  0
   65.5826   -2.5046   -2.3342 C   0  0  0  0  0  0  0  0  0  0  0  0
   64.6347   -1.7341   -1.7461 C   0  0  0  0  0  0  0  0  0  0  0  0
   66.6620   -1.0896   -0.8749 N   0  0  0  0  0  0  0  0  0  0  0  0
   65.3159   -0.8795   -0.8258 C   0  0  0  0  0  0  0  0  0  0  0  0
   64.6572   -0.0310    0.0742 C   0  0  0  0  0  0  0  0  0  0  0  0
   65.3417    0.8234    0.9491 C   0  0  0  0  0  0  0  0  0  0  0  0
   64.6909    1.6413    1.9231 C   0  0  0  0  0  0  0  0  0  0  0  0
   65.6507    2.4219    2.4778 C   0  0  0  0  0  0  0  0  0  0  0  0
   66.8828    2.0893    1.8266 C   0  0  0  0  0  0  0  0  0  0  0  0
   66.6828    1.0660    0.9306 N   0  0  0  0  0  0  0  0  0  0  0  0
   68.0791    2.7688    2.0222 C   0  0  0  0  0  0  0  0  0  0  0  0
   68.0898    3.9539    2.9049 C   0  0  0  0  0  0  0  0  0  0  0  0
   67.2473    5.0394    2.6536 C   0  0  0  0  0  0  0  0  0  0  0  0
   67.2538    6.1558    3.4713 C   0  0  0  0  0  0  0  0  0  0  0  0
   68.0987    6.2060    4.5844 C   0  0  0  0  0  0  0  0  0  0  0  0
   68.1755    7.3149    5.4117 N   0  0  0  0  0  0  0  0  0  0  0  0
   67.0422    8.2248    5.5089 C   0  0  0  0  0  0  0  0  0  0  0  0
   68.9491    5.1223    4.8385 C   0  0  0  0  0  0  0  0  0  0  0  0
   68.9463    4.0180    4.0086 C   0  0  0  0  0  0  0  0  0  0  0  0
   69.2687    2.3776    1.4109 C   0  0  0  0  0  0  0  0  0  0  0  0
   70.5083    3.0896    1.5267 C   0  0  0  0  0  0  0  0  0  0  0  0
   71.4528    2.3358    0.9142 C   0  0  0  0  0  0  0  0  0  0  0  0
   70.7871    1.1720    0.4134 C   0  0  0  0  0  0  0  0  0  0  0  0
   69.4442    1.2336    0.6820 N   0  0  0  0  0  0  0  0  0  0  0  0
   72.5197    0.1246   -0.2064 H   0  0  0  0  0  0  0  0  0  0  0  0
   72.5422   -2.2931   -1.1931 H   0  0  0  0  0  0  0  0  0  0  0  0
   70.6456   -3.9176   -2.2105 H   0  0  0  0  0  0  0  0  0  0  0  0
   69.4021   -3.1334   -4.3456 H   0  0  0  0  0  0  0  0  0  0  0  0
   69.3920   -5.1266   -5.7896 H   0  0  0  0  0  0  0  0  0  0  0  0
   68.4102   -7.1299   -6.3036 H   0  0  0  0  0  0  0  0  0  0  0  0
   66.0220   -7.8160   -5.5266 H   0  0  0  0  0  0  0  0  0  0  0  0
   66.9669   -8.8462   -4.4207 H   0  0  0  0  0  0  0  0  0  0  0  0
   67.1674   -9.0204   -6.1723 H   0  0  0  0  0  0  0  0  0  0  0  0
   66.6680   -7.0569   -3.0818 H   0  0  0  0  0  0  0  0  0  0  0  0
   66.6847   -5.0685   -1.6576 H   0  0  0  0  0  0  0  0  0  0  0  0
   65.4513   -3.2586   -3.0932 H   0  0  0  0  0  0  0  0  0  0  0  0
   63.5689   -1.7355   -1.9093 H   0  0  0  0  0  0  0  0  0  0  0  0
   63.6362    1.6103    2.1450 H   0  0  0  0  0  0  0  0  0  0  0  0
   65.5429    3.1540    3.2615 H   0  0  0  0  0  0  0  0  0  0  0  0
   66.5954    5.0178    1.7870 H   0  0  0  0  0  0  0  0  0  0  0  0
   66.6015    6.9878    3.2361 H   0  0  0  0  0  0  0  0  0  0  0  0
   68.5839    7.1057    6.3145 H   0  0  0  0  0  0  0  0  0  0  0  0
   66.9214    8.7730    4.5737 H   0  0  0  0  0  0  0  0  0  0  0  0
   67.2499    8.9377    6.3068 H   0  0  0  0  0  0  0  0  0  0  0  0
   66.1137    7.6883    5.7348 H   0  0  0  0  0  0  0  0  0  0  0  0
   69.6113    5.1543    5.6974 H   0  0  0  0  0  0  0  0  0  0  0  0
   69.5960    3.1783    4.2299 H   0  0  0  0  0  0  0  0  0  0  0  0
   70.6288    4.0458    2.0097 H   0  0  0  0  0  0  0  0  0  0  0  0
   72.5072    2.5337    0.8030 H   0  0  0  0  0  0  0  0  0  0  0  0
   35.7803    0.0314   -0.0465 C   0  0  0  0  0  0  0  0  0  0  0  0
   37.0072    0.0235   -0.0469 C   0  0  0  0  0  0  0  0  0  0  0  0
   38.3461    0.0164   -0.0475 C   0  0  0  0  0  0  0  0  0  0  0  0
   39.5793    0.0036   -0.0468 C   0  0  0  0  0  0  0  0  0  0  0  0
   40.9134   -0.0008   -0.0457 C   0  0  0  0  0  0  0  0  0  0  0  0
   42.1467   -0.0095   -0.0428 C   0  0  0  0  0  0  0  0  0  0  0  0
   43.4853   -0.0131   -0.0431 C   0  0  0  0  0  0  0  0  0  0  0  0
   44.7125   -0.0143   -0.0416 C   0  0  0  0  0  0  0  0  0  0  0  0
   54.3259   -0.0126    0.0789 C   0  0  0  0  0  0  0  0  0  0  0  0
   55.5529   -0.0206    0.0976 C   0  0  0  0  0  0  0  0  0  0  0  0
   56.8916   -0.0282    0.1129 C   0  0  0  0  0  0  0  0  0  0  0  0
   58.1248   -0.0349    0.1218 C   0  0  0  0  0  0  0  0  0  0  0  0
   59.4590   -0.0369    0.1265 C   0  0  0  0  0  0  0  0  0  0  0  0
   60.6923   -0.0398    0.1245 C   0  0  0  0  0  0  0  0  0  0  0  0
   62.0313   -0.0400    0.1151 C   0  0  0  0  0  0  0  0  0  0  0  0
   63.2581   -0.0384    0.1007 C   0  0  0  0  0  0  0  0  0  0  0  0
   49.5194    0.0090   -0.0115 Fe  0  0  0  0  0  0  0  0  0  0  0  0
   46.1109   -0.0071   -0.0360 C   0  0  0  0  0  0  0  0  0  0  0  0
   46.7936   -1.0955   -0.5966 C   0  0  0  0  0  0  0  0  0  0  0  0
   46.1390   -2.2423   -1.1408 C   0  0  0  0  0  0  0  0  0  0  0  0
   47.1021   -2.9957   -1.7279 C   0  0  0  0  0  0  0  0  0  0  0  0
   48.3392   -2.2978   -1.5476 C   0  0  0  0  0  0  0  0  0  0  0  0
   48.1391   -1.1600   -0.8057 N   0  0  0  0  0  0  0  0  0  0  0  0
   49.5479   -2.6874   -2.1165 C   0  0  0  0  0  0  0  0  0  0  0  0
   49.5613   -3.8481   -3.0306 C   0  0  0  0  0  0  0  0  0  0  0  0
   50.3780   -4.9535   -2.7708 C   0  0  0  0  0  0  0  0  0  0  0  0
   50.3942   -6.0370   -3.6270 C   0  0  0  0  0  0  0  0  0  0  0  0
   49.6058   -6.0414   -4.7853 C   0  0  0  0  0  0  0  0  0  0  0  0
   49.6266   -7.1661   -5.5922 N   0  0  0  0  0  0  0  0  0  0  0  0
   49.2233   -7.0694   -6.9881 C   0  0  0  0  0  0  0  0  0  0  0  0
   48.7824   -4.9414   -5.0465 C   0  0  0  0  0  0  0  0  0  0  0  0
   48.7615   -3.8663   -4.1756 C   0  0  0  0  0  0  0  0  0  0  0  0
   50.7468   -2.0304   -1.8572 C   0  0  0  0  0  0  0  0  0  0  0  0
   51.9979   -2.3648   -2.4679 C   0  0  0  0  0  0  0  0  0  0  0  0
   52.9464   -1.6158   -1.8521 C   0  0  0  0  0  0  0  0  0  0  0  0
   50.9243   -1.0390   -0.9237 N   0  0  0  0  0  0  0  0  0  0  0  0
   52.2684   -0.8175   -0.8813 C   0  0  0  0  0  0  0  0  0  0  0  0
   52.9277   -0.0047    0.0518 C   0  0  0  0  0  0  0  0  0  0  0  0
   52.2402    0.8218    0.9513 C   0  0  0  0  0  0  0  0  0  0  0  0
   52.8884    1.6317    1.9328 C   0  0  0  0  0  0  0  0  0  0  0  0
   51.9258    2.4066    2.4921 C   0  0  0  0  0  0  0  0  0  0  0  0
   50.6957    2.0718    1.8405 C   0  0  0  0  0  0  0  0  0  0  0  0
   50.8978    1.0594    0.9357 N   0  0  0  0  0  0  0  0  0  0  0  0
   49.4924    2.7398    2.0484 C   0  0  0  0  0  0  0  0  0  0  0  0
   49.4863    3.9239    2.9317 C   0  0  0  0  0  0  0  0  0  0  0  0
   48.6561    3.9777    4.0537 C   0  0  0  0  0  0  0  0  0  0  0  0
   48.6567    5.0781    4.8926 C   0  0  0  0  0  0  0  0  0  0  0  0
   49.4909    6.1674    4.6219 C   0  0  0  0  0  0  0  0  0  0  0  0
   49.4927    7.3154    5.3960 N   0  0  0  0  0  0  0  0  0  0  0  0
   49.0538    7.2573    6.7834 C   0  0  0  0  0  0  0  0  0  0  0  0
   50.3120    6.1262    3.4875 C   0  0  0  0  0  0  0  0  0  0  0  0
   50.3153    5.0179    2.6633 C   0  0  0  0  0  0  0  0  0  0  0  0
   48.2972    2.3341    1.4632 C   0  0  0  0  0  0  0  0  0  0  0  0
   47.0514    3.0240    1.6119 C   0  0  0  0  0  0  0  0  0  0  0  0
   46.1021    2.2453    1.0357 C   0  0  0  0  0  0  0  0  0  0  0  0
   46.7747    1.0945    0.5230 C   0  0  0  0  0  0  0  0  0  0  0  0
   48.1168    1.1779    0.7443 N   0  0  0  0  0  0  0  0  0  0  0  0
   45.0796   -2.4325   -1.0776 H   0  0  0  0  0  0  0  0  0  0  0  0
   46.9927   -3.9420   -2.2322 H   0  0  0  0  0  0  0  0  0  0  0  0
   50.9865   -4.9684   -1.8732 H   0  0  0  0  0  0  0  0  0  0  0  0
   51.0210   -6.8945   -3.4058 H   0  0  0  0  0  0  0  0  0  0  0  0
   50.4577   -7.7303   -5.4646 H   0  0  0  0  0  0  0  0  0  0  0  0
   48.1540   -6.8651   -7.0554 H   0  0  0  0  0  0  0  0  0  0  0  0
   49.7749   -6.2810   -7.5128 H   0  0  0  0  0  0  0  0  0  0  0  0
   49.4257   -8.0288   -7.4642 H   0  0  0  0  0  0  0  0  0  0  0  0
   48.1568   -4.9182   -5.9302 H   0  0  0  0  0  0  0  0  0  0  0  0
   48.1344   -3.0106   -4.4004 H   0  0  0  0  0  0  0  0  0  0  0  0
   52.1267   -3.0762   -3.2672 H   0  0  0  0  0  0  0  0  0  0  0  0
   54.0096   -1.5960   -2.0298 H   0  0  0  0  0  0  0  0  0  0  0  0
   53.9434    1.6034    2.1533 H   0  0  0  0  0  0  0  0  0  0  0  0
   52.0312    3.1348    3.2798 H   0  0  0  0  0  0  0  0  0  0  0  0
   48.0198    3.1307    4.2863 H   0  0  0  0  0  0  0  0  0  0  0  0
   48.0060    5.0833    5.7583 H   0  0  0  0  0  0  0  0  0  0  0  0
   50.3293    7.8731    5.2750 H   0  0  0  0  0  0  0  0  0  0  0  0
   49.5838    6.4763    7.3404 H   0  0  0  0  0  0  0  0  0  0  0  0
   49.2546    8.2259    7.2412 H   0  0  0  0  0  0  0  0  0  0  0  0
   47.9811    7.0653    6.8286 H   0  0  0  0  0  0  0  0  0  0  0  0
   50.9490    6.9742    3.2594 H   0  0  0  0  0  0  0  0  0  0  0  0
   50.9498    5.0036    1.7839 H   0  0  0  0  0  0  0  0  0  0  0  0
   46.9267    3.9816    2.0906 H   0  0  0  0  0  0  0  0  0  0  0  0
   45.0415    2.4229    0.9575 H   0  0  0  0  0  0  0  0  0  0  0  0
  2  3  4  0  0  0  0
  3  4  4  0  0  0  0
  4  5  2  0  0  0  0
  5  6  4  0  0  0  0
  1  7  1  0  0  0  0
  3  7  4  0  0  0  0
  6  7  4  0  0  0  0
  6  8  4  0  0  0  0
  8  9  1  0  0  0  0
  9 10  4  0  0  0  0
 10 11  4  0  0  0  0
 11 12  4  0  0  0  0
 12 13  1  0  0  0  0
 13 14  1  0  0  0  0
 12 15  4  0  0  0  0
  9 16  4  0  0  0  0
 15 16  4  0  0  0  0
  8 17  4  0  0  0  0
 17 18  4  0  0  0  0
 18 19  2  0  0  0  0
  1 20  1  0  0  0  0
 17 20  4  0  0  0  0
 19 21  4  0  0  0  0
 20 21  4  0  0  0  0
 21 22  4  0  0  0  0
 22 23  4  0  0  0  0
 23 24  4  0  0  0  0
 24 25  2  0  0  0  0
 25 26  4  0  0  0  0
  1 27  1  0  0  0  0
 23 27  4  0  0  0  0
 26 27  4  0  0  0  0
 26 28  4  0  0  0  0
 28 29  1  0  0  0  0
 29 30  4  0  0  0  0
 30 31  4  0  0  0  0
 31 32  4  0  0  0  0
 32 33  1  0  0  0  0
 33 34  1  0  0  0  0
 32 35  4  0  0  0  0
 29 36  4  0  0  0  0
 35 36  4  0  0  0  0
 28 37  4  0  0  0  0
 37 38  4  0  0  0  0
 38 39  2  0  0  0  0
  2 40  4  0  0  0  0
 39 40  4  0  0  0  0
  1 41  1  0  0  0  0
 37 41  4  0  0  0  0
 40 41  4  0  0  0  0
  2 42  1  0  0  0  0
  4 43  1  0  0  0  0
  5 44  1  0  0  0  0
 10 45  1  0  0  0  0
 11 46  1  0  0  0  0
 13 47  1  0  0  0  0
 14 48  1  0  0  0  0
 14 49  1  0  0  0  0
 14 50  1  0  0  0  0
 15 51  1  0  0  0  0
 16 52  1  0  0  0  0
 18 53  1  0  0  0  0
 19 54  1  0  0  0  0
 24 55  1  0  0  0  0
 25 56  1  0  0  0  0
 30 57  1  0  0  0  0
 31 58  1  0  0  0  0
 33 59  1  0  0  0  0
 34 60  1  0  0  0  0
 34 61  1  0  0  0  0
 34 62  1  0  0  0  0
 35 63  1  0  0  0  0
 36 64  1  0  0  0  0
 38 65  1  0  0  0  0
 39 66  1  0  0  0  0
 68 69  4  0  0  0  0
 69 70  4  0  0  0  0
 70 71  2  0  0  0  0
 71 72  4  0  0  0  0
 67 73  1  0  0  0  0
 69 73  4  0  0  0  0
 72 73  4  0  0  0  0
 72 74  4  0  0  0  0
 74 75  1  0  0  0  0
 75 76  4  0  0  0  0
 76 77  4  0  0  0  0
 77 78  4  0  0  0  0
 78 79  1  0  0  0  0
 79 80  1  0  0  0  0
 78 81  4  0  0  0  0
 75 82  4  0  0  0  0
 81 82  4  0  0  0  0
 74 83  4  0  0  0  0
 83 84  4  0  0  0  0
 84 85  2  0  0  0  0
 67 86  1  0  0  0  0
 83 86  4  0  0  0  0
 85 87  4  0  0  0  0
 86 87  4  0  0  0  0
 87 88  4  0  0  0  0
 88 89  4  0  0  0  0
 89 90  4  0  0  0  0
 90 91  2  0  0  0  0
 91 92  4  0  0  0  0
 67 93  1  0  0  0  0
 89 93  4  0  0  0  0
 92 93  4  0  0  0  0
 92 94  4  0  0  0  0
 94 95  1  0  0  0  0
 95 96  4  0  0  0  0
 96 97  4  0  0  0  0
 97 98  4  0  0  0  0
 98 99  1  0  0  0  0
 99100  1  0  0  0  0
 98101  4  0  0  0  0
 95102  4  0  0  0  0
101102  4  0  0  0  0
 94103  4  0  0  0  0
103104  4  0  0  0  0
104105  2  0  0  0  0
 68106  4  0  0  0  0
105106  4  0  0  0  0
 67107  1  0  0  0  0
103107  4  0  0  0  0
106107  4  0  0  0  0
 68108  1  0  0  0  0
 70109  1  0  0  0  0
 71110  1  0  0  0  0
 76111  1  0  0  0  0
 77112  1  0  0  0  0
 79113  1  0  0  0  0
 80114  1  0  0  0  0
 80115  1  0  0  0  0
 80116  1  0  0  0  0
 81117  1  0  0  0  0
 82118  1  0  0  0  0
 84119  1  0  0  0  0
 85120  1  0  0  0  0
 90121  1  0  0  0  0
 91122  1  0  0  0  0
 96123  1  0  0  0  0
 97124  1  0  0  0  0
 99125  1  0  0  0  0
100126  1  0  0  0  0
100127  1  0  0  0  0
100128  1  0  0  0  0
101129  1  0  0  0  0
102130  1  0  0  0  0
104131  1  0  0  0  0
105132  1  0  0  0  0
 22133  4  0  0  0  0
133134  3  0  0  0  0
134135  4  0  0  0  0
135136  3  0  0  0  0
136137  4  0  0  0  0
137138  3  0  0  0  0
138139  4  0  0  0  0
139140  3  0  0  0  0
141142  3  0  0  0  0
142143  4  0  0  0  0
143144  3  0  0  0  0
144145  4  0  0  0  0
145146  3  0  0  0  0
146147  4  0  0  0  0
 88148  4  0  0  0  0
147148  3  0  0  0  0
140150  4  0  0  0  0
150151  4  0  0  0  0
151152  4  0  0  0  0
152153  2  0  0  0  0
153154  4  0  0  0  0
149155  1  0  0  0  0
151155  4  0  0  0  0
154155  4  0  0  0  0
154156  4  0  0  0  0
156157  1  0  0  0  0
157158  4  0  0  0  0
158159  4  0  0  0  0
159160  4  0  0  0  0
160161  1  0  0  0  0
161162  1  0  0  0  0
160163  4  0  0  0  0
157164  4  0  0  0  0
163164  4  0  0  0  0
156165  4  0  0  0  0
165166  4  0  0  0  0
166167  2  0  0  0  0
149168  1  0  0  0  0
165168  4  0  0  0  0
167169  4  0  0  0  0
168169  4  0  0  0  0
141170  4  0  0  0  0
169170  4  0  0  0  0
170171  4  0  0  0  0
171172  4  0  0  0  0
172173  2  0  0  0  0
173174  4  0  0  0  0
149175  1  0  0  0  0
171175  4  0  0  0  0
174175  4  0  0  0  0
174176  4  0  0  0  0
176177  1  0  0  0  0
177178  4  0  0  0  0
178179  4  0  0  0  0
179180  4  0  0  0  0
180181  1  0  0  0  0
181182  1  0  0  0  0
180183  4  0  0  0  0
177184  4  0  0  0  0
183184  4  0  0  0  0
176185  4  0  0  0  0
185186  4  0  0  0  0
186187  2  0  0  0  0
150188  4  0  0  0  0
187188  4  0  0  0  0
149189  1  0  0  0  0
185189  4  0  0  0  0
188189  4  0  0  0  0
152190  1  0  0  0  0
153191  1  0  0  0  0
158192  1  0  0  0  0
159193  1  0  0  0  0
161194  1  0  0  0  0
162195  1  0  0  0  0
162196  1  0  0  0  0
162197  1  0  0  0  0
163198  1  0  0  0  0
164199  1  0  0  0  0
166200  1  0  0  0  0
167201  1  0  0  0  0
172202  1  0  0  0  0
173203  1  0  0  0  0
178204  1  0  0  0  0
179205  1  0  0  0  0
181206  1  0  0  0  0
182207  1  0  0  0  0
182208  1  0  0  0  0
182209  1  0  0  0  0
183210  1  0  0  0  0
184211  1  0  0  0  0
186212  1  0  0  0  0
187213  1  0  0  0  0
M  END
