 xtb: 6.5.1 (b24c23e)
          07292222303D

124143  0     0  0            999 V2000
   15.8668    0.0663   -0.0717 Co  0  0  0  0  0  0  0  0  0  0  0  0
   12.4954    0.1161   -0.2950 C   0  0  0  0  0  0  0  0  0  0  0  0
   13.1711    1.3153   -0.3490 C   0  0  0  0  0  0  0  0  0  0  0  0
   12.5174    2.5842   -0.4548 C   0  0  0  0  0  0  0  0  0  0  0  0
   13.4667    3.5267   -0.2523 C   0  0  0  0  0  0  0  0  0  0  0  0
   14.7041    2.8324   -0.0448 C   0  0  0  0  0  0  0  0  0  0  0  0
   14.5194    1.4772   -0.1468 N   0  0  0  0  0  0  0  0  0  0  0  0
   15.8867    3.4502    0.3393 C   0  0  0  0  0  0  0  0  0  0  0  0
   15.8868    4.9136    0.5712 C   0  0  0  0  0  0  0  0  0  0  0  0
   16.1131    5.4212    1.8535 C   0  0  0  0  0  0  0  0  0  0  0  0
   16.0993    6.7850    2.0750 C   0  0  0  0  0  0  0  0  0  0  0  0
   15.8650    7.6709    1.0183 C   0  0  0  0  0  0  0  0  0  0  0  0
   15.8505    9.1219    1.2814 C   0  0  0  0  0  0  0  0  0  0  0  0
   16.0268    9.6059    2.3698 O   0  0  0  0  0  0  0  0  0  0  0  0
   15.6466    7.1639   -0.2648 C   0  0  0  0  0  0  0  0  0  0  0  0
   15.6554    5.7979   -0.4853 C   0  0  0  0  0  0  0  0  0  0  0  0
   17.0691    2.7453    0.5030 C   0  0  0  0  0  0  0  0  0  0  0  0
   18.3231    3.3595    0.8221 C   0  0  0  0  0  0  0  0  0  0  0  0
   19.2738    2.4067    0.6731 C   0  0  0  0  0  0  0  0  0  0  0  0
   17.2492    1.4143    0.2000 N   0  0  0  0  0  0  0  0  0  0  0  0
   18.5990    1.2139    0.2701 C   0  0  0  0  0  0  0  0  0  0  0  0
   19.2665    0.0416   -0.0924 C   0  0  0  0  0  0  0  0  0  0  0  0
   18.5799   -1.1319   -0.4103 C   0  0  0  0  0  0  0  0  0  0  0  0
   19.2350   -2.3501   -0.7682 C   0  0  0  0  0  0  0  0  0  0  0  0
   18.2748   -3.3034   -0.8291 C   0  0  0  0  0  0  0  0  0  0  0  0
   17.0362   -2.6624   -0.5048 C   0  0  0  0  0  0  0  0  0  0  0  0
   17.2289   -1.3144   -0.3067 N   0  0  0  0  0  0  0  0  0  0  0  0
   15.8326   -3.3345   -0.3526 C   0  0  0  0  0  0  0  0  0  0  0  0
   15.8177   -4.8103   -0.4589 C   0  0  0  0  0  0  0  0  0  0  0  0
   15.0546   -5.4368   -1.4483 C   0  0  0  0  0  0  0  0  0  0  0  0
   15.0410   -6.8160   -1.5543 C   0  0  0  0  0  0  0  0  0  0  0  0
   15.7862   -7.5970   -0.6678 C   0  0  0  0  0  0  0  0  0  0  0  0
   15.7852   -9.0689   -0.7577 C   0  0  0  0  0  0  0  0  0  0  0  0
   16.4056   -9.7850   -0.0145 O   0  0  0  0  0  0  0  0  0  0  0  0
   16.5485   -6.9703    0.3237 C   0  0  0  0  0  0  0  0  0  0  0  0
   16.5673   -5.5925    0.4247 C   0  0  0  0  0  0  0  0  0  0  0  0
   14.6378   -2.6626   -0.1312 C   0  0  0  0  0  0  0  0  0  0  0  0
   13.3711   -3.3124    0.0394 C   0  0  0  0  0  0  0  0  0  0  0  0
   12.4290   -2.3405    0.0278 C   0  0  0  0  0  0  0  0  0  0  0  0
   13.1233   -1.0987   -0.1243 C   0  0  0  0  0  0  0  0  0  0  0  0
   14.4795   -1.3009   -0.1692 N   0  0  0  0  0  0  0  0  0  0  0  0
   11.4139    0.1318   -0.3611 H   0  0  0  0  0  0  0  0  0  0  0  0
   11.4619    2.7144   -0.6325 H   0  0  0  0  0  0  0  0  0  0  0  0
   13.3492    4.5978   -0.2262 H   0  0  0  0  0  0  0  0  0  0  0  0
   16.2833    4.7354    2.6757 H   0  0  0  0  0  0  0  0  0  0  0  0
   16.2664    7.1880    3.0681 H   0  0  0  0  0  0  0  0  0  0  0  0
   15.6634    9.7464    0.3820 H   0  0  0  0  0  0  0  0  0  0  0  0
   15.4691    7.8449   -1.0908 H   0  0  0  0  0  0  0  0  0  0  0  0
   15.4966    5.4071   -1.4840 H   0  0  0  0  0  0  0  0  0  0  0  0
   18.4504    4.3934    1.0982 H   0  0  0  0  0  0  0  0  0  0  0  0
   20.3399    2.4899    0.8094 H   0  0  0  0  0  0  0  0  0  0  0  0
   20.2951   -2.4481   -0.9372 H   0  0  0  0  0  0  0  0  0  0  0  0
   18.3835   -4.3477   -1.0724 H   0  0  0  0  0  0  0  0  0  0  0  0
   14.4854   -4.8324   -2.1456 H   0  0  0  0  0  0  0  0  0  0  0  0
   14.4508   -7.2940   -2.3294 H   0  0  0  0  0  0  0  0  0  0  0  0
   15.1545   -9.4747   -1.5773 H   0  0  0  0  0  0  0  0  0  0  0  0
   17.1215   -7.5853    1.0092 H   0  0  0  0  0  0  0  0  0  0  0  0
   17.1506   -5.1097    1.2005 H   0  0  0  0  0  0  0  0  0  0  0  0
   13.2343   -4.3759    0.1489 H   0  0  0  0  0  0  0  0  0  0  0  0
   11.3584   -2.4349    0.1155 H   0  0  0  0  0  0  0  0  0  0  0  0
   29.2655   -0.0534   -0.1115 Co  0  0  0  0  0  0  0  0  0  0  0  0
   32.6371   -0.0719   -0.3097 C   0  0  0  0  0  0  0  0  0  0  0  0
   31.9615   -1.2512   -0.5351 C   0  0  0  0  0  0  0  0  0  0  0  0
   32.6144   -2.4912   -0.8255 C   0  0  0  0  0  0  0  0  0  0  0  0
   31.6656   -3.4536   -0.7584 C   0  0  0  0  0  0  0  0  0  0  0  0
   30.4292   -2.7971   -0.4481 C   0  0  0  0  0  0  0  0  0  0  0  0
   30.6146   -1.4419   -0.3503 N   0  0  0  0  0  0  0  0  0  0  0  0
   29.2476   -3.4634   -0.1515 C   0  0  0  0  0  0  0  0  0  0  0  0
   29.2475   -4.9450   -0.1304 C   0  0  0  0  0  0  0  0  0  0  0  0
   29.0241   -5.6305    1.0669 C   0  0  0  0  0  0  0  0  0  0  0  0
   29.0381   -7.0119    1.0913 C   0  0  0  0  0  0  0  0  0  0  0  0
   29.2697   -7.7379   -0.0816 C   0  0  0  0  0  0  0  0  0  0  0  0
   29.2832   -9.2116   -0.0288 C   0  0  0  0  0  0  0  0  0  0  0  0
   29.1102   -9.8464    0.9796 O   0  0  0  0  0  0  0  0  0  0  0  0
   29.4852   -7.0529   -1.2796 C   0  0  0  0  0  0  0  0  0  0  0  0
   29.4762   -5.6694   -1.3028 C   0  0  0  0  0  0  0  0  0  0  0  0
   28.0660   -2.7884    0.1117 C   0  0  0  0  0  0  0  0  0  0  0  0
   26.8114   -3.4415    0.3383 C   0  0  0  0  0  0  0  0  0  0  0  0
   25.8605   -2.4776    0.3213 C   0  0  0  0  0  0  0  0  0  0  0  0
   27.8864   -1.4275    0.0032 N   0  0  0  0  0  0  0  0  0  0  0  0
   26.5358   -1.2395    0.0929 C   0  0  0  0  0  0  0  0  0  0  0  0
   25.8685   -0.0279   -0.1005 C   0  0  0  0  0  0  0  0  0  0  0  0
   26.5549    1.1790   -0.2487 C   0  0  0  0  0  0  0  0  0  0  0  0
   25.9004    2.4354   -0.4334 C   0  0  0  0  0  0  0  0  0  0  0  0
   26.8597    3.3881   -0.3531 C   0  0  0  0  0  0  0  0  0  0  0  0
   28.0977    2.7082   -0.1182 C   0  0  0  0  0  0  0  0  0  0  0  0
   27.9048    1.3461   -0.1108 N   0  0  0  0  0  0  0  0  0  0  0  0
   29.3009    3.3518    0.1306 C   0  0  0  0  0  0  0  0  0  0  0  0
   29.3156    4.8276    0.2351 C   0  0  0  0  0  0  0  0  0  0  0  0
   30.0801    5.5883   -0.6541 C   0  0  0  0  0  0  0  0  0  0  0  0
   30.0936    6.9686   -0.5634 C   0  0  0  0  0  0  0  0  0  0  0  0
   29.3464    7.6159    0.4235 C   0  0  0  0  0  0  0  0  0  0  0  0
   29.3483    9.0856    0.5437 C   0  0  0  0  0  0  0  0  0  0  0  0
   28.7246    9.6895    1.3782 O   0  0  0  0  0  0  0  0  0  0  0  0
   28.5820    6.8550    1.3142 C   0  0  0  0  0  0  0  0  0  0  0  0
   28.5636    5.4768    1.2189 C   0  0  0  0  0  0  0  0  0  0  0  0
   30.4954    2.6548    0.2529 C   0  0  0  0  0  0  0  0  0  0  0  0
   31.7628    3.2734    0.5122 C   0  0  0  0  0  0  0  0  0  0  0  0
   32.7044    2.3130    0.3606 C   0  0  0  0  0  0  0  0  0  0  0  0
   32.0093    1.1055    0.0342 C   0  0  0  0  0  0  0  0  0  0  0  0
   30.6527    1.3115    0.0253 N   0  0  0  0  0  0  0  0  0  0  0  0
   33.7184   -0.0775   -0.3789 H   0  0  0  0  0  0  0  0  0  0  0  0
   33.6692   -2.5940   -1.0248 H   0  0  0  0  0  0  0  0  0  0  0  0
   31.7832   -4.5169   -0.8887 H   0  0  0  0  0  0  0  0  0  0  0  0
   28.8559   -5.0692    1.9790 H   0  0  0  0  0  0  0  0  0  0  0  0
   28.8734   -7.5527    2.0171 H   0  0  0  0  0  0  0  0  0  0  0  0
   29.4702   -9.7010   -1.0085 H   0  0  0  0  0  0  0  0  0  0  0  0
   29.6605   -7.6090   -2.1949 H   0  0  0  0  0  0  0  0  0  0  0  0
   29.6325   -5.1401   -2.2360 H   0  0  0  0  0  0  0  0  0  0  0  0
   26.6842   -4.5041    0.4647 H   0  0  0  0  0  0  0  0  0  0  0  0
   24.7940   -2.5796    0.4405 H   0  0  0  0  0  0  0  0  0  0  0  0
   24.8410    2.5561   -0.5925 H   0  0  0  0  0  0  0  0  0  0  0  0
   26.7512    4.4563   -0.4469 H   0  0  0  0  0  0  0  0  0  0  0  0
   30.6507    5.0890   -1.4291 H   0  0  0  0  0  0  0  0  0  0  0  0
   30.6851    7.5517   -1.2618 H   0  0  0  0  0  0  0  0  0  0  0  0
   29.9796    9.6033   -0.2096 H   0  0  0  0  0  0  0  0  0  0  0  0
   28.0073    7.3665    2.0787 H   0  0  0  0  0  0  0  0  0  0  0  0
   27.9788    4.8888    1.9172 H   0  0  0  0  0  0  0  0  0  0  0  0
   31.9002    4.3105    0.7715 H   0  0  0  0  0  0  0  0  0  0  0  0
   33.7752    2.3939    0.4578 H   0  0  0  0  0  0  0  0  0  0  0  0
   21.8927    0.0167   -0.1217 C   0  0  0  0  0  0  0  0  0  0  0  0
   20.6707    0.0326   -0.1093 C   0  0  0  0  0  0  0  0  0  0  0  0
   23.2422    0.0025   -0.1244 C   0  0  0  0  0  0  0  0  0  0  0  0
   24.4642   -0.0166   -0.1171 C   0  0  0  0  0  0  0  0  0  0  0  0
  2  3  4  0  0  0  0
  3  4  1  0  0  0  0
  4  5  2  0  0  0  0
  5  6  4  0  0  0  0
  1  7  1  0  0  0  0
  3  7  4  0  0  0  0
  6  7  4  0  0  0  0
  6  8  4  0  0  0  0
  8  9  1  0  0  0  0
  9 10  4  0  0  0  0
 10 11  4  0  0  0  0
 11 12  4  0  0  0  0
 12 13  1  0  0  0  0
 13 14  2  0  0  0  0
 12 15  4  0  0  0  0
  9 16  4  0  0  0  0
 15 16  4  0  0  0  0
  8 17  4  0  0  0  0
 17 18  4  0  0  0  0
 18 19  2  0  0  0  0
  1 20  1  0  0  0  0
 17 20  4  0  0  0  0
 19 21  4  0  0  0  0
 20 21  4  0  0  0  0
 21 22  4  0  0  0  0
 22 23  4  0  0  0  0
 23 24  4  0  0  0  0
 24 25  2  0  0  0  0
 25 26  4  0  0  0  0
  1 27  1  0  0  0  0
 23 27  4  0  0  0  0
 26 27  4  0  0  0  0
 26 28  4  0  0  0  0
 28 29  1  0  0  0  0
 29 30  4  0  0  0  0
 30 31  4  0  0  0  0
 31 32  4  0  0  0  0
 32 33  1  0  0  0  0
 33 34  2  0  0  0  0
 32 35  4  0  0  0  0
 29 36  4  0  0  0  0
 35 36  4  0  0  0  0
 28 37  4  0  0  0  0
 37 38  4  0  0  0  0
 38 39  2  0  0  0  0
  2 40  4  0  0  0  0
 39 40  1  0  0  0  0
  1 41  1  0  0  0  0
 37 41  4  0  0  0  0
 40 41  4  0  0  0  0
  2 42  1  0  0  0  0
  4 43  1  0  0  0  0
  5 44  1  0  0  0  0
 10 45  1  0  0  0  0
 11 46  1  0  0  0  0
 13 47  1  0  0  0  0
 15 48  1  0  0  0  0
 16 49  1  0  0  0  0
 18 50  1  0  0  0  0
 19 51  1  0  0  0  0
 24 52  1  0  0  0  0
 25 53  1  0  0  0  0
 30 54  1  0  0  0  0
 31 55  1  0  0  0  0
 33 56  1  0  0  0  0
 35 57  1  0  0  0  0
 36 58  1  0  0  0  0
 38 59  1  0  0  0  0
 39 60  1  0  0  0  0
 62 63  4  0  0  0  0
 63 64  1  0  0  0  0
 64 65  2  0  0  0  0
 65 66  4  0  0  0  0
 61 67  1  0  0  0  0
 63 67  4  0  0  0  0
 66 67  4  0  0  0  0
 66 68  4  0  0  0  0
 68 69  1  0  0  0  0
 69 70  4  0  0  0  0
 70 71  4  0  0  0  0
 71 72  4  0  0  0  0
 72 73  1  0  0  0  0
 73 74  2  0  0  0  0
 72 75  4  0  0  0  0
 69 76  4  0  0  0  0
 75 76  4  0  0  0  0
 68 77  4  0  0  0  0
 77 78  4  0  0  0  0
 78 79  2  0  0  0  0
 61 80  1  0  0  0  0
 77 80  4  0  0  0  0
 79 81  4  0  0  0  0
 80 81  4  0  0  0  0
 81 82  4  0  0  0  0
 82 83  4  0  0  0  0
 83 84  4  0  0  0  0
 84 85  2  0  0  0  0
 85 86  4  0  0  0  0
 61 87  1  0  0  0  0
 83 87  4  0  0  0  0
 86 87  4  0  0  0  0
 86 88  4  0  0  0  0
 88 89  1  0  0  0  0
 89 90  4  0  0  0  0
 90 91  4  0  0  0  0
 91 92  4  0  0  0  0
 92 93  1  0  0  0  0
 93 94  2  0  0  0  0
 92 95  4  0  0  0  0
 89 96  4  0  0  0  0
 95 96  4  0  0  0  0
 88 97  4  0  0  0  0
 97 98  4  0  0  0  0
 98 99  2  0  0  0  0
 62100  4  0  0  0  0
 99100  1  0  0  0  0
 61101  1  0  0  0  0
 97101  4  0  0  0  0
100101  4  0  0  0  0
 62102  1  0  0  0  0
 64103  1  0  0  0  0
 65104  1  0  0  0  0
 70105  1  0  0  0  0
 71106  1  0  0  0  0
 73107  1  0  0  0  0
 75108  1  0  0  0  0
 76109  1  0  0  0  0
 78110  1  0  0  0  0
 79111  1  0  0  0  0
 84112  1  0  0  0  0
 85113  1  0  0  0  0
 90114  1  0  0  0  0
 91115  1  0  0  0  0
 93116  1  0  0  0  0
 95117  1  0  0  0  0
 96118  1  0  0  0  0
 98119  1  0  0  0  0
 99120  1  0  0  0  0
 22122  4  0  0  0  0
121122  3  0  0  0  0
121123  4  0  0  0  0
 82124  4  0  0  0  0
123124  3  0  0  0  0
M  END
