494

C 110.588649 -0.036095 0.085430
C 111.316869 1.339869 0.164183
C 110.709561 2.561529 0.342551
C 111.732180 3.544363 0.295479
C 112.929650 2.888606 0.080403
N 112.668905 1.541340 0.049038
C 114.352491 3.557409 -0.122547
C 114.391889 5.023384 -0.326277
C 114.696238 5.874693 0.742984
C 114.725171 7.258397 0.555958
C 114.448670 7.798221 -0.704696
C 114.479464 9.217977 -0.900585
N 114.503189 10.367460 -1.064873
C 114.141974 6.950813 -1.775169
C 114.113750 5.566842 -1.584483
C 115.482765 2.800924 -0.146030
C 116.785857 3.381818 -0.398117
C 117.689284 2.409200 -0.381958
N 115.680882 1.455428 0.021750
C 117.012844 1.156478 -0.107466
C 117.684209 -0.023174 -0.022144
C 116.911063 -1.371171 0.304779
C 117.464763 -2.522597 0.831983
C 116.437449 -3.495753 0.904595
C 115.283755 -2.909663 0.429033
N 115.569198 -1.601079 0.122560
C 113.870675 -3.612511 0.274515
C 113.838295 -5.088289 0.187773
C 113.495935 -5.858899 1.306056
C 113.474536 -7.252075 1.220701
C 113.799810 -7.883443 0.015059
C 113.776146 -9.313744 -0.075159
N 113.757952 -10.472734 -0.148879
C 114.146465 -7.116863 -1.103574
C 114.164813 -5.723826 -1.015382
C 112.743330 -2.860010 0.190157
C 111.419932 -3.438646 0.034668
C 110.532604 -2.448465 -0.002743
C 111.254903 -1.205707 0.110464
N 112.577300 -1.503425 0.219931
H 109.509803 -0.034650 -0.015589
H 109.651600 2.727457 0.475602
H 111.603906 4.612481 0.384334
H 113.368306 0.808729 -0.041384
H 114.914755 5.440865 1.717561
H 114.964989 7.900414 1.399080
H 113.926245 7.350946 -2.761509
H 113.878359 4.897676 -2.408907
H 116.998788 4.419386 -0.583808
H 118.741809 2.551776 -0.545817
H 118.497875 -2.656677 1.114783
H 116.535715 -4.513305 1.246816
H 114.881294 -0.905476 -0.156990
H 113.241463 -5.355163 2.236369
H 113.203150 -7.830939 2.099232
H 114.404678 -7.588080 -2.048376
H 114.428431 -5.115454 -1.879721
H 111.188397 -4.485502 -0.038205
H 109.467316 -2.548363 -0.109965
C 210.122130 0.019110 0.077612
C 209.393910 -1.280869 0.535358
C 210.001219 -2.404951 1.045954
C 208.978599 -3.362203 1.273656
C 207.781129 -2.791961 0.884942
N 208.041874 -1.506391 0.480688
C 206.358288 -3.490817 0.875693
C 206.318890 -4.955710 1.087063
C 206.014541 -5.476615 2.350670
C 205.985609 -6.857834 2.555240
C 206.262109 -7.726499 1.494070
C 206.231315 -9.144812 1.700137
N 206.207590 -10.294709 1.861511
C 206.568805 -7.209678 0.230382
C 206.597029 -5.827185 0.029254
C 205.228015 -2.770605 0.643065
C 203.924922 -3.398656 0.562202
C 203.021495 -2.459802 0.307639
N 205.029897 -1.431436 0.430617
C 203.697935 -1.180125 0.223468
C 203.026570 -0.023174 -0.022144
C 203.799716 1.362590 -0.082403
C 203.246016 2.615130 0.104327
C 204.273330 3.570176 -0.096153
C 205.427024 2.875078 -0.390260
N 205.141581 1.532855 -0.321299
C 206.840104 3.507375 -0.733875
C 206.872484 4.901024 -1.227014
C 207.214844 5.951864 -0.366703
C 207.236244 7.266544 -0.835571
C 206.910969 7.538287 -2.169121
C 206.934633 8.887283 -2.652971
N 206.952827 9.980219 -3.045631
C 206.564315 6.491222 -3.030887
C 206.545967 5.177463 -2.559332
C 207.967449 2.761044 -0.605953
C 209.290847 3.273746 -0.916008
C 210.178175 2.312119 -0.676985
C 209.455876 1.149674 -0.223129
N 208.133479 1.466081 -0.200641
H 211.200976 -0.010330 -0.019033
H 211.059179 -2.527407 1.219849
H 209.106874 -4.363638 1.655622
H 207.342474 -0.827703 0.190384
H 205.796024 -4.789219 3.166448
H 205.745791 -7.240475 3.543485
H 206.784535 -7.867971 -0.606053
H 206.832420 -5.413272 -0.948567
H 203.711991 -4.446981 0.671936
H 201.968970 -2.642272 0.189816
H 202.212904 2.822467 0.338772
H 204.175064 4.642740 -0.049955
H 205.829485 0.786982 -0.396693
H 207.469316 5.726277 0.666904
H 207.507629 8.066601 -0.152337
H 206.306102 6.681546 -4.069383
H 206.282348 4.352999 -3.220738
H 209.522382 4.259193 -1.276717
H 211.243463 2.378313 -0.807730
C 120.798296 -0.010738 -0.019703
C 119.546026 -0.029919 -0.024051
C 122.111965 -0.011504 -0.017770
C 123.615098 -0.029919 -0.024051
C 133.738240 -0.010738 -0.019703
C 132.485969 -0.029919 -0.024051
C 135.051908 -0.011504 -0.017770
C 136.555042 -0.029919 -0.024051
C 146.678183 -0.010738 -0.019703
C 145.425913 -0.029919 -0.024051
C 147.991852 -0.011504 -0.017770
C 149.494985 -0.029919 -0.024051
C 159.618127 -0.010738 -0.019703
C 158.365856 -0.029919 -0.024051
C 160.931795 -0.011504 -0.017770
C 162.434929 -0.029919 -0.024051
C 172.558070 -0.010738 -0.019703
C 171.305800 -0.029919 -0.024051
C 173.871739 -0.011504 -0.017770
C 175.374872 -0.029919 -0.024051
C 185.498014 -0.010738 -0.019703
C 184.245743 -0.029919 -0.024051
C 186.811682 -0.011504 -0.017770
C 188.314816 -0.029919 -0.024051
C 198.437957 -0.010738 -0.019703
C 197.185687 -0.029919 -0.024051
C 199.751626 -0.011504 -0.017770
C 201.254759 -0.029919 -0.024051
C 124.426471 0.010265 0.009444
C 125.221705 1.161996 -0.732293
C 124.720539 2.382364 -1.137053
C 125.759101 3.058089 -1.827772
C 126.862879 2.231233 -1.817747
N 126.548475 1.115803 -1.082989
C 128.249709 2.504963 -2.528993
C 128.237576 3.350348 -3.743358
C 127.760915 2.831513 -4.952794
C 127.734294 3.628197 -6.099634
C 128.183518 4.952352 -6.041153
C 128.157441 5.771438 -7.217126
N 128.136152 6.437419 -8.169158
C 128.657624 5.476862 -4.833314
C 128.681989 4.677469 -3.688573
C 129.386086 1.932705 -2.052653
C 130.671506 2.103884 -2.698277
C 131.580587 1.423823 -2.008023
N 129.595924 1.121682 -0.972697
C 130.920100 0.784127 -0.888325
C 131.584425 0.010265 0.009444
C 130.789208 -0.663167 1.202412
C 131.290460 -0.996390 2.444181
C 130.251905 -1.646594 3.158979
C 129.148024 -1.684421 2.333068
N 129.462375 -1.015723 1.176812
C 127.761199 -2.378548 2.647760
C 127.773518 -3.541993 3.561969
C 128.251821 -4.778906 3.114293
C 128.278650 -5.877826 3.975849
C 127.828015 -5.743462 5.293981
C 127.854255 -6.870230 6.179531
N 127.875619 -7.782351 6.899180
C 127.352319 -4.507803 5.747451
C 127.327777 -3.411112 4.883302
C 126.624792 -1.936267 2.048835
C 125.339422 -2.571005 2.257092
C 124.430331 -1.921523 1.538009
C 125.090768 -0.840822 0.834387
N 126.414901 -0.905218 1.176489
H 123.714946 2.739476 -0.973878
H 125.701203 4.028773 -2.296471
H 127.206012 0.393362 -0.804139
H 127.413485 1.800380 -4.986859
H 127.361609 3.203705 -7.028130
H 129.011085 6.502505 -4.768859
H 129.050340 5.072833 -2.743471
H 130.867272 2.672995 -3.589118
H 132.624683 1.366347 -2.256459
H 132.296103 -0.812904 2.791103
H 130.309846 -2.058192 4.155229
H 128.804762 -0.779082 0.439564
H 128.600381 -4.872097 2.087200
H 128.652607 -6.828916 3.606008
H 126.997747 -4.384610 6.767325
H 126.958230 -2.445103 5.223122
H 125.143704 -3.427354 2.876903
H 123.386280 -2.173046 1.494905
C 137.366414 0.010265 0.009444
C 138.161648 1.161996 -0.732293
C 137.660483 2.382364 -1.137053
C 138.699044 3.058089 -1.827772
C 139.802823 2.231233 -1.817747
N 139.488419 1.115803 -1.082989
C 141.189652 2.504963 -2.528993
C 141.177520 3.350348 -3.743358
C 140.700858 2.831513 -4.952794
C 140.674238 3.628197 -6.099634
C 141.123462 4.952352 -6.041153
C 141.097384 5.771438 -7.217126
N 141.076096 6.437419 -8.169158
C 141.597568 5.476862 -4.833314
C 141.621933 4.677469 -3.688573
C 142.326029 1.932705 -2.052653
C 143.611449 2.103884 -2.698277
C 144.520531 1.423823 -2.008023
N 142.535868 1.121682 -0.972697
C 143.860044 0.784127 -0.888325
C 144.524369 0.010265 0.009444
C 143.729152 -0.663167 1.202412
C 144.230404 -0.996390 2.444181
C 143.191849 -1.646594 3.158979
C 142.087968 -1.684421 2.333068
N 142.402318 -1.015723 1.176812
C 140.701143 -2.378548 2.647760
C 140.713461 -3.541993 3.561969
C 141.191765 -4.778906 3.114293
C 141.218594 -5.877826 3.975849
C 140.767958 -5.743462 5.293981
C 140.794198 -6.870230 6.179531
N 140.815562 -7.782351 6.899180
C 140.292263 -4.507803 5.747451
C 140.267720 -3.411112 4.883302
C 139.564736 -1.936267 2.048835
C 138.279365 -2.571005 2.257092
C 137.370275 -1.921523 1.538009
C 138.030711 -0.840822 0.834387
N 139.354844 -0.905218 1.176489
H 136.654889 2.739476 -0.973878
H 138.641147 4.028773 -2.296471
H 140.145956 0.393362 -0.804139
H 140.353428 1.800380 -4.986859
H 140.301553 3.203705 -7.028130
H 141.951029 6.502505 -4.768859
H 141.990283 5.072833 -2.743471
H 143.807216 2.672995 -3.589118
H 145.564627 1.366347 -2.256459
H 145.236046 -0.812904 2.791103
H 143.249790 -2.058192 4.155229
H 141.744705 -0.779082 0.439564
H 141.540325 -4.872097 2.087200
H 141.592550 -6.828916 3.606008
H 139.937690 -4.384610 6.767325
H 139.898174 -2.445103 5.223122
H 138.083647 -3.427354 2.876903
H 136.326223 -2.173046 1.494905
C 150.306358 0.010265 0.009444
C 151.101592 1.161996 -0.732293
C 150.600426 2.382364 -1.137053
C 151.638988 3.058089 -1.827772
C 152.742766 2.231233 -1.817747
N 152.428362 1.115803 -1.082989
C 154.129596 2.504963 -2.528993
C 154.117463 3.350348 -3.743358
C 153.640802 2.831513 -4.952794
C 153.614181 3.628197 -6.099634
C 154.063405 4.952352 -6.041153
C 154.037328 5.771438 -7.217126
N 154.016039 6.437419 -8.169158
C 154.537511 5.476862 -4.833314
C 154.561876 4.677469 -3.688573
C 155.265973 1.932705 -2.052653
C 156.551393 2.103884 -2.698277
C 157.460474 1.423823 -2.008023
N 155.475811 1.121682 -0.972697
C 156.799987 0.784127 -0.888325
C 157.464312 0.010265 0.009444
C 156.669095 -0.663167 1.202412
C 157.170347 -0.996390 2.444181
C 156.131792 -1.646594 3.158979
C 155.027911 -1.684421 2.333068
N 155.342262 -1.015723 1.176812
C 153.641086 -2.378548 2.647760
C 153.653405 -3.541993 3.561969
C 154.131708 -4.778906 3.114293
C 154.158538 -5.877826 3.975849
C 153.707902 -5.743462 5.293981
C 153.734142 -6.870230 6.179531
N 153.755506 -7.782351 6.899180
C 153.232206 -4.507803 5.747451
C 153.207664 -3.411112 4.883302
C 152.504679 -1.936267 2.048835
C 151.219309 -2.571005 2.257092
C 150.310219 -1.921523 1.538009
C 150.970655 -0.840822 0.834387
N 152.294788 -0.905218 1.176489
H 149.594833 2.739476 -0.973878
H 151.581090 4.028773 -2.296471
H 153.085899 0.393362 -0.804139
H 153.293372 1.800380 -4.986859
H 153.241496 3.203705 -7.028130
H 154.890972 6.502505 -4.768859
H 154.930227 5.072833 -2.743471
H 156.747159 2.672995 -3.589118
H 158.504571 1.366347 -2.256459
H 158.175990 -0.812904 2.791103
H 156.189733 -2.058192 4.155229
H 154.684649 -0.779082 0.439564
H 154.480268 -4.872097 2.087200
H 154.532494 -6.828916 3.606008
H 152.877634 -4.384610 6.767325
H 152.838117 -2.445103 5.223122
H 151.023591 -3.427354 2.876903
H 149.266167 -2.173046 1.494905
C 163.246301 0.010265 0.009444
C 164.041535 1.161996 -0.732293
C 163.540370 2.382364 -1.137053
C 164.578931 3.058089 -1.827772
C 165.682710 2.231233 -1.817747
N 165.368306 1.115803 -1.082989
C 167.069539 2.504963 -2.528993
C 167.057407 3.350348 -3.743358
C 166.580745 2.831513 -4.952794
C 166.554125 3.628197 -6.099634
C 167.003349 4.952352 -6.041153
C 166.977271 5.771438 -7.217126
N 166.955983 6.437419 -8.169158
C 167.477455 5.476862 -4.833314
C 167.501820 4.677469 -3.688573
C 168.205916 1.932705 -2.052653
C 169.491336 2.103884 -2.698277
C 170.400418 1.423823 -2.008023
N 168.415755 1.121682 -0.972697
C 169.739931 0.784127 -0.888325
C 170.404256 0.010265 0.009444
C 169.609039 -0.663167 1.202412
C 170.110291 -0.996390 2.444181
C 169.071736 -1.646594 3.158979
C 167.967855 -1.684421 2.333068
N 168.282205 -1.015723 1.176812
C 166.581030 -2.378548 2.647760
C 166.593349 -3.541993 3.561969
C 167.071652 -4.778906 3.114293
C 167.098481 -5.877826 3.975849
C 166.647846 -5.743462 5.293981
C 166.674085 -6.870230 6.179531
N 166.695449 -7.782351 6.899180
C 166.172150 -4.507803 5.747451
C 166.147607 -3.411112 4.883302
C 165.444623 -1.936267 2.048835
C 164.159252 -2.571005 2.257092
C 163.250162 -1.921523 1.538009
C 163.910598 -0.840822 0.834387
N 165.234731 -0.905218 1.176489
H 162.534776 2.739476 -0.973878
H 164.521034 4.028773 -2.296471
H 166.025843 0.393362 -0.804139
H 166.233315 1.800380 -4.986859
H 166.181440 3.203705 -7.028130
H 167.830916 6.502505 -4.768859
H 167.870170 5.072833 -2.743471
H 169.687103 2.672995 -3.589118
H 171.444514 1.366347 -2.256459
H 171.115933 -0.812904 2.791103
H 169.129677 -2.058192 4.155229
H 167.624592 -0.779082 0.439564
H 167.420212 -4.872097 2.087200
H 167.472437 -6.828916 3.606008
H 165.817577 -4.384610 6.767325
H 165.778061 -2.445103 5.223122
H 163.963534 -3.427354 2.876903
H 162.206110 -2.173046 1.494905
C 176.186245 0.010265 0.009444
C 176.981479 1.161996 -0.732293
C 176.480313 2.382364 -1.137053
C 177.518875 3.058089 -1.827772
C 178.622654 2.231233 -1.817747
N 178.308249 1.115803 -1.082989
C 180.009483 2.504963 -2.528993
C 179.997350 3.350348 -3.743358
C 179.520689 2.831513 -4.952794
C 179.494068 3.628197 -6.099634
C 179.943292 4.952352 -6.041153
C 179.917215 5.771438 -7.217126
N 179.895926 6.437419 -8.169158
C 180.417398 5.476862 -4.833314
C 180.441763 4.677469 -3.688573
C 181.145860 1.932705 -2.052653
C 182.431280 2.103884 -2.698277
C 183.340361 1.423823 -2.008023
N 181.355698 1.121682 -0.972697
C 182.679874 0.784127 -0.888325
C 183.344199 0.010265 0.009444
C 182.548983 -0.663167 1.202412
C 183.050234 -0.996390 2.444181
C 182.011679 -1.646594 3.158979
C 180.907798 -1.684421 2.333068
N 181.222149 -1.015723 1.176812
C 179.520973 -2.378548 2.647760
C 179.533292 -3.541993 3.561969
C 180.011595 -4.778906 3.114293
C 180.038425 -5.877826 3.975849
C 179.587789 -5.743462 5.293981
C 179.614029 -6.870230 6.179531
N 179.635393 -7.782351 6.899180
C 179.112094 -4.507803 5.747451
C 179.087551 -3.411112 4.883302
C 178.384566 -1.936267 2.048835
C 177.099196 -2.571005 2.257092
C 176.190106 -1.921523 1.538009
C 176.850542 -0.840822 0.834387
N 178.174675 -0.905218 1.176489
H 175.474720 2.739476 -0.973878
H 177.460977 4.028773 -2.296471
H 178.965786 0.393362 -0.804139
H 179.173259 1.800380 -4.986859
H 179.121383 3.203705 -7.028130
H 180.770859 6.502505 -4.768859
H 180.810114 5.072833 -2.743471
H 182.627046 2.672995 -3.589118
H 184.384458 1.366347 -2.256459
H 184.055877 -0.812904 2.791103
H 182.069620 -2.058192 4.155229
H 180.564536 -0.779082 0.439564
H 180.360155 -4.872097 2.087200
H 180.412381 -6.828916 3.606008
H 178.757521 -4.384610 6.767325
H 178.718004 -2.445103 5.223122
H 176.903478 -3.427354 2.876903
H 175.146054 -2.173046 1.494905
C 189.126188 0.010265 0.009444
C 189.921422 1.161996 -0.732293
C 189.420257 2.382364 -1.137053
C 190.458819 3.058089 -1.827772
C 191.562597 2.231233 -1.817747
N 191.248193 1.115803 -1.082989
C 192.949426 2.504963 -2.528993
C 192.937294 3.350348 -3.743358
C 192.460632 2.831513 -4.952794
C 192.434012 3.628197 -6.099634
C 192.883236 4.952352 -6.041153
C 192.857159 5.771438 -7.217126
N 192.835870 6.437419 -8.169158
C 193.357342 5.476862 -4.833314
C 193.381707 4.677469 -3.688573
C 194.085803 1.932705 -2.052653
C 195.371223 2.103884 -2.698277
C 196.280305 1.423823 -2.008023
N 194.295642 1.121682 -0.972697
C 195.619818 0.784127 -0.888325
C 196.284143 0.010265 0.009444
C 195.488926 -0.663167 1.202412
C 195.990178 -0.996390 2.444181
C 194.951623 -1.646594 3.158979
C 193.847742 -1.684421 2.333068
N 194.162092 -1.015723 1.176812
C 192.460917 -2.378548 2.647760
C 192.473236 -3.541993 3.561969
C 192.951539 -4.778906 3.114293
C 192.978368 -5.877826 3.975849
C 192.527733 -5.743462 5.293981
C 192.553972 -6.870230 6.179531
N 192.575336 -7.782351 6.899180
C 192.052037 -4.507803 5.747451
C 192.027494 -3.411112 4.883302
C 191.324510 -1.936267 2.048835
C 190.039140 -2.571005 2.257092
C 189.130049 -1.921523 1.538009
C 189.790485 -0.840822 0.834387
N 191.114618 -0.905218 1.176489
H 188.414664 2.739476 -0.973878
H 190.400921 4.028773 -2.296471
H 191.905730 0.393362 -0.804139
H 192.113203 1.800380 -4.986859
H 192.061327 3.203705 -7.028130
H 193.710803 6.502505 -4.768859
H 193.750057 5.072833 -2.743471
H 195.566990 2.672995 -3.589118
H 197.324401 1.366347 -2.256459
H 196.995820 -0.812904 2.791103
H 195.009564 -2.058192 4.155229
H 193.504479 -0.779082 0.439564
H 193.300099 -4.872097 2.087200
H 193.352324 -6.828916 3.606008
H 191.697464 -4.384610 6.767325
H 191.657948 -2.445103 5.223122
H 189.843421 -3.427354 2.876903
H 188.085997 -2.173046 1.494905
