246

C 46.608041 0.111611 0.276042
C 47.341486 1.284279 -0.444655
C 46.744519 2.411994 -0.960097
C 47.768762 3.181276 -1.571355
C 48.956459 2.492221 -1.414575
N 48.690104 1.361522 -0.683572
C 50.369952 2.904252 -1.988911
C 50.399144 3.962616 -2.955599
C 50.409301 4.849482 -3.766457
C 50.419458 5.900971 -4.732814
C 49.620981 5.812883 -5.867737
C 49.665393 6.857388 -6.774611
N 50.437232 7.957841 -6.623867
C 51.200879 8.007940 -5.508519
C 51.227482 7.016445 -4.543128
C 51.498045 2.250734 -1.606056
C 52.793793 2.586324 -2.161159
C 53.700830 1.776701 -1.627123
N 51.704672 1.223877 -0.722346
C 53.034147 0.890142 -0.693502
C 53.708361 -0.054730 0.014616
C 52.939399 -0.986103 1.043413
C 53.489670 -1.626247 2.136523
C 52.462251 -2.388186 2.747040
C 51.311514 -2.184536 2.015303
N 51.600292 -1.290211 1.011674
C 49.899074 -2.836439 2.292014
C 49.868079 -4.076933 3.006342
C 49.852712 -5.121086 3.600608
C 49.829244 -6.365951 4.300324
C 50.869465 -6.705975 5.157952
C 50.799267 -7.924108 5.811594
N 49.781291 -8.802868 5.667271
C 48.788376 -8.438571 4.824077
C 48.765621 -7.244350 4.124855
C 48.771544 -2.229420 1.844739
C 47.444942 -2.767147 2.091269
C 46.553731 -1.946467 1.542607
C 47.276045 -0.864501 0.919121
N 48.602946 -1.079299 1.125047
H 45.525765 0.084545 0.231654
H 45.692068 2.646928 -0.914902
H 47.648343 4.121862 -2.087343
H 49.382090 0.684797 -0.370202
H 48.983493 4.952289 -6.038786
H 49.060801 6.834892 -7.675775
H 51.813881 8.897931 -5.406121
H 51.859925 7.107768 -3.666679
H 52.995622 3.351593 -2.889082
H 54.750079 1.796900 -1.858888
H 54.518579 -1.561766 2.456519
H 52.551629 -3.015040 3.621137
H 50.914548 -0.873844 0.387159
H 51.711087 -6.039203 5.310549
H 51.587070 -8.234908 6.490870
H 47.981202 -9.157126 4.719654
H 47.943379 -7.002568 3.459897
H 47.218364 -3.668164 2.631712
H 45.485174 -2.063343 1.554615
C 95.775710 0.187038 0.208422
C 95.042265 -0.657009 1.295684
C 95.639232 -1.292128 2.360600
C 94.614989 -1.983481 3.058784
C 93.427292 -1.752637 2.390886
N 93.693647 -0.902913 1.346465
C 92.013799 -2.368406 2.737959
C 91.984607 -3.444543 3.684823
C 91.974450 -4.347108 4.478168
C 91.964294 -5.422168 5.418234
C 92.762770 -6.540761 5.207145
C 92.718358 -7.555930 6.146743
N 91.946519 -7.525853 7.257066
C 91.182872 -6.422583 7.428260
C 91.156269 -5.355015 6.547727
C 90.885706 -1.916697 2.129993
C 89.589959 -2.505029 2.403173
C 88.682921 -1.886046 1.656483
N 90.679080 -0.926476 1.205418
C 89.349604 -0.861480 0.876804
C 88.675390 -0.054730 0.014616
C 89.444352 1.069325 -0.799251
C 88.894082 2.225613 -1.316620
C 89.921501 2.915431 -2.007585
C 91.072237 2.165876 -1.884786
N 90.783460 1.070872 -1.105007
C 92.484677 2.511896 -2.502700
C 92.515672 3.356994 -3.658078
C 92.531039 4.061374 -4.631348
C 92.554507 4.892422 -5.792663
C 91.514286 5.781963 -6.037323
C 91.584484 6.564302 -7.177078
N 92.602460 6.516479 -8.066326
C 93.595375 5.638645 -7.795965
C 93.618130 4.813599 -6.684941
C 93.612207 2.001211 -1.947967
C 94.938809 2.304802 -2.455668
C 95.830020 1.670077 -1.699579
C 95.107706 0.932536 -0.691899
N 93.780805 1.160617 -0.883008
H 96.857986 0.145860 0.176685
H 96.691683 -1.272771 2.599057
H 94.735408 -2.598776 3.937622
H 93.001661 -0.517752 0.707867
H 93.400258 -6.617129 4.333047
H 93.322950 -8.449292 6.026299
H 90.569871 -6.417659 8.324108
H 90.523826 -4.493712 6.733898
H 89.388129 -3.311918 3.084669
H 87.633672 -2.118633 1.651337
H 87.865173 2.536690 -1.217694
H 89.832123 3.852562 -2.535580
H 91.469203 0.404751 -0.759084
H 90.672664 5.861083 -5.357904
H 90.796681 7.273370 -7.412101
H 94.402550 5.613049 -8.521617
H 94.440372 4.126276 -6.516968
H 95.165387 2.940099 -3.292511
H 96.898577 1.694735 -1.814454
C 57.047856 -0.042294 0.017058
C 55.795586 -0.061475 0.012709
C 58.361524 -0.043060 0.018990
C 59.864658 -0.061475 0.012709
C 70.454613 -0.042294 0.017058
C 69.202342 -0.061475 0.012709
C 71.768281 -0.043060 0.018990
C 73.271415 -0.061475 0.012709
C 83.861370 -0.042294 0.017058
C 82.609099 -0.061475 0.012709
C 85.175038 -0.043060 0.018990
C 86.678171 -0.061475 0.012709
C 60.919363 0.062033 -0.016183
C 61.716977 0.129133 -1.383156
C 61.227441 0.536342 -2.606793
C 62.269819 0.371610 -3.555130
C 63.363697 -0.126770 -2.879556
N 63.038754 -0.202355 -1.548764
C 64.748351 -0.539812 -3.509932
C 64.736462 -1.020350 -4.859284
C 64.710049 -1.431777 -5.987964
C 64.681078 -1.936934 -7.323307
C 65.438832 -3.052761 -7.661585
C 65.376088 -3.507998 -8.966773
N 64.623307 -2.933697 -9.932556
C 63.899024 -1.852053 -9.566451
C 63.893422 -1.320041 -8.288774
C 65.885087 -0.475008 -2.771675
C 67.173649 -0.859502 -3.310235
C 68.088695 -0.696960 -2.360580
N 66.100327 -0.087482 -1.477756
C 67.429640 -0.200487 -1.168856
C 68.100081 0.062033 -0.016183
C 67.305918 0.592762 1.250061
C 67.814972 1.348087 2.286627
C 66.774219 1.522437 3.234589
C 65.659079 0.875407 2.743825
N 65.973199 0.377375 1.503758
C 64.266130 0.725995 3.470441
C 64.259666 0.797719 4.901139
C 64.251336 0.880816 6.100136
C 64.224364 0.997403 7.523420
C 63.132893 1.587774 8.151783
C 63.153288 1.685238 9.532354
N 64.169603 1.241618 10.306831
C 65.212960 0.671865 9.660784
C 65.287829 0.527321 8.285957
C 63.132094 0.520482 2.754071
C 61.841277 0.355050 3.391473
C 60.927846 0.169158 2.444709
C 61.589360 0.212500 1.156242
N 62.920170 0.418157 1.407166
H 60.228300 0.895324 -2.800427
H 62.223789 0.578413 -4.613328
H 63.688135 -0.415005 -0.797244
H 66.059347 -3.552887 -6.925570
H 65.948835 -4.375705 -9.278898
H 63.300144 -1.407135 -10.354943
H 63.291981 -0.449994 -8.049766
H 67.364169 -1.215241 -4.306948
H 69.137373 -0.906250 -2.475232
H 68.827069 1.716301 2.364609
H 66.836433 2.047357 4.175973
H 65.315305 -0.054426 0.860034
H 62.291508 1.963034 7.578750
H 62.324725 2.138664 10.068193
H 66.018000 0.321309 10.299772
H 66.150122 0.062538 7.820067
H 61.647822 0.372884 4.448835
H 59.878921 0.016619 2.623050
C 74.326120 0.062033 -0.016183
C 75.123734 0.129133 -1.383156
C 74.634197 0.536342 -2.606793
C 75.676576 0.371610 -3.555130
C 76.770454 -0.126770 -2.879556
N 76.445511 -0.202355 -1.548764
C 78.155108 -0.539812 -3.509932
C 78.143219 -1.020350 -4.859284
C 78.116805 -1.431777 -5.987964
C 78.087834 -1.936934 -7.323307
C 78.845589 -3.052761 -7.661585
C 78.782844 -3.507998 -8.966773
N 78.030064 -2.933697 -9.932556
C 77.305781 -1.852053 -9.566451
C 77.300179 -1.320041 -8.288774
C 79.291843 -0.475008 -2.771675
C 80.580406 -0.859502 -3.310235
C 81.495451 -0.696960 -2.360580
N 79.507084 -0.087482 -1.477756
C 80.836397 -0.200487 -1.168856
C 81.506837 0.062033 -0.016183
C 80.712675 0.592762 1.250061
C 81.221729 1.348087 2.286627
C 80.180976 1.522437 3.234589
C 79.065836 0.875407 2.743825
N 79.379956 0.377375 1.503758
C 77.672887 0.725995 3.470441
C 77.666422 0.797719 4.901139
C 77.658093 0.880816 6.100136
C 77.631120 0.997403 7.523420
C 76.539649 1.587774 8.151783
C 76.560044 1.685238 9.532354
N 77.576360 1.241618 10.306831
C 78.619717 0.671865 9.660784
C 78.694586 0.527321 8.285957
C 76.538851 0.520482 2.754071
C 75.248034 0.355050 3.391473
C 74.334602 0.169158 2.444709
C 74.996117 0.212500 1.156242
N 76.326926 0.418157 1.407166
H 73.635057 0.895324 -2.800427
H 75.630546 0.578413 -4.613328
H 77.094892 -0.415005 -0.797244
H 79.466104 -3.552887 -6.925570
H 79.355592 -4.375705 -9.278898
H 76.706901 -1.407135 -10.354943
H 76.698738 -0.449994 -8.049766
H 80.770925 -1.215241 -4.306948
H 82.544129 -0.906250 -2.475232
H 82.233826 1.716301 2.364609
H 80.243190 2.047357 4.175973
H 78.722062 -0.054426 0.860034
H 75.698264 1.963034 7.578750
H 75.731482 2.138664 10.068193
H 79.424757 0.321309 10.299772
H 79.556879 0.062538 7.820067
H 75.054578 0.372884 4.448835
H 73.285678 0.016619 2.623050
