 xtb: 6.5.1 (b24c23e)
          07302215123D

298337  0     0  0            999 V2000
   46.7012    0.0851   -0.0541 Zn  0  0  0  0  0  0  0  0  0  0  0  0
   43.2894    0.1774   -0.1124 C   0  0  0  0  0  0  0  0  0  0  0  0
   43.9168    1.0168    0.8009 C   0  0  0  0  0  0  0  0  0  0  0  0
   43.2415    1.8956    1.7155 C   0  0  0  0  0  0  0  0  0  0  0  0
   44.1994    2.5313    2.4353 C   0  0  0  0  0  0  0  0  0  0  0  0
   45.4723    2.0532    1.9654 C   0  0  0  0  0  0  0  0  0  0  0  0
   45.2651    1.1350    0.9778 N   0  0  0  0  0  0  0  0  0  0  0  0
   46.7198    2.4485    2.4585 C   0  0  0  0  0  0  0  0  0  0  0  0
   47.9591    1.9718    2.0236 C   0  0  0  0  0  0  0  0  0  0  0  0
   49.2354    2.4083    2.5179 C   0  0  0  0  0  0  0  0  0  0  0  0
   50.1861    1.7260    1.8303 C   0  0  0  0  0  0  0  0  0  0  0  0
   48.1589    1.0374    1.0427 N   0  0  0  0  0  0  0  0  0  0  0  0
   49.5012    0.8697    0.9056 C   0  0  0  0  0  0  0  0  0  0  0  0
   50.1365    0.0059   -0.0085 C   0  0  0  0  0  0  0  0  0  0  0  0
   49.4867   -0.8330   -0.9354 C   0  0  0  0  0  0  0  0  0  0  0  0
   50.1557   -1.7244   -1.8383 C   0  0  0  0  0  0  0  0  0  0  0  0
   49.1929   -2.3679   -2.5463 C   0  0  0  0  0  0  0  0  0  0  0  0
   47.9255   -1.8707   -2.0878 C   0  0  0  0  0  0  0  0  0  0  0  0
   46.6774   -2.2895   -2.5557 C   0  0  0  0  0  0  0  0  0  0  0  0
   46.6662   -3.3252   -3.6290 C   0  0  0  0  0  0  0  0  0  0  0  0
   47.0867   -3.0087   -4.9273 C   0  0  0  0  0  0  0  0  0  0  0  0
   47.4787   -1.7218   -5.1274 O   0  0  0  0  0  0  0  0  0  0  0  0
   47.9472   -1.3060   -6.3938 C   0  0  0  0  0  0  0  0  0  0  0  0
   47.0775   -3.9790   -5.9289 C   0  0  0  0  0  0  0  0  0  0  0  0
   46.6503   -5.2634   -5.6274 C   0  0  0  0  0  0  0  0  0  0  0  0
   46.2302   -5.6006   -4.3496 C   0  0  0  0  0  0  0  0  0  0  0  0
   46.2366   -4.6290   -3.3493 C   0  0  0  0  0  0  0  0  0  0  0  0
   45.8518   -4.8650   -2.0662 O   0  0  0  0  0  0  0  0  0  0  0  0
   45.4057   -6.1481   -1.6780 C   0  0  0  0  0  0  0  0  0  0  0  0
   45.4372   -1.8254   -2.1063 C   0  0  0  0  0  0  0  0  0  0  0  0
   44.1572   -2.2372   -2.6178 C   0  0  0  0  0  0  0  0  0  0  0  0
   43.2111   -1.5440   -1.9362 C   0  0  0  0  0  0  0  0  0  0  0  0
   43.9014   -0.6978   -1.0023 C   0  0  0  0  0  0  0  0  0  0  0  0
   45.2464   -0.8903   -1.1314 N   0  0  0  0  0  0  0  0  0  0  0  0
   48.1422   -0.9409   -1.1061 N   0  0  0  0  0  0  0  0  0  0  0  0
   46.7285    3.4723    3.5431 C   0  0  0  0  0  0  0  0  0  0  0  0
   47.1050    3.1225    4.8464 C   0  0  0  0  0  0  0  0  0  0  0  0
   47.4371    1.8177    5.0388 O   0  0  0  0  0  0  0  0  0  0  0  0
   47.8716    1.3701    6.3063 C   0  0  0  0  0  0  0  0  0  0  0  0
   47.1136    4.0799    5.8603 C   0  0  0  0  0  0  0  0  0  0  0  0
   46.7510    5.3855    5.5656 C   0  0  0  0  0  0  0  0  0  0  0  0
   46.3764    5.7561    4.2829 C   0  0  0  0  0  0  0  0  0  0  0  0
   46.3624    4.7968    3.2708 C   0  0  0  0  0  0  0  0  0  0  0  0
   46.0164    5.0644    1.9831 O   0  0  0  0  0  0  0  0  0  0  0  0
   45.6326    6.3697    1.6019 C   0  0  0  0  0  0  0  0  0  0  0  0
   42.2042    0.2074   -0.1316 H   0  0  0  0  0  0  0  0  0  0  0  0
   42.1702    2.0008    1.7904 H   0  0  0  0  0  0  0  0  0  0  0  0
   44.0636    3.2606    3.2182 H   0  0  0  0  0  0  0  0  0  0  0  0
   49.3811    3.1455    3.2912 H   0  0  0  0  0  0  0  0  0  0  0  0
   51.2579    1.7934    1.9309 H   0  0  0  0  0  0  0  0  0  0  0  0
   51.2256   -1.8404   -1.9107 H   0  0  0  0  0  0  0  0  0  0  0  0
   49.3247   -3.1155   -3.3122 H   0  0  0  0  0  0  0  0  0  0  0  0
   47.1722   -1.4081   -7.1633 H   0  0  0  0  0  0  0  0  0  0  0  0
   48.2111   -0.2518   -6.2893 H   0  0  0  0  0  0  0  0  0  0  0  0
   48.8366   -1.8711   -6.6983 H   0  0  0  0  0  0  0  0  0  0  0  0
   47.3976   -3.7436   -6.9351 H   0  0  0  0  0  0  0  0  0  0  0  0
   46.6446   -6.0185   -6.4058 H   0  0  0  0  0  0  0  0  0  0  0  0
   45.9037   -6.6110   -4.1424 H   0  0  0  0  0  0  0  0  0  0  0  0
   45.1566   -6.0755   -0.6176 H   0  0  0  0  0  0  0  0  0  0  0  0
   44.5117   -6.4496   -2.2376 H   0  0  0  0  0  0  0  0  0  0  0  0
   46.1892   -6.9040   -1.8125 H   0  0  0  0  0  0  0  0  0  0  0  0
   44.0093   -2.9636   -3.4011 H   0  0  0  0  0  0  0  0  0  0  0  0
   42.1389   -1.5903   -2.0487 H   0  0  0  0  0  0  0  0  0  0  0  0
   48.1000    0.3088    6.1920 H   0  0  0  0  0  0  0  0  0  0  0  0
   47.0892    1.4898    7.0657 H   0  0  0  0  0  0  0  0  0  0  0  0
   48.7754    1.8998    6.6310 H   0  0  0  0  0  0  0  0  0  0  0  0
   47.3975    3.8183    6.8709 H   0  0  0  0  0  0  0  0  0  0  0  0
   46.7598    6.1307    6.3534 H   0  0  0  0  0  0  0  0  0  0  0  0
   46.1004    6.7825    4.0811 H   0  0  0  0  0  0  0  0  0  0  0  0
   46.4436    7.0904    1.7625 H   0  0  0  0  0  0  0  0  0  0  0  0
   45.4036    6.3200    0.5356 H   0  0  0  0  0  0  0  0  0  0  0  0
   44.7399    6.7016    2.1463 H   0  0  0  0  0  0  0  0  0  0  0  0
   87.1578    0.0226   -0.0950 Zn  0  0  0  0  0  0  0  0  0  0  0  0
   90.5691    0.1138   -0.1776 C   0  0  0  0  0  0  0  0  0  0  0  0
   89.9442   -0.6220   -1.1779 C   0  0  0  0  0  0  0  0  0  0  0  0
   90.6221   -1.3500   -2.2147 C   0  0  0  0  0  0  0  0  0  0  0  0
   89.6660   -1.9321   -2.9809 C   0  0  0  0  0  0  0  0  0  0  0  0
   88.3917   -1.5602   -2.4266 C   0  0  0  0  0  0  0  0  0  0  0  0
   88.5963   -0.7712   -1.3324 N   0  0  0  0  0  0  0  0  0  0  0  0
   87.1447   -1.9556   -2.9208 C   0  0  0  0  0  0  0  0  0  0  0  0
   85.9038   -1.6098   -2.3794 C   0  0  0  0  0  0  0  0  0  0  0  0
   84.6285   -1.9873   -2.9223 C   0  0  0  0  0  0  0  0  0  0  0  0
   83.6759   -1.4499   -2.1184 C   0  0  0  0  0  0  0  0  0  0  0  0
   85.7017   -0.8448   -1.2617 N   0  0  0  0  0  0  0  0  0  0  0  0
   84.3589   -0.7372   -1.0778 C   0  0  0  0  0  0  0  0  0  0  0  0
   83.7222   -0.0505   -0.0247 C   0  0  0  0  0  0  0  0  0  0  0  0
   84.3716    0.6570    1.0067 C   0  0  0  0  0  0  0  0  0  0  0  0
   83.7022    1.3332    2.0798 C   0  0  0  0  0  0  0  0  0  0  0  0
   84.6635    1.9023    2.8509 C   0  0  0  0  0  0  0  0  0  0  0  0
   85.9303    1.5839    2.2530 C   0  0  0  0  0  0  0  0  0  0  0  0
   87.1765    1.9819    2.7436 C   0  0  0  0  0  0  0  0  0  0  0  0
   87.1833    2.8324    3.9689 C   0  0  0  0  0  0  0  0  0  0  0  0
   86.7304    4.1571    3.9141 C   0  0  0  0  0  0  0  0  0  0  0  0
   86.3131    4.5920    2.6950 O   0  0  0  0  0  0  0  0  0  0  0  0
   85.8097    5.9026    2.5369 C   0  0  0  0  0  0  0  0  0  0  0  0
   86.7349    4.9531    5.0591 C   0  0  0  0  0  0  0  0  0  0  0  0
   87.1892    4.4199    6.2559 C   0  0  0  0  0  0  0  0  0  0  0  0
   87.6414    3.1114    6.3350 C   0  0  0  0  0  0  0  0  0  0  0  0
   87.6403    2.3171    5.1887 C   0  0  0  0  0  0  0  0  0  0  0  0
   88.0563    1.0222    5.1682 O   0  0  0  0  0  0  0  0  0  0  0  0
   88.5329    0.4059    6.3467 C   0  0  0  0  0  0  0  0  0  0  0  0
   88.4172    1.6561    2.1868 C   0  0  0  0  0  0  0  0  0  0  0  0
   89.6951    2.0925    2.6827 C   0  0  0  0  0  0  0  0  0  0  0  0
   90.6425    1.5705    1.8640 C   0  0  0  0  0  0  0  0  0  0  0  0
   89.9550    0.8130    0.8550 C   0  0  0  0  0  0  0  0  0  0  0  0
   88.6102    0.8876    1.0761 N   0  0  0  0  0  0  0  0  0  0  0  0
   85.7151    0.8194    1.1374 N   0  0  0  0  0  0  0  0  0  0  0  0
   87.1373   -2.8268   -4.1313 C   0  0  0  0  0  0  0  0  0  0  0  0
   86.7433   -4.1680   -4.0338 C   0  0  0  0  0  0  0  0  0  0  0  0
   86.3933   -4.5951   -2.7911 O   0  0  0  0  0  0  0  0  0  0  0  0
   85.9384   -5.9177   -2.5912 C   0  0  0  0  0  0  0  0  0  0  0  0
   86.7370   -4.9864   -5.1628 C   0  0  0  0  0  0  0  0  0  0  0  0
   87.1189   -4.4588   -6.3870 C   0  0  0  0  0  0  0  0  0  0  0  0
   87.5103   -3.1341   -6.5089 C   0  0  0  0  0  0  0  0  0  0  0  0
   87.5227   -2.3178   -5.3782 C   0  0  0  0  0  0  0  0  0  0  0  0
   87.8851   -1.0071   -5.3985 O   0  0  0  0  0  0  0  0  0  0  0  0
   88.2978   -0.3981   -6.6048 C   0  0  0  0  0  0  0  0  0  0  0  0
   91.6542    0.1434   -0.2044 H   0  0  0  0  0  0  0  0  0  0  0  0
   91.6938   -1.4046   -2.3287 H   0  0  0  0  0  0  0  0  0  0  0  0
   89.8041   -2.5590   -3.8475 H   0  0  0  0  0  0  0  0  0  0  0  0
   84.4848   -2.5852   -3.8080 H   0  0  0  0  0  0  0  0  0  0  0  0
   82.6041   -1.5237   -2.2146 H   0  0  0  0  0  0  0  0  0  0  0  0
   82.6330    1.3614    2.2195 H   0  0  0  0  0  0  0  0  0  0  0  0
   84.5312    2.4866    3.7475 H   0  0  0  0  0  0  0  0  0  0  0  0
   86.5697    6.6571    2.7746 H   0  0  0  0  0  0  0  0  0  0  0  0
   85.5292    5.9959    1.4860 H   0  0  0  0  0  0  0  0  0  0  0  0
   84.9243    6.0710    3.1620 H   0  0  0  0  0  0  0  0  0  0  0  0
   86.3903    5.9780    5.0261 H   0  0  0  0  0  0  0  0  0  0  0  0
   87.1911    5.0381    7.1470 H   0  0  0  0  0  0  0  0  0  0  0  0
   87.9885    2.7212    7.2825 H   0  0  0  0  0  0  0  0  0  0  0  0
   88.8048   -0.6140    6.0680 H   0  0  0  0  0  0  0  0  0  0  0  0
   89.4190    0.9196    6.7394 H   0  0  0  0  0  0  0  0  0  0  0  0
   87.7596    0.3724    7.1239 H   0  0  0  0  0  0  0  0  0  0  0  0
   89.8411    2.7197    3.5478 H   0  0  0  0  0  0  0  0  0  0  0  0
   91.7139    1.6836    1.9256 H   0  0  0  0  0  0  0  0  0  0  0  0
   85.6962   -5.9987   -1.5298 H   0  0  0  0  0  0  0  0  0  0  0  0
   86.7139   -6.6524   -2.8400 H   0  0  0  0  0  0  0  0  0  0  0  0
   85.0386   -6.1266   -3.1825 H   0  0  0  0  0  0  0  0  0  0  0  0
   86.4405   -6.0247   -5.0960 H   0  0  0  0  0  0  0  0  0  0  0  0
   87.1117   -5.0944   -7.2657 H   0  0  0  0  0  0  0  0  0  0  0  0
   87.8004   -2.7485   -7.4772 H   0  0  0  0  0  0  0  0  0  0  0  0
   87.4978   -0.4088   -7.3551 H   0  0  0  0  0  0  0  0  0  0  0  0
   88.5411    0.6365   -6.3555 H   0  0  0  0  0  0  0  0  0  0  0  0
   89.1884   -0.8874   -7.0180 H   0  0  0  0  0  0  0  0  0  0  0  0
   52.7655   -0.0274    0.0130 C   0  0  0  0  0  0  0  0  0  0  0  0
   51.5437   -0.0175    0.0042 C   0  0  0  0  0  0  0  0  0  0  0  0
   54.1165   -0.0337    0.0189 C   0  0  0  0  0  0  0  0  0  0  0  0
   55.3384   -0.0327    0.0225 C   0  0  0  0  0  0  0  0  0  0  0  0
   66.2556   -0.0156   -0.0078 C   0  0  0  0  0  0  0  0  0  0  0  0
   65.0329   -0.0085   -0.0062 C   0  0  0  0  0  0  0  0  0  0  0  0
   67.6044   -0.0243   -0.0088 C   0  0  0  0  0  0  0  0  0  0  0  0
   68.8271   -0.0336   -0.0082 C   0  0  0  0  0  0  0  0  0  0  0  0
   79.7434   -0.0943    0.0144 C   0  0  0  0  0  0  0  0  0  0  0  0
   78.5212   -0.0985    0.0160 C   0  0  0  0  0  0  0  0  0  0  0  0
   81.0938   -0.0847    0.0073 C   0  0  0  0  0  0  0  0  0  0  0  0
   82.3157   -0.0717   -0.0033 C   0  0  0  0  0  0  0  0  0  0  0  0
   60.1867   -0.0117    0.0086 Zn  0  0  0  0  0  0  0  0  0  0  0  0
   56.7454   -0.0279    0.0196 C   0  0  0  0  0  0  0  0  0  0  0  0
   57.3928    0.0218    1.2701 C   0  0  0  0  0  0  0  0  0  0  0  0
   56.7202    0.0432    2.5361 C   0  0  0  0  0  0  0  0  0  0  0  0
   57.6809    0.0745    3.4950 C   0  0  0  0  0  0  0  0  0  0  0  0
   58.9497    0.0791    2.8229 C   0  0  0  0  0  0  0  0  0  0  0  0
   58.7375    0.0435    1.4707 N   0  0  0  0  0  0  0  0  0  0  0  0
   60.1970    0.0938    3.4530 C   0  0  0  0  0  0  0  0  0  0  0  0
   61.4403    0.0743    2.8154 C   0  0  0  0  0  0  0  0  0  0  0  0
   62.7129    0.1212    3.4783 C   0  0  0  0  0  0  0  0  0  0  0  0
   63.6679    0.0942    2.5136 C   0  0  0  0  0  0  0  0  0  0  0  0
   61.6447    0.0279    1.4621 N   0  0  0  0  0  0  0  0  0  0  0  0
   62.9876    0.0359    1.2530 C   0  0  0  0  0  0  0  0  0  0  0  0
   63.6284   -0.0051   -0.0023 C   0  0  0  0  0  0  0  0  0  0  0  0
   62.9800   -0.0443   -1.2537 C   0  0  0  0  0  0  0  0  0  0  0  0
   63.6525   -0.0955   -2.5187 C   0  0  0  0  0  0  0  0  0  0  0  0
   62.6916   -0.1222   -3.4775 C   0  0  0  0  0  0  0  0  0  0  0  0
   61.4231   -0.0840   -2.8064 C   0  0  0  0  0  0  0  0  0  0  0  0
   60.1760   -0.1114   -3.4358 C   0  0  0  0  0  0  0  0  0  0  0  0
   60.1722   -0.1441   -4.9272 C   0  0  0  0  0  0  0  0  0  0  0  0
   59.7733   -1.2993   -5.6117 C   0  0  0  0  0  0  0  0  0  0  0  0
   59.4130   -2.3555   -4.8344 O   0  0  0  0  0  0  0  0  0  0  0  0
   58.9733   -3.5612   -5.4253 C   0  0  0  0  0  0  0  0  0  0  0  0
   59.7720   -1.3287   -7.0060 C   0  0  0  0  0  0  0  0  0  0  0  0
   60.1666   -0.2011   -7.7101 C   0  0  0  0  0  0  0  0  0  0  0  0
   60.5641    0.9544   -7.0545 C   0  0  0  0  0  0  0  0  0  0  0  0
   60.5686    0.9821   -5.6603 C   0  0  0  0  0  0  0  0  0  0  0  0
   60.9323    2.0690   -4.9285 O   0  0  0  0  0  0  0  0  0  0  0  0
   61.3702    3.2495   -5.5696 C   0  0  0  0  0  0  0  0  0  0  0  0
   58.9328   -0.1092   -2.7977 C   0  0  0  0  0  0  0  0  0  0  0  0
   57.6599   -0.1162   -3.4619 C   0  0  0  0  0  0  0  0  0  0  0  0
   56.7050   -0.0963   -2.4971 C   0  0  0  0  0  0  0  0  0  0  0  0
   57.3853   -0.0705   -1.2352 C   0  0  0  0  0  0  0  0  0  0  0  0
   58.7287   -0.0783   -1.4442 N   0  0  0  0  0  0  0  0  0  0  0  0
   61.6358   -0.0407   -1.4543 N   0  0  0  0  0  0  0  0  0  0  0  0
   60.2032    0.1288    4.9442 C   0  0  0  0  0  0  0  0  0  0  0  0
   60.6202   -0.9909    5.6760 C   0  0  0  0  0  0  0  0  0  0  0  0
   60.9935   -2.0738    4.9432 O   0  0  0  0  0  0  0  0  0  0  0  0
   61.4588   -3.2447    5.5825 C   0  0  0  0  0  0  0  0  0  0  0  0
   60.6253   -0.9613    7.0702 C   0  0  0  0  0  0  0  0  0  0  0  0
   60.2184    0.1900    7.7273 C   0  0  0  0  0  0  0  0  0  0  0  0
   59.8041    1.3114    7.0245 C   0  0  0  0  0  0  0  0  0  0  0  0
   59.7943    1.2797    5.6303 C   0  0  0  0  0  0  0  0  0  0  0  0
   59.4137    2.3299    4.8546 O   0  0  0  0  0  0  0  0  0  0  0  0
   58.9609    3.5298    5.4474 C   0  0  0  0  0  0  0  0  0  0  0  0
   55.6495    0.0305    2.6659 H   0  0  0  0  0  0  0  0  0  0  0  0
   57.5462    0.0916    4.5646 H   0  0  0  0  0  0  0  0  0  0  0  0
   62.8541    0.1707    4.5461 H   0  0  0  0  0  0  0  0  0  0  0  0
   64.7393    0.1154    2.6361 H   0  0  0  0  0  0  0  0  0  0  0  0
   64.7233   -0.1115   -2.6480 H   0  0  0  0  0  0  0  0  0  0  0  0
   62.8262   -0.1666   -4.5465 H   0  0  0  0  0  0  0  0  0  0  0  0
   58.0760   -3.4052   -6.0367 H   0  0  0  0  0  0  0  0  0  0  0  0
   58.7318   -4.2338   -4.6002 H   0  0  0  0  0  0  0  0  0  0  0  0
   59.7575   -4.0163   -6.0427 H   0  0  0  0  0  0  0  0  0  0  0  0
   59.4692   -2.2172   -7.5438 H   0  0  0  0  0  0  0  0  0  0  0  0
   60.1643   -0.2234   -8.7944 H   0  0  0  0  0  0  0  0  0  0  0  0
   60.8647    1.8201   -7.6295 H   0  0  0  0  0  0  0  0  0  0  0  0
   61.6156    3.9547   -4.7733 H   0  0  0  0  0  0  0  0  0  0  0  0
   60.5837    3.6798   -6.2015 H   0  0  0  0  0  0  0  0  0  0  0  0
   62.2648    3.0682   -6.1778 H   0  0  0  0  0  0  0  0  0  0  0  0
   57.5187   -0.1325   -4.5308 H   0  0  0  0  0  0  0  0  0  0  0  0
   55.6335   -0.0941   -2.6204 H   0  0  0  0  0  0  0  0  0  0  0  0
   60.6851   -3.6898    6.2201 H   0  0  0  0  0  0  0  0  0  0  0  0
   61.7126   -3.9459    4.7852 H   0  0  0  0  0  0  0  0  0  0  0  0
   62.3537   -3.0453    6.1845 H   0  0  0  0  0  0  0  0  0  0  0  0
   60.9408   -1.8225    7.6441 H   0  0  0  0  0  0  0  0  0  0  0  0
   60.2243    0.2139    8.8115 H   0  0  0  0  0  0  0  0  0  0  0  0
   59.4949    2.1971    7.5633 H   0  0  0  0  0  0  0  0  0  0  0  0
   59.7433    3.9976    6.0575 H   0  0  0  0  0  0  0  0  0  0  0  0
   58.0712    3.3613    6.0664 H   0  0  0  0  0  0  0  0  0  0  0  0
   58.7025    4.1974    4.6233 H   0  0  0  0  0  0  0  0  0  0  0  0
   73.6731   -0.0718    0.0041 Zn  0  0  0  0  0  0  0  0  0  0  0  0
   70.2316   -0.0447   -0.0051 C   0  0  0  0  0  0  0  0  0  0  0  0
   70.8730   -0.0369    1.2506 C   0  0  0  0  0  0  0  0  0  0  0  0
   70.1935   -0.0371    2.5128 C   0  0  0  0  0  0  0  0  0  0  0  0
   71.1491   -0.0203    3.4773 C   0  0  0  0  0  0  0  0  0  0  0  0
   72.4212   -0.0041    2.8121 C   0  0  0  0  0  0  0  0  0  0  0  0
   72.2160   -0.0219    1.4582 N   0  0  0  0  0  0  0  0  0  0  0  0
   73.6648    0.0146    3.4488 C   0  0  0  0  0  0  0  0  0  0  0  0
   74.9117    0.0039    2.8178 C   0  0  0  0  0  0  0  0  0  0  0  0
   76.1804    0.0577    3.4876 C   0  0  0  0  0  0  0  0  0  0  0  0
   77.1408    0.0307    2.5282 C   0  0  0  0  0  0  0  0  0  0  0  0
   75.1234   -0.0454    1.4660 N   0  0  0  0  0  0  0  0  0  0  0  0
   76.4678   -0.0357    1.2641 C   0  0  0  0  0  0  0  0  0  0  0  0
   77.1150   -0.0964    0.0135 C   0  0  0  0  0  0  0  0  0  0  0  0
   76.4735   -0.1499   -1.2405 C   0  0  0  0  0  0  0  0  0  0  0  0
   77.1520   -0.2229   -2.5014 C   0  0  0  0  0  0  0  0  0  0  0  0
   76.1964   -0.2324   -3.4658 C   0  0  0  0  0  0  0  0  0  0  0  0
   74.9251   -0.1610   -2.8026 C   0  0  0  0  0  0  0  0  0  0  0  0
   73.6819   -0.1464   -3.4409 C   0  0  0  0  0  0  0  0  0  0  0  0
   73.6869   -0.1622   -4.9324 C   0  0  0  0  0  0  0  0  0  0  0  0
   73.2489   -1.2928   -5.6340 C   0  0  0  0  0  0  0  0  0  0  0  0
   72.8450   -2.3449   -4.8730 O   0  0  0  0  0  0  0  0  0  0  0  0
   72.3551   -3.5219   -5.4823 C   0  0  0  0  0  0  0  0  0  0  0  0
   73.2545   -1.3042   -7.0286 C   0  0  0  0  0  0  0  0  0  0  0  0
   73.6944   -0.1831   -7.7161 C   0  0  0  0  0  0  0  0  0  0  0  0
   74.1305    0.9484   -7.0435 C   0  0  0  0  0  0  0  0  0  0  0  0
   74.1284    0.9579   -5.6490 C   0  0  0  0  0  0  0  0  0  0  0  0
   74.5268    2.0217   -4.9015 O   0  0  0  0  0  0  0  0  0  0  0  0
   75.0139    3.1923   -5.5248 C   0  0  0  0  0  0  0  0  0  0  0  0
   72.4351   -0.1122   -2.8111 C   0  0  0  0  0  0  0  0  0  0  0  0
   71.1668   -0.0728   -3.4827 C   0  0  0  0  0  0  0  0  0  0  0  0
   70.2066   -0.0457   -2.5231 C   0  0  0  0  0  0  0  0  0  0  0  0
   70.8794   -0.0615   -1.2574 C   0  0  0  0  0  0  0  0  0  0  0  0
   72.2230   -0.0978   -1.4581 N   0  0  0  0  0  0  0  0  0  0  0  0
   75.1304   -0.1207   -1.4495 N   0  0  0  0  0  0  0  0  0  0  0  0
   73.6605    0.0512    4.9400 C   0  0  0  0  0  0  0  0  0  0  0  0
   74.0750   -1.0650    5.6782 C   0  0  0  0  0  0  0  0  0  0  0  0
   74.4585   -2.1486    4.9515 O   0  0  0  0  0  0  0  0  0  0  0  0
   74.9170   -3.3180    5.5986 C   0  0  0  0  0  0  0  0  0  0  0  0
   74.0671   -1.0319    7.0723 C   0  0  0  0  0  0  0  0  0  0  0  0
   73.6494    0.1194    7.7227 C   0  0  0  0  0  0  0  0  0  0  0  0
   73.2367    1.2372    7.0135 C   0  0  0  0  0  0  0  0  0  0  0  0
   73.2396    1.2019    5.6194 C   0  0  0  0  0  0  0  0  0  0  0  0
   72.8603    2.2477    4.8374 O   0  0  0  0  0  0  0  0  0  0  0  0
   72.3903    3.4449    5.4222 C   0  0  0  0  0  0  0  0  0  0  0  0
   69.1221   -0.0513    2.6369 H   0  0  0  0  0  0  0  0  0  0  0  0
   71.0085   -0.0200    4.5463 H   0  0  0  0  0  0  0  0  0  0  0  0
   76.3152    0.1109    4.5561 H   0  0  0  0  0  0  0  0  0  0  0  0
   78.2115    0.0551    2.6565 H   0  0  0  0  0  0  0  0  0  0  0  0
   78.2228   -0.2633   -2.6243 H   0  0  0  0  0  0  0  0  0  0  0  0
   76.3361   -0.2846   -4.5338 H   0  0  0  0  0  0  0  0  0  0  0  0
   71.4690   -3.3178   -6.0956 H   0  0  0  0  0  0  0  0  0  0  0  0
   72.0796   -4.1940   -4.6675 H   0  0  0  0  0  0  0  0  0  0  0  0
   73.1216   -4.0032   -6.1020 H   0  0  0  0  0  0  0  0  0  0  0  0
   72.9220   -2.1739   -7.5795 H   0  0  0  0  0  0  0  0  0  0  0  0
   73.6971   -0.1913   -8.8006 H   0  0  0  0  0  0  0  0  0  0  0  0
   74.4657    1.8098   -7.6055 H   0  0  0  0  0  0  0  0  0  0  0  0
   75.2805    3.8778   -4.7181 H   0  0  0  0  0  0  0  0  0  0  0  0
   74.2488    3.6603   -6.1564 H   0  0  0  0  0  0  0  0  0  0  0  0
   75.9051    2.9844   -6.1295 H   0  0  0  0  0  0  0  0  0  0  0  0
   71.0317   -0.0661   -4.5524 H   0  0  0  0  0  0  0  0  0  0  0  0
   69.1362   -0.0140   -2.6525 H   0  0  0  0  0  0  0  0  0  0  0  0
   74.1372   -3.7602    6.2307 H   0  0  0  0  0  0  0  0  0  0  0  0
   75.1771   -4.0220    4.8058 H   0  0  0  0  0  0  0  0  0  0  0  0
   75.8067   -3.1174    6.2078 H   0  0  0  0  0  0  0  0  0  0  0  0
   74.3804   -1.8904    7.6513 H   0  0  0  0  0  0  0  0  0  0  0  0
   73.6451    0.1459    8.8069 H   0  0  0  0  0  0  0  0  0  0  0  0
   72.9186    2.1229    7.5472 H   0  0  0  0  0  0  0  0  0  0  0  0
   73.1628    3.9228    6.0372 H   0  0  0  0  0  0  0  0  0  0  0  0
   71.4972    3.2695    6.0343 H   0  0  0  0  0  0  0  0  0  0  0  0
   72.1321    4.1069    4.5936 H   0  0  0  0  0  0  0  0  0  0  0  0
  2  3  4  0  0  0  0
  3  4  1  0  0  0  0
  4  5  2  0  0  0  0
  5  6  4  0  0  0  0
  1  7  1  0  0  0  0
  3  7  4  0  0  0  0
  6  7  4  0  0  0  0
  6  8  4  0  0  0  0
  8  9  4  0  0  0  0
  9 10  4  0  0  0  0
 10 11  2  0  0  0  0
  1 12  1  0  0  0  0
  9 12  4  0  0  0  0
 11 13  4  0  0  0  0
 12 13  4  0  0  0  0
 13 14  4  0  0  0  0
 14 15  4  0  0  0  0
 15 16  4  0  0  0  0
 16 17  2  0  0  0  0
 17 18  4  0  0  0  0
 18 19  4  0  0  0  0
 19 20  1  0  0  0  0
 20 21  4  0  0  0  0
 21 22  1  0  0  0  0
 22 23  1  0  0  0  0
 21 24  4  0  0  0  0
 24 25  4  0  0  0  0
 25 26  4  0  0  0  0
 20 27  4  0  0  0  0
 26 27  4  0  0  0  0
 27 28  1  0  0  0  0
 28 29  1  0  0  0  0
 19 30  4  0  0  0  0
 30 31  4  0  0  0  0
 31 32  2  0  0  0  0
  2 33  4  0  0  0  0
 32 33  1  0  0  0  0
  1 34  1  0  0  0  0
 30 34  4  0  0  0  0
 33 34  4  0  0  0  0
  1 35  1  0  0  0  0
 15 35  4  0  0  0  0
 18 35  4  0  0  0  0
  8 36  1  0  0  0  0
 36 37  4  0  0  0  0
 37 38  1  0  0  0  0
 38 39  1  0  0  0  0
 37 40  4  0  0  0  0
 40 41  4  0  0  0  0
 41 42  4  0  0  0  0
 36 43  4  0  0  0  0
 42 43  4  0  0  0  0
 43 44  1  0  0  0  0
 44 45  1  0  0  0  0
  2 46  1  0  0  0  0
  4 47  1  0  0  0  0
  5 48  1  0  0  0  0
 10 49  1  0  0  0  0
 11 50  1  0  0  0  0
 16 51  1  0  0  0  0
 17 52  1  0  0  0  0
 23 53  1  0  0  0  0
 23 54  1  0  0  0  0
 23 55  1  0  0  0  0
 24 56  1  0  0  0  0
 25 57  1  0  0  0  0
 26 58  1  0  0  0  0
 29 59  1  0  0  0  0
 29 60  1  0  0  0  0
 29 61  1  0  0  0  0
 31 62  1  0  0  0  0
 32 63  1  0  0  0  0
 39 64  1  0  0  0  0
 39 65  1  0  0  0  0
 39 66  1  0  0  0  0
 40 67  1  0  0  0  0
 41 68  1  0  0  0  0
 42 69  1  0  0  0  0
 45 70  1  0  0  0  0
 45 71  1  0  0  0  0
 45 72  1  0  0  0  0
 74 75  4  0  0  0  0
 75 76  1  0  0  0  0
 76 77  2  0  0  0  0
 77 78  4  0  0  0  0
 73 79  1  0  0  0  0
 75 79  4  0  0  0  0
 78 79  4  0  0  0  0
 78 80  4  0  0  0  0
 80 81  4  0  0  0  0
 81 82  4  0  0  0  0
 82 83  2  0  0  0  0
 73 84  1  0  0  0  0
 81 84  4  0  0  0  0
 83 85  4  0  0  0  0
 84 85  4  0  0  0  0
 85 86  4  0  0  0  0
 86 87  4  0  0  0  0
 87 88  4  0  0  0  0
 88 89  2  0  0  0  0
 89 90  4  0  0  0  0
 90 91  4  0  0  0  0
 91 92  1  0  0  0  0
 92 93  4  0  0  0  0
 93 94  1  0  0  0  0
 94 95  1  0  0  0  0
 93 96  4  0  0  0  0
 96 97  4  0  0  0  0
 97 98  4  0  0  0  0
 92 99  4  0  0  0  0
 98 99  4  0  0  0  0
 99100  1  0  0  0  0
100101  1  0  0  0  0
 91102  4  0  0  0  0
102103  4  0  0  0  0
103104  2  0  0  0  0
 74105  4  0  0  0  0
104105  1  0  0  0  0
 73106  1  0  0  0  0
102106  4  0  0  0  0
105106  4  0  0  0  0
 73107  1  0  0  0  0
 87107  4  0  0  0  0
 90107  4  0  0  0  0
 80108  1  0  0  0  0
108109  4  0  0  0  0
109110  1  0  0  0  0
110111  1  0  0  0  0
109112  4  0  0  0  0
112113  4  0  0  0  0
113114  4  0  0  0  0
108115  4  0  0  0  0
114115  4  0  0  0  0
115116  1  0  0  0  0
116117  1  0  0  0  0
 74118  1  0  0  0  0
 76119  1  0  0  0  0
 77120  1  0  0  0  0
 82121  1  0  0  0  0
 83122  1  0  0  0  0
 88123  1  0  0  0  0
 89124  1  0  0  0  0
 95125  1  0  0  0  0
 95126  1  0  0  0  0
 95127  1  0  0  0  0
 96128  1  0  0  0  0
 97129  1  0  0  0  0
 98130  1  0  0  0  0
101131  1  0  0  0  0
101132  1  0  0  0  0
101133  1  0  0  0  0
103134  1  0  0  0  0
104135  1  0  0  0  0
111136  1  0  0  0  0
111137  1  0  0  0  0
111138  1  0  0  0  0
112139  1  0  0  0  0
113140  1  0  0  0  0
114141  1  0  0  0  0
117142  1  0  0  0  0
117143  1  0  0  0  0
117144  1  0  0  0  0
 14146  4  0  0  0  0
145146  3  0  0  0  0
145147  4  0  0  0  0
147148  3  0  0  0  0
149150  3  0  0  0  0
149151  4  0  0  0  0
151152  3  0  0  0  0
153154  3  0  0  0  0
153155  4  0  0  0  0
 86156  4  0  0  0  0
155156  3  0  0  0  0
148158  4  0  0  0  0
158159  4  0  0  0  0
159160  4  0  0  0  0
160161  2  0  0  0  0
161162  4  0  0  0  0
157163  1  0  0  0  0
159163  4  0  0  0  0
162163  4  0  0  0  0
162164  4  0  0  0  0
164165  4  0  0  0  0
165166  4  0  0  0  0
166167  2  0  0  0  0
157168  1  0  0  0  0
165168  4  0  0  0  0
167169  4  0  0  0  0
168169  4  0  0  0  0
150170  4  0  0  0  0
169170  4  0  0  0  0
170171  4  0  0  0  0
171172  4  0  0  0  0
172173  2  0  0  0  0
173174  4  0  0  0  0
174175  4  0  0  0  0
175176  1  0  0  0  0
176177  4  0  0  0  0
177178  1  0  0  0  0
178179  1  0  0  0  0
177180  4  0  0  0  0
180181  4  0  0  0  0
181182  4  0  0  0  0
176183  4  0  0  0  0
182183  4  0  0  0  0
183184  1  0  0  0  0
184185  1  0  0  0  0
175186  4  0  0  0  0
186187  4  0  0  0  0
187188  2  0  0  0  0
158189  4  0  0  0  0
188189  4  0  0  0  0
157190  1  0  0  0  0
186190  4  0  0  0  0
189190  4  0  0  0  0
157191  1  0  0  0  0
171191  4  0  0  0  0
174191  4  0  0  0  0
164192  1  0  0  0  0
192193  4  0  0  0  0
193194  1  0  0  0  0
194195  1  0  0  0  0
193196  4  0  0  0  0
196197  4  0  0  0  0
197198  4  0  0  0  0
192199  4  0  0  0  0
198199  4  0  0  0  0
199200  1  0  0  0  0
200201  1  0  0  0  0
160202  1  0  0  0  0
161203  1  0  0  0  0
166204  1  0  0  0  0
167205  1  0  0  0  0
172206  1  0  0  0  0
173207  1  0  0  0  0
179208  1  0  0  0  0
179209  1  0  0  0  0
179210  1  0  0  0  0
180211  1  0  0  0  0
181212  1  0  0  0  0
182213  1  0  0  0  0
185214  1  0  0  0  0
185215  1  0  0  0  0
185216  1  0  0  0  0
187217  1  0  0  0  0
188218  1  0  0  0  0
195219  1  0  0  0  0
195220  1  0  0  0  0
195221  1  0  0  0  0
196222  1  0  0  0  0
197223  1  0  0  0  0
198224  1  0  0  0  0
201225  1  0  0  0  0
201226  1  0  0  0  0
201227  1  0  0  0  0
152229  4  0  0  0  0
229230  4  0  0  0  0
230231  4  0  0  0  0
231232  2  0  0  0  0
232233  4  0  0  0  0
228234  1  0  0  0  0
230234  4  0  0  0  0
233234  4  0  0  0  0
233235  4  0  0  0  0
235236  4  0  0  0  0
236237  4  0  0  0  0
237238  2  0  0  0  0
228239  1  0  0  0  0
236239  4  0  0  0  0
238240  4  0  0  0  0
239240  4  0  0  0  0
154241  4  0  0  0  0
240241  4  0  0  0  0
241242  4  0  0  0  0
242243  4  0  0  0  0
243244  2  0  0  0  0
244245  4  0  0  0  0
245246  4  0  0  0  0
246247  1  0  0  0  0
247248  4  0  0  0  0
248249  1  0  0  0  0
249250  1  0  0  0  0
248251  4  0  0  0  0
251252  4  0  0  0  0
252253  4  0  0  0  0
247254  4  0  0  0  0
253254  4  0  0  0  0
254255  1  0  0  0  0
255256  1  0  0  0  0
246257  4  0  0  0  0
257258  4  0  0  0  0
258259  2  0  0  0  0
229260  4  0  0  0  0
259260  4  0  0  0  0
228261  1  0  0  0  0
257261  4  0  0  0  0
260261  4  0  0  0  0
228262  1  0  0  0  0
242262  4  0  0  0  0
245262  4  0  0  0  0
235263  1  0  0  0  0
263264  4  0  0  0  0
264265  1  0  0  0  0
265266  1  0  0  0  0
264267  4  0  0  0  0
267268  4  0  0  0  0
268269  4  0  0  0  0
263270  4  0  0  0  0
269270  4  0  0  0  0
270271  1  0  0  0  0
271272  1  0  0  0  0
231273  1  0  0  0  0
232274  1  0  0  0  0
237275  1  0  0  0  0
238276  1  0  0  0  0
243277  1  0  0  0  0
244278  1  0  0  0  0
250279  1  0  0  0  0
250280  1  0  0  0  0
250281  1  0  0  0  0
251282  1  0  0  0  0
252283  1  0  0  0  0
253284  1  0  0  0  0
256285  1  0  0  0  0
256286  1  0  0  0  0
256287  1  0  0  0  0
258288  1  0  0  0  0
259289  1  0  0  0  0
266290  1  0  0  0  0
266291  1  0  0  0  0
266292  1  0  0  0  0
267293  1  0  0  0  0
268294  1  0  0  0  0
269295  1  0  0  0  0
272296  1  0  0  0  0
272297  1  0  0  0  0
272298  1  0  0  0  0
M  END
