 xtb: 6.5.1 (b24c23e)
          07302202333D

262309  0     0  0            999 V2000
   40.8672    0.0037   -0.0745 Co  0  0  0  0  0  0  0  0  0  0  0  0
   37.4978   -0.0154   -0.2120 C   0  0  0  0  0  0  0  0  0  0  0  0
   38.1567   -1.2211   -0.1031 C   0  0  0  0  0  0  0  0  0  0  0  0
   37.4992   -2.4889   -0.0067 C   0  0  0  0  0  0  0  0  0  0  0  0
   38.4621   -3.4346   -0.1100 C   0  0  0  0  0  0  0  0  0  0  0  0
   39.7053   -2.7421   -0.2885 C   0  0  0  0  0  0  0  0  0  0  0  0
   39.5151   -1.3865   -0.2093 N   0  0  0  0  0  0  0  0  0  0  0  0
   40.9046   -3.3573   -0.6231 C   0  0  0  0  0  0  0  0  0  0  0  0
   40.9229   -4.8168   -0.8613 C   0  0  0  0  0  0  0  0  0  0  0  0
   41.7507   -5.6460   -0.0980 C   0  0  0  0  0  0  0  0  0  0  0  0
   41.7699   -7.0117   -0.3146 C   0  0  0  0  0  0  0  0  0  0  0  0
   40.9588   -7.5529   -1.3080 C   0  0  0  0  0  0  0  0  0  0  0  0
   40.9772   -8.9862   -1.5418 N   0  0  0  0  0  0  0  0  0  0  0  0
   40.2597   -9.4193   -2.4067 O   0  0  0  0  0  0  0  0  0  0  0  0
   41.7091   -9.6536   -0.8567 O   0  0  0  0  0  0  0  0  0  0  0  0
   40.1307   -6.7447   -2.0818 C   0  0  0  0  0  0  0  0  0  0  0  0
   40.1145   -5.3810   -1.8531 C   0  0  0  0  0  0  0  0  0  0  0  0
   42.0852   -2.6396   -0.7541 C   0  0  0  0  0  0  0  0  0  0  0  0
   43.3310   -3.2052   -1.1771 C   0  0  0  0  0  0  0  0  0  0  0  0
   44.2718   -2.2441   -1.0128 C   0  0  0  0  0  0  0  0  0  0  0  0
   42.2523   -1.3209   -0.4015 N   0  0  0  0  0  0  0  0  0  0  0  0
   43.5975   -1.0950   -0.4972 C   0  0  0  0  0  0  0  0  0  0  0  0
   44.2587    0.0370   -0.0146 C   0  0  0  0  0  0  0  0  0  0  0  0
   43.5604    1.1482    0.4642 C   0  0  0  0  0  0  0  0  0  0  0  0
   44.1932    2.2960    1.0322 C   0  0  0  0  0  0  0  0  0  0  0  0
   43.2247    3.2274    1.2060 C   0  0  0  0  0  0  0  0  0  0  0  0
   42.0055    2.6492    0.7259 C   0  0  0  0  0  0  0  0  0  0  0  0
   42.2136    1.3456    0.3382 N   0  0  0  0  0  0  0  0  0  0  0  0
   40.8192    3.3494    0.5599 C   0  0  0  0  0  0  0  0  0  0  0  0
   40.7919    4.8000    0.8466 C   0  0  0  0  0  0  0  0  0  0  0  0
   39.9099    5.3126    1.8031 C   0  0  0  0  0  0  0  0  0  0  0  0
   39.8779    6.6680    2.0752 C   0  0  0  0  0  0  0  0  0  0  0  0
   40.7313    7.5203    1.3801 C   0  0  0  0  0  0  0  0  0  0  0  0
   40.6983    8.9452    1.6583 N   0  0  0  0  0  0  0  0  0  0  0  0
   39.9192    9.3330    2.4908 O   0  0  0  0  0  0  0  0  0  0  0  0
   41.4521    9.6518    1.0394 O   0  0  0  0  0  0  0  0  0  0  0  0
   41.6148    7.0308    0.4222 C   0  0  0  0  0  0  0  0  0  0  0  0
   41.6431    5.6729    0.1620 C   0  0  0  0  0  0  0  0  0  0  0  0
   39.6554    2.7287    0.1238 C   0  0  0  0  0  0  0  0  0  0  0  0
   38.4228    3.4129   -0.1393 C   0  0  0  0  0  0  0  0  0  0  0  0
   37.4875    2.4609   -0.3652 C   0  0  0  0  0  0  0  0  0  0  0  0
   38.1505    1.1978   -0.2473 C   0  0  0  0  0  0  0  0  0  0  0  0
   39.4918    1.3749   -0.0134 N   0  0  0  0  0  0  0  0  0  0  0  0
   36.4155   -0.0211   -0.2626 H   0  0  0  0  0  0  0  0  0  0  0  0
   36.4361   -2.6175    0.1184 H   0  0  0  0  0  0  0  0  0  0  0  0
   38.3538   -4.5065   -0.0741 H   0  0  0  0  0  0  0  0  0  0  0  0
   42.3688   -5.2135    0.6801 H   0  0  0  0  0  0  0  0  0  0  0  0
   42.4026   -7.6630    0.2761 H   0  0  0  0  0  0  0  0  0  0  0  0
   39.5129   -7.1901   -2.8522 H   0  0  0  0  0  0  0  0  0  0  0  0
   39.4839   -4.7395   -2.4575 H   0  0  0  0  0  0  0  0  0  0  0  0
   43.4581   -4.2079   -1.5514 H   0  0  0  0  0  0  0  0  0  0  0  0
   45.3306   -2.2960   -1.2082 H   0  0  0  0  0  0  0  0  0  0  0  0
   45.2449    2.3656    1.2582 H   0  0  0  0  0  0  0  0  0  0  0  0
   43.3173    4.2189    1.6183 H   0  0  0  0  0  0  0  0  0  0  0  0
   39.2586    4.6372    2.3455 H   0  0  0  0  0  0  0  0  0  0  0  0
   39.2024    7.0737    2.8188 H   0  0  0  0  0  0  0  0  0  0  0  0
   42.2653    7.7158   -0.1081 H   0  0  0  0  0  0  0  0  0  0  0  0
   42.3169    5.2813   -0.5911 H   0  0  0  0  0  0  0  0  0  0  0  0
   38.3028    4.4841   -0.1473 H   0  0  0  0  0  0  0  0  0  0  0  0
   36.4383    2.5821   -0.5824 H   0  0  0  0  0  0  0  0  0  0  0  0
   96.4232    0.0463   -0.0378 Co  0  0  0  0  0  0  0  0  0  0  0  0
   99.7917    0.1103   -0.1745 C   0  0  0  0  0  0  0  0  0  0  0  0
   99.1366    1.1898    0.3782 C   0  0  0  0  0  0  0  0  0  0  0  0
   99.7976    2.3312    0.9341 C   0  0  0  0  0  0  0  0  0  0  0  0
   98.8375    3.2515    1.1860 C   0  0  0  0  0  0  0  0  0  0  0  0
   97.5923    2.6760    0.7676 C   0  0  0  0  0  0  0  0  0  0  0  0
   97.7785    1.3862    0.3422 N   0  0  0  0  0  0  0  0  0  0  0  0
   96.3933    3.3732    0.6871 C   0  0  0  0  0  0  0  0  0  0  0  0
   96.3800    4.8184    1.0003 C   0  0  0  0  0  0  0  0  0  0  0  0
   95.5587    5.3121    2.0187 C   0  0  0  0  0  0  0  0  0  0  0  0
   95.5457    6.6619    2.3190 C   0  0  0  0  0  0  0  0  0  0  0  0
   96.3566    7.5274    1.5902 C   0  0  0  0  0  0  0  0  0  0  0  0
   96.3454    8.9462    1.9002 N   0  0  0  0  0  0  0  0  0  0  0  0
   97.0642    9.6639    1.2532 O   0  0  0  0  0  0  0  0  0  0  0  0
   95.6181    9.3179    2.7852 O   0  0  0  0  0  0  0  0  0  0  0  0
   97.1780    7.0570    0.5696 C   0  0  0  0  0  0  0  0  0  0  0  0
   97.1881    5.7046    0.2812 C   0  0  0  0  0  0  0  0  0  0  0  0
   95.2092    2.7543    0.3126 C   0  0  0  0  0  0  0  0  0  0  0  0
   93.9609    3.4349    0.1403 C   0  0  0  0  0  0  0  0  0  0  0  0
   93.0177    2.4797   -0.0430 C   0  0  0  0  0  0  0  0  0  0  0  0
   95.0400    1.3976    0.1620 N   0  0  0  0  0  0  0  0  0  0  0  0
   93.6931    1.2220    0.0092 C   0  0  0  0  0  0  0  0  0  0  0  0
   93.0331   -0.0091    0.0548 C   0  0  0  0  0  0  0  0  0  0  0  0
   93.7333   -1.2184    0.0761 C   0  0  0  0  0  0  0  0  0  0  0  0
   93.1034   -2.4962    0.1813 C   0  0  0  0  0  0  0  0  0  0  0  0
   94.0685   -3.4235   -0.0303 C   0  0  0  0  0  0  0  0  0  0  0  0
   95.2827   -2.7057   -0.2791 C   0  0  0  0  0  0  0  0  0  0  0  0
   95.0760   -1.3525   -0.1410 N   0  0  0  0  0  0  0  0  0  0  0  0
   96.4623   -3.2899   -0.7175 C   0  0  0  0  0  0  0  0  0  0  0  0
   96.4844   -4.7402   -1.0063 C   0  0  0  0  0  0  0  0  0  0  0  0
   97.3747   -5.5803   -0.3303 C   0  0  0  0  0  0  0  0  0  0  0  0
   97.4025   -6.9367   -0.5981 C   0  0  0  0  0  0  0  0  0  0  0  0
   96.5363   -7.4574   -1.5553 C   0  0  0  0  0  0  0  0  0  0  0  0
   96.5655   -8.8803   -1.8450 N   0  0  0  0  0  0  0  0  0  0  0  0
   97.3528   -9.5574   -1.2351 O   0  0  0  0  0  0  0  0  0  0  0  0
   95.8009   -9.2955   -2.6777 O   0  0  0  0  0  0  0  0  0  0  0  0
   95.6435   -6.6383   -2.2406 C   0  0  0  0  0  0  0  0  0  0  0  0
   95.6195   -5.2842   -1.9609 C   0  0  0  0  0  0  0  0  0  0  0  0
   97.6250   -2.5509   -0.8976 C   0  0  0  0  0  0  0  0  0  0  0  0
   98.8533   -3.0854   -1.4097 C   0  0  0  0  0  0  0  0  0  0  0  0
   99.7922   -2.1222   -1.2582 C   0  0  0  0  0  0  0  0  0  0  0  0
   99.1349   -0.9981   -0.6640 C   0  0  0  0  0  0  0  0  0  0  0  0
   97.7938   -1.2475   -0.5090 N   0  0  0  0  0  0  0  0  0  0  0  0
  100.8739    0.1320   -0.2218 H   0  0  0  0  0  0  0  0  0  0  0  0
  100.8612    2.4021    1.0966 H   0  0  0  0  0  0  0  0  0  0  0  0
   98.9489    4.2350    1.6130 H   0  0  0  0  0  0  0  0  0  0  0  0
   94.9413    4.6262    2.5868 H   0  0  0  0  0  0  0  0  0  0  0  0
   94.9181    7.0529    3.1108 H   0  0  0  0  0  0  0  0  0  0  0  0
   97.7959    7.7521    0.0140 H   0  0  0  0  0  0  0  0  0  0  0  0
   97.8136    5.3277   -0.5195 H   0  0  0  0  0  0  0  0  0  0  0  0
   93.8338    4.5050    0.1582 H   0  0  0  0  0  0  0  0  0  0  0  0
   91.9567    2.5991   -0.1917 H   0  0  0  0  0  0  0  0  0  0  0  0
   92.0556   -2.6469    0.3848 H   0  0  0  0  0  0  0  0  0  0  0  0
   93.9769   -4.4973   -0.0226 H   0  0  0  0  0  0  0  0  0  0  0  0
   98.0362   -5.1643    0.4207 H   0  0  0  0  0  0  0  0  0  0  0  0
   98.0847   -7.5963   -0.0755 H   0  0  0  0  0  0  0  0  0  0  0  0
   94.9827   -7.0678   -2.9839 H   0  0  0  0  0  0  0  0  0  0  0  0
   94.9384   -4.6338   -2.4972 H   0  0  0  0  0  0  0  0  0  0  0  0
   98.9686   -4.0723   -1.8277 H   0  0  0  0  0  0  0  0  0  0  0  0
  100.8401   -2.1540   -1.5104 H   0  0  0  0  0  0  0  0  0  0  0  0
   45.6614    0.0528   -0.0011 C   0  0  0  0  0  0  0  0  0  0  0  0
   46.8862    0.0599    0.0076 C   0  0  0  0  0  0  0  0  0  0  0  0
   48.2279    0.0643    0.0152 C   0  0  0  0  0  0  0  0  0  0  0  0
   49.4593    0.0623    0.0199 C   0  0  0  0  0  0  0  0  0  0  0  0
   50.7959    0.0602    0.0224 C   0  0  0  0  0  0  0  0  0  0  0  0
   52.0274    0.0547    0.0242 C   0  0  0  0  0  0  0  0  0  0  0  0
   53.3686    0.0485    0.0213 C   0  0  0  0  0  0  0  0  0  0  0  0
   54.5939    0.0420    0.0170 C   0  0  0  0  0  0  0  0  0  0  0  0
   64.1825    0.0415    0.0617 C   0  0  0  0  0  0  0  0  0  0  0  0
   65.4082    0.0426    0.0757 C   0  0  0  0  0  0  0  0  0  0  0  0
   66.7486    0.0398    0.0872 C   0  0  0  0  0  0  0  0  0  0  0  0
   67.9807    0.0361    0.0917 C   0  0  0  0  0  0  0  0  0  0  0  0
   69.3163    0.0339    0.0898 C   0  0  0  0  0  0  0  0  0  0  0  0
   70.5485    0.0312    0.0838 C   0  0  0  0  0  0  0  0  0  0  0  0
   71.8888    0.0276    0.0731 C   0  0  0  0  0  0  0  0  0  0  0  0
   73.1146    0.0230    0.0598 C   0  0  0  0  0  0  0  0  0  0  0  0
   82.6999   -0.0053    0.1003 C   0  0  0  0  0  0  0  0  0  0  0  0
   83.9255   -0.0139    0.1180 C   0  0  0  0  0  0  0  0  0  0  0  0
   85.2659   -0.0227    0.1300 C   0  0  0  0  0  0  0  0  0  0  0  0
   86.4979   -0.0321    0.1330 C   0  0  0  0  0  0  0  0  0  0  0  0
   87.8338   -0.0373    0.1299 C   0  0  0  0  0  0  0  0  0  0  0  0
   89.0655   -0.0398    0.1207 C   0  0  0  0  0  0  0  0  0  0  0  0
   90.4065   -0.0368    0.1031 C   0  0  0  0  0  0  0  0  0  0  0  0
   91.6315   -0.0288    0.0827 C   0  0  0  0  0  0  0  0  0  0  0  0
   59.3889    0.0394   -0.0031 Co  0  0  0  0  0  0  0  0  0  0  0  0
   55.9952    0.0396    0.0064 C   0  0  0  0  0  0  0  0  0  0  0  0
   56.6795   -1.1310    0.3477 C   0  0  0  0  0  0  0  0  0  0  0  0
   56.0329   -2.3402    0.7472 C   0  0  0  0  0  0  0  0  0  0  0  0
   56.9869   -3.3031    0.7632 C   0  0  0  0  0  0  0  0  0  0  0  0
   58.2110   -2.6762    0.3653 C   0  0  0  0  0  0  0  0  0  0  0  0
   58.0216   -1.3276    0.1813 N   0  0  0  0  0  0  0  0  0  0  0  0
   59.3883   -3.3575    0.0826 C   0  0  0  0  0  0  0  0  0  0  0  0
   59.3808   -4.8358    0.1094 C   0  0  0  0  0  0  0  0  0  0  0  0
   60.2431   -5.5338    0.9604 C   0  0  0  0  0  0  0  0  0  0  0  0
   60.2342   -6.9164    0.9899 C   0  0  0  0  0  0  0  0  0  0  0  0
   59.3590   -7.6076    0.1571 C   0  0  0  0  0  0  0  0  0  0  0  0
   59.3472   -9.0602    0.1826 N   0  0  0  0  0  0  0  0  0  0  0  0
   58.5703   -9.6238   -0.5444 O   0  0  0  0  0  0  0  0  0  0  0  0
   60.1149   -9.6106    0.9293 O   0  0  0  0  0  0  0  0  0  0  0  0
   58.4942   -6.9321   -0.6991 C   0  0  0  0  0  0  0  0  0  0  0  0
   58.5069   -5.5494   -0.7169 C   0  0  0  0  0  0  0  0  0  0  0  0
   60.5692   -2.6931   -0.2186 C   0  0  0  0  0  0  0  0  0  0  0  0
   61.8016   -3.3404   -0.5543 C   0  0  0  0  0  0  0  0  0  0  0  0
   62.7587   -2.3806   -0.5527 C   0  0  0  0  0  0  0  0  0  0  0  0
   60.7584   -1.3360   -0.0974 N   0  0  0  0  0  0  0  0  0  0  0  0
   62.1046   -1.1513   -0.2345 C   0  0  0  0  0  0  0  0  0  0  0  0
   62.7821    0.0415    0.0393 C   0  0  0  0  0  0  0  0  0  0  0  0
   62.0951    1.2363    0.2776 C   0  0  0  0  0  0  0  0  0  0  0  0
   62.7387    2.4738    0.5853 C   0  0  0  0  0  0  0  0  0  0  0  0
   61.7843    3.4342    0.5196 C   0  0  0  0  0  0  0  0  0  0  0  0
   60.5632    2.7772    0.1632 C   0  0  0  0  0  0  0  0  0  0  0  0
   60.7548    1.4179    0.0860 N   0  0  0  0  0  0  0  0  0  0  0  0
   59.3884    3.4326   -0.1803 C   0  0  0  0  0  0  0  0  0  0  0  0
   59.3888    4.9092   -0.2609 C   0  0  0  0  0  0  0  0  0  0  0  0
   60.2609    5.5676   -1.1333 C   0  0  0  0  0  0  0  0  0  0  0  0
   60.2604    6.9479   -1.2182 C   0  0  0  0  0  0  0  0  0  0  0  0
   59.3851    7.6768   -0.4183 C   0  0  0  0  0  0  0  0  0  0  0  0
   59.3815    9.1272   -0.5025 N   0  0  0  0  0  0  0  0  0  0  0  0
   60.1516    9.6425   -1.2714 O   0  0  0  0  0  0  0  0  0  0  0  0
   58.6085    9.7242    0.2017 O   0  0  0  0  0  0  0  0  0  0  0  0
   58.5128    7.0411    0.4605 C   0  0  0  0  0  0  0  0  0  0  0  0
   58.5165    5.6601    0.5331 C   0  0  0  0  0  0  0  0  0  0  0  0
   58.2109    2.7450   -0.4435 C   0  0  0  0  0  0  0  0  0  0  0  0
   56.9829    3.3635   -0.8428 C   0  0  0  0  0  0  0  0  0  0  0  0
   56.0258    2.4058   -0.7785 C   0  0  0  0  0  0  0  0  0  0  0  0
   56.6757    1.2058   -0.3574 C   0  0  0  0  0  0  0  0  0  0  0  0
   58.0207    1.4018   -0.2198 N   0  0  0  0  0  0  0  0  0  0  0  0
   54.9822   -2.4275    0.9716 H   0  0  0  0  0  0  0  0  0  0  0  0
   56.8813   -4.3445    1.0199 H   0  0  0  0  0  0  0  0  0  0  0  0
   60.9101   -4.9839    1.6141 H   0  0  0  0  0  0  0  0  0  0  0  0
   60.8939   -7.4661    1.6505 H   0  0  0  0  0  0  0  0  0  0  0  0
   57.8252   -7.4937   -1.3400 H   0  0  0  0  0  0  0  0  0  0  0  0
   57.8470   -5.0116   -1.3876 H   0  0  0  0  0  0  0  0  0  0  0  0
   61.9111   -4.3928   -0.7590 H   0  0  0  0  0  0  0  0  0  0  0  0
   63.8151   -2.4812   -0.7418 H   0  0  0  0  0  0  0  0  0  0  0  0
   63.7877    2.5793    0.8097 H   0  0  0  0  0  0  0  0  0  0  0  0
   61.8878    4.4926    0.6944 H   0  0  0  0  0  0  0  0  0  0  0  0
   60.9288    4.9878   -1.7596 H   0  0  0  0  0  0  0  0  0  0  0  0
   60.9268    7.4669   -1.8965 H   0  0  0  0  0  0  0  0  0  0  0  0
   57.8449    7.6319    1.0758 H   0  0  0  0  0  0  0  0  0  0  0  0
   57.8507    5.1535    1.2221 H   0  0  0  0  0  0  0  0  0  0  0  0
   56.8761    4.3968   -1.1298 H   0  0  0  0  0  0  0  0  0  0  0  0
   54.9716    2.4905   -0.9873 H   0  0  0  0  0  0  0  0  0  0  0  0
   77.9073    0.0073    0.0205 Co  0  0  0  0  0  0  0  0  0  0  0  0
   74.5148    0.0169    0.0408 C   0  0  0  0  0  0  0  0  0  0  0  0
   75.1974   -1.1605    0.3639 C   0  0  0  0  0  0  0  0  0  0  0  0
   74.5492   -2.3727    0.7521 C   0  0  0  0  0  0  0  0  0  0  0  0
   75.5007   -3.3382    0.7532 C   0  0  0  0  0  0  0  0  0  0  0  0
   76.7249   -2.7101    0.3576 C   0  0  0  0  0  0  0  0  0  0  0  0
   76.5376   -1.3588    0.1885 N   0  0  0  0  0  0  0  0  0  0  0  0
   77.9001   -3.3897    0.0644 C   0  0  0  0  0  0  0  0  0  0  0  0
   77.8966   -4.8680    0.0871 C   0  0  0  0  0  0  0  0  0  0  0  0
   78.7667   -5.5622    0.9336 C   0  0  0  0  0  0  0  0  0  0  0  0
   78.7646   -6.9448    0.9630 C   0  0  0  0  0  0  0  0  0  0  0  0
   77.8885   -7.6399    0.1344 C   0  0  0  0  0  0  0  0  0  0  0  0
   77.8841   -9.0926    0.1597 N   0  0  0  0  0  0  0  0  0  0  0  0
   77.1074   -9.6599   -0.5646 O   0  0  0  0  0  0  0  0  0  0  0  0
   78.6571   -9.6390    0.9036 O   0  0  0  0  0  0  0  0  0  0  0  0
   77.0163   -6.9682   -0.7173 C   0  0  0  0  0  0  0  0  0  0  0  0
   77.0220   -5.5854   -0.7349 C   0  0  0  0  0  0  0  0  0  0  0  0
   79.0811   -2.7233   -0.2352 C   0  0  0  0  0  0  0  0  0  0  0  0
   80.3112   -3.3682   -0.5830 C   0  0  0  0  0  0  0  0  0  0  0  0
   81.2706   -2.4107   -0.5677 C   0  0  0  0  0  0  0  0  0  0  0  0
   79.2732   -1.3688   -0.0953 N   0  0  0  0  0  0  0  0  0  0  0  0
   80.6199   -1.1853   -0.2291 C   0  0  0  0  0  0  0  0  0  0  0  0
   81.2998    0.0001    0.0708 C   0  0  0  0  0  0  0  0  0  0  0  0
   80.6143    1.1926    0.3242 C   0  0  0  0  0  0  0  0  0  0  0  0
   81.2587    2.4259    0.6460 C   0  0  0  0  0  0  0  0  0  0  0  0
   80.3087    3.3903    0.5737 C   0  0  0  0  0  0  0  0  0  0  0  0
   79.0889    2.7393    0.2028 C   0  0  0  0  0  0  0  0  0  0  0  0
   79.2762    1.3803    0.1211 N   0  0  0  0  0  0  0  0  0  0  0  0
   77.9182    3.4003   -0.1472 C   0  0  0  0  0  0  0  0  0  0  0  0
   77.9315    4.8762   -0.2353 C   0  0  0  0  0  0  0  0  0  0  0  0
   78.8157    5.5195   -1.1070 C   0  0  0  0  0  0  0  0  0  0  0  0
   78.8311    6.8991   -1.2008 C   0  0  0  0  0  0  0  0  0  0  0  0
   77.9594    7.6427   -0.4106 C   0  0  0  0  0  0  0  0  0  0  0  0
   77.9723    9.0925   -0.5042 N   0  0  0  0  0  0  0  0  0  0  0  0
   78.7527    9.5942   -1.2718 O   0  0  0  0  0  0  0  0  0  0  0  0
   77.2016    9.7026    0.1912 O   0  0  0  0  0  0  0  0  0  0  0  0
   77.0756    7.0223    0.4677 C   0  0  0  0  0  0  0  0  0  0  0  0
   77.0635    5.6417    0.5494 C   0  0  0  0  0  0  0  0  0  0  0  0
   76.7379    2.7183   -0.4098 C   0  0  0  0  0  0  0  0  0  0  0  0
   75.5098    3.3419   -0.8015 C   0  0  0  0  0  0  0  0  0  0  0  0
   74.5491    2.3883   -0.7309 C   0  0  0  0  0  0  0  0  0  0  0  0
   75.1972    1.1847   -0.3168 C   0  0  0  0  0  0  0  0  0  0  0  0
   76.5432    1.3749   -0.1873 N   0  0  0  0  0  0  0  0  0  0  0  0
   73.4992   -2.4600    0.9800 H   0  0  0  0  0  0  0  0  0  0  0  0
   75.3931   -4.3822    0.9983 H   0  0  0  0  0  0  0  0  0  0  0  0
   79.4344   -5.0091    1.5837 H   0  0  0  0  0  0  0  0  0  0  0  0
   79.4304   -7.4913    1.6201 H   0  0  0  0  0  0  0  0  0  0  0  0
   76.3470   -7.5331   -1.3550 H   0  0  0  0  0  0  0  0  0  0  0  0
   76.3564   -5.0507   -1.4025 H   0  0  0  0  0  0  0  0  0  0  0  0
   80.4177   -4.4175   -0.8046 H   0  0  0  0  0  0  0  0  0  0  0  0
   82.3266   -2.5108   -0.7596 H   0  0  0  0  0  0  0  0  0  0  0  0
   82.3058    2.5265    0.8817 H   0  0  0  0  0  0  0  0  0  0  0  0
   80.4141    4.4476    0.7544 H   0  0  0  0  0  0  0  0  0  0  0  0
   79.4810    4.9283   -1.7253 H   0  0  0  0  0  0  0  0  0  0  0  0
   79.5072    7.4063   -1.8786 H   0  0  0  0  0  0  0  0  0  0  0  0
   76.4112    7.6244    1.0757 H   0  0  0  0  0  0  0  0  0  0  0  0
   76.3893    5.1473    1.2388 H   0  0  0  0  0  0  0  0  0  0  0  0
   75.4052    4.3759   -1.0869 H   0  0  0  0  0  0  0  0  0  0  0  0
   73.4939    2.4776   -0.9325 H   0  0  0  0  0  0  0  0  0  0  0  0
  2  3  4  0  0  0  0
  3  4  1  0  0  0  0
  4  5  2  0  0  0  0
  5  6  4  0  0  0  0
  1  7  1  0  0  0  0
  3  7  4  0  0  0  0
  6  7  4  0  0  0  0
  6  8  4  0  0  0  0
  8  9  1  0  0  0  0
  9 10  4  0  0  0  0
 10 11  4  0  0  0  0
 11 12  4  0  0  0  0
 12 13  1  0  0  0  0
 13 14  2  0  0  0  0
 13 15  2  0  0  0  0
 14 15  1  0  0  0  0
 12 16  4  0  0  0  0
  9 17  4  0  0  0  0
 16 17  4  0  0  0  0
  8 18  4  0  0  0  0
 18 19  4  0  0  0  0
 19 20  2  0  0  0  0
  1 21  1  0  0  0  0
 18 21  4  0  0  0  0
 20 22  4  0  0  0  0
 21 22  4  0  0  0  0
 22 23  4  0  0  0  0
 23 24  4  0  0  0  0
 24 25  4  0  0  0  0
 25 26  2  0  0  0  0
 26 27  4  0  0  0  0
  1 28  1  0  0  0  0
 24 28  4  0  0  0  0
 27 28  4  0  0  0  0
 27 29  4  0  0  0  0
 29 30  1  0  0  0  0
 30 31  4  0  0  0  0
 31 32  4  0  0  0  0
 32 33  4  0  0  0  0
 33 34  1  0  0  0  0
 34 35  2  0  0  0  0
 34 36  2  0  0  0  0
 35 36  1  0  0  0  0
 33 37  4  0  0  0  0
 30 38  4  0  0  0  0
 37 38  4  0  0  0  0
 29 39  4  0  0  0  0
 39 40  4  0  0  0  0
 40 41  2  0  0  0  0
  2 42  4  0  0  0  0
 41 42  1  0  0  0  0
  1 43  1  0  0  0  0
 39 43  4  0  0  0  0
 42 43  4  0  0  0  0
  2 44  1  0  0  0  0
  4 45  1  0  0  0  0
  5 46  1  0  0  0  0
 10 47  1  0  0  0  0
 11 48  1  0  0  0  0
 16 49  1  0  0  0  0
 17 50  1  0  0  0  0
 19 51  1  0  0  0  0
 20 52  1  0  0  0  0
 25 53  1  0  0  0  0
 26 54  1  0  0  0  0
 31 55  1  0  0  0  0
 32 56  1  0  0  0  0
 37 57  1  0  0  0  0
 38 58  1  0  0  0  0
 40 59  1  0  0  0  0
 41 60  1  0  0  0  0
 62 63  4  0  0  0  0
 63 64  1  0  0  0  0
 64 65  2  0  0  0  0
 65 66  4  0  0  0  0
 61 67  1  0  0  0  0
 63 67  4  0  0  0  0
 66 67  4  0  0  0  0
 66 68  4  0  0  0  0
 68 69  1  0  0  0  0
 69 70  4  0  0  0  0
 70 71  4  0  0  0  0
 71 72  4  0  0  0  0
 72 73  1  0  0  0  0
 73 74  2  0  0  0  0
 73 75  2  0  0  0  0
 74 75  1  0  0  0  0
 72 76  4  0  0  0  0
 69 77  4  0  0  0  0
 76 77  4  0  0  0  0
 68 78  4  0  0  0  0
 78 79  4  0  0  0  0
 79 80  2  0  0  0  0
 61 81  1  0  0  0  0
 78 81  4  0  0  0  0
 80 82  4  0  0  0  0
 81 82  4  0  0  0  0
 82 83  4  0  0  0  0
 83 84  4  0  0  0  0
 84 85  4  0  0  0  0
 85 86  2  0  0  0  0
 86 87  4  0  0  0  0
 61 88  1  0  0  0  0
 84 88  4  0  0  0  0
 87 88  4  0  0  0  0
 87 89  4  0  0  0  0
 89 90  1  0  0  0  0
 90 91  4  0  0  0  0
 91 92  4  0  0  0  0
 92 93  4  0  0  0  0
 93 94  1  0  0  0  0
 94 95  2  0  0  0  0
 94 96  2  0  0  0  0
 95 96  1  0  0  0  0
 93 97  4  0  0  0  0
 90 98  4  0  0  0  0
 97 98  4  0  0  0  0
 89 99  4  0  0  0  0
 99100  4  0  0  0  0
100101  2  0  0  0  0
 62102  4  0  0  0  0
101102  1  0  0  0  0
 61103  1  0  0  0  0
 99103  4  0  0  0  0
102103  4  0  0  0  0
 62104  1  0  0  0  0
 64105  1  0  0  0  0
 65106  1  0  0  0  0
 70107  1  0  0  0  0
 71108  1  0  0  0  0
 76109  1  0  0  0  0
 77110  1  0  0  0  0
 79111  1  0  0  0  0
 80112  1  0  0  0  0
 85113  1  0  0  0  0
 86114  1  0  0  0  0
 91115  1  0  0  0  0
 92116  1  0  0  0  0
 97117  1  0  0  0  0
 98118  1  0  0  0  0
100119  1  0  0  0  0
101120  1  0  0  0  0
 23121  4  0  0  0  0
121122  3  0  0  0  0
122123  4  0  0  0  0
123124  3  0  0  0  0
124125  4  0  0  0  0
125126  3  0  0  0  0
126127  4  0  0  0  0
127128  3  0  0  0  0
129130  3  0  0  0  0
130131  4  0  0  0  0
131132  3  0  0  0  0
132133  4  0  0  0  0
133134  3  0  0  0  0
134135  4  0  0  0  0
135136  3  0  0  0  0
137138  3  0  0  0  0
138139  4  0  0  0  0
139140  3  0  0  0  0
140141  4  0  0  0  0
141142  3  0  0  0  0
142143  4  0  0  0  0
 83144  4  0  0  0  0
143144  3  0  0  0  0
128146  4  0  0  0  0
146147  4  0  0  0  0
147148  4  0  0  0  0
148149  2  0  0  0  0
149150  4  0  0  0  0
145151  1  0  0  0  0
147151  4  0  0  0  0
150151  4  0  0  0  0
150152  4  0  0  0  0
152153  1  0  0  0  0
153154  4  0  0  0  0
154155  4  0  0  0  0
155156  4  0  0  0  0
156157  1  0  0  0  0
157158  2  0  0  0  0
157159  2  0  0  0  0
158159  1  0  0  0  0
156160  4  0  0  0  0
153161  4  0  0  0  0
160161  4  0  0  0  0
152162  4  0  0  0  0
162163  4  0  0  0  0
163164  2  0  0  0  0
145165  1  0  0  0  0
162165  4  0  0  0  0
164166  4  0  0  0  0
165166  4  0  0  0  0
129167  4  0  0  0  0
166167  4  0  0  0  0
167168  4  0  0  0  0
168169  4  0  0  0  0
169170  2  0  0  0  0
170171  4  0  0  0  0
145172  1  0  0  0  0
168172  4  0  0  0  0
171172  4  0  0  0  0
171173  4  0  0  0  0
173174  1  0  0  0  0
174175  4  0  0  0  0
175176  4  0  0  0  0
176177  4  0  0  0  0
177178  1  0  0  0  0
178179  2  0  0  0  0
178180  2  0  0  0  0
179180  1  0  0  0  0
177181  4  0  0  0  0
174182  4  0  0  0  0
181182  4  0  0  0  0
173183  4  0  0  0  0
183184  4  0  0  0  0
184185  2  0  0  0  0
146186  4  0  0  0  0
185186  4  0  0  0  0
145187  1  0  0  0  0
183187  4  0  0  0  0
186187  4  0  0  0  0
148188  1  0  0  0  0
149189  1  0  0  0  0
154190  1  0  0  0  0
155191  1  0  0  0  0
160192  1  0  0  0  0
161193  1  0  0  0  0
163194  1  0  0  0  0
164195  1  0  0  0  0
169196  1  0  0  0  0
170197  1  0  0  0  0
175198  1  0  0  0  0
176199  1  0  0  0  0
181200  1  0  0  0  0
182201  1  0  0  0  0
184202  1  0  0  0  0
185203  1  0  0  0  0
136205  4  0  0  0  0
205206  4  0  0  0  0
206207  4  0  0  0  0
207208  2  0  0  0  0
208209  4  0  0  0  0
204210  1  0  0  0  0
206210  4  0  0  0  0
209210  4  0  0  0  0
209211  4  0  0  0  0
211212  1  0  0  0  0
212213  4  0  0  0  0
213214  4  0  0  0  0
214215  4  0  0  0  0
215216  1  0  0  0  0
216217  2  0  0  0  0
216218  2  0  0  0  0
217218  1  0  0  0  0
215219  4  0  0  0  0
212220  4  0  0  0  0
219220  4  0  0  0  0
211221  4  0  0  0  0
221222  4  0  0  0  0
222223  2  0  0  0  0
204224  1  0  0  0  0
221224  4  0  0  0  0
223225  4  0  0  0  0
224225  4  0  0  0  0
137226  4  0  0  0  0
225226  4  0  0  0  0
226227  4  0  0  0  0
227228  4  0  0  0  0
228229  2  0  0  0  0
229230  4  0  0  0  0
204231  1  0  0  0  0
227231  4  0  0  0  0
230231  4  0  0  0  0
230232  4  0  0  0  0
232233  1  0  0  0  0
233234  4  0  0  0  0
234235  4  0  0  0  0
235236  4  0  0  0  0
236237  1  0  0  0  0
237238  2  0  0  0  0
237239  2  0  0  0  0
238239  1  0  0  0  0
236240  4  0  0  0  0
233241  4  0  0  0  0
240241  4  0  0  0  0
232242  4  0  0  0  0
242243  4  0  0  0  0
243244  2  0  0  0  0
205245  4  0  0  0  0
244245  4  0  0  0  0
204246  1  0  0  0  0
242246  4  0  0  0  0
245246  4  0  0  0  0
207247  1  0  0  0  0
208248  1  0  0  0  0
213249  1  0  0  0  0
214250  1  0  0  0  0
219251  1  0  0  0  0
220252  1  0  0  0  0
222253  1  0  0  0  0
223254  1  0  0  0  0
228255  1  0  0  0  0
229256  1  0  0  0  0
234257  1  0  0  0  0
235258  1  0  0  0  0
240259  1  0  0  0  0
241260  1  0  0  0  0
243261  1  0  0  0  0
244262  1  0  0  0  0
M  END
