618

C 125.982313 -0.027774 0.078386
C 126.716189 1.195285 0.709548
C 126.122119 2.215789 1.416569
C 127.147204 3.137412 1.755853
C 128.331622 2.652566 1.234938
N 128.064411 1.440014 0.649772
C 129.751764 3.357489 1.272633
C 129.743498 4.792118 1.593201
C 129.433920 5.684065 0.627591
C 129.364989 7.165012 0.833674
N 129.811786 7.554225 2.169286
C 130.050437 6.624277 3.154463
C 130.044289 5.305776 2.924078
C 130.877764 2.658093 0.969120
C 132.177182 3.295874 0.939677
C 133.080019 2.389218 0.583969
N 131.075626 1.345478 0.629667
C 132.404642 1.122024 0.377991
C 133.070958 -0.001690 0.001164
C 132.293119 -1.371538 -0.195855
C 132.832970 -2.639001 -0.096489
C 131.806953 -3.566324 -0.406768
C 130.665617 -2.840546 -0.676874
N 130.958416 -1.509230 -0.491068
C 129.252396 -3.423307 -1.100895
C 129.262278 -4.757657 -1.714173
C 128.870734 -5.828776 -0.989556
C 128.800133 -7.227942 -1.517155
N 129.357834 -7.337793 -2.864338
C 129.661788 -6.219655 -3.608948
C 129.643684 -4.980672 -3.102835
C 128.131030 -2.681267 -0.904675
C 126.810676 -3.145337 -1.291878
C 125.924508 -2.212136 -0.955792
C 126.645301 -1.116463 -0.354850
N 127.966386 -1.439222 -0.357674
H 124.905129 0.023194 -0.023317
H 125.071669 2.295175 1.649733
H 127.030928 4.063509 2.298220
H 128.759314 0.817670 0.244849
H 129.206699 5.314916 -0.368980
H 128.333271 7.503104 0.685636
H 129.993542 7.669129 0.092212
H 129.509603 8.464892 2.490397
H 130.256379 7.029662 4.138858
H 130.251867 4.579179 3.702377
H 132.380409 4.329671 1.157199
H 134.131424 2.584245 0.475973
H 133.855745 -2.874263 0.157077
H 131.891849 -4.642395 -0.438006
H 130.275587 -0.756469 -0.514887
H 128.562028 -5.674048 0.041735
H 127.755155 -7.556622 -1.529783
H 129.355668 -7.898518 -0.853457
H 129.032970 -8.130757 -3.402930
H 129.924316 -6.406976 -4.644362
H 129.894661 -4.107871 -3.696648
H 126.586968 -4.079991 -1.773232
H 124.861808 -2.254524 -1.111721
C 254.509816 -0.020228 0.080536
C 253.775940 -1.392271 -0.027796
C 254.370010 -2.632171 0.035106
C 253.344925 -3.594202 -0.162371
C 252.160507 -2.907601 -0.349473
N 252.427718 -1.568733 -0.207593
C 250.740365 -3.526512 -0.689015
C 250.748631 -4.914628 -1.172808
C 251.058209 -5.163614 -2.463536
C 251.127140 -6.530746 -3.069035
N 250.680343 -7.565515 -2.139197
C 250.441693 -7.294549 -0.811811
C 250.447840 -6.052655 -0.312591
C 249.614365 -2.772183 -0.578277
C 248.314947 -3.298646 -0.939481
C 247.412110 -2.340676 -0.763849
N 249.416504 -1.477799 -0.174846
C 248.087487 -1.155247 -0.270934
C 247.421171 -0.001690 0.001164
C 248.199011 1.266252 0.555803
C 247.659159 2.290959 1.308340
C 248.685176 3.242545 1.533470
C 249.826512 2.768159 0.921368
N 249.533714 1.538873 0.377511
C 251.239733 3.486894 0.868219
C 251.229851 4.944085 1.050411
C 251.621395 5.472361 2.230787
C 251.691996 6.939471 2.519954
N 251.134296 7.742939 1.433029
C 250.830341 7.185244 0.210878
C 250.848445 5.865584 -0.012113
C 252.361099 2.752882 0.643826
C 253.681453 3.351346 0.559400
C 254.567621 2.381161 0.353102
C 253.846828 1.133299 0.286237
N 252.525743 1.409066 0.453967
H 255.587000 -0.009931 -0.032756
H 255.420460 -2.822536 0.191403
H 253.461201 -4.667084 -0.189627
H 251.732815 -0.826428 -0.223649
H 251.285430 -4.324608 -3.115834
H 252.158858 -6.740022 -3.373049
H 250.498587 -6.568308 -3.964852
H 250.982526 -8.508658 -2.346342
H 250.235750 -8.157931 -0.188960
H 250.240262 -5.845448 0.731802
H 248.111720 -4.291820 -1.299559
H 246.360705 -2.449483 -0.958426
H 246.636384 2.357226 1.647829
H 248.600280 4.173452 2.074135
H 250.216542 0.911735 -0.039520
H 251.930101 4.797268 3.025614
H 252.736974 7.225437 2.682475
H 251.136461 7.159479 3.437432
H 251.459159 8.700695 1.393318
H 250.567813 7.890209 -0.570273
H 250.597468 5.436888 -0.976798
H 253.905161 4.399339 0.643016
H 255.630321 2.499374 0.242938
C 136.438830 0.011042 0.003689
C 135.186559 -0.008139 -0.000659
C 137.752498 0.010276 0.005622
C 139.255632 -0.008139 -0.000659
C 149.705831 0.011042 0.003689
C 148.453560 -0.008139 -0.000659
C 151.019499 0.010276 0.005622
C 152.522633 -0.008139 -0.000659
C 162.972832 0.011042 0.003689
C 161.720561 -0.008139 -0.000659
C 164.286500 0.010276 0.005622
C 165.789634 -0.008139 -0.000659
C 176.239833 0.011042 0.003689
C 174.987562 -0.008139 -0.000659
C 177.553501 0.010276 0.005622
C 179.056635 -0.008139 -0.000659
C 189.506834 0.011042 0.003689
C 188.254563 -0.008139 -0.000659
C 190.820502 0.010276 0.005622
C 192.323636 -0.008139 -0.000659
C 202.773835 0.011042 0.003689
C 201.521564 -0.008139 -0.000659
C 204.087503 0.010276 0.005622
C 205.590637 -0.008139 -0.000659
C 216.040836 0.011042 0.003689
C 214.788565 -0.008139 -0.000659
C 217.354504 0.010276 0.005622
C 218.857638 -0.008139 -0.000659
C 229.307837 0.011042 0.003689
C 228.055566 -0.008139 -0.000659
C 230.621505 0.010276 0.005622
C 232.124639 -0.008139 -0.000659
C 242.574838 0.011042 0.003689
C 241.322567 -0.008139 -0.000659
C 243.888506 0.010276 0.005622
C 245.391640 -0.008139 -0.000659
C 140.199867 0.001061 -0.000245
C 140.975560 -0.146505 1.378852
C 140.402383 -0.127290 2.634712
C 141.442881 -0.267086 3.580856
C 142.628898 -0.365966 2.882411
N 142.335732 -0.286318 1.540847
C 144.068501 -0.513389 3.527910
C 144.092109 -0.763401 4.978435
C 144.031193 -2.034714 5.429926
C 144.090454 -2.422357 6.874643
N 144.053491 -1.257574 7.758422
C 144.224835 0.018911 7.271552
C 144.237328 0.302107 5.963427
C 145.194414 -0.404627 2.774841
C 146.506519 -0.483669 3.382804
C 147.418439 -0.323002 2.432847
N 145.391204 -0.213262 1.433039
C 146.736039 -0.159156 1.164408
C 147.418900 0.001061 -0.000245
C 146.641848 0.106355 -1.381077
C 147.208320 0.017786 -2.637113
C 146.167890 0.152716 -3.584288
C 144.989430 0.317451 -2.885259
N 145.285316 0.273046 -1.543125
C 143.553452 0.496861 -3.528314
C 143.534226 0.765249 -4.975374
C 143.638457 2.038804 -5.412426
C 143.587179 2.444873 -6.852284
N 143.582342 1.289861 -7.749876
C 143.366418 0.014798 -7.276877
C 143.347638 -0.282808 -5.972102
C 142.426942 0.400374 -2.774470
C 141.115810 0.516062 -3.378172
C 140.202855 0.361689 -2.428397
C 140.884083 0.164309 -1.163826
N 142.228997 0.194437 -1.434821
H 139.352357 -0.015652 2.856622
H 141.338572 -0.283340 4.655705
H 143.020462 -0.286788 0.788367
H 143.949951 -2.841160 4.705955
H 145.009755 -2.988448 7.059655
H 143.242126 -3.070860 7.116163
H 144.418752 -1.411118 8.690042
H 144.346654 0.791580 8.022844
H 144.367191 1.311896 5.588803
H 146.716568 -0.634176 4.426742
H 148.479683 -0.332204 2.600709
H 148.253842 -0.133623 -2.857083
H 146.266855 0.126346 -4.659703
H 144.603309 0.310524 -0.789315
H 143.750670 2.833607 -4.679740
H 142.686088 3.042706 -7.027249
H 144.455336 3.068293 -7.089690
H 143.217322 1.467110 -8.677310
H 143.213108 -0.743952 -8.036319
H 143.180932 -1.291164 -5.608593
H 140.907024 0.686525 -4.419316
H 139.141783 0.396224 -2.594010
C 153.466868 0.001061 -0.000245
C 154.242561 -0.146505 1.378852
C 153.669384 -0.127290 2.634712
C 154.709882 -0.267086 3.580856
C 155.895899 -0.365966 2.882411
N 155.602733 -0.286318 1.540847
C 157.335502 -0.513389 3.527910
C 157.359110 -0.763401 4.978435
C 157.298194 -2.034714 5.429926
C 157.357455 -2.422357 6.874643
N 157.320492 -1.257574 7.758422
C 157.491836 0.018911 7.271552
C 157.504329 0.302107 5.963427
C 158.461415 -0.404627 2.774841
C 159.773520 -0.483669 3.382804
C 160.685440 -0.323002 2.432847
N 158.658205 -0.213262 1.433039
C 160.003040 -0.159156 1.164408
C 160.685901 0.001061 -0.000245
C 159.908849 0.106355 -1.381077
C 160.475321 0.017786 -2.637113
C 159.434891 0.152716 -3.584288
C 158.256431 0.317451 -2.885259
N 158.552317 0.273046 -1.543125
C 156.820453 0.496861 -3.528314
C 156.801227 0.765249 -4.975374
C 156.905458 2.038804 -5.412426
C 156.854181 2.444873 -6.852284
N 156.849343 1.289861 -7.749876
C 156.633419 0.014798 -7.276877
C 156.614639 -0.282808 -5.972102
C 155.693943 0.400374 -2.774470
C 154.382811 0.516062 -3.378172
C 153.469856 0.361689 -2.428397
C 154.151084 0.164309 -1.163826
N 155.495998 0.194437 -1.434821
H 152.619358 -0.015652 2.856622
H 154.605573 -0.283340 4.655705
H 156.287463 -0.286788 0.788367
H 157.216952 -2.841160 4.705955
H 158.276756 -2.988448 7.059655
H 156.509127 -3.070860 7.116163
H 157.685753 -1.411118 8.690042
H 157.613655 0.791580 8.022844
H 157.634192 1.311896 5.588803
H 159.983569 -0.634176 4.426742
H 161.746684 -0.332204 2.600709
H 161.520843 -0.133623 -2.857083
H 159.533856 0.126346 -4.659703
H 157.870310 0.310524 -0.789315
H 157.017671 2.833607 -4.679740
H 155.953089 3.042706 -7.027249
H 157.722337 3.068293 -7.089690
H 156.484323 1.467110 -8.677310
H 156.480109 -0.743952 -8.036319
H 156.447933 -1.291164 -5.608593
H 154.174025 0.686525 -4.419316
H 152.408784 0.396224 -2.594010
C 166.733869 0.001061 -0.000245
C 167.509562 -0.146505 1.378852
C 166.936385 -0.127290 2.634712
C 167.976883 -0.267086 3.580856
C 169.162900 -0.365966 2.882411
N 168.869734 -0.286318 1.540847
C 170.602503 -0.513389 3.527910
C 170.626111 -0.763401 4.978435
C 170.565196 -2.034714 5.429926
C 170.624457 -2.422357 6.874643
N 170.587493 -1.257574 7.758422
C 170.758837 0.018911 7.271552
C 170.771330 0.302107 5.963427
C 171.728416 -0.404627 2.774841
C 173.040521 -0.483669 3.382804
C 173.952441 -0.323002 2.432847
N 171.925206 -0.213262 1.433039
C 173.270041 -0.159156 1.164408
C 173.952902 0.001061 -0.000245
C 173.175850 0.106355 -1.381077
C 173.742322 0.017786 -2.637113
C 172.701892 0.152716 -3.584288
C 171.523432 0.317451 -2.885259
N 171.819318 0.273046 -1.543125
C 170.087454 0.496861 -3.528314
C 170.068228 0.765249 -4.975374
C 170.172459 2.038804 -5.412426
C 170.121182 2.444873 -6.852284
N 170.116344 1.289861 -7.749876
C 169.900420 0.014798 -7.276877
C 169.881640 -0.282808 -5.972102
C 168.960944 0.400374 -2.774470
C 167.649812 0.516062 -3.378172
C 166.736857 0.361689 -2.428397
C 167.418085 0.164309 -1.163826
N 168.762999 0.194437 -1.434821
H 165.886359 -0.015652 2.856622
H 167.872574 -0.283340 4.655705
H 169.554464 -0.286788 0.788367
H 170.483953 -2.841160 4.705955
H 171.543757 -2.988448 7.059655
H 169.776128 -3.070860 7.116163
H 170.952754 -1.411118 8.690042
H 170.880656 0.791580 8.022844
H 170.901193 1.311896 5.588803
H 173.250570 -0.634176 4.426742
H 175.013685 -0.332204 2.600709
H 174.787844 -0.133623 -2.857083
H 172.800857 0.126346 -4.659703
H 171.137311 0.310524 -0.789315
H 170.284672 2.833607 -4.679740
H 169.220090 3.042706 -7.027249
H 170.989338 3.068293 -7.089690
H 169.751324 1.467110 -8.677310
H 169.747110 -0.743952 -8.036319
H 169.714934 -1.291164 -5.608593
H 167.441026 0.686525 -4.419316
H 165.675785 0.396224 -2.594010
C 180.000870 0.001061 -0.000245
C 180.776563 -0.146505 1.378852
C 180.203386 -0.127290 2.634712
C 181.243884 -0.267086 3.580856
C 182.429902 -0.365966 2.882411
N 182.136735 -0.286318 1.540847
C 183.869504 -0.513389 3.527910
C 183.893112 -0.763401 4.978435
C 183.832197 -2.034714 5.429926
C 183.891458 -2.422357 6.874643
N 183.854494 -1.257574 7.758422
C 184.025838 0.018911 7.271552
C 184.038331 0.302107 5.963427
C 184.995417 -0.404627 2.774841
C 186.307522 -0.483669 3.382804
C 187.219442 -0.323002 2.432847
N 185.192207 -0.213262 1.433039
C 186.537042 -0.159156 1.164408
C 187.219903 0.001061 -0.000245
C 186.442851 0.106355 -1.381077
C 187.009323 0.017786 -2.637113
C 185.968893 0.152716 -3.584288
C 184.790433 0.317451 -2.885259
N 185.086319 0.273046 -1.543125
C 183.354455 0.496861 -3.528314
C 183.335229 0.765249 -4.975374
C 183.439460 2.038804 -5.412426
C 183.388183 2.444873 -6.852284
N 183.383345 1.289861 -7.749876
C 183.167421 0.014798 -7.276877
C 183.148641 -0.282808 -5.972102
C 182.227945 0.400374 -2.774470
C 180.916813 0.516062 -3.378172
C 180.003858 0.361689 -2.428397
C 180.685086 0.164309 -1.163826
N 182.030000 0.194437 -1.434821
H 179.153360 -0.015652 2.856622
H 181.139575 -0.283340 4.655705
H 182.821465 -0.286788 0.788367
H 183.750954 -2.841160 4.705955
H 184.810758 -2.988448 7.059655
H 183.043129 -3.070860 7.116163
H 184.219755 -1.411118 8.690042
H 184.147657 0.791580 8.022844
H 184.168194 1.311896 5.588803
H 186.517571 -0.634176 4.426742
H 188.280686 -0.332204 2.600709
H 188.054845 -0.133623 -2.857083
H 186.067858 0.126346 -4.659703
H 184.404312 0.310524 -0.789315
H 183.551673 2.833607 -4.679740
H 182.487091 3.042706 -7.027249
H 184.256339 3.068293 -7.089690
H 183.018325 1.467110 -8.677310
H 183.014111 -0.743952 -8.036319
H 182.981935 -1.291164 -5.608593
H 180.708027 0.686525 -4.419316
H 178.942786 0.396224 -2.594010
C 193.267871 0.001061 -0.000245
C 194.043564 -0.146505 1.378852
C 193.470387 -0.127290 2.634712
C 194.510885 -0.267086 3.580856
C 195.696903 -0.365966 2.882411
N 195.403736 -0.286318 1.540847
C 197.136505 -0.513389 3.527910
C 197.160113 -0.763401 4.978435
C 197.099198 -2.034714 5.429926
C 197.158459 -2.422357 6.874643
N 197.121495 -1.257574 7.758422
C 197.292839 0.018911 7.271552
C 197.305332 0.302107 5.963427
C 198.262418 -0.404627 2.774841
C 199.574523 -0.483669 3.382804
C 200.486443 -0.323002 2.432847
N 198.459208 -0.213262 1.433039
C 199.804043 -0.159156 1.164408
C 200.486904 0.001061 -0.000245
C 199.709852 0.106355 -1.381077
C 200.276324 0.017786 -2.637113
C 199.235894 0.152716 -3.584288
C 198.057434 0.317451 -2.885259
N 198.353320 0.273046 -1.543125
C 196.621456 0.496861 -3.528314
C 196.602230 0.765249 -4.975374
C 196.706461 2.038804 -5.412426
C 196.655184 2.444873 -6.852284
N 196.650346 1.289861 -7.749876
C 196.434422 0.014798 -7.276877
C 196.415642 -0.282808 -5.972102
C 195.494946 0.400374 -2.774470
C 194.183814 0.516062 -3.378172
C 193.270859 0.361689 -2.428397
C 193.952087 0.164309 -1.163826
N 195.297001 0.194437 -1.434821
H 192.420361 -0.015652 2.856622
H 194.406576 -0.283340 4.655705
H 196.088466 -0.286788 0.788367
H 197.017955 -2.841160 4.705955
H 198.077759 -2.988448 7.059655
H 196.310130 -3.070860 7.116163
H 197.486756 -1.411118 8.690042
H 197.414658 0.791580 8.022844
H 197.435195 1.311896 5.588803
H 199.784572 -0.634176 4.426742
H 201.547687 -0.332204 2.600709
H 201.321846 -0.133623 -2.857083
H 199.334859 0.126346 -4.659703
H 197.671313 0.310524 -0.789315
H 196.818674 2.833607 -4.679740
H 195.754092 3.042706 -7.027249
H 197.523340 3.068293 -7.089690
H 196.285326 1.467110 -8.677310
H 196.281112 -0.743952 -8.036319
H 196.248936 -1.291164 -5.608593
H 193.975028 0.686525 -4.419316
H 192.209787 0.396224 -2.594010
C 206.534872 0.001061 -0.000245
C 207.310565 -0.146505 1.378852
C 206.737388 -0.127290 2.634712
C 207.777886 -0.267086 3.580856
C 208.963904 -0.365966 2.882411
N 208.670737 -0.286318 1.540847
C 210.403506 -0.513389 3.527910
C 210.427114 -0.763401 4.978435
C 210.366199 -2.034714 5.429926
C 210.425460 -2.422357 6.874643
N 210.388496 -1.257574 7.758422
C 210.559840 0.018911 7.271552
C 210.572333 0.302107 5.963427
C 211.529419 -0.404627 2.774841
C 212.841524 -0.483669 3.382804
C 213.753444 -0.323002 2.432847
N 211.726209 -0.213262 1.433039
C 213.071044 -0.159156 1.164408
C 213.753905 0.001061 -0.000245
C 212.976853 0.106355 -1.381077
C 213.543325 0.017786 -2.637113
C 212.502895 0.152716 -3.584288
C 211.324435 0.317451 -2.885259
N 211.620321 0.273046 -1.543125
C 209.888457 0.496861 -3.528314
C 209.869231 0.765249 -4.975374
C 209.973462 2.038804 -5.412426
C 209.922185 2.444873 -6.852284
N 209.917347 1.289861 -7.749876
C 209.701423 0.014798 -7.276877
C 209.682643 -0.282808 -5.972102
C 208.761947 0.400374 -2.774470
C 207.450815 0.516062 -3.378172
C 206.537860 0.361689 -2.428397
C 207.219088 0.164309 -1.163826
N 208.564002 0.194437 -1.434821
H 205.687362 -0.015652 2.856622
H 207.673577 -0.283340 4.655705
H 209.355467 -0.286788 0.788367
H 210.284956 -2.841160 4.705955
H 211.344760 -2.988448 7.059655
H 209.577131 -3.070860 7.116163
H 210.753757 -1.411118 8.690042
H 210.681659 0.791580 8.022844
H 210.702196 1.311896 5.588803
H 213.051573 -0.634176 4.426742
H 214.814688 -0.332204 2.600709
H 214.588847 -0.133623 -2.857083
H 212.601860 0.126346 -4.659703
H 210.938314 0.310524 -0.789315
H 210.085675 2.833607 -4.679740
H 209.021094 3.042706 -7.027249
H 210.790341 3.068293 -7.089690
H 209.552327 1.467110 -8.677310
H 209.548113 -0.743952 -8.036319
H 209.515937 -1.291164 -5.608593
H 207.242029 0.686525 -4.419316
H 205.476788 0.396224 -2.594010
C 219.801873 0.001061 -0.000245
C 220.577566 -0.146505 1.378852
C 220.004389 -0.127290 2.634712
C 221.044887 -0.267086 3.580856
C 222.230905 -0.365966 2.882411
N 221.937738 -0.286318 1.540847
C 223.670507 -0.513389 3.527910
C 223.694115 -0.763401 4.978435
C 223.633200 -2.034714 5.429926
C 223.692461 -2.422357 6.874643
N 223.655497 -1.257574 7.758422
C 223.826841 0.018911 7.271552
C 223.839334 0.302107 5.963427
C 224.796420 -0.404627 2.774841
C 226.108525 -0.483669 3.382804
C 227.020445 -0.323002 2.432847
N 224.993210 -0.213262 1.433039
C 226.338045 -0.159156 1.164408
C 227.020906 0.001061 -0.000245
C 226.243854 0.106355 -1.381077
C 226.810326 0.017786 -2.637113
C 225.769896 0.152716 -3.584288
C 224.591436 0.317451 -2.885259
N 224.887322 0.273046 -1.543125
C 223.155458 0.496861 -3.528314
C 223.136232 0.765249 -4.975374
C 223.240463 2.038804 -5.412426
C 223.189186 2.444873 -6.852284
N 223.184348 1.289861 -7.749876
C 222.968424 0.014798 -7.276877
C 222.949644 -0.282808 -5.972102
C 222.028948 0.400374 -2.774470
C 220.717816 0.516062 -3.378172
C 219.804861 0.361689 -2.428397
C 220.486089 0.164309 -1.163826
N 221.831003 0.194437 -1.434821
H 218.954363 -0.015652 2.856622
H 220.940578 -0.283340 4.655705
H 222.622468 -0.286788 0.788367
H 223.551957 -2.841160 4.705955
H 224.611761 -2.988448 7.059655
H 222.844132 -3.070860 7.116163
H 224.020758 -1.411118 8.690042
H 223.948660 0.791580 8.022844
H 223.969197 1.311896 5.588803
H 226.318574 -0.634176 4.426742
H 228.081689 -0.332204 2.600709
H 227.855848 -0.133623 -2.857083
H 225.868861 0.126346 -4.659703
H 224.205315 0.310524 -0.789315
H 223.352676 2.833607 -4.679740
H 222.288095 3.042706 -7.027249
H 224.057342 3.068293 -7.089690
H 222.819329 1.467110 -8.677310
H 222.815115 -0.743952 -8.036319
H 222.782938 -1.291164 -5.608593
H 220.509030 0.686525 -4.419316
H 218.743789 0.396224 -2.594010
C 233.068874 0.001061 -0.000245
C 233.844567 -0.146505 1.378852
C 233.271390 -0.127290 2.634712
C 234.311888 -0.267086 3.580856
C 235.497906 -0.365966 2.882411
N 235.204739 -0.286318 1.540847
C 236.937508 -0.513389 3.527910
C 236.961116 -0.763401 4.978435
C 236.900201 -2.034714 5.429926
C 236.959462 -2.422357 6.874643
N 236.922498 -1.257574 7.758422
C 237.093842 0.018911 7.271552
C 237.106335 0.302107 5.963427
C 238.063421 -0.404627 2.774841
C 239.375526 -0.483669 3.382804
C 240.287446 -0.323002 2.432847
N 238.260211 -0.213262 1.433039
C 239.605046 -0.159156 1.164408
C 240.287907 0.001061 -0.000245
C 239.510855 0.106355 -1.381077
C 240.077328 0.017786 -2.637113
C 239.036897 0.152716 -3.584288
C 237.858437 0.317451 -2.885259
N 238.154323 0.273046 -1.543125
C 236.422459 0.496861 -3.528314
C 236.403233 0.765249 -4.975374
C 236.507464 2.038804 -5.412426
C 236.456187 2.444873 -6.852284
N 236.451349 1.289861 -7.749876
C 236.235425 0.014798 -7.276877
C 236.216645 -0.282808 -5.972102
C 235.295949 0.400374 -2.774470
C 233.984817 0.516062 -3.378172
C 233.071862 0.361689 -2.428397
C 233.753090 0.164309 -1.163826
N 235.098004 0.194437 -1.434821
H 232.221364 -0.015652 2.856622
H 234.207579 -0.283340 4.655705
H 235.889469 -0.286788 0.788367
H 236.818958 -2.841160 4.705955
H 237.878762 -2.988448 7.059655
H 236.111133 -3.070860 7.116163
H 237.287759 -1.411118 8.690042
H 237.215661 0.791580 8.022844
H 237.236198 1.311896 5.588803
H 239.585575 -0.634176 4.426742
H 241.348690 -0.332204 2.600709
H 241.122849 -0.133623 -2.857083
H 239.135862 0.126346 -4.659703
H 237.472316 0.310524 -0.789315
H 236.619677 2.833607 -4.679740
H 235.555096 3.042706 -7.027249
H 237.324343 3.068293 -7.089690
H 236.086330 1.467110 -8.677310
H 236.082116 -0.743952 -8.036319
H 236.049939 -1.291164 -5.608593
H 233.776031 0.686525 -4.419316
H 232.010790 0.396224 -2.594010
