 xtb: 6.5.1 (b24c23e)
          07302202283D

169198  0     0  0            999 V2000
   24.7513   -0.0239   -0.0212 Ni  0  0  0  0  0  0  0  0  0  0  0  0
   21.3583   -0.0481   -0.0399 C   0  0  0  0  0  0  0  0  0  0  0  0
   22.0137   -1.2613   -0.0111 C   0  0  0  0  0  0  0  0  0  0  0  0
   21.3377   -2.5225    0.0201 C   0  0  0  0  0  0  0  0  0  0  0  0
   22.2938   -3.4723    0.1430 C   0  0  0  0  0  0  0  0  0  0  0  0
   23.5545   -2.7902    0.1801 C   0  0  0  0  0  0  0  0  0  0  0  0
   23.3729   -1.4344    0.0677 N   0  0  0  0  0  0  0  0  0  0  0  0
   24.7694   -3.4244    0.4022 C   0  0  0  0  0  0  0  0  0  0  0  0
   24.7799   -4.8954    0.5881 C   0  0  0  0  0  0  0  0  0  0  0  0
   25.1378   -5.4671    1.8080 C   0  0  0  0  0  0  0  0  0  0  0  0
   25.1350   -6.8475    1.9327 C   0  0  0  0  0  0  0  0  0  0  0  0
   24.8092   -7.6640    0.9359 N   0  0  0  0  0  0  0  0  0  0  0  0
   24.4682   -7.1263   -0.2306 C   0  0  0  0  0  0  0  0  0  0  0  0
   24.4359   -5.7581   -0.4511 C   0  0  0  0  0  0  0  0  0  0  0  0
   25.9765   -2.7414    0.4586 C   0  0  0  0  0  0  0  0  0  0  0  0
   27.2410   -3.3804    0.6648 C   0  0  0  0  0  0  0  0  0  0  0  0
   28.1885   -2.4200    0.5474 C   0  0  0  0  0  0  0  0  0  0  0  0
   26.1488   -1.3951    0.2286 N   0  0  0  0  0  0  0  0  0  0  0  0
   27.5024   -1.2000    0.2623 C   0  0  0  0  0  0  0  0  0  0  0  0
   28.1632   -0.0036   -0.0251 C   0  0  0  0  0  0  0  0  0  0  0  0
   27.4864    1.1854   -0.3053 C   0  0  0  0  0  0  0  0  0  0  0  0
   28.1541    2.4085   -0.6192 C   0  0  0  0  0  0  0  0  0  0  0  0
   27.1950    3.3593   -0.7221 C   0  0  0  0  0  0  0  0  0  0  0  0
   25.9435    2.7137   -0.4636 C   0  0  0  0  0  0  0  0  0  0  0  0
   26.1319    1.3681   -0.2443 N   0  0  0  0  0  0  0  0  0  0  0  0
   24.7272    3.3814   -0.4148 C   0  0  0  0  0  0  0  0  0  0  0  0
   24.7224    4.8542   -0.5742 C   0  0  0  0  0  0  0  0  0  0  0  0
   24.0632    5.4669   -1.6390 C   0  0  0  0  0  0  0  0  0  0  0  0
   24.0931    6.8485   -1.7466 C   0  0  0  0  0  0  0  0  0  0  0  0
   24.7209    7.6297   -0.8738 N   0  0  0  0  0  0  0  0  0  0  0  0
   25.3496    7.0536    0.1457 C   0  0  0  0  0  0  0  0  0  0  0  0
   25.3809    5.6810    0.3353 C   0  0  0  0  0  0  0  0  0  0  0  0
   23.5175    2.7256   -0.2271 C   0  0  0  0  0  0  0  0  0  0  0  0
   22.2505    3.3919   -0.1461 C   0  0  0  0  0  0  0  0  0  0  0  0
   21.3060    2.4273   -0.0511 C   0  0  0  0  0  0  0  0  0  0  0  0
   21.9971    1.1741   -0.0592 C   0  0  0  0  0  0  0  0  0  0  0  0
   23.3538    1.3660   -0.1367 N   0  0  0  0  0  0  0  0  0  0  0  0
   20.2745   -0.0555   -0.0400 H   0  0  0  0  0  0  0  0  0  0  0  0
   20.2675   -2.6433   -0.0334 H   0  0  0  0  0  0  0  0  0  0  0  0
   22.1696   -4.5403    0.2178 H   0  0  0  0  0  0  0  0  0  0  0  0
   25.4020   -4.8393    2.6505 H   0  0  0  0  0  0  0  0  0  0  0  0
   25.4068   -7.3169    2.8737 H   0  0  0  0  0  0  0  0  0  0  0  0
   24.2094   -7.8195   -1.0257 H   0  0  0  0  0  0  0  0  0  0  0  0
   24.1616   -5.3641   -1.4224 H   0  0  0  0  0  0  0  0  0  0  0  0
   27.3770   -4.4319    0.8580 H   0  0  0  0  0  0  0  0  0  0  0  0
   29.2591   -2.5156    0.6302 H   0  0  0  0  0  0  0  0  0  0  0  0
   29.2204    2.5103   -0.7404 H   0  0  0  0  0  0  0  0  0  0  0  0
   27.3132    4.4044   -0.9570 H   0  0  0  0  0  0  0  0  0  0  0  0
   23.5484    4.8690   -2.3815 H   0  0  0  0  0  0  0  0  0  0  0  0
   23.5913    7.3485   -2.5699 H   0  0  0  0  0  0  0  0  0  0  0  0
   25.8513    7.7184    0.8428 H   0  0  0  0  0  0  0  0  0  0  0  0
   25.8979    5.2556    1.1871 H   0  0  0  0  0  0  0  0  0  0  0  0
   22.1151    4.4612   -0.1588 H   0  0  0  0  0  0  0  0  0  0  0  0
   20.2354    2.5340    0.0209 H   0  0  0  0  0  0  0  0  0  0  0  0
   51.6101    0.0454   -0.0160 Ni  0  0  0  0  0  0  0  0  0  0  0  0
   55.0081    0.0608   -0.0229 C   0  0  0  0  0  0  0  0  0  0  0  0
   54.3562    1.2431   -0.3033 C   0  0  0  0  0  0  0  0  0  0  0  0
   55.0392    2.4704   -0.5779 C   0  0  0  0  0  0  0  0  0  0  0  0
   54.0851    3.4106   -0.7688 C   0  0  0  0  0  0  0  0  0  0  0  0
   52.8195    2.7537   -0.6187 C   0  0  0  0  0  0  0  0  0  0  0  0
   52.9960    1.4231   -0.3317 N   0  0  0  0  0  0  0  0  0  0  0  0
   51.5982    3.4072   -0.7072 C   0  0  0  0  0  0  0  0  0  0  0  0
   51.5904    4.8622   -0.9935 C   0  0  0  0  0  0  0  0  0  0  0  0
   51.1391    5.7800   -0.0465 C   0  0  0  0  0  0  0  0  0  0  0  0
   51.1511    7.1308   -0.3569 C   0  0  0  0  0  0  0  0  0  0  0  0
   51.5702    7.6010   -1.5272 N   0  0  0  0  0  0  0  0  0  0  0  0
   51.9993    6.7316   -2.4363 C   0  0  0  0  0  0  0  0  0  0  0  0
   52.0318    5.3633   -2.2169 C   0  0  0  0  0  0  0  0  0  0  0  0
   50.3824    2.7609   -0.5356 C   0  0  0  0  0  0  0  0  0  0  0  0
   49.1156    3.4160   -0.6598 C   0  0  0  0  0  0  0  0  0  0  0  0
   48.1660    2.4698   -0.4685 C   0  0  0  0  0  0  0  0  0  0  0  0
   50.2097    1.4199   -0.2766 N   0  0  0  0  0  0  0  0  0  0  0  0
   48.8545    1.2402   -0.2347 C   0  0  0  0  0  0  0  0  0  0  0  0
   48.1928    0.0301   -0.0144 C   0  0  0  0  0  0  0  0  0  0  0  0
   48.8668   -1.1732    0.2058 C   0  0  0  0  0  0  0  0  0  0  0  0
   48.1903   -2.4155    0.4040 C   0  0  0  0  0  0  0  0  0  0  0  0
   49.1483   -3.3528    0.5967 C   0  0  0  0  0  0  0  0  0  0  0  0
   50.4082   -2.6767    0.5249 C   0  0  0  0  0  0  0  0  0  0  0  0
   50.2235   -1.3371    0.2664 N   0  0  0  0  0  0  0  0  0  0  0  0
   51.6303   -3.3144    0.6859 C   0  0  0  0  0  0  0  0  0  0  0  0
   51.6368   -4.7658    0.9862 C   0  0  0  0  0  0  0  0  0  0  0  0
   52.1886   -5.6852    0.0952 C   0  0  0  0  0  0  0  0  0  0  0  0
   52.1663   -7.0333    0.4161 C   0  0  0  0  0  0  0  0  0  0  0  0
   51.6442   -7.5003    1.5457 N   0  0  0  0  0  0  0  0  0  0  0  0
   51.1191   -6.6298    2.4017 C   0  0  0  0  0  0  0  0  0  0  0  0
   51.0897   -5.2639    2.1676 C   0  0  0  0  0  0  0  0  0  0  0  0
   52.8460   -2.6532    0.5745 C   0  0  0  0  0  0  0  0  0  0  0  0
   54.1170   -3.2867    0.7718 C   0  0  0  0  0  0  0  0  0  0  0  0
   55.0620   -2.3397    0.5693 C   0  0  0  0  0  0  0  0  0  0  0  0
   54.3678   -1.1274    0.2587 C   0  0  0  0  0  0  0  0  0  0  0  0
   53.0094   -1.3235    0.2764 N   0  0  0  0  0  0  0  0  0  0  0  0
   56.0918    0.0671   -0.0185 H   0  0  0  0  0  0  0  0  0  0  0  0
   56.1117    2.5790   -0.6077 H   0  0  0  0  0  0  0  0  0  0  0  0
   54.2121    4.4593   -0.9830 H   0  0  0  0  0  0  0  0  0  0  0  0
   50.7958    5.4416    0.9237 H   0  0  0  0  0  0  0  0  0  0  0  0
   50.8089    7.8660    0.3656 H   0  0  0  0  0  0  0  0  0  0  0  0
   52.3323    7.1467   -3.3830 H   0  0  0  0  0  0  0  0  0  0  0  0
   52.3814    4.6903   -2.9906 H   0  0  0  0  0  0  0  0  0  0  0  0
   48.9812    4.4630   -0.8770 H   0  0  0  0  0  0  0  0  0  0  0  0
   47.0936    2.5772   -0.4871 H   0  0  0  0  0  0  0  0  0  0  0  0
   47.1195   -2.5388    0.3887 H   0  0  0  0  0  0  0  0  0  0  0  0
   49.0238   -4.4101    0.7640 H   0  0  0  0  0  0  0  0  0  0  0  0
   52.6151   -5.3503   -0.8428 H   0  0  0  0  0  0  0  0  0  0  0  0
   52.5851   -7.7694   -0.2639 H   0  0  0  0  0  0  0  0  0  0  0  0
   50.7026   -7.0418    3.3163 H   0  0  0  0  0  0  0  0  0  0  0  0
   50.6596   -4.5902    2.8990 H   0  0  0  0  0  0  0  0  0  0  0  0
   54.2541   -4.3218    1.0388 H   0  0  0  0  0  0  0  0  0  0  0  0
   56.1350   -2.4320    0.6252 H   0  0  0  0  0  0  0  0  0  0  0  0
   30.7910    0.0117   -0.0254 C   0  0  0  0  0  0  0  0  0  0  0  0
   29.5701    0.0043   -0.0291 C   0  0  0  0  0  0  0  0  0  0  0  0
   32.1421    0.0170   -0.0229 C   0  0  0  0  0  0  0  0  0  0  0  0
   33.3632    0.0194   -0.0184 C   0  0  0  0  0  0  0  0  0  0  0  0
   44.2151    0.0056   -0.0076 C   0  0  0  0  0  0  0  0  0  0  0  0
   42.9937   -0.0026   -0.0065 C   0  0  0  0  0  0  0  0  0  0  0  0
   45.5655    0.0132   -0.0095 C   0  0  0  0  0  0  0  0  0  0  0  0
   46.7866    0.0218   -0.0155 C   0  0  0  0  0  0  0  0  0  0  0  0
   38.1789    0.0003   -0.0211 Ni  0  0  0  0  0  0  0  0  0  0  0  0
   34.7692    0.0160   -0.0182 C   0  0  0  0  0  0  0  0  0  0  0  0
   35.4394   -0.7455    0.9430 C   0  0  0  0  0  0  0  0  0  0  0  0
   34.7726   -1.4856    1.9662 C   0  0  0  0  0  0  0  0  0  0  0  0
   35.7254   -2.1992    2.6139 C   0  0  0  0  0  0  0  0  0  0  0  0
   36.9707   -1.9004    1.9750 C   0  0  0  0  0  0  0  0  0  0  0  0
   36.7888   -0.9665    0.9807 N   0  0  0  0  0  0  0  0  0  0  0  0
   38.1705   -2.5344    2.2722 C   0  0  0  0  0  0  0  0  0  0  0  0
   38.1662   -3.6298    3.2680 C   0  0  0  0  0  0  0  0  0  0  0  0
   37.3996   -4.7790    3.0775 C   0  0  0  0  0  0  0  0  0  0  0  0
   37.4280   -5.7771    4.0387 C   0  0  0  0  0  0  0  0  0  0  0  0
   38.1531   -5.6924    5.1494 N   0  0  0  0  0  0  0  0  0  0  0  0
   38.8850   -4.5995    5.3398 C   0  0  0  0  0  0  0  0  0  0  0  0
   38.9265   -3.5511    4.4343 C   0  0  0  0  0  0  0  0  0  0  0  0
   39.3736   -2.1808    1.6747 C   0  0  0  0  0  0  0  0  0  0  0  0
   40.6158   -2.8504    1.9127 C   0  0  0  0  0  0  0  0  0  0  0  0
   41.5736   -2.1369    1.2719 C   0  0  0  0  0  0  0  0  0  0  0  0
   39.5624   -1.0982    0.8463 N   0  0  0  0  0  0  0  0  0  0  0  0
   40.9127   -1.0423    0.6362 C   0  0  0  0  0  0  0  0  0  0  0  0
   41.5886   -0.0036   -0.0105 C   0  0  0  0  0  0  0  0  0  0  0  0
   40.9184    1.0328   -0.6668 C   0  0  0  0  0  0  0  0  0  0  0  0
   41.5862    2.1184   -1.3109 C   0  0  0  0  0  0  0  0  0  0  0  0
   40.6351    2.8236   -1.9704 C   0  0  0  0  0  0  0  0  0  0  0  0
   39.3896    2.1609   -1.7311 C   0  0  0  0  0  0  0  0  0  0  0  0
   39.5697    1.0887   -0.8876 N   0  0  0  0  0  0  0  0  0  0  0  0
   38.1903    2.5164   -2.3347 C   0  0  0  0  0  0  0  0  0  0  0  0
   38.2002    3.5959   -3.3481 C   0  0  0  0  0  0  0  0  0  0  0  0
   38.9521    3.4808   -4.5168 C   0  0  0  0  0  0  0  0  0  0  0  0
   38.9275    4.5138   -5.4403 C   0  0  0  0  0  0  0  0  0  0  0  0
   38.2205    5.6255   -5.2645 N   0  0  0  0  0  0  0  0  0  0  0  0
   37.5042    5.7449   -4.1514 C   0  0  0  0  0  0  0  0  0  0  0  0
   37.4596    4.7642   -3.1729 C   0  0  0  0  0  0  0  0  0  0  0  0
   36.9841    1.9005   -2.0274 C   0  0  0  0  0  0  0  0  0  0  0  0
   35.7394    2.2119   -2.6616 C   0  0  0  0  0  0  0  0  0  0  0  0
   34.7808    1.5147   -2.0046 C   0  0  0  0  0  0  0  0  0  0  0  0
   35.4436    0.7707   -0.9816 C   0  0  0  0  0  0  0  0  0  0  0  0
   36.7952    0.9760   -1.0256 N   0  0  0  0  0  0  0  0  0  0  0  0
   33.7110   -1.4545    2.1514 H   0  0  0  0  0  0  0  0  0  0  0  0
   35.6057   -2.8672    3.4511 H   0  0  0  0  0  0  0  0  0  0  0  0
   36.8019   -4.8962    2.1814 H   0  0  0  0  0  0  0  0  0  0  0  0
   36.8425   -6.6828    3.9110 H   0  0  0  0  0  0  0  0  0  0  0  0
   39.4647   -4.5592    6.2573 H   0  0  0  0  0  0  0  0  0  0  0  0
   39.5287   -2.6735    4.6372 H   0  0  0  0  0  0  0  0  0  0  0  0
   40.7302   -3.7506    2.4942 H   0  0  0  0  0  0  0  0  0  0  0  0
   42.6350   -2.3206    1.2273 H   0  0  0  0  0  0  0  0  0  0  0  0
   42.6475    2.3008   -1.2608 H   0  0  0  0  0  0  0  0  0  0  0  0
   40.7557    3.7143   -2.5650 H   0  0  0  0  0  0  0  0  0  0  0  0
   39.5349    2.5873   -4.7069 H   0  0  0  0  0  0  0  0  0  0  0  0
   39.5003    4.4450   -6.3605 H   0  0  0  0  0  0  0  0  0  0  0  0
   36.9401    6.6657   -4.0356 H   0  0  0  0  0  0  0  0  0  0  0  0
   36.8701    4.9098   -2.2756 H   0  0  0  0  0  0  0  0  0  0  0  0
   35.6241    2.8777   -3.5011 H   0  0  0  0  0  0  0  0  0  0  0  0
   33.7179    1.4966   -2.1838 H   0  0  0  0  0  0  0  0  0  0  0  0
  2  3  4  0  0  0  0
  3  4  4  0  0  0  0
  4  5  2  0  0  0  0
  5  6  4  0  0  0  0
  1  7  1  0  0  0  0
  3  7  4  0  0  0  0
  6  7  4  0  0  0  0
  6  8  4  0  0  0  0
  8  9  1  0  0  0  0
  9 10  4  0  0  0  0
 10 11  4  0  0  0  0
 11 12  4  0  0  0  0
 12 13  4  0  0  0  0
  9 14  4  0  0  0  0
 13 14  4  0  0  0  0
  8 15  4  0  0  0  0
 15 16  4  0  0  0  0
 16 17  2  0  0  0  0
  1 18  1  0  0  0  0
 15 18  4  0  0  0  0
 17 19  4  0  0  0  0
 18 19  4  0  0  0  0
 19 20  4  0  0  0  0
 20 21  4  0  0  0  0
 21 22  4  0  0  0  0
 22 23  2  0  0  0  0
 23 24  4  0  0  0  0
  1 25  1  0  0  0  0
 21 25  4  0  0  0  0
 24 25  4  0  0  0  0
 24 26  4  0  0  0  0
 26 27  1  0  0  0  0
 27 28  4  0  0  0  0
 28 29  4  0  0  0  0
 29 30  4  0  0  0  0
 30 31  4  0  0  0  0
 27 32  4  0  0  0  0
 31 32  4  0  0  0  0
 26 33  4  0  0  0  0
 33 34  4  0  0  0  0
 34 35  2  0  0  0  0
  2 36  4  0  0  0  0
 35 36  4  0  0  0  0
  1 37  1  0  0  0  0
 33 37  4  0  0  0  0
 36 37  4  0  0  0  0
  2 38  1  0  0  0  0
  4 39  1  0  0  0  0
  5 40  1  0  0  0  0
 10 41  1  0  0  0  0
 11 42  1  0  0  0  0
 13 43  1  0  0  0  0
 14 44  1  0  0  0  0
 16 45  1  0  0  0  0
 17 46  1  0  0  0  0
 22 47  1  0  0  0  0
 23 48  1  0  0  0  0
 28 49  1  0  0  0  0
 29 50  1  0  0  0  0
 31 51  1  0  0  0  0
 32 52  1  0  0  0  0
 34 53  1  0  0  0  0
 35 54  1  0  0  0  0
 56 57  4  0  0  0  0
 57 58  4  0  0  0  0
 58 59  2  0  0  0  0
 59 60  4  0  0  0  0
 55 61  1  0  0  0  0
 57 61  4  0  0  0  0
 60 61  4  0  0  0  0
 60 62  4  0  0  0  0
 62 63  1  0  0  0  0
 63 64  4  0  0  0  0
 64 65  4  0  0  0  0
 65 66  4  0  0  0  0
 66 67  4  0  0  0  0
 63 68  4  0  0  0  0
 67 68  4  0  0  0  0
 62 69  4  0  0  0  0
 69 70  4  0  0  0  0
 70 71  2  0  0  0  0
 55 72  1  0  0  0  0
 69 72  4  0  0  0  0
 71 73  4  0  0  0  0
 72 73  4  0  0  0  0
 73 74  4  0  0  0  0
 74 75  4  0  0  0  0
 75 76  4  0  0  0  0
 76 77  2  0  0  0  0
 77 78  4  0  0  0  0
 55 79  1  0  0  0  0
 75 79  4  0  0  0  0
 78 79  4  0  0  0  0
 78 80  4  0  0  0  0
 80 81  1  0  0  0  0
 81 82  4  0  0  0  0
 82 83  4  0  0  0  0
 83 84  4  0  0  0  0
 84 85  4  0  0  0  0
 81 86  4  0  0  0  0
 85 86  4  0  0  0  0
 80 87  4  0  0  0  0
 87 88  4  0  0  0  0
 88 89  2  0  0  0  0
 56 90  4  0  0  0  0
 89 90  4  0  0  0  0
 55 91  1  0  0  0  0
 87 91  4  0  0  0  0
 90 91  4  0  0  0  0
 56 92  1  0  0  0  0
 58 93  1  0  0  0  0
 59 94  1  0  0  0  0
 64 95  1  0  0  0  0
 65 96  1  0  0  0  0
 67 97  1  0  0  0  0
 68 98  1  0  0  0  0
 70 99  1  0  0  0  0
 71100  1  0  0  0  0
 76101  1  0  0  0  0
 77102  1  0  0  0  0
 82103  1  0  0  0  0
 83104  1  0  0  0  0
 85105  1  0  0  0  0
 86106  1  0  0  0  0
 88107  1  0  0  0  0
 89108  1  0  0  0  0
 20110  4  0  0  0  0
109110  3  0  0  0  0
109111  4  0  0  0  0
111112  3  0  0  0  0
113114  3  0  0  0  0
113115  4  0  0  0  0
 74116  4  0  0  0  0
115116  3  0  0  0  0
112118  4  0  0  0  0
118119  4  0  0  0  0
119120  4  0  0  0  0
120121  2  0  0  0  0
121122  4  0  0  0  0
117123  1  0  0  0  0
119123  4  0  0  0  0
122123  4  0  0  0  0
122124  4  0  0  0  0
124125  1  0  0  0  0
125126  4  0  0  0  0
126127  4  0  0  0  0
127128  4  0  0  0  0
128129  4  0  0  0  0
125130  4  0  0  0  0
129130  4  0  0  0  0
124131  4  0  0  0  0
131132  4  0  0  0  0
132133  2  0  0  0  0
117134  1  0  0  0  0
131134  4  0  0  0  0
133135  4  0  0  0  0
134135  4  0  0  0  0
114136  4  0  0  0  0
135136  4  0  0  0  0
136137  4  0  0  0  0
137138  4  0  0  0  0
138139  2  0  0  0  0
139140  4  0  0  0  0
117141  1  0  0  0  0
137141  4  0  0  0  0
140141  4  0  0  0  0
140142  4  0  0  0  0
142143  1  0  0  0  0
143144  4  0  0  0  0
144145  4  0  0  0  0
145146  4  0  0  0  0
146147  4  0  0  0  0
143148  4  0  0  0  0
147148  4  0  0  0  0
142149  4  0  0  0  0
149150  4  0  0  0  0
150151  2  0  0  0  0
118152  4  0  0  0  0
151152  4  0  0  0  0
117153  1  0  0  0  0
149153  4  0  0  0  0
152153  4  0  0  0  0
120154  1  0  0  0  0
121155  1  0  0  0  0
126156  1  0  0  0  0
127157  1  0  0  0  0
129158  1  0  0  0  0
130159  1  0  0  0  0
132160  1  0  0  0  0
133161  1  0  0  0  0
138162  1  0  0  0  0
139163  1  0  0  0  0
144164  1  0  0  0  0
145165  1  0  0  0  0
147166  1  0  0  0  0
148167  1  0  0  0  0
150168  1  0  0  0  0
151169  1  0  0  0  0
M  END
