336

C 54.774071 -0.171404 -0.340300
C 55.485863 1.179927 -0.648216
C 54.850490 2.371730 -0.913010
C 55.861348 3.343668 -1.121423
C 57.083004 2.711384 -0.978659
N 56.841183 1.393115 -0.681199
C 58.511144 3.389786 -1.103755
C 58.548230 4.808484 -1.535013
C 58.705601 5.842594 -0.603801
C 58.696606 7.173338 -1.033603
C 58.885247 8.247007 -0.030834
O 58.474957 9.451975 -0.480685
O 59.347500 8.139033 1.088704
C 58.530084 7.471167 -2.395066
C 58.379155 6.441208 -3.324360
C 58.388549 5.114858 -2.894166
C 59.645075 2.687085 -0.840253
C 60.953800 3.306895 -0.893049
C 61.859749 2.400847 -0.544863
N 59.844979 1.377030 -0.488535
C 61.182931 1.143137 -0.293503
C 61.864982 0.017865 0.050993
C 61.116489 -1.374381 0.224655
C 61.722958 -2.616195 0.246400
C 60.707811 -3.587452 0.416953
C 59.504303 -2.917254 0.481492
N 59.759915 -1.570100 0.348058
C 58.078711 -3.591291 0.653611
C 58.029968 -5.015487 1.054057
C 58.045942 -6.022307 0.079333
C 58.011231 -7.366673 0.449562
C 57.954557 -7.710862 1.800842
C 57.936273 -6.709630 2.784314
C 57.866440 -7.125330 4.204430
O 58.046859 -6.105174 5.061684
O 57.685794 -8.262554 4.606644
C 57.977024 -5.362910 2.409728
C 56.948551 -2.871609 0.434696
C 55.620408 -3.449650 0.551702
C 54.729064 -2.506084 0.268667
C 55.450544 -1.292667 -0.029395
N 56.779551 -1.561770 0.082756
H 53.690451 -0.191480 -0.373077
H 53.782224 2.525673 -0.947434
H 55.713765 4.388747 -1.347791
H 57.554220 0.686747 -0.516758
H 58.831009 5.592720 0.448081
H 58.650120 10.028102 0.291059
H 58.526705 8.501486 -2.738834
H 58.255708 6.662758 -4.380101
H 58.269832 4.301014 -3.609166
H 61.171692 4.327624 -1.149982
H 62.917011 2.586440 -0.492120
H 62.780792 -2.810836 0.148936
H 60.843004 -4.657541 0.475099
H 59.046697 -0.845962 0.294481
H 58.085029 -5.738513 -0.970678
H 58.027908 -8.137732 -0.315892
H 57.924733 -8.759405 2.087287
H 57.975099 -6.503884 5.949760
H 57.960270 -4.566196 3.151965
H 55.390547 -4.466345 0.816900
H 53.660431 -2.619256 0.265213
C 127.857642 0.030369 -0.383491
C 127.145849 -1.328597 -0.111243
C 127.781222 -2.524361 0.135045
C 126.770365 -3.496447 0.342769
C 125.548709 -2.861126 0.214190
N 125.790529 -1.536605 -0.054065
C 124.120569 -3.531291 0.377767
C 124.083483 -5.002212 0.565060
C 123.926112 -5.564503 1.837996
C 123.935107 -6.954581 1.990612
C 123.746466 -7.523672 3.345029
O 124.156756 -8.807204 3.427866
O 123.284213 -6.966864 4.322264
C 124.101628 -7.783643 0.870371
C 124.252558 -7.224354 -0.399117
C 124.243164 -5.838124 -0.549577
C 122.986637 -2.782298 0.330520
C 121.677913 -3.369409 0.536077
C 120.771964 -2.400222 0.482851
N 122.786734 -1.443061 0.115132
C 121.448782 -1.149825 0.197327
C 120.766731 0.017865 0.050993
C 121.515224 1.359202 -0.360495
C 120.908755 2.501101 -0.849005
C 121.923902 3.457067 -1.090993
C 123.127409 2.872017 -0.757757
N 122.871798 1.588288 -0.328025
C 124.553002 3.557448 -0.876644
C 124.601744 5.020772 -1.094300
C 124.585771 5.540353 -2.395764
C 124.620481 6.918472 -2.608309
C 124.677156 7.785663 -1.516336
C 124.695439 7.274762 -0.209177
C 124.765272 8.235376 0.916326
O 124.584854 7.655540 2.116073
O 124.945919 9.437598 0.817758
C 124.654688 5.892711 0.000356
C 125.683162 2.811214 -0.781767
C 127.011305 3.386501 -0.911641
C 127.902649 2.409754 -0.783615
C 127.181169 1.180651 -0.558832
N 125.852162 1.472083 -0.566669
H 128.941262 0.035268 -0.421615
H 128.849489 -2.678907 0.166655
H 126.917948 -4.542614 0.564051
H 125.077492 -0.824819 -0.193193
H 123.800704 -4.905925 2.695416
H 123.981593 -9.016923 4.367828
H 124.105008 -8.864403 0.978499
H 124.376004 -7.858670 -1.271651
H 124.361881 -5.388289 -1.535079
H 121.460020 -4.405872 0.719506
H 119.714702 -2.547961 0.606947
H 119.850921 2.638788 -1.017608
H 121.788709 4.457189 -1.475995
H 123.585016 0.905672 -0.080473
H 124.546684 4.851592 -3.237591
H 124.603805 7.308618 -3.622330
H 124.706979 8.859584 -1.684225
H 124.656614 8.382856 2.763112
H 124.671442 5.469654 1.003697
H 127.241166 4.422667 -1.085878
H 128.971281 2.511595 -0.833094
C 68.050105 0.018968 0.059483
C 66.841166 0.005513 0.051035
C 65.419637 0.014332 0.039052
C 64.207967 0.021771 0.049915
C 69.466709 0.012293 0.060016
C 70.687405 0.021771 0.049915
C 83.963169 0.018968 0.059483
C 82.754229 0.005513 0.051035
C 81.332700 0.014332 0.039052
C 80.121031 0.021771 0.049915
C 85.379773 0.012293 0.060016
C 86.600469 0.021771 0.049915
C 99.876232 0.018968 0.059483
C 98.667293 0.005513 0.051035
C 97.245764 0.014332 0.039052
C 96.034094 0.021771 0.049915
C 101.292836 0.012293 0.060016
C 102.513532 0.021771 0.049915
C 115.789296 0.018968 0.059483
C 114.580356 0.005513 0.051035
C 113.158827 0.014332 0.039052
C 111.947158 0.021771 0.049915
C 117.205900 0.012293 0.060016
C 118.426596 0.021771 0.049915
C 71.752179 -0.014911 -0.040984
C 72.547928 1.351618 -0.138430
C 72.047448 2.571126 -0.547150
C 73.086269 3.526035 -0.399913
C 74.189515 2.858101 0.088308
N 73.874940 1.524851 0.169188
C 75.575566 3.503338 0.495806
C 75.557209 4.894555 1.000226
C 75.936223 5.962412 0.176695
C 75.903582 7.271420 0.669085
C 76.308947 8.378111 -0.230616
O 76.280752 9.583013 0.375443
O 76.642696 8.294642 -1.397829
C 75.488844 7.511422 1.988024
C 75.108191 6.448824 2.808552
C 75.141614 5.145742 2.314212
C 76.712955 2.761864 0.450640
C 77.998219 3.286777 0.863495
C 78.907588 2.329001 0.717948
N 76.923795 1.466644 0.067661
C 78.247201 1.144644 0.207075
C 78.910634 -0.014911 -0.040984
C 78.115397 -1.272931 -0.584453
C 78.618427 -2.290889 -1.368805
C 77.580552 -3.241663 -1.545063
C 76.474616 -2.771064 -0.868483
N 76.788068 -1.538423 -0.352853
C 75.086113 -3.513433 -0.704803
C 75.094216 -4.993250 -0.750491
C 74.658105 -5.665577 -1.900601
C 74.677818 -7.058773 -1.955865
C 75.138585 -7.788308 -0.859208
C 75.580423 -7.125418 0.295548
C 76.061855 -7.947370 1.431140
O 76.452678 -7.214402 2.487230
O 76.118219 -9.165316 1.457188
C 75.558807 -5.727570 0.347500
C 73.950406 -2.798419 -0.492291
C 72.663297 -3.429807 -0.284563
C 71.754484 -2.477823 -0.102240
C 72.416493 -1.191555 -0.184436
N 73.741802 -1.449849 -0.411482
H 71.042194 2.759585 -0.892323
H 73.029222 4.583892 -0.607336
H 74.532487 0.779525 0.379288
H 76.257269 5.754164 -0.842542
H 76.573123 10.179441 -0.343966
H 75.457784 8.521897 2.384580
H 74.785666 6.627936 3.829550
H 74.847412 4.308529 2.944940
H 78.193745 4.277964 1.231197
H 79.952138 2.433435 0.948317
H 79.624957 -2.355400 -1.753483
H 77.639839 -4.173120 -2.087567
H 76.129516 -0.904132 0.089927
H 74.299845 -5.083445 -2.748041
H 74.334100 -7.567210 -2.851250
H 75.152764 -8.874163 -0.905735
H 76.744235 -7.867892 3.151248
H 75.897304 -5.188759 1.230036
H 72.466908 -4.486822 -0.269463
H 70.709388 -2.652365 0.077563
C 87.665243 -0.014911 -0.040984
C 88.460991 1.351618 -0.138430
C 87.960511 2.571126 -0.547150
C 88.999332 3.526035 -0.399913
C 90.102578 2.858101 0.088308
N 89.788004 1.524851 0.169188
C 91.488629 3.503338 0.495806
C 91.470272 4.894555 1.000226
C 91.849287 5.962412 0.176695
C 91.816645 7.271420 0.669085
C 92.222011 8.378111 -0.230616
O 92.193816 9.583013 0.375443
O 92.555759 8.294642 -1.397829
C 91.401908 7.511422 1.988024
C 91.021254 6.448824 2.808552
C 91.054677 5.145742 2.314212
C 92.626018 2.761864 0.450640
C 93.911283 3.286777 0.863495
C 94.820652 2.329001 0.717948
N 92.836858 1.466644 0.067661
C 94.160264 1.144644 0.207075
C 94.823697 -0.014911 -0.040984
C 94.028460 -1.272931 -0.584453
C 94.531490 -2.290889 -1.368805
C 93.493616 -3.241663 -1.545063
C 92.387679 -2.771064 -0.868483
N 92.701132 -1.538423 -0.352853
C 90.999176 -3.513433 -0.704803
C 91.007280 -4.993250 -0.750491
C 90.571169 -5.665577 -1.900601
C 90.590881 -7.058773 -1.955865
C 91.051648 -7.788308 -0.859208
C 91.493487 -7.125418 0.295548
C 91.974919 -7.947370 1.431140
O 92.365742 -7.214402 2.487230
O 92.031282 -9.165316 1.457188
C 91.471871 -5.727570 0.347500
C 89.863469 -2.798419 -0.492291
C 88.576361 -3.429807 -0.284563
C 87.667547 -2.477823 -0.102240
C 88.329556 -1.191555 -0.184436
N 89.654865 -1.449849 -0.411482
H 86.955258 2.759585 -0.892323
H 88.942286 4.583892 -0.607336
H 90.445550 0.779525 0.379288
H 92.170333 5.754164 -0.842542
H 92.486187 10.179441 -0.343966
H 91.370848 8.521897 2.384580
H 90.698729 6.627936 3.829550
H 90.760475 4.308529 2.944940
H 94.106809 4.277964 1.231197
H 95.865201 2.433435 0.948317
H 95.538020 -2.355400 -1.753483
H 93.552903 -4.173120 -2.087567
H 92.042579 -0.904132 0.089927
H 90.212908 -5.083445 -2.748041
H 90.247163 -7.567210 -2.851250
H 91.065828 -8.874163 -0.905735
H 92.657299 -7.867892 3.151248
H 91.810367 -5.188759 1.230036
H 88.379971 -4.486822 -0.269463
H 86.622452 -2.652365 0.077563
C 103.578306 -0.014911 -0.040984
C 104.374055 1.351618 -0.138430
C 103.873575 2.571126 -0.547150
C 104.912396 3.526035 -0.399913
C 106.015642 2.858101 0.088308
N 105.701067 1.524851 0.169188
C 107.401693 3.503338 0.495806
C 107.383336 4.894555 1.000226
C 107.762350 5.962412 0.176695
C 107.729709 7.271420 0.669085
C 108.135074 8.378111 -0.230616
O 108.106879 9.583013 0.375443
O 108.468823 8.294642 -1.397829
C 107.314971 7.511422 1.988024
C 106.934318 6.448824 2.808552
C 106.967741 5.145742 2.314212
C 108.539082 2.761864 0.450640
C 109.824346 3.286777 0.863495
C 110.733715 2.329001 0.717948
N 108.749922 1.466644 0.067661
C 110.073328 1.144644 0.207075
C 110.736761 -0.014911 -0.040984
C 109.941524 -1.272931 -0.584453
C 110.444554 -2.290889 -1.368805
C 109.406679 -3.241663 -1.545063
C 108.300743 -2.771064 -0.868483
N 108.614195 -1.538423 -0.352853
C 106.912240 -3.513433 -0.704803
C 106.920343 -4.993250 -0.750491
C 106.484232 -5.665577 -1.900601
C 106.503945 -7.058773 -1.955865
C 106.964712 -7.788308 -0.859208
C 107.406550 -7.125418 0.295548
C 107.887982 -7.947370 1.431140
O 108.278805 -7.214402 2.487230
O 107.944346 -9.165316 1.457188
C 107.384934 -5.727570 0.347500
C 105.776533 -2.798419 -0.492291
C 104.489424 -3.429807 -0.284563
C 103.580611 -2.477823 -0.102240
C 104.242620 -1.191555 -0.184436
N 105.567929 -1.449849 -0.411482
H 102.868321 2.759585 -0.892323
H 104.855349 4.583892 -0.607336
H 106.358614 0.779525 0.379288
H 108.083396 5.754164 -0.842542
H 108.399250 10.179441 -0.343966
H 107.283911 8.521897 2.384580
H 106.611792 6.627936 3.829550
H 106.673539 4.308529 2.944940
H 110.019872 4.277964 1.231197
H 111.778265 2.433435 0.948317
H 111.451084 -2.355400 -1.753483
H 109.465966 -4.173120 -2.087567
H 107.955643 -0.904132 0.089927
H 106.125972 -5.083445 -2.748041
H 106.160227 -7.567210 -2.851250
H 106.978891 -8.874163 -0.905735
H 108.570362 -7.867892 3.151248
H 107.723431 -5.188759 1.230036
H 104.293035 -4.486822 -0.269463
H 102.535515 -2.652365 0.077563
