554

C 88.440803 -0.613489 0.571188
C 89.131348 -1.253364 -0.673136
C 88.482255 -1.781671 -1.763023
C 89.478873 -2.256798 -2.652602
C 90.704040 -2.013988 -2.072272
N 90.481342 -1.363727 -0.882551
C 92.127286 -2.426669 -2.641862
C 92.182243 -3.306729 -3.841704
C 92.748768 -2.795889 -5.026014
C 92.809744 -3.584011 -6.167302
O 93.365128 -3.126959 -7.328987
C 92.289113 -4.869069 -6.149901
O 92.336356 -5.642140 -7.280692
C 91.702303 -5.376013 -4.992647
O 91.165965 -6.633204 -5.008068
C 91.649183 -4.607344 -3.833613
C 93.257354 -1.934449 -2.057798
C 94.577846 -2.392797 -2.437997
C 95.476006 -1.742378 -1.708589
N 93.440125 -1.007623 -1.065366
C 94.777585 -0.823656 -0.833118
C 95.440281 0.013424 0.009461
C 94.647561 1.057939 0.902809
C 95.138301 2.253842 1.389519
C 94.121991 2.850265 2.178086
C 93.030243 2.009905 2.135969
N 93.344243 0.944602 1.322880
C 91.645098 2.220873 2.873769
C 91.567588 3.251449 3.933230
C 92.040987 2.998881 5.231322
C 91.953559 3.995932 6.190599
O 92.403816 3.770782 7.460917
C 91.408940 5.233073 5.867252
O 91.329977 6.204314 6.831874
C 90.952452 5.492651 4.579445
O 90.437342 6.733656 4.323360
C 91.027062 4.508981 3.606600
C 90.553763 1.512674 2.476963
C 89.266862 1.613151 3.144472
C 88.404327 0.821245 2.514668
C 89.102634 0.201856 1.414199
N 90.396032 0.619539 1.455915
H 87.390107 -0.821999 0.737513
H 87.412631 -1.818793 -1.905013
H 89.317783 -2.735520 -3.606967
H 91.207615 -0.993563 -0.277961
H 93.130693 -1.775763 -5.014021
H 93.679086 -2.229716 -7.136337
H 92.822246 -5.079998 -7.908445
H 91.407454 -6.967900 -5.888756
H 91.187180 -4.998918 -2.930762
H 94.805901 -3.158186 -3.156830
H 96.535904 -1.897265 -1.772285
H 96.123182 2.657308 1.202192
H 94.183673 3.785916 2.714101
H 92.685952 0.219959 1.041400
H 92.470419 2.029809 5.469867
H 92.233898 4.611626 7.925414
H 90.914838 6.957586 6.355807
H 90.203863 6.749772 3.375792
H 90.671612 4.672836 2.591182
H 89.042578 2.207123 4.011882
H 87.370000 0.674312 2.770998
C 226.073070 -0.686691 0.476790
C 225.382525 0.359154 1.406300
C 226.031619 1.283201 2.189307
C 225.035000 2.026486 2.870941
C 223.809834 1.524876 2.491299
N 224.032531 0.534500 1.565323
C 222.386588 1.973794 3.032789
C 222.331630 2.916762 4.183848
C 221.765106 4.190960 3.983933
C 221.704129 5.100107 5.031371
O 221.148745 6.339002 4.877918
C 222.224761 4.763331 6.271637
O 222.177518 5.666059 7.301884
C 222.811570 3.516307 6.474515
O 223.347909 3.218257 7.695962
C 222.864690 2.585130 5.441498
C 221.256520 1.530660 2.410661
C 219.936028 1.784780 2.949230
C 219.037867 1.240263 2.137700
N 221.073748 0.800214 1.265944
C 219.736288 0.621078 1.029950
C 219.073592 0.013424 0.009461
C 219.866313 -0.591759 -1.224572
C 219.375573 -0.765417 -2.503991
C 220.391883 -1.380674 -3.277954
C 221.483630 -1.549096 -2.453568
N 221.169630 -1.026820 -1.219382
C 222.868776 -2.211143 -2.841573
C 222.946285 -2.980680 -4.103461
C 222.472886 -4.300779 -4.182012
C 222.560315 -4.981631 -5.386488
O 222.110058 -6.268006 -5.484680
C 223.104933 -4.360472 -6.504179
O 223.183896 -5.052925 -7.684989
C 223.561422 -3.048588 -6.434977
O 224.076531 -2.491610 -7.573155
C 223.486812 -2.351263 -5.240082
C 223.960110 -2.003141 -2.056885
C 225.247011 -2.624619 -2.320379
C 226.109546 -2.211795 -1.396613
C 225.411240 -1.300175 -0.522757
N 224.117842 -1.236593 -0.937674
H 227.123767 -0.899690 0.637327
H 227.101243 1.411479 2.260610
H 225.196090 2.831622 3.572184
H 223.306258 0.041101 1.056297
H 221.383180 4.433311 2.992940
H 220.834788 6.375792 3.960963
H 221.691627 6.413996 6.913724
H 223.106420 3.987892 8.239373
H 223.326693 1.613221 5.595973
H 219.707973 2.290432 3.869479
H 217.977969 1.263394 2.303567
H 218.390691 -0.483544 -2.848118
H 220.330200 -1.666877 -4.317590
H 221.827922 -0.934607 -0.447479
H 222.043454 -4.773069 -3.302838
H 222.279975 -6.508545 -6.414690
H 223.599035 -4.404317 -8.296024
H 224.310011 -1.569865 -7.352860
H 223.842262 -1.327023 -5.145984
H 225.471295 -3.316846 -3.111596
H 227.143874 -2.496634 -1.318121
C 97.927682 0.027649 0.019412
C 99.385908 0.005813 0.001538
C 100.519836 -0.014941 0.000047
C 101.881218 -0.027531 -0.002144
C 103.155437 -0.017224 -0.006909
C 104.343899 0.001574 -0.013065
C 105.696260 0.026358 0.002803
C 106.796527 0.027649 0.019412
C 116.205940 0.027649 0.019412
C 117.664167 0.005813 0.001538
C 118.798095 -0.014941 0.000047
C 120.159476 -0.027531 -0.002144
C 121.433695 -0.017224 -0.006909
C 122.622158 0.001574 -0.013065
C 123.974518 0.026358 0.002803
C 125.074786 0.027649 0.019412
C 134.484199 0.027649 0.019412
C 135.942425 0.005813 0.001538
C 137.076353 -0.014941 0.000047
C 138.437735 -0.027531 -0.002144
C 139.711954 -0.017224 -0.006909
C 140.900416 0.001574 -0.013065
C 142.252777 0.026358 0.002803
C 143.353044 0.027649 0.019412
C 152.762457 0.027649 0.019412
C 154.220683 0.005813 0.001538
C 155.354611 -0.014941 0.000047
C 156.715993 -0.027531 -0.002144
C 157.990212 -0.017224 -0.006909
C 159.178674 0.001574 -0.013065
C 160.531035 0.026358 0.002803
C 161.631302 0.027649 0.019412
C 171.040715 0.027649 0.019412
C 172.498941 0.005813 0.001538
C 173.632869 -0.014941 0.000047
C 174.994251 -0.027531 -0.002144
C 176.268470 -0.017224 -0.006909
C 177.456932 0.001574 -0.013065
C 178.809293 0.026358 0.002803
C 179.909561 0.027649 0.019412
C 189.318973 0.027649 0.019412
C 190.777200 0.005813 0.001538
C 191.911128 -0.014941 0.000047
C 193.272509 -0.027531 -0.002144
C 194.546728 -0.017224 -0.006909
C 195.735191 0.001574 -0.013065
C 197.087551 0.026358 0.002803
C 198.187819 0.027649 0.019412
C 207.597232 0.027649 0.019412
C 209.055458 0.005813 0.001538
C 210.189386 -0.014941 0.000047
C 211.550768 -0.027531 -0.002144
C 212.824987 -0.017224 -0.006909
C 214.013449 0.001574 -0.013065
C 215.365810 0.026358 0.002803
C 216.466077 0.027649 0.019412
C 107.997551 -0.008709 -0.006127
C 108.781985 -1.355381 0.287359
C 108.247447 -2.524832 0.791944
C 109.284865 -3.490335 0.814535
C 110.425248 -2.877880 0.335952
N 110.126002 -1.560778 0.085926
C 111.826658 -3.569895 0.095611
C 111.833967 -5.033547 -0.131953
C 112.160634 -5.914650 0.916309
C 112.168881 -7.292540 0.691414
O 112.498126 -8.153755 1.707118
C 111.847148 -7.789650 -0.572026
O 111.847712 -9.136268 -0.826374
C 111.521672 -6.911218 -1.612620
O 111.219781 -7.446997 -2.844174
C 111.510929 -5.536092 -1.403136
C 112.962390 -2.827003 0.026307
C 114.253716 -3.422010 -0.251495
C 115.160657 -2.453678 -0.291246
N 113.170265 -1.481491 0.157806
C 114.496582 -1.191989 -0.028796
C 115.165932 -0.008709 -0.006127
C 114.383333 1.338387 0.285526
C 114.917059 2.502183 0.806615
C 113.882268 3.470889 0.822863
C 112.743060 2.864954 0.326687
N 113.043937 1.552053 0.057919
C 111.336719 3.554622 0.099783
C 111.294560 5.034071 0.045661
C 111.571001 5.727017 -1.144334
C 111.509534 7.115040 -1.151221
O 111.767299 7.804801 -2.305162
C 111.181287 7.811230 0.010819
O 111.117919 9.180741 -0.019231
C 110.916021 7.127929 1.193043
O 110.597541 7.858917 2.308359
C 110.971331 5.741100 1.219962
C 110.204468 2.806921 0.004563
C 108.906703 3.405097 -0.244777
C 107.999497 2.436048 -0.281981
C 108.669613 1.172182 -0.047977
N 110.002017 1.457810 0.101425
H 107.219143 -2.678155 1.086554
H 109.202080 -4.522503 1.126000
H 110.797362 -0.847111 -0.185585
H 112.409775 -5.492779 1.889361
H 112.753625 -7.613662 2.478059
H 111.602356 -9.188792 -1.772729
H 111.039865 -6.689669 -3.434274
H 111.264570 -4.832681 -2.196872
H 114.456359 -4.465988 -0.412161
H 116.206632 -2.602771 -0.488478
H 115.941954 2.649807 1.118965
H 113.966734 4.498529 1.144950
H 112.372596 0.842099 -0.226203
H 111.821540 5.174410 -2.047501
H 111.623560 8.738917 -2.054707
H 110.861504 9.407914 0.899956
H 110.452281 7.211354 3.023292
H 110.763157 5.173094 2.123605
H 108.702948 4.450921 -0.393752
H 106.949190 2.585747 -0.453952
C 126.275810 -0.008709 -0.006127
C 127.060243 -1.355381 0.287359
C 126.525706 -2.524832 0.791944
C 127.563123 -3.490335 0.814535
C 128.703506 -2.877880 0.335952
N 128.404260 -1.560778 0.085926
C 130.104917 -3.569895 0.095611
C 130.112225 -5.033547 -0.131953
C 130.438893 -5.914650 0.916309
C 130.447139 -7.292540 0.691414
O 130.776385 -8.153755 1.707118
C 130.125406 -7.789650 -0.572026
O 130.125971 -9.136268 -0.826374
C 129.799930 -6.911218 -1.612620
O 129.498039 -7.446997 -2.844174
C 129.789187 -5.536092 -1.403136
C 131.240648 -2.827003 0.026307
C 132.531974 -3.422010 -0.251495
C 133.438916 -2.453678 -0.291246
N 131.448523 -1.481491 0.157806
C 132.774841 -1.191989 -0.028796
C 133.444191 -0.008709 -0.006127
C 132.661591 1.338387 0.285526
C 133.195317 2.502183 0.806615
C 132.160526 3.470889 0.822863
C 131.021318 2.864954 0.326687
N 131.322196 1.552053 0.057919
C 129.614978 3.554622 0.099783
C 129.572819 5.034071 0.045661
C 129.849260 5.727017 -1.144334
C 129.787792 7.115040 -1.151221
O 130.045558 7.804801 -2.305162
C 129.459545 7.811230 0.010819
O 129.396177 9.180741 -0.019231
C 129.194279 7.127929 1.193043
O 128.875799 7.858917 2.308359
C 129.249590 5.741100 1.219962
C 128.482726 2.806921 0.004563
C 127.184961 3.405097 -0.244777
C 126.277755 2.436048 -0.281981
C 126.947872 1.172182 -0.047977
N 128.280276 1.457810 0.101425
H 125.497401 -2.678155 1.086554
H 127.480338 -4.522503 1.126000
H 129.075621 -0.847111 -0.185585
H 130.688033 -5.492779 1.889361
H 131.031883 -7.613662 2.478059
H 129.880615 -9.188792 -1.772729
H 129.318124 -6.689669 -3.434274
H 129.542829 -4.832681 -2.196872
H 132.734617 -4.465988 -0.412161
H 134.484890 -2.602771 -0.488478
H 134.220212 2.649807 1.118965
H 132.244992 4.498529 1.144950
H 130.650854 0.842099 -0.226203
H 130.099798 5.174410 -2.047501
H 129.901818 8.738917 -2.054707
H 129.139763 9.407914 0.899956
H 128.730539 7.211354 3.023292
H 129.041415 5.173094 2.123605
H 126.981206 4.450921 -0.393752
H 125.227448 2.585747 -0.453952
C 144.554068 -0.008709 -0.006127
C 145.338501 -1.355381 0.287359
C 144.803964 -2.524832 0.791944
C 145.841381 -3.490335 0.814535
C 146.981764 -2.877880 0.335952
N 146.682519 -1.560778 0.085926
C 148.383175 -3.569895 0.095611
C 148.390484 -5.033547 -0.131953
C 148.717151 -5.914650 0.916309
C 148.725397 -7.292540 0.691414
O 149.054643 -8.153755 1.707118
C 148.403665 -7.789650 -0.572026
O 148.404229 -9.136268 -0.826374
C 148.078188 -6.911218 -1.612620
O 147.776297 -7.446997 -2.844174
C 148.067446 -5.536092 -1.403136
C 149.518907 -2.827003 0.026307
C 150.810233 -3.422010 -0.251495
C 151.717174 -2.453678 -0.291246
N 149.726782 -1.481491 0.157806
C 151.053099 -1.191989 -0.028796
C 151.722449 -0.008709 -0.006127
C 150.939849 1.338387 0.285526
C 151.473575 2.502183 0.806615
C 150.438785 3.470889 0.822863
C 149.299577 2.864954 0.326687
N 149.600454 1.552053 0.057919
C 147.893236 3.554622 0.099783
C 147.851077 5.034071 0.045661
C 148.127518 5.727017 -1.144334
C 148.066050 7.115040 -1.151221
O 148.323816 7.804801 -2.305162
C 147.737803 7.811230 0.010819
O 147.674436 9.180741 -0.019231
C 147.472537 7.127929 1.193043
O 147.154057 7.858917 2.308359
C 147.527848 5.741100 1.219962
C 146.760984 2.806921 0.004563
C 145.463220 3.405097 -0.244777
C 144.556013 2.436048 -0.281981
C 145.226130 1.172182 -0.047977
N 146.558534 1.457810 0.101425
H 143.775660 -2.678155 1.086554
H 145.758597 -4.522503 1.126000
H 147.353879 -0.847111 -0.185585
H 148.966291 -5.492779 1.889361
H 149.310142 -7.613662 2.478059
H 148.158873 -9.188792 -1.772729
H 147.596382 -6.689669 -3.434274
H 147.821087 -4.832681 -2.196872
H 151.012875 -4.465988 -0.412161
H 152.763149 -2.602771 -0.488478
H 152.498471 2.649807 1.118965
H 150.523250 4.498529 1.144950
H 148.929112 0.842099 -0.226203
H 148.378057 5.174410 -2.047501
H 148.180077 8.738917 -2.054707
H 147.418021 9.407914 0.899956
H 147.008797 7.211354 3.023292
H 147.319673 5.173094 2.123605
H 145.259465 4.450921 -0.393752
H 143.505707 2.585747 -0.453952
C 162.832326 -0.008709 -0.006127
C 163.616759 -1.355381 0.287359
C 163.082222 -2.524832 0.791944
C 164.119639 -3.490335 0.814535
C 165.260023 -2.877880 0.335952
N 164.960777 -1.560778 0.085926
C 166.661433 -3.569895 0.095611
C 166.668742 -5.033547 -0.131953
C 166.995409 -5.914650 0.916309
C 167.003656 -7.292540 0.691414
O 167.332901 -8.153755 1.707118
C 166.681923 -7.789650 -0.572026
O 166.682487 -9.136268 -0.826374
C 166.356447 -6.911218 -1.612620
O 166.054555 -7.446997 -2.844174
C 166.345704 -5.536092 -1.403136
C 167.797165 -2.827003 0.026307
C 169.088491 -3.422010 -0.251495
C 169.995432 -2.453678 -0.291246
N 168.005040 -1.481491 0.157806
C 169.331357 -1.191989 -0.028796
C 170.000707 -0.008709 -0.006127
C 169.218107 1.338387 0.285526
C 169.751833 2.502183 0.806615
C 168.717043 3.470889 0.822863
C 167.577835 2.864954 0.326687
N 167.878712 1.552053 0.057919
C 166.171494 3.554622 0.099783
C 166.129335 5.034071 0.045661
C 166.405776 5.727017 -1.144334
C 166.344309 7.115040 -1.151221
O 166.602074 7.804801 -2.305162
C 166.016061 7.811230 0.010819
O 165.952694 9.180741 -0.019231
C 165.750795 7.127929 1.193043
O 165.432315 7.858917 2.308359
C 165.806106 5.741100 1.219962
C 165.039242 2.806921 0.004563
C 163.741478 3.405097 -0.244777
C 162.834272 2.436048 -0.281981
C 163.504388 1.172182 -0.047977
N 164.836792 1.457810 0.101425
H 162.053918 -2.678155 1.086554
H 164.036855 -4.522503 1.126000
H 165.632137 -0.847111 -0.185585
H 167.244550 -5.492779 1.889361
H 167.588400 -7.613662 2.478059
H 166.437131 -9.188792 -1.772729
H 165.874640 -6.689669 -3.434274
H 166.099345 -4.832681 -2.196872
H 169.291134 -4.465988 -0.412161
H 171.041407 -2.602771 -0.488478
H 170.776729 2.649807 1.118965
H 168.801508 4.498529 1.144950
H 167.207371 0.842099 -0.226203
H 166.656315 5.174410 -2.047501
H 166.458335 8.738917 -2.054707
H 165.696279 9.407914 0.899956
H 165.287056 7.211354 3.023292
H 165.597932 5.173094 2.123605
H 163.537723 4.450921 -0.393752
H 161.783965 2.585747 -0.453952
C 181.110585 -0.008709 -0.006127
C 181.895018 -1.355381 0.287359
C 181.360480 -2.524832 0.791944
C 182.397898 -3.490335 0.814535
C 183.538281 -2.877880 0.335952
N 183.239035 -1.560778 0.085926
C 184.939691 -3.569895 0.095611
C 184.947000 -5.033547 -0.131953
C 185.273668 -5.914650 0.916309
C 185.281914 -7.292540 0.691414
O 185.611160 -8.153755 1.707118
C 184.960181 -7.789650 -0.572026
O 184.960745 -9.136268 -0.826374
C 184.634705 -6.911218 -1.612620
O 184.332814 -7.446997 -2.844174
C 184.623962 -5.536092 -1.403136
C 186.075423 -2.827003 0.026307
C 187.366749 -3.422010 -0.251495
C 188.273691 -2.453678 -0.291246
N 186.283298 -1.481491 0.157806
C 187.609616 -1.191989 -0.028796
C 188.278966 -0.008709 -0.006127
C 187.496366 1.338387 0.285526
C 188.030092 2.502183 0.806615
C 186.995301 3.470889 0.822863
C 185.856093 2.864954 0.326687
N 186.156971 1.552053 0.057919
C 184.449753 3.554622 0.099783
C 184.407593 5.034071 0.045661
C 184.684035 5.727017 -1.144334
C 184.622567 7.115040 -1.151221
O 184.880332 7.804801 -2.305162
C 184.294320 7.811230 0.010819
O 184.230952 9.180741 -0.019231
C 184.029054 7.127929 1.193043
O 183.710574 7.858917 2.308359
C 184.084365 5.741100 1.219962
C 183.317501 2.806921 0.004563
C 182.019736 3.405097 -0.244777
C 181.112530 2.436048 -0.281981
C 181.782647 1.172182 -0.047977
N 183.115051 1.457810 0.101425
H 180.332176 -2.678155 1.086554
H 182.315113 -4.522503 1.126000
H 183.910395 -0.847111 -0.185585
H 185.522808 -5.492779 1.889361
H 185.866658 -7.613662 2.478059
H 184.715390 -9.188792 -1.772729
H 184.152898 -6.689669 -3.434274
H 184.377604 -4.832681 -2.196872
H 187.569392 -4.465988 -0.412161
H 189.319665 -2.602771 -0.488478
H 189.054987 2.649807 1.118965
H 187.079767 4.498529 1.144950
H 185.485629 0.842099 -0.226203
H 184.934573 5.174410 -2.047501
H 184.736593 8.738917 -2.054707
H 183.974537 9.407914 0.899956
H 183.565314 7.211354 3.023292
H 183.876190 5.173094 2.123605
H 181.815981 4.450921 -0.393752
H 180.062223 2.585747 -0.453952
C 199.388843 -0.008709 -0.006127
C 200.173276 -1.355381 0.287359
C 199.638739 -2.524832 0.791944
C 200.676156 -3.490335 0.814535
C 201.816539 -2.877880 0.335952
N 201.517294 -1.560778 0.085926
C 203.217950 -3.569895 0.095611
C 203.225258 -5.033547 -0.131953
C 203.551926 -5.914650 0.916309
C 203.560172 -7.292540 0.691414
O 203.889418 -8.153755 1.707118
C 203.238440 -7.789650 -0.572026
O 203.239004 -9.136268 -0.826374
C 202.912963 -6.911218 -1.612620
O 202.611072 -7.446997 -2.844174
C 202.902220 -5.536092 -1.403136
C 204.353682 -2.827003 0.026307
C 205.645007 -3.422010 -0.251495
C 206.551949 -2.453678 -0.291246
N 204.561556 -1.481491 0.157806
C 205.887874 -1.191989 -0.028796
C 206.557224 -0.008709 -0.006127
C 205.774624 1.338387 0.285526
C 206.308350 2.502183 0.806615
C 205.273559 3.470889 0.822863
C 204.134351 2.864954 0.326687
N 204.435229 1.552053 0.057919
C 202.728011 3.554622 0.099783
C 202.685852 5.034071 0.045661
C 202.962293 5.727017 -1.144334
C 202.900825 7.115040 -1.151221
O 203.158591 7.804801 -2.305162
C 202.572578 7.811230 0.010819
O 202.509210 9.180741 -0.019231
C 202.307312 7.127929 1.193043
O 201.988832 7.858917 2.308359
C 202.362623 5.741100 1.219962
C 201.595759 2.806921 0.004563
C 200.297994 3.405097 -0.244777
C 199.390788 2.436048 -0.281981
C 200.060905 1.172182 -0.047977
N 201.393309 1.457810 0.101425
H 198.610435 -2.678155 1.086554
H 200.593371 -4.522503 1.126000
H 202.188654 -0.847111 -0.185585
H 203.801066 -5.492779 1.889361
H 204.144917 -7.613662 2.478059
H 202.993648 -9.188792 -1.772729
H 202.431157 -6.689669 -3.434274
H 202.655862 -4.832681 -2.196872
H 205.847650 -4.465988 -0.412161
H 207.597924 -2.602771 -0.488478
H 207.333245 2.649807 1.118965
H 205.358025 4.498529 1.144950
H 203.763887 0.842099 -0.226203
H 203.212831 5.174410 -2.047501
H 203.014852 8.738917 -2.054707
H 202.252796 9.407914 0.899956
H 201.843572 7.211354 3.023292
H 202.154448 5.173094 2.123605
H 200.094239 4.450921 -0.393752
H 198.340482 2.585747 -0.453952
