 xtb: 6.5.1 (b24c23e)
          07302209383D

252291  0     0  0            999 V2000
   57.7827   -0.0433    0.0020 Cu  0  0  0  0  0  0  0  0  0  0  0  0
   54.3784   -0.1090    0.0248 C   0  0  0  0  0  0  0  0  0  0  0  0
   55.0114   -0.1478    1.2577 C   0  0  0  0  0  0  0  0  0  0  0  0
   54.3338   -0.1746    2.5225 C   0  0  0  0  0  0  0  0  0  0  0  0
   55.2903   -0.1875    3.4831 C   0  0  0  0  0  0  0  0  0  0  0  0
   56.5628   -0.1795    2.8127 C   0  0  0  0  0  0  0  0  0  0  0  0
   56.3619   -0.1471    1.4628 N   0  0  0  0  0  0  0  0  0  0  0  0
   57.8061   -0.1736    3.4485 C   0  0  0  0  0  0  0  0  0  0  0  0
   59.0405   -0.1267    2.7964 C   0  0  0  0  0  0  0  0  0  0  0  0
   60.3180   -0.1778    3.4510 C   0  0  0  0  0  0  0  0  0  0  0  0
   61.2648   -0.1283    2.4808 C   0  0  0  0  0  0  0  0  0  0  0  0
   59.2287   -0.0599    1.4429 N   0  0  0  0  0  0  0  0  0  0  0  0
   60.5746   -0.0537    1.2272 C   0  0  0  0  0  0  0  0  0  0  0  0
   61.2071    0.0069   -0.0215 C   0  0  0  0  0  0  0  0  0  0  0  0
   60.5564    0.0563   -1.2613 C   0  0  0  0  0  0  0  0  0  0  0  0
   61.2278    0.0902   -2.5267 C   0  0  0  0  0  0  0  0  0  0  0  0
   60.2665    0.1195   -3.4836 C   0  0  0  0  0  0  0  0  0  0  0  0
   58.9989    0.1111   -2.8082 C   0  0  0  0  0  0  0  0  0  0  0  0
   57.7548    0.1153   -3.4433 C   0  0  0  0  0  0  0  0  0  0  0  0
   57.7438    0.1922   -4.9246 C   0  0  0  0  0  0  0  0  0  0  0  0
   57.2068   -0.8501   -5.6846 C   0  0  0  0  0  0  0  0  0  0  0  0
   57.1985   -0.7748   -7.0652 C   0  0  0  0  0  0  0  0  0  0  0  0
   57.7225    0.3462   -7.7120 C   0  0  0  0  0  0  0  0  0  0  0  0
   57.6876    0.3827   -9.1933 C   0  0  0  0  0  0  0  0  0  0  0  0
   58.2153    1.5003   -9.7158 O   0  0  0  0  0  0  0  0  0  0  0  0
   57.2349   -0.4937   -9.8853 O   0  0  0  0  0  0  0  0  0  0  0  0
   58.2582    1.3905   -6.9576 C   0  0  0  0  0  0  0  0  0  0  0  0
   58.2699    1.3105   -5.5761 C   0  0  0  0  0  0  0  0  0  0  0  0
   56.5211    0.0542   -2.7917 C   0  0  0  0  0  0  0  0  0  0  0  0
   55.2387    0.0989   -3.4414 C   0  0  0  0  0  0  0  0  0  0  0  0
   54.2966    0.0311   -2.4689 C   0  0  0  0  0  0  0  0  0  0  0  0
   54.9932   -0.0450   -1.2164 C   0  0  0  0  0  0  0  0  0  0  0  0
   56.3404   -0.0249   -1.4408 N   0  0  0  0  0  0  0  0  0  0  0  0
   59.2074    0.0642   -1.4569 N   0  0  0  0  0  0  0  0  0  0  0  0
   57.8183   -0.2187    4.9310 C   0  0  0  0  0  0  0  0  0  0  0  0
   57.2915   -1.3194    5.6117 C   0  0  0  0  0  0  0  0  0  0  0  0
   57.3073   -1.3581    6.9938 C   0  0  0  0  0  0  0  0  0  0  0  0
   57.8451   -0.2949    7.7215 C   0  0  0  0  0  0  0  0  0  0  0  0
   57.8386   -0.3818    9.2013 C   0  0  0  0  0  0  0  0  0  0  0  0
   58.3749    0.6901    9.8045 O   0  0  0  0  0  0  0  0  0  0  0  0
   57.3987   -1.3133    9.8263 O   0  0  0  0  0  0  0  0  0  0  0  0
   58.3697    0.8079    7.0467 C   0  0  0  0  0  0  0  0  0  0  0  0
   58.3576    0.8420    5.6633 C   0  0  0  0  0  0  0  0  0  0  0  0
   53.2933   -0.1169    0.0324 H   0  0  0  0  0  0  0  0  0  0  0  0
   53.2621   -0.1749    2.6449 H   0  0  0  0  0  0  0  0  0  0  0  0
   55.1542   -0.1901    4.5525 H   0  0  0  0  0  0  0  0  0  0  0  0
   60.4667   -0.2565    4.5157 H   0  0  0  0  0  0  0  0  0  0  0  0
   62.3372   -0.1463    2.5923 H   0  0  0  0  0  0  0  0  0  0  0  0
   62.2984    0.0850   -2.6552 H   0  0  0  0  0  0  0  0  0  0  0  0
   60.3994    0.1311   -4.5533 H   0  0  0  0  0  0  0  0  0  0  0  0
   56.8105   -1.7267   -5.1848 H   0  0  0  0  0  0  0  0  0  0  0  0
   56.7880   -1.5823   -7.6615 H   0  0  0  0  0  0  0  0  0  0  0  0
   58.1536    1.4459  -10.6832 H   0  0  0  0  0  0  0  0  0  0  0  0
   58.6631    2.2639   -7.4551 H   0  0  0  0  0  0  0  0  0  0  0  0
   58.6753    2.1273   -4.9895 H   0  0  0  0  0  0  0  0  0  0  0  0
   55.0863    0.1841   -4.5052 H   0  0  0  0  0  0  0  0  0  0  0  0
   53.2233    0.0387   -2.5749 H   0  0  0  0  0  0  0  0  0  0  0  0
   56.8849   -2.1515    5.0483 H   0  0  0  0  0  0  0  0  0  0  0  0
   56.9056   -2.2119    7.5285 H   0  0  0  0  0  0  0  0  0  0  0  0
   58.3328    0.5552   10.7651 H   0  0  0  0  0  0  0  0  0  0  0  0
   58.7850    1.6369    7.6074 H   0  0  0  0  0  0  0  0  0  0  0  0
   58.7550    1.7038    5.1389 H   0  0  0  0  0  0  0  0  0  0  0  0
   90.5086   -0.0229   -0.0639 Cu  0  0  0  0  0  0  0  0  0  0  0  0
   93.9129   -0.0982   -0.1008 C   0  0  0  0  0  0  0  0  0  0  0  0
   93.2779    0.0130   -1.3283 C   0  0  0  0  0  0  0  0  0  0  0  0
   93.9535    0.1305   -2.5891 C   0  0  0  0  0  0  0  0  0  0  0  0
   92.9955    0.2442   -3.5415 C   0  0  0  0  0  0  0  0  0  0  0  0
   91.7241    0.1881   -2.8714 C   0  0  0  0  0  0  0  0  0  0  0  0
   91.9272    0.0526   -1.5282 N   0  0  0  0  0  0  0  0  0  0  0  0
   90.4807    0.2962   -3.4975 C   0  0  0  0  0  0  0  0  0  0  0  0
   89.2476    0.2849   -2.8415 C   0  0  0  0  0  0  0  0  0  0  0  0
   87.9693    0.3485   -3.4931 C   0  0  0  0  0  0  0  0  0  0  0  0
   87.0238    0.2788   -2.5228 C   0  0  0  0  0  0  0  0  0  0  0  0
   89.0609    0.1687   -1.4910 N   0  0  0  0  0  0  0  0  0  0  0  0
   87.7155    0.1636   -1.2732 C   0  0  0  0  0  0  0  0  0  0  0  0
   87.0841    0.0322   -0.0290 C   0  0  0  0  0  0  0  0  0  0  0  0
   87.7365   -0.1126    1.2026 C   0  0  0  0  0  0  0  0  0  0  0  0
   87.0672   -0.2666    2.4602 C   0  0  0  0  0  0  0  0  0  0  0  0
   88.0299   -0.3592    3.4116 C   0  0  0  0  0  0  0  0  0  0  0  0
   89.2961   -0.2570    2.7414 C   0  0  0  0  0  0  0  0  0  0  0  0
   90.5411   -0.3163    3.3721 C   0  0  0  0  0  0  0  0  0  0  0  0
   90.5532   -0.4232    4.8515 C   0  0  0  0  0  0  0  0  0  0  0  0
   91.1067   -1.5427    5.4782 C   0  0  0  0  0  0  0  0  0  0  0  0
   91.1174   -1.6360    6.8577 C   0  0  0  0  0  0  0  0  0  0  0  0
   90.5797   -0.6097    7.6368 C   0  0  0  0  0  0  0  0  0  0  0  0
   90.6188   -0.7535    9.1116 C   0  0  0  0  0  0  0  0  0  0  0  0
   90.0794    0.2856    9.7670 O   0  0  0  0  0  0  0  0  0  0  0  0
   91.0848   -1.7017    9.6907 O   0  0  0  0  0  0  0  0  0  0  0  0
   90.0268    0.5108    7.0159 C   0  0  0  0  0  0  0  0  0  0  0  0
   90.0125    0.5995    5.6350 C   0  0  0  0  0  0  0  0  0  0  0  0
   91.7742   -0.2797    2.7178 C   0  0  0  0  0  0  0  0  0  0  0  0
   93.0575   -0.3070    3.3667 C   0  0  0  0  0  0  0  0  0  0  0  0
   93.9983   -0.2532    2.3920 C   0  0  0  0  0  0  0  0  0  0  0  0
   93.3000   -0.1802    1.1403 C   0  0  0  0  0  0  0  0  0  0  0  0
   91.9530   -0.1912    1.3671 N   0  0  0  0  0  0  0  0  0  0  0  0
   89.0856   -0.1202    1.3965 N   0  0  0  0  0  0  0  0  0  0  0  0
   90.4679    0.4285   -4.9750 C   0  0  0  0  0  0  0  0  0  0  0  0
   90.9657   -0.5995   -5.7798 C   0  0  0  0  0  0  0  0  0  0  0  0
   90.9489   -0.4784   -7.1570 C   0  0  0  0  0  0  0  0  0  0  0  0
   90.4394    0.6756   -7.7555 C   0  0  0  0  0  0  0  0  0  0  0  0
   90.4433    0.7590   -9.2354 C   0  0  0  0  0  0  0  0  0  0  0  0
   89.9383    1.9080   -9.7100 O   0  0  0  0  0  0  0  0  0  0  0  0
   90.8559   -0.1068   -9.9647 O   0  0  0  0  0  0  0  0  0  0  0  0
   89.9447    1.7067   -6.9563 C   0  0  0  0  0  0  0  0  0  0  0  0
   89.9574    1.5806   -5.5781 C   0  0  0  0  0  0  0  0  0  0  0  0
   94.9979   -0.1097   -0.1113 H   0  0  0  0  0  0  0  0  0  0  0  0
   95.0248    0.1322   -2.7137 H   0  0  0  0  0  0  0  0  0  0  0  0
   93.1301    0.3687   -4.6039 H   0  0  0  0  0  0  0  0  0  0  0  0
   87.8188    0.4221   -4.5580 H   0  0  0  0  0  0  0  0  0  0  0  0
   85.9512    0.2945   -2.6329 H   0  0  0  0  0  0  0  0  0  0  0  0
   85.9970   -0.3024    2.5870 H   0  0  0  0  0  0  0  0  0  0  0  0
   87.8994   -0.4984    4.4726 H   0  0  0  0  0  0  0  0  0  0  0  0
   91.5140   -2.3460    4.8749 H   0  0  0  0  0  0  0  0  0  0  0  0
   91.5408   -2.5042    7.3507 H   0  0  0  0  0  0  0  0  0  0  0  0
   90.1445    0.1149   10.7206 H   0  0  0  0  0  0  0  0  0  0  0  0
   89.6110    1.3111    7.6165 H   0  0  0  0  0  0  0  0  0  0  0  0
   89.5935    1.4755    5.1526 H   0  0  0  0  0  0  0  0  0  0  0  0
   93.2113   -0.3503    4.4328 H   0  0  0  0  0  0  0  0  0  0  0  0
   95.0717   -0.2543    2.4969 H   0  0  0  0  0  0  0  0  0  0  0  0
   91.3508   -1.5012   -5.3171 H   0  0  0  0  0  0  0  0  0  0  0  0
   91.3277   -1.2751   -7.7878 H   0  0  0  0  0  0  0  0  0  0  0  0
   89.9780    1.8835  -10.6799 H   0  0  0  0  0  0  0  0  0  0  0  0
   89.5519    2.6057   -7.4165 H   0  0  0  0  0  0  0  0  0  0  0  0
   89.5830    2.3864   -4.9568 H   0  0  0  0  0  0  0  0  0  0  0  0
   62.6254    0.0100   -0.0304 C   0  0  0  0  0  0  0  0  0  0  0  0
   63.8394    0.0136   -0.0346 C   0  0  0  0  0  0  0  0  0  0  0  0
   73.5382    0.0198   -0.0116 C   0  0  0  0  0  0  0  0  0  0  0  0
   74.7558    0.0229   -0.0044 C   0  0  0  0  0  0  0  0  0  0  0  0
   84.4522    0.0423   -0.0087 C   0  0  0  0  0  0  0  0  0  0  0  0
   85.6664    0.0364   -0.0174 C   0  0  0  0  0  0  0  0  0  0  0  0
   68.6883    0.0169   -0.0282 Cu  0  0  0  0  0  0  0  0  0  0  0  0
   65.2571    0.0147   -0.0352 C   0  0  0  0  0  0  0  0  0  0  0  0
   65.9012   -1.2301   -0.0194 C   0  0  0  0  0  0  0  0  0  0  0  0
   65.2265   -2.4932   -0.0710 C   0  0  0  0  0  0  0  0  0  0  0  0
   66.1825   -3.4543   -0.0122 C   0  0  0  0  0  0  0  0  0  0  0  0
   67.4481   -2.7831    0.0896 C   0  0  0  0  0  0  0  0  0  0  0  0
   67.2458   -1.4307    0.0683 N   0  0  0  0  0  0  0  0  0  0  0  0
   68.6881   -3.4172    0.1995 C   0  0  0  0  0  0  0  0  0  0  0  0
   69.9249   -2.7689    0.2375 C   0  0  0  0  0  0  0  0  0  0  0  0
   71.1843   -3.4182    0.4649 C   0  0  0  0  0  0  0  0  0  0  0  0
   72.1403   -2.4562    0.4161 C   0  0  0  0  0  0  0  0  0  0  0  0
   70.1326   -1.4257    0.0726 N   0  0  0  0  0  0  0  0  0  0  0  0
   71.4751   -1.2152    0.1577 C   0  0  0  0  0  0  0  0  0  0  0  0
   72.1283    0.0185   -0.0178 C   0  0  0  0  0  0  0  0  0  0  0  0
   71.4746    1.2511   -0.1987 C   0  0  0  0  0  0  0  0  0  0  0  0
   72.1401    2.4924   -0.4546 C   0  0  0  0  0  0  0  0  0  0  0  0
   71.1834    3.4535   -0.5100 C   0  0  0  0  0  0  0  0  0  0  0  0
   69.9233    2.8035   -0.2888 C   0  0  0  0  0  0  0  0  0  0  0  0
   68.6855    3.4508   -0.2573 C   0  0  0  0  0  0  0  0  0  0  0  0
   68.6917    4.9309   -0.3348 C   0  0  0  0  0  0  0  0  0  0  0  0
   69.3619    5.6819    0.6353 C   0  0  0  0  0  0  0  0  0  0  0  0
   69.3652    7.0627    0.5714 C   0  0  0  0  0  0  0  0  0  0  0  0
   68.7020    7.7204   -0.4665 C   0  0  0  0  0  0  0  0  0  0  0  0
   68.7346    9.2020   -0.4922 C   0  0  0  0  0  0  0  0  0  0  0  0
   68.0632    9.7369   -1.5235 O   0  0  0  0  0  0  0  0  0  0  0  0
   69.3020    9.8843    0.3229 O   0  0  0  0  0  0  0  0  0  0  0  0
   68.0348    6.9760   -1.4399 C   0  0  0  0  0  0  0  0  0  0  0  0
   68.0295    5.5938   -1.3715 C   0  0  0  0  0  0  0  0  0  0  0  0
   67.4454    2.8153   -0.1533 C   0  0  0  0  0  0  0  0  0  0  0  0
   66.1787    3.4848   -0.0547 C   0  0  0  0  0  0  0  0  0  0  0  0
   65.2235    2.5225    0.0003 C   0  0  0  0  0  0  0  0  0  0  0  0
   65.8998    1.2603   -0.0497 C   0  0  0  0  0  0  0  0  0  0  0  0
   67.2446    1.4627   -0.1337 N   0  0  0  0  0  0  0  0  0  0  0  0
   70.1313    1.4605   -0.1225 N   0  0  0  0  0  0  0  0  0  0  0  0
   68.6944   -4.8975    0.2784 C   0  0  0  0  0  0  0  0  0  0  0  0
   68.0389   -5.5590    1.3204 C   0  0  0  0  0  0  0  0  0  0  0  0
   68.0475   -6.9401    1.3851 C   0  0  0  0  0  0  0  0  0  0  0  0
   68.7073   -7.6866    0.4069 C   0  0  0  0  0  0  0  0  0  0  0  0
   68.6850   -9.1650    0.5170 C   0  0  0  0  0  0  0  0  0  0  0  0
   69.3560   -9.7863   -0.4646 O   0  0  0  0  0  0  0  0  0  0  0  0
   68.1250   -9.7733    1.3933 O   0  0  0  0  0  0  0  0  0  0  0  0
   69.3627   -7.0314   -0.6361 C   0  0  0  0  0  0  0  0  0  0  0  0
   69.3572   -5.6489   -0.6958 C   0  0  0  0  0  0  0  0  0  0  0  0
   64.1584   -2.6175   -0.1520 H   0  0  0  0  0  0  0  0  0  0  0  0
   66.0475   -4.5232   -0.0473 H   0  0  0  0  0  0  0  0  0  0  0  0
   71.3146   -4.4705    0.6587 H   0  0  0  0  0  0  0  0  0  0  0  0
   73.2025   -2.5687    0.5571 H   0  0  0  0  0  0  0  0  0  0  0  0
   73.2030    2.6059   -0.5894 H   0  0  0  0  0  0  0  0  0  0  0  0
   71.3147    4.5056   -0.7044 H   0  0  0  0  0  0  0  0  0  0  0  0
   69.8662    5.1735    1.4493 H   0  0  0  0  0  0  0  0  0  0  0  0
   69.8787    7.6508    1.3242 H   0  0  0  0  0  0  0  0  0  0  0  0
   68.1328   10.7037   -1.4657 H   0  0  0  0  0  0  0  0  0  0  0  0
   67.5226    7.4821   -2.2497 H   0  0  0  0  0  0  0  0  0  0  0  0
   67.5227    5.0159   -2.1362 H   0  0  0  0  0  0  0  0  0  0  0  0
   66.0416    4.5534   -0.0183 H   0  0  0  0  0  0  0  0  0  0  0  0
   64.1551    2.6454    0.0786 H   0  0  0  0  0  0  0  0  0  0  0  0
   67.5373   -4.9812    2.0884 H   0  0  0  0  0  0  0  0  0  0  0  0
   67.5452   -7.4598    2.1937 H   0  0  0  0  0  0  0  0  0  0  0  0
   69.2955  -10.7446   -0.3197 H   0  0  0  0  0  0  0  0  0  0  0  0
   69.8735   -7.6066   -1.3992 H   0  0  0  0  0  0  0  0  0  0  0  0
   69.8560   -5.1399   -1.5129 H   0  0  0  0  0  0  0  0  0  0  0  0
   79.6042    0.0333    0.0032 Cu  0  0  0  0  0  0  0  0  0  0  0  0
   76.1656    0.0246    0.0006 C   0  0  0  0  0  0  0  0  0  0  0  0
   76.8219   -1.2187   -0.0539 C   0  0  0  0  0  0  0  0  0  0  0  0
   76.1611   -2.4809   -0.1927 C   0  0  0  0  0  0  0  0  0  0  0  0
   77.1198   -3.4403   -0.1437 C   0  0  0  0  0  0  0  0  0  0  0  0
   78.3764   -2.7685    0.0263 C   0  0  0  0  0  0  0  0  0  0  0  0
   78.1645   -1.4160    0.0563 N   0  0  0  0  0  0  0  0  0  0  0  0
   79.6148   -3.4046    0.1422 C   0  0  0  0  0  0  0  0  0  0  0  0
   80.8510   -2.7562    0.2048 C   0  0  0  0  0  0  0  0  0  0  0  0
   82.1162   -3.4062    0.4027 C   0  0  0  0  0  0  0  0  0  0  0  0
   83.0695   -2.4411    0.3624 C   0  0  0  0  0  0  0  0  0  0  0  0
   81.0501   -1.4096    0.0736 N   0  0  0  0  0  0  0  0  0  0  0  0
   82.3934   -1.1957    0.1510 C   0  0  0  0  0  0  0  0  0  0  0  0
   83.0353    0.0414   -0.0020 C   0  0  0  0  0  0  0  0  0  0  0  0
   82.3880    1.2758   -0.1520 C   0  0  0  0  0  0  0  0  0  0  0  0
   83.0578    2.5240   -0.3677 C   0  0  0  0  0  0  0  0  0  0  0  0
   82.0999    3.4845   -0.4075 C   0  0  0  0  0  0  0  0  0  0  0  0
   80.8382    2.8293   -0.2043 C   0  0  0  0  0  0  0  0  0  0  0  0
   79.5984    3.4710   -0.1405 C   0  0  0  0  0  0  0  0  0  0  0  0
   79.5917    4.9515   -0.2056 C   0  0  0  0  0  0  0  0  0  0  0  0
   80.2797    5.7074    0.7478 C   0  0  0  0  0  0  0  0  0  0  0  0
   80.2714    7.0884    0.6829 C   0  0  0  0  0  0  0  0  0  0  0  0
   79.5786    7.7409   -0.3386 C   0  0  0  0  0  0  0  0  0  0  0  0
   79.6028    9.2229   -0.3685 C   0  0  0  0  0  0  0  0  0  0  0  0
   78.9002    9.7510   -1.3820 O   0  0  0  0  0  0  0  0  0  0  0  0
   80.1903    9.9097    0.4283 O   0  0  0  0  0  0  0  0  0  0  0  0
   78.8905    6.9916   -1.2935 C   0  0  0  0  0  0  0  0  0  0  0  0
   78.8968    5.6096   -1.2240 C   0  0  0  0  0  0  0  0  0  0  0  0
   78.3639    2.8281   -0.0202 C   0  0  0  0  0  0  0  0  0  0  0  0
   77.1042    3.4933    0.1528 C   0  0  0  0  0  0  0  0  0  0  0  0
   76.1502    2.5292    0.2006 C   0  0  0  0  0  0  0  0  0  0  0  0
   76.8169    1.2705    0.0590 C   0  0  0  0  0  0  0  0  0  0  0  0
   78.1586    1.4745   -0.0513 N   0  0  0  0  0  0  0  0  0  0  0  0
   81.0440    1.4840   -0.0707 N   0  0  0  0  0  0  0  0  0  0  0  0
   79.6169   -4.8856    0.1997 C   0  0  0  0  0  0  0  0  0  0  0  0
   78.9359   -5.5541    1.2211 C   0  0  0  0  0  0  0  0  0  0  0  0
   78.9404   -6.9355    1.2757 C   0  0  0  0  0  0  0  0  0  0  0  0
   79.6210   -7.6759    0.3071 C   0  0  0  0  0  0  0  0  0  0  0  0
   79.5940   -9.1547    0.4065 C   0  0  0  0  0  0  0  0  0  0  0  0
   80.2809   -9.7712   -0.5674 O   0  0  0  0  0  0  0  0  0  0  0  0
   79.0179   -9.7681    1.2687 O   0  0  0  0  0  0  0  0  0  0  0  0
   80.2998   -7.0139   -0.7165 C   0  0  0  0  0  0  0  0  0  0  0  0
   80.2985   -5.6310   -0.7660 C   0  0  0  0  0  0  0  0  0  0  0  0
   75.0997   -2.6102   -0.3256 H   0  0  0  0  0  0  0  0  0  0  0  0
   76.9923   -4.5069   -0.2340 H   0  0  0  0  0  0  0  0  0  0  0  0
   82.2524   -4.4630    0.5652 H   0  0  0  0  0  0  0  0  0  0  0  0
   84.1365   -2.5511    0.4728 H   0  0  0  0  0  0  0  0  0  0  0  0
   84.1240    2.6388   -0.4810 H   0  0  0  0  0  0  0  0  0  0  0  0
   82.2314    4.5415   -0.5730 H   0  0  0  0  0  0  0  0  0  0  0  0
   80.8066    5.2035    1.5502 H   0  0  0  0  0  0  0  0  0  0  0  0
   80.7992    7.6807    1.4224 H   0  0  0  0  0  0  0  0  0  0  0  0
   78.9641   10.7184   -1.3298 H   0  0  0  0  0  0  0  0  0  0  0  0
   78.3537    7.4935   -2.0898 H   0  0  0  0  0  0  0  0  0  0  0  0
   78.3733    5.0274   -1.9741 H   0  0  0  0  0  0  0  0  0  0  0  0
   76.9716    4.5589    0.2467 H   0  0  0  0  0  0  0  0  0  0  0  0
   75.0884    2.6527    0.3359 H   0  0  0  0  0  0  0  0  0  0  0  0
   78.4174   -4.9809    1.9812 H   0  0  0  0  0  0  0  0  0  0  0  0
   78.4189   -7.4601    2.0688 H   0  0  0  0  0  0  0  0  0  0  0  0
   80.2141  -10.7302   -0.4306 H   0  0  0  0  0  0  0  0  0  0  0  0
   80.8260   -7.5844   -1.4727 H   0  0  0  0  0  0  0  0  0  0  0  0
   80.8150   -5.1174   -1.5692 H   0  0  0  0  0  0  0  0  0  0  0  0
  2  3  4  0  0  0  0
  3  4  1  0  0  0  0
  4  5  2  0  0  0  0
  5  6  4  0  0  0  0
  1  7  1  0  0  0  0
  3  7  4  0  0  0  0
  6  7  4  0  0  0  0
  6  8  4  0  0  0  0
  8  9  4  0  0  0  0
  9 10  4  0  0  0  0
 10 11  2  0  0  0  0
  1 12  1  0  0  0  0
  9 12  4  0  0  0  0
 11 13  4  0  0  0  0
 12 13  4  0  0  0  0
 13 14  4  0  0  0  0
 14 15  4  0  0  0  0
 15 16  4  0  0  0  0
 16 17  2  0  0  0  0
 17 18  4  0  0  0  0
 18 19  4  0  0  0  0
 19 20  1  0  0  0  0
 20 21  4  0  0  0  0
 21 22  4  0  0  0  0
 22 23  4  0  0  0  0
 23 24  1  0  0  0  0
 24 25  4  0  0  0  0
 24 26  2  0  0  0  0
 23 27  4  0  0  0  0
 20 28  4  0  0  0  0
 27 28  4  0  0  0  0
 19 29  4  0  0  0  0
 29 30  4  0  0  0  0
 30 31  2  0  0  0  0
  2 32  4  0  0  0  0
 31 32  1  0  0  0  0
  1 33  1  0  0  0  0
 29 33  4  0  0  0  0
 32 33  4  0  0  0  0
  1 34  1  0  0  0  0
 15 34  4  0  0  0  0
 18 34  4  0  0  0  0
  8 35  1  0  0  0  0
 35 36  4  0  0  0  0
 36 37  4  0  0  0  0
 37 38  4  0  0  0  0
 38 39  1  0  0  0  0
 39 40  4  0  0  0  0
 39 41  2  0  0  0  0
 38 42  4  0  0  0  0
 35 43  4  0  0  0  0
 42 43  4  0  0  0  0
  2 44  1  0  0  0  0
  4 45  1  0  0  0  0
  5 46  1  0  0  0  0
 10 47  1  0  0  0  0
 11 48  1  0  0  0  0
 16 49  1  0  0  0  0
 17 50  1  0  0  0  0
 21 51  1  0  0  0  0
 22 52  1  0  0  0  0
 25 53  1  0  0  0  0
 27 54  1  0  0  0  0
 28 55  1  0  0  0  0
 30 56  1  0  0  0  0
 31 57  1  0  0  0  0
 36 58  1  0  0  0  0
 37 59  1  0  0  0  0
 40 60  1  0  0  0  0
 42 61  1  0  0  0  0
 43 62  1  0  0  0  0
 64 65  4  0  0  0  0
 65 66  1  0  0  0  0
 66 67  2  0  0  0  0
 67 68  4  0  0  0  0
 63 69  1  0  0  0  0
 65 69  4  0  0  0  0
 68 69  4  0  0  0  0
 68 70  4  0  0  0  0
 70 71  4  0  0  0  0
 71 72  4  0  0  0  0
 72 73  2  0  0  0  0
 63 74  1  0  0  0  0
 71 74  4  0  0  0  0
 73 75  4  0  0  0  0
 74 75  4  0  0  0  0
 75 76  4  0  0  0  0
 76 77  4  0  0  0  0
 77 78  4  0  0  0  0
 78 79  2  0  0  0  0
 79 80  4  0  0  0  0
 80 81  4  0  0  0  0
 81 82  1  0  0  0  0
 82 83  4  0  0  0  0
 83 84  4  0  0  0  0
 84 85  4  0  0  0  0
 85 86  1  0  0  0  0
 86 87  4  0  0  0  0
 86 88  2  0  0  0  0
 85 89  4  0  0  0  0
 82 90  4  0  0  0  0
 89 90  4  0  0  0  0
 81 91  4  0  0  0  0
 91 92  4  0  0  0  0
 92 93  2  0  0  0  0
 64 94  4  0  0  0  0
 93 94  1  0  0  0  0
 63 95  1  0  0  0  0
 91 95  4  0  0  0  0
 94 95  4  0  0  0  0
 63 96  1  0  0  0  0
 77 96  4  0  0  0  0
 80 96  4  0  0  0  0
 70 97  1  0  0  0  0
 97 98  4  0  0  0  0
 98 99  4  0  0  0  0
 99100  4  0  0  0  0
100101  1  0  0  0  0
101102  4  0  0  0  0
101103  2  0  0  0  0
100104  4  0  0  0  0
 97105  4  0  0  0  0
104105  4  0  0  0  0
 64106  1  0  0  0  0
 66107  1  0  0  0  0
 67108  1  0  0  0  0
 72109  1  0  0  0  0
 73110  1  0  0  0  0
 78111  1  0  0  0  0
 79112  1  0  0  0  0
 83113  1  0  0  0  0
 84114  1  0  0  0  0
 87115  1  0  0  0  0
 89116  1  0  0  0  0
 90117  1  0  0  0  0
 92118  1  0  0  0  0
 93119  1  0  0  0  0
 98120  1  0  0  0  0
 99121  1  0  0  0  0
102122  1  0  0  0  0
104123  1  0  0  0  0
105124  1  0  0  0  0
 14125  1  0  0  0  0
125126  3  0  0  0  0
127128  3  0  0  0  0
 76130  1  0  0  0  0
129130  3  0  0  0  0
126132  1  0  0  0  0
132133  4  0  0  0  0
133134  4  0  0  0  0
134135  2  0  0  0  0
135136  4  0  0  0  0
131137  1  0  0  0  0
133137  4  0  0  0  0
136137  4  0  0  0  0
136138  4  0  0  0  0
138139  4  0  0  0  0
139140  4  0  0  0  0
140141  2  0  0  0  0
131142  1  0  0  0  0
139142  4  0  0  0  0
141143  4  0  0  0  0
142143  4  0  0  0  0
127144  4  0  0  0  0
143144  4  0  0  0  0
144145  4  0  0  0  0
145146  4  0  0  0  0
146147  2  0  0  0  0
147148  4  0  0  0  0
148149  4  0  0  0  0
149150  1  0  0  0  0
150151  4  0  0  0  0
151152  4  0  0  0  0
152153  4  0  0  0  0
153154  1  0  0  0  0
154155  4  0  0  0  0
154156  2  0  0  0  0
153157  4  0  0  0  0
150158  4  0  0  0  0
157158  4  0  0  0  0
149159  4  0  0  0  0
159160  4  0  0  0  0
160161  2  0  0  0  0
132162  4  0  0  0  0
161162  4  0  0  0  0
131163  1  0  0  0  0
159163  4  0  0  0  0
162163  4  0  0  0  0
131164  1  0  0  0  0
145164  4  0  0  0  0
148164  4  0  0  0  0
138165  1  0  0  0  0
165166  4  0  0  0  0
166167  4  0  0  0  0
167168  4  0  0  0  0
168169  1  0  0  0  0
169170  4  0  0  0  0
169171  2  0  0  0  0
168172  4  0  0  0  0
165173  4  0  0  0  0
172173  4  0  0  0  0
134174  1  0  0  0  0
135175  1  0  0  0  0
140176  1  0  0  0  0
141177  1  0  0  0  0
146178  1  0  0  0  0
147179  1  0  0  0  0
151180  1  0  0  0  0
152181  1  0  0  0  0
155182  1  0  0  0  0
157183  1  0  0  0  0
158184  1  0  0  0  0
160185  1  0  0  0  0
161186  1  0  0  0  0
166187  1  0  0  0  0
167188  1  0  0  0  0
170189  1  0  0  0  0
172190  1  0  0  0  0
173191  1  0  0  0  0
128193  4  0  0  0  0
193194  4  0  0  0  0
194195  4  0  0  0  0
195196  2  0  0  0  0
196197  4  0  0  0  0
192198  1  0  0  0  0
194198  4  0  0  0  0
197198  4  0  0  0  0
197199  4  0  0  0  0
199200  4  0  0  0  0
200201  4  0  0  0  0
201202  2  0  0  0  0
192203  1  0  0  0  0
200203  4  0  0  0  0
202204  4  0  0  0  0
203204  4  0  0  0  0
129205  1  0  0  0  0
204205  4  0  0  0  0
205206  4  0  0  0  0
206207  4  0  0  0  0
207208  2  0  0  0  0
208209  4  0  0  0  0
209210  4  0  0  0  0
210211  1  0  0  0  0
211212  4  0  0  0  0
212213  4  0  0  0  0
213214  4  0  0  0  0
214215  1  0  0  0  0
215216  4  0  0  0  0
215217  2  0  0  0  0
214218  4  0  0  0  0
211219  4  0  0  0  0
218219  4  0  0  0  0
210220  4  0  0  0  0
220221  4  0  0  0  0
221222  2  0  0  0  0
193223  4  0  0  0  0
222223  4  0  0  0  0
192224  1  0  0  0  0
220224  4  0  0  0  0
223224  4  0  0  0  0
192225  1  0  0  0  0
206225  4  0  0  0  0
209225  4  0  0  0  0
199226  1  0  0  0  0
226227  4  0  0  0  0
227228  4  0  0  0  0
228229  4  0  0  0  0
229230  1  0  0  0  0
230231  4  0  0  0  0
230232  2  0  0  0  0
229233  4  0  0  0  0
226234  4  0  0  0  0
233234  4  0  0  0  0
195235  1  0  0  0  0
196236  1  0  0  0  0
201237  1  0  0  0  0
202238  1  0  0  0  0
207239  1  0  0  0  0
208240  1  0  0  0  0
212241  1  0  0  0  0
213242  1  0  0  0  0
216243  1  0  0  0  0
218244  1  0  0  0  0
219245  1  0  0  0  0
221246  1  0  0  0  0
222247  1  0  0  0  0
227248  1  0  0  0  0
228249  1  0  0  0  0
231250  1  0  0  0  0
233251  1  0  0  0  0
234252  1  0  0  0  0
M  END
