288

Cu 42.190790 -0.024286 -0.025341
C 38.832101 0.178975 -0.260652
C 39.496421 1.279812 0.100824
C 38.846772 2.523300 0.498269
C 39.789486 3.399140 0.788422
C 41.095208 2.758373 0.581110
N 40.916042 1.409816 0.148037
C 42.290380 3.353880 0.767383
C 43.585697 2.662419 0.539562
C 44.882467 3.349061 0.540459
C 45.815650 2.446093 0.323391
N 43.718567 1.388170 0.327616
C 45.122024 1.171090 0.180099
C 45.713613 -0.019021 -0.018889
C 44.955045 -1.285496 -0.159997
C 45.512233 -2.490020 -0.143682
C 44.464997 -3.455604 -0.403658
C 43.330829 -2.781272 -0.558460
C 42.028876 -3.405822 -0.917093
C 42.003810 -4.847616 -1.251659
C 41.937333 -5.260667 -2.589919
C 41.932691 -6.626577 -2.909423
C 41.826909 -7.066448 -4.339749
C 41.960497 -7.578614 -1.878468
C 42.017560 -7.173523 -0.536627
C 42.084305 -8.204109 0.551904
C 42.049098 -5.805126 -0.228157
C 40.875731 -2.711422 -0.930951
C 39.555061 -3.251863 -1.249474
C 38.699807 -2.267358 -1.060036
C 39.463490 -1.099419 -0.624431
N 40.733709 -1.346411 -0.545263
N 43.551048 -1.376058 -0.411478
C 42.339912 4.764145 1.212084
C 42.024429 5.799636 0.320303
C 42.067415 7.135912 0.743591
C 41.747270 8.244928 -0.214951
C 42.468051 7.434022 2.054619
C 42.809079 6.405465 2.945664
C 43.191410 6.726236 4.360325
C 42.727963 5.070579 2.523646
H 37.749151 0.215954 -0.278930
H 37.782157 2.709853 0.557646
H 39.603553 4.411825 1.121052
H 45.062391 4.405971 0.686922
H 46.877888 2.643607 0.268650
H 46.557872 -2.721484 0.006502
H 44.600559 -4.525289 -0.490102
H 41.893249 -4.519260 -3.379725
H 42.329408 -8.046210 -4.487306
H 40.756588 -7.162902 -4.617275
H 42.311433 -6.327792 -5.013881
H 41.939361 -8.635079 -2.119963
H 41.915742 -7.748890 1.552220
H 41.305536 -8.979045 0.388427
H 43.083484 -8.688149 0.542728
H 42.105865 -5.481411 0.805265
H 39.301211 -4.255217 -1.564572
H 37.628207 -2.328870 -1.197205
H 41.740403 5.564132 -0.698730
H 41.258367 9.088781 0.317082
H 41.056079 7.893039 -1.009894
H 42.684551 8.608594 -0.684886
H 42.513867 8.466838 2.380696
H 42.281949 6.733466 4.995338
H 43.681539 7.721123 4.418875
H 43.902733 5.969030 4.755138
H 42.970026 4.269635 3.212560
Cu 91.026089 -0.011358 -0.015628
C 94.384778 0.158072 -0.276357
C 93.720458 -0.495549 -1.233062
C 94.370108 -1.223427 -2.316769
C 93.427393 -1.745913 -3.077224
C 92.121672 -1.368429 -2.519491
N 92.300837 -0.577085 -1.344786
C 90.926499 -1.713107 -3.039610
C 89.631182 -1.301813 -2.438895
C 88.334412 -1.493811 -3.098149
C 87.401229 -1.033970 -2.291293
N 89.498312 -0.743541 -1.274008
C 88.094855 -0.541427 -1.106571
C 87.503266 -0.019021 -0.018889
C 88.261835 0.469050 1.158251
C 87.704646 0.788675 2.319709
C 88.751882 1.307158 3.174761
C 89.886050 1.268134 2.483990
C 91.188003 1.786443 2.984025
C 91.213070 2.509128 4.275702
C 91.279546 3.909473 4.299906
C 91.284188 4.596568 5.522891
C 91.389970 6.092805 5.547226
C 91.256382 3.871373 6.724280
C 91.199319 2.469804 6.708718
C 91.132574 1.711174 8.001579
C 91.167781 1.792615 5.480274
C 92.341148 1.606458 2.313213
C 93.661818 2.062830 2.743629
C 94.517072 1.606830 1.850768
C 93.753389 0.863331 0.850248
N 92.483171 0.856046 1.109515
N 89.665831 0.735800 1.175230
C 90.876967 -2.532797 -4.270347
C 91.192450 -1.964506 -5.513150
C 91.149465 -2.743034 -6.678783
C 91.469609 -2.131087 -8.010789
C 90.748828 -4.085227 -6.600169
C 90.407800 -4.654743 -5.364230
C 90.025469 -6.102781 -5.278533
C 90.488916 -3.877822 -4.199579
H 95.467729 0.165334 -0.316963
H 95.434722 -1.332387 -2.479421
H 93.613326 -2.347290 -3.957292
H 88.154488 -1.928690 -4.072515
H 86.338991 -1.036372 -2.496239
H 86.659007 0.708858 2.583829
H 88.616320 1.687947 4.178105
H 91.323631 4.461682 3.367949
H 90.887471 6.507260 6.447190
H 92.460291 6.386211 5.562616
H 90.905446 6.534678 4.650113
H 91.277518 4.397404 7.671766
H 91.301137 0.623678 7.842803
H 91.911344 2.083903 8.700381
H 90.133395 1.854726 8.463933
H 91.111014 0.709928 5.457019
H 93.915669 2.644771 3.619615
H 95.588672 1.755700 1.871666
H 91.476476 -0.920194 -5.570616
H 91.958512 -2.876989 -8.673191
H 92.160801 -1.269610 -7.894091
H 90.532328 -1.780956 -8.490894
H 90.703012 -4.685915 -7.501396
H 90.934930 -6.714708 -5.108714
H 89.535341 -6.435957 -6.217801
H 89.314146 -6.271211 -4.441354
H 90.246853 -4.316553 -3.238523
C 51.730857 -0.017919 -0.010399
C 50.521918 -0.031374 -0.018846
C 49.100389 -0.022554 -0.030829
C 47.888719 -0.015116 -0.019966
C 53.147461 -0.024594 -0.009865
C 54.368157 -0.015116 -0.019966
C 67.212283 -0.017919 -0.010399
C 66.003344 -0.031374 -0.018846
C 64.581815 -0.022554 -0.030829
C 63.370146 -0.015116 -0.019966
C 68.628888 -0.024594 -0.009865
C 69.849584 -0.015116 -0.019966
C 82.693710 -0.017919 -0.010399
C 81.484771 -0.031374 -0.018846
C 80.063242 -0.022554 -0.030829
C 78.851572 -0.015116 -0.019966
C 84.110314 -0.024594 -0.009865
C 85.331010 -0.015116 -0.019966
Cu 58.763812 -0.072571 -0.033336
C 55.394450 0.021335 0.021852
C 56.050719 1.192256 -0.076812
C 55.410754 2.509300 -0.091713
C 56.346917 3.422887 -0.253293
C 57.643357 2.744457 -0.353366
N 57.465177 1.331212 -0.232259
C 58.827407 3.364374 -0.543751
C 60.124729 2.641753 -0.578938
C 61.393704 3.258942 -0.986132
C 62.346441 2.362449 -0.831336
N 60.292694 1.414145 -0.197147
C 61.691329 1.161005 -0.330403
C 62.306261 0.021335 0.021852
C 61.555081 -1.162617 0.489675
C 62.089580 -2.175031 1.160502
C 61.057166 -3.182798 1.310453
C 59.963537 -2.718190 0.716855
C 58.710561 -3.490786 0.540404
C 58.773895 -4.970353 0.626405
C 58.076221 -5.654999 1.633541
C 58.151899 -7.052101 1.725941
C 57.441821 -7.771504 2.833970
C 58.957281 -7.762574 0.823188
C 59.652490 -7.088570 -0.191711
C 60.537038 -7.853025 -1.131548
C 59.569618 -5.691048 -0.276248
C 57.538655 -2.878400 0.284047
C 56.263844 -3.538263 0.021764
C 55.375582 -2.575751 -0.121136
C 56.072150 -1.295316 0.042606
N 57.336442 -1.465301 0.276459
N 60.187568 -1.418996 0.172731
C 58.861804 4.835293 -0.716748
C 59.449178 5.644076 0.266908
C 59.497631 7.036293 0.105117
C 60.169389 7.891407 1.138682
C 58.978888 7.615357 -1.063058
C 58.378353 6.815734 -2.047184
C 57.856502 7.438388 -3.307551
C 58.336287 5.424260 -1.876759
H 54.356755 2.728928 0.013023
H 56.161622 4.488619 -0.292452
H 61.543016 4.267560 -1.348697
H 63.396045 2.517634 -1.042994
H 63.113470 -2.258184 1.500063
H 61.173647 -4.150768 1.780060
H 57.482328 -5.098430 2.349259
H 57.202962 -8.815565 2.537203
H 58.089827 -7.790636 3.734954
H 56.488929 -7.258818 3.084337
H 59.044655 -8.839428 0.910726
H 60.685883 -7.293445 -2.080242
H 60.080082 -8.834811 -1.380459
H 61.525059 -8.022010 -0.653320
H 60.122802 -5.162182 -1.043569
H 56.061215 -4.598309 -0.055118
H 54.326160 -2.729226 -0.333187
H 59.870002 5.187742 1.155573
H 59.735993 8.914216 1.144958
H 61.254097 7.959390 0.912984
H 60.036052 7.456782 2.152098
H 59.042278 8.687594 -1.206747
H 57.430259 8.442257 -3.097155
H 57.055321 6.811904 -3.755524
H 58.685452 7.541971 -4.038817
H 57.900603 4.797246 -2.646298
Cu 74.245239 -0.072571 -0.033336
C 70.875877 0.021335 0.021852
C 71.532146 1.192256 -0.076812
C 70.892181 2.509300 -0.091713
C 71.828343 3.422887 -0.253293
C 73.124784 2.744457 -0.353366
N 72.946603 1.331212 -0.232259
C 74.308833 3.364374 -0.543751
C 75.606155 2.641753 -0.578938
C 76.875131 3.258942 -0.986132
C 77.827868 2.362449 -0.831336
N 75.774121 1.414145 -0.197147
C 77.172756 1.161005 -0.330403
C 77.787687 0.021335 0.021852
C 77.036507 -1.162617 0.489675
C 77.571007 -2.175031 1.160502
C 76.538592 -3.182798 1.310453
C 75.444964 -2.718190 0.716855
C 74.191987 -3.490786 0.540404
C 74.255321 -4.970353 0.626405
C 73.557647 -5.654999 1.633541
C 73.633326 -7.052101 1.725941
C 72.923247 -7.771504 2.833970
C 74.438708 -7.762574 0.823188
C 75.133917 -7.088570 -0.191711
C 76.018465 -7.853025 -1.131548
C 75.051044 -5.691048 -0.276248
C 73.020082 -2.878400 0.284047
C 71.745271 -3.538263 0.021764
C 70.857008 -2.575751 -0.121136
C 71.553577 -1.295316 0.042606
N 72.817868 -1.465301 0.276459
N 75.668995 -1.418996 0.172731
C 74.343230 4.835293 -0.716748
C 74.930604 5.644076 0.266908
C 74.979057 7.036293 0.105117
C 75.650816 7.891407 1.138682
C 74.460314 7.615357 -1.063058
C 73.859780 6.815734 -2.047184
C 73.337929 7.438388 -3.307551
C 73.817714 5.424260 -1.876759
H 69.838182 2.728928 0.013023
H 71.643048 4.488619 -0.292452
H 77.024442 4.267560 -1.348697
H 78.877471 2.517634 -1.042994
H 78.594897 -2.258184 1.500063
H 76.655073 -4.150768 1.780060
H 72.963755 -5.098430 2.349259
H 72.684388 -8.815565 2.537203
H 73.571254 -7.790636 3.734954
H 71.970356 -7.258818 3.084337
H 74.526081 -8.839428 0.910726
H 76.167310 -7.293445 -2.080242
H 75.561508 -8.834811 -1.380459
H 77.006486 -8.022010 -0.653320
H 75.604228 -5.162182 -1.043569
H 71.542641 -4.598309 -0.055118
H 69.807587 -2.729226 -0.333187
H 75.351428 5.187742 1.155573
H 75.217419 8.914216 1.144958
H 76.735523 7.959390 0.912984
H 75.517478 7.456782 2.152098
H 74.523704 8.687594 -1.206747
H 72.911686 8.442257 -3.097155
H 72.536748 6.811904 -3.755524
H 74.166878 7.541971 -4.038817
H 73.382030 4.797246 -2.646298
