 xtb: 6.5.1 (b24c23e)
          07302206143D

124143  0     0  0            999 V2000
   15.8341    0.0558   -0.0298 Cu  0  0  0  0  0  0  0  0  0  0  0  0
   12.4284    0.0925   -0.0972 C   0  0  0  0  0  0  0  0  0  0  0  0
   13.0622    1.3167    0.0526 C   0  0  0  0  0  0  0  0  0  0  0  0
   12.3851    2.5710    0.2188 C   0  0  0  0  0  0  0  0  0  0  0  0
   13.3425    3.5210    0.3575 C   0  0  0  0  0  0  0  0  0  0  0  0
   14.6144    2.8561    0.2652 C   0  0  0  0  0  0  0  0  0  0  0  0
   14.4126    1.5181    0.0879 N   0  0  0  0  0  0  0  0  0  0  0  0
   15.8593    3.4812    0.3750 C   0  0  0  0  0  0  0  0  0  0  0  0
   15.8689    4.9517    0.5649 C   0  0  0  0  0  0  0  0  0  0  0  0
   16.4053    5.5102    1.7291 C   0  0  0  0  0  0  0  0  0  0  0  0
   16.4024    6.8796    1.9116 C   0  0  0  0  0  0  0  0  0  0  0  0
   15.8687    7.7230    0.9315 C   0  0  0  0  0  0  0  0  0  0  0  0
   15.8750    9.1808    1.1505 C   0  0  0  0  0  0  0  0  0  0  0  0
   16.3155    9.7075    2.1400 O   0  0  0  0  0  0  0  0  0  0  0  0
   15.3380    7.1667   -0.2348 C   0  0  0  0  0  0  0  0  0  0  0  0
   15.3360    5.7948   -0.4141 C   0  0  0  0  0  0  0  0  0  0  0  0
   17.0935    2.8297    0.3235 C   0  0  0  0  0  0  0  0  0  0  0  0
   18.3707    3.4834    0.3782 C   0  0  0  0  0  0  0  0  0  0  0  0
   19.3173    2.5167    0.2737 C   0  0  0  0  0  0  0  0  0  0  0  0
   17.2827    1.4815    0.1753 N   0  0  0  0  0  0  0  0  0  0  0  0
   18.6267    1.2681    0.1487 C   0  0  0  0  0  0  0  0  0  0  0  0
   19.2630    0.0221    0.0117 C   0  0  0  0  0  0  0  0  0  0  0  0
   18.6058   -1.2126   -0.1300 C   0  0  0  0  0  0  0  0  0  0  0  0
   19.2756   -2.4685   -0.2902 C   0  0  0  0  0  0  0  0  0  0  0  0
   18.3130   -3.4183   -0.4040 C   0  0  0  0  0  0  0  0  0  0  0  0
   17.0468   -2.7482   -0.3067 C   0  0  0  0  0  0  0  0  0  0  0  0
   17.2585   -1.4045   -0.1486 N   0  0  0  0  0  0  0  0  0  0  0  0
   15.8013   -3.3738   -0.3980 C   0  0  0  0  0  0  0  0  0  0  0  0
   15.7858   -4.8488   -0.5482 C   0  0  0  0  0  0  0  0  0  0  0  0
   15.2315   -5.4365   -1.6889 C   0  0  0  0  0  0  0  0  0  0  0  0
   15.2125   -6.8126   -1.8302 C   0  0  0  0  0  0  0  0  0  0  0  0
   15.7436   -7.6301   -0.8295 C   0  0  0  0  0  0  0  0  0  0  0  0
   15.7300   -9.0989   -0.9535 C   0  0  0  0  0  0  0  0  0  0  0  0
   16.1730   -9.8455   -0.1188 O   0  0  0  0  0  0  0  0  0  0  0  0
   16.2977   -7.0425    0.3127 C   0  0  0  0  0  0  0  0  0  0  0  0
   16.3209   -5.6681    0.4505 C   0  0  0  0  0  0  0  0  0  0  0  0
   14.5674   -2.7191   -0.3589 C   0  0  0  0  0  0  0  0  0  0  0  0
   13.2842   -3.3669   -0.4085 C   0  0  0  0  0  0  0  0  0  0  0  0
   12.3433   -2.3939   -0.3298 C   0  0  0  0  0  0  0  0  0  0  0  0
   13.0416   -1.1451   -0.2198 C   0  0  0  0  0  0  0  0  0  0  0  0
   14.3885   -1.3718   -0.2355 N   0  0  0  0  0  0  0  0  0  0  0  0
   11.3434    0.1024   -0.1046 H   0  0  0  0  0  0  0  0  0  0  0  0
   11.3136    2.6934    0.2345 H   0  0  0  0  0  0  0  0  0  0  0  0
   13.2061    4.5779    0.5211 H   0  0  0  0  0  0  0  0  0  0  0  0
   16.8079    4.8582    2.4961 H   0  0  0  0  0  0  0  0  0  0  0  0
   16.8098    7.3202    2.8153 H   0  0  0  0  0  0  0  0  0  0  0  0
   15.4328    9.7686    0.3177 H   0  0  0  0  0  0  0  0  0  0  0  0
   14.9262    7.8141   -1.0023 H   0  0  0  0  0  0  0  0  0  0  0  0
   14.9334    5.3664   -1.3252 H   0  0  0  0  0  0  0  0  0  0  0  0
   18.5200    4.5470    0.4699 H   0  0  0  0  0  0  0  0  0  0  0  0
   20.3896    2.6297    0.2750 H   0  0  0  0  0  0  0  0  0  0  0  0
   20.3459   -2.5965   -0.3169 H   0  0  0  0  0  0  0  0  0  0  0  0
   18.4451   -4.4775   -0.5548 H   0  0  0  0  0  0  0  0  0  0  0  0
   14.8293   -4.8043   -2.4726 H   0  0  0  0  0  0  0  0  0  0  0  0
   14.7846   -7.2600   -2.7215 H   0  0  0  0  0  0  0  0  0  0  0  0
   15.2715   -9.4725   -1.8942 H   0  0  0  0  0  0  0  0  0  0  0  0
   16.7049   -7.6852    1.0859 H   0  0  0  0  0  0  0  0  0  0  0  0
   16.7390   -5.2163    1.3430 H   0  0  0  0  0  0  0  0  0  0  0  0
   13.1297   -4.4314   -0.4801 H   0  0  0  0  0  0  0  0  0  0  0  0
   11.2698   -2.4988   -0.3357 H   0  0  0  0  0  0  0  0  0  0  0  0
   29.2997   -0.0503   -0.0372 Cu  0  0  0  0  0  0  0  0  0  0  0  0
   32.7055   -0.0785   -0.1054 C   0  0  0  0  0  0  0  0  0  0  0  0
   32.0712   -1.3111   -0.1374 C   0  0  0  0  0  0  0  0  0  0  0  0
   32.7477   -2.5765   -0.1578 C   0  0  0  0  0  0  0  0  0  0  0  0
   31.7899   -3.5362   -0.1578 C   0  0  0  0  0  0  0  0  0  0  0  0
   30.5183   -2.8644   -0.1488 C   0  0  0  0  0  0  0  0  0  0  0  0
   30.7207   -1.5149   -0.1299 N   0  0  0  0  0  0  0  0  0  0  0  0
   29.2733   -3.4983   -0.1252 C   0  0  0  0  0  0  0  0  0  0  0  0
   29.2637   -4.9810   -0.1474 C   0  0  0  0  0  0  0  0  0  0  0  0
   28.7375   -5.7004    0.9298 C   0  0  0  0  0  0  0  0  0  0  0  0
   28.7418   -7.0818    0.9150 C   0  0  0  0  0  0  0  0  0  0  0  0
   29.2666   -7.7762   -0.1803 C   0  0  0  0  0  0  0  0  0  0  0  0
   29.2634   -9.2503   -0.1711 C   0  0  0  0  0  0  0  0  0  0  0  0
   28.8316   -9.9134    0.7371 O   0  0  0  0  0  0  0  0  0  0  0  0
   29.7864   -7.0584   -1.2602 C   0  0  0  0  0  0  0  0  0  0  0  0
   29.7873   -5.6750   -1.2417 C   0  0  0  0  0  0  0  0  0  0  0  0
   28.0395   -2.8460   -0.0784 C   0  0  0  0  0  0  0  0  0  0  0  0
   26.7620   -3.5008   -0.1106 C   0  0  0  0  0  0  0  0  0  0  0  0
   25.8158   -2.5287   -0.0765 C   0  0  0  0  0  0  0  0  0  0  0  0
   27.8507   -1.4903   -0.0362 N   0  0  0  0  0  0  0  0  0  0  0  0
   26.5068   -1.2750   -0.0292 C   0  0  0  0  0  0  0  0  0  0  0  0
   25.8709   -0.0218    0.0070 C   0  0  0  0  0  0  0  0  0  0  0  0
   26.5283    1.2204    0.0369 C   0  0  0  0  0  0  0  0  0  0  0  0
   25.8590    2.4867    0.0485 C   0  0  0  0  0  0  0  0  0  0  0  0
   26.8218    3.4427    0.0710 C   0  0  0  0  0  0  0  0  0  0  0  0
   28.0878    2.7652    0.0807 C   0  0  0  0  0  0  0  0  0  0  0  0
   27.8757    1.4126    0.0498 N   0  0  0  0  0  0  0  0  0  0  0  0
   29.3336    3.3969    0.0858 C   0  0  0  0  0  0  0  0  0  0  0  0
   29.3491    4.8781    0.1469 C   0  0  0  0  0  0  0  0  0  0  0  0
   29.9144    5.6221   -0.8926 C   0  0  0  0  0  0  0  0  0  0  0  0
   29.9322    7.0043   -0.8369 C   0  0  0  0  0  0  0  0  0  0  0  0
   29.3884    7.6714    0.2636 C   0  0  0  0  0  0  0  0  0  0  0  0
   29.3995    9.1429    0.3492 C   0  0  0  0  0  0  0  0  0  0  0  0
   28.9447    9.7633    1.2759 O   0  0  0  0  0  0  0  0  0  0  0  0
   28.8235    6.9273    1.3049 C   0  0  0  0  0  0  0  0  0  0  0  0
   28.8020    5.5473    1.2461 C   0  0  0  0  0  0  0  0  0  0  0  0
   30.5675    2.7425    0.0381 C   0  0  0  0  0  0  0  0  0  0  0  0
   31.8509    3.3897    0.0893 C   0  0  0  0  0  0  0  0  0  0  0  0
   32.7915    2.4151    0.0297 C   0  0  0  0  0  0  0  0  0  0  0  0
   32.0927    1.1640   -0.0465 C   0  0  0  0  0  0  0  0  0  0  0  0
   30.7458    1.3914   -0.0342 N   0  0  0  0  0  0  0  0  0  0  0  0
   33.7905   -0.0876   -0.1128 H   0  0  0  0  0  0  0  0  0  0  0  0
   33.8191   -2.7003   -0.1626 H   0  0  0  0  0  0  0  0  0  0  0  0
   31.9257   -4.6057   -0.1514 H   0  0  0  0  0  0  0  0  0  0  0  0
   28.3420   -5.1650    1.7856 H   0  0  0  0  0  0  0  0  0  0  0  0
   28.3429   -7.6474    1.7502 H   0  0  0  0  0  0  0  0  0  0  0  0
   29.6952   -9.7124   -1.0842 H   0  0  0  0  0  0  0  0  0  0  0  0
   30.1908   -7.5892   -2.1160 H   0  0  0  0  0  0  0  0  0  0  0  0
   30.1818   -5.1204   -2.0857 H   0  0  0  0  0  0  0  0  0  0  0  0
   26.6125   -4.5668   -0.1668 H   0  0  0  0  0  0  0  0  0  0  0  0
   24.7434   -2.6407   -0.0871 H   0  0  0  0  0  0  0  0  0  0  0  0
   24.7888    2.6176    0.0351 H   0  0  0  0  0  0  0  0  0  0  0  0
   26.6901    4.5125    0.0667 H   0  0  0  0  0  0  0  0  0  0  0  0
   30.3260    5.1080   -1.7539 H   0  0  0  0  0  0  0  0  0  0  0  0
   30.3688    7.5740   -1.6509 H   0  0  0  0  0  0  0  0  0  0  0  0
   29.8672    9.6465   -0.5240 H   0  0  0  0  0  0  0  0  0  0  0  0
   28.4065    7.4535    2.1570 H   0  0  0  0  0  0  0  0  0  0  0  0
   28.3755    4.9732    2.0610 H   0  0  0  0  0  0  0  0  0  0  0  0
   32.0058    4.4532    0.1745 H   0  0  0  0  0  0  0  0  0  0  0  0
   33.8649    2.5190    0.0440 H   0  0  0  0  0  0  0  0  0  0  0  0
   21.8917    0.0052    0.0085 C   0  0  0  0  0  0  0  0  0  0  0  0
   20.6701    0.0106    0.0102 C   0  0  0  0  0  0  0  0  0  0  0  0
   23.2423   -0.0031    0.0073 C   0  0  0  0  0  0  0  0  0  0  0  0
   24.4638   -0.0099    0.0074 C   0  0  0  0  0  0  0  0  0  0  0  0
  2  3  4  0  0  0  0
  3  4  1  0  0  0  0
  4  5  2  0  0  0  0
  5  6  4  0  0  0  0
  1  7  1  0  0  0  0
  3  7  4  0  0  0  0
  6  7  4  0  0  0  0
  6  8  4  0  0  0  0
  8  9  1  0  0  0  0
  9 10  4  0  0  0  0
 10 11  4  0  0  0  0
 11 12  4  0  0  0  0
 12 13  1  0  0  0  0
 13 14  2  0  0  0  0
 12 15  4  0  0  0  0
  9 16  4  0  0  0  0
 15 16  4  0  0  0  0
  8 17  4  0  0  0  0
 17 18  4  0  0  0  0
 18 19  2  0  0  0  0
  1 20  1  0  0  0  0
 17 20  4  0  0  0  0
 19 21  4  0  0  0  0
 20 21  4  0  0  0  0
 21 22  4  0  0  0  0
 22 23  4  0  0  0  0
 23 24  4  0  0  0  0
 24 25  2  0  0  0  0
 25 26  4  0  0  0  0
  1 27  1  0  0  0  0
 23 27  4  0  0  0  0
 26 27  4  0  0  0  0
 26 28  4  0  0  0  0
 28 29  1  0  0  0  0
 29 30  4  0  0  0  0
 30 31  4  0  0  0  0
 31 32  4  0  0  0  0
 32 33  1  0  0  0  0
 33 34  2  0  0  0  0
 32 35  4  0  0  0  0
 29 36  4  0  0  0  0
 35 36  4  0  0  0  0
 28 37  4  0  0  0  0
 37 38  4  0  0  0  0
 38 39  2  0  0  0  0
  2 40  4  0  0  0  0
 39 40  1  0  0  0  0
  1 41  1  0  0  0  0
 37 41  4  0  0  0  0
 40 41  4  0  0  0  0
  2 42  1  0  0  0  0
  4 43  1  0  0  0  0
  5 44  1  0  0  0  0
 10 45  1  0  0  0  0
 11 46  1  0  0  0  0
 13 47  1  0  0  0  0
 15 48  1  0  0  0  0
 16 49  1  0  0  0  0
 18 50  1  0  0  0  0
 19 51  1  0  0  0  0
 24 52  1  0  0  0  0
 25 53  1  0  0  0  0
 30 54  1  0  0  0  0
 31 55  1  0  0  0  0
 33 56  1  0  0  0  0
 35 57  1  0  0  0  0
 36 58  1  0  0  0  0
 38 59  1  0  0  0  0
 39 60  1  0  0  0  0
 62 63  4  0  0  0  0
 63 64  1  0  0  0  0
 64 65  2  0  0  0  0
 65 66  4  0  0  0  0
 61 67  1  0  0  0  0
 63 67  4  0  0  0  0
 66 67  4  0  0  0  0
 66 68  4  0  0  0  0
 68 69  1  0  0  0  0
 69 70  4  0  0  0  0
 70 71  4  0  0  0  0
 71 72  4  0  0  0  0
 72 73  1  0  0  0  0
 73 74  2  0  0  0  0
 72 75  4  0  0  0  0
 69 76  4  0  0  0  0
 75 76  4  0  0  0  0
 68 77  4  0  0  0  0
 77 78  4  0  0  0  0
 78 79  2  0  0  0  0
 61 80  1  0  0  0  0
 77 80  4  0  0  0  0
 79 81  4  0  0  0  0
 80 81  4  0  0  0  0
 81 82  4  0  0  0  0
 82 83  4  0  0  0  0
 83 84  4  0  0  0  0
 84 85  2  0  0  0  0
 85 86  4  0  0  0  0
 61 87  1  0  0  0  0
 83 87  4  0  0  0  0
 86 87  4  0  0  0  0
 86 88  4  0  0  0  0
 88 89  1  0  0  0  0
 89 90  4  0  0  0  0
 90 91  4  0  0  0  0
 91 92  4  0  0  0  0
 92 93  1  0  0  0  0
 93 94  2  0  0  0  0
 92 95  4  0  0  0  0
 89 96  4  0  0  0  0
 95 96  4  0  0  0  0
 88 97  4  0  0  0  0
 97 98  4  0  0  0  0
 98 99  2  0  0  0  0
 62100  4  0  0  0  0
 99100  1  0  0  0  0
 61101  1  0  0  0  0
 97101  4  0  0  0  0
100101  4  0  0  0  0
 62102  1  0  0  0  0
 64103  1  0  0  0  0
 65104  1  0  0  0  0
 70105  1  0  0  0  0
 71106  1  0  0  0  0
 73107  1  0  0  0  0
 75108  1  0  0  0  0
 76109  1  0  0  0  0
 78110  1  0  0  0  0
 79111  1  0  0  0  0
 84112  1  0  0  0  0
 85113  1  0  0  0  0
 90114  1  0  0  0  0
 91115  1  0  0  0  0
 93116  1  0  0  0  0
 95117  1  0  0  0  0
 96118  1  0  0  0  0
 98119  1  0  0  0  0
 99120  1  0  0  0  0
 22122  4  0  0  0  0
121122  3  0  0  0  0
121123  4  0  0  0  0
 82124  4  0  0  0  0
123124  3  0  0  0  0
M  END
