 xtb: 6.5.1 (b24c23e)
          07302208513D

268307  0     0  0            999 V2000
   57.8462    0.0563   -0.0229 Zn  0  0  0  0  0  0  0  0  0  0  0  0
   54.4320    0.1573   -0.0907 C   0  0  0  0  0  0  0  0  0  0  0  0
   55.0623    1.0615    0.7557 C   0  0  0  0  0  0  0  0  0  0  0  0
   54.3887    1.9945    1.6142 C   0  0  0  0  0  0  0  0  0  0  0  0
   55.3482    2.6844    2.2810 C   0  0  0  0  0  0  0  0  0  0  0  0
   56.6208    2.1890    1.8281 C   0  0  0  0  0  0  0  0  0  0  0  0
   56.4118    1.2014    0.9102 N   0  0  0  0  0  0  0  0  0  0  0  0
   57.8715    2.6280    2.2799 C   0  0  0  0  0  0  0  0  0  0  0  0
   57.8829    3.7343    3.2683 C   0  0  0  0  0  0  0  0  0  0  0  0
   57.3457    4.9834    2.9454 C   0  0  0  0  0  0  0  0  0  0  0  0
   57.3614    6.0186    3.8613 C   0  0  0  0  0  0  0  0  0  0  0  0
   57.9109    5.8324    5.1354 C   0  0  0  0  0  0  0  0  0  0  0  0
   57.8527    6.8840    6.0405 N   0  0  0  0  0  0  0  0  0  0  0  0
   58.8059    6.9349    7.1414 C   0  0  0  0  0  0  0  0  0  0  0  0
   58.4342    4.5805    5.4696 C   0  0  0  0  0  0  0  0  0  0  0  0
   58.4249    3.5526    4.5414 C   0  0  0  0  0  0  0  0  0  0  0  0
   59.1101    2.1157    1.8756 C   0  0  0  0  0  0  0  0  0  0  0  0
   60.3860    2.6069    2.3132 C   0  0  0  0  0  0  0  0  0  0  0  0
   61.3350    1.8695    1.6821 C   0  0  0  0  0  0  0  0  0  0  0  0
   59.3107    1.0973    0.9810 N   0  0  0  0  0  0  0  0  0  0  0  0
   60.6550    0.9292    0.8434 C   0  0  0  0  0  0  0  0  0  0  0  0
   61.2943   -0.0159    0.0126 C   0  0  0  0  0  0  0  0  0  0  0  0
   60.6312   -0.9599   -0.8009 C   0  0  0  0  0  0  0  0  0  0  0  0
   61.2852   -1.9714   -1.5744 C   0  0  0  0  0  0  0  0  0  0  0  0
   60.3187   -2.6819   -2.2096 C   0  0  0  0  0  0  0  0  0  0  0  0
   59.0586   -2.1017   -1.8415 C   0  0  0  0  0  0  0  0  0  0  0  0
   59.2847   -1.0652   -0.9739 N   0  0  0  0  0  0  0  0  0  0  0  0
   57.8090   -2.5474   -2.2889 C   0  0  0  0  0  0  0  0  0  0  0  0
   57.7954   -3.6710   -3.2570 C   0  0  0  0  0  0  0  0  0  0  0  0
   58.4157   -3.5517   -4.5017 C   0  0  0  0  0  0  0  0  0  0  0  0
   58.4035   -4.5955   -5.4116 C   0  0  0  0  0  0  0  0  0  0  0  0
   57.7775   -5.8019   -5.0868 C   0  0  0  0  0  0  0  0  0  0  0  0
   57.6946   -6.8641   -5.9777 N   0  0  0  0  0  0  0  0  0  0  0  0
   58.7031   -7.0051   -7.0197 C   0  0  0  0  0  0  0  0  0  0  0  0
   57.1496   -5.9256   -3.8417 C   0  0  0  0  0  0  0  0  0  0  0  0
   57.1569   -4.8742   -2.9443 C   0  0  0  0  0  0  0  0  0  0  0  0
   56.5700   -2.0224   -1.9010 C   0  0  0  0  0  0  0  0  0  0  0  0
   55.2898   -2.4421   -2.4057 C   0  0  0  0  0  0  0  0  0  0  0  0
   54.3476   -1.6855   -1.7885 C   0  0  0  0  0  0  0  0  0  0  0  0
   55.0405   -0.7880   -0.9078 C   0  0  0  0  0  0  0  0  0  0  0  0
   56.3841   -1.0126   -1.0027 N   0  0  0  0  0  0  0  0  0  0  0  0
   53.3470    0.1910   -0.1140 H   0  0  0  0  0  0  0  0  0  0  0  0
   53.3175    2.0934    1.6964 H   0  0  0  0  0  0  0  0  0  0  0  0
   55.2099    3.4528    3.0247 H   0  0  0  0  0  0  0  0  0  0  0  0
   56.9320    5.1473    1.9563 H   0  0  0  0  0  0  0  0  0  0  0  0
   56.9478    6.9856    3.5946 H   0  0  0  0  0  0  0  0  0  0  0  0
   57.7473    7.7824    5.5842 H   0  0  0  0  0  0  0  0  0  0  0  0
   59.8380    6.8337    6.7866 H   0  0  0  0  0  0  0  0  0  0  0  0
   58.5929    6.1398    7.8571 H   0  0  0  0  0  0  0  0  0  0  0  0
   58.6897    7.8956    7.6432 H   0  0  0  0  0  0  0  0  0  0  0  0
   58.8475    4.4000    6.4544 H   0  0  0  0  0  0  0  0  0  0  0  0
   58.8266    2.5832    4.8160 H   0  0  0  0  0  0  0  0  0  0  0  0
   60.5380    3.4196    3.0050 H   0  0  0  0  0  0  0  0  0  0  0  0
   62.4044    1.9523    1.7774 H   0  0  0  0  0  0  0  0  0  0  0  0
   62.3498   -2.1279   -1.6129 H   0  0  0  0  0  0  0  0  0  0  0  0
   60.4483   -3.5333   -2.8582 H   0  0  0  0  0  0  0  0  0  0  0  0
   58.8973   -2.6173   -4.7693 H   0  0  0  0  0  0  0  0  0  0  0  0
   58.8802   -4.4630   -6.3752 H   0  0  0  0  0  0  0  0  0  0  0  0
   57.4975   -7.7435   -5.5148 H   0  0  0  0  0  0  0  0  0  0  0  0
   58.5900   -6.2114   -7.7593 H   0  0  0  0  0  0  0  0  0  0  0  0
   58.5467   -7.9649   -7.5122 H   0  0  0  0  0  0  0  0  0  0  0  0
   59.7178   -6.9708   -6.6066 H   0  0  0  0  0  0  0  0  0  0  0  0
   56.6569   -6.8569   -3.5827 H   0  0  0  0  0  0  0  0  0  0  0  0
   56.6817   -4.9907   -1.9763 H   0  0  0  0  0  0  0  0  0  0  0  0
   55.1359   -3.2083   -3.1487 H   0  0  0  0  0  0  0  0  0  0  0  0
   53.2769   -1.7184   -1.9170 H   0  0  0  0  0  0  0  0  0  0  0  0
   90.6696    0.0496    0.0011 Zn  0  0  0  0  0  0  0  0  0  0  0  0
   94.0839    0.1165   -0.0769 C   0  0  0  0  0  0  0  0  0  0  0  0
   93.4680   -0.9100   -0.7829 C   0  0  0  0  0  0  0  0  0  0  0  0
   94.1563   -1.9431   -1.5043 C   0  0  0  0  0  0  0  0  0  0  0  0
   93.2080   -2.7493   -2.0444 C   0  0  0  0  0  0  0  0  0  0  0  0
   91.9277   -2.2115   -1.6681 C   0  0  0  0  0  0  0  0  0  0  0  0
   92.1211   -1.1020   -0.8980 N   0  0  0  0  0  0  0  0  0  0  0  0
   90.6845   -2.7583   -2.0094 C   0  0  0  0  0  0  0  0  0  0  0  0
   90.6903   -3.9558   -2.8853 C   0  0  0  0  0  0  0  0  0  0  0  0
   91.2354   -3.8921   -4.1706 C   0  0  0  0  0  0  0  0  0  0  0  0
   91.2339   -5.0009   -4.9959 C   0  0  0  0  0  0  0  0  0  0  0  0
   90.6908   -6.2137   -4.5559 C   0  0  0  0  0  0  0  0  0  0  0  0
   90.7622   -7.3148   -5.3994 N   0  0  0  0  0  0  0  0  0  0  0  0
   89.8112   -8.4062   -5.2343 C   0  0  0  0  0  0  0  0  0  0  0  0
   90.1602   -6.2883   -3.2653 C   0  0  0  0  0  0  0  0  0  0  0  0
   90.1557   -5.1690   -2.4494 C   0  0  0  0  0  0  0  0  0  0  0  0
   89.4385   -2.2667   -1.6020 C   0  0  0  0  0  0  0  0  0  0  0  0
   88.1698   -2.8152   -1.9897 C   0  0  0  0  0  0  0  0  0  0  0  0
   87.2103   -2.0505   -1.4092 C   0  0  0  0  0  0  0  0  0  0  0  0
   89.2231   -1.1735   -0.8042 N   0  0  0  0  0  0  0  0  0  0  0  0
   87.8767   -1.0181   -0.6741 C   0  0  0  0  0  0  0  0  0  0  0  0
   87.2233   -0.0017    0.0550 C   0  0  0  0  0  0  0  0  0  0  0  0
   87.8699    1.0231    0.7788 C   0  0  0  0  0  0  0  0  0  0  0  0
   87.1976    2.0202    1.5556 C   0  0  0  0  0  0  0  0  0  0  0  0
   88.1522    2.8075    2.1139 C   0  0  0  0  0  0  0  0  0  0  0  0
   89.4229    2.3102    1.6683 C   0  0  0  0  0  0  0  0  0  0  0  0
   89.2144    1.2198    0.8647 N   0  0  0  0  0  0  0  0  0  0  0  0
   90.6658    2.8475    2.0243 C   0  0  0  0  0  0  0  0  0  0  0  0
   90.6637    4.0417    2.9042 C   0  0  0  0  0  0  0  0  0  0  0  0
   90.0514    5.2298    2.5021 C   0  0  0  0  0  0  0  0  0  0  0  0
   90.0462    6.3463    3.3215 C   0  0  0  0  0  0  0  0  0  0  0  0
   90.6466    6.2942    4.5823 C   0  0  0  0  0  0  0  0  0  0  0  0
   90.7095    7.3956    5.4262 N   0  0  0  0  0  0  0  0  0  0  0  0
   89.6968    8.4377    5.3189 C   0  0  0  0  0  0  0  0  0  0  0  0
   91.2690    5.1076    4.9875 C   0  0  0  0  0  0  0  0  0  0  0  0
   91.2787    4.0014    4.1586 C   0  0  0  0  0  0  0  0  0  0  0  0
   91.9126    2.3528    1.6218 C   0  0  0  0  0  0  0  0  0  0  0  0
   93.1862    2.9433    1.9367 C   0  0  0  0  0  0  0  0  0  0  0  0
   94.1399    2.1777    1.3487 C   0  0  0  0  0  0  0  0  0  0  0  0
   93.4609    1.1170    0.6595 C   0  0  0  0  0  0  0  0  0  0  0  0
   92.1142    1.2530    0.8400 N   0  0  0  0  0  0  0  0  0  0  0  0
   95.1691    0.1390   -0.1032 H   0  0  0  0  0  0  0  0  0  0  0  0
   95.2290   -2.0358   -1.5741 H   0  0  0  0  0  0  0  0  0  0  0  0
   93.3584   -3.6389   -2.6350 H   0  0  0  0  0  0  0  0  0  0  0  0
   91.6439   -2.9543   -4.5314 H   0  0  0  0  0  0  0  0  0  0  0  0
   91.6533   -4.9349   -5.9945 H   0  0  0  0  0  0  0  0  0  0  0  0
   90.8766   -7.0513   -6.3710 H   0  0  0  0  0  0  0  0  0  0  0  0
   88.7776   -8.0417   -5.2171 H   0  0  0  0  0  0  0  0  0  0  0  0
   90.0172   -8.9448   -4.3084 H   0  0  0  0  0  0  0  0  0  0  0  0
   89.9375   -9.0924   -6.0719 H   0  0  0  0  0  0  0  0  0  0  0  0
   89.7518   -7.2185   -2.8894 H   0  0  0  0  0  0  0  0  0  0  0  0
   89.7488   -5.2424   -1.4466 H   0  0  0  0  0  0  0  0  0  0  0  0
   88.0292   -3.6688   -2.6331 H   0  0  0  0  0  0  0  0  0  0  0  0
   86.1422   -2.1729   -1.4729 H   0  0  0  0  0  0  0  0  0  0  0  0
   86.1296    2.1017    1.6658 H   0  0  0  0  0  0  0  0  0  0  0  0
   88.0071    3.6437    2.7787 H   0  0  0  0  0  0  0  0  0  0  0  0
   89.5900    5.2863    1.5221 H   0  0  0  0  0  0  0  0  0  0  0  0
   89.5756    7.2570    2.9716 H   0  0  0  0  0  0  0  0  0  0  0  0
   90.8888    7.1353    6.3888 H   0  0  0  0  0  0  0  0  0  0  0  0
   89.8230    8.9871    4.3852 H   0  0  0  0  0  0  0  0  0  0  0  0
   89.8348    9.1283    6.1509 H   0  0  0  0  0  0  0  0  0  0  0  0
   88.6836    8.0211    5.3579 H   0  0  0  0  0  0  0  0  0  0  0  0
   91.7435    5.0597    5.9621 H   0  0  0  0  0  0  0  0  0  0  0  0
   91.7487    3.0831    4.4936 H   0  0  0  0  0  0  0  0  0  0  0  0
   93.3283    3.8386    2.5207 H   0  0  0  0  0  0  0  0  0  0  0  0
   95.2098    2.3155    1.3661 H   0  0  0  0  0  0  0  0  0  0  0  0
   62.7050   -0.0142   -0.0086 C   0  0  0  0  0  0  0  0  0  0  0  0
   63.9234    0.0085   -0.0495 C   0  0  0  0  0  0  0  0  0  0  0  0
   73.6534    0.0054   -0.0510 C   0  0  0  0  0  0  0  0  0  0  0  0
   74.8724    0.0038   -0.0431 C   0  0  0  0  0  0  0  0  0  0  0  0
   84.5938   -0.0016    0.0449 C   0  0  0  0  0  0  0  0  0  0  0  0
   85.8129   -0.0069    0.0560 C   0  0  0  0  0  0  0  0  0  0  0  0
   68.7913    0.0254   -0.0779 Zn  0  0  0  0  0  0  0  0  0  0  0  0
   65.3335    0.0201   -0.0699 C   0  0  0  0  0  0  0  0  0  0  0  0
   65.9861   -0.9857   -0.8144 C   0  0  0  0  0  0  0  0  0  0  0  0
   65.3200   -1.9879   -1.5890 C   0  0  0  0  0  0  0  0  0  0  0  0
   66.2794   -2.7329   -2.1953 C   0  0  0  0  0  0  0  0  0  0  0  0
   67.5468   -2.1995   -1.7864 C   0  0  0  0  0  0  0  0  0  0  0  0
   67.3327   -1.1363   -0.9496 N   0  0  0  0  0  0  0  0  0  0  0  0
   68.7919   -2.6683   -2.2209 C   0  0  0  0  0  0  0  0  0  0  0  0
   68.7886   -3.8353   -3.1388 C   0  0  0  0  0  0  0  0  0  0  0  0
   68.2853   -5.0688   -2.7176 C   0  0  0  0  0  0  0  0  0  0  0  0
   68.2818   -6.1587   -3.5679 C   0  0  0  0  0  0  0  0  0  0  0  0
   68.7718   -6.0430   -4.8741 C   0  0  0  0  0  0  0  0  0  0  0  0
   68.7911   -7.1779   -5.6751 N   0  0  0  0  0  0  0  0  0  0  0  0
   68.8006   -7.0312   -7.1247 C   0  0  0  0  0  0  0  0  0  0  0  0
   69.2820   -4.8133   -5.2984 C   0  0  0  0  0  0  0  0  0  0  0  0
   69.2885   -3.7285   -4.4370 C   0  0  0  0  0  0  0  0  0  0  0  0
   70.0377   -2.1404   -1.8650 C   0  0  0  0  0  0  0  0  0  0  0  0
   71.3062   -2.6483   -2.3032 C   0  0  0  0  0  0  0  0  0  0  0  0
   72.2647   -1.8916   -1.7097 C   0  0  0  0  0  0  0  0  0  0  0  0
   70.2498   -1.0923   -1.0088 N   0  0  0  0  0  0  0  0  0  0  0  0
   71.5954   -0.9259   -0.8917 C   0  0  0  0  0  0  0  0  0  0  0  0
   72.2453    0.0154   -0.0658 C   0  0  0  0  0  0  0  0  0  0  0  0
   71.5934    0.9610    0.7545 C   0  0  0  0  0  0  0  0  0  0  0  0
   72.2575    1.8634    1.6454 C   0  0  0  0  0  0  0  0  0  0  0  0
   71.2986    2.6249    2.2329 C   0  0  0  0  0  0  0  0  0  0  0  0
   70.0364    2.1953    1.7031 C   0  0  0  0  0  0  0  0  0  0  0  0
   70.2503    1.1688    0.8218 N   0  0  0  0  0  0  0  0  0  0  0  0
   68.7919    2.7395    2.0421 C   0  0  0  0  0  0  0  0  0  0  0  0
   68.7935    3.9130    2.9482 C   0  0  0  0  0  0  0  0  0  0  0  0
   68.1257    3.8744    4.1735 C   0  0  0  0  0  0  0  0  0  0  0  0
   68.1288    4.9654    5.0264 C   0  0  0  0  0  0  0  0  0  0  0  0
   68.8050    6.1346    4.6676 C   0  0  0  0  0  0  0  0  0  0  0  0
   68.7941    7.2773    5.4567 N   0  0  0  0  0  0  0  0  0  0  0  0
   68.5850    7.1549    6.8934 C   0  0  0  0  0  0  0  0  0  0  0  0
   69.4650    6.1837    3.4339 C   0  0  0  0  0  0  0  0  0  0  0  0
   69.4636    5.0870    2.5927 C   0  0  0  0  0  0  0  0  0  0  0  0
   67.5474    2.2746    1.6003 C   0  0  0  0  0  0  0  0  0  0  0  0
   66.2852    2.8901    1.8936 C   0  0  0  0  0  0  0  0  0  0  0  0
   65.3254    2.1281    1.3085 C   0  0  0  0  0  0  0  0  0  0  0  0
   65.9877    1.0456    0.6470 C   0  0  0  0  0  0  0  0  0  0  0  0
   67.3321    1.1674    0.8226 N   0  0  0  0  0  0  0  0  0  0  0  0
   64.2521   -2.0990   -1.6683 H   0  0  0  0  0  0  0  0  0  0  0  0
   66.1395   -3.5612   -2.8711 H   0  0  0  0  0  0  0  0  0  0  0  0
   67.9092   -5.1748   -1.7059 H   0  0  0  0  0  0  0  0  0  0  0  0
   67.8975   -7.1136   -3.2246 H   0  0  0  0  0  0  0  0  0  0  0  0
   68.1279   -7.8793   -5.3672 H   0  0  0  0  0  0  0  0  0  0  0  0
   67.9912   -6.3775   -7.4697 H   0  0  0  0  0  0  0  0  0  0  0  0
   69.7569   -6.6221   -7.4528 H   0  0  0  0  0  0  0  0  0  0  0  0
   68.6762   -8.0211   -7.5640 H   0  0  0  0  0  0  0  0  0  0  0  0
   69.6766   -4.6952   -6.3002 H   0  0  0  0  0  0  0  0  0  0  0  0
   69.6718   -2.7750   -4.7840 H   0  0  0  0  0  0  0  0  0  0  0  0
   71.4472   -3.4837   -2.9698 H   0  0  0  0  0  0  0  0  0  0  0  0
   73.3333   -1.9795   -1.8135 H   0  0  0  0  0  0  0  0  0  0  0  0
   73.3214    1.8972    1.8120 H   0  0  0  0  0  0  0  0  0  0  0  0
   71.4341    3.3955    2.9748 H   0  0  0  0  0  0  0  0  0  0  0  0
   67.6124    2.9666    4.4720 H   0  0  0  0  0  0  0  0  0  0  0  0
   67.6021    4.8999    5.9707 H   0  0  0  0  0  0  0  0  0  0  0  0
   69.5541    7.9090    5.2336 H   0  0  0  0  0  0  0  0  0  0  0  0
   69.2760    6.4316    7.3416 H   0  0  0  0  0  0  0  0  0  0  0  0
   68.7484    8.1349    7.3420 H   0  0  0  0  0  0  0  0  0  0  0  0
   67.5593    6.8450    7.0970 H   0  0  0  0  0  0  0  0  0  0  0  0
   69.9797    7.0925    3.1400 H   0  0  0  0  0  0  0  0  0  0  0  0
   69.9718    5.1430    1.6362 H   0  0  0  0  0  0  0  0  0  0  0  0
   66.1499    3.7994    2.4567 H   0  0  0  0  0  0  0  0  0  0  0  0
   64.2617    2.2959    1.3061 H   0  0  0  0  0  0  0  0  0  0  0  0
   79.7306    0.0070   -0.0072 Zn  0  0  0  0  0  0  0  0  0  0  0  0
   76.2804    0.0049   -0.0337 C   0  0  0  0  0  0  0  0  0  0  0  0
   76.9392   -1.0632   -0.6794 C   0  0  0  0  0  0  0  0  0  0  0  0
   76.2856   -2.1903   -1.2716 C   0  0  0  0  0  0  0  0  0  0  0  0
   77.2492   -2.9587   -1.8426 C   0  0  0  0  0  0  0  0  0  0  0  0
   78.5039   -2.3038   -1.6075 C   0  0  0  0  0  0  0  0  0  0  0  0
   78.2819   -1.1678   -0.8753 N   0  0  0  0  0  0  0  0  0  0  0  0
   79.7488   -2.7501   -2.0680 C   0  0  0  0  0  0  0  0  0  0  0  0
   79.7568   -3.9358   -2.9558 C   0  0  0  0  0  0  0  0  0  0  0  0
   80.4865   -5.0791   -2.6167 C   0  0  0  0  0  0  0  0  0  0  0  0
   80.4919   -6.1867   -3.4432 C   0  0  0  0  0  0  0  0  0  0  0  0
   79.7751   -6.1805   -4.6460 C   0  0  0  0  0  0  0  0  0  0  0  0
   79.7719   -7.3334   -5.4194 N   0  0  0  0  0  0  0  0  0  0  0  0
   79.4863   -7.2414   -6.8449 C   0  0  0  0  0  0  0  0  0  0  0  0
   79.0389   -5.0428   -4.9880 C   0  0  0  0  0  0  0  0  0  0  0  0
   79.0330   -3.9407   -4.1500 C   0  0  0  0  0  0  0  0  0  0  0  0
   80.9870   -2.1719   -1.7606 C   0  0  0  0  0  0  0  0  0  0  0  0
   82.2482   -2.5734   -2.3138 C   0  0  0  0  0  0  0  0  0  0  0  0
   83.2025   -1.8032   -1.7297 C   0  0  0  0  0  0  0  0  0  0  0  0
   81.1960   -1.1480   -0.8754 N   0  0  0  0  0  0  0  0  0  0  0  0
   82.5374   -0.9218   -0.8196 C   0  0  0  0  0  0  0  0  0  0  0  0
   83.1843    0.0023    0.0292 C   0  0  0  0  0  0  0  0  0  0  0  0
   82.5223    0.9321    0.8597 C   0  0  0  0  0  0  0  0  0  0  0  0
   83.1711    1.8197    1.7754 C   0  0  0  0  0  0  0  0  0  0  0  0
   82.2072    2.5964    2.3345 C   0  0  0  0  0  0  0  0  0  0  0  0
   80.9561    2.1919    1.7610 C   0  0  0  0  0  0  0  0  0  0  0  0
   81.1805    1.1614    0.8873 N   0  0  0  0  0  0  0  0  0  0  0  0
   79.7128    2.7710    2.0449 C   0  0  0  0  0  0  0  0  0  0  0  0
   79.7072    3.9598    2.9291 C   0  0  0  0  0  0  0  0  0  0  0  0
   78.9731    3.9646    4.1168 C   0  0  0  0  0  0  0  0  0  0  0  0
   78.9709    5.0672    4.9543 C   0  0  0  0  0  0  0  0  0  0  0  0
   79.7094    6.2050    4.6180 C   0  0  0  0  0  0  0  0  0  0  0  0
   79.7014    7.3573    5.3934 N   0  0  0  0  0  0  0  0  0  0  0  0
   79.4185    7.2583    6.8193 C   0  0  0  0  0  0  0  0  0  0  0  0
   80.4343    6.2123    3.4204 C   0  0  0  0  0  0  0  0  0  0  0  0
   80.4372    5.1042    2.5945 C   0  0  0  0  0  0  0  0  0  0  0  0
   78.4755    2.3212    1.5684 C   0  0  0  0  0  0  0  0  0  0  0  0
   77.2158    2.9728    1.7858 C   0  0  0  0  0  0  0  0  0  0  0  0
   76.2620    2.2012    1.2027 C   0  0  0  0  0  0  0  0  0  0  0  0
   76.9269    1.0753    0.6206 C   0  0  0  0  0  0  0  0  0  0  0  0
   78.2665    1.1837    0.8347 N   0  0  0  0  0  0  0  0  0  0  0  0
   75.2253   -2.3780   -1.2381 H   0  0  0  0  0  0  0  0  0  0  0  0
   77.1220   -3.8965   -2.3590 H   0  0  0  0  0  0  0  0  0  0  0  0
   81.0381   -5.1032   -1.6831 H   0  0  0  0  0  0  0  0  0  0  0  0
   81.0537   -7.0713   -3.1616 H   0  0  0  0  0  0  0  0  0  0  0  0
   80.5647   -7.9336   -5.2255 H   0  0  0  0  0  0  0  0  0  0  0  0
   78.4412   -6.9711   -7.0001 H   0  0  0  0  0  0  0  0  0  0  0  0
   80.1273   -6.5015   -7.3381 H   0  0  0  0  0  0  0  0  0  0  0  0
   79.6617   -8.2220   -7.2876 H   0  0  0  0  0  0  0  0  0  0  0  0
   78.4678   -5.0106   -5.9078 H   0  0  0  0  0  0  0  0  0  0  0  0
   78.4730   -3.0572   -4.4368 H   0  0  0  0  0  0  0  0  0  0  0  0
   82.3862   -3.3319   -3.0675 H   0  0  0  0  0  0  0  0  0  0  0  0
   84.2638   -1.8173   -1.9124 H   0  0  0  0  0  0  0  0  0  0  0  0
   84.2289    1.8349    1.9774 H   0  0  0  0  0  0  0  0  0  0  0  0
   82.3323    3.3617    3.0836 H   0  0  0  0  0  0  0  0  0  0  0  0
   78.4116    3.0806    4.3992 H   0  0  0  0  0  0  0  0  0  0  0  0
   78.3922    5.0351    5.8694 H   0  0  0  0  0  0  0  0  0  0  0  0
   80.4954    7.9572    5.2025 H   0  0  0  0  0  0  0  0  0  0  0  0
   80.0569    6.5121    7.3062 H   0  0  0  0  0  0  0  0  0  0  0  0
   79.6001    8.2353    7.2674 H   0  0  0  0  0  0  0  0  0  0  0  0
   78.3724    6.9923    6.9754 H   0  0  0  0  0  0  0  0  0  0  0  0
   80.9970    7.0976    3.1428 H   0  0  0  0  0  0  0  0  0  0  0  0
   80.9964    5.1282    1.6655 H   0  0  0  0  0  0  0  0  0  0  0  0
   77.0790    3.9104    2.3001 H   0  0  0  0  0  0  0  0  0  0  0  0
   75.2016    2.3862    1.1547 H   0  0  0  0  0  0  0  0  0  0  0  0
  2  3  4  0  0  0  0
  3  4  1  0  0  0  0
  4  5  2  0  0  0  0
  5  6  4  0  0  0  0
  1  7  1  0  0  0  0
  3  7  4  0  0  0  0
  6  7  4  0  0  0  0
  6  8  4  0  0  0  0
  8  9  1  0  0  0  0
  9 10  4  0  0  0  0
 10 11  4  0  0  0  0
 11 12  4  0  0  0  0
 12 13  1  0  0  0  0
 13 14  1  0  0  0  0
 12 15  4  0  0  0  0
  9 16  4  0  0  0  0
 15 16  4  0  0  0  0
  8 17  4  0  0  0  0
 17 18  4  0  0  0  0
 18 19  2  0  0  0  0
  1 20  1  0  0  0  0
 17 20  4  0  0  0  0
 19 21  4  0  0  0  0
 20 21  4  0  0  0  0
 21 22  4  0  0  0  0
 22 23  4  0  0  0  0
 23 24  4  0  0  0  0
 24 25  2  0  0  0  0
 25 26  4  0  0  0  0
  1 27  1  0  0  0  0
 23 27  4  0  0  0  0
 26 27  4  0  0  0  0
 26 28  4  0  0  0  0
 28 29  1  0  0  0  0
 29 30  4  0  0  0  0
 30 31  4  0  0  0  0
 31 32  4  0  0  0  0
 32 33  1  0  0  0  0
 33 34  1  0  0  0  0
 32 35  4  0  0  0  0
 29 36  4  0  0  0  0
 35 36  4  0  0  0  0
 28 37  4  0  0  0  0
 37 38  4  0  0  0  0
 38 39  2  0  0  0  0
  2 40  4  0  0  0  0
 39 40  4  0  0  0  0
  1 41  1  0  0  0  0
 37 41  4  0  0  0  0
 40 41  4  0  0  0  0
  2 42  1  0  0  0  0
  4 43  1  0  0  0  0
  5 44  1  0  0  0  0
 10 45  1  0  0  0  0
 11 46  1  0  0  0  0
 13 47  1  0  0  0  0
 14 48  1  0  0  0  0
 14 49  1  0  0  0  0
 14 50  1  0  0  0  0
 15 51  1  0  0  0  0
 16 52  1  0  0  0  0
 18 53  1  0  0  0  0
 19 54  1  0  0  0  0
 24 55  1  0  0  0  0
 25 56  1  0  0  0  0
 30 57  1  0  0  0  0
 31 58  1  0  0  0  0
 33 59  1  0  0  0  0
 34 60  1  0  0  0  0
 34 61  1  0  0  0  0
 34 62  1  0  0  0  0
 35 63  1  0  0  0  0
 36 64  1  0  0  0  0
 38 65  1  0  0  0  0
 39 66  1  0  0  0  0
 68 69  4  0  0  0  0
 69 70  1  0  0  0  0
 70 71  2  0  0  0  0
 71 72  4  0  0  0  0
 67 73  1  0  0  0  0
 69 73  4  0  0  0  0
 72 73  4  0  0  0  0
 72 74  4  0  0  0  0
 74 75  1  0  0  0  0
 75 76  4  0  0  0  0
 76 77  4  0  0  0  0
 77 78  4  0  0  0  0
 78 79  1  0  0  0  0
 79 80  1  0  0  0  0
 78 81  4  0  0  0  0
 75 82  4  0  0  0  0
 81 82  4  0  0  0  0
 74 83  4  0  0  0  0
 83 84  4  0  0  0  0
 84 85  2  0  0  0  0
 67 86  1  0  0  0  0
 83 86  4  0  0  0  0
 85 87  4  0  0  0  0
 86 87  4  0  0  0  0
 87 88  4  0  0  0  0
 88 89  4  0  0  0  0
 89 90  4  0  0  0  0
 90 91  2  0  0  0  0
 91 92  4  0  0  0  0
 67 93  1  0  0  0  0
 89 93  4  0  0  0  0
 92 93  4  0  0  0  0
 92 94  4  0  0  0  0
 94 95  1  0  0  0  0
 95 96  4  0  0  0  0
 96 97  4  0  0  0  0
 97 98  4  0  0  0  0
 98 99  1  0  0  0  0
 99100  1  0  0  0  0
 98101  4  0  0  0  0
 95102  4  0  0  0  0
101102  4  0  0  0  0
 94103  4  0  0  0  0
103104  4  0  0  0  0
104105  2  0  0  0  0
 68106  4  0  0  0  0
105106  4  0  0  0  0
 67107  1  0  0  0  0
103107  4  0  0  0  0
106107  4  0  0  0  0
 68108  1  0  0  0  0
 70109  1  0  0  0  0
 71110  1  0  0  0  0
 76111  1  0  0  0  0
 77112  1  0  0  0  0
 79113  1  0  0  0  0
 80114  1  0  0  0  0
 80115  1  0  0  0  0
 80116  1  0  0  0  0
 81117  1  0  0  0  0
 82118  1  0  0  0  0
 84119  1  0  0  0  0
 85120  1  0  0  0  0
 90121  1  0  0  0  0
 91122  1  0  0  0  0
 96123  1  0  0  0  0
 97124  1  0  0  0  0
 99125  1  0  0  0  0
100126  1  0  0  0  0
100127  1  0  0  0  0
100128  1  0  0  0  0
101129  1  0  0  0  0
102130  1  0  0  0  0
104131  1  0  0  0  0
105132  1  0  0  0  0
 22133  4  0  0  0  0
133134  3  0  0  0  0
135136  3  0  0  0  0
 88138  4  0  0  0  0
137138  3  0  0  0  0
134140  4  0  0  0  0
140141  4  0  0  0  0
141142  4  0  0  0  0
142143  2  0  0  0  0
143144  4  0  0  0  0
139145  1  0  0  0  0
141145  4  0  0  0  0
144145  4  0  0  0  0
144146  4  0  0  0  0
146147  1  0  0  0  0
147148  4  0  0  0  0
148149  4  0  0  0  0
149150  4  0  0  0  0
150151  1  0  0  0  0
151152  1  0  0  0  0
150153  4  0  0  0  0
147154  4  0  0  0  0
153154  4  0  0  0  0
146155  4  0  0  0  0
155156  4  0  0  0  0
156157  2  0  0  0  0
139158  1  0  0  0  0
155158  4  0  0  0  0
157159  4  0  0  0  0
158159  4  0  0  0  0
135160  4  0  0  0  0
159160  4  0  0  0  0
160161  4  0  0  0  0
161162  4  0  0  0  0
162163  2  0  0  0  0
163164  4  0  0  0  0
139165  1  0  0  0  0
161165  4  0  0  0  0
164165  4  0  0  0  0
164166  4  0  0  0  0
166167  1  0  0  0  0
167168  4  0  0  0  0
168169  4  0  0  0  0
169170  4  0  0  0  0
170171  1  0  0  0  0
171172  1  0  0  0  0
170173  4  0  0  0  0
167174  4  0  0  0  0
173174  4  0  0  0  0
166175  4  0  0  0  0
175176  4  0  0  0  0
176177  2  0  0  0  0
140178  4  0  0  0  0
177178  4  0  0  0  0
139179  1  0  0  0  0
175179  4  0  0  0  0
178179  4  0  0  0  0
142180  1  0  0  0  0
143181  1  0  0  0  0
148182  1  0  0  0  0
149183  1  0  0  0  0
151184  1  0  0  0  0
152185  1  0  0  0  0
152186  1  0  0  0  0
152187  1  0  0  0  0
153188  1  0  0  0  0
154189  1  0  0  0  0
156190  1  0  0  0  0
157191  1  0  0  0  0
162192  1  0  0  0  0
163193  1  0  0  0  0
168194  1  0  0  0  0
169195  1  0  0  0  0
171196  1  0  0  0  0
172197  1  0  0  0  0
172198  1  0  0  0  0
172199  1  0  0  0  0
173200  1  0  0  0  0
174201  1  0  0  0  0
176202  1  0  0  0  0
177203  1  0  0  0  0
136205  4  0  0  0  0
205206  4  0  0  0  0
206207  4  0  0  0  0
207208  2  0  0  0  0
208209  4  0  0  0  0
204210  1  0  0  0  0
206210  4  0  0  0  0
209210  4  0  0  0  0
209211  4  0  0  0  0
211212  1  0  0  0  0
212213  4  0  0  0  0
213214  4  0  0  0  0
214215  4  0  0  0  0
215216  1  0  0  0  0
216217  1  0  0  0  0
215218  4  0  0  0  0
212219  4  0  0  0  0
218219  4  0  0  0  0
211220  4  0  0  0  0
220221  4  0  0  0  0
221222  2  0  0  0  0
204223  1  0  0  0  0
220223  4  0  0  0  0
222224  4  0  0  0  0
223224  4  0  0  0  0
137225  4  0  0  0  0
224225  4  0  0  0  0
225226  4  0  0  0  0
226227  4  0  0  0  0
227228  2  0  0  0  0
228229  4  0  0  0  0
204230  1  0  0  0  0
226230  4  0  0  0  0
229230  4  0  0  0  0
229231  4  0  0  0  0
231232  1  0  0  0  0
232233  4  0  0  0  0
233234  4  0  0  0  0
234235  4  0  0  0  0
235236  1  0  0  0  0
236237  1  0  0  0  0
235238  4  0  0  0  0
232239  4  0  0  0  0
238239  4  0  0  0  0
231240  4  0  0  0  0
240241  4  0  0  0  0
241242  2  0  0  0  0
205243  4  0  0  0  0
242243  4  0  0  0  0
204244  1  0  0  0  0
240244  4  0  0  0  0
243244  4  0  0  0  0
207245  1  0  0  0  0
208246  1  0  0  0  0
213247  1  0  0  0  0
214248  1  0  0  0  0
216249  1  0  0  0  0
217250  1  0  0  0  0
217251  1  0  0  0  0
217252  1  0  0  0  0
218253  1  0  0  0  0
219254  1  0  0  0  0
221255  1  0  0  0  0
222256  1  0  0  0  0
227257  1  0  0  0  0
228258  1  0  0  0  0
233259  1  0  0  0  0
234260  1  0  0  0  0
236261  1  0  0  0  0
237262  1  0  0  0  0
237263  1  0  0  0  0
237264  1  0  0  0  0
238265  1  0  0  0  0
239266  1  0  0  0  0
241267  1  0  0  0  0
242268  1  0  0  0  0
M  END
