268

Zn 58.574341 1.982752 1.613509
C 54.823250 0.089269 -0.046131
C 55.472883 0.942470 0.750977
C 54.808176 1.861109 1.667318
C 55.738381 2.574268 2.274582
C 57.050612 2.153278 1.764467
N 56.888814 1.109102 0.803576
C 58.236025 2.683567 2.131047
C 58.269888 3.797050 3.106938
C 57.782086 5.064156 2.756268
C 57.830285 6.116009 3.674977
C 58.371342 5.921558 4.955758
N 58.407797 7.024880 5.879752
C 58.949209 6.927335 7.231274
C 58.866763 4.649279 5.301246
C 58.817161 3.597511 4.381862
C 59.535164 2.205048 1.589434
C 60.811967 2.899130 1.797251
C 61.756420 2.189395 1.213980
N 59.691323 1.115409 0.901928
C 61.089430 1.034876 0.624732
C 61.696212 0.023503 -0.017495
C 60.945592 -1.109973 -0.601988
C 61.487325 -2.277398 -0.925377
C 60.455259 -3.068692 -1.566796
C 59.352298 -2.329617 -1.597091
N 59.571966 -1.056613 -0.987410
C 58.081745 -2.745294 -2.244712
C 58.120297 -3.846321 -3.237924
C 58.866014 -3.702944 -4.416586
C 58.923046 -4.743745 -5.347935
C 58.237158 -5.950507 -5.110716
N 58.275899 -7.040856 -6.049900
C 59.012624 -6.995209 -7.308618
C 57.499588 -6.091612 -3.924745
C 57.443884 -5.050886 -2.993898
C 56.912981 -2.143023 -1.952334
C 55.612604 -2.439794 -2.550885
C 54.740306 -1.663538 -1.937320
C 55.475059 -0.862835 -0.959404
N 56.741940 -1.133853 -0.959296
H 53.739651 0.092247 -0.027661
H 53.742735 1.950554 1.836401
H 55.539017 3.333273 3.019665
H 57.366358 5.236204 1.770952
H 57.446502 7.086570 3.386688
H 58.028218 7.950623 5.576539
H 60.021523 6.642534 7.189499
H 58.379208 6.173164 7.813533
H 58.863238 7.908970 7.743346
H 59.293275 4.461383 6.277005
H 59.204259 2.625736 4.663368
H 60.971823 3.828033 2.328750
H 62.808594 2.440344 1.194674
H 62.514053 -2.580155 -0.769142
H 60.574577 -4.066257 -1.969306
H 59.401076 -2.782217 -4.615186
H 59.504399 -4.598723 -6.248117
H 57.750882 -7.917380 -5.828402
H 58.624253 -6.172105 -7.944524
H 58.886088 -7.954116 -7.854247
H 60.093892 -6.841712 -7.108615
H 56.968327 -7.012464 -3.719316
H 56.876805 -5.184305 -2.080715
H 55.382289 -3.145421 -3.338161
H 53.677079 -1.631805 -2.136009
Zn 89.936275 -1.995708 -1.573650
C 93.687367 0.037099 -0.087924
C 93.037734 -0.926970 -0.746638
C 93.702441 -2.021677 -1.443197
C 92.772235 -2.769920 -2.006667
C 91.460004 -2.180237 -1.707128
N 91.621803 -1.014660 -0.897778
C 90.274591 -2.653692 -2.144652
C 90.240729 -3.849030 -3.018366
C 90.728530 -3.783291 -4.331456
C 90.680331 -4.909377 -5.157502
C 90.139275 -6.116867 -4.688271
N 90.102819 -7.259341 -5.563392
C 89.561407 -8.557012 -5.173296
C 89.643854 -6.176420 -3.371263
C 89.693455 -5.049694 -2.545447
C 88.975453 -2.020718 -1.795842
C 87.698650 -2.374975 -2.427855
C 86.754197 -1.650895 -1.862490
N 88.819294 -1.112018 -0.882473
C 87.421187 -0.823929 -0.864364
C 86.814405 0.023503 -0.017495
C 87.565025 0.841236 0.961133
C 87.023292 1.411564 2.029865
C 88.055358 2.210187 2.662135
C 89.158318 2.078487 1.934259
N 88.938651 1.205728 0.824960
C 90.428872 2.801203 2.198609
C 90.390319 4.010726 3.056387
C 89.644603 5.129704 2.659282
C 89.587571 6.265713 3.471784
C 90.273459 6.297525 4.701229
N 90.234718 7.451992 5.560375
C 89.497993 8.670420 5.241177
C 91.011028 5.170919 5.097712
C 91.066733 4.035417 4.285174
C 91.597636 2.384456 1.674647
C 92.898012 3.033339 1.833663
C 93.770310 2.265180 1.209991
C 93.035557 1.136115 0.641962
N 91.768676 1.195145 0.906473
H 94.770965 0.018425 -0.086800
H 94.767881 -2.206203 -1.493593
H 92.971600 -3.662664 -2.584807
H 91.144259 -2.859257 -4.714353
H 91.064114 -4.839810 -6.167580
H 90.482399 -7.165430 -6.532989
H 88.489093 -8.454101 -4.904473
H 90.131409 -8.960683 -4.310250
H 89.647379 -9.270938 -6.019544
H 89.217342 -7.087669 -2.974985
H 89.306357 -5.112377 -1.535664
H 87.538794 -3.096353 -3.218402
H 85.702023 -1.686811 -2.111605
H 85.996564 1.325155 2.359417
H 87.936039 2.820668 3.547835
H 89.109541 5.122616 1.717406
H 89.006217 7.112560 3.133837
H 90.759735 7.427088 6.464110
H 89.886364 9.111402 4.299152
H 89.624528 9.412135 6.057923
H 88.416725 8.441743 5.135020
H 91.542289 5.171370 6.041200
H 91.633811 3.173349 4.614634
H 93.128327 3.955613 2.350504
H 94.833538 2.452157 1.135669
C 63.450232 0.023503 -0.017495
C 64.672149 0.023503 -0.017495
C 73.644349 0.023503 -0.017495
C 74.866267 0.023503 -0.017495
C 83.838467 0.023503 -0.017495
C 85.060385 0.023503 -0.017495
Zn 69.488016 -2.028846 -1.589146
C 65.724364 -0.024950 0.018572
C 66.381326 -0.983529 -0.659838
C 65.739639 -2.089450 -1.374494
C 66.678608 -2.799901 -1.966920
C 67.977806 -2.192547 -1.663572
N 67.799462 -1.044059 -0.831586
C 69.161484 -2.634584 -2.135130
C 69.187891 -3.806657 -3.034806
C 69.272390 -5.100140 -2.503798
C 69.302294 -6.207941 -3.355259
C 69.250851 -6.039835 -4.748612
N 69.282695 -7.200648 -5.599663
C 69.232878 -7.133231 -7.056408
C 69.169295 -4.735940 -5.276471
C 69.137956 -3.628782 -4.423660
C 70.461910 -2.004039 -1.798543
C 71.736338 -2.376709 -2.425228
C 72.689403 -1.670955 -1.851556
N 70.628016 -1.108221 -0.875975
C 72.030421 -0.842997 -0.849494
C 72.645551 -0.024950 0.018572
C 71.896810 0.777414 1.009459
C 72.434029 1.319249 2.095177
C 71.401000 2.107989 2.737565
C 70.303069 1.996734 1.998632
N 70.525691 1.149804 0.871989
C 69.043604 2.736454 2.253061
C 69.101796 3.962748 3.085118
C 68.442002 4.016610 4.321693
C 68.512307 5.168996 5.110007
C 69.250269 6.286473 4.674157
N 69.339947 7.489052 5.460696
C 68.695619 7.652952 6.759638
C 69.916194 6.222152 3.440224
C 69.846731 5.069085 2.653836
C 67.868982 2.330034 1.734096
C 66.588975 3.017229 1.870488
C 65.700234 2.260665 1.260367
C 66.401013 1.088242 0.724943
N 67.669238 1.124351 0.995717
H 64.681948 -2.309768 -1.431806
H 66.493878 -3.677649 -2.572775
H 69.314088 -5.249548 -1.431540
H 69.365729 -7.200698 -2.927158
H 69.344857 -8.147333 -5.161354
H 68.289752 -6.645005 -7.380841
H 70.105498 -6.562663 -7.438635
H 69.265975 -8.158542 -7.482233
H 69.129810 -4.565650 -6.343720
H 69.076632 -2.632394 -4.844708
H 71.889846 -3.102782 -3.212480
H 73.742822 -1.726479 -2.091205
H 73.457783 1.219829 2.430059
H 71.517815 2.704894 3.632703
H 67.875927 3.163689 4.675970
H 67.990803 5.178495 6.057127
H 69.892486 8.294931 5.089494
H 69.084461 6.896042 7.472710
H 68.911936 8.664737 7.163291
H 67.596234 7.542863 6.652657
H 70.492342 7.067981 3.086187
H 70.369316 5.040071 1.705404
H 66.382922 3.960411 2.359038
H 64.647141 2.491521 1.174973
Zn 79.682134 -2.028846 -1.589146
C 75.918482 -0.024950 0.018572
C 76.575444 -0.983529 -0.659838
C 75.933757 -2.089450 -1.374494
C 76.872726 -2.799901 -1.966920
C 78.171924 -2.192547 -1.663572
N 77.993580 -1.044059 -0.831586
C 79.355602 -2.634584 -2.135130
C 79.382009 -3.806657 -3.034806
C 79.466508 -5.100140 -2.503798
C 79.496412 -6.207941 -3.355259
C 79.444969 -6.039835 -4.748612
N 79.476813 -7.200648 -5.599663
C 79.426996 -7.133231 -7.056408
C 79.363413 -4.735940 -5.276471
C 79.332074 -3.628782 -4.423660
C 80.656028 -2.004039 -1.798543
C 81.930456 -2.376709 -2.425228
C 82.883521 -1.670955 -1.851556
N 80.822134 -1.108221 -0.875975
C 82.224539 -0.842997 -0.849494
C 82.839668 -0.024950 0.018572
C 82.090928 0.777414 1.009459
C 82.628147 1.319249 2.095177
C 81.595118 2.107989 2.737565
C 80.497187 1.996734 1.998632
N 80.719809 1.149804 0.871989
C 79.237722 2.736454 2.253061
C 79.295914 3.962748 3.085118
C 78.636120 4.016610 4.321693
C 78.706425 5.168996 5.110007
C 79.444387 6.286473 4.674157
N 79.534065 7.489052 5.460696
C 78.889737 7.652952 6.759638
C 80.110311 6.222152 3.440224
C 80.040849 5.069085 2.653836
C 78.063100 2.330034 1.734096
C 76.783093 3.017229 1.870488
C 75.894352 2.260665 1.260367
C 76.595131 1.088242 0.724943
N 77.863356 1.124351 0.995717
H 74.876066 -2.309768 -1.431806
H 76.687996 -3.677649 -2.572775
H 79.508206 -5.249548 -1.431540
H 79.559847 -7.200698 -2.927158
H 79.538975 -8.147333 -5.161354
H 78.483870 -6.645005 -7.380841
H 80.299616 -6.562663 -7.438635
H 79.460093 -8.158542 -7.482233
H 79.323928 -4.565650 -6.343720
H 79.270750 -2.632394 -4.844708
H 82.083964 -3.102782 -3.212480
H 83.936940 -1.726479 -2.091205
H 83.651901 1.219829 2.430059
H 81.711933 2.704894 3.632703
H 78.070045 3.163689 4.675970
H 78.184921 5.178495 6.057127
H 80.086604 8.294931 5.089494
H 79.278579 6.896042 7.472710
H 79.106054 8.664737 7.163291
H 77.790351 7.542863 6.652657
H 80.686460 7.067981 3.086187
H 80.563434 5.040071 1.705404
H 76.577040 3.960411 2.359038
H 74.841259 2.491521 1.174973
