 xtb: 6.5.1 (b24c23e)
          07302208333D

114133  0     0  0            999 V2000
   15.3029   -0.0513   -0.0026 Cu  0  0  0  0  0  0  0  0  0  0  0  0
   11.8912   -0.0827   -0.0096 C   0  0  0  0  0  0  0  0  0  0  0  0
   12.5272   -1.3138   -0.0626 C   0  0  0  0  0  0  0  0  0  0  0  0
   11.8541   -2.5809   -0.0928 C   0  0  0  0  0  0  0  0  0  0  0  0
   12.8146   -3.5379   -0.1141 C   0  0  0  0  0  0  0  0  0  0  0  0
   14.0840   -2.8627   -0.1040 C   0  0  0  0  0  0  0  0  0  0  0  0
   13.8781   -1.5139   -0.0689 N   0  0  0  0  0  0  0  0  0  0  0  0
   15.3294   -3.4934   -0.0883 C   0  0  0  0  0  0  0  0  0  0  0  0
   16.5617   -2.8395   -0.0358 C   0  0  0  0  0  0  0  0  0  0  0  0
   17.8353   -3.4999   -0.0413 C   0  0  0  0  0  0  0  0  0  0  0  0
   18.7837   -2.5308   -0.0070 C   0  0  0  0  0  0  0  0  0  0  0  0
   16.7575   -1.4834   -0.0086 N   0  0  0  0  0  0  0  0  0  0  0  0
   18.1036   -1.2718    0.0060 C   0  0  0  0  0  0  0  0  0  0  0  0
   18.7477   -0.0206   -0.0007 C   0  0  0  0  0  0  0  0  0  0  0  0
   18.0804    1.2185   -0.0096 C   0  0  0  0  0  0  0  0  0  0  0  0
   18.7354    2.4893   -0.0710 C   0  0  0  0  0  0  0  0  0  0  0  0
   17.7695    3.4413   -0.0427 C   0  0  0  0  0  0  0  0  0  0  0  0
   16.5108    2.7580    0.0395 C   0  0  0  0  0  0  0  0  0  0  0  0
   15.2669    3.3911    0.0875 C   0  0  0  0  0  0  0  0  0  0  0  0
   15.2581    4.8749    0.1389 C   0  0  0  0  0  0  0  0  0  0  0  0
   14.6649    5.6179   -0.8824 C   0  0  0  0  0  0  0  0  0  0  0  0
   14.6602    7.0038   -0.8298 C   0  0  0  0  0  0  0  0  0  0  0  0
   15.2434    7.6640    0.2431 C   0  0  0  0  0  0  0  0  0  0  0  0
   15.8344    6.9320    1.2641 C   0  0  0  0  0  0  0  0  0  0  0  0
   15.8444    5.5463    1.2129 C   0  0  0  0  0  0  0  0  0  0  0  0
   14.0329    2.7377    0.0907 C   0  0  0  0  0  0  0  0  0  0  0  0
   12.7520    3.3851    0.1767 C   0  0  0  0  0  0  0  0  0  0  0  0
   11.8095    2.4106    0.1402 C   0  0  0  0  0  0  0  0  0  0  0  0
   12.5056    1.1595    0.0440 C   0  0  0  0  0  0  0  0  0  0  0  0
   13.8521    1.3862    0.0228 N   0  0  0  0  0  0  0  0  0  0  0  0
   16.7317    1.4058    0.0425 N   0  0  0  0  0  0  0  0  0  0  0  0
   15.3421   -4.9783   -0.1340 C   0  0  0  0  0  0  0  0  0  0  0  0
   14.8536   -5.6515   -1.2543 C   0  0  0  0  0  0  0  0  0  0  0  0
   14.8667   -7.0375   -1.3007 C   0  0  0  0  0  0  0  0  0  0  0  0
   15.3625   -7.7670   -0.2287 C   0  0  0  0  0  0  0  0  0  0  0  0
   15.8472   -7.1044    0.8908 C   0  0  0  0  0  0  0  0  0  0  0  0
   15.8398   -5.7183    0.9390 C   0  0  0  0  0  0  0  0  0  0  0  0
   10.8062   -0.0925    0.0020 H   0  0  0  0  0  0  0  0  0  0  0  0
   10.7828   -2.7075   -0.0907 H   0  0  0  0  0  0  0  0  0  0  0  0
   12.6832   -4.6080   -0.1232 H   0  0  0  0  0  0  0  0  0  0  0  0
   17.9824   -4.5671   -0.0774 H   0  0  0  0  0  0  0  0  0  0  0  0
   19.8531   -2.6530    0.0043 H   0  0  0  0  0  0  0  0  0  0  0  0
   19.8003    2.6305   -0.1397 H   0  0  0  0  0  0  0  0  0  0  0  0
   17.8947    4.5109   -0.0905 H   0  0  0  0  0  0  0  0  0  0  0  0
   14.2209    5.1046   -1.7282 H   0  0  0  0  0  0  0  0  0  0  0  0
   14.2002    7.5710   -1.6314 H   0  0  0  0  0  0  0  0  0  0  0  0
   15.2377    8.7474    0.2835 H   0  0  0  0  0  0  0  0  0  0  0  0
   16.2896    7.4427    2.1055 H   0  0  0  0  0  0  0  0  0  0  0  0
   16.2960    4.9758    2.0169 H   0  0  0  0  0  0  0  0  0  0  0  0
   12.6006    4.4489    0.2652 H   0  0  0  0  0  0  0  0  0  0  0  0
   10.7367    2.5148    0.1814 H   0  0  0  0  0  0  0  0  0  0  0  0
   14.4765   -5.0825   -2.0969 H   0  0  0  0  0  0  0  0  0  0  0  0
   14.4890   -7.5501   -2.1786 H   0  0  0  0  0  0  0  0  0  0  0  0
   15.3707   -8.8505   -0.2655 H   0  0  0  0  0  0  0  0  0  0  0  0
   16.2327   -7.6699    1.7320 H   0  0  0  0  0  0  0  0  0  0  0  0
   16.2085   -5.2026    1.8188 H   0  0  0  0  0  0  0  0  0  0  0  0
   26.2366    0.0514    0.0008 Cu  0  0  0  0  0  0  0  0  0  0  0  0
   29.6482    0.0839   -0.0048 C   0  0  0  0  0  0  0  0  0  0  0  0
   29.0120    1.3160   -0.0047 C   0  0  0  0  0  0  0  0  0  0  0  0
   29.6848    2.5834    0.0195 C   0  0  0  0  0  0  0  0  0  0  0  0
   28.7241    3.5402    0.0388 C   0  0  0  0  0  0  0  0  0  0  0  0
   27.4548    2.8649    0.0198 C   0  0  0  0  0  0  0  0  0  0  0  0
   27.6611    1.5159   -0.0028 N   0  0  0  0  0  0  0  0  0  0  0  0
   26.2093    3.4940    0.0630 C   0  0  0  0  0  0  0  0  0  0  0  0
   24.9771    2.8381    0.0879 C   0  0  0  0  0  0  0  0  0  0  0  0
   23.7034    3.4978    0.1114 C   0  0  0  0  0  0  0  0  0  0  0  0
   22.7552    2.5278    0.1043 C   0  0  0  0  0  0  0  0  0  0  0  0
   24.7817    1.4820    0.0567 N   0  0  0  0  0  0  0  0  0  0  0  0
   23.4356    1.2696    0.0628 C   0  0  0  0  0  0  0  0  0  0  0  0
   22.7919    0.0197    0.0018 C   0  0  0  0  0  0  0  0  0  0  0  0
   23.4594   -1.2177   -0.0607 C   0  0  0  0  0  0  0  0  0  0  0  0
   22.8046   -2.4847   -0.1770 C   0  0  0  0  0  0  0  0  0  0  0  0
   23.7707   -3.4369   -0.1900 C   0  0  0  0  0  0  0  0  0  0  0  0
   25.0293   -2.7576   -0.0786 C   0  0  0  0  0  0  0  0  0  0  0  0
   26.2735   -3.3918   -0.0589 C   0  0  0  0  0  0  0  0  0  0  0  0
   26.2830   -4.8764   -0.0727 C   0  0  0  0  0  0  0  0  0  0  0  0
   26.8769   -5.5734   -1.1256 C   0  0  0  0  0  0  0  0  0  0  0  0
   26.8826   -6.9603   -1.1337 C   0  0  0  0  0  0  0  0  0  0  0  0
   26.2999   -7.6674   -0.0908 C   0  0  0  0  0  0  0  0  0  0  0  0
   25.7086   -6.9813    0.9614 C   0  0  0  0  0  0  0  0  0  0  0  0
   25.6971   -5.5947    0.9707 C   0  0  0  0  0  0  0  0  0  0  0  0
   27.5073   -2.7387   -0.0277 C   0  0  0  0  0  0  0  0  0  0  0  0
   28.7884   -3.3889    0.0290 C   0  0  0  0  0  0  0  0  0  0  0  0
   29.7306   -2.4136    0.0351 C   0  0  0  0  0  0  0  0  0  0  0  0
   29.0342   -1.1596   -0.0055 C   0  0  0  0  0  0  0  0  0  0  0  0
   27.6877   -1.3856   -0.0360 N   0  0  0  0  0  0  0  0  0  0  0  0
   24.8082   -1.4068   -0.0170 N   0  0  0  0  0  0  0  0  0  0  0  0
   26.1955    4.9795    0.0818 C   0  0  0  0  0  0  0  0  0  0  0  0
   26.6831    5.7015   -1.0080 C   0  0  0  0  0  0  0  0  0  0  0  0
   26.6672    7.0882   -0.9943 C   0  0  0  0  0  0  0  0  0  0  0  0
   26.1697    7.7696    0.1082 C   0  0  0  0  0  0  0  0  0  0  0  0
   25.6862    7.0582    1.1979 C   0  0  0  0  0  0  0  0  0  0  0  0
   25.6964    5.6713    1.1858 C   0  0  0  0  0  0  0  0  0  0  0  0
   30.7333    0.0934    0.0074 H   0  0  0  0  0  0  0  0  0  0  0  0
   30.7561    2.7099    0.0273 H   0  0  0  0  0  0  0  0  0  0  0  0
   28.8552    4.6098    0.0752 H   0  0  0  0  0  0  0  0  0  0  0  0
   23.5560    4.5655    0.1214 H   0  0  0  0  0  0  0  0  0  0  0  0
   21.6858    2.6492    0.1215 H   0  0  0  0  0  0  0  0  0  0  0  0
   21.7397   -2.6230   -0.2516 H   0  0  0  0  0  0  0  0  0  0  0  0
   23.6456   -4.5034   -0.2839 H   0  0  0  0  0  0  0  0  0  0  0  0
   27.3209   -5.0232   -1.9477 H   0  0  0  0  0  0  0  0  0  0  0  0
   27.3425   -7.4914   -1.9598 H   0  0  0  0  0  0  0  0  0  0  0  0
   26.3065   -8.7515   -0.0982 H   0  0  0  0  0  0  0  0  0  0  0  0
   25.2546   -7.5288    1.7801 H   0  0  0  0  0  0  0  0  0  0  0  0
   25.2450   -5.0603    1.7989 H   0  0  0  0  0  0  0  0  0  0  0  0
   28.9402   -4.4555    0.0705 H   0  0  0  0  0  0  0  0  0  0  0  0
   30.8035   -2.5193    0.0709 H   0  0  0  0  0  0  0  0  0  0  0  0
   27.0613    5.1704   -1.8745 H   0  0  0  0  0  0  0  0  0  0  0  0
   27.0440    7.6392   -1.8490 H   0  0  0  0  0  0  0  0  0  0  0  0
   26.1590    8.8537    0.1182 H   0  0  0  0  0  0  0  0  0  0  0  0
   25.2994    7.5859    2.0627 H   0  0  0  0  0  0  0  0  0  0  0  0
   25.3287    5.1172    2.0423 H   0  0  0  0  0  0  0  0  0  0  0  0
   20.1607   -0.0069   -0.0089 C   0  0  0  0  0  0  0  0  0  0  0  0
   21.3789    0.0061   -0.0073 C   0  0  0  0  0  0  0  0  0  0  0  0
  2  3  4  0  0  0  0
  3  4  1  0  0  0  0
  4  5  2  0  0  0  0
  5  6  4  0  0  0  0
  1  7  1  0  0  0  0
  3  7  4  0  0  0  0
  6  7  4  0  0  0  0
  6  8  4  0  0  0  0
  8  9  4  0  0  0  0
  9 10  4  0  0  0  0
 10 11  2  0  0  0  0
  1 12  1  0  0  0  0
  9 12  4  0  0  0  0
 11 13  4  0  0  0  0
 12 13  4  0  0  0  0
 13 14  4  0  0  0  0
 14 15  4  0  0  0  0
 15 16  4  0  0  0  0
 16 17  2  0  0  0  0
 17 18  4  0  0  0  0
 18 19  4  0  0  0  0
 19 20  1  0  0  0  0
 20 21  4  0  0  0  0
 21 22  4  0  0  0  0
 22 23  4  0  0  0  0
 23 24  4  0  0  0  0
 20 25  4  0  0  0  0
 24 25  4  0  0  0  0
 19 26  4  0  0  0  0
 26 27  4  0  0  0  0
 27 28  2  0  0  0  0
  2 29  4  0  0  0  0
 28 29  1  0  0  0  0
  1 30  1  0  0  0  0
 26 30  4  0  0  0  0
 29 30  4  0  0  0  0
  1 31  1  0  0  0  0
 15 31  4  0  0  0  0
 18 31  4  0  0  0  0
  8 32  1  0  0  0  0
 32 33  4  0  0  0  0
 33 34  4  0  0  0  0
 34 35  4  0  0  0  0
 35 36  4  0  0  0  0
 32 37  4  0  0  0  0
 36 37  4  0  0  0  0
  2 38  1  0  0  0  0
  4 39  1  0  0  0  0
  5 40  1  0  0  0  0
 10 41  1  0  0  0  0
 11 42  1  0  0  0  0
 16 43  1  0  0  0  0
 17 44  1  0  0  0  0
 21 45  1  0  0  0  0
 22 46  1  0  0  0  0
 23 47  1  0  0  0  0
 24 48  1  0  0  0  0
 25 49  1  0  0  0  0
 27 50  1  0  0  0  0
 28 51  1  0  0  0  0
 33 52  1  0  0  0  0
 34 53  1  0  0  0  0
 35 54  1  0  0  0  0
 36 55  1  0  0  0  0
 37 56  1  0  0  0  0
 58 59  4  0  0  0  0
 59 60  1  0  0  0  0
 60 61  2  0  0  0  0
 61 62  4  0  0  0  0
 57 63  1  0  0  0  0
 59 63  4  0  0  0  0
 62 63  4  0  0  0  0
 62 64  4  0  0  0  0
 64 65  4  0  0  0  0
 65 66  4  0  0  0  0
 66 67  2  0  0  0  0
 57 68  1  0  0  0  0
 65 68  4  0  0  0  0
 67 69  4  0  0  0  0
 68 69  4  0  0  0  0
 69 70  4  0  0  0  0
 70 71  4  0  0  0  0
 71 72  4  0  0  0  0
 72 73  2  0  0  0  0
 73 74  4  0  0  0  0
 74 75  4  0  0  0  0
 75 76  1  0  0  0  0
 76 77  4  0  0  0  0
 77 78  4  0  0  0  0
 78 79  4  0  0  0  0
 79 80  4  0  0  0  0
 76 81  4  0  0  0  0
 80 81  4  0  0  0  0
 75 82  4  0  0  0  0
 82 83  4  0  0  0  0
 83 84  2  0  0  0  0
 58 85  4  0  0  0  0
 84 85  1  0  0  0  0
 57 86  1  0  0  0  0
 82 86  4  0  0  0  0
 85 86  4  0  0  0  0
 57 87  1  0  0  0  0
 71 87  4  0  0  0  0
 74 87  4  0  0  0  0
 64 88  1  0  0  0  0
 88 89  4  0  0  0  0
 89 90  4  0  0  0  0
 90 91  4  0  0  0  0
 91 92  4  0  0  0  0
 88 93  4  0  0  0  0
 92 93  4  0  0  0  0
 58 94  1  0  0  0  0
 60 95  1  0  0  0  0
 61 96  1  0  0  0  0
 66 97  1  0  0  0  0
 67 98  1  0  0  0  0
 72 99  1  0  0  0  0
 73100  1  0  0  0  0
 77101  1  0  0  0  0
 78102  1  0  0  0  0
 79103  1  0  0  0  0
 80104  1  0  0  0  0
 81105  1  0  0  0  0
 83106  1  0  0  0  0
 84107  1  0  0  0  0
 89108  1  0  0  0  0
 90109  1  0  0  0  0
 91110  1  0  0  0  0
 92111  1  0  0  0  0
 93112  1  0  0  0  0
 14113  4  0  0  0  0
 70114  4  0  0  0  0
113114  3  0  0  0  0
M  END
