 xtb: 6.5.1 (b24c23e)
          07302205223D

114133  0     0  0            999 V2000
   15.3405   -0.0523   -0.0167 Ni  0  0  0  0  0  0  0  0  0  0  0  0
   11.9500   -0.0853   -0.0167 C   0  0  0  0  0  0  0  0  0  0  0  0
   12.6108   -1.2745   -0.2468 C   0  0  0  0  0  0  0  0  0  0  0  0
   11.9443   -2.5189   -0.4829 C   0  0  0  0  0  0  0  0  0  0  0  0
   12.9049   -3.4713   -0.5296 C   0  0  0  0  0  0  0  0  0  0  0  0
   14.1593   -2.8073   -0.3263 C   0  0  0  0  0  0  0  0  0  0  0  0
   13.9697   -1.4553   -0.1819 N   0  0  0  0  0  0  0  0  0  0  0  0
   15.3694   -3.4689   -0.1666 C   0  0  0  0  0  0  0  0  0  0  0  0
   16.5665   -2.8013    0.0530 C   0  0  0  0  0  0  0  0  0  0  0  0
   17.8259   -3.4597    0.2232 C   0  0  0  0  0  0  0  0  0  0  0  0
   18.7712   -2.4904    0.2664 C   0  0  0  0  0  0  0  0  0  0  0  0
   16.7401   -1.4359    0.0162 N   0  0  0  0  0  0  0  0  0  0  0  0
   18.0921   -1.2441    0.1095 C   0  0  0  0  0  0  0  0  0  0  0  0
   18.7518   -0.0203   -0.0327 C   0  0  0  0  0  0  0  0  0  0  0  0
   18.0650    1.1898   -0.1635 C   0  0  0  0  0  0  0  0  0  0  0  0
   18.7137    2.4471   -0.3563 C   0  0  0  0  0  0  0  0  0  0  0  0
   17.7505    3.3980   -0.2952 C   0  0  0  0  0  0  0  0  0  0  0  0
   16.5130    2.7176   -0.0637 C   0  0  0  0  0  0  0  0  0  0  0  0
   15.3043    3.3651    0.1580 C   0  0  0  0  0  0  0  0  0  0  0  0
   15.2980    4.8448    0.2476 C   0  0  0  0  0  0  0  0  0  0  0  0
   14.5650    5.6092   -0.6610 C   0  0  0  0  0  0  0  0  0  0  0  0
   14.5646    6.9932   -0.5721 C   0  0  0  0  0  0  0  0  0  0  0  0
   15.2900    7.6292    0.4262 C   0  0  0  0  0  0  0  0  0  0  0  0
   16.0203    6.8754    1.3350 C   0  0  0  0  0  0  0  0  0  0  0  0
   16.0280    5.4917    1.2459 C   0  0  0  0  0  0  0  0  0  0  0  0
   14.1045    2.6795    0.2976 C   0  0  0  0  0  0  0  0  0  0  0  0
   12.8432    3.3097    0.5568 C   0  0  0  0  0  0  0  0  0  0  0  0
   11.9003    2.3400    0.4949 C   0  0  0  0  0  0  0  0  0  0  0  0
   12.5873    1.1165    0.2138 C   0  0  0  0  0  0  0  0  0  0  0  0
   13.9411    1.3265    0.1341 N   0  0  0  0  0  0  0  0  0  0  0  0
   16.7124    1.3560   -0.0341 N   0  0  0  0  0  0  0  0  0  0  0  0
   15.3815   -4.9523   -0.2321 C   0  0  0  0  0  0  0  0  0  0  0  0
   15.1109   -5.6051   -1.4346 C   0  0  0  0  0  0  0  0  0  0  0  0
   15.1223   -6.9906   -1.4966 C   0  0  0  0  0  0  0  0  0  0  0  0
   15.3984   -7.7377   -0.3596 C   0  0  0  0  0  0  0  0  0  0  0  0
   15.6661   -7.0941    0.8408 C   0  0  0  0  0  0  0  0  0  0  0  0
   15.6605   -5.7086    0.9060 C   0  0  0  0  0  0  0  0  0  0  0  0
   10.8663   -0.0974   -0.0100 H   0  0  0  0  0  0  0  0  0  0  0  0
   10.8763   -2.6306   -0.5828 H   0  0  0  0  0  0  0  0  0  0  0  0
   12.7872   -4.5334   -0.6711 H   0  0  0  0  0  0  0  0  0  0  0  0
   17.9608   -4.5271    0.2870 H   0  0  0  0  0  0  0  0  0  0  0  0
   19.8369   -2.5974    0.3848 H   0  0  0  0  0  0  0  0  0  0  0  0
   19.7712    2.5726   -0.5207 H   0  0  0  0  0  0  0  0  0  0  0  0
   17.8573    4.4650   -0.4035 H   0  0  0  0  0  0  0  0  0  0  0  0
   14.0080    5.1145   -1.4490 H   0  0  0  0  0  0  0  0  0  0  0  0
   13.9961    7.5779   -1.2867 H   0  0  0  0  0  0  0  0  0  0  0  0
   15.2865    8.7111    0.4957 H   0  0  0  0  0  0  0  0  0  0  0  0
   16.5865    7.3673    2.1182 H   0  0  0  0  0  0  0  0  0  0  0  0
   16.5902    4.9032    1.9626 H   0  0  0  0  0  0  0  0  0  0  0  0
   12.7096    4.3600    0.7588 H   0  0  0  0  0  0  0  0  0  0  0  0
   10.8332    2.4257    0.6254 H   0  0  0  0  0  0  0  0  0  0  0  0
   14.9043   -5.0215   -2.3249 H   0  0  0  0  0  0  0  0  0  0  0  0
   14.9150   -7.4888   -2.4372 H   0  0  0  0  0  0  0  0  0  0  0  0
   15.4046   -8.8207   -0.4091 H   0  0  0  0  0  0  0  0  0  0  0  0
   15.8794   -7.6738    1.7322 H   0  0  0  0  0  0  0  0  0  0  0  0
   15.8596   -5.2067    1.8463 H   0  0  0  0  0  0  0  0  0  0  0  0
   26.1986    0.0530   -0.0145 Ni  0  0  0  0  0  0  0  0  0  0  0  0
   29.5891    0.0860   -0.0129 C   0  0  0  0  0  0  0  0  0  0  0  0
   28.9284    1.2840   -0.1912 C   0  0  0  0  0  0  0  0  0  0  0  0
   29.5948    2.5375   -0.3731 C   0  0  0  0  0  0  0  0  0  0  0  0
   28.6342    3.4911   -0.3784 C   0  0  0  0  0  0  0  0  0  0  0  0
   27.3799    2.8188   -0.2041 C   0  0  0  0  0  0  0  0  0  0  0  0
   27.5694    1.4618   -0.1185 N   0  0  0  0  0  0  0  0  0  0  0  0
   26.1698    3.4729   -0.0158 C   0  0  0  0  0  0  0  0  0  0  0  0
   24.9726    2.7964    0.1746 C   0  0  0  0  0  0  0  0  0  0  0  0
   23.7132    3.4468    0.3732 C   0  0  0  0  0  0  0  0  0  0  0  0
   22.7679    2.4765    0.3743 C   0  0  0  0  0  0  0  0  0  0  0  0
   24.7990    1.4339    0.0785 N   0  0  0  0  0  0  0  0  0  0  0  0
   23.4471    1.2382    0.1634 C   0  0  0  0  0  0  0  0  0  0  0  0
   22.7873    0.0217   -0.0317 C   0  0  0  0  0  0  0  0  0  0  0  0
   23.4742   -1.1816   -0.2150 C   0  0  0  0  0  0  0  0  0  0  0  0
   22.8254   -2.4294   -0.4622 C   0  0  0  0  0  0  0  0  0  0  0  0
   23.7886   -3.3820   -0.4425 C   0  0  0  0  0  0  0  0  0  0  0  0
   25.0261   -2.7122   -0.1816 C   0  0  0  0  0  0  0  0  0  0  0  0
   26.2348   -3.3688    0.0118 C   0  0  0  0  0  0  0  0  0  0  0  0
   26.2411   -4.8510    0.0370 C   0  0  0  0  0  0  0  0  0  0  0  0
   26.9741   -5.5752   -0.9039 C   0  0  0  0  0  0  0  0  0  0  0  0
   26.9745   -6.9617   -0.8752 C   0  0  0  0  0  0  0  0  0  0  0  0
   26.2492   -7.6405    0.0945 C   0  0  0  0  0  0  0  0  0  0  0  0
   25.5189   -6.9269    1.0352 C   0  0  0  0  0  0  0  0  0  0  0  0
   25.5111   -5.5406    1.0062 C   0  0  0  0  0  0  0  0  0  0  0  0
   27.4346   -2.6899    0.1810 C   0  0  0  0  0  0  0  0  0  0  0  0
   28.6960   -3.3307    0.4126 C   0  0  0  0  0  0  0  0  0  0  0  0
   29.6388   -2.3593    0.3929 C   0  0  0  0  0  0  0  0  0  0  0  0
   28.9519   -1.1247    0.1652 C   0  0  0  0  0  0  0  0  0  0  0  0
   27.5980   -1.3311    0.0764 N   0  0  0  0  0  0  0  0  0  0  0  0
   24.8267   -1.3532   -0.0930 N   0  0  0  0  0  0  0  0  0  0  0  0
   26.1576    4.9577   -0.0168 C   0  0  0  0  0  0  0  0  0  0  0  0
   26.4282    5.6621   -1.1899 C   0  0  0  0  0  0  0  0  0  0  0  0
   26.4169    7.0490   -1.1916 C   0  0  0  0  0  0  0  0  0  0  0  0
   26.1407    7.7461   -0.0233 C   0  0  0  0  0  0  0  0  0  0  0  0
   25.8730    7.0510    1.1481 C   0  0  0  0  0  0  0  0  0  0  0  0
   25.8786    5.6639    1.1530 C   0  0  0  0  0  0  0  0  0  0  0  0
   30.6728    0.0978   -0.0058 H   0  0  0  0  0  0  0  0  0  0  0  0
   30.6628    2.6534   -0.4681 H   0  0  0  0  0  0  0  0  0  0  0  0
   28.7519    4.5583   -0.4736 H   0  0  0  0  0  0  0  0  0  0  0  0
   23.5784    4.5103    0.4833 H   0  0  0  0  0  0  0  0  0  0  0  0
   21.7022    2.5783    0.4973 H   0  0  0  0  0  0  0  0  0  0  0  0
   21.7679   -2.5476   -0.6319 H   0  0  0  0  0  0  0  0  0  0  0  0
   23.6819   -4.4433   -0.5971 H   0  0  0  0  0  0  0  0  0  0  0  0
   27.5311   -5.0468   -1.6697 H   0  0  0  0  0  0  0  0  0  0  0  0
   27.5431   -7.5149   -1.6146 H   0  0  0  0  0  0  0  0  0  0  0  0
   26.2526   -8.7244    0.1170 H   0  0  0  0  0  0  0  0  0  0  0  0
   24.9526   -7.4524    1.7963 H   0  0  0  0  0  0  0  0  0  0  0  0
   24.9489   -4.9838    1.7478 H   0  0  0  0  0  0  0  0  0  0  0  0
   28.8295   -4.3889    0.5688 H   0  0  0  0  0  0  0  0  0  0  0  0
   30.7059   -2.4506    0.5195 H   0  0  0  0  0  0  0  0  0  0  0  0
   26.6348    5.1177   -2.1046 H   0  0  0  0  0  0  0  0  0  0  0  0
   26.6241    7.5875   -2.1097 H   0  0  0  0  0  0  0  0  0  0  0  0
   26.1345    8.8302   -0.0257 H   0  0  0  0  0  0  0  0  0  0  0  0
   25.6597    7.5913    2.0637 H   0  0  0  0  0  0  0  0  0  0  0  0
   25.6795    5.1216    2.0706 H   0  0  0  0  0  0  0  0  0  0  0  0
   20.1614   -0.0044   -0.0394 C   0  0  0  0  0  0  0  0  0  0  0  0
   21.3777    0.0061   -0.0392 C   0  0  0  0  0  0  0  0  0  0  0  0
  2  3  4  0  0  0  0
  3  4  4  0  0  0  0
  4  5  2  0  0  0  0
  5  6  4  0  0  0  0
  1  7  1  0  0  0  0
  3  7  4  0  0  0  0
  6  7  4  0  0  0  0
  6  8  4  0  0  0  0
  8  9  4  0  0  0  0
  9 10  4  0  0  0  0
 10 11  2  0  0  0  0
  1 12  1  0  0  0  0
  9 12  4  0  0  0  0
 11 13  4  0  0  0  0
 12 13  4  0  0  0  0
 13 14  4  0  0  0  0
 14 15  4  0  0  0  0
 15 16  4  0  0  0  0
 16 17  2  0  0  0  0
 17 18  4  0  0  0  0
 18 19  4  0  0  0  0
 19 20  1  0  0  0  0
 20 21  4  0  0  0  0
 21 22  4  0  0  0  0
 22 23  4  0  0  0  0
 23 24  4  0  0  0  0
 20 25  4  0  0  0  0
 24 25  4  0  0  0  0
 19 26  4  0  0  0  0
 26 27  4  0  0  0  0
 27 28  2  0  0  0  0
  2 29  4  0  0  0  0
 28 29  4  0  0  0  0
  1 30  1  0  0  0  0
 26 30  4  0  0  0  0
 29 30  4  0  0  0  0
  1 31  1  0  0  0  0
 15 31  4  0  0  0  0
 18 31  4  0  0  0  0
  8 32  1  0  0  0  0
 32 33  4  0  0  0  0
 33 34  4  0  0  0  0
 34 35  4  0  0  0  0
 35 36  4  0  0  0  0
 32 37  4  0  0  0  0
 36 37  4  0  0  0  0
  2 38  1  0  0  0  0
  4 39  1  0  0  0  0
  5 40  1  0  0  0  0
 10 41  1  0  0  0  0
 11 42  1  0  0  0  0
 16 43  1  0  0  0  0
 17 44  1  0  0  0  0
 21 45  1  0  0  0  0
 22 46  1  0  0  0  0
 23 47  1  0  0  0  0
 24 48  1  0  0  0  0
 25 49  1  0  0  0  0
 27 50  1  0  0  0  0
 28 51  1  0  0  0  0
 33 52  1  0  0  0  0
 34 53  1  0  0  0  0
 35 54  1  0  0  0  0
 36 55  1  0  0  0  0
 37 56  1  0  0  0  0
 58 59  4  0  0  0  0
 59 60  4  0  0  0  0
 60 61  2  0  0  0  0
 61 62  4  0  0  0  0
 57 63  1  0  0  0  0
 59 63  4  0  0  0  0
 62 63  4  0  0  0  0
 62 64  4  0  0  0  0
 64 65  4  0  0  0  0
 65 66  4  0  0  0  0
 66 67  2  0  0  0  0
 57 68  1  0  0  0  0
 65 68  4  0  0  0  0
 67 69  4  0  0  0  0
 68 69  4  0  0  0  0
 69 70  4  0  0  0  0
 70 71  4  0  0  0  0
 71 72  4  0  0  0  0
 72 73  2  0  0  0  0
 73 74  4  0  0  0  0
 74 75  4  0  0  0  0
 75 76  1  0  0  0  0
 76 77  4  0  0  0  0
 77 78  4  0  0  0  0
 78 79  4  0  0  0  0
 79 80  4  0  0  0  0
 76 81  4  0  0  0  0
 80 81  4  0  0  0  0
 75 82  4  0  0  0  0
 82 83  4  0  0  0  0
 83 84  2  0  0  0  0
 58 85  4  0  0  0  0
 84 85  4  0  0  0  0
 57 86  1  0  0  0  0
 82 86  4  0  0  0  0
 85 86  4  0  0  0  0
 57 87  1  0  0  0  0
 71 87  4  0  0  0  0
 74 87  4  0  0  0  0
 64 88  1  0  0  0  0
 88 89  4  0  0  0  0
 89 90  4  0  0  0  0
 90 91  4  0  0  0  0
 91 92  4  0  0  0  0
 88 93  4  0  0  0  0
 92 93  4  0  0  0  0
 58 94  1  0  0  0  0
 60 95  1  0  0  0  0
 61 96  1  0  0  0  0
 66 97  1  0  0  0  0
 67 98  1  0  0  0  0
 72 99  1  0  0  0  0
 73100  1  0  0  0  0
 77101  1  0  0  0  0
 78102  1  0  0  0  0
 79103  1  0  0  0  0
 80104  1  0  0  0  0
 81105  1  0  0  0  0
 83106  1  0  0  0  0
 84107  1  0  0  0  0
 89108  1  0  0  0  0
 90109  1  0  0  0  0
 91110  1  0  0  0  0
 92111  1  0  0  0  0
 93112  1  0  0  0  0
 14113  4  0  0  0  0
 70114  4  0  0  0  0
113114  3  0  0  0  0
M  END
