636

C 134.399880 0.088689 0.281912
C 135.133325 1.261356 -0.438784
C 134.536358 2.389071 -0.954227
C 135.560601 3.158354 -1.565484
C 136.748299 2.469298 -1.408705
N 136.481943 1.338599 -0.677701
C 138.161792 2.881329 -1.983040
C 138.190983 3.939694 -2.949729
C 138.201140 4.826559 -3.760586
C 138.211297 5.878049 -4.726944
C 137.412820 5.789960 -5.861866
C 137.457232 6.834466 -6.768740
N 138.229071 7.934919 -6.617996
C 138.992718 7.985018 -5.502648
C 139.019322 6.993523 -4.537258
C 139.289885 2.227812 -1.600185
C 140.585632 2.563401 -2.155289
C 141.492669 1.753779 -1.621252
N 139.496511 1.200955 -0.716476
C 140.825986 0.867219 -0.687631
C 141.500200 -0.077653 0.020486
C 140.731238 -1.009025 1.049284
C 141.281509 -1.649169 2.142394
C 140.254090 -2.411108 2.752910
C 139.103353 -2.207459 2.021173
N 139.392131 -1.313134 1.017544
C 137.690913 -2.859362 2.297885
C 137.659918 -4.099856 3.012213
C 137.644551 -5.144008 3.606479
C 137.621084 -6.388874 4.306194
C 138.661305 -6.728897 5.163823
C 138.591106 -7.947030 5.817464
N 137.573131 -8.825791 5.673141
C 136.580215 -8.461493 4.829948
C 136.557460 -7.267272 4.130725
C 136.563384 -2.252343 1.850610
C 135.236781 -2.790070 2.097140
C 134.345570 -1.969390 1.548477
C 135.067884 -0.887424 0.924991
N 136.394785 -1.102221 1.130917
H 133.317604 0.061622 0.237524
H 133.483908 2.624005 -0.909032
H 135.440183 4.098939 -2.081472
H 137.173930 0.661874 -0.364332
H 136.775332 4.929366 -6.032916
H 136.852640 6.811969 -7.669904
H 139.605720 8.875008 -5.400250
H 139.651764 7.084845 -3.660809
H 140.787461 3.328670 -2.883212
H 142.541919 1.773977 -1.853018
H 142.310418 -1.584689 2.462390
H 140.343468 -3.037963 3.627008
H 138.706387 -0.896766 0.393030
H 139.502926 -6.062126 5.316420
H 139.378910 -8.257830 6.496740
H 135.773041 -9.180048 4.725525
H 135.735218 -7.025490 3.465767
H 135.010203 -3.691087 2.637582
H 133.277014 -2.086266 1.560485
C 292.796243 0.164116 0.214293
C 292.062798 -0.679931 1.301555
C 292.659765 -1.315050 2.366470
C 291.635522 -2.006404 3.064655
C 290.447824 -1.775560 2.396756
N 290.714180 -0.925836 1.352335
C 289.034331 -2.391329 2.743830
C 289.005140 -3.467465 3.690694
C 288.994983 -4.370031 4.484038
C 288.984826 -5.445090 5.424104
C 289.783303 -6.563683 5.213016
C 289.738890 -7.578853 6.152614
N 288.967052 -7.548776 7.262936
C 288.203404 -6.445506 7.434130
C 288.176801 -5.377938 6.553597
C 287.906238 -1.939620 2.135864
C 286.610491 -2.527951 2.409043
C 285.703453 -1.908969 1.662354
N 287.699612 -0.949399 1.211288
C 286.370136 -0.884402 0.882675
C 285.695923 -0.077653 0.020486
C 286.464885 1.046402 -0.793380
C 285.914614 2.202691 -1.310749
C 286.942033 2.892509 -2.001714
C 288.092770 2.142954 -1.878915
N 287.803992 1.047950 -1.099137
C 289.505210 2.488974 -2.496829
C 289.536204 3.334072 -3.652207
C 289.551572 4.038451 -4.625478
C 289.575039 4.869499 -5.786793
C 288.534818 5.759041 -6.031453
C 288.605016 6.541379 -7.171208
N 289.622992 6.493557 -8.060456
C 290.615908 5.615722 -7.790095
C 290.638663 4.790677 -6.679070
C 290.632739 1.978289 -1.942096
C 291.959342 2.281880 -2.449798
C 292.850552 1.647154 -1.693708
C 292.128238 0.909613 -0.686029
N 290.801338 1.137694 -0.877138
H 293.878519 0.122937 0.182556
H 293.712215 -1.295693 2.604928
H 291.755940 -2.621699 3.943493
H 290.022193 -0.540674 0.713737
H 290.420791 -6.640051 4.338918
H 290.343483 -8.472215 6.032170
H 287.590403 -6.440582 8.329978
H 287.544359 -4.516635 6.739768
H 286.408661 -3.334841 3.090540
H 284.654204 -2.141556 1.657208
H 284.885705 2.513768 -1.211824
H 286.852655 3.829640 -2.529709
H 288.489736 0.381829 -0.753214
H 287.693197 5.838161 -5.352034
H 287.817213 7.250447 -7.406230
H 291.423082 5.590126 -8.515746
H 291.460905 4.103353 -6.511098
H 292.185920 2.917177 -3.286641
H 293.919109 1.671812 -1.808583
C 147.995699 -0.076550 0.028976
C 146.786760 -0.090005 0.020529
C 145.365231 -0.081186 0.008546
C 144.153562 -0.073747 0.019409
C 149.412304 -0.083225 0.029510
C 150.633000 -0.073747 0.019409
C 164.547251 -0.076550 0.028976
C 163.338312 -0.090005 0.020529
C 161.916783 -0.081186 0.008546
C 160.705113 -0.073747 0.019409
C 165.963855 -0.083225 0.029510
C 167.184551 -0.073747 0.019409
C 181.098802 -0.076550 0.028976
C 179.889863 -0.090005 0.020529
C 178.468334 -0.081186 0.008546
C 177.256665 -0.073747 0.019409
C 182.515407 -0.083225 0.029510
C 183.736103 -0.073747 0.019409
C 197.650354 -0.076550 0.028976
C 196.441415 -0.090005 0.020529
C 195.019886 -0.081186 0.008546
C 193.808216 -0.073747 0.019409
C 199.066958 -0.083225 0.029510
C 200.287654 -0.073747 0.019409
C 214.201905 -0.076550 0.028976
C 212.992966 -0.090005 0.020529
C 211.571437 -0.081186 0.008546
C 210.359768 -0.073747 0.019409
C 215.618510 -0.083225 0.029510
C 216.839206 -0.073747 0.019409
C 230.753457 -0.076550 0.028976
C 229.544518 -0.090005 0.020529
C 228.122989 -0.081186 0.008546
C 226.911319 -0.073747 0.019409
C 232.170061 -0.083225 0.029510
C 233.390757 -0.073747 0.019409
C 247.305008 -0.076550 0.028976
C 246.096069 -0.090005 0.020529
C 244.674540 -0.081186 0.008546
C 243.462871 -0.073747 0.019409
C 248.721613 -0.083225 0.029510
C 249.942309 -0.073747 0.019409
C 263.856560 -0.076550 0.028976
C 262.647621 -0.090005 0.020529
C 261.226092 -0.081186 0.008546
C 260.014422 -0.073747 0.019409
C 265.273164 -0.083225 0.029510
C 266.493860 -0.073747 0.019409
C 280.408111 -0.076550 0.028976
C 279.199172 -0.090005 0.020529
C 277.777643 -0.081186 0.008546
C 276.565974 -0.073747 0.019409
C 281.824716 -0.083225 0.029510
C 283.045411 -0.073747 0.019409
C 152.096537 0.028331 -0.007469
C 152.894152 0.095430 -1.374442
C 152.404615 0.502640 -2.598079
C 153.446993 0.337907 -3.546416
C 154.540872 -0.160473 -2.870842
N 154.215928 -0.236057 -1.540050
C 155.925525 -0.573514 -3.501218
C 155.913637 -1.054053 -4.850571
C 155.887223 -1.465480 -5.979250
C 155.858252 -1.970637 -7.314593
C 156.616007 -3.086463 -7.652871
C 156.553262 -3.541701 -8.958059
N 155.800482 -2.967399 -9.923842
C 155.076199 -1.885755 -9.557737
C 155.070597 -1.353744 -8.280060
C 157.062261 -0.508711 -2.762961
C 158.350823 -0.893205 -3.301521
C 159.265869 -0.730663 -2.351866
N 157.277502 -0.121185 -1.469042
C 158.606814 -0.234190 -1.160142
C 159.277255 0.028331 -0.007469
C 158.483093 0.559059 1.258775
C 158.992147 1.314384 2.295341
C 157.951393 1.488734 3.243303
C 156.836254 0.841704 2.752539
N 157.150374 0.343673 1.512472
C 155.443305 0.692293 3.479155
C 155.436840 0.764016 4.909853
C 155.428510 0.847113 6.108849
C 155.401538 0.963700 7.532134
C 154.310067 1.554072 8.160497
C 154.330462 1.651535 9.541068
N 155.346778 1.207916 10.315545
C 156.390135 0.638163 9.669498
C 156.465003 0.493618 8.294671
C 154.309269 0.486779 2.762784
C 153.018451 0.321348 3.400187
C 152.105020 0.135456 2.453423
C 152.766535 0.178798 1.164956
N 154.097344 0.384455 1.415880
H 151.405475 0.861621 -2.791713
H 153.400964 0.544710 -4.604614
H 154.865309 -0.448708 -0.788530
H 157.236521 -3.586589 -6.916856
H 157.126010 -4.409408 -9.270184
H 154.477319 -1.440838 -10.346229
H 154.469155 -0.483697 -8.041053
H 158.541343 -1.248944 -4.298234
H 160.314547 -0.939953 -2.466518
H 160.004244 1.682598 2.373323
H 158.013607 2.013654 4.184687
H 156.492480 -0.088128 0.868748
H 153.468682 1.929331 7.587464
H 153.501900 2.104962 10.076907
H 157.195175 0.287606 10.308486
H 157.327297 0.028835 7.828781
H 152.824996 0.339181 4.457549
H 151.056095 -0.017083 2.631764
C 168.648089 0.028331 -0.007469
C 169.445703 0.095430 -1.374442
C 168.956167 0.502640 -2.598079
C 169.998545 0.337907 -3.546416
C 171.092423 -0.160473 -2.870842
N 170.767480 -0.236057 -1.540050
C 172.477077 -0.573514 -3.501218
C 172.465188 -1.054053 -4.850571
C 172.438775 -1.465480 -5.979250
C 172.409804 -1.970637 -7.314593
C 173.167558 -3.086463 -7.652871
C 173.104814 -3.541701 -8.958059
N 172.352033 -2.967399 -9.923842
C 171.627750 -1.885755 -9.557737
C 171.622148 -1.353744 -8.280060
C 173.613813 -0.508711 -2.762961
C 174.902375 -0.893205 -3.301521
C 175.817421 -0.730663 -2.351866
N 173.829053 -0.121185 -1.469042
C 175.158366 -0.234190 -1.160142
C 175.828806 0.028331 -0.007469
C 175.034644 0.559059 1.258775
C 175.543698 1.314384 2.295341
C 174.502945 1.488734 3.243303
C 173.387805 0.841704 2.752539
N 173.701925 0.343673 1.512472
C 171.994856 0.692293 3.479155
C 171.988392 0.764016 4.909853
C 171.980062 0.847113 6.108849
C 171.953090 0.963700 7.532134
C 170.861619 1.554072 8.160497
C 170.882013 1.651535 9.541068
N 171.898329 1.207916 10.315545
C 172.941686 0.638163 9.669498
C 173.016555 0.493618 8.294671
C 170.860820 0.486779 2.762784
C 169.570003 0.321348 3.400187
C 168.656571 0.135456 2.453423
C 169.318086 0.178798 1.164956
N 170.648896 0.384455 1.415880
H 167.957026 0.861621 -2.791713
H 169.952515 0.544710 -4.604614
H 171.416861 -0.448708 -0.788530
H 173.788073 -3.586589 -6.916856
H 173.677561 -4.409408 -9.270184
H 171.028870 -1.440838 -10.346229
H 171.020707 -0.483697 -8.041053
H 175.092895 -1.248944 -4.298234
H 176.866099 -0.939953 -2.466518
H 176.555795 1.682598 2.373323
H 174.565159 2.013654 4.184687
H 173.044031 -0.088128 0.868748
H 170.020233 1.929331 7.587464
H 170.053451 2.104962 10.076907
H 173.746726 0.287606 10.308486
H 173.878848 0.028835 7.828781
H 169.376548 0.339181 4.457549
H 167.607647 -0.017083 2.631764
C 185.199640 0.028331 -0.007469
C 185.997255 0.095430 -1.374442
C 185.507718 0.502640 -2.598079
C 186.550096 0.337907 -3.546416
C 187.643975 -0.160473 -2.870842
N 187.319031 -0.236057 -1.540050
C 189.028628 -0.573514 -3.501218
C 189.016740 -1.054053 -4.850571
C 188.990326 -1.465480 -5.979250
C 188.961355 -1.970637 -7.314593
C 189.719110 -3.086463 -7.652871
C 189.656365 -3.541701 -8.958059
N 188.903585 -2.967399 -9.923842
C 188.179302 -1.885755 -9.557737
C 188.173700 -1.353744 -8.280060
C 190.165364 -0.508711 -2.762961
C 191.453926 -0.893205 -3.301521
C 192.368972 -0.730663 -2.351866
N 190.380605 -0.121185 -1.469042
C 191.709917 -0.234190 -1.160142
C 192.380358 0.028331 -0.007469
C 191.586196 0.559059 1.258775
C 192.095250 1.314384 2.295341
C 191.054496 1.488734 3.243303
C 189.939357 0.841704 2.752539
N 190.253477 0.343673 1.512472
C 188.546408 0.692293 3.479155
C 188.539943 0.764016 4.909853
C 188.531613 0.847113 6.108849
C 188.504641 0.963700 7.532134
C 187.413170 1.554072 8.160497
C 187.433565 1.651535 9.541068
N 188.449881 1.207916 10.315545
C 189.493238 0.638163 9.669498
C 189.568106 0.493618 8.294671
C 187.412371 0.486779 2.762784
C 186.121554 0.321348 3.400187
C 185.208123 0.135456 2.453423
C 185.869638 0.178798 1.164956
N 187.200447 0.384455 1.415880
H 184.508577 0.861621 -2.791713
H 186.504067 0.544710 -4.604614
H 187.968412 -0.448708 -0.788530
H 190.339624 -3.586589 -6.916856
H 190.229113 -4.409408 -9.270184
H 187.580422 -1.440838 -10.346229
H 187.572258 -0.483697 -8.041053
H 191.644446 -1.248944 -4.298234
H 193.417650 -0.939953 -2.466518
H 193.107347 1.682598 2.373323
H 191.116710 2.013654 4.184687
H 189.595583 -0.088128 0.868748
H 186.571785 1.929331 7.587464
H 186.605003 2.104962 10.076907
H 190.298278 0.287606 10.308486
H 190.430400 0.028835 7.828781
H 185.928099 0.339181 4.457549
H 184.159198 -0.017083 2.631764
C 201.751192 0.028331 -0.007469
C 202.548806 0.095430 -1.374442
C 202.059270 0.502640 -2.598079
C 203.101648 0.337907 -3.546416
C 204.195526 -0.160473 -2.870842
N 203.870583 -0.236057 -1.540050
C 205.580180 -0.573514 -3.501218
C 205.568291 -1.054053 -4.850571
C 205.541878 -1.465480 -5.979250
C 205.512907 -1.970637 -7.314593
C 206.270661 -3.086463 -7.652871
C 206.207917 -3.541701 -8.958059
N 205.455136 -2.967399 -9.923842
C 204.730853 -1.885755 -9.557737
C 204.725251 -1.353744 -8.280060
C 206.716916 -0.508711 -2.762961
C 208.005478 -0.893205 -3.301521
C 208.920524 -0.730663 -2.351866
N 206.932156 -0.121185 -1.469042
C 208.261469 -0.234190 -1.160142
C 208.931909 0.028331 -0.007469
C 208.137747 0.559059 1.258775
C 208.646801 1.314384 2.295341
C 207.606048 1.488734 3.243303
C 206.490908 0.841704 2.752539
N 206.805028 0.343673 1.512472
C 205.097959 0.692293 3.479155
C 205.091495 0.764016 4.909853
C 205.083165 0.847113 6.108849
C 205.056193 0.963700 7.532134
C 203.964722 1.554072 8.160497
C 203.985116 1.651535 9.541068
N 205.001432 1.207916 10.315545
C 206.044789 0.638163 9.669498
C 206.119658 0.493618 8.294671
C 203.963923 0.486779 2.762784
C 202.673106 0.321348 3.400187
C 201.759674 0.135456 2.453423
C 202.421189 0.178798 1.164956
N 203.751999 0.384455 1.415880
H 201.060129 0.861621 -2.791713
H 203.055618 0.544710 -4.604614
H 204.519964 -0.448708 -0.788530
H 206.891176 -3.586589 -6.916856
H 206.780664 -4.409408 -9.270184
H 204.131973 -1.440838 -10.346229
H 204.123810 -0.483697 -8.041053
H 208.195998 -1.248944 -4.298234
H 209.969201 -0.939953 -2.466518
H 209.658898 1.682598 2.373323
H 207.668262 2.013654 4.184687
H 206.147134 -0.088128 0.868748
H 203.123336 1.929331 7.587464
H 203.156554 2.104962 10.076907
H 206.849829 0.287606 10.308486
H 206.981951 0.028835 7.828781
H 202.479651 0.339181 4.457549
H 200.710750 -0.017083 2.631764
C 218.302743 0.028331 -0.007469
C 219.100358 0.095430 -1.374442
C 218.610821 0.502640 -2.598079
C 219.653199 0.337907 -3.546416
C 220.747078 -0.160473 -2.870842
N 220.422134 -0.236057 -1.540050
C 222.131731 -0.573514 -3.501218
C 222.119843 -1.054053 -4.850571
C 222.093429 -1.465480 -5.979250
C 222.064458 -1.970637 -7.314593
C 222.822213 -3.086463 -7.652871
C 222.759468 -3.541701 -8.958059
N 222.006688 -2.967399 -9.923842
C 221.282405 -1.885755 -9.557737
C 221.276803 -1.353744 -8.280060
C 223.268467 -0.508711 -2.762961
C 224.557029 -0.893205 -3.301521
C 225.472075 -0.730663 -2.351866
N 223.483708 -0.121185 -1.469042
C 224.813020 -0.234190 -1.160142
C 225.483461 0.028331 -0.007469
C 224.689299 0.559059 1.258775
C 225.198353 1.314384 2.295341
C 224.157599 1.488734 3.243303
C 223.042460 0.841704 2.752539
N 223.356580 0.343673 1.512472
C 221.649511 0.692293 3.479155
C 221.643046 0.764016 4.909853
C 221.634716 0.847113 6.108849
C 221.607744 0.963700 7.532134
C 220.516273 1.554072 8.160497
C 220.536668 1.651535 9.541068
N 221.552984 1.207916 10.315545
C 222.596341 0.638163 9.669498
C 222.671209 0.493618 8.294671
C 220.515474 0.486779 2.762784
C 219.224657 0.321348 3.400187
C 218.311226 0.135456 2.453423
C 218.972741 0.178798 1.164956
N 220.303550 0.384455 1.415880
H 217.611680 0.861621 -2.791713
H 219.607170 0.544710 -4.604614
H 221.071515 -0.448708 -0.788530
H 223.442727 -3.586589 -6.916856
H 223.332216 -4.409408 -9.270184
H 220.683525 -1.440838 -10.346229
H 220.675361 -0.483697 -8.041053
H 224.747549 -1.248944 -4.298234
H 226.520753 -0.939953 -2.466518
H 226.210450 1.682598 2.373323
H 224.219813 2.013654 4.184687
H 222.698686 -0.088128 0.868748
H 219.674888 1.929331 7.587464
H 219.708106 2.104962 10.076907
H 223.401381 0.287606 10.308486
H 223.533503 0.028835 7.828781
H 219.031202 0.339181 4.457549
H 217.262301 -0.017083 2.631764
C 234.854295 0.028331 -0.007469
C 235.651909 0.095430 -1.374442
C 235.162373 0.502640 -2.598079
C 236.204751 0.337907 -3.546416
C 237.298629 -0.160473 -2.870842
N 236.973686 -0.236057 -1.540050
C 238.683283 -0.573514 -3.501218
C 238.671394 -1.054053 -4.850571
C 238.644981 -1.465480 -5.979250
C 238.616010 -1.970637 -7.314593
C 239.373764 -3.086463 -7.652871
C 239.311020 -3.541701 -8.958059
N 238.558239 -2.967399 -9.923842
C 237.833956 -1.885755 -9.557737
C 237.828354 -1.353744 -8.280060
C 239.820019 -0.508711 -2.762961
C 241.108581 -0.893205 -3.301521
C 242.023627 -0.730663 -2.351866
N 240.035259 -0.121185 -1.469042
C 241.364572 -0.234190 -1.160142
C 242.035012 0.028331 -0.007469
C 241.240850 0.559059 1.258775
C 241.749904 1.314384 2.295341
C 240.709151 1.488734 3.243303
C 239.594011 0.841704 2.752539
N 239.908131 0.343673 1.512472
C 238.201062 0.692293 3.479155
C 238.194598 0.764016 4.909853
C 238.186268 0.847113 6.108849
C 238.159296 0.963700 7.532134
C 237.067825 1.554072 8.160497
C 237.088219 1.651535 9.541068
N 238.104535 1.207916 10.315545
C 239.147892 0.638163 9.669498
C 239.222761 0.493618 8.294671
C 237.067026 0.486779 2.762784
C 235.776209 0.321348 3.400187
C 234.862777 0.135456 2.453423
C 235.524292 0.178798 1.164956
N 236.855102 0.384455 1.415880
H 234.163232 0.861621 -2.791713
H 236.158721 0.544710 -4.604614
H 237.623067 -0.448708 -0.788530
H 239.994279 -3.586589 -6.916856
H 239.883767 -4.409408 -9.270184
H 237.235076 -1.440838 -10.346229
H 237.226913 -0.483697 -8.041053
H 241.299101 -1.248944 -4.298234
H 243.072304 -0.939953 -2.466518
H 242.762001 1.682598 2.373323
H 240.771365 2.013654 4.184687
H 239.250237 -0.088128 0.868748
H 236.226439 1.929331 7.587464
H 236.259657 2.104962 10.076907
H 239.952932 0.287606 10.308486
H 240.085054 0.028835 7.828781
H 235.582754 0.339181 4.457549
H 233.813853 -0.017083 2.631764
C 251.405846 0.028331 -0.007469
C 252.203461 0.095430 -1.374442
C 251.713924 0.502640 -2.598079
C 252.756302 0.337907 -3.546416
C 253.850181 -0.160473 -2.870842
N 253.525237 -0.236057 -1.540050
C 255.234834 -0.573514 -3.501218
C 255.222946 -1.054053 -4.850571
C 255.196532 -1.465480 -5.979250
C 255.167561 -1.970637 -7.314593
C 255.925316 -3.086463 -7.652871
C 255.862571 -3.541701 -8.958059
N 255.109791 -2.967399 -9.923842
C 254.385508 -1.885755 -9.557737
C 254.379906 -1.353744 -8.280060
C 256.371570 -0.508711 -2.762961
C 257.660132 -0.893205 -3.301521
C 258.575178 -0.730663 -2.351866
N 256.586811 -0.121185 -1.469042
C 257.916123 -0.234190 -1.160142
C 258.586564 0.028331 -0.007469
C 257.792402 0.559059 1.258775
C 258.301456 1.314384 2.295341
C 257.260702 1.488734 3.243303
C 256.145563 0.841704 2.752539
N 256.459683 0.343673 1.512472
C 254.752613 0.692293 3.479155
C 254.746149 0.764016 4.909853
C 254.737819 0.847113 6.108849
C 254.710847 0.963700 7.532134
C 253.619376 1.554072 8.160497
C 253.639771 1.651535 9.541068
N 254.656087 1.207916 10.315545
C 255.699444 0.638163 9.669498
C 255.774312 0.493618 8.294671
C 253.618577 0.486779 2.762784
C 252.327760 0.321348 3.400187
C 251.414329 0.135456 2.453423
C 252.075844 0.178798 1.164956
N 253.406653 0.384455 1.415880
H 250.714783 0.861621 -2.791713
H 252.710273 0.544710 -4.604614
H 254.174618 -0.448708 -0.788530
H 256.545830 -3.586589 -6.916856
H 256.435319 -4.409408 -9.270184
H 253.786628 -1.440838 -10.346229
H 253.778464 -0.483697 -8.041053
H 257.850652 -1.248944 -4.298234
H 259.623856 -0.939953 -2.466518
H 259.313553 1.682598 2.373323
H 257.322916 2.013654 4.184687
H 255.801789 -0.088128 0.868748
H 252.777991 1.929331 7.587464
H 252.811209 2.104962 10.076907
H 256.504484 0.287606 10.308486
H 256.636606 0.028835 7.828781
H 252.134305 0.339181 4.457549
H 250.365404 -0.017083 2.631764
C 267.957398 0.028331 -0.007469
C 268.755012 0.095430 -1.374442
C 268.265476 0.502640 -2.598079
C 269.307854 0.337907 -3.546416
C 270.401732 -0.160473 -2.870842
N 270.076789 -0.236057 -1.540050
C 271.786386 -0.573514 -3.501218
C 271.774497 -1.054053 -4.850571
C 271.748084 -1.465480 -5.979250
C 271.719113 -1.970637 -7.314593
C 272.476867 -3.086463 -7.652871
C 272.414123 -3.541701 -8.958059
N 271.661342 -2.967399 -9.923842
C 270.937059 -1.885755 -9.557737
C 270.931457 -1.353744 -8.280060
C 272.923122 -0.508711 -2.762961
C 274.211684 -0.893205 -3.301521
C 275.126730 -0.730663 -2.351866
N 273.138362 -0.121185 -1.469042
C 274.467675 -0.234190 -1.160142
C 275.138115 0.028331 -0.007469
C 274.343953 0.559059 1.258775
C 274.853007 1.314384 2.295341
C 273.812254 1.488734 3.243303
C 272.697114 0.841704 2.752539
N 273.011234 0.343673 1.512472
C 271.304165 0.692293 3.479155
C 271.297701 0.764016 4.909853
C 271.289371 0.847113 6.108849
C 271.262399 0.963700 7.532134
C 270.170928 1.554072 8.160497
C 270.191322 1.651535 9.541068
N 271.207638 1.207916 10.315545
C 272.250995 0.638163 9.669498
C 272.325864 0.493618 8.294671
C 270.170129 0.486779 2.762784
C 268.879312 0.321348 3.400187
C 267.965880 0.135456 2.453423
C 268.627395 0.178798 1.164956
N 269.958205 0.384455 1.415880
H 267.266335 0.861621 -2.791713
H 269.261824 0.544710 -4.604614
H 270.726170 -0.448708 -0.788530
H 273.097382 -3.586589 -6.916856
H 272.986870 -4.409408 -9.270184
H 270.338179 -1.440838 -10.346229
H 270.330016 -0.483697 -8.041053
H 274.402204 -1.248944 -4.298234
H 276.175407 -0.939953 -2.466518
H 275.865104 1.682598 2.373323
H 273.874468 2.013654 4.184687
H 272.353340 -0.088128 0.868748
H 269.329542 1.929331 7.587464
H 269.362760 2.104962 10.076907
H 273.056035 0.287606 10.308486
H 273.188157 0.028835 7.828781
H 268.685857 0.339181 4.457549
H 266.916956 -0.017083 2.631764
