 xtb: 6.5.1 (b24c23e)
          07302201253D

254293  0     0  0            999 V2000
   43.0209    0.0285    0.0435 Fe  0  0  0  0  0  0  0  0  0  0  0  0
   39.6353    0.0379    0.1522 C   0  0  0  0  0  0  0  0  0  0  0  0
   40.2852    1.2547    0.1850 C   0  0  0  0  0  0  0  0  0  0  0  0
   39.6109    2.5169    0.2294 C   0  0  0  0  0  0  0  0  0  0  0  0
   40.5691    3.4643    0.3623 C   0  0  0  0  0  0  0  0  0  0  0  0
   41.8272    2.7769    0.4152 C   0  0  0  0  0  0  0  0  0  0  0  0
   41.6424    1.4302    0.2577 N   0  0  0  0  0  0  0  0  0  0  0  0
   43.0468    3.3991    0.6619 C   0  0  0  0  0  0  0  0  0  0  0  0
   43.0580    4.8552    0.9321 C   0  0  0  0  0  0  0  0  0  0  0  0
   42.3670    5.3775    2.0280 C   0  0  0  0  0  0  0  0  0  0  0  0
   42.3788    6.7365    2.2854 C   0  0  0  0  0  0  0  0  0  0  0  0
   43.0805    7.6034    1.4423 C   0  0  0  0  0  0  0  0  0  0  0  0
   43.0921    9.0030    1.7023 C   0  0  0  0  0  0  0  0  0  0  0  0
   43.1001   10.1343    1.9121 N   0  0  0  0  0  0  0  0  0  0  0  0
   43.7712    7.0858    0.3426 C   0  0  0  0  0  0  0  0  0  0  0  0
   43.7610    5.7248    0.0952 C   0  0  0  0  0  0  0  0  0  0  0  0
   44.2527    2.7119    0.6772 C   0  0  0  0  0  0  0  0  0  0  0  0
   45.5139    3.3104    1.0004 C   0  0  0  0  0  0  0  0  0  0  0  0
   46.4578    2.3560    0.8172 C   0  0  0  0  0  0  0  0  0  0  0  0
   44.4250    1.3898    0.3439 N   0  0  0  0  0  0  0  0  0  0  0  0
   45.7709    1.1777    0.3893 C   0  0  0  0  0  0  0  0  0  0  0  0
   46.4281    0.0084   -0.0136 C   0  0  0  0  0  0  0  0  0  0  0  0
   45.7452   -1.1474   -0.4133 C   0  0  0  0  0  0  0  0  0  0  0  0
   46.4041   -2.3246   -0.8856 C   0  0  0  0  0  0  0  0  0  0  0  0
   45.4411   -3.2586   -1.0752 C   0  0  0  0  0  0  0  0  0  0  0  0
   44.1977   -2.6517   -0.7025 C   0  0  0  0  0  0  0  0  0  0  0  0
   44.3977   -1.3400   -0.3427 N   0  0  0  0  0  0  0  0  0  0  0  0
   42.9860   -3.3267   -0.6533 C   0  0  0  0  0  0  0  0  0  0  0  0
   42.9654   -4.7747   -0.9632 C   0  0  0  0  0  0  0  0  0  0  0  0
   42.2116   -5.2566   -2.0360 C   0  0  0  0  0  0  0  0  0  0  0  0
   42.1907   -6.6077   -2.3315 C   0  0  0  0  0  0  0  0  0  0  0  0
   42.9218   -7.5073   -1.5498 C   0  0  0  0  0  0  0  0  0  0  0  0
   42.8996   -8.8992   -1.8480 C   0  0  0  0  0  0  0  0  0  0  0  0
   42.8805  -10.0237   -2.0918 N   0  0  0  0  0  0  0  0  0  0  0  0
   43.6744   -7.0304   -0.4725 C   0  0  0  0  0  0  0  0  0  0  0  0
   43.6964   -5.6770   -0.1871 C   0  0  0  0  0  0  0  0  0  0  0  0
   41.7879   -2.7025   -0.3200 C   0  0  0  0  0  0  0  0  0  0  0  0
   40.5328   -3.3859   -0.1937 C   0  0  0  0  0  0  0  0  0  0  0  0
   39.5932   -2.4392    0.0382 C   0  0  0  0  0  0  0  0  0  0  0  0
   40.2756   -1.1806    0.0607 C   0  0  0  0  0  0  0  0  0  0  0  0
   41.6227   -1.3595   -0.1189 N   0  0  0  0  0  0  0  0  0  0  0  0
   38.5520    0.0401    0.1936 H   0  0  0  0  0  0  0  0  0  0  0  0
   38.5418    2.6420    0.1649 H   0  0  0  0  0  0  0  0  0  0  0  0
   40.4475    4.5338    0.4181 H   0  0  0  0  0  0  0  0  0  0  0  0
   41.8317    4.7069    2.6907 H   0  0  0  0  0  0  0  0  0  0  0  0
   41.8458    7.1339    3.1412 H   0  0  0  0  0  0  0  0  0  0  0  0
   44.3135    7.7553   -0.3148 H   0  0  0  0  0  0  0  0  0  0  0  0
   44.2887    5.3278   -0.7646 H   0  0  0  0  0  0  0  0  0  0  0  0
   45.6488    4.3274    1.3308 H   0  0  0  0  0  0  0  0  0  0  0  0
   47.5249    2.4291    0.9525 H   0  0  0  0  0  0  0  0  0  0  0  0
   47.4665   -2.4097   -1.0477 H   0  0  0  0  0  0  0  0  0  0  0  0
   45.5527   -4.2677   -1.4370 H   0  0  0  0  0  0  0  0  0  0  0  0
   41.6522   -4.5603   -2.6505 H   0  0  0  0  0  0  0  0  0  0  0  0
   41.6089   -6.9736   -3.1693 H   0  0  0  0  0  0  0  0  0  0  0  0
   44.2388   -7.7256    0.1379 H   0  0  0  0  0  0  0  0  0  0  0  0
   44.2716   -5.3121    0.6563 H   0  0  0  0  0  0  0  0  0  0  0  0
   40.4015   -4.4532   -0.2689 H   0  0  0  0  0  0  0  0  0  0  0  0
   38.5313   -2.5619    0.1803 H   0  0  0  0  0  0  0  0  0  0  0  0
   98.6854   -0.0016    0.0200 Fe  0  0  0  0  0  0  0  0  0  0  0  0
  102.0734   -0.0031    0.1477 C   0  0  0  0  0  0  0  0  0  0  0  0
  101.4215   -1.2139    0.2601 C   0  0  0  0  0  0  0  0  0  0  0  0
  102.0952   -2.4719    0.3759 C   0  0  0  0  0  0  0  0  0  0  0  0
  101.1365   -3.4098    0.5602 C   0  0  0  0  0  0  0  0  0  0  0  0
   99.8785   -2.7203    0.5719 C   0  0  0  0  0  0  0  0  0  0  0  0
  100.0646   -1.3826    0.3499 N   0  0  0  0  0  0  0  0  0  0  0  0
   98.6576   -3.3318    0.8345 C   0  0  0  0  0  0  0  0  0  0  0  0
   98.6457   -4.7746    1.1702 C   0  0  0  0  0  0  0  0  0  0  0  0
   99.3148   -5.2422    2.3036 C   0  0  0  0  0  0  0  0  0  0  0  0
   99.3015   -6.5878    2.6242 C   0  0  0  0  0  0  0  0  0  0  0  0
   98.6205   -7.4958    1.8079 C   0  0  0  0  0  0  0  0  0  0  0  0
   98.6053   -8.8815    2.1340 C   0  0  0  0  0  0  0  0  0  0  0  0
   98.5980  -10.0014    2.3987 N   0  0  0  0  0  0  0  0  0  0  0  0
   97.9527   -7.0331    0.6702 C   0  0  0  0  0  0  0  0  0  0  0  0
   97.9643   -5.6852    0.3595 C   0  0  0  0  0  0  0  0  0  0  0  0
   97.4501   -2.6478    0.8028 C   0  0  0  0  0  0  0  0  0  0  0  0
   96.1865   -3.2401    1.1274 C   0  0  0  0  0  0  0  0  0  0  0  0
   95.2421   -2.2964    0.8980 C   0  0  0  0  0  0  0  0  0  0  0  0
   97.2795   -1.3372    0.4258 N   0  0  0  0  0  0  0  0  0  0  0  0
   95.9312   -1.1297    0.4429 C   0  0  0  0  0  0  0  0  0  0  0  0
   95.2750    0.0295    0.0150 C   0  0  0  0  0  0  0  0  0  0  0  0
   95.9561    1.1748   -0.4125 C   0  0  0  0  0  0  0  0  0  0  0  0
   95.2946    2.3383   -0.9138 C   0  0  0  0  0  0  0  0  0  0  0  0
   96.2579    3.2614   -1.1490 C   0  0  0  0  0  0  0  0  0  0  0  0
   97.5046    2.6620   -0.7756 C   0  0  0  0  0  0  0  0  0  0  0  0
   97.3052    1.3675   -0.3589 N   0  0  0  0  0  0  0  0  0  0  0  0
   98.7212    3.3300   -0.7861 C   0  0  0  0  0  0  0  0  0  0  0  0
   98.7427    4.7605   -1.1701 C   0  0  0  0  0  0  0  0  0  0  0  0
   99.4639    5.1792   -2.2907 C   0  0  0  0  0  0  0  0  0  0  0  0
   99.4834    6.5126   -2.6579 C   0  0  0  0  0  0  0  0  0  0  0  0
   98.7835    7.4578   -1.9020 C   0  0  0  0  0  0  0  0  0  0  0  0
   98.8029    8.8313   -2.2759 C   0  0  0  0  0  0  0  0  0  0  0  0
   98.8201    9.9416   -2.5779 N   0  0  0  0  0  0  0  0  0  0  0  0
   98.0640    7.0443   -0.7768 C   0  0  0  0  0  0  0  0  0  0  0  0
   98.0433    5.7081   -0.4194 C   0  0  0  0  0  0  0  0  0  0  0  0
   99.9229    2.7148   -0.4522 C   0  0  0  0  0  0  0  0  0  0  0  0
  101.1838    3.3967   -0.3925 C   0  0  0  0  0  0  0  0  0  0  0  0
  102.1231    2.4598   -0.1234 C   0  0  0  0  0  0  0  0  0  0  0  0
  101.4350    1.2089   -0.0129 C   0  0  0  0  0  0  0  0  0  0  0  0
  100.0850    1.3848   -0.1729 N   0  0  0  0  0  0  0  0  0  0  0  0
  103.1571   -0.0055    0.1787 H   0  0  0  0  0  0  0  0  0  0  0  0
  103.1642   -2.6009    0.3179 H   0  0  0  0  0  0  0  0  0  0  0  0
  101.2572   -4.4748    0.6749 H   0  0  0  0  0  0  0  0  0  0  0  0
   99.8340   -4.5391    2.9450 H   0  0  0  0  0  0  0  0  0  0  0  0
   99.8170   -6.9425    3.5090 H   0  0  0  0  0  0  0  0  0  0  0  0
   97.4268   -7.7349    0.0335 H   0  0  0  0  0  0  0  0  0  0  0  0
   97.4541   -5.3310   -0.5291 H   0  0  0  0  0  0  0  0  0  0  0  0
   96.0499   -4.2465    1.4882 H   0  0  0  0  0  0  0  0  0  0  0  0
   94.1734   -2.3693    1.0194 H   0  0  0  0  0  0  0  0  0  0  0  0
   94.2304    2.4217   -1.0645 H   0  0  0  0  0  0  0  0  0  0  0  0
   96.1447    4.2576   -1.5445 H   0  0  0  0  0  0  0  0  0  0  0  0
   99.9987    4.4471   -2.8851 H   0  0  0  0  0  0  0  0  0  0  0  0
  100.0394    6.8292   -3.5325 H   0  0  0  0  0  0  0  0  0  0  0  0
   97.5239    7.7751   -0.1863 H   0  0  0  0  0  0  0  0  0  0  0  0
   97.4935    5.3925    0.4601 H   0  0  0  0  0  0  0  0  0  0  0  0
  101.3188    4.4567   -0.5342 H   0  0  0  0  0  0  0  0  0  0  0  0
  103.1883    2.5838   -0.0107 H   0  0  0  0  0  0  0  0  0  0  0  0
   47.8280   -0.0020   -0.0254 C   0  0  0  0  0  0  0  0  0  0  0  0
   49.0545   -0.0106   -0.0291 C   0  0  0  0  0  0  0  0  0  0  0  0
   50.3934   -0.0154   -0.0353 C   0  0  0  0  0  0  0  0  0  0  0  0
   51.6265   -0.0164   -0.0393 C   0  0  0  0  0  0  0  0  0  0  0  0
   52.9605   -0.0156   -0.0415 C   0  0  0  0  0  0  0  0  0  0  0  0
   54.1937   -0.0138   -0.0418 C   0  0  0  0  0  0  0  0  0  0  0  0
   55.5323   -0.0113   -0.0402 C   0  0  0  0  0  0  0  0  0  0  0  0
   56.7593   -0.0068   -0.0398 C   0  0  0  0  0  0  0  0  0  0  0  0
   66.3805    0.0133    0.0122 C   0  0  0  0  0  0  0  0  0  0  0  0
   67.6075    0.0145    0.0196 C   0  0  0  0  0  0  0  0  0  0  0  0
   68.9459    0.0158    0.0251 C   0  0  0  0  0  0  0  0  0  0  0  0
   70.1793    0.0161    0.0276 C   0  0  0  0  0  0  0  0  0  0  0  0
   71.5129    0.0178    0.0284 C   0  0  0  0  0  0  0  0  0  0  0  0
   72.7462    0.0198    0.0269 C   0  0  0  0  0  0  0  0  0  0  0  0
   74.0847    0.0239    0.0229 C   0  0  0  0  0  0  0  0  0  0  0  0
   75.3117    0.0269    0.0164 C   0  0  0  0  0  0  0  0  0  0  0  0
   84.9403    0.0568   -0.0155 C   0  0  0  0  0  0  0  0  0  0  0  0
   86.1663    0.0584   -0.0147 C   0  0  0  0  0  0  0  0  0  0  0  0
   87.5067    0.0597   -0.0131 C   0  0  0  0  0  0  0  0  0  0  0  0
   88.7388    0.0599   -0.0117 C   0  0  0  0  0  0  0  0  0  0  0  0
   90.0745    0.0577   -0.0089 C   0  0  0  0  0  0  0  0  0  0  0  0
   91.3065    0.0546   -0.0054 C   0  0  0  0  0  0  0  0  0  0  0  0
   92.6473    0.0484    0.0001 C   0  0  0  0  0  0  0  0  0  0  0  0
   93.8728    0.0403    0.0054 C   0  0  0  0  0  0  0  0  0  0  0  0
   61.5702    0.0092   -0.0284 Fe  0  0  0  0  0  0  0  0  0  0  0  0
   58.1581   -0.0017   -0.0384 C   0  0  0  0  0  0  0  0  0  0  0  0
   58.8354   -1.2000   -0.3023 C   0  0  0  0  0  0  0  0  0  0  0  0
   58.1721   -2.4434   -0.5377 C   0  0  0  0  0  0  0  0  0  0  0  0
   59.1309   -3.3320   -0.8965 C   0  0  0  0  0  0  0  0  0  0  0  0
   60.3747   -2.6220   -0.8869 C   0  0  0  0  0  0  0  0  0  0  0  0
   60.1815   -1.3271   -0.4730 N   0  0  0  0  0  0  0  0  0  0  0  0
   61.5838   -3.1596   -1.3123 C   0  0  0  0  0  0  0  0  0  0  0  0
   61.5885   -4.5301   -1.8729 C   0  0  0  0  0  0  0  0  0  0  0  0
   60.8438   -4.8287   -3.0163 C   0  0  0  0  0  0  0  0  0  0  0  0
   60.8502   -6.1062   -3.5467 C   0  0  0  0  0  0  0  0  0  0  0  0
   61.5995   -7.1154   -2.9346 C   0  0  0  0  0  0  0  0  0  0  0  0
   61.6059   -8.4324   -3.4753 C   0  0  0  0  0  0  0  0  0  0  0  0
   61.6100   -9.4959   -3.9146 N   0  0  0  0  0  0  0  0  0  0  0  0
   62.3425   -6.8224   -1.7872 C   0  0  0  0  0  0  0  0  0  0  0  0
   62.3379   -5.5409   -1.2666 C   0  0  0  0  0  0  0  0  0  0  0  0
   62.7883   -2.4713   -1.2342 C   0  0  0  0  0  0  0  0  0  0  0  0
   64.0394   -2.9821   -1.7090 C   0  0  0  0  0  0  0  0  0  0  0  0
   64.9912   -2.0931   -1.3331 C   0  0  0  0  0  0  0  0  0  0  0  0
   62.9707   -1.2537   -0.6252 N   0  0  0  0  0  0  0  0  0  0  0  0
   64.3161   -1.0395   -0.6433 C   0  0  0  0  0  0  0  0  0  0  0  0
   64.9819    0.0126    0.0003 C   0  0  0  0  0  0  0  0  0  0  0  0
   64.3032    1.0658    0.6283 C   0  0  0  0  0  0  0  0  0  0  0  0
   64.9645    2.1259    1.3215 C   0  0  0  0  0  0  0  0  0  0  0  0
   64.0055    3.0181    1.6703 C   0  0  0  0  0  0  0  0  0  0  0  0
   62.7636    2.5014    1.1780 C   0  0  0  0  0  0  0  0  0  0  0  0
   62.9580    1.2788    0.5834 N   0  0  0  0  0  0  0  0  0  0  0  0
   61.5562    3.1870    1.2330 C   0  0  0  0  0  0  0  0  0  0  0  0
   61.5509    4.5637    1.7784 C   0  0  0  0  0  0  0  0  0  0  0  0
   60.7938    4.8738    2.9105 C   0  0  0  0  0  0  0  0  0  0  0  0
   60.7912    6.1576    3.4255 C   0  0  0  0  0  0  0  0  0  0  0  0
   61.5438    7.1616    2.8089 C   0  0  0  0  0  0  0  0  0  0  0  0
   61.5409    8.4848    3.3342 C   0  0  0  0  0  0  0  0  0  0  0  0
   61.5385    9.5543    3.7588 N   0  0  0  0  0  0  0  0  0  0  0  0
   62.2998    6.8569    1.6731 C   0  0  0  0  0  0  0  0  0  0  0  0
   62.3042    5.5692    1.1680 C   0  0  0  0  0  0  0  0  0  0  0  0
   60.3535    2.6397    0.8020 C   0  0  0  0  0  0  0  0  0  0  0  0
   59.1052    3.3418    0.7994 C   0  0  0  0  0  0  0  0  0  0  0  0
   58.1534    2.4432    0.4466 C   0  0  0  0  0  0  0  0  0  0  0  0
   58.8259    1.2023    0.2241 C   0  0  0  0  0  0  0  0  0  0  0  0
   60.1705    1.3399    0.3987 N   0  0  0  0  0  0  0  0  0  0  0  0
   57.1101   -2.6008   -0.4405 H   0  0  0  0  0  0  0  0  0  0  0  0
   59.0157   -4.3750   -1.1424 H   0  0  0  0  0  0  0  0  0  0  0  0
   60.2707   -4.0456   -3.4997 H   0  0  0  0  0  0  0  0  0  0  0  0
   60.2759   -6.3291   -4.4383 H   0  0  0  0  0  0  0  0  0  0  0  0
   62.9209   -7.6034   -1.3077 H   0  0  0  0  0  0  0  0  0  0  0  0
   62.9062   -5.3196   -0.3703 H   0  0  0  0  0  0  0  0  0  0  0  0
   64.1642   -3.8998   -2.2600 H   0  0  0  0  0  0  0  0  0  0  0  0
   66.0554   -2.1348   -1.4999 H   0  0  0  0  0  0  0  0  0  0  0  0
   66.0255    2.1698    1.5077 H   0  0  0  0  0  0  0  0  0  0  0  0
   64.1193    3.9414    2.2144 H   0  0  0  0  0  0  0  0  0  0  0  0
   60.2182    4.0949    3.3976 H   0  0  0  0  0  0  0  0  0  0  0  0
   60.2072    6.3895    4.3084 H   0  0  0  0  0  0  0  0  0  0  0  0
   62.8812    7.6337    1.1905 H   0  0  0  0  0  0  0  0  0  0  0  0
   62.8828    5.3386    0.2807 H   0  0  0  0  0  0  0  0  0  0  0  0
   58.9821    4.3863    1.0346 H   0  0  0  0  0  0  0  0  0  0  0  0
   57.0907    2.5926    0.3442 H   0  0  0  0  0  0  0  0  0  0  0  0
   80.1249    0.0466   -0.0110 Fe  0  0  0  0  0  0  0  0  0  0  0  0
   76.7106    0.0326    0.0084 C   0  0  0  0  0  0  0  0  0  0  0  0
   77.3854   -1.1595   -0.2864 C   0  0  0  0  0  0  0  0  0  0  0  0
   76.7173   -2.3968   -0.5416 C   0  0  0  0  0  0  0  0  0  0  0  0
   77.6737   -3.2851   -0.9060 C   0  0  0  0  0  0  0  0  0  0  0  0
   78.9210   -2.5813   -0.8805 C   0  0  0  0  0  0  0  0  0  0  0  0
   78.7314   -1.2890   -0.4550 N   0  0  0  0  0  0  0  0  0  0  0  0
   80.1302   -3.1258   -1.2934 C   0  0  0  0  0  0  0  0  0  0  0  0
   80.1321   -4.4977   -1.8515 C   0  0  0  0  0  0  0  0  0  0  0  0
   79.4069   -4.7909   -3.0087 C   0  0  0  0  0  0  0  0  0  0  0  0
   79.4094   -6.0699   -3.5357 C   0  0  0  0  0  0  0  0  0  0  0  0
   80.1350   -7.0857   -2.9064 C   0  0  0  0  0  0  0  0  0  0  0  0
   80.1372   -8.4039   -3.4442 C   0  0  0  0  0  0  0  0  0  0  0  0
   80.1377   -9.4699   -3.8774 N   0  0  0  0  0  0  0  0  0  0  0  0
   80.8589   -6.7979   -1.7456 C   0  0  0  0  0  0  0  0  0  0  0  0
   80.8584   -5.5149   -1.2283 C   0  0  0  0  0  0  0  0  0  0  0  0
   81.3385   -2.4445   -1.2060 C   0  0  0  0  0  0  0  0  0  0  0  0
   82.5890   -2.9675   -1.6688 C   0  0  0  0  0  0  0  0  0  0  0  0
   83.5430   -2.0770   -1.3031 C   0  0  0  0  0  0  0  0  0  0  0  0
   81.5232   -1.2211   -0.6108 N   0  0  0  0  0  0  0  0  0  0  0  0
   82.8702   -1.0105   -0.6312 C   0  0  0  0  0  0  0  0  0  0  0  0
   83.5393    0.0546   -0.0157 C   0  0  0  0  0  0  0  0  0  0  0  0
   82.8667    1.1186    0.5977 C   0  0  0  0  0  0  0  0  0  0  0  0
   83.5363    2.1921    1.2618 C   0  0  0  0  0  0  0  0  0  0  0  0
   82.5795    3.0821    1.6212 C   0  0  0  0  0  0  0  0  0  0  0  0
   81.3304    2.5508    1.1645 C   0  0  0  0  0  0  0  0  0  0  0  0
   81.5188    1.3242    0.5774 N   0  0  0  0  0  0  0  0  0  0  0  0
   80.1187    3.2261    1.2534 C   0  0  0  0  0  0  0  0  0  0  0  0
   80.1172    4.6027    1.8000 C   0  0  0  0  0  0  0  0  0  0  0  0
   79.3992    4.9026    2.9599 C   0  0  0  0  0  0  0  0  0  0  0  0
   79.3989    6.1863    3.4753 C   0  0  0  0  0  0  0  0  0  0  0  0
   80.1145    7.2001    2.8315 C   0  0  0  0  0  0  0  0  0  0  0  0
   80.1130    8.5233    3.3570 C   0  0  0  0  0  0  0  0  0  0  0  0
   80.1118    9.5925    3.7821 N   0  0  0  0  0  0  0  0  0  0  0  0
   80.8315    6.9055    1.6681 C   0  0  0  0  0  0  0  0  0  0  0  0
   80.8339    5.6179    1.1624 C   0  0  0  0  0  0  0  0  0  0  0  0
   78.9097    2.6702    0.8558 C   0  0  0  0  0  0  0  0  0  0  0  0
   77.6569    3.3638    0.8919 C   0  0  0  0  0  0  0  0  0  0  0  0
   76.7034    2.4644    0.5476 C   0  0  0  0  0  0  0  0  0  0  0  0
   77.3787    1.2312    0.2918 C   0  0  0  0  0  0  0  0  0  0  0  0
   78.7256    1.3733    0.4417 N   0  0  0  0  0  0  0  0  0  0  0  0
   75.6542   -2.5504   -0.4512 H   0  0  0  0  0  0  0  0  0  0  0  0
   77.5550   -4.3245   -1.1652 H   0  0  0  0  0  0  0  0  0  0  0  0
   78.8518   -4.0029   -3.5048 H   0  0  0  0  0  0  0  0  0  0  0  0
   78.8501   -6.2888   -4.4378 H   0  0  0  0  0  0  0  0  0  0  0  0
   81.4193   -7.5839   -1.2531 H   0  0  0  0  0  0  0  0  0  0  0  0
   81.4120   -5.2974   -0.3219 H   0  0  0  0  0  0  0  0  0  0  0  0
   82.7116   -3.8937   -2.2059 H   0  0  0  0  0  0  0  0  0  0  0  0
   84.6075   -2.1248   -1.4665 H   0  0  0  0  0  0  0  0  0  0  0  0
   84.6008    2.2449    1.4237 H   0  0  0  0  0  0  0  0  0  0  0  0
   82.6993    4.0129    2.1511 H   0  0  0  0  0  0  0  0  0  0  0  0
   78.8522    4.1162    3.4675 H   0  0  0  0  0  0  0  0  0  0  0  0
   78.8452    6.4105    4.3795 H   0  0  0  0  0  0  0  0  0  0  0  0
   81.3843    7.6899    1.1645 H   0  0  0  0  0  0  0  0  0  0  0  0
   81.3823    5.3949    0.2542 H   0  0  0  0  0  0  0  0  0  0  0  0
   77.5327    4.4041    1.1446 H   0  0  0  0  0  0  0  0  0  0  0  0
   75.6379    2.6083    0.4703 H   0  0  0  0  0  0  0  0  0  0  0  0
  2  3  4  0  0  0  0
  3  4  4  0  0  0  0
  4  5  2  0  0  0  0
  5  6  4  0  0  0  0
  1  7  1  0  0  0  0
  3  7  4  0  0  0  0
  6  7  4  0  0  0  0
  6  8  4  0  0  0  0
  8  9  1  0  0  0  0
  9 10  4  0  0  0  0
 10 11  4  0  0  0  0
 11 12  4  0  0  0  0
 12 13  1  0  0  0  0
 13 14  3  0  0  0  0
 12 15  4  0  0  0  0
  9 16  4  0  0  0  0
 15 16  4  0  0  0  0
  8 17  4  0  0  0  0
 17 18  4  0  0  0  0
 18 19  2  0  0  0  0
  1 20  1  0  0  0  0
 17 20  4  0  0  0  0
 19 21  4  0  0  0  0
 20 21  4  0  0  0  0
 21 22  4  0  0  0  0
 22 23  4  0  0  0  0
 23 24  4  0  0  0  0
 24 25  2  0  0  0  0
 25 26  4  0  0  0  0
  1 27  1  0  0  0  0
 23 27  4  0  0  0  0
 26 27  4  0  0  0  0
 26 28  4  0  0  0  0
 28 29  1  0  0  0  0
 29 30  4  0  0  0  0
 30 31  4  0  0  0  0
 31 32  4  0  0  0  0
 32 33  1  0  0  0  0
 33 34  3  0  0  0  0
 32 35  4  0  0  0  0
 29 36  4  0  0  0  0
 35 36  4  0  0  0  0
 28 37  4  0  0  0  0
 37 38  4  0  0  0  0
 38 39  2  0  0  0  0
  2 40  4  0  0  0  0
 39 40  4  0  0  0  0
  1 41  1  0  0  0  0
 37 41  4  0  0  0  0
 40 41  4  0  0  0  0
  2 42  1  0  0  0  0
  4 43  1  0  0  0  0
  5 44  1  0  0  0  0
 10 45  1  0  0  0  0
 11 46  1  0  0  0  0
 15 47  1  0  0  0  0
 16 48  1  0  0  0  0
 18 49  1  0  0  0  0
 19 50  1  0  0  0  0
 24 51  1  0  0  0  0
 25 52  1  0  0  0  0
 30 53  1  0  0  0  0
 31 54  1  0  0  0  0
 35 55  1  0  0  0  0
 36 56  1  0  0  0  0
 38 57  1  0  0  0  0
 39 58  1  0  0  0  0
 60 61  4  0  0  0  0
 61 62  4  0  0  0  0
 62 63  2  0  0  0  0
 63 64  4  0  0  0  0
 59 65  1  0  0  0  0
 61 65  4  0  0  0  0
 64 65  4  0  0  0  0
 64 66  4  0  0  0  0
 66 67  1  0  0  0  0
 67 68  4  0  0  0  0
 68 69  4  0  0  0  0
 69 70  4  0  0  0  0
 70 71  1  0  0  0  0
 71 72  3  0  0  0  0
 70 73  4  0  0  0  0
 67 74  4  0  0  0  0
 73 74  4  0  0  0  0
 66 75  4  0  0  0  0
 75 76  4  0  0  0  0
 76 77  2  0  0  0  0
 59 78  1  0  0  0  0
 75 78  4  0  0  0  0
 77 79  4  0  0  0  0
 78 79  4  0  0  0  0
 79 80  4  0  0  0  0
 80 81  4  0  0  0  0
 81 82  4  0  0  0  0
 82 83  2  0  0  0  0
 83 84  4  0  0  0  0
 59 85  1  0  0  0  0
 81 85  4  0  0  0  0
 84 85  4  0  0  0  0
 84 86  4  0  0  0  0
 86 87  1  0  0  0  0
 87 88  4  0  0  0  0
 88 89  4  0  0  0  0
 89 90  4  0  0  0  0
 90 91  1  0  0  0  0
 91 92  3  0  0  0  0
 90 93  4  0  0  0  0
 87 94  4  0  0  0  0
 93 94  4  0  0  0  0
 86 95  4  0  0  0  0
 95 96  4  0  0  0  0
 96 97  2  0  0  0  0
 60 98  4  0  0  0  0
 97 98  4  0  0  0  0
 59 99  1  0  0  0  0
 95 99  4  0  0  0  0
 98 99  4  0  0  0  0
 60100  1  0  0  0  0
 62101  1  0  0  0  0
 63102  1  0  0  0  0
 68103  1  0  0  0  0
 69104  1  0  0  0  0
 73105  1  0  0  0  0
 74106  1  0  0  0  0
 76107  1  0  0  0  0
 77108  1  0  0  0  0
 82109  1  0  0  0  0
 83110  1  0  0  0  0
 88111  1  0  0  0  0
 89112  1  0  0  0  0
 93113  1  0  0  0  0
 94114  1  0  0  0  0
 96115  1  0  0  0  0
 97116  1  0  0  0  0
 22117  4  0  0  0  0
117118  3  0  0  0  0
118119  4  0  0  0  0
119120  3  0  0  0  0
120121  4  0  0  0  0
121122  3  0  0  0  0
122123  4  0  0  0  0
123124  3  0  0  0  0
125126  3  0  0  0  0
126127  4  0  0  0  0
127128  3  0  0  0  0
128129  4  0  0  0  0
129130  3  0  0  0  0
130131  4  0  0  0  0
131132  3  0  0  0  0
133134  3  0  0  0  0
134135  4  0  0  0  0
135136  3  0  0  0  0
136137  4  0  0  0  0
137138  3  0  0  0  0
138139  4  0  0  0  0
 80140  4  0  0  0  0
139140  3  0  0  0  0
124142  4  0  0  0  0
142143  4  0  0  0  0
143144  4  0  0  0  0
144145  2  0  0  0  0
145146  4  0  0  0  0
141147  1  0  0  0  0
143147  4  0  0  0  0
146147  4  0  0  0  0
146148  4  0  0  0  0
148149  1  0  0  0  0
149150  4  0  0  0  0
150151  4  0  0  0  0
151152  4  0  0  0  0
152153  1  0  0  0  0
153154  3  0  0  0  0
152155  4  0  0  0  0
149156  4  0  0  0  0
155156  4  0  0  0  0
148157  4  0  0  0  0
157158  4  0  0  0  0
158159  2  0  0  0  0
141160  1  0  0  0  0
157160  4  0  0  0  0
159161  4  0  0  0  0
160161  4  0  0  0  0
125162  4  0  0  0  0
161162  4  0  0  0  0
162163  4  0  0  0  0
163164  4  0  0  0  0
164165  2  0  0  0  0
165166  4  0  0  0  0
141167  1  0  0  0  0
163167  4  0  0  0  0
166167  4  0  0  0  0
166168  4  0  0  0  0
168169  1  0  0  0  0
169170  4  0  0  0  0
170171  4  0  0  0  0
171172  4  0  0  0  0
172173  1  0  0  0  0
173174  3  0  0  0  0
172175  4  0  0  0  0
169176  4  0  0  0  0
175176  4  0  0  0  0
168177  4  0  0  0  0
177178  4  0  0  0  0
178179  2  0  0  0  0
142180  4  0  0  0  0
179180  4  0  0  0  0
141181  1  0  0  0  0
177181  4  0  0  0  0
180181  4  0  0  0  0
144182  1  0  0  0  0
145183  1  0  0  0  0
150184  1  0  0  0  0
151185  1  0  0  0  0
155186  1  0  0  0  0
156187  1  0  0  0  0
158188  1  0  0  0  0
159189  1  0  0  0  0
164190  1  0  0  0  0
165191  1  0  0  0  0
170192  1  0  0  0  0
171193  1  0  0  0  0
175194  1  0  0  0  0
176195  1  0  0  0  0
178196  1  0  0  0  0
179197  1  0  0  0  0
132199  4  0  0  0  0
199200  4  0  0  0  0
200201  4  0  0  0  0
201202  2  0  0  0  0
202203  4  0  0  0  0
198204  1  0  0  0  0
200204  4  0  0  0  0
203204  4  0  0  0  0
203205  4  0  0  0  0
205206  1  0  0  0  0
206207  4  0  0  0  0
207208  4  0  0  0  0
208209  4  0  0  0  0
209210  1  0  0  0  0
210211  3  0  0  0  0
209212  4  0  0  0  0
206213  4  0  0  0  0
212213  4  0  0  0  0
205214  4  0  0  0  0
214215  4  0  0  0  0
215216  2  0  0  0  0
198217  1  0  0  0  0
214217  4  0  0  0  0
216218  4  0  0  0  0
217218  4  0  0  0  0
133219  4  0  0  0  0
218219  4  0  0  0  0
219220  4  0  0  0  0
220221  4  0  0  0  0
221222  2  0  0  0  0
222223  4  0  0  0  0
198224  1  0  0  0  0
220224  4  0  0  0  0
223224  4  0  0  0  0
223225  4  0  0  0  0
225226  1  0  0  0  0
226227  4  0  0  0  0
227228  4  0  0  0  0
228229  4  0  0  0  0
229230  1  0  0  0  0
230231  3  0  0  0  0
229232  4  0  0  0  0
226233  4  0  0  0  0
232233  4  0  0  0  0
225234  4  0  0  0  0
234235  4  0  0  0  0
235236  2  0  0  0  0
199237  4  0  0  0  0
236237  4  0  0  0  0
198238  1  0  0  0  0
234238  4  0  0  0  0
237238  4  0  0  0  0
201239  1  0  0  0  0
202240  1  0  0  0  0
207241  1  0  0  0  0
208242  1  0  0  0  0
212243  1  0  0  0  0
213244  1  0  0  0  0
215245  1  0  0  0  0
216246  1  0  0  0  0
221247  1  0  0  0  0
222248  1  0  0  0  0
227249  1  0  0  0  0
228250  1  0  0  0  0
232251  1  0  0  0  0
233252  1  0  0  0  0
235253  1  0  0  0  0
236254  1  0  0  0  0
M  END
