128

Fe 17.405932 0.004665 0.016271
C 13.987908 -0.102350 0.105492
C 14.653200 -0.203944 1.259625
C 14.005338 -0.346473 2.558209
C 14.947463 -0.367488 3.482653
C 16.250501 -0.237238 2.816830
N 16.071022 -0.138575 1.403763
C 17.439658 -0.166307 3.447956
C 18.731143 -0.006637 2.730373
C 20.017869 0.210185 3.402879
C 20.952354 0.267798 2.476105
N 18.873679 -0.085165 1.442575
C 20.270803 0.080689 1.200977
C 20.867129 0.000219 0.000062
C 20.109391 -0.209832 -1.254652
C 20.652498 -0.622439 -2.393114
C 19.608700 -0.610725 -3.398694
C 18.496528 -0.187601 -2.809292
C 17.208531 0.035391 -3.515460
C 17.226318 0.171333 -4.992449
C 16.583174 -0.775681 -5.803448
C 16.618635 -0.653261 -7.195259
C 17.304953 0.415355 -7.799761
C 17.346004 0.549399 -9.272598
O 18.030002 1.609520 -9.862188
O 16.762879 -0.293364 -10.007182
C 17.956098 1.356183 -6.983224
C 17.919116 1.232918 -5.591418
C 16.042013 0.118642 -2.847326
C 14.726379 0.370869 -3.432959
C 13.864936 0.321668 -2.435565
C 14.621114 0.051804 -1.213957
N 15.891094 -0.067890 -1.441531
N 18.722179 0.084353 -1.424697
C 17.479407 -0.237986 4.923791
C 17.415184 -1.478959 5.570844
C 17.454500 -1.547431 6.966362
C 17.559866 -0.373738 7.735121
C 17.602407 -0.440507 9.212465
O 17.705591 0.726559 9.965169
O 17.545831 -1.552849 9.803494
C 17.624711 0.868037 7.078724
C 17.584675 0.934677 5.683104
H 12.904661 -0.120976 0.133669
H 12.941898 -0.414702 2.748427
H 14.763354 -0.454286 4.545730
H 20.192864 0.303033 4.466554
H 22.008695 0.413014 2.659041
H 21.685907 -0.897536 -2.555981
H 19.725552 -0.876597 -4.441335
H 16.057404 -1.610680 -5.356632
H 16.111332 -1.396749 -7.797239
H 18.064245 1.710679 -10.869586
H 18.495523 2.187936 -7.418469
H 18.428209 1.967219 -4.979010
H 14.479390 0.564873 -4.468398
H 12.795656 0.464780 -2.519859
H 17.334497 -2.392013 4.993691
H 17.402781 -2.518534 7.442563
H 17.735515 0.692101 10.977189
H 17.706513 1.788851 7.642298
H 17.635992 1.899344 5.193114
Fe 31.483580 0.006504 -0.015527
C 34.901604 -0.089509 -0.116493
C 34.236312 -0.057340 -1.274641
C 34.884175 -0.049176 -2.580999
C 33.942049 0.036548 -3.501699
C 32.639011 0.089152 -2.825298
N 32.818490 0.024214 -1.410280
C 31.449855 0.232385 -3.444035
C 30.158369 0.308245 -2.712827
C 28.871643 0.601168 -3.355844
C 27.937158 0.551530 -2.428609
N 30.015833 0.081743 -1.442674
C 28.618710 0.218632 -1.183563
C 28.022383 0.000219 0.000062
C 28.780121 -0.353114 1.222185
C 28.237014 -0.894246 2.305474
C 29.280812 -0.998565 3.305697
C 30.392984 -0.510299 2.769018
C 31.680981 -0.370223 3.496189
C 31.663195 -0.405502 4.979001
C 32.306338 -1.439717 5.675389
C 32.270877 -1.478605 7.072032
C 31.584559 -0.486824 7.795725
C 31.543508 -0.523509 9.274194
O 30.859510 0.461554 9.982095
O 32.126633 -1.445356 9.906698
C 30.933415 0.541884 7.093123
C 30.970396 0.579933 5.696387
C 32.847499 -0.210485 2.842111
C 34.163133 -0.027471 3.452922
C 35.024577 0.038668 2.456508
C 34.268399 -0.088531 1.211931
N 32.998418 -0.233668 1.424185
N 30.167333 -0.080500 1.425018
C 31.410105 0.331366 -4.918291
C 31.474329 -0.826717 -5.704126
C 31.435013 -0.733812 -7.098230
C 31.329646 0.520698 -7.726521
C 31.287105 0.624729 -9.201709
O 31.183921 1.870806 -9.814816
O 31.343682 -0.412040 -9.917062
C 31.264801 1.678499 -6.931311
C 31.304837 1.583764 -5.537317
H 35.984851 -0.104761 -0.146629
H 35.947614 -0.095016 -2.777815
H 34.126158 0.072914 -4.567694
H 28.696648 0.816051 -4.401718
H 26.880817 0.716871 -2.593580
H 27.203605 -1.186288 2.435533
H 29.163960 -1.382893 4.310725
H 32.832109 -2.217623 5.135268
H 32.778180 -2.286549 7.584263
H 30.825267 0.445874 10.994438
H 30.393989 1.317900 7.621376
H 30.461304 1.379954 5.172738
H 34.410122 0.045842 4.503826
H 36.093856 0.171105 2.556742
H 31.555015 -1.800233 -5.236109
H 31.486731 -1.643526 -7.683235
H 31.153997 1.953275 -10.824059
H 31.182999 2.658158 -7.384946
H 31.253521 2.485494 -4.939358
C 23.709265 0.012390 0.002429
C 22.456994 -0.006791 -0.001920
C 25.022933 0.011624 0.004361
C 26.526067 -0.006791 -0.001920
