181

Co 28.633060 0.337437 0.248614
C 25.298517 0.211272 0.206955
C 25.959409 -0.950128 0.207723
C 25.307524 -2.252809 0.258120
C 26.246218 -3.179699 0.203264
C 27.551103 -2.511691 0.104012
N 27.375504 -1.094305 0.118389
C 28.741541 -3.137897 -0.010851
C 28.792784 -4.618545 -0.060131
C 28.322081 -5.279200 -1.128945
C 28.311221 -6.784840 -1.203137
N 29.114883 -7.402302 -0.145011
C 29.561636 -6.674019 1.003317
C 29.412453 -5.352669 1.059949
C 30.031932 -2.403352 -0.088039
C 31.312212 -3.032886 -0.435514
C 32.246717 -2.105418 -0.375236
N 30.177702 -1.140247 0.171210
C 31.570718 -0.873216 0.010575
C 32.166729 0.306463 0.250167
C 31.402706 1.515743 0.625506
C 31.926838 2.577350 1.225436
C 30.884730 3.583200 1.308763
C 29.794799 3.069462 0.749010
N 30.032945 1.737619 0.291447
C 28.523674 3.810221 0.548396
C 28.562894 5.294115 0.553727
C 27.886227 5.992554 1.480742
C 27.861798 7.499610 1.492019
N 28.868587 8.082735 0.601429
C 29.544870 7.314344 -0.399628
C 29.406310 5.991015 -0.437520
C 27.362330 3.161825 0.334844
C 26.060891 3.774817 0.073380
C 25.197584 2.780566 -0.011012
C 25.939484 1.535632 0.181087
N 27.201496 1.745708 0.383359
H 24.215291 0.186281 0.221769
H 24.244628 -2.443839 0.331245
H 26.056887 -4.244442 0.226067
H 27.875054 -4.729125 -1.949185
H 28.708524 -7.100928 -2.191393
H 27.262704 -7.138876 -1.114537
H 29.265698 -8.435196 -0.171766
H 30.043379 -7.198829 1.818844
H 29.771650 -4.810648 1.926993
H 31.479614 -4.069505 -0.697658
H 33.297865 -2.260477 -0.576568
H 32.948269 2.690871 1.563740
H 30.988718 4.578428 1.721907
H 27.286617 5.470466 2.217388
H 28.046748 7.852997 2.528112
H 26.854138 7.843160 1.176511
H 29.011265 9.116539 0.617589
H 30.185687 7.811481 -1.117151
H 29.934740 5.420369 -1.191797
H 25.822741 4.824678 -0.034288
H 24.135160 2.882968 -0.192537
Co 53.935257 0.276544 0.242002
C 57.269800 0.408710 0.228394
C 56.608908 1.542876 0.478427
C 57.260793 2.804379 0.807256
C 56.322099 3.721440 0.952627
C 55.017214 3.090305 0.712307
N 55.192813 1.702868 0.422121
C 53.826776 3.726570 0.734530
C 53.775534 5.183287 1.004205
C 54.246236 6.057954 0.102105
C 54.257096 7.544427 0.352813
N 53.453434 7.920382 1.518809
C 53.006681 6.962596 2.484055
C 53.155864 5.659887 2.255752
C 52.536385 3.025714 0.501478
C 51.256105 3.715157 0.297225
C 50.321601 2.796366 0.157026
N 52.390616 1.736402 0.483572
C 50.997599 1.510073 0.269365
C 50.401588 0.306463 0.250167
C 51.165611 -0.955196 0.357198
C 50.641479 -2.120829 0.715283
C 51.683587 -3.121122 0.580772
C 52.773518 -2.499212 0.144333
N 52.535372 -1.100198 -0.016698
C 54.044644 -3.179646 -0.210602
C 54.005423 -4.630100 -0.523898
C 54.682090 -5.511234 0.231598
C 54.706519 -6.985587 -0.080862
N 53.699730 -7.363964 -1.075857
C 53.023447 -6.398615 -1.888655
C 53.162007 -5.097996 -1.641625
C 55.205987 -2.500525 -0.280004
C 56.507426 -3.043110 -0.666948
C 57.370733 -2.053917 -0.535966
C 56.628833 -0.879231 -0.081132
N 55.366821 -1.127826 0.071335
H 58.353026 0.429939 0.248227
H 58.323689 2.975261 0.919680
H 56.511430 4.756473 1.203435
H 54.693263 5.696756 -0.817086
H 53.859793 8.065268 -0.544565
H 55.305613 7.871195 0.515337
H 53.302619 8.934945 1.714377
H 52.524938 7.300129 3.393219
H 52.796668 4.944396 2.986248
H 51.088703 4.783882 0.263691
H 49.270453 2.991026 -0.006331
H 49.620048 -2.304318 1.021336
H 51.579599 -4.181831 0.770671
H 55.281700 -5.159429 1.063136
H 54.521569 -7.553124 0.855232
H 55.714179 -7.253409 -0.462756
H 53.557052 -8.377142 -1.281969
H 52.382630 -6.730157 -2.696161
H 52.633577 -4.378752 -2.255838
H 56.745576 -4.045392 -0.997448
H 58.433157 -2.114970 -0.735240
C 34.716085 0.318899 0.252609
C 33.463814 0.299718 0.248260
C 36.029753 0.318133 0.254541
C 37.532886 0.299718 0.248260
C 46.377707 0.318899 0.252609
C 45.125437 0.299718 0.248260
C 47.691375 0.318133 0.254541
C 49.194509 0.299718 0.248260
Co 40.994520 -0.105924 -0.378545
C 38.160869 -0.665744 -0.543956
C 38.480098 0.379577 -1.308954
C 38.275936 1.780080 -0.934353
C 39.085089 2.531822 -1.662103
C 39.950064 1.641386 -2.439768
N 39.535289 0.289985 -2.259048
C 41.182599 1.979199 -2.857678
C 41.527265 3.395201 -3.155812
C 40.733713 4.127879 -3.955465
C 41.042260 5.558026 -4.317116
N 42.170614 6.098608 -3.553153
C 43.028780 5.277787 -2.759004
C 42.738768 3.996640 -2.562257
C 42.283262 1.012386 -2.664757
C 43.413216 0.812918 -3.573972
C 44.310242 0.074900 -2.936732
N 42.493952 0.458021 -1.513705
C 43.770835 -0.160359 -1.599245
C 44.434323 -0.665744 -0.543956
C 43.832057 -0.714328 0.811506
C 44.510297 -0.719908 1.955767
C 43.536083 -0.776896 3.037792
C 42.328086 -0.812674 2.480541
N 42.430846 -0.771339 1.055665
C 41.039633 -0.956502 3.220274
C 41.053911 -1.388857 4.640785
C 41.632842 -2.549921 4.985214
C 41.702938 -3.011995 6.417488
N 40.760658 -2.293805 7.274174
C 40.233793 -1.013577 6.909093
C 40.374678 -0.567341 5.660651
C 39.864844 -0.789762 2.580577
C 38.534270 -1.186126 3.047918
C 37.733850 -1.113204 1.992743
C 38.530354 -0.619751 0.870754
N 39.763159 -0.444080 1.210598
H 37.596612 2.148807 -0.177929
H 39.186190 3.602486 -1.554412
H 39.857903 3.676208 -4.403989
H 41.276212 5.610514 -5.403486
H 40.141634 6.179361 -4.119424
H 42.412081 7.103862 -3.669210
H 43.908649 5.705678 -2.302193
H 43.391473 3.400202 -1.938308
H 43.518662 1.212033 -4.575048
H 45.268413 -0.230940 -3.335167
H 45.584580 -0.674961 2.068304
H 43.758154 -0.807838 4.097706
H 42.119288 -3.154415 4.234391
H 42.732435 -2.852898 6.796666
H 41.472736 -4.097658 6.455738
H 40.599763 -2.643917 8.245440
H 39.691398 -0.429407 7.634229
H 39.956434 0.398053 5.394133
H 38.255441 -1.553923 4.025411
H 36.693519 -1.398272 1.970643
