296

C 55.654349 0.078088 -0.013558
C 56.378750 -0.010524 1.363545
C 55.758856 -0.043387 2.592536
C 56.779538 -0.161088 3.569927
C 57.990909 -0.194755 2.903920
N 57.734109 -0.080679 1.561035
C 59.422894 -0.372646 3.561404
C 59.476109 -0.644222 5.017341
C 59.674553 0.394001 5.925462
C 59.709382 0.136279 7.303909
C 59.533065 -1.158125 7.831601
N 59.572392 -1.405949 9.216728
C 59.275547 -0.288048 10.108936
C 59.159178 -2.721609 9.694880
C 59.360034 -2.188711 6.886728
C 59.324169 -1.939911 5.506134
C 60.550632 -0.303408 2.802910
C 61.862160 -0.530218 3.374030
C 62.764474 -0.427867 2.405977
N 60.742589 -0.051271 1.468868
C 62.079519 -0.111356 1.167980
C 62.752297 0.068234 -0.000227
C 61.979891 0.459750 -1.332783
C 62.545992 1.016643 -2.464510
C 61.520304 1.164851 -3.429118
C 60.350544 0.709188 -2.856664
N 60.632436 0.319750 -1.567748
C 58.926709 0.664538 -3.558254
C 58.878012 0.813087 -5.029648
C 58.702354 2.067830 -5.610682
C 58.695390 2.209503 -7.005446
C 58.874787 1.113082 -7.871921
N 58.875039 1.278967 -9.271523
C 59.135956 0.108730 -10.104362
C 59.429388 2.537428 -9.770241
C 59.011633 -0.145615 -7.255707
C 59.023967 -0.295624 -5.860726
C 57.804466 0.497560 -2.811329
C 56.475914 0.454524 -3.397085
C 55.592226 0.298012 -2.416183
C 56.320598 0.230647 -1.172988
N 57.645216 0.344732 -1.461648
H 54.572885 0.006742 -0.022222
H 54.694326 0.001789 2.765396
H 56.645905 -0.225864 4.640010
H 58.438868 -0.049775 0.828451
H 59.810252 1.405816 5.550090
H 59.887091 0.990154 7.948206
H 58.293345 0.146815 9.890480
H 59.265494 -0.612248 11.156174
H 60.046124 0.487541 10.045941
H 58.111916 -2.924007 9.444151
H 59.797911 -3.513314 9.288543
H 59.256993 -2.790105 10.784358
H 59.244267 -3.223271 7.189504
H 59.183393 -2.757589 4.802793
H 62.079811 -0.757616 4.402623
H 63.822460 -0.554739 2.544975
H 63.585259 1.278305 -2.592552
H 61.624245 1.557373 -4.429792
H 59.939391 0.017148 -0.887723
H 58.568806 2.935523 -4.968200
H 58.531338 3.209934 -7.390837
H 59.032271 0.360483 -11.166215
H 60.152024 -0.271142 -9.949851
H 58.409694 -0.688737 -9.911967
H 58.784464 3.386250 -9.521851
H 59.500752 2.527409 -10.863618
H 60.437394 2.713281 -9.377689
H 59.129656 -1.053675 -7.835970
H 59.148863 -1.279859 -5.413650
H 56.241097 0.536763 -4.443473
H 54.524707 0.231278 -2.524189
C 95.153523 0.074690 0.015041
C 94.429122 0.311224 -1.344487
C 95.049016 0.567249 -2.546963
C 94.028334 0.681845 -3.524724
C 92.816963 0.493057 -2.885147
N 93.073763 0.289297 -1.552918
C 91.384978 0.474179 -3.566010
C 91.331764 0.551315 -5.045049
C 91.133319 1.773422 -5.684614
C 91.098490 1.845869 -7.085075
C 91.274808 0.711148 -7.901376
N 91.235480 0.794782 -9.306011
C 91.532326 2.090620 -9.911437
C 91.648695 -0.372211 -10.079133
C 91.447838 -0.512146 -7.224292
C 91.483704 -0.593770 -5.823836
C 90.257240 0.363761 -2.812408
C 88.945712 0.277089 -3.420774
C 88.043398 0.149759 -2.455689
N 90.065284 0.296290 -1.456426
C 88.728353 0.167375 -1.177993
C 88.055575 0.068234 -0.000227
C 88.827981 0.136610 1.386969
C 88.261880 0.412816 2.617678
C 89.287568 0.330874 3.590160
C 90.457328 0.022032 2.926873
N 90.175436 -0.054549 1.582588
C 91.881163 -0.185770 3.598469
C 91.929860 -0.386129 5.063707
C 92.105519 0.697536 5.922573
C 92.112482 0.508449 7.311703
C 91.933085 -0.760479 7.897145
N 91.932833 -0.927163 9.296653
C 91.671916 -2.259968 9.832099
C 91.378484 0.179405 10.076366
C 91.796239 -1.839744 7.003153
C 91.783905 -1.658710 5.611858
C 93.003406 -0.173081 2.833212
C 94.331958 -0.352172 3.392576
C 95.215647 -0.274485 2.402310
C 94.487274 -0.048673 1.177940
N 93.162657 -0.005401 1.485296
H 96.234987 0.003300 0.006746
H 96.113546 0.651672 -2.704426
H 94.161968 0.869611 -4.580193
H 92.369004 0.147684 -0.833487
H 90.997620 2.669112 -5.082607
H 90.920781 2.826942 -7.511357
H 92.514527 2.462190 -9.597167
H 91.542378 2.020832 -11.005486
H 90.761748 2.829856 -9.668462
H 92.695956 -0.627724 -9.882810
H 91.009961 -1.237087 -9.869619
H 91.550880 -0.183516 -11.154330
H 91.563605 -1.446959 -7.761054
H 91.624479 -1.553489 -5.331671
H 88.728061 0.297039 -4.474014
H 86.985412 0.058989 -2.620545
H 87.222613 0.637191 2.803467
H 89.183627 0.477993 4.654950
H 90.868482 -0.189385 0.850590
H 92.239066 1.691617 5.501293
H 92.276535 1.390724 7.920783
H 91.775601 -2.264035 10.923380
H 90.655848 -2.593060 9.592880
H 92.398178 -2.990153 9.458201
H 92.023409 1.062798 10.033784
H 91.307120 -0.086532 11.136955
H 90.370479 0.442344 9.735948
H 91.678216 -2.858490 7.354487
H 91.659009 -2.510786 4.946605
H 94.566775 -0.517409 4.429104
H 96.283165 -0.364669 2.491672
C 64.442680 0.068234 -0.000227
C 65.664597 0.068234 -0.000227
C 74.792977 0.068234 -0.000227
C 76.014895 0.068234 -0.000227
C 85.143275 0.068234 -0.000227
C 86.365193 0.068234 -0.000227
C 66.655910 -0.072025 0.000240
C 67.449696 -0.421996 1.326600
C 66.941945 -1.037067 2.453305
C 67.979161 -1.073041 3.420139
C 69.089815 -0.485722 2.851272
N 68.779061 -0.162901 1.554012
C 70.479956 -0.218643 3.562845
C 70.469442 -0.037472 5.032510
C 70.019491 1.156334 5.593075
C 69.981378 1.320421 6.985854
C 70.371311 0.296690 7.868799
N 70.333260 0.440998 9.271136
C 69.857998 1.708174 9.817318
C 69.916553 -0.749477 10.012765
C 70.846964 -0.888102 7.274365
C 70.889647 -1.059115 5.883321
C 71.614575 -0.116896 2.821694
C 72.901185 0.183567 3.414942
C 73.809100 0.226571 2.445859
N 71.822692 -0.237472 1.475474
C 73.146958 -0.045499 1.185731
C 73.810548 -0.072025 0.000240
C 73.016750 -0.371133 -1.338523
C 73.524156 -0.944977 -2.487169
C 72.487244 -0.943809 -3.454992
C 71.377075 -0.376641 -2.864604
N 71.687719 -0.103241 -1.556041
C 69.987308 -0.081703 -3.565846
C 69.998281 0.152007 -5.028061
C 70.457647 1.360356 -5.547023
C 70.495080 1.571931 -6.933718
C 70.094873 0.584758 -7.854462
N 70.131956 0.789619 -9.247711
C 70.310398 -0.397837 -10.081204
C 70.758910 2.008466 -9.750241
C 69.611074 -0.615780 -7.298778
C 69.569937 -0.835474 -5.914024
C 68.852570 -0.007401 -2.821207
C 67.565762 0.315374 -3.402287
C 66.657741 0.320972 -2.432127
C 67.319917 0.000883 -1.183399
N 68.644603 -0.178742 -1.480323
H 65.932627 -1.398809 2.577193
H 67.917974 -1.462734 4.425218
H 69.440458 0.177534 0.861816
H 69.696168 1.961620 4.936857
H 69.617754 2.275842 7.347105
H 69.977176 1.723904 10.907230
H 70.445698 2.551783 9.437472
H 68.796228 1.866644 9.595710
H 70.663626 -1.547013 9.951835
H 68.951031 -1.124736 9.653583
H 69.807201 -0.524301 11.080434
H 71.219396 -1.707320 7.879840
H 71.259587 -1.987917 5.454097
H 73.095290 0.354971 4.458944
H 74.853242 0.433711 2.592119
H 74.533233 -1.303233 -2.623758
H 72.547928 -1.295728 -4.474010
H 71.027174 0.213092 -0.851146
H 70.787895 2.140187 -4.863912
H 70.862749 2.538252 -7.260268
H 71.203670 -0.961212 -9.787800
H 69.432070 -1.050734 -10.040846
H 70.429666 -0.123332 -11.136011
H 71.825968 2.039209 -9.502754
H 70.670252 2.069016 -10.841139
H 70.261860 2.903477 -9.359526
H 69.237764 -1.416830 -7.926895
H 69.195955 -1.776999 -5.517471
H 67.371096 0.526382 -4.438734
H 65.613372 0.533483 -2.570047
C 77.006208 -0.072025 0.000240
C 77.799994 -0.421996 1.326600
C 77.292242 -1.037067 2.453305
C 78.329459 -1.073041 3.420139
C 79.440113 -0.485722 2.851272
N 79.129359 -0.162901 1.554012
C 80.830254 -0.218643 3.562845
C 80.819739 -0.037472 5.032510
C 80.369789 1.156334 5.593075
C 80.331675 1.320421 6.985854
C 80.721608 0.296690 7.868799
N 80.683557 0.440998 9.271136
C 80.208295 1.708174 9.817318
C 80.266851 -0.749477 10.012765
C 81.197262 -0.888102 7.274365
C 81.239944 -1.059115 5.883321
C 81.964873 -0.116896 2.821694
C 83.251483 0.183567 3.414942
C 84.159398 0.226571 2.445859
N 82.172990 -0.237472 1.475474
C 83.497256 -0.045499 1.185731
C 84.160846 -0.072025 0.000240
C 83.367048 -0.371133 -1.338523
C 83.874454 -0.944977 -2.487169
C 82.837542 -0.943809 -3.454992
C 81.727373 -0.376641 -2.864604
N 82.038017 -0.103241 -1.556041
C 80.337606 -0.081703 -3.565846
C 80.348579 0.152007 -5.028061
C 80.807945 1.360356 -5.547023
C 80.845378 1.571931 -6.933718
C 80.445171 0.584758 -7.854462
N 80.482254 0.789619 -9.247711
C 80.660695 -0.397837 -10.081204
C 81.109208 2.008466 -9.750241
C 79.961372 -0.615780 -7.298778
C 79.920235 -0.835474 -5.914024
C 79.202868 -0.007401 -2.821207
C 77.916060 0.315374 -3.402287
C 77.008039 0.320972 -2.432127
C 77.670215 0.000883 -1.183399
N 78.994901 -0.178742 -1.480323
H 76.282925 -1.398809 2.577193
H 78.268272 -1.462734 4.425218
H 79.790756 0.177534 0.861816
H 80.046466 1.961620 4.936857
H 79.968052 2.275842 7.347105
H 80.327474 1.723904 10.907230
H 80.795996 2.551783 9.437472
H 79.146526 1.866644 9.595710
H 81.013924 -1.547013 9.951835
H 79.301329 -1.124736 9.653583
H 80.157499 -0.524301 11.080434
H 81.569694 -1.707320 7.879840
H 81.609885 -1.987917 5.454097
H 83.445588 0.354971 4.458944
H 85.203540 0.433711 2.592119
H 84.883531 -1.303233 -2.623758
H 82.898226 -1.295728 -4.474010
H 81.377471 0.213092 -0.851146
H 81.138193 2.140187 -4.863912
H 81.213047 2.538252 -7.260268
H 81.553968 -0.961212 -9.787800
H 79.782368 -1.050734 -10.040846
H 80.779964 -0.123332 -11.136011
H 82.176266 2.039209 -9.502754
H 81.020550 2.069016 -10.841139
H 80.612158 2.903477 -9.359526
H 79.588062 -1.416830 -7.926895
H 79.546253 -1.776999 -5.517471
H 77.721394 0.526382 -4.438734
H 75.963670 0.533483 -2.570047
