 xtb: 6.5.1 (b24c23e)
          07282205593D

296323  0     0  0            999 V2000
   55.6435    0.1332    0.1312 C   0  0  0  0  0  0  0  0  0  0  0  0
   56.2672   -0.0162    1.3636 C   0  0  0  0  0  0  0  0  0  0  0  0
   55.6362   -0.0906    2.6362 C   0  0  0  0  0  0  0  0  0  0  0  0
   56.6085   -0.2863    3.5775 C   0  0  0  0  0  0  0  0  0  0  0  0
   57.8635   -0.3496    2.9085 C   0  0  0  0  0  0  0  0  0  0  0  0
   57.6087   -0.1608    1.5794 N   0  0  0  0  0  0  0  0  0  0  0  0
   59.1266   -0.5744    3.4701 C   0  0  0  0  0  0  0  0  0  0  0  0
   59.1758   -0.8331    4.9260 C   0  0  0  0  0  0  0  0  0  0  0  0
   59.9544   -0.0371    5.7686 C   0  0  0  0  0  0  0  0  0  0  0  0
   59.9967   -0.2619    7.1324 C   0  0  0  0  0  0  0  0  0  0  0  0
   59.2608   -1.3051    7.7141 C   0  0  0  0  0  0  0  0  0  0  0  0
   59.3397   -1.5746    9.0778 N   0  0  0  0  0  0  0  0  0  0  0  0
   59.8633   -0.5188    9.9443 C   0  0  0  0  0  0  0  0  0  0  0  0
   58.2413   -2.3394    9.6713 C   0  0  0  0  0  0  0  0  0  0  0  0
   58.4946   -2.1163    6.8635 C   0  0  0  0  0  0  0  0  0  0  0  0
   58.4499   -1.8775    5.5020 C   0  0  0  0  0  0  0  0  0  0  0  0
   60.3294   -0.5691    2.7564 C   0  0  0  0  0  0  0  0  0  0  0  0
   61.6114   -0.9231    3.3355 C   0  0  0  0  0  0  0  0  0  0  0  0
   62.5296   -0.7572    2.3600 C   0  0  0  0  0  0  0  0  0  0  0  0
   60.4868   -0.2347    1.4456 N   0  0  0  0  0  0  0  0  0  0  0  0
   61.8090   -0.3098    1.1865 C   0  0  0  0  0  0  0  0  0  0  0  0
   62.4492    0.0186   -0.0277 C   0  0  0  0  0  0  0  0  0  0  0  0
   61.7966    0.3208   -1.2395 C   0  0  0  0  0  0  0  0  0  0  0  0
   62.4144    0.6855   -2.4628 C   0  0  0  0  0  0  0  0  0  0  0  0
   61.4358    0.8234   -3.4088 C   0  0  0  0  0  0  0  0  0  0  0  0
   60.1865    0.5479   -2.7900 C   0  0  0  0  0  0  0  0  0  0  0  0
   60.4538    0.2687   -1.4756 N   0  0  0  0  0  0  0  0  0  0  0  0
   58.9223    0.5695   -3.3944 C   0  0  0  0  0  0  0  0  0  0  0  0
   58.8904    0.7715   -4.8589 C   0  0  0  0  0  0  0  0  0  0  0  0
   58.1650    1.8165   -5.4349 C   0  0  0  0  0  0  0  0  0  0  0  0
   58.1399    2.0030   -6.8050 C   0  0  0  0  0  0  0  0  0  0  0  0
   58.8405    1.1426   -7.6639 C   0  0  0  0  0  0  0  0  0  0  0  0
   58.7721    1.2883   -9.0462 N   0  0  0  0  0  0  0  0  0  0  0  0
   59.8308    0.6629   -9.8398 C   0  0  0  0  0  0  0  0  0  0  0  0
   58.3222    2.5792   -9.5671 C   0  0  0  0  0  0  0  0  0  0  0  0
   59.5577    0.0847   -7.0844 C   0  0  0  0  0  0  0  0  0  0  0  0
   59.5854   -0.0881   -5.7131 C   0  0  0  0  0  0  0  0  0  0  0  0
   57.7107    0.4178   -2.7104 C   0  0  0  0  0  0  0  0  0  0  0  0
   56.4038    0.3961   -3.3481 C   0  0  0  0  0  0  0  0  0  0  0  0
   55.4953    0.2937   -2.3563 C   0  0  0  0  0  0  0  0  0  0  0  0
   56.2468    0.2287   -1.1162 C   0  0  0  0  0  0  0  0  0  0  0  0
   57.5774    0.2889   -1.3687 N   0  0  0  0  0  0  0  0  0  0  0  0
   54.5590    0.1684    0.1545 H   0  0  0  0  0  0  0  0  0  0  0  0
   54.5739    0.0003    2.7987 H   0  0  0  0  0  0  0  0  0  0  0  0
   56.4726   -0.3697    4.6437 H   0  0  0  0  0  0  0  0  0  0  0  0
   58.3213   -0.1342    0.8579 H   0  0  0  0  0  0  0  0  0  0  0  0
   60.5185    0.7894    5.3501 H   0  0  0  0  0  0  0  0  0  0  0  0
   60.6128    0.3897    7.7384 H   0  0  0  0  0  0  0  0  0  0  0  0
   59.2841    0.4066    9.8487 H   0  0  0  0  0  0  0  0  0  0  0  0
   59.8240   -0.8597   10.9784 H   0  0  0  0  0  0  0  0  0  0  0  0
   60.9059   -0.3231    9.6921 H   0  0  0  0  0  0  0  0  0  0  0  0
   57.2697   -1.8869    9.4445 H   0  0  0  0  0  0  0  0  0  0  0  0
   58.2615   -3.3629    9.2955 H   0  0  0  0  0  0  0  0  0  0  0  0
   58.3764   -2.3727   10.7518 H   0  0  0  0  0  0  0  0  0  0  0  0
   57.9301   -2.9527    7.2555 H   0  0  0  0  0  0  0  0  0  0  0  0
   57.8600   -2.5319    4.8691 H   0  0  0  0  0  0  0  0  0  0  0  0
   61.7661   -1.2738    4.3431 H   0  0  0  0  0  0  0  0  0  0  0  0
   63.5902   -0.9428    2.4016 H   0  0  0  0  0  0  0  0  0  0  0  0
   63.4729    0.8330   -2.5955 H   0  0  0  0  0  0  0  0  0  0  0  0
   61.5655    1.1097   -4.4397 H   0  0  0  0  0  0  0  0  0  0  0  0
   59.7454    0.0625   -0.7792 H   0  0  0  0  0  0  0  0  0  0  0  0
   57.6320    2.5125   -4.7962 H   0  0  0  0  0  0  0  0  0  0  0  0
   57.5648    2.8319   -7.1971 H   0  0  0  0  0  0  0  0  0  0  0  0
   59.6971    0.9362  -10.8859 H   0  0  0  0  0  0  0  0  0  0  0  0
   60.8244    0.9848   -9.5084 H   0  0  0  0  0  0  0  0  0  0  0  0
   59.7561   -0.4223   -9.7613 H   0  0  0  0  0  0  0  0  0  0  0  0
   57.2821    2.7451   -9.2843 H   0  0  0  0  0  0  0  0  0  0  0  0
   58.3779    2.5593  -10.6550 H   0  0  0  0  0  0  0  0  0  0  0  0
   58.9390    3.4030   -9.1907 H   0  0  0  0  0  0  0  0  0  0  0  0
   60.0972   -0.6233   -7.7003 H   0  0  0  0  0  0  0  0  0  0  0  0
   60.1378   -0.9234   -5.2960 H   0  0  0  0  0  0  0  0  0  0  0  0
   56.2275    0.4384   -4.4109 H   0  0  0  0  0  0  0  0  0  0  0  0
   54.4196    0.2486   -2.4278 H   0  0  0  0  0  0  0  0  0  0  0  0
   95.1533    0.0089   -0.0561 C   0  0  0  0  0  0  0  0  0  0  0  0
   94.5557    0.1780   -1.2986 C   0  0  0  0  0  0  0  0  0  0  0  0
   95.2179    0.3745   -2.5422 C   0  0  0  0  0  0  0  0  0  0  0  0
   94.2629    0.4945   -3.5131 C   0  0  0  0  0  0  0  0  0  0  0  0
   92.9871    0.3651   -2.8950 C   0  0  0  0  0  0  0  0  0  0  0  0
   93.2145    0.1835   -1.5600 N   0  0  0  0  0  0  0  0  0  0  0  0
   91.7295    0.4420   -3.5057 C   0  0  0  0  0  0  0  0  0  0  0  0
   91.7165    0.6191   -4.9766 C   0  0  0  0  0  0  0  0  0  0  0  0
   91.1082    1.7282   -5.5662 C   0  0  0  0  0  0  0  0  0  0  0  0
   91.0981    1.8952   -6.9393 C   0  0  0  0  0  0  0  0  0  0  0  0
   91.6964    0.9496   -7.7854 C   0  0  0  0  0  0  0  0  0  0  0  0
   91.6367    1.0781   -9.1709 N   0  0  0  0  0  0  0  0  0  0  0  0
   91.3271    2.4020   -9.7113 C   0  0  0  0  0  0  0  0  0  0  0  0
   92.6251    0.3344   -9.9538 C   0  0  0  0  0  0  0  0  0  0  0  0
   92.2964   -0.1706   -7.1909 C   0  0  0  0  0  0  0  0  0  0  0  0
   92.3104   -0.3244   -5.8165 C   0  0  0  0  0  0  0  0  0  0  0  0
   90.5064    0.3611   -2.8341 C   0  0  0  0  0  0  0  0  0  0  0  0
   89.2185    0.4068   -3.5003 C   0  0  0  0  0  0  0  0  0  0  0  0
   88.2844    0.2998   -2.5326 C   0  0  0  0  0  0  0  0  0  0  0  0
   90.3313    0.2069   -1.4916 N   0  0  0  0  0  0  0  0  0  0  0  0
   88.9992    0.1682   -1.2798 C   0  0  0  0  0  0  0  0  0  0  0  0
   88.3420    0.0187   -0.0402 C   0  0  0  0  0  0  0  0  0  0  0  0
   88.9699   -0.1449    1.2107 C   0  0  0  0  0  0  0  0  0  0  0  0
   88.3196   -0.2854    2.4638 C   0  0  0  0  0  0  0  0  0  0  0  0
   89.2799   -0.4057    3.4300 C   0  0  0  0  0  0  0  0  0  0  0  0
   90.5502   -0.3599    2.7937 C   0  0  0  0  0  0  0  0  0  0  0  0
   90.3110   -0.1972    1.4537 N   0  0  0  0  0  0  0  0  0  0  0  0
   91.8063   -0.4352    3.4079 C   0  0  0  0  0  0  0  0  0  0  0  0
   91.8228   -0.6109    4.8779 C   0  0  0  0  0  0  0  0  0  0  0  0
   92.4470    0.3262    5.7033 C   0  0  0  0  0  0  0  0  0  0  0  0
   92.4554    0.1788    7.0783 C   0  0  0  0  0  0  0  0  0  0  0  0
   91.8399   -0.9241    7.6891 C   0  0  0  0  0  0  0  0  0  0  0  0
   91.8911   -1.1073    9.0685 N   0  0  0  0  0  0  0  0  0  0  0  0
   90.8935   -1.9992    9.6617 C   0  0  0  0  0  0  0  0  0  0  0  0
   92.2040    0.0620    9.8907 C   0  0  0  0  0  0  0  0  0  0  0  0
   91.2311   -1.8752    6.8564 C   0  0  0  0  0  0  0  0  0  0  0  0
   91.2186   -1.7144    5.4828 C   0  0  0  0  0  0  0  0  0  0  0  0
   93.0310   -0.3534    2.7356 C   0  0  0  0  0  0  0  0  0  0  0  0
   94.3269   -0.5027    3.3790 C   0  0  0  0  0  0  0  0  0  0  0  0
   95.2538   -0.3752    2.4077 C   0  0  0  0  0  0  0  0  0  0  0  0
   94.5251   -0.1610    1.1707 C   0  0  0  0  0  0  0  0  0  0  0  0
   93.1896   -0.1603    1.4048 N   0  0  0  0  0  0  0  0  0  0  0  0
   96.2387    0.0081   -0.0537 H   0  0  0  0  0  0  0  0  0  0  0  0
   96.2883    0.4239   -2.6641 H   0  0  0  0  0  0  0  0  0  0  0  0
   94.4236    0.6688   -4.5648 H   0  0  0  0  0  0  0  0  0  0  0  0
   92.4839    0.0771   -0.8643 H   0  0  0  0  0  0  0  0  0  0  0  0
   90.6537    2.4857   -4.9369 H   0  0  0  0  0  0  0  0  0  0  0  0
   90.6148    2.7756   -7.3429 H   0  0  0  0  0  0  0  0  0  0  0  0
   92.0359    3.1587   -9.3567 H   0  0  0  0  0  0  0  0  0  0  0  0
   91.3671    2.3567  -10.7991 H   0  0  0  0  0  0  0  0  0  0  0  0
   90.3153    2.6871   -9.4216 H   0  0  0  0  0  0  0  0  0  0  0  0
   93.6462    0.5510   -9.6210 H   0  0  0  0  0  0  0  0  0  0  0  0
   92.4337   -0.7355   -9.8651 H   0  0  0  0  0  0  0  0  0  0  0  0
   92.5252    0.6100  -11.0031 H   0  0  0  0  0  0  0  0  0  0  0  0
   92.7527   -0.9428   -7.7969 H   0  0  0  0  0  0  0  0  0  0  0  0
   92.7705   -1.2080   -5.3870 H   0  0  0  0  0  0  0  0  0  0  0  0
   89.0670    0.4952   -4.5638 H   0  0  0  0  0  0  0  0  0  0  0  0
   87.2121    0.3027   -2.6363 H   0  0  0  0  0  0  0  0  0  0  0  0
   87.2517   -0.2921    2.6036 H   0  0  0  0  0  0  0  0  0  0  0  0
   89.1224   -0.5073    4.4913 H   0  0  0  0  0  0  0  0  0  0  0  0
   91.0371   -0.1136    0.7499 H   0  0  0  0  0  0  0  0  0  0  0  0
   92.9134    1.1999    5.2611 H   0  0  0  0  0  0  0  0  0  0  0  0
   92.9498    0.9381    7.6704 H   0  0  0  0  0  0  0  0  0  0  0  0
   90.9938   -1.9702   10.7461 H   0  0  0  0  0  0  0  0  0  0  0  0
   89.8754   -1.7020    9.3868 H   0  0  0  0  0  0  0  0  0  0  0  0
   91.0745   -3.0228    9.3322 H   0  0  0  0  0  0  0  0  0  0  0  0
   93.2224    0.3923    9.6838 H   0  0  0  0  0  0  0  0  0  0  0  0
   92.1470   -0.2203   10.9414 H   0  0  0  0  0  0  0  0  0  0  0  0
   91.5069    0.8860    9.7016 H   0  0  0  0  0  0  0  0  0  0  0  0
   90.7652   -2.7594    7.2721 H   0  0  0  0  0  0  0  0  0  0  0  0
   90.7511   -2.4738    4.8651 H   0  0  0  0  0  0  0  0  0  0  0  0
   94.4826   -0.6963    4.4282 H   0  0  0  0  0  0  0  0  0  0  0  0
   96.3284   -0.4280    2.4882 H   0  0  0  0  0  0  0  0  0  0  0  0
   63.8578    0.0453   -0.0402 C   0  0  0  0  0  0  0  0  0  0  0  0
   65.0759    0.0853   -0.0406 C   0  0  0  0  0  0  0  0  0  0  0  0
   74.7923    0.1758    0.0350 C   0  0  0  0  0  0  0  0  0  0  0  0
   76.0112    0.1823    0.0348 C   0  0  0  0  0  0  0  0  0  0  0  0
   85.7143    0.0580   -0.0285 C   0  0  0  0  0  0  0  0  0  0  0  0
   86.9329    0.0364   -0.0369 C   0  0  0  0  0  0  0  0  0  0  0  0
   66.4839    0.1191   -0.0296 C   0  0  0  0  0  0  0  0  0  0  0  0
   67.1070    0.1266    1.2348 C   0  0  0  0  0  0  0  0  0  0  0  0
   66.4595    0.0944    2.4954 C   0  0  0  0  0  0  0  0  0  0  0  0
   67.4218    0.1385    3.4673 C   0  0  0  0  0  0  0  0  0  0  0  0
   68.6877    0.2174    2.8277 C   0  0  0  0  0  0  0  0  0  0  0  0
   68.4473    0.1957    1.4789 N   0  0  0  0  0  0  0  0  0  0  0  0
   69.9419    0.3033    3.4473 C   0  0  0  0  0  0  0  0  0  0  0  0
   69.9460    0.3459    4.9282 C   0  0  0  0  0  0  0  0  0  0  0  0
   69.2788    1.3518    5.6294 C   0  0  0  0  0  0  0  0  0  0  0  0
   69.2795    1.3828    7.0121 C   0  0  0  0  0  0  0  0  0  0  0  0
   69.9391    0.3930    7.7564 C   0  0  0  0  0  0  0  0  0  0  0  0
   69.9746    0.4488    9.1477 N   0  0  0  0  0  0  0  0  0  0  0  0
   68.9143    1.2099    9.8112 C   0  0  0  0  0  0  0  0  0  0  0  0
   70.3624   -0.7691    9.8598 C   0  0  0  0  0  0  0  0  0  0  0  0
   70.6189   -0.6100    7.0496 C   0  0  0  0  0  0  0  0  0  0  0  0
   70.6220   -0.6270    5.6668 C   0  0  0  0  0  0  0  0  0  0  0  0
   71.1729    0.3457    2.7887 C   0  0  0  0  0  0  0  0  0  0  0  0
   72.4404    0.5426    3.4674 C   0  0  0  0  0  0  0  0  0  0  0  0
   73.3944    0.5088    2.5130 C   0  0  0  0  0  0  0  0  0  0  0  0
   71.3763    0.2234    1.4477 N   0  0  0  0  0  0  0  0  0  0  0  0
   72.7097    0.2968    1.2552 C   0  0  0  0  0  0  0  0  0  0  0  0
   73.3861    0.1734    0.0238 C   0  0  0  0  0  0  0  0  0  0  0  0
   72.7628    0.0542   -1.2350 C   0  0  0  0  0  0  0  0  0  0  0  0
   73.4073   -0.1267   -2.4840 C   0  0  0  0  0  0  0  0  0  0  0  0
   72.4448   -0.1428   -3.4574 C   0  0  0  0  0  0  0  0  0  0  0  0
   71.1830    0.0292   -2.8286 C   0  0  0  0  0  0  0  0  0  0  0  0
   71.4239    0.1254   -1.4840 N   0  0  0  0  0  0  0  0  0  0  0  0
   69.9299    0.0771   -3.4556 C   0  0  0  0  0  0  0  0  0  0  0  0
   69.9416    0.0689   -4.9369 C   0  0  0  0  0  0  0  0  0  0  0  0
   70.6122    1.0670   -5.6469 C   0  0  0  0  0  0  0  0  0  0  0  0
   70.6226    1.0806   -7.0294 C   0  0  0  0  0  0  0  0  0  0  0  0
   69.9718    0.0791   -7.7654 C   0  0  0  0  0  0  0  0  0  0  0  0
   69.9378    0.1222   -9.1568 N   0  0  0  0  0  0  0  0  0  0  0  0
   69.5695   -1.1067   -9.8602 C   0  0  0  0  0  0  0  0  0  0  0  0
   70.9802    0.9007   -9.8276 C   0  0  0  0  0  0  0  0  0  0  0  0
   69.2989   -0.9230   -7.0503 C   0  0  0  0  0  0  0  0  0  0  0  0
   69.2839   -0.9223   -5.6670 C   0  0  0  0  0  0  0  0  0  0  0  0
   68.6971    0.1369   -2.8029 C   0  0  0  0  0  0  0  0  0  0  0  0
   67.4241    0.2239   -3.4936 C   0  0  0  0  0  0  0  0  0  0  0  0
   66.4707    0.2168   -2.5388 C   0  0  0  0  0  0  0  0  0  0  0  0
   67.1598    0.1501   -1.2675 C   0  0  0  0  0  0  0  0  0  0  0  0
   68.4953    0.1142   -1.4554 N   0  0  0  0  0  0  0  0  0  0  0  0
   65.3931    0.0458    2.6377 H   0  0  0  0  0  0  0  0  0  0  0  0
   67.2665    0.1108    4.5334 H   0  0  0  0  0  0  0  0  0  0  0  0
   69.1676    0.2177    0.7648 H   0  0  0  0  0  0  0  0  0  0  0  0
   68.7702    2.1384    5.0824 H   0  0  0  0  0  0  0  0  0  0  0  0
   68.7641    2.1964    7.5061 H   0  0  0  0  0  0  0  0  0  0  0  0
   69.0038    1.0759   10.8887 H   0  0  0  0  0  0  0  0  0  0  0  0
   69.0318    2.2714    9.5911 H   0  0  0  0  0  0  0  0  0  0  0  0
   67.9210    0.8783    9.4891 H   0  0  0  0  0  0  0  0  0  0  0  0
   71.3977   -1.0164    9.6233 H   0  0  0  0  0  0  0  0  0  0  0  0
   69.7155   -1.6137    9.5971 H   0  0  0  0  0  0  0  0  0  0  0  0
   70.2949   -0.5871   10.9319 H   0  0  0  0  0  0  0  0  0  0  0  0
   71.1549   -1.3925    7.5710 H   0  0  0  0  0  0  0  0  0  0  0  0
   71.1406   -1.4259    5.1478 H   0  0  0  0  0  0  0  0  0  0  0  0
   72.5627    0.7071    4.5257 H   0  0  0  0  0  0  0  0  0  0  0  0
   74.4592    0.6325    2.6252 H   0  0  0  0  0  0  0  0  0  0  0  0
   74.4701   -0.2431   -2.6159 H   0  0  0  0  0  0  0  0  0  0  0  0
   72.5947   -0.2791   -4.5160 H   0  0  0  0  0  0  0  0  0  0  0  0
   70.7054    0.2299   -0.7755 H   0  0  0  0  0  0  0  0  0  0  0  0
   71.1147    1.8613   -5.1054 H   0  0  0  0  0  0  0  0  0  0  0  0
   71.1393    1.8899   -7.5291 H   0  0  0  0  0  0  0  0  0  0  0  0
   70.2260   -1.9403   -9.5867 H   0  0  0  0  0  0  0  0  0  0  0  0
   68.5363   -1.3654   -9.6271 H   0  0  0  0  0  0  0  0  0  0  0  0
   69.6407   -0.9331  -10.9335 H   0  0  0  0  0  0  0  0  0  0  0  0
   71.9814    0.5878   -9.5111 H   0  0  0  0  0  0  0  0  0  0  0  0
   70.8866    0.7634  -10.9043 H   0  0  0  0  0  0  0  0  0  0  0  0
   70.8448    1.9604   -9.6085 H   0  0  0  0  0  0  0  0  0  0  0  0
   68.7759   -1.7179   -7.5661 H   0  0  0  0  0  0  0  0  0  0  0  0
   68.7708   -1.7210   -5.1425 H   0  0  0  0  0  0  0  0  0  0  0  0
   67.2951    0.2940   -4.5614 H   0  0  0  0  0  0  0  0  0  0  0  0
   65.4013    0.2604   -2.6618 H   0  0  0  0  0  0  0  0  0  0  0  0
   77.4172    0.1847    0.0329 C   0  0  0  0  0  0  0  0  0  0  0  0
   78.0590    0.0274    1.2778 C   0  0  0  0  0  0  0  0  0  0  0  0
   77.4387   -0.2007    2.5315 C   0  0  0  0  0  0  0  0  0  0  0  0
   78.4161   -0.2136    3.4904 C   0  0  0  0  0  0  0  0  0  0  0  0
   79.6630    0.0117    2.8484 C   0  0  0  0  0  0  0  0  0  0  0  0
   79.3993    0.1253    1.5093 N   0  0  0  0  0  0  0  0  0  0  0  0
   80.9217    0.1276    3.4550 C   0  0  0  0  0  0  0  0  0  0  0  0
   80.9474    0.1114    4.9340 C   0  0  0  0  0  0  0  0  0  0  0  0
   80.1993    1.0248    5.6799 C   0  0  0  0  0  0  0  0  0  0  0  0
   80.2210    1.0111    7.0623 C   0  0  0  0  0  0  0  0  0  0  0  0
   80.9840    0.0645    7.7628 C   0  0  0  0  0  0  0  0  0  0  0  0
   81.0425    0.0764    9.1536 N   0  0  0  0  0  0  0  0  0  0  0  0
   79.9562    0.7518    9.8649 C   0  0  0  0  0  0  0  0  0  0  0  0
   81.5221   -1.1369    9.8164 C   0  0  0  0  0  0  0  0  0  0  0  0
   81.7410   -0.8476    7.0120 C   0  0  0  0  0  0  0  0  0  0  0  0
   81.7233   -0.8184    5.6297 C   0  0  0  0  0  0  0  0  0  0  0  0
   82.1364    0.2539    2.7754 C   0  0  0  0  0  0  0  0  0  0  0  0
   83.4068    0.5003    3.4312 C   0  0  0  0  0  0  0  0  0  0  0  0
   84.3457    0.4897    2.4610 C   0  0  0  0  0  0  0  0  0  0  0  0
   82.3205    0.1399    1.4311 N   0  0  0  0  0  0  0  0  0  0  0  0
   83.6491    0.2423    1.2167 C   0  0  0  0  0  0  0  0  0  0  0  0
   84.3070    0.0870   -0.0214 C   0  0  0  0  0  0  0  0  0  0  0  0
   83.6584   -0.0351   -1.2672 C   0  0  0  0  0  0  0  0  0  0  0  0
   84.2686   -0.2665   -2.5249 C   0  0  0  0  0  0  0  0  0  0  0  0
   83.2915   -0.2280   -3.4833 C   0  0  0  0  0  0  0  0  0  0  0  0
   82.0543    0.0323   -2.8367 C   0  0  0  0  0  0  0  0  0  0  0  0
   82.3218    0.1125   -1.4960 N   0  0  0  0  0  0  0  0  0  0  0  0
   80.8015    0.2065   -3.4429 C   0  0  0  0  0  0  0  0  0  0  0  0
   80.7813    0.2311   -4.9218 C   0  0  0  0  0  0  0  0  0  0  0  0
   81.5661    1.1370   -5.6388 C   0  0  0  0  0  0  0  0  0  0  0  0
   81.5491    1.1642   -7.0211 C   0  0  0  0  0  0  0  0  0  0  0  0
   80.7534    0.2680   -7.7509 C   0  0  0  0  0  0  0  0  0  0  0  0
   80.7014    0.3253   -9.1412 N   0  0  0  0  0  0  0  0  0  0  0  0
   80.1610   -0.8400   -9.8422 C   0  0  0  0  0  0  0  0  0  0  0  0
   81.8292    0.9589   -9.8265 C   0  0  0  0  0  0  0  0  0  0  0  0
   79.9606   -0.6369   -7.0292 C   0  0  0  0  0  0  0  0  0  0  0  0
   79.9746   -0.6489   -5.6464 C   0  0  0  0  0  0  0  0  0  0  0  0
   79.5908    0.3541   -2.7621 C   0  0  0  0  0  0  0  0  0  0  0  0
   78.3268    0.6475   -3.4109 C   0  0  0  0  0  0  0  0  0  0  0  0
   77.3878    0.6369   -2.4407 C   0  0  0  0  0  0  0  0  0  0  0  0
   78.0795    0.3461   -1.2028 C   0  0  0  0  0  0  0  0  0  0  0  0
   79.4040    0.2147   -1.4199 N   0  0  0  0  0  0  0  0  0  0  0  0
   76.3810   -0.3467    2.6760 H   0  0  0  0  0  0  0  0  0  0  0  0
   78.2854   -0.3797    4.5472 H   0  0  0  0  0  0  0  0  0  0  0  0
   80.1046    0.2574    0.7924 H   0  0  0  0  0  0  0  0  0  0  0  0
   79.6092    1.7771    5.1674 H   0  0  0  0  0  0  0  0  0  0  0  0
   79.6384    1.7551    7.5901 H   0  0  0  0  0  0  0  0  0  0  0  0
   80.0929    0.6091   10.9363 H   0  0  0  0  0  0  0  0  0  0  0  0
   79.9932    1.8218    9.6585 H   0  0  0  0  0  0  0  0  0  0  0  0
   78.9771    0.3570    9.5716 H   0  0  0  0  0  0  0  0  0  0  0  0
   82.5734   -1.2954    9.5738 H   0  0  0  0  0  0  0  0  0  0  0  0
   80.9413   -2.0161    9.5158 H   0  0  0  0  0  0  0  0  0  0  0  0
   81.4398   -1.0062   10.8949 H   0  0  0  0  0  0  0  0  0  0  0  0
   82.3560   -1.5930    7.4997 H   0  0  0  0  0  0  0  0  0  0  0  0
   82.3044   -1.5484    5.0766 H   0  0  0  0  0  0  0  0  0  0  0  0
   83.5405    0.6809    4.4855 H   0  0  0  0  0  0  0  0  0  0  0  0
   85.4065    0.6545    2.5547 H   0  0  0  0  0  0  0  0  0  0  0  0
   85.3190   -0.4524   -2.6734 H   0  0  0  0  0  0  0  0  0  0  0  0
   83.4162   -0.3823   -4.5426 H   0  0  0  0  0  0  0  0  0  0  0  0
   81.6220    0.2577   -0.7763 H   0  0  0  0  0  0  0  0  0  0  0  0
   82.1821    1.8513   -5.1031 H   0  0  0  0  0  0  0  0  0  0  0  0
   82.1605    1.9012   -7.5258 H   0  0  0  0  0  0  0  0  0  0  0  0
   80.7029   -1.7553   -9.5792 H   0  0  0  0  0  0  0  0  0  0  0  0
   79.1056   -0.9581   -9.5952 H   0  0  0  0  0  0  0  0  0  0  0  0
   80.2404   -0.6737  -10.9160 H   0  0  0  0  0  0  0  0  0  0  0  0
   82.7834    0.5118   -9.5268 H   0  0  0  0  0  0  0  0  0  0  0  0
   81.7012    0.8408  -10.9019 H   0  0  0  0  0  0  0  0  0  0  0  0
   81.8419    2.0260   -9.6022 H   0  0  0  0  0  0  0  0  0  0  0  0
   79.3208   -1.3453   -7.5395 H   0  0  0  0  0  0  0  0  0  0  0  0
   79.3659   -1.3738   -5.1169 H   0  0  0  0  0  0  0  0  0  0  0  0
   78.1975    0.8555   -4.4608 H   0  0  0  0  0  0  0  0  0  0  0  0
   76.3308    0.8283   -2.5293 H   0  0  0  0  0  0  0  0  0  0  0  0
  1  2  4  0  0  0  0
  2  3  4  0  0  0  0
  3  4  2  0  0  0  0
  4  5  4  0  0  0  0
  2  6  4  0  0  0  0
  5  6  4  0  0  0  0
  5  7  4  0  0  0  0
  7  8  1  0  0  0  0
  8  9  4  0  0  0  0
  9 10  4  0  0  0  0
 10 11  4  0  0  0  0
 11 12  1  0  0  0  0
 12 13  1  0  0  0  0
 12 14  1  0  0  0  0
 11 15  4  0  0  0  0
  8 16  4  0  0  0  0
 15 16  4  0  0  0  0
  7 17  4  0  0  0  0
 17 18  1  0  0  0  0
 18 19  2  0  0  0  0
 17 20  4  0  0  0  0
 19 21  1  0  0  0  0
 20 21  4  0  0  0  0
 21 22  4  0  0  0  0
 22 23  4  0  0  0  0
 23 24  4  0  0  0  0
 24 25  2  0  0  0  0
 25 26  4  0  0  0  0
 23 27  4  0  0  0  0
 26 27  4  0  0  0  0
 26 28  4  0  0  0  0
 28 29  1  0  0  0  0
 29 30  4  0  0  0  0
 30 31  4  0  0  0  0
 31 32  4  0  0  0  0
 32 33  1  0  0  0  0
 33 34  1  0  0  0  0
 33 35  1  0  0  0  0
 32 36  4  0  0  0  0
 29 37  4  0  0  0  0
 36 37  4  0  0  0  0
 28 38  4  0  0  0  0
 38 39  1  0  0  0  0
 39 40  2  0  0  0  0
  1 41  4  0  0  0  0
 40 41  1  0  0  0  0
 38 42  4  0  0  0  0
 41 42  4  0  0  0  0
  1 43  1  0  0  0  0
  3 44  1  0  0  0  0
  4 45  1  0  0  0  0
  6 46  1  0  0  0  0
  9 47  1  0  0  0  0
 10 48  1  0  0  0  0
 13 49  1  0  0  0  0
 13 50  1  0  0  0  0
 13 51  1  0  0  0  0
 14 52  1  0  0  0  0
 14 53  1  0  0  0  0
 14 54  1  0  0  0  0
 15 55  1  0  0  0  0
 16 56  1  0  0  0  0
 18 57  1  0  0  0  0
 19 58  1  0  0  0  0
 24 59  1  0  0  0  0
 25 60  1  0  0  0  0
 27 61  1  0  0  0  0
 30 62  1  0  0  0  0
 31 63  1  0  0  0  0
 34 64  1  0  0  0  0
 34 65  1  0  0  0  0
 34 66  1  0  0  0  0
 35 67  1  0  0  0  0
 35 68  1  0  0  0  0
 35 69  1  0  0  0  0
 36 70  1  0  0  0  0
 37 71  1  0  0  0  0
 39 72  1  0  0  0  0
 40 73  1  0  0  0  0
 74 75  4  0  0  0  0
 75 76  4  0  0  0  0
 76 77  2  0  0  0  0
 77 78  4  0  0  0  0
 75 79  4  0  0  0  0
 78 79  4  0  0  0  0
 78 80  4  0  0  0  0
 80 81  1  0  0  0  0
 81 82  4  0  0  0  0
 82 83  4  0  0  0  0
 83 84  4  0  0  0  0
 84 85  1  0  0  0  0
 85 86  1  0  0  0  0
 85 87  1  0  0  0  0
 84 88  4  0  0  0  0
 81 89  4  0  0  0  0
 88 89  4  0  0  0  0
 80 90  4  0  0  0  0
 90 91  1  0  0  0  0
 91 92  2  0  0  0  0
 90 93  4  0  0  0  0
 92 94  1  0  0  0  0
 93 94  4  0  0  0  0
 94 95  4  0  0  0  0
 95 96  4  0  0  0  0
 96 97  4  0  0  0  0
 97 98  2  0  0  0  0
 98 99  4  0  0  0  0
 96100  4  0  0  0  0
 99100  4  0  0  0  0
 99101  4  0  0  0  0
101102  1  0  0  0  0
102103  4  0  0  0  0
103104  4  0  0  0  0
104105  4  0  0  0  0
105106  1  0  0  0  0
106107  1  0  0  0  0
106108  1  0  0  0  0
105109  4  0  0  0  0
102110  4  0  0  0  0
109110  4  0  0  0  0
101111  4  0  0  0  0
111112  1  0  0  0  0
112113  2  0  0  0  0
 74114  4  0  0  0  0
113114  1  0  0  0  0
111115  4  0  0  0  0
114115  4  0  0  0  0
 74116  1  0  0  0  0
 76117  1  0  0  0  0
 77118  1  0  0  0  0
 79119  1  0  0  0  0
 82120  1  0  0  0  0
 83121  1  0  0  0  0
 86122  1  0  0  0  0
 86123  1  0  0  0  0
 86124  1  0  0  0  0
 87125  1  0  0  0  0
 87126  1  0  0  0  0
 87127  1  0  0  0  0
 88128  1  0  0  0  0
 89129  1  0  0  0  0
 91130  1  0  0  0  0
 92131  1  0  0  0  0
 97132  1  0  0  0  0
 98133  1  0  0  0  0
100134  1  0  0  0  0
103135  1  0  0  0  0
104136  1  0  0  0  0
107137  1  0  0  0  0
107138  1  0  0  0  0
107139  1  0  0  0  0
108140  1  0  0  0  0
108141  1  0  0  0  0
108142  1  0  0  0  0
109143  1  0  0  0  0
110144  1  0  0  0  0
112145  1  0  0  0  0
113146  1  0  0  0  0
 22147  4  0  0  0  0
147148  3  0  0  0  0
149150  3  0  0  0  0
 95152  4  0  0  0  0
151152  3  0  0  0  0
148153  4  0  0  0  0
153154  4  0  0  0  0
154155  4  0  0  0  0
155156  2  0  0  0  0
156157  4  0  0  0  0
154158  4  0  0  0  0
157158  4  0  0  0  0
157159  4  0  0  0  0
159160  1  0  0  0  0
160161  4  0  0  0  0
161162  4  0  0  0  0
162163  4  0  0  0  0
163164  1  0  0  0  0
164165  1  0  0  0  0
164166  1  0  0  0  0
163167  4  0  0  0  0
160168  4  0  0  0  0
167168  4  0  0  0  0
159169  4  0  0  0  0
169170  1  0  0  0  0
170171  2  0  0  0  0
169172  4  0  0  0  0
171173  1  0  0  0  0
172173  4  0  0  0  0
149174  4  0  0  0  0
173174  4  0  0  0  0
174175  4  0  0  0  0
175176  4  0  0  0  0
176177  2  0  0  0  0
177178  4  0  0  0  0
175179  4  0  0  0  0
178179  4  0  0  0  0
178180  4  0  0  0  0
180181  1  0  0  0  0
181182  4  0  0  0  0
182183  4  0  0  0  0
183184  4  0  0  0  0
184185  1  0  0  0  0
185186  1  0  0  0  0
185187  1  0  0  0  0
184188  4  0  0  0  0
181189  4  0  0  0  0
188189  4  0  0  0  0
180190  4  0  0  0  0
190191  1  0  0  0  0
191192  2  0  0  0  0
153193  4  0  0  0  0
192193  1  0  0  0  0
190194  4  0  0  0  0
193194  4  0  0  0  0
155195  1  0  0  0  0
156196  1  0  0  0  0
158197  1  0  0  0  0
161198  1  0  0  0  0
162199  1  0  0  0  0
165200  1  0  0  0  0
165201  1  0  0  0  0
165202  1  0  0  0  0
166203  1  0  0  0  0
166204  1  0  0  0  0
166205  1  0  0  0  0
167206  1  0  0  0  0
168207  1  0  0  0  0
170208  1  0  0  0  0
171209  1  0  0  0  0
176210  1  0  0  0  0
177211  1  0  0  0  0
179212  1  0  0  0  0
182213  1  0  0  0  0
183214  1  0  0  0  0
186215  1  0  0  0  0
186216  1  0  0  0  0
186217  1  0  0  0  0
187218  1  0  0  0  0
187219  1  0  0  0  0
187220  1  0  0  0  0
188221  1  0  0  0  0
189222  1  0  0  0  0
191223  1  0  0  0  0
192224  1  0  0  0  0
150225  4  0  0  0  0
225226  4  0  0  0  0
226227  4  0  0  0  0
227228  2  0  0  0  0
228229  4  0  0  0  0
226230  4  0  0  0  0
229230  4  0  0  0  0
229231  4  0  0  0  0
231232  1  0  0  0  0
232233  4  0  0  0  0
233234  4  0  0  0  0
234235  4  0  0  0  0
235236  1  0  0  0  0
236237  1  0  0  0  0
236238  1  0  0  0  0
235239  4  0  0  0  0
232240  4  0  0  0  0
239240  4  0  0  0  0
231241  4  0  0  0  0
241242  1  0  0  0  0
242243  2  0  0  0  0
241244  4  0  0  0  0
243245  1  0  0  0  0
244245  4  0  0  0  0
151246  4  0  0  0  0
245246  4  0  0  0  0
246247  4  0  0  0  0
247248  4  0  0  0  0
248249  2  0  0  0  0
249250  4  0  0  0  0
247251  4  0  0  0  0
250251  4  0  0  0  0
250252  4  0  0  0  0
252253  1  0  0  0  0
253254  4  0  0  0  0
254255  4  0  0  0  0
255256  4  0  0  0  0
256257  1  0  0  0  0
257258  1  0  0  0  0
257259  1  0  0  0  0
256260  4  0  0  0  0
253261  4  0  0  0  0
260261  4  0  0  0  0
252262  4  0  0  0  0
262263  1  0  0  0  0
263264  2  0  0  0  0
225265  4  0  0  0  0
264265  1  0  0  0  0
262266  4  0  0  0  0
265266  4  0  0  0  0
227267  1  0  0  0  0
228268  1  0  0  0  0
230269  1  0  0  0  0
233270  1  0  0  0  0
234271  1  0  0  0  0
237272  1  0  0  0  0
237273  1  0  0  0  0
237274  1  0  0  0  0
238275  1  0  0  0  0
238276  1  0  0  0  0
238277  1  0  0  0  0
239278  1  0  0  0  0
240279  1  0  0  0  0
242280  1  0  0  0  0
243281  1  0  0  0  0
248282  1  0  0  0  0
249283  1  0  0  0  0
251284  1  0  0  0  0
254285  1  0  0  0  0
255286  1  0  0  0  0
258287  1  0  0  0  0
258288  1  0  0  0  0
258289  1  0  0  0  0
259290  1  0  0  0  0
259291  1  0  0  0  0
259292  1  0  0  0  0
260293  1  0  0  0  0
261294  1  0  0  0  0
263295  1  0  0  0  0
264296  1  0  0  0  0
M  END
