 xtb: 6.5.1 (b24c23e)
          07292222593D

250277  0     0  0            999 V2000
   31.8403   -0.0940    0.0004 C   0  0  0  0  0  0  0  0  0  0  0  0
   32.4538   -1.1686    0.6312 C   0  0  0  0  0  0  0  0  0  0  0  0
   31.8077   -2.2869    1.2289 C   0  0  0  0  0  0  0  0  0  0  0  0
   32.7730   -3.1046    1.7455 C   0  0  0  0  0  0  0  0  0  0  0  0
   34.0400   -2.5072    1.4884 C   0  0  0  0  0  0  0  0  0  0  0  0
   33.7969   -1.3490    0.8062 N   0  0  0  0  0  0  0  0  0  0  0  0
   35.3042   -2.9964    1.8371 C   0  0  0  0  0  0  0  0  0  0  0  0
   36.5165   -2.3828    1.5141 C   0  0  0  0  0  0  0  0  0  0  0  0
   37.8143   -2.8798    1.9350 C   0  0  0  0  0  0  0  0  0  0  0  0
   38.7321   -2.0332    1.4244 C   0  0  0  0  0  0  0  0  0  0  0  0
   36.6676   -1.2434    0.7835 N   0  0  0  0  0  0  0  0  0  0  0  0
   37.9936   -1.0144    0.7035 C   0  0  0  0  0  0  0  0  0  0  0  0
   38.6274    0.0470    0.0252 C   0  0  0  0  0  0  0  0  0  0  0  0
   37.9883    1.1046   -0.6491 C   0  0  0  0  0  0  0  0  0  0  0  0
   38.6291    2.1622   -1.3476 C   0  0  0  0  0  0  0  0  0  0  0  0
   37.6592    2.9860   -1.8478 C   0  0  0  0  0  0  0  0  0  0  0  0
   36.3948    2.4596   -1.4633 C   0  0  0  0  0  0  0  0  0  0  0  0
   35.1314    2.9755   -1.7692 C   0  0  0  0  0  0  0  0  0  0  0  0
   35.0947    4.2460   -2.5337 C   0  0  0  0  0  0  0  0  0  0  0  0
   34.4902    4.2976   -3.7907 C   0  0  0  0  0  0  0  0  0  0  0  0
   34.4573    5.4857   -4.5049 C   0  0  0  0  0  0  0  0  0  0  0  0
   35.0225    6.6365   -3.9725 C   0  0  0  0  0  0  0  0  0  0  0  0
   35.6245    6.5940   -2.7223 C   0  0  0  0  0  0  0  0  0  0  0  0
   35.6639    5.4065   -2.0071 C   0  0  0  0  0  0  0  0  0  0  0  0
   33.9170    2.3807   -1.4106 C   0  0  0  0  0  0  0  0  0  0  0  0
   32.6099    2.9521   -1.6956 C   0  0  0  0  0  0  0  0  0  0  0  0
   31.6994    2.0880   -1.2037 C   0  0  0  0  0  0  0  0  0  0  0  0
   32.4489    0.9962   -0.6075 C   0  0  0  0  0  0  0  0  0  0  0  0
   33.7806    1.2106   -0.7428 N   0  0  0  0  0  0  0  0  0  0  0  0
   36.6461    1.3182   -0.7480 N   0  0  0  0  0  0  0  0  0  0  0  0
   35.3382   -4.2640    2.6075 C   0  0  0  0  0  0  0  0  0  0  0  0
   34.7284   -4.3475    3.8601 C   0  0  0  0  0  0  0  0  0  0  0  0
   34.7606   -5.5334    4.5784 C   0  0  0  0  0  0  0  0  0  0  0  0
   35.3967   -6.6503    4.0538 C   0  0  0  0  0  0  0  0  0  0  0  0
   36.0036   -6.5760    2.8074 C   0  0  0  0  0  0  0  0  0  0  0  0
   35.9772   -5.3909    2.0880 C   0  0  0  0  0  0  0  0  0  0  0  0
   30.7552   -0.1158   -0.0119 H   0  0  0  0  0  0  0  0  0  0  0  0
   30.7401   -2.4374    1.2489 H   0  0  0  0  0  0  0  0  0  0  0  0
   32.6267   -4.0444    2.2528 H   0  0  0  0  0  0  0  0  0  0  0  0
   34.5186   -0.7174    0.4755 H   0  0  0  0  0  0  0  0  0  0  0  0
   37.9782   -3.7504    2.5491 H   0  0  0  0  0  0  0  0  0  0  0  0
   39.8056   -2.0667    1.5204 H   0  0  0  0  0  0  0  0  0  0  0  0
   39.6968    2.2675   -1.4530 H   0  0  0  0  0  0  0  0  0  0  0  0
   37.8030    3.8747   -2.4404 H   0  0  0  0  0  0  0  0  0  0  0  0
   34.0604    3.3966   -4.2140 H   0  0  0  0  0  0  0  0  0  0  0  0
   33.9890    5.5126   -5.4826 H   0  0  0  0  0  0  0  0  0  0  0  0
   34.9938    7.5653   -4.5311 H   0  0  0  0  0  0  0  0  0  0  0  0
   36.0646    7.4908   -2.3004 H   0  0  0  0  0  0  0  0  0  0  0  0
   36.1218    5.3793   -1.0245 H   0  0  0  0  0  0  0  0  0  0  0  0
   32.4376    3.8928   -2.1933 H   0  0  0  0  0  0  0  0  0  0  0  0
   30.6231    2.1590   -1.2192 H   0  0  0  0  0  0  0  0  0  0  0  0
   35.9263    0.7184   -0.3584 H   0  0  0  0  0  0  0  0  0  0  0  0
   34.2440   -3.4721    4.2786 H   0  0  0  0  0  0  0  0  0  0  0  0
   34.2880   -5.5847    5.5530 H   0  0  0  0  0  0  0  0  0  0  0  0
   35.4195   -7.5771    4.6158 H   0  0  0  0  0  0  0  0  0  0  0  0
   36.4994   -7.4464    2.3920 H   0  0  0  0  0  0  0  0  0  0  0  0
   36.4398   -5.3388    1.1087 H   0  0  0  0  0  0  0  0  0  0  0  0
   94.3681    0.0452   -0.0816 C   0  0  0  0  0  0  0  0  0  0  0  0
   93.7471    1.0705   -0.7832 C   0  0  0  0  0  0  0  0  0  0  0  0
   94.3857    2.0939   -1.5383 C   0  0  0  0  0  0  0  0  0  0  0  0
   93.4146    2.9049   -2.0545 C   0  0  0  0  0  0  0  0  0  0  0  0
   92.1513    2.4089   -1.6228 C   0  0  0  0  0  0  0  0  0  0  0  0
   92.4024    1.2971   -0.8699 N   0  0  0  0  0  0  0  0  0  0  0  0
   90.8835    2.9282   -1.9096 C   0  0  0  0  0  0  0  0  0  0  0  0
   89.6756    2.3664   -1.4901 C   0  0  0  0  0  0  0  0  0  0  0  0
   88.3742    2.9566   -1.7476 C   0  0  0  0  0  0  0  0  0  0  0  0
   87.4625    2.1247   -1.2030 C   0  0  0  0  0  0  0  0  0  0  0  0
   89.5327    1.2122   -0.7814 N   0  0  0  0  0  0  0  0  0  0  0  0
   88.2083    1.0344   -0.6046 C   0  0  0  0  0  0  0  0  0  0  0  0
   87.5818   -0.0462    0.0498 C   0  0  0  0  0  0  0  0  0  0  0  0
   88.2285   -1.1131    0.7020 C   0  0  0  0  0  0  0  0  0  0  0  0
   87.5958   -2.2092    1.3462 C   0  0  0  0  0  0  0  0  0  0  0  0
   88.5715   -3.0083    1.8748 C   0  0  0  0  0  0  0  0  0  0  0  0
   89.8313   -2.4195    1.5750 C   0  0  0  0  0  0  0  0  0  0  0  0
   91.0981   -2.9040    1.9165 C   0  0  0  0  0  0  0  0  0  0  0  0
   91.1432   -4.1388    2.7370 C   0  0  0  0  0  0  0  0  0  0  0  0
   91.7664   -5.2894    2.2515 C   0  0  0  0  0  0  0  0  0  0  0  0
   91.8077   -6.4423    3.0209 C   0  0  0  0  0  0  0  0  0  0  0  0
   91.2323   -6.4601    4.2842 C   0  0  0  0  0  0  0  0  0  0  0  0
   90.6114   -5.3195    4.7749 C   0  0  0  0  0  0  0  0  0  0  0  0
   90.5637   -4.1660    4.0065 C   0  0  0  0  0  0  0  0  0  0  0  0
   92.3084   -2.3109    1.5412 C   0  0  0  0  0  0  0  0  0  0  0  0
   93.6187   -2.7996    1.9416 C   0  0  0  0  0  0  0  0  0  0  0  0
   94.5233   -1.9755    1.3757 C   0  0  0  0  0  0  0  0  0  0  0  0
   93.7669   -0.9765    0.6416 C   0  0  0  0  0  0  0  0  0  0  0  0
   92.4368   -1.2041    0.7717 N   0  0  0  0  0  0  0  0  0  0  0  0
   89.5718   -1.2820    0.8565 N   0  0  0  0  0  0  0  0  0  0  0  0
   90.8399    4.1693   -2.7212 C   0  0  0  0  0  0  0  0  0  0  0  0
   91.4485    5.3380   -2.2610 C   0  0  0  0  0  0  0  0  0  0  0  0
   91.4071    6.4969   -3.0216 C   0  0  0  0  0  0  0  0  0  0  0  0
   90.7629    6.5024   -4.2513 C   0  0  0  0  0  0  0  0  0  0  0  0
   90.1570    5.3434   -4.7171 C   0  0  0  0  0  0  0  0  0  0  0  0
   90.1926    4.1837   -3.9577 C   0  0  0  0  0  0  0  0  0  0  0  0
   95.4532    0.0526   -0.1049 H   0  0  0  0  0  0  0  0  0  0  0  0
   95.4527    2.1833   -1.6669 H   0  0  0  0  0  0  0  0  0  0  0  0
   93.5546    3.7668   -2.6865 H   0  0  0  0  0  0  0  0  0  0  0  0
   91.6848    0.7233   -0.4399 H   0  0  0  0  0  0  0  0  0  0  0  0
   88.2039    3.8881   -2.2627 H   0  0  0  0  0  0  0  0  0  0  0  0
   86.3887    2.2216   -1.1861 H   0  0  0  0  0  0  0  0  0  0  0  0
   86.5293   -2.3607    1.3900 H   0  0  0  0  0  0  0  0  0  0  0  0
   88.4346   -3.9302    2.4161 H   0  0  0  0  0  0  0  0  0  0  0  0
   92.2044   -5.2818    1.2596 H   0  0  0  0  0  0  0  0  0  0  0  0
   92.2908   -7.3317    2.6316 H   0  0  0  0  0  0  0  0  0  0  0  0
   91.2678   -7.3614    4.8856 H   0  0  0  0  0  0  0  0  0  0  0  0
   90.1631   -5.3268    5.7622 H   0  0  0  0  0  0  0  0  0  0  0  0
   90.0911   -3.2719    4.3978 H   0  0  0  0  0  0  0  0  0  0  0  0
   93.7971   -3.6507    2.5790 H   0  0  0  0  0  0  0  0  0  0  0  0
   95.5998   -2.0089    1.4382 H   0  0  0  0  0  0  0  0  0  0  0  0
   90.2873   -0.6623    0.4909 H   0  0  0  0  0  0  0  0  0  0  0  0
   91.9392    5.3404   -1.2939 H   0  0  0  0  0  0  0  0  0  0  0  0
   91.8789    7.4003   -2.6512 H   0  0  0  0  0  0  0  0  0  0  0  0
   90.7328    7.4086   -4.8455 H   0  0  0  0  0  0  0  0  0  0  0  0
   89.6548    5.3416   -5.6782 H   0  0  0  0  0  0  0  0  0  0  0  0
   89.7306    3.2759   -4.3294 H   0  0  0  0  0  0  0  0  0  0  0  0
   40.0329    0.0634    0.0150 C   0  0  0  0  0  0  0  0  0  0  0  0
   41.2575    0.0732    0.0010 C   0  0  0  0  0  0  0  0  0  0  0  0
   42.6000    0.0801   -0.0134 C   0  0  0  0  0  0  0  0  0  0  0  0
   43.8307    0.0831   -0.0263 C   0  0  0  0  0  0  0  0  0  0  0  0
   45.1685    0.0825   -0.0393 C   0  0  0  0  0  0  0  0  0  0  0  0
   46.3994    0.0772   -0.0476 C   0  0  0  0  0  0  0  0  0  0  0  0
   47.7418    0.0727   -0.0530 C   0  0  0  0  0  0  0  0  0  0  0  0
   48.9666    0.0630   -0.0573 C   0  0  0  0  0  0  0  0  0  0  0  0
   58.6384   -0.0186    0.0493 C   0  0  0  0  0  0  0  0  0  0  0  0
   59.8636   -0.0281    0.0640 C   0  0  0  0  0  0  0  0  0  0  0  0
   61.2052   -0.0330    0.0754 C   0  0  0  0  0  0  0  0  0  0  0  0
   62.4365   -0.0323    0.0834 C   0  0  0  0  0  0  0  0  0  0  0  0
   63.7735   -0.0358    0.0820 C   0  0  0  0  0  0  0  0  0  0  0  0
   65.0049   -0.0334    0.0779 C   0  0  0  0  0  0  0  0  0  0  0  0
   66.3465   -0.0276    0.0668 C   0  0  0  0  0  0  0  0  0  0  0  0
   67.5717   -0.0291    0.0515 C   0  0  0  0  0  0  0  0  0  0  0  0
   77.2430   -0.0834   -0.0016 C   0  0  0  0  0  0  0  0  0  0  0  0
   78.4679   -0.0971    0.0118 C   0  0  0  0  0  0  0  0  0  0  0  0
   79.8101   -0.1046    0.0230 C   0  0  0  0  0  0  0  0  0  0  0  0
   81.0409   -0.1089    0.0376 C   0  0  0  0  0  0  0  0  0  0  0  0
   82.3786   -0.1086    0.0475 C   0  0  0  0  0  0  0  0  0  0  0  0
   83.6094   -0.1041    0.0570 C   0  0  0  0  0  0  0  0  0  0  0  0
   84.9519   -0.0889    0.0624 C   0  0  0  0  0  0  0  0  0  0  0  0
   86.1765   -0.0701    0.0610 C   0  0  0  0  0  0  0  0  0  0  0  0
   50.3712    0.0571   -0.0563 C   0  0  0  0  0  0  0  0  0  0  0  0
   51.0012    1.2133    0.4434 C   0  0  0  0  0  0  0  0  0  0  0  0
   50.3557    2.3669    0.9586 C   0  0  0  0  0  0  0  0  0  0  0  0
   51.3236    3.2612    1.3265 C   0  0  0  0  0  0  0  0  0  0  0  0
   52.5890    2.6809    1.0389 C   0  0  0  0  0  0  0  0  0  0  0  0
   52.3431    1.4403    0.5141 N   0  0  0  0  0  0  0  0  0  0  0  0
   53.8500    3.2461    1.2643 C   0  0  0  0  0  0  0  0  0  0  0  0
   55.0740    2.6245    1.0146 C   0  0  0  0  0  0  0  0  0  0  0  0
   56.3616    3.2650    1.2149 C   0  0  0  0  0  0  0  0  0  0  0  0
   57.2982    2.3562    0.8732 C   0  0  0  0  0  0  0  0  0  0  0  0
   55.2500    1.3594    0.5415 N   0  0  0  0  0  0  0  0  0  0  0  0
   56.5813    1.1677    0.4552 C   0  0  0  0  0  0  0  0  0  0  0  0
   57.2349   -0.0062    0.0271 C   0  0  0  0  0  0  0  0  0  0  0  0
   56.6037   -1.1784   -0.4332 C   0  0  0  0  0  0  0  0  0  0  0  0
   57.2471   -2.3729   -0.8480 C   0  0  0  0  0  0  0  0  0  0  0  0
   56.2793   -3.2586   -1.2364 C   0  0  0  0  0  0  0  0  0  0  0  0
   55.0163   -2.6264   -1.0767 C   0  0  0  0  0  0  0  0  0  0  0  0
   53.7563   -3.1722   -1.3499 C   0  0  0  0  0  0  0  0  0  0  0  0
   53.7418   -4.5421   -1.9221 C   0  0  0  0  0  0  0  0  0  0  0  0
   54.3339   -4.7969   -3.1598 C   0  0  0  0  0  0  0  0  0  0  0  0
   54.3170   -6.0763   -3.6949 C   0  0  0  0  0  0  0  0  0  0  0  0
   53.7150   -7.1160   -2.9993 C   0  0  0  0  0  0  0  0  0  0  0  0
   53.1269   -6.8709   -1.7658 C   0  0  0  0  0  0  0  0  0  0  0  0
   53.1372   -5.5920   -1.2298 C   0  0  0  0  0  0  0  0  0  0  0  0
   52.5324   -2.5386   -1.1296 C   0  0  0  0  0  0  0  0  0  0  0  0
   51.2467   -3.1223   -1.4686 C   0  0  0  0  0  0  0  0  0  0  0  0
   50.3098   -2.2240   -1.1010 C   0  0  0  0  0  0  0  0  0  0  0  0
   51.0249   -1.0895   -0.5508 C   0  0  0  0  0  0  0  0  0  0  0  0
   52.3559   -1.3015   -0.5886 N   0  0  0  0  0  0  0  0  0  0  0  0
   55.2632   -1.3744   -0.5795 N   0  0  0  0  0  0  0  0  0  0  0  0
   53.8655    4.6240    1.8172 C   0  0  0  0  0  0  0  0  0  0  0  0
   53.3111    5.6820    1.0958 C   0  0  0  0  0  0  0  0  0  0  0  0
   53.3294    6.9686    1.6132 C   0  0  0  0  0  0  0  0  0  0  0  0
   53.8946    7.2128    2.8574 C   0  0  0  0  0  0  0  0  0  0  0  0
   54.4447    6.1646    3.5826 C   0  0  0  0  0  0  0  0  0  0  0  0
   54.4334    4.8776    3.0663 C   0  0  0  0  0  0  0  0  0  0  0  0
   49.2874    2.4871    1.0384 H   0  0  0  0  0  0  0  0  0  0  0  0
   51.1763    4.2336    1.7671 H   0  0  0  0  0  0  0  0  0  0  0  0
   53.0610    0.7833    0.2274 H   0  0  0  0  0  0  0  0  0  0  0  0
   56.5070    4.2765    1.5577 H   0  0  0  0  0  0  0  0  0  0  0  0
   58.3716    2.4578    0.8855 H   0  0  0  0  0  0  0  0  0  0  0  0
   58.3139   -2.5281   -0.8420 H   0  0  0  0  0  0  0  0  0  0  0  0
   56.4250   -4.2651   -1.5934 H   0  0  0  0  0  0  0  0  0  0  0  0
   54.7929   -3.9834   -3.7107 H   0  0  0  0  0  0  0  0  0  0  0  0
   54.7750   -6.2615   -4.6602 H   0  0  0  0  0  0  0  0  0  0  0  0
   53.7041   -8.1158   -3.4181 H   0  0  0  0  0  0  0  0  0  0  0  0
   52.6581   -7.6802   -1.2172 H   0  0  0  0  0  0  0  0  0  0  0  0
   52.6882   -5.4046   -0.2608 H   0  0  0  0  0  0  0  0  0  0  0  0
   51.1028   -4.0833   -1.9351 H   0  0  0  0  0  0  0  0  0  0  0  0
   49.2376   -2.2934   -1.1910 H   0  0  0  0  0  0  0  0  0  0  0  0
   54.5460   -0.6946   -0.3497 H   0  0  0  0  0  0  0  0  0  0  0  0
   52.8809    5.4954    0.1180 H   0  0  0  0  0  0  0  0  0  0  0  0
   52.9012    7.7843    1.0412 H   0  0  0  0  0  0  0  0  0  0  0  0
   53.9064    8.2188    3.2612 H   0  0  0  0  0  0  0  0  0  0  0  0
   54.8846    6.3496    4.5563 H   0  0  0  0  0  0  0  0  0  0  0  0
   54.8528    4.0578    3.6387 H   0  0  0  0  0  0  0  0  0  0  0  0
   68.9752   -0.0290    0.0291 C   0  0  0  0  0  0  0  0  0  0  0  0
   69.6113    1.1262    0.5246 C   0  0  0  0  0  0  0  0  0  0  0  0
   68.9724    2.2734    1.0617 C   0  0  0  0  0  0  0  0  0  0  0  0
   69.9438    3.1741    1.4040 C   0  0  0  0  0  0  0  0  0  0  0  0
   71.2047    2.6040    1.0790 C   0  0  0  0  0  0  0  0  0  0  0  0
   70.9529    1.3620    0.5599 N   0  0  0  0  0  0  0  0  0  0  0  0
   72.4671    3.1800    1.2659 C   0  0  0  0  0  0  0  0  0  0  0  0
   73.6886    2.5645    0.9884 C   0  0  0  0  0  0  0  0  0  0  0  0
   74.9775    3.2121    1.1552 C   0  0  0  0  0  0  0  0  0  0  0  0
   75.9106    2.3030    0.8050 C   0  0  0  0  0  0  0  0  0  0  0  0
   73.8596    1.2964    0.5226 N   0  0  0  0  0  0  0  0  0  0  0  0
   75.1901    1.1081    0.4125 C   0  0  0  0  0  0  0  0  0  0  0  0
   75.8387   -0.0686   -0.0139 C   0  0  0  0  0  0  0  0  0  0  0  0
   75.2033   -1.2427   -0.4622 C   0  0  0  0  0  0  0  0  0  0  0  0
   75.8430   -2.4354   -0.8880 C   0  0  0  0  0  0  0  0  0  0  0  0
   74.8715   -3.3209   -1.2678 C   0  0  0  0  0  0  0  0  0  0  0  0
   73.6098   -2.6907   -1.0899 C   0  0  0  0  0  0  0  0  0  0  0  0
   72.3471   -3.2376   -1.3487 C   0  0  0  0  0  0  0  0  0  0  0  0
   72.3277   -4.6036   -1.9301 C   0  0  0  0  0  0  0  0  0  0  0  0
   72.9034   -4.8480   -3.1776 C   0  0  0  0  0  0  0  0  0  0  0  0
   72.8820   -6.1233   -3.7218 C   0  0  0  0  0  0  0  0  0  0  0  0
   72.2922   -7.1695   -3.0255 C   0  0  0  0  0  0  0  0  0  0  0  0
   71.7209   -6.9350   -1.7822 C   0  0  0  0  0  0  0  0  0  0  0  0
   71.7354   -5.6600   -1.2370 C   0  0  0  0  0  0  0  0  0  0  0  0
   71.1256   -2.6084   -1.1057 C   0  0  0  0  0  0  0  0  0  0  0  0
   69.8362   -3.1924   -1.4291 C   0  0  0  0  0  0  0  0  0  0  0  0
   68.9031   -2.2999   -1.0381 C   0  0  0  0  0  0  0  0  0  0  0  0
   69.6242   -1.1685   -0.4895 C   0  0  0  0  0  0  0  0  0  0  0  0
   70.9545   -1.3761   -0.5512 N   0  0  0  0  0  0  0  0  0  0  0  0
   73.8611   -1.4402   -0.5920 N   0  0  0  0  0  0  0  0  0  0  0  0
   72.4869    4.5622    1.8074 C   0  0  0  0  0  0  0  0  0  0  0  0
   71.8992    5.6082    1.0946 C   0  0  0  0  0  0  0  0  0  0  0  0
   71.9206    6.8996    1.5996 C   0  0  0  0  0  0  0  0  0  0  0  0
   72.5225    7.1609    2.8229 C   0  0  0  0  0  0  0  0  0  0  0  0
   73.1062    6.1250    3.5395 C   0  0  0  0  0  0  0  0  0  0  0  0
   73.0916    4.8331    3.0355 C   0  0  0  0  0  0  0  0  0  0  0  0
   67.9059    2.3854    1.1723 H   0  0  0  0  0  0  0  0  0  0  0  0
   69.8020    4.1442    1.8515 H   0  0  0  0  0  0  0  0  0  0  0  0
   71.6676    0.7115    0.2510 H   0  0  0  0  0  0  0  0  0  0  0  0
   75.1261    4.2278    1.4842 H   0  0  0  0  0  0  0  0  0  0  0  0
   76.9837    2.4084    0.7950 H   0  0  0  0  0  0  0  0  0  0  0  0
   76.9100   -2.5889   -0.8965 H   0  0  0  0  0  0  0  0  0  0  0  0
   75.0138   -4.3257   -1.6306 H   0  0  0  0  0  0  0  0  0  0  0  0
   73.3529   -4.0293   -3.7287 H   0  0  0  0  0  0  0  0  0  0  0  0
   73.3270   -6.3004   -4.6947 H   0  0  0  0  0  0  0  0  0  0  0  0
   72.2779   -8.1664   -3.4514 H   0  0  0  0  0  0  0  0  0  0  0  0
   71.2619   -7.7495   -1.2329 H   0  0  0  0  0  0  0  0  0  0  0  0
   71.2995   -5.4807   -0.2605 H   0  0  0  0  0  0  0  0  0  0  0  0
   69.6872   -4.1496   -1.9018 H   0  0  0  0  0  0  0  0  0  0  0  0
   67.8297   -2.3717   -1.1114 H   0  0  0  0  0  0  0  0  0  0  0  0
   73.1463   -0.7617   -0.3513 H   0  0  0  0  0  0  0  0  0  0  0  0
   71.4402    5.4082    0.1327 H   0  0  0  0  0  0  0  0  0  0  0  0
   71.4660    7.7056    1.0342 H   0  0  0  0  0  0  0  0  0  0  0  0
   72.5368    8.1706    3.2172 H   0  0  0  0  0  0  0  0  0  0  0  0
   73.5749    6.3234    4.4969 H   0  0  0  0  0  0  0  0  0  0  0  0
   73.5370    4.0230    3.6020 H   0  0  0  0  0  0  0  0  0  0  0  0
  1  2  4  0  0  0  0
  2  3  4  0  0  0  0
  3  4  2  0  0  0  0
  4  5  4  0  0  0  0
  2  6  4  0  0  0  0
  5  6  4  0  0  0  0
  5  7  4  0  0  0  0
  7  8  4  0  0  0  0
  8  9  1  0  0  0  0
  9 10  2  0  0  0  0
  8 11  4  0  0  0  0
 10 12  1  0  0  0  0
 11 12  4  0  0  0  0
 12 13  4  0  0  0  0
 13 14  4  0  0  0  0
 14 15  4  0  0  0  0
 15 16  2  0  0  0  0
 16 17  4  0  0  0  0
 17 18  4  0  0  0  0
 18 19  1  0  0  0  0
 19 20  4  0  0  0  0
 20 21  4  0  0  0  0
 21 22  4  0  0  0  0
 22 23  4  0  0  0  0
 19 24  4  0  0  0  0
 23 24  4  0  0  0  0
 18 25  4  0  0  0  0
 25 26  1  0  0  0  0
 26 27  2  0  0  0  0
  1 28  4  0  0  0  0
 27 28  1  0  0  0  0
 25 29  4  0  0  0  0
 28 29  4  0  0  0  0
 14 30  4  0  0  0  0
 17 30  4  0  0  0  0
  7 31  1  0  0  0  0
 31 32  4  0  0  0  0
 32 33  4  0  0  0  0
 33 34  4  0  0  0  0
 34 35  4  0  0  0  0
 31 36  4  0  0  0  0
 35 36  4  0  0  0  0
  1 37  1  0  0  0  0
  3 38  1  0  0  0  0
  4 39  1  0  0  0  0
  6 40  1  0  0  0  0
  9 41  1  0  0  0  0
 10 42  1  0  0  0  0
 15 43  1  0  0  0  0
 16 44  1  0  0  0  0
 20 45  1  0  0  0  0
 21 46  1  0  0  0  0
 22 47  1  0  0  0  0
 23 48  1  0  0  0  0
 24 49  1  0  0  0  0
 26 50  1  0  0  0  0
 27 51  1  0  0  0  0
 30 52  1  0  0  0  0
 32 53  1  0  0  0  0
 33 54  1  0  0  0  0
 34 55  1  0  0  0  0
 35 56  1  0  0  0  0
 36 57  1  0  0  0  0
 58 59  4  0  0  0  0
 59 60  4  0  0  0  0
 60 61  2  0  0  0  0
 61 62  4  0  0  0  0
 59 63  4  0  0  0  0
 62 63  4  0  0  0  0
 62 64  4  0  0  0  0
 64 65  4  0  0  0  0
 65 66  1  0  0  0  0
 66 67  2  0  0  0  0
 65 68  4  0  0  0  0
 67 69  1  0  0  0  0
 68 69  4  0  0  0  0
 69 70  4  0  0  0  0
 70 71  4  0  0  0  0
 71 72  4  0  0  0  0
 72 73  2  0  0  0  0
 73 74  4  0  0  0  0
 74 75  4  0  0  0  0
 75 76  1  0  0  0  0
 76 77  4  0  0  0  0
 77 78  4  0  0  0  0
 78 79  4  0  0  0  0
 79 80  4  0  0  0  0
 76 81  4  0  0  0  0
 80 81  4  0  0  0  0
 75 82  4  0  0  0  0
 82 83  1  0  0  0  0
 83 84  2  0  0  0  0
 58 85  4  0  0  0  0
 84 85  1  0  0  0  0
 82 86  4  0  0  0  0
 85 86  4  0  0  0  0
 71 87  4  0  0  0  0
 74 87  4  0  0  0  0
 64 88  1  0  0  0  0
 88 89  4  0  0  0  0
 89 90  4  0  0  0  0
 90 91  4  0  0  0  0
 91 92  4  0  0  0  0
 88 93  4  0  0  0  0
 92 93  4  0  0  0  0
 58 94  1  0  0  0  0
 60 95  1  0  0  0  0
 61 96  1  0  0  0  0
 63 97  1  0  0  0  0
 66 98  1  0  0  0  0
 67 99  1  0  0  0  0
 72100  1  0  0  0  0
 73101  1  0  0  0  0
 77102  1  0  0  0  0
 78103  1  0  0  0  0
 79104  1  0  0  0  0
 80105  1  0  0  0  0
 81106  1  0  0  0  0
 83107  1  0  0  0  0
 84108  1  0  0  0  0
 87109  1  0  0  0  0
 89110  1  0  0  0  0
 90111  1  0  0  0  0
 91112  1  0  0  0  0
 92113  1  0  0  0  0
 93114  1  0  0  0  0
 13115  4  0  0  0  0
115116  3  0  0  0  0
116117  4  0  0  0  0
117118  3  0  0  0  0
118119  4  0  0  0  0
119120  3  0  0  0  0
120121  4  0  0  0  0
121122  3  0  0  0  0
123124  3  0  0  0  0
124125  4  0  0  0  0
125126  3  0  0  0  0
126127  4  0  0  0  0
127128  3  0  0  0  0
128129  4  0  0  0  0
129130  3  0  0  0  0
131132  3  0  0  0  0
132133  4  0  0  0  0
133134  3  0  0  0  0
134135  4  0  0  0  0
135136  3  0  0  0  0
136137  4  0  0  0  0
 70138  4  0  0  0  0
137138  3  0  0  0  0
122139  4  0  0  0  0
139140  4  0  0  0  0
140141  4  0  0  0  0
141142  2  0  0  0  0
142143  4  0  0  0  0
140144  4  0  0  0  0
143144  4  0  0  0  0
143145  4  0  0  0  0
145146  4  0  0  0  0
146147  1  0  0  0  0
147148  2  0  0  0  0
146149  4  0  0  0  0
148150  1  0  0  0  0
149150  4  0  0  0  0
123151  4  0  0  0  0
150151  4  0  0  0  0
151152  4  0  0  0  0
152153  4  0  0  0  0
153154  2  0  0  0  0
154155  4  0  0  0  0
155156  4  0  0  0  0
156157  1  0  0  0  0
157158  4  0  0  0  0
158159  4  0  0  0  0
159160  4  0  0  0  0
160161  4  0  0  0  0
157162  4  0  0  0  0
161162  4  0  0  0  0
156163  4  0  0  0  0
163164  1  0  0  0  0
164165  2  0  0  0  0
139166  4  0  0  0  0
165166  1  0  0  0  0
163167  4  0  0  0  0
166167  4  0  0  0  0
152168  4  0  0  0  0
155168  4  0  0  0  0
145169  1  0  0  0  0
169170  4  0  0  0  0
170171  4  0  0  0  0
171172  4  0  0  0  0
172173  4  0  0  0  0
169174  4  0  0  0  0
173174  4  0  0  0  0
141175  1  0  0  0  0
142176  1  0  0  0  0
144177  1  0  0  0  0
147178  1  0  0  0  0
148179  1  0  0  0  0
153180  1  0  0  0  0
154181  1  0  0  0  0
158182  1  0  0  0  0
159183  1  0  0  0  0
160184  1  0  0  0  0
161185  1  0  0  0  0
162186  1  0  0  0  0
164187  1  0  0  0  0
165188  1  0  0  0  0
168189  1  0  0  0  0
170190  1  0  0  0  0
171191  1  0  0  0  0
172192  1  0  0  0  0
173193  1  0  0  0  0
174194  1  0  0  0  0
130195  4  0  0  0  0
195196  4  0  0  0  0
196197  4  0  0  0  0
197198  2  0  0  0  0
198199  4  0  0  0  0
196200  4  0  0  0  0
199200  4  0  0  0  0
199201  4  0  0  0  0
201202  4  0  0  0  0
202203  1  0  0  0  0
203204  2  0  0  0  0
202205  4  0  0  0  0
204206  1  0  0  0  0
205206  4  0  0  0  0
131207  4  0  0  0  0
206207  4  0  0  0  0
207208  4  0  0  0  0
208209  4  0  0  0  0
209210  2  0  0  0  0
210211  4  0  0  0  0
211212  4  0  0  0  0
212213  1  0  0  0  0
213214  4  0  0  0  0
214215  4  0  0  0  0
215216  4  0  0  0  0
216217  4  0  0  0  0
213218  4  0  0  0  0
217218  4  0  0  0  0
212219  4  0  0  0  0
219220  1  0  0  0  0
220221  2  0  0  0  0
195222  4  0  0  0  0
221222  1  0  0  0  0
219223  4  0  0  0  0
222223  4  0  0  0  0
208224  4  0  0  0  0
211224  4  0  0  0  0
201225  1  0  0  0  0
225226  4  0  0  0  0
226227  4  0  0  0  0
227228  4  0  0  0  0
228229  4  0  0  0  0
225230  4  0  0  0  0
229230  4  0  0  0  0
197231  1  0  0  0  0
198232  1  0  0  0  0
200233  1  0  0  0  0
203234  1  0  0  0  0
204235  1  0  0  0  0
209236  1  0  0  0  0
210237  1  0  0  0  0
214238  1  0  0  0  0
215239  1  0  0  0  0
216240  1  0  0  0  0
217241  1  0  0  0  0
218242  1  0  0  0  0
220243  1  0  0  0  0
221244  1  0  0  0  0
224245  1  0  0  0  0
226246  1  0  0  0  0
227247  1  0  0  0  0
228248  1  0  0  0  0
229249  1  0  0  0  0
230250  1  0  0  0  0
M  END
