 xtb: 6.5.1 (b24c23e)
          07292219013D

326360  0     0  0            999 V2000
   54.6795   -0.1006    0.0651 C   0  0  0  0  0  0  0  0  0  0  0  0
   55.2934   -0.9763    0.9519 C   0  0  0  0  0  0  0  0  0  0  0  0
   54.6468   -1.9007    1.8188 C   0  0  0  0  0  0  0  0  0  0  0  0
   55.6116   -2.5529    2.5346 C   0  0  0  0  0  0  0  0  0  0  0  0
   56.8783   -2.0395    2.1363 C   0  0  0  0  0  0  0  0  0  0  0  0
   56.6361   -1.1024    1.1720 N   0  0  0  0  0  0  0  0  0  0  0  0
   58.1423   -2.4097    2.6127 C   0  0  0  0  0  0  0  0  0  0  0  0
   58.1797   -3.4170    3.6984 C   0  0  0  0  0  0  0  0  0  0  0  0
   58.8651   -4.6227    3.5275 C   0  0  0  0  0  0  0  0  0  0  0  0
   58.9008   -5.5682    4.5366 C   0  0  0  0  0  0  0  0  0  0  0  0
   58.2597   -5.3203    5.7532 C   0  0  0  0  0  0  0  0  0  0  0  0
   58.2612   -6.2794    6.7512 N   0  0  0  0  0  0  0  0  0  0  0  0
   57.5672   -4.1197    5.9305 C   0  0  0  0  0  0  0  0  0  0  0  0
   57.5288   -3.1834    4.9125 C   0  0  0  0  0  0  0  0  0  0  0  0
   59.3527   -1.8975    2.1375 C   0  0  0  0  0  0  0  0  0  0  0  0
   60.6503   -2.2365    2.6930 C   0  0  0  0  0  0  0  0  0  0  0  0
   61.5660   -1.5627    1.9661 C   0  0  0  0  0  0  0  0  0  0  0  0
   59.5014   -1.0137    1.1120 N   0  0  0  0  0  0  0  0  0  0  0  0
   60.8262   -0.8044    0.9766 C   0  0  0  0  0  0  0  0  0  0  0  0
   61.4587    0.0118    0.0160 C   0  0  0  0  0  0  0  0  0  0  0  0
   60.8186    0.8262   -0.9381 C   0  0  0  0  0  0  0  0  0  0  0  0
   61.4591    1.6246   -1.9217 C   0  0  0  0  0  0  0  0  0  0  0  0
   60.4899    2.2844   -2.6261 C   0  0  0  0  0  0  0  0  0  0  0  0
   59.2268    1.9152   -2.0869 C   0  0  0  0  0  0  0  0  0  0  0  0
   59.4774    1.0225   -1.0778 N   0  0  0  0  0  0  0  0  0  0  0  0
   57.9640    2.3529   -2.5027 C   0  0  0  0  0  0  0  0  0  0  0  0
   57.9285    3.3705   -3.5778 C   0  0  0  0  0  0  0  0  0  0  0  0
   57.2558    3.1203   -4.7768 C   0  0  0  0  0  0  0  0  0  0  0  0
   57.2241    4.0680   -5.7841 C   0  0  0  0  0  0  0  0  0  0  0  0
   57.8561    5.3016   -5.6072 C   0  0  0  0  0  0  0  0  0  0  0  0
   57.8598    6.2368   -6.6272 N   0  0  0  0  0  0  0  0  0  0  0  0
   58.5350    5.5584   -4.4132 C   0  0  0  0  0  0  0  0  0  0  0  0
   58.5698    4.6015   -3.4148 C   0  0  0  0  0  0  0  0  0  0  0  0
   56.7510    1.8961   -1.9733 C   0  0  0  0  0  0  0  0  0  0  0  0
   55.4443    2.3971   -2.3688 C   0  0  0  0  0  0  0  0  0  0  0  0
   54.5355    1.7023   -1.6544 C   0  0  0  0  0  0  0  0  0  0  0  0
   55.2863    0.7894   -0.8115 C   0  0  0  0  0  0  0  0  0  0  0  0
   56.6170    0.9421   -1.0218 N   0  0  0  0  0  0  0  0  0  0  0  0
   53.5942   -0.1187    0.0668 H   0  0  0  0  0  0  0  0  0  0  0  0
   53.5793   -2.0442    1.8732 H   0  0  0  0  0  0  0  0  0  0  0  0
   55.4638   -3.3298    3.2672 H   0  0  0  0  0  0  0  0  0  0  0  0
   57.3593   -0.5810    0.6878 H   0  0  0  0  0  0  0  0  0  0  0  0
   59.3571   -4.8269    2.5829 H   0  0  0  0  0  0  0  0  0  0  0  0
   59.4274   -6.5046    4.3877 H   0  0  0  0  0  0  0  0  0  0  0  0
   58.0842   -5.9283    7.6789 H   0  0  0  0  0  0  0  0  0  0  0  0
   59.0203   -6.9403    6.7047 H   0  0  0  0  0  0  0  0  0  0  0  0
   57.0647   -3.9227    6.8712 H   0  0  0  0  0  0  0  0  0  0  0  0
   57.0072   -2.2451    5.0669 H   0  0  0  0  0  0  0  0  0  0  0  0
   60.8165   -2.8881    3.5355 H   0  0  0  0  0  0  0  0  0  0  0  0
   62.6387   -1.5546    2.0758 H   0  0  0  0  0  0  0  0  0  0  0  0
   62.5259    1.6769   -2.0684 H   0  0  0  0  0  0  0  0  0  0  0  0
   60.6347    2.9577   -3.4552 H   0  0  0  0  0  0  0  0  0  0  0  0
   58.7571    0.5703   -0.5243 H   0  0  0  0  0  0  0  0  0  0  0  0
   56.7726    2.1612   -4.9270 H   0  0  0  0  0  0  0  0  0  0  0  0
   56.7083    3.8571   -6.7145 H   0  0  0  0  0  0  0  0  0  0  0  0
   57.1101    6.1432   -7.2939 H   0  0  0  0  0  0  0  0  0  0  0  0
   58.0284    7.1861   -6.3346 H   0  0  0  0  0  0  0  0  0  0  0  0
   59.0302    6.5128   -4.2709 H   0  0  0  0  0  0  0  0  0  0  0  0
   59.0813    4.8175   -2.4831 H   0  0  0  0  0  0  0  0  0  0  0  0
   55.2698    3.1842   -3.0848 H   0  0  0  0  0  0  0  0  0  0  0  0
   53.4599    1.7859   -1.6662 H   0  0  0  0  0  0  0  0  0  0  0  0
  125.4836    0.0561   -0.1198 C   0  0  0  0  0  0  0  0  0  0  0  0
  124.8657    0.7048   -1.1816 C   0  0  0  0  0  0  0  0  0  0  0  0
  125.5090    1.3408   -2.2797 C   0  0  0  0  0  0  0  0  0  0  0  0
  124.5406    1.8717   -3.0854 C   0  0  0  0  0  0  0  0  0  0  0  0
  123.2749    1.5860   -2.4997 C   0  0  0  0  0  0  0  0  0  0  0  0
  123.5214    0.8704   -1.3623 N   0  0  0  0  0  0  0  0  0  0  0  0
  122.0081    1.9430   -2.9789 C   0  0  0  0  0  0  0  0  0  0  0  0
  121.9660    2.7678   -4.2089 C   0  0  0  0  0  0  0  0  0  0  0  0
  121.2957    2.3159   -5.3486 C   0  0  0  0  0  0  0  0  0  0  0  0
  121.2535    3.0838   -6.4985 C   0  0  0  0  0  0  0  0  0  0  0  0
  121.8727    4.3361   -6.5290 C   0  0  0  0  0  0  0  0  0  0  0  0
  121.8641    5.0913   -7.6890 N   0  0  0  0  0  0  0  0  0  0  0  0
  122.5512    4.7925   -5.3960 C   0  0  0  0  0  0  0  0  0  0  0  0
  122.5962    4.0141   -4.2531 C   0  0  0  0  0  0  0  0  0  0  0  0
  120.7995    1.5804   -2.3783 C   0  0  0  0  0  0  0  0  0  0  0  0
  119.4973    2.0161   -2.8490 C   0  0  0  0  0  0  0  0  0  0  0  0
  118.5857    1.4558   -2.0269 C   0  0  0  0  0  0  0  0  0  0  0  0
  120.6571    0.7932   -1.2759 N   0  0  0  0  0  0  0  0  0  0  0  0
  119.3325    0.6910   -1.0476 C   0  0  0  0  0  0  0  0  0  0  0  0
  118.7057   -0.0430   -0.0193 C   0  0  0  0  0  0  0  0  0  0  0  0
  119.3504   -0.7574    1.0087 C   0  0  0  0  0  0  0  0  0  0  0  0
  118.7149   -1.5230    2.0214 C   0  0  0  0  0  0  0  0  0  0  0  0
  119.6875   -2.0408    2.8317 C   0  0  0  0  0  0  0  0  0  0  0  0
  120.9478   -1.5981    2.3435 C   0  0  0  0  0  0  0  0  0  0  0  0
  120.6921   -0.8354    1.2339 N   0  0  0  0  0  0  0  0  0  0  0  0
  122.2128   -1.8888    2.8673 C   0  0  0  0  0  0  0  0  0  0  0  0
  122.2552   -2.6926    4.1101 C   0  0  0  0  0  0  0  0  0  0  0  0
  122.9390   -3.9107    4.1493 C   0  0  0  0  0  0  0  0  0  0  0  0
  122.9782   -4.6660    5.3076 C   0  0  0  0  0  0  0  0  0  0  0  0
  122.3424   -4.2092    6.4650 C   0  0  0  0  0  0  0  0  0  0  0  0
  122.3465   -4.9800    7.6144 N   0  0  0  0  0  0  0  0  0  0  0  0
  121.6522   -2.9946    6.4335 C   0  0  0  0  0  0  0  0  0  0  0  0
  121.6102   -2.2501    5.2682 C   0  0  0  0  0  0  0  0  0  0  0  0
  123.4227   -1.4733    2.2983 C   0  0  0  0  0  0  0  0  0  0  0  0
  124.7311   -1.7263    2.8807 C   0  0  0  0  0  0  0  0  0  0  0  0
  125.6360   -1.1878    2.0380 C   0  0  0  0  0  0  0  0  0  0  0  0
  124.8812   -0.5926    0.9501 C   0  0  0  0  0  0  0  0  0  0  0  0
  123.5518   -0.7740    1.1460 N   0  0  0  0  0  0  0  0  0  0  0  0
  126.5690    0.0665   -0.1341 H   0  0  0  0  0  0  0  0  0  0  0  0
  126.5768    1.3752   -2.4267 H   0  0  0  0  0  0  0  0  0  0  0  0
  124.6853    2.4051   -4.0109 H   0  0  0  0  0  0  0  0  0  0  0  0
  122.8002    0.5117   -0.7455 H   0  0  0  0  0  0  0  0  0  0  0  0
  120.8206    1.3412   -5.3364 H   0  0  0  0  0  0  0  0  0  0  0  0
  120.7383    2.7175   -7.3798 H   0  0  0  0  0  0  0  0  0  0  0  0
  122.0230    6.0773   -7.5556 H   0  0  0  0  0  0  0  0  0  0  0  0
  121.1114    4.8836   -8.3258 H   0  0  0  0  0  0  0  0  0  0  0  0
  123.0373    5.7619   -5.4146 H   0  0  0  0  0  0  0  0  0  0  0  0
  123.1063    4.3861   -3.3711 H   0  0  0  0  0  0  0  0  0  0  0  0
  119.3247    2.6750   -3.6846 H   0  0  0  0  0  0  0  0  0  0  0  0
  117.5115    1.5461   -2.0525 H   0  0  0  0  0  0  0  0  0  0  0  0
  117.6490   -1.6606    2.1067 H   0  0  0  0  0  0  0  0  0  0  0  0
  119.5470   -2.6841    3.6849 H   0  0  0  0  0  0  0  0  0  0  0  0
  121.4096   -0.4031    0.6613 H   0  0  0  0  0  0  0  0  0  0  0  0
  123.4252   -4.2784    3.2524 H   0  0  0  0  0  0  0  0  0  0  0  0
  123.5027   -5.6152    5.3217 H   0  0  0  0  0  0  0  0  0  0  0  0
  123.1021   -5.6434    7.6798 H   0  0  0  0  0  0  0  0  0  0  0  0
  122.1740   -4.4734    8.4681 H   0  0  0  0  0  0  0  0  0  0  0  0
  121.1540   -2.6360    7.3276 H   0  0  0  0  0  0  0  0  0  0  0  0
  121.0901   -1.2983    5.2590 H   0  0  0  0  0  0  0  0  0  0  0  0
  124.9090   -2.2335    3.8154 H   0  0  0  0  0  0  0  0  0  0  0  0
  126.7113   -1.1688    2.1239 H   0  0  0  0  0  0  0  0  0  0  0  0
   66.6605    0.0519   -0.0339 C   0  0  0  0  0  0  0  0  0  0  0  0
   65.4318    0.0441   -0.0261 C   0  0  0  0  0  0  0  0  0  0  0  0
   64.0879    0.0372   -0.0136 C   0  0  0  0  0  0  0  0  0  0  0  0
   62.8638    0.0264    0.0009 C   0  0  0  0  0  0  0  0  0  0  0  0
   68.0042    0.0597   -0.0362 C   0  0  0  0  0  0  0  0  0  0  0  0
   69.2287    0.0670   -0.0366 C   0  0  0  0  0  0  0  0  0  0  0  0
   82.6836   -0.0806   -0.0151 C   0  0  0  0  0  0  0  0  0  0  0  0
   81.4544   -0.0775   -0.0177 C   0  0  0  0  0  0  0  0  0  0  0  0
   80.1113   -0.0660   -0.0151 C   0  0  0  0  0  0  0  0  0  0  0  0
   78.8866   -0.0475   -0.0118 C   0  0  0  0  0  0  0  0  0  0  0  0
   84.0267   -0.0765   -0.0126 C   0  0  0  0  0  0  0  0  0  0  0  0
   85.2515   -0.0657   -0.0136 C   0  0  0  0  0  0  0  0  0  0  0  0
   98.7090   -0.0727   -0.0176 C   0  0  0  0  0  0  0  0  0  0  0  0
   97.4798   -0.0747   -0.0152 C   0  0  0  0  0  0  0  0  0  0  0  0
   96.1367   -0.0700   -0.0145 C   0  0  0  0  0  0  0  0  0  0  0  0
   94.9119   -0.0605   -0.0095 C   0  0  0  0  0  0  0  0  0  0  0  0
  100.0521   -0.0654   -0.0161 C   0  0  0  0  0  0  0  0  0  0  0  0
  101.2769   -0.0533   -0.0150 C   0  0  0  0  0  0  0  0  0  0  0  0
  114.7326   -0.0863    0.0109 C   0  0  0  0  0  0  0  0  0  0  0  0
  113.5039   -0.0851    0.0112 C   0  0  0  0  0  0  0  0  0  0  0  0
  112.1602   -0.0765    0.0123 C   0  0  0  0  0  0  0  0  0  0  0  0
  110.9358   -0.0615    0.0143 C   0  0  0  0  0  0  0  0  0  0  0  0
  116.0765   -0.0796    0.0047 C   0  0  0  0  0  0  0  0  0  0  0  0
  117.3006   -0.0661   -0.0051 C   0  0  0  0  0  0  0  0  0  0  0  0
   70.6329    0.0663   -0.0303 C   0  0  0  0  0  0  0  0  0  0  0  0
   71.2515   -0.2518    1.1948 C   0  0  0  0  0  0  0  0  0  0  0  0
   70.5937   -0.5932    2.4041 C   0  0  0  0  0  0  0  0  0  0  0  0
   71.5507   -0.7890    3.3627 C   0  0  0  0  0  0  0  0  0  0  0  0
   72.8210   -0.5648    2.7668 C   0  0  0  0  0  0  0  0  0  0  0  0
   72.5897   -0.2563    1.4527 N   0  0  0  0  0  0  0  0  0  0  0  0
   74.0749   -0.6509    3.3866 C   0  0  0  0  0  0  0  0  0  0  0  0
   74.0742   -0.9297    4.8421 C   0  0  0  0  0  0  0  0  0  0  0  0
   74.7126   -2.0620    5.3542 C   0  0  0  0  0  0  0  0  0  0  0  0
   74.7099   -2.3246    6.7125 C   0  0  0  0  0  0  0  0  0  0  0  0
   74.0779   -1.4455    7.5959 C   0  0  0  0  0  0  0  0  0  0  0  0
   74.0404   -1.7244    8.9507 N   0  0  0  0  0  0  0  0  0  0  0  0
   73.4330   -0.3132    7.0915 C   0  0  0  0  0  0  0  0  0  0  0  0
   73.4315   -0.0638    5.7308 C   0  0  0  0  0  0  0  0  0  0  0  0
   75.3036   -0.4932    2.7423 C   0  0  0  0  0  0  0  0  0  0  0  0
   76.5855   -0.5301    3.4223 C   0  0  0  0  0  0  0  0  0  0  0  0
   77.5286   -0.3632    2.4715 C   0  0  0  0  0  0  0  0  0  0  0  0
   75.4885   -0.2792    1.4098 N   0  0  0  0  0  0  0  0  0  0  0  0
   76.8208   -0.2093    1.2166 C   0  0  0  0  0  0  0  0  0  0  0  0
   77.4833   -0.0203   -0.0139 C   0  0  0  0  0  0  0  0  0  0  0  0
   76.8635    0.2066   -1.2589 C   0  0  0  0  0  0  0  0  0  0  0  0
   77.5192    0.3709   -2.5058 C   0  0  0  0  0  0  0  0  0  0  0  0
   76.5625    0.6009   -3.4571 C   0  0  0  0  0  0  0  0  0  0  0  0
   75.2947    0.5925   -2.8155 C   0  0  0  0  0  0  0  0  0  0  0  0
   75.5269    0.3369   -1.4899 N   0  0  0  0  0  0  0  0  0  0  0  0
   74.0420    0.7933   -3.4101 C   0  0  0  0  0  0  0  0  0  0  0  0
   74.0395    1.1187   -4.8559 C   0  0  0  0  0  0  0  0  0  0  0  0
   74.7069    2.2496   -5.3333 C   0  0  0  0  0  0  0  0  0  0  0  0
   74.6996    2.5622   -6.6810 C   0  0  0  0  0  0  0  0  0  0  0  0
   74.0237    1.7413   -7.5875 C   0  0  0  0  0  0  0  0  0  0  0  0
   74.0533    2.0242   -8.9418 N   0  0  0  0  0  0  0  0  0  0  0  0
   73.3673    0.5995   -7.1203 C   0  0  0  0  0  0  0  0  0  0  0  0
   73.3708    0.3001   -5.7698 C   0  0  0  0  0  0  0  0  0  0  0  0
   72.8143    0.7098   -2.7493 C   0  0  0  0  0  0  0  0  0  0  0  0
   71.5357    0.9868   -3.3781 C   0  0  0  0  0  0  0  0  0  0  0  0
   70.5920    0.7772   -2.4363 C   0  0  0  0  0  0  0  0  0  0  0  0
   71.2965    0.3873   -1.2319 C   0  0  0  0  0  0  0  0  0  0  0  0
   72.6280    0.3686   -1.4441 N   0  0  0  0  0  0  0  0  0  0  0  0
   69.5251   -0.6801    2.5172 H   0  0  0  0  0  0  0  0  0  0  0  0
   71.3917   -1.0757    4.3894 H   0  0  0  0  0  0  0  0  0  0  0  0
   73.3164   -0.0650    0.7711 H   0  0  0  0  0  0  0  0  0  0  0  0
   75.1971   -2.7543    4.6744 H   0  0  0  0  0  0  0  0  0  0  0  0
   75.1991   -3.2130    7.0966 H   0  0  0  0  0  0  0  0  0  0  0  0
   74.7710   -2.3342    9.2813 H   0  0  0  0  0  0  0  0  0  0  0  0
   73.8731   -0.9287    9.5455 H   0  0  0  0  0  0  0  0  0  0  0  0
   72.9378    0.3714    7.7716 H   0  0  0  0  0  0  0  0  0  0  0  0
   72.9452    0.8277    5.3496 H   0  0  0  0  0  0  0  0  0  0  0  0
   76.7245   -0.6516    4.4844 H   0  0  0  0  0  0  0  0  0  0  0  0
   78.6005   -0.3314    2.5843 H   0  0  0  0  0  0  0  0  0  0  0  0
   78.5861    0.3134   -2.6495 H   0  0  0  0  0  0  0  0  0  0  0  0
   76.7199    0.7510   -4.5127 H   0  0  0  0  0  0  0  0  0  0  0  0
   74.8015    0.2506   -0.7860 H   0  0  0  0  0  0  0  0  0  0  0  0
   75.2170    2.9034   -4.6341 H   0  0  0  0  0  0  0  0  0  0  0  0
   75.2141    3.4478   -7.0378 H   0  0  0  0  0  0  0  0  0  0  0  0
   73.3056    1.6152   -9.4790 H   0  0  0  0  0  0  0  0  0  0  0  0
   74.2408    2.9869   -9.1721 H   0  0  0  0  0  0  0  0  0  0  0  0
   72.8541   -0.0499   -7.8211 H   0  0  0  0  0  0  0  0  0  0  0  0
   72.8667   -0.5926   -5.4163 H   0  0  0  0  0  0  0  0  0  0  0  0
   71.3995    1.3123   -4.3967 H   0  0  0  0  0  0  0  0  0  0  0  0
   69.5219    0.8806   -2.5202 H   0  0  0  0  0  0  0  0  0  0  0  0
   86.6550   -0.0508   -0.0096 C   0  0  0  0  0  0  0  0  0  0  0  0
   87.2806   -0.3388    1.2197 C   0  0  0  0  0  0  0  0  0  0  0  0
   86.6300   -0.6693    2.4357 C   0  0  0  0  0  0  0  0  0  0  0  0
   87.5918   -0.8404    3.3943 C   0  0  0  0  0  0  0  0  0  0  0  0
   88.8579   -0.6115    2.7913 C   0  0  0  0  0  0  0  0  0  0  0  0
   88.6194   -0.3242    1.4735 N   0  0  0  0  0  0  0  0  0  0  0  0
   90.1145   -0.6788    3.4079 C   0  0  0  0  0  0  0  0  0  0  0  0
   90.1211   -0.9400    4.8668 C   0  0  0  0  0  0  0  0  0  0  0  0
   90.7703   -2.0612    5.3898 C   0  0  0  0  0  0  0  0  0  0  0  0
   90.7769   -2.3062    6.7514 C   0  0  0  0  0  0  0  0  0  0  0  0
   90.1435   -1.4202    7.6268 C   0  0  0  0  0  0  0  0  0  0  0  0
   90.1165   -1.6811    8.9856 N   0  0  0  0  0  0  0  0  0  0  0  0
   89.4867   -0.2998    7.1114 C   0  0  0  0  0  0  0  0  0  0  0  0
   89.4760   -0.0679    5.7475 C   0  0  0  0  0  0  0  0  0  0  0  0
   91.3402   -0.5182    2.7586 C   0  0  0  0  0  0  0  0  0  0  0  0
   92.6243   -0.5393    3.4352 C   0  0  0  0  0  0  0  0  0  0  0  0
   93.5634   -0.3737    2.4802 C   0  0  0  0  0  0  0  0  0  0  0  0
   91.5199   -0.3143    1.4237 N   0  0  0  0  0  0  0  0  0  0  0  0
   92.8510   -0.2351    1.2262 C   0  0  0  0  0  0  0  0  0  0  0  0
   93.5084   -0.0457   -0.0069 C   0  0  0  0  0  0  0  0  0  0  0  0
   92.8828    0.1732   -1.2504 C   0  0  0  0  0  0  0  0  0  0  0  0
   93.5336    0.3497   -2.4981 C   0  0  0  0  0  0  0  0  0  0  0  0
   92.5717    0.5687   -3.4468 C   0  0  0  0  0  0  0  0  0  0  0  0
   91.3055    0.5393   -2.8029 C   0  0  0  0  0  0  0  0  0  0  0  0
   91.5439    0.2845   -1.4784 N   0  0  0  0  0  0  0  0  0  0  0  0
   90.0488    0.7181   -3.3966 C   0  0  0  0  0  0  0  0  0  0  0  0
   90.0421    1.0528   -4.8404 C   0  0  0  0  0  0  0  0  0  0  0  0
   90.6853    2.2026   -5.3059 C   0  0  0  0  0  0  0  0  0  0  0  0
   90.6747    2.5268   -6.6508 C   0  0  0  0  0  0  0  0  0  0  0  0
   90.0198    1.6989   -7.5663 C   0  0  0  0  0  0  0  0  0  0  0  0
   90.0469    1.9945   -8.9179 N   0  0  0  0  0  0  0  0  0  0  0  0
   89.3883    0.5385   -7.1110 C   0  0  0  0  0  0  0  0  0  0  0  0
   89.3949    0.2272   -5.7631 C   0  0  0  0  0  0  0  0  0  0  0  0
   88.8230    0.6076   -2.7369 C   0  0  0  0  0  0  0  0  0  0  0  0
   87.5388    0.8525   -3.3676 C   0  0  0  0  0  0  0  0  0  0  0  0
   86.5997    0.6271   -2.4249 C   0  0  0  0  0  0  0  0  0  0  0  0
   87.3123    0.2618   -1.2175 C   0  0  0  0  0  0  0  0  0  0  0  0
   88.6435    0.2689   -1.4298 N   0  0  0  0  0  0  0  0  0  0  0  0
   85.5627   -0.7667    2.5531 H   0  0  0  0  0  0  0  0  0  0  0  0
   87.4390   -1.1137    4.4256 H   0  0  0  0  0  0  0  0  0  0  0  0
   89.3417   -0.1346    0.7868 H   0  0  0  0  0  0  0  0  0  0  0  0
   91.2563   -2.7585    4.7163 H   0  0  0  0  0  0  0  0  0  0  0  0
   91.2749   -3.1858    7.1443 H   0  0  0  0  0  0  0  0  0  0  0  0
   90.8547   -2.2800    9.3193 H   0  0  0  0  0  0  0  0  0  0  0  0
   89.9476   -0.8782    9.5704 H   0  0  0  0  0  0  0  0  0  0  0  0
   88.9897    0.3896    7.7852 H   0  0  0  0  0  0  0  0  0  0  0  0
   88.9809    0.8148    5.3575 H   0  0  0  0  0  0  0  0  0  0  0  0
   92.7673   -0.6506    4.4978 H   0  0  0  0  0  0  0  0  0  0  0  0
   94.6354   -0.3328    2.5899 H   0  0  0  0  0  0  0  0  0  0  0  0
   94.6010    0.3081   -2.6439 H   0  0  0  0  0  0  0  0  0  0  0  0
   92.7247    0.7243   -4.5022 H   0  0  0  0  0  0  0  0  0  0  0  0
   90.8215    0.1870   -0.7728 H   0  0  0  0  0  0  0  0  0  0  0  0
   91.1790    2.8611   -4.5994 H   0  0  0  0  0  0  0  0  0  0  0  0
   91.1702    3.4268   -6.9983 H   0  0  0  0  0  0  0  0  0  0  0  0
   89.3098    1.5741   -9.4611 H   0  0  0  0  0  0  0  0  0  0  0  0
   90.2141    2.9631   -9.1391 H   0  0  0  0  0  0  0  0  0  0  0  0
   88.8918   -0.1162   -7.8190 H   0  0  0  0  0  0  0  0  0  0  0  0
   88.9104   -0.6800   -5.4191 H   0  0  0  0  0  0  0  0  0  0  0  0
   87.3955    1.1683   -4.3883 H   0  0  0  0  0  0  0  0  0  0  0  0
   85.5276    0.7061   -2.5100 H   0  0  0  0  0  0  0  0  0  0  0  0
  102.6804   -0.0381   -0.0072 C   0  0  0  0  0  0  0  0  0  0  0  0
  103.3020   -0.3257    1.2242 C   0  0  0  0  0  0  0  0  0  0  0  0
  102.6470   -0.6530    2.4390 C   0  0  0  0  0  0  0  0  0  0  0  0
  103.6059   -0.8290    3.3997 C   0  0  0  0  0  0  0  0  0  0  0  0
  104.8745   -0.6068    2.7993 C   0  0  0  0  0  0  0  0  0  0  0  0
  104.6402   -0.3173    1.4811 N   0  0  0  0  0  0  0  0  0  0  0  0
  106.1294   -0.6839    3.4176 C   0  0  0  0  0  0  0  0  0  0  0  0
  106.1332   -0.9500    4.8757 C   0  0  0  0  0  0  0  0  0  0  0  0
  106.7735   -2.0779    5.3950 C   0  0  0  0  0  0  0  0  0  0  0  0
  106.7798   -2.3264    6.7559 C   0  0  0  0  0  0  0  0  0  0  0  0
  106.1551   -1.4372    7.6344 C   0  0  0  0  0  0  0  0  0  0  0  0
  106.1286   -1.7007    8.9927 N   0  0  0  0  0  0  0  0  0  0  0  0
  105.5064   -0.3105    7.1225 C   0  0  0  0  0  0  0  0  0  0  0  0
  105.4959   -0.0751    5.7592 C   0  0  0  0  0  0  0  0  0  0  0  0
  107.3571   -0.5285    2.7704 C   0  0  0  0  0  0  0  0  0  0  0  0
  108.6401   -0.5613    3.4486 C   0  0  0  0  0  0  0  0  0  0  0  0
  109.5814   -0.3946    2.4961 C   0  0  0  0  0  0  0  0  0  0  0  0
  107.5394   -0.3175    1.4374 N   0  0  0  0  0  0  0  0  0  0  0  0
  108.8715   -0.2433    1.2422 C   0  0  0  0  0  0  0  0  0  0  0  0
  109.5316   -0.0433    0.0127 C   0  0  0  0  0  0  0  0  0  0  0  0
  108.9106    0.1889   -1.2302 C   0  0  0  0  0  0  0  0  0  0  0  0
  109.5657    0.3748   -2.4744 C   0  0  0  0  0  0  0  0  0  0  0  0
  108.6069    0.5967   -3.4255 C   0  0  0  0  0  0  0  0  0  0  0  0
  107.3382    0.5600   -2.7866 C   0  0  0  0  0  0  0  0  0  0  0  0
  107.5722    0.2992   -1.4626 N   0  0  0  0  0  0  0  0  0  0  0  0
  106.0831    0.7352   -3.3845 C   0  0  0  0  0  0  0  0  0  0  0  0
  106.0804    1.0695   -4.8285 C   0  0  0  0  0  0  0  0  0  0  0  0
  106.7193    2.2224   -5.2923 C   0  0  0  0  0  0  0  0  0  0  0  0
  106.7142    2.5445   -6.6377 C   0  0  0  0  0  0  0  0  0  0  0  0
  106.0695    1.7113   -7.5556 C   0  0  0  0  0  0  0  0  0  0  0  0
  106.1033    2.0043   -8.9075 N   0  0  0  0  0  0  0  0  0  0  0  0
  105.4416    0.5482   -7.1019 C   0  0  0  0  0  0  0  0  0  0  0  0
  105.4425    0.2391   -5.7535 C   0  0  0  0  0  0  0  0  0  0  0  0
  104.8555    0.6200   -2.7290 C   0  0  0  0  0  0  0  0  0  0  0  0
  103.5727    0.8609   -3.3640 C   0  0  0  0  0  0  0  0  0  0  0  0
  102.6313    0.6349   -2.4238 C   0  0  0  0  0  0  0  0  0  0  0  0
  103.3410    0.2727   -1.2137 C   0  0  0  0  0  0  0  0  0  0  0  0
  104.6728    0.2820   -1.4221 N   0  0  0  0  0  0  0  0  0  0  0  0
  101.5791   -0.7449    2.5542 H   0  0  0  0  0  0  0  0  0  0  0  0
  103.4495   -1.1014    4.4306 H   0  0  0  0  0  0  0  0  0  0  0  0
  105.3651   -0.1312    0.7962 H   0  0  0  0  0  0  0  0  0  0  0  0
  107.2532   -2.7774    4.7192 H   0  0  0  0  0  0  0  0  0  0  0  0
  107.2711   -3.2111    7.1461 H   0  0  0  0  0  0  0  0  0  0  0  0
  106.8630   -2.3060    9.3234 H   0  0  0  0  0  0  0  0  0  0  0  0
  105.9687   -0.8972    9.5793 H   0  0  0  0  0  0  0  0  0  0  0  0
  105.0159    0.3812    7.7986 H   0  0  0  0  0  0  0  0  0  0  0  0
  105.0074    0.8125    5.3720 H   0  0  0  0  0  0  0  0  0  0  0  0
  108.7811   -0.6804    4.5107 H   0  0  0  0  0  0  0  0  0  0  0  0
  110.6534   -0.3600    2.6074 H   0  0  0  0  0  0  0  0  0  0  0  0
  110.6337    0.3368   -2.6165 H   0  0  0  0  0  0  0  0  0  0  0  0
  108.7635    0.7586   -4.4795 H   0  0  0  0  0  0  0  0  0  0  0  0
  106.8472    0.1954   -0.7606 H   0  0  0  0  0  0  0  0  0  0  0  0
  107.2053    2.8848   -4.5841 H   0  0  0  0  0  0  0  0  0  0  0  0
  107.2064    3.4468   -6.9839 H   0  0  0  0  0  0  0  0  0  0  0  0
  105.3725    1.5782   -9.4547 H   0  0  0  0  0  0  0  0  0  0  0  0
  106.2667    2.9733   -9.1298 H   0  0  0  0  0  0  0  0  0  0  0  0
  104.9528   -0.1103   -7.8115 H   0  0  0  0  0  0  0  0  0  0  0  0
  104.9611   -0.6702   -5.4107 H   0  0  0  0  0  0  0  0  0  0  0  0
  103.4320    1.1748   -4.3856 H   0  0  0  0  0  0  0  0  0  0  0  0
  101.5593    0.7113   -2.5122 H   0  0  0  0  0  0  0  0  0  0  0  0
  1  2  4  0  0  0  0
  2  3  4  0  0  0  0
  3  4  2  0  0  0  0
  4  5  4  0  0  0  0
  2  6  4  0  0  0  0
  5  6  4  0  0  0  0
  5  7  4  0  0  0  0
  7  8  1  0  0  0  0
  8  9  4  0  0  0  0
  9 10  4  0  0  0  0
 10 11  4  0  0  0  0
 11 12  1  0  0  0  0
 11 13  4  0  0  0  0
  8 14  4  0  0  0  0
 13 14  4  0  0  0  0
  7 15  4  0  0  0  0
 15 16  1  0  0  0  0
 16 17  2  0  0  0  0
 15 18  4  0  0  0  0
 17 19  1  0  0  0  0
 18 19  4  0  0  0  0
 19 20  4  0  0  0  0
 20 21  4  0  0  0  0
 21 22  4  0  0  0  0
 22 23  2  0  0  0  0
 23 24  4  0  0  0  0
 21 25  4  0  0  0  0
 24 25  4  0  0  0  0
 24 26  4  0  0  0  0
 26 27  1  0  0  0  0
 27 28  4  0  0  0  0
 28 29  4  0  0  0  0
 29 30  4  0  0  0  0
 30 31  1  0  0  0  0
 30 32  4  0  0  0  0
 27 33  4  0  0  0  0
 32 33  4  0  0  0  0
 26 34  4  0  0  0  0
 34 35  1  0  0  0  0
 35 36  2  0  0  0  0
  1 37  4  0  0  0  0
 36 37  1  0  0  0  0
 34 38  4  0  0  0  0
 37 38  4  0  0  0  0
  1 39  1  0  0  0  0
  3 40  1  0  0  0  0
  4 41  1  0  0  0  0
  6 42  1  0  0  0  0
  9 43  1  0  0  0  0
 10 44  1  0  0  0  0
 12 45  1  0  0  0  0
 12 46  1  0  0  0  0
 13 47  1  0  0  0  0
 14 48  1  0  0  0  0
 16 49  1  0  0  0  0
 17 50  1  0  0  0  0
 22 51  1  0  0  0  0
 23 52  1  0  0  0  0
 25 53  1  0  0  0  0
 28 54  1  0  0  0  0
 29 55  1  0  0  0  0
 31 56  1  0  0  0  0
 31 57  1  0  0  0  0
 32 58  1  0  0  0  0
 33 59  1  0  0  0  0
 35 60  1  0  0  0  0
 36 61  1  0  0  0  0
 62 63  4  0  0  0  0
 63 64  4  0  0  0  0
 64 65  2  0  0  0  0
 65 66  4  0  0  0  0
 63 67  4  0  0  0  0
 66 67  4  0  0  0  0
 66 68  4  0  0  0  0
 68 69  1  0  0  0  0
 69 70  4  0  0  0  0
 70 71  4  0  0  0  0
 71 72  4  0  0  0  0
 72 73  1  0  0  0  0
 72 74  4  0  0  0  0
 69 75  4  0  0  0  0
 74 75  4  0  0  0  0
 68 76  4  0  0  0  0
 76 77  1  0  0  0  0
 77 78  2  0  0  0  0
 76 79  4  0  0  0  0
 78 80  1  0  0  0  0
 79 80  4  0  0  0  0
 80 81  4  0  0  0  0
 81 82  4  0  0  0  0
 82 83  4  0  0  0  0
 83 84  2  0  0  0  0
 84 85  4  0  0  0  0
 82 86  4  0  0  0  0
 85 86  4  0  0  0  0
 85 87  4  0  0  0  0
 87 88  1  0  0  0  0
 88 89  4  0  0  0  0
 89 90  4  0  0  0  0
 90 91  4  0  0  0  0
 91 92  1  0  0  0  0
 91 93  4  0  0  0  0
 88 94  4  0  0  0  0
 93 94  4  0  0  0  0
 87 95  4  0  0  0  0
 95 96  1  0  0  0  0
 96 97  2  0  0  0  0
 62 98  4  0  0  0  0
 97 98  1  0  0  0  0
 95 99  4  0  0  0  0
 98 99  4  0  0  0  0
 62100  1  0  0  0  0
 64101  1  0  0  0  0
 65102  1  0  0  0  0
 67103  1  0  0  0  0
 70104  1  0  0  0  0
 71105  1  0  0  0  0
 73106  1  0  0  0  0
 73107  1  0  0  0  0
 74108  1  0  0  0  0
 75109  1  0  0  0  0
 77110  1  0  0  0  0
 78111  1  0  0  0  0
 83112  1  0  0  0  0
 84113  1  0  0  0  0
 86114  1  0  0  0  0
 89115  1  0  0  0  0
 90116  1  0  0  0  0
 92117  1  0  0  0  0
 92118  1  0  0  0  0
 93119  1  0  0  0  0
 94120  1  0  0  0  0
 96121  1  0  0  0  0
 97122  1  0  0  0  0
123124  3  0  0  0  0
124125  4  0  0  0  0
 20126  4  0  0  0  0
125126  3  0  0  0  0
123127  4  0  0  0  0
127128  3  0  0  0  0
129130  3  0  0  0  0
130131  4  0  0  0  0
131132  3  0  0  0  0
129133  4  0  0  0  0
133134  3  0  0  0  0
135136  3  0  0  0  0
136137  4  0  0  0  0
137138  3  0  0  0  0
135139  4  0  0  0  0
139140  3  0  0  0  0
141142  3  0  0  0  0
142143  4  0  0  0  0
143144  3  0  0  0  0
141145  4  0  0  0  0
 81146  4  0  0  0  0
145146  3  0  0  0  0
128147  4  0  0  0  0
147148  4  0  0  0  0
148149  4  0  0  0  0
149150  2  0  0  0  0
150151  4  0  0  0  0
148152  4  0  0  0  0
151152  4  0  0  0  0
151153  4  0  0  0  0
153154  1  0  0  0  0
154155  4  0  0  0  0
155156  4  0  0  0  0
156157  4  0  0  0  0
157158  1  0  0  0  0
157159  4  0  0  0  0
154160  4  0  0  0  0
159160  4  0  0  0  0
153161  4  0  0  0  0
161162  1  0  0  0  0
162163  2  0  0  0  0
161164  4  0  0  0  0
163165  1  0  0  0  0
164165  4  0  0  0  0
132166  4  0  0  0  0
165166  4  0  0  0  0
166167  4  0  0  0  0
167168  4  0  0  0  0
168169  2  0  0  0  0
169170  4  0  0  0  0
167171  4  0  0  0  0
170171  4  0  0  0  0
170172  4  0  0  0  0
172173  1  0  0  0  0
173174  4  0  0  0  0
174175  4  0  0  0  0
175176  4  0  0  0  0
176177  1  0  0  0  0
176178  4  0  0  0  0
173179  4  0  0  0  0
178179  4  0  0  0  0
172180  4  0  0  0  0
180181  1  0  0  0  0
181182  2  0  0  0  0
147183  4  0  0  0  0
182183  1  0  0  0  0
180184  4  0  0  0  0
183184  4  0  0  0  0
149185  1  0  0  0  0
150186  1  0  0  0  0
152187  1  0  0  0  0
155188  1  0  0  0  0
156189  1  0  0  0  0
158190  1  0  0  0  0
158191  1  0  0  0  0
159192  1  0  0  0  0
160193  1  0  0  0  0
162194  1  0  0  0  0
163195  1  0  0  0  0
168196  1  0  0  0  0
169197  1  0  0  0  0
171198  1  0  0  0  0
174199  1  0  0  0  0
175200  1  0  0  0  0
177201  1  0  0  0  0
177202  1  0  0  0  0
178203  1  0  0  0  0
179204  1  0  0  0  0
181205  1  0  0  0  0
182206  1  0  0  0  0
134207  4  0  0  0  0
207208  4  0  0  0  0
208209  4  0  0  0  0
209210  2  0  0  0  0
210211  4  0  0  0  0
208212  4  0  0  0  0
211212  4  0  0  0  0
211213  4  0  0  0  0
213214  1  0  0  0  0
214215  4  0  0  0  0
215216  4  0  0  0  0
216217  4  0  0  0  0
217218  1  0  0  0  0
217219  4  0  0  0  0
214220  4  0  0  0  0
219220  4  0  0  0  0
213221  4  0  0  0  0
221222  1  0  0  0  0
222223  2  0  0  0  0
221224  4  0  0  0  0
223225  1  0  0  0  0
224225  4  0  0  0  0
138226  4  0  0  0  0
225226  4  0  0  0  0
226227  4  0  0  0  0
227228  4  0  0  0  0
228229  2  0  0  0  0
229230  4  0  0  0  0
227231  4  0  0  0  0
230231  4  0  0  0  0
230232  4  0  0  0  0
232233  1  0  0  0  0
233234  4  0  0  0  0
234235  4  0  0  0  0
235236  4  0  0  0  0
236237  1  0  0  0  0
236238  4  0  0  0  0
233239  4  0  0  0  0
238239  4  0  0  0  0
232240  4  0  0  0  0
240241  1  0  0  0  0
241242  2  0  0  0  0
207243  4  0  0  0  0
242243  1  0  0  0  0
240244  4  0  0  0  0
243244  4  0  0  0  0
209245  1  0  0  0  0
210246  1  0  0  0  0
212247  1  0  0  0  0
215248  1  0  0  0  0
216249  1  0  0  0  0
218250  1  0  0  0  0
218251  1  0  0  0  0
219252  1  0  0  0  0
220253  1  0  0  0  0
222254  1  0  0  0  0
223255  1  0  0  0  0
228256  1  0  0  0  0
229257  1  0  0  0  0
231258  1  0  0  0  0
234259  1  0  0  0  0
235260  1  0  0  0  0
237261  1  0  0  0  0
237262  1  0  0  0  0
238263  1  0  0  0  0
239264  1  0  0  0  0
241265  1  0  0  0  0
242266  1  0  0  0  0
140267  4  0  0  0  0
267268  4  0  0  0  0
268269  4  0  0  0  0
269270  2  0  0  0  0
270271  4  0  0  0  0
268272  4  0  0  0  0
271272  4  0  0  0  0
271273  4  0  0  0  0
273274  1  0  0  0  0
274275  4  0  0  0  0
275276  4  0  0  0  0
276277  4  0  0  0  0
277278  1  0  0  0  0
277279  4  0  0  0  0
274280  4  0  0  0  0
279280  4  0  0  0  0
273281  4  0  0  0  0
281282  1  0  0  0  0
282283  2  0  0  0  0
281284  4  0  0  0  0
283285  1  0  0  0  0
284285  4  0  0  0  0
144286  4  0  0  0  0
285286  4  0  0  0  0
286287  4  0  0  0  0
287288  4  0  0  0  0
288289  2  0  0  0  0
289290  4  0  0  0  0
287291  4  0  0  0  0
290291  4  0  0  0  0
290292  4  0  0  0  0
292293  1  0  0  0  0
293294  4  0  0  0  0
294295  4  0  0  0  0
295296  4  0  0  0  0
296297  1  0  0  0  0
296298  4  0  0  0  0
293299  4  0  0  0  0
298299  4  0  0  0  0
292300  4  0  0  0  0
300301  1  0  0  0  0
301302  2  0  0  0  0
267303  4  0  0  0  0
302303  1  0  0  0  0
300304  4  0  0  0  0
303304  4  0  0  0  0
269305  1  0  0  0  0
270306  1  0  0  0  0
272307  1  0  0  0  0
275308  1  0  0  0  0
276309  1  0  0  0  0
278310  1  0  0  0  0
278311  1  0  0  0  0
279312  1  0  0  0  0
280313  1  0  0  0  0
282314  1  0  0  0  0
283315  1  0  0  0  0
288316  1  0  0  0  0
289317  1  0  0  0  0
291318  1  0  0  0  0
294319  1  0  0  0  0
295320  1  0  0  0  0
297321  1  0  0  0  0
297322  1  0  0  0  0
298323  1  0  0  0  0
299324  1  0  0  0  0
301325  1  0  0  0  0
302326  1  0  0  0  0
M  END
