 xtb: 6.5.1 (b24c23e)
          07312209243D

142155  0     0  0            999 V2000
   11.6532    0.5679    0.0000 C   0  0  0  0  0  0  0  0  0  0  0  0
   12.2461    0.6062   -1.2558 C   0  0  0  0  0  0  0  0  0  0  0  0
   11.5760    0.7118   -2.5064 C   0  0  0  0  0  0  0  0  0  0  0  0
   12.5180    0.6542   -3.4954 C   0  0  0  0  0  0  0  0  0  0  0  0
   13.7958    0.5301   -2.8802 C   0  0  0  0  0  0  0  0  0  0  0  0
   13.5804    0.5024   -1.5310 N   0  0  0  0  0  0  0  0  0  0  0  0
   15.0446    0.4299   -3.5064 C   0  0  0  0  0  0  0  0  0  0  0  0
   15.0594    0.4784   -4.9866 C   0  0  0  0  0  0  0  0  0  0  0  0
   15.5861   -0.5850   -5.7227 C   0  0  0  0  0  0  0  0  0  0  0  0
   15.5920   -0.5655   -7.1067 C   0  0  0  0  0  0  0  0  0  0  0  0
   15.0682    0.5326   -7.7953 C   0  0  0  0  0  0  0  0  0  0  0  0
   15.0965    0.6287   -9.1787 N   0  0  0  0  0  0  0  0  0  0  0  0
   15.1468   -0.5838   -9.9846 C   0  0  0  0  0  0  0  0  0  0  0  0
   14.5548    1.6093   -7.0618 C   0  0  0  0  0  0  0  0  0  0  0  0
   14.5454    1.5777   -5.6799 C   0  0  0  0  0  0  0  0  0  0  0  0
   16.2619    0.2865   -2.8345 C   0  0  0  0  0  0  0  0  0  0  0  0
   17.5551    0.3049   -3.4936 C   0  0  0  0  0  0  0  0  0  0  0  0
   18.4823    0.1788   -2.5213 C   0  0  0  0  0  0  0  0  0  0  0  0
   16.4260    0.1566   -1.4889 N   0  0  0  0  0  0  0  0  0  0  0  0
   17.7545    0.0808   -1.2715 C   0  0  0  0  0  0  0  0  0  0  0  0
   18.3996   -0.0723   -0.0269 C   0  0  0  0  0  0  0  0  0  0  0  0
   17.7730   -0.1825    1.2297 C   0  0  0  0  0  0  0  0  0  0  0  0
   18.4267   -0.3504    2.4786 C   0  0  0  0  0  0  0  0  0  0  0  0
   17.4677   -0.4092    3.4521 C   0  0  0  0  0  0  0  0  0  0  0  0
   16.1976   -0.2795    2.8260 C   0  0  0  0  0  0  0  0  0  0  0  0
   16.4346   -0.1434    1.4831 N   0  0  0  0  0  0  0  0  0  0  0  0
   14.9452   -0.2401    3.4503 C   0  0  0  0  0  0  0  0  0  0  0  0
   14.9226   -0.4667    4.9133 C   0  0  0  0  0  0  0  0  0  0  0  0
   14.4049    0.4926    5.7855 C   0  0  0  0  0  0  0  0  0  0  0  0
   14.3822    0.2789    7.1533 C   0  0  0  0  0  0  0  0  0  0  0  0
   14.8800   -0.9137    7.6865 C   0  0  0  0  0  0  0  0  0  0  0  0
   14.8281   -1.2053    9.0411 N   0  0  0  0  0  0  0  0  0  0  0  0
   14.7722   -0.1209   10.0121 C   0  0  0  0  0  0  0  0  0  0  0  0
   15.3919   -1.8831    6.8152 C   0  0  0  0  0  0  0  0  0  0  0  0
   15.4184   -1.6579    5.4523 C   0  0  0  0  0  0  0  0  0  0  0  0
   13.7344   -0.0065    2.7878 C   0  0  0  0  0  0  0  0  0  0  0  0
   12.4330    0.0034    3.4368 C   0  0  0  0  0  0  0  0  0  0  0  0
   11.5253    0.2513    2.4707 C   0  0  0  0  0  0  0  0  0  0  0  0
   12.2685    0.3706    1.2292 C   0  0  0  0  0  0  0  0  0  0  0  0
   13.5953    0.2119    1.4585 N   0  0  0  0  0  0  0  0  0  0  0  0
   10.5724    0.6698    0.0085 H   0  0  0  0  0  0  0  0  0  0  0  0
   10.5078    0.8044   -2.6219 H   0  0  0  0  0  0  0  0  0  0  0  0
   12.3454    0.6826   -4.5590 H   0  0  0  0  0  0  0  0  0  0  0  0
   14.3139    0.3973   -0.8381 H   0  0  0  0  0  0  0  0  0  0  0  0
   15.9785   -1.4507   -5.2002 H   0  0  0  0  0  0  0  0  0  0  0  0
   16.0057   -1.4090   -7.6455 H   0  0  0  0  0  0  0  0  0  0  0  0
   14.4300    1.3019   -9.5375 H   0  0  0  0  0  0  0  0  0  0  0  0
   14.3491   -1.2837   -9.7100 H   0  0  0  0  0  0  0  0  0  0  0  0
   15.0313   -0.2982  -11.0302 H   0  0  0  0  0  0  0  0  0  0  0  0
   16.1129   -1.0747   -9.8619 H   0  0  0  0  0  0  0  0  0  0  0  0
   14.1631    2.4740   -7.5872 H   0  0  0  0  0  0  0  0  0  0  0  0
   14.1558    2.4254   -5.1267 H   0  0  0  0  0  0  0  0  0  0  0  0
   17.7122    0.4255   -4.5532 H   0  0  0  0  0  0  0  0  0  0  0  0
   19.5564    0.1558   -2.6146 H   0  0  0  0  0  0  0  0  0  0  0  0
   19.4953   -0.4128    2.6069 H   0  0  0  0  0  0  0  0  0  0  0  0
   17.6247   -0.5144    4.5133 H   0  0  0  0  0  0  0  0  0  0  0  0
   15.7086   -0.0172    0.7856 H   0  0  0  0  0  0  0  0  0  0  0  0
   14.0343    1.4308    5.3870 H   0  0  0  0  0  0  0  0  0  0  0  0
   13.9750    1.0452    7.8015 H   0  0  0  0  0  0  0  0  0  0  0  0
   15.4795   -1.9325    9.3108 H   0  0  0  0  0  0  0  0  0  0  0  0
   13.8046    0.3797    9.9583 H   0  0  0  0  0  0  0  0  0  0  0  0
   15.5681    0.6133    9.8425 H   0  0  0  0  0  0  0  0  0  0  0  0
   14.8866   -0.5531   11.0062 H   0  0  0  0  0  0  0  0  0  0  0  0
   15.7677   -2.8177    7.2183 H   0  0  0  0  0  0  0  0  0  0  0  0
   15.8074   -2.4229    4.7891 H   0  0  0  0  0  0  0  0  0  0  0  0
   12.2585   -0.1730    4.4860 H   0  0  0  0  0  0  0  0  0  0  0  0
   10.4529    0.3333    2.5565 H   0  0  0  0  0  0  0  0  0  0  0  0
   36.8842    0.5724   -0.0312 C   0  0  0  0  0  0  0  0  0  0  0  0
   36.2914    0.6727    1.2213 C   0  0  0  0  0  0  0  0  0  0  0  0
   36.9614    0.8432    2.4647 C   0  0  0  0  0  0  0  0  0  0  0  0
   36.0197    0.8343    3.4555 C   0  0  0  0  0  0  0  0  0  0  0  0
   34.7420    0.6765    2.8478 C   0  0  0  0  0  0  0  0  0  0  0  0
   34.9573    0.5804    1.5018 N   0  0  0  0  0  0  0  0  0  0  0  0
   33.4934    0.6061    3.4784 C   0  0  0  0  0  0  0  0  0  0  0  0
   33.4779    0.7304    4.9541 C   0  0  0  0  0  0  0  0  0  0  0  0
   32.9507   -0.2941    5.7433 C   0  0  0  0  0  0  0  0  0  0  0  0
   32.9430   -0.2037    7.1244 C   0  0  0  0  0  0  0  0  0  0  0  0
   33.4656    0.9284    7.7565 C   0  0  0  0  0  0  0  0  0  0  0  0
   33.4351    1.0956    9.1330 N   0  0  0  0  0  0  0  0  0  0  0  0
   33.3832   -0.0738   10.0003 C   0  0  0  0  0  0  0  0  0  0  0  0
   33.9798    1.9662    6.9693 C   0  0  0  0  0  0  0  0  0  0  0  0
   33.9908    1.8639    5.5908 C   0  0  0  0  0  0  0  0  0  0  0  0
   32.2765    0.4257    2.8147 C   0  0  0  0  0  0  0  0  0  0  0  0
   30.9831    0.4761    3.4716 C   0  0  0  0  0  0  0  0  0  0  0  0
   30.0564    0.2974    2.5070 C   0  0  0  0  0  0  0  0  0  0  0  0
   32.1130    0.2256    1.4776 N   0  0  0  0  0  0  0  0  0  0  0  0
   30.7848    0.1357    1.2642 C   0  0  0  0  0  0  0  0  0  0  0  0
   30.1402   -0.0835    0.0293 C   0  0  0  0  0  0  0  0  0  0  0  0
   30.7672   -0.2578   -1.2199 C   0  0  0  0  0  0  0  0  0  0  0  0
   30.1139   -0.4927   -2.4581 C   0  0  0  0  0  0  0  0  0  0  0  0
   31.0729   -0.5983   -3.4277 C   0  0  0  0  0  0  0  0  0  0  0  0
   32.3426   -0.4314   -2.8096 C   0  0  0  0  0  0  0  0  0  0  0  0
   32.1053   -0.2272   -1.4755 N   0  0  0  0  0  0  0  0  0  0  0  0
   33.5946   -0.4184   -3.4358 C   0  0  0  0  0  0  0  0  0  0  0  0
   33.6176   -0.7186   -4.8855 C   0  0  0  0  0  0  0  0  0  0  0  0
   34.1293    0.1981   -5.8057 C   0  0  0  0  0  0  0  0  0  0  0  0
   34.1512   -0.0841   -7.1610 C   0  0  0  0  0  0  0  0  0  0  0  0
   33.6588   -1.3045   -7.6327 C   0  0  0  0  0  0  0  0  0  0  0  0
   33.7098   -1.6635   -8.9710 N   0  0  0  0  0  0  0  0  0  0  0  0
   33.7555   -0.6285   -9.9951 C   0  0  0  0  0  0  0  0  0  0  0  0
   33.1533   -2.2316   -6.7128 C   0  0  0  0  0  0  0  0  0  0  0  0
   33.1275   -1.9380   -5.3629 C   0  0  0  0  0  0  0  0  0  0  0  0
   34.8046   -0.1468   -2.7864 C   0  0  0  0  0  0  0  0  0  0  0  0
   36.1058   -0.1643   -3.4355 C   0  0  0  0  0  0  0  0  0  0  0  0
   37.0128    0.1342   -2.4832 C   0  0  0  0  0  0  0  0  0  0  0  0
   36.2694    0.3123   -1.2489 C   0  0  0  0  0  0  0  0  0  0  0  0
   34.9431    0.1382   -1.4697 N   0  0  0  0  0  0  0  0  0  0  0  0
   37.9647    0.6765   -0.0450 H   0  0  0  0  0  0  0  0  0  0  0  0
   38.0295    0.9436    2.5751 H   0  0  0  0  0  0  0  0  0  0  0  0
   36.1924    0.9171    4.5163 H   0  0  0  0  0  0  0  0  0  0  0  0
   34.2239    0.4385    0.8153 H   0  0  0  0  0  0  0  0  0  0  0  0
   32.5593   -1.1856    5.2654 H   0  0  0  0  0  0  0  0  0  0  0  0
   32.5289   -1.0186    7.7052 H   0  0  0  0  0  0  0  0  0  0  0  0
   34.1011    1.7863    9.4578 H   0  0  0  0  0  0  0  0  0  0  0  0
   34.1826   -0.7859    9.7651 H   0  0  0  0  0  0  0  0  0  0  0  0
   33.4945    0.2656   11.0301 H   0  0  0  0  0  0  0  0  0  0  0  0
   32.4180   -0.5715    9.8997 H   0  0  0  0  0  0  0  0  0  0  0  0
   34.3707    2.8568    7.4502 H   0  0  0  0  0  0  0  0  0  0  0  0
   34.3808    2.6823    4.9954 H   0  0  0  0  0  0  0  0  0  0  0  0
   30.8253    0.6518    4.5234 H   0  0  0  0  0  0  0  0  0  0  0  0
   28.9824    0.2770    2.6012 H   0  0  0  0  0  0  0  0  0  0  0  0
   29.0455   -0.5658   -2.5825 H   0  0  0  0  0  0  0  0  0  0  0  0
   30.9161   -0.7590   -4.4819 H   0  0  0  0  0  0  0  0  0  0  0  0
   32.8312   -0.0622   -0.7858 H   0  0  0  0  0  0  0  0  0  0  0  0
   34.4955    1.1571   -5.4556 H   0  0  0  0  0  0  0  0  0  0  0  0
   34.5535    0.6506   -7.8477 H   0  0  0  0  0  0  0  0  0  0  0  0
   33.0627   -2.4076   -9.2022 H   0  0  0  0  0  0  0  0  0  0  0  0
   34.7208   -0.1210   -9.9713 H   0  0  0  0  0  0  0  0  0  0  0  0
   32.9566    0.1093   -9.8583 H   0  0  0  0  0  0  0  0  0  0  0  0
   33.6386   -1.1102  -10.9659 H   0  0  0  0  0  0  0  0  0  0  0  0
   32.7820   -3.1873   -7.0676 H   0  0  0  0  0  0  0  0  0  0  0  0
   32.7433   -2.6706   -4.6614 H   0  0  0  0  0  0  0  0  0  0  0  0
   36.2806   -0.3917   -4.4748 H   0  0  0  0  0  0  0  0  0  0  0  0
   38.0849    0.2155   -2.5734 H   0  0  0  0  0  0  0  0  0  0  0  0
   19.8037   -0.1200   -0.0244 C   0  0  0  0  0  0  0  0  0  0  0  0
   21.0283   -0.1496   -0.0152 C   0  0  0  0  0  0  0  0  0  0  0  0
   22.3702   -0.1731   -0.0081 C   0  0  0  0  0  0  0  0  0  0  0  0
   23.6012   -0.1879   -0.0014 C   0  0  0  0  0  0  0  0  0  0  0  0
   24.9385   -0.1901    0.0080 C   0  0  0  0  0  0  0  0  0  0  0  0
   26.1696   -0.1810    0.0152 C   0  0  0  0  0  0  0  0  0  0  0  0
   27.5115   -0.1603    0.0211 C   0  0  0  0  0  0  0  0  0  0  0  0
   28.7362   -0.1324    0.0290 C   0  0  0  0  0  0  0  0  0  0  0  0
  1  2  4  0  0  0  0
  2  3  4  0  0  0  0
  3  4  2  0  0  0  0
  4  5  4  0  0  0  0
  2  6  4  0  0  0  0
  5  6  4  0  0  0  0
  5  7  4  0  0  0  0
  7  8  1  0  0  0  0
  8  9  4  0  0  0  0
  9 10  4  0  0  0  0
 10 11  4  0  0  0  0
 11 12  1  0  0  0  0
 12 13  1  0  0  0  0
 11 14  4  0  0  0  0
  8 15  4  0  0  0  0
 14 15  4  0  0  0  0
  7 16  4  0  0  0  0
 16 17  1  0  0  0  0
 17 18  2  0  0  0  0
 16 19  4  0  0  0  0
 18 20  1  0  0  0  0
 19 20  4  0  0  0  0
 20 21  4  0  0  0  0
 21 22  4  0  0  0  0
 22 23  4  0  0  0  0
 23 24  2  0  0  0  0
 24 25  4  0  0  0  0
 22 26  4  0  0  0  0
 25 26  4  0  0  0  0
 25 27  4  0  0  0  0
 27 28  1  0  0  0  0
 28 29  4  0  0  0  0
 29 30  4  0  0  0  0
 30 31  4  0  0  0  0
 31 32  1  0  0  0  0
 32 33  1  0  0  0  0
 31 34  4  0  0  0  0
 28 35  4  0  0  0  0
 34 35  4  0  0  0  0
 27 36  4  0  0  0  0
 36 37  1  0  0  0  0
 37 38  2  0  0  0  0
  1 39  4  0  0  0  0
 38 39  1  0  0  0  0
 36 40  4  0  0  0  0
 39 40  4  0  0  0  0
  1 41  1  0  0  0  0
  3 42  1  0  0  0  0
  4 43  1  0  0  0  0
  6 44  1  0  0  0  0
  9 45  1  0  0  0  0
 10 46  1  0  0  0  0
 12 47  1  0  0  0  0
 13 48  1  0  0  0  0
 13 49  1  0  0  0  0
 13 50  1  0  0  0  0
 14 51  1  0  0  0  0
 15 52  1  0  0  0  0
 17 53  1  0  0  0  0
 18 54  1  0  0  0  0
 23 55  1  0  0  0  0
 24 56  1  0  0  0  0
 26 57  1  0  0  0  0
 29 58  1  0  0  0  0
 30 59  1  0  0  0  0
 32 60  1  0  0  0  0
 33 61  1  0  0  0  0
 33 62  1  0  0  0  0
 33 63  1  0  0  0  0
 34 64  1  0  0  0  0
 35 65  1  0  0  0  0
 37 66  1  0  0  0  0
 38 67  1  0  0  0  0
 68 69  4  0  0  0  0
 69 70  4  0  0  0  0
 70 71  2  0  0  0  0
 71 72  4  0  0  0  0
 69 73  4  0  0  0  0
 72 73  4  0  0  0  0
 72 74  4  0  0  0  0
 74 75  1  0  0  0  0
 75 76  4  0  0  0  0
 76 77  4  0  0  0  0
 77 78  4  0  0  0  0
 78 79  1  0  0  0  0
 79 80  1  0  0  0  0
 78 81  4  0  0  0  0
 75 82  4  0  0  0  0
 81 82  4  0  0  0  0
 74 83  4  0  0  0  0
 83 84  1  0  0  0  0
 84 85  2  0  0  0  0
 83 86  4  0  0  0  0
 85 87  1  0  0  0  0
 86 87  4  0  0  0  0
 87 88  4  0  0  0  0
 88 89  4  0  0  0  0
 89 90  4  0  0  0  0
 90 91  2  0  0  0  0
 91 92  4  0  0  0  0
 89 93  4  0  0  0  0
 92 93  4  0  0  0  0
 92 94  4  0  0  0  0
 94 95  1  0  0  0  0
 95 96  4  0  0  0  0
 96 97  4  0  0  0  0
 97 98  4  0  0  0  0
 98 99  1  0  0  0  0
 99100  1  0  0  0  0
 98101  4  0  0  0  0
 95102  4  0  0  0  0
101102  4  0  0  0  0
 94103  4  0  0  0  0
103104  1  0  0  0  0
104105  2  0  0  0  0
 68106  4  0  0  0  0
105106  1  0  0  0  0
103107  4  0  0  0  0
106107  4  0  0  0  0
 68108  1  0  0  0  0
 70109  1  0  0  0  0
 71110  1  0  0  0  0
 73111  1  0  0  0  0
 76112  1  0  0  0  0
 77113  1  0  0  0  0
 79114  1  0  0  0  0
 80115  1  0  0  0  0
 80116  1  0  0  0  0
 80117  1  0  0  0  0
 81118  1  0  0  0  0
 82119  1  0  0  0  0
 84120  1  0  0  0  0
 85121  1  0  0  0  0
 90122  1  0  0  0  0
 91123  1  0  0  0  0
 93124  1  0  0  0  0
 96125  1  0  0  0  0
 97126  1  0  0  0  0
 99127  1  0  0  0  0
100128  1  0  0  0  0
100129  1  0  0  0  0
100130  1  0  0  0  0
101131  1  0  0  0  0
102132  1  0  0  0  0
104133  1  0  0  0  0
105134  1  0  0  0  0
 21135  4  0  0  0  0
135136  3  0  0  0  0
136137  4  0  0  0  0
137138  3  0  0  0  0
138139  4  0  0  0  0
139140  3  0  0  0  0
140141  4  0  0  0  0
 88142  4  0  0  0  0
141142  3  0  0  0  0
M  END
