350

C 60.721538 -0.054917 0.072258
C 61.450137 1.225152 0.585308
C 60.840012 2.331620 1.130787
C 61.861609 3.277673 1.403934
C 63.061540 2.717923 1.010942
N 62.803272 1.448170 0.558239
C 64.485075 3.416219 1.041964
C 65.613397 2.703640 0.776399
C 66.917194 3.332685 0.724478
C 67.817821 2.406650 0.417631
N 65.808893 1.375520 0.501157
C 67.139045 1.133525 0.274323
C 67.806374 -0.011426 -0.030284
C 67.031787 -1.392669 -0.139523
C 67.579357 -2.649281 0.033624
C 66.554769 -3.598912 -0.202806
C 65.407193 -2.896391 -0.501272
C 63.994459 -3.521621 -0.863818
C 63.963027 -4.908026 -1.384243
C 63.599713 -5.972623 -0.549754
C 63.580265 -7.286548 -1.033642
C 63.148737 -8.413177 -0.145845
C 63.915250 -7.524552 -2.374345
C 64.297885 -6.472118 -3.218182
C 64.628231 -6.724004 -4.657308
C 64.309890 -5.164879 -2.715320
C 62.869230 -2.775819 -0.710050
C 61.544892 -3.275454 -1.035189
C 60.660347 -2.319607 -0.766796
C 61.384917 -1.174403 -0.272377
N 62.706618 -1.493620 -0.263808
N 65.694498 -1.554568 -0.409444
C 64.524207 4.871982 1.321122
C 64.794841 5.336071 2.614155
C 64.823130 6.708797 2.889623
C 65.159726 7.189248 4.267764
C 64.593486 7.618385 1.847344
C 64.304761 7.169477 0.550515
C 64.086592 8.142241 -0.567705
C 64.282279 5.792677 0.295040
H 59.642785 -0.020897 -0.021533
H 59.780734 2.451109 1.297835
H 61.733684 4.266384 1.819188
H 63.504926 0.782669 0.241976
H 67.128382 4.374079 0.890504
H 68.870375 2.592116 0.306865
H 68.605526 -2.863507 0.290395
H 66.643302 -4.674428 -0.162824
H 63.326971 -5.750931 0.480706
H 62.095621 -8.651932 -0.327933
H 63.754460 -9.306710 -0.333522
H 63.271215 -8.153643 0.911535
H 63.877660 -8.538739 -2.763757
H 65.373048 -6.007396 -5.017807
H 65.049873 -7.725482 -4.792475
H 63.726170 -6.635040 -5.269938
H 64.583560 -4.324144 -3.350678
H 61.314899 -4.249241 -1.428600
H 59.595636 -2.379438 -0.901162
H 65.007186 -0.808205 -0.476352
H 64.990640 4.604554 3.396411
H 64.770129 6.502613 5.026923
H 64.714931 8.171025 4.459411
H 66.244631 7.266645 4.382545
H 64.639834 8.685759 2.046691
H 63.672346 9.083981 -0.192598
H 65.034481 8.350736 -1.072397
H 63.375374 7.743877 -1.298642
H 64.081401 5.412738 -0.705292
C 113.851208 -0.025696 0.080182
C 113.122609 -1.389595 -0.123714
C 113.732734 -2.620057 -0.211924
C 112.711138 -3.574503 -0.454121
C 111.511207 -2.892900 -0.510504
N 111.769475 -1.568388 -0.259739
C 110.087671 -3.511210 -0.836497
C 108.959350 -2.762087 -0.705702
C 107.655553 -3.278732 -1.068292
C 106.754925 -2.324538 -0.865291
N 108.763853 -1.476854 -0.272301
C 107.433702 -1.153416 -0.345810
C 106.766373 -0.011426 -0.030284
C 107.540960 1.235791 0.573218
C 106.993389 2.232794 1.357461
C 108.017977 3.171779 1.633154
C 109.165553 2.716272 1.020673
C 110.578288 3.439006 1.023644
C 110.609720 4.898401 1.274895
C 110.973033 5.395596 2.532884
C 110.992482 6.773982 2.779050
C 111.424010 7.297781 4.114382
C 110.657496 7.656679 1.742240
C 110.274861 7.174703 0.482327
C 109.944516 8.119102 -0.632411
C 110.262856 5.792502 0.255914
C 111.703516 2.717688 0.779585
C 113.027855 3.313134 0.751390
C 113.912399 2.352637 0.500143
C 113.187830 1.114540 0.348299
N 111.866129 1.385699 0.516956
N 108.878248 1.511871 0.422060
C 110.048539 -4.908580 -1.331002
C 109.777906 -5.962309 -0.449545
C 109.749617 -7.286152 -0.905286
C 109.413020 -8.396997 0.041355
C 109.979261 -7.544601 -2.264293
C 110.267986 -6.502055 -3.156695
C 110.486155 -6.776661 -4.613156
C 110.290467 -5.184796 -2.681641
H 114.929961 -0.007674 -0.017947
H 114.792012 -2.807568 -0.128123
H 112.839062 -4.637553 -0.595228
H 111.067821 -0.834282 -0.196481
H 107.444364 -4.261343 -1.451101
H 105.702372 -2.428641 -1.054577
H 105.967221 2.287958 1.687281
H 107.929445 4.079766 2.210987
H 111.245776 4.683704 3.310190
H 112.477125 7.595817 4.077851
H 110.818287 8.163724 4.403809
H 111.301532 6.539633 4.895804
H 110.695087 8.728660 1.918518
H 109.199698 7.682776 -1.305542
H 109.522874 9.051675 -0.243135
H 110.846577 8.351813 -1.206061
H 109.989187 5.387906 -0.717132
H 113.257847 4.352268 0.903809
H 114.977110 2.472151 0.414408
H 109.565561 0.901550 -0.012730
H 109.582106 -5.726179 0.595100
H 109.802618 -8.187934 1.043394
H 109.857816 -9.341101 -0.289225
H 108.328116 -8.521777 0.101313
H 109.932913 -8.566465 -2.631469
H 110.900400 -7.778893 -4.765181
H 109.538266 -6.701634 -5.154039
H 111.197372 -6.063612 -5.042719
H 110.491345 -4.351556 -3.353005
C 70.034986 -0.011426 -0.030284
C 71.256904 -0.011426 -0.030284
C 81.128605 -0.011426 -0.030284
C 82.350523 -0.011426 -0.030284
C 92.222224 -0.011426 -0.030284
C 93.444142 -0.011426 -0.030284
C 103.315843 -0.011426 -0.030284
C 104.537760 -0.011426 -0.030284
C 72.617601 0.008178 0.021674
C 73.408986 -1.131593 0.787628
C 72.895976 -1.997771 1.731925
C 73.932710 -2.896812 2.089900
C 75.048714 -2.546963 1.359149
N 74.740460 -1.428033 0.626238
C 76.441532 -3.302014 1.353243
C 77.575525 -2.636479 1.009155
C 78.863604 -3.294072 0.929726
C 79.770591 -2.395291 0.562457
N 77.782288 -1.328202 0.668243
C 79.107017 -1.118027 0.392791
C 79.770778 0.008178 0.021674
C 78.978687 1.371187 -0.140838
C 79.489148 2.643908 0.018558
C 78.452675 3.558791 -0.297518
C 77.339303 2.816785 -0.632036
C 75.947336 3.384834 -1.130741
C 75.952599 4.695531 -1.823070
C 75.524886 5.851453 -1.157535
C 75.545585 7.096232 -1.799005
C 75.121599 8.329712 -1.061935
C 76.024236 7.177236 -3.114438
C 76.444939 6.028091 -3.799188
C 76.983100 6.120797 -5.194130
C 76.415514 4.792400 -3.140177
C 74.813339 2.656095 -0.956598
C 73.525462 3.102162 -1.446594
C 72.618358 2.182014 -1.137365
C 73.281704 1.103635 -0.431943
N 74.606414 1.442746 -0.360152
N 77.648692 1.490174 -0.462659
C 76.435895 -4.746307 1.687121
C 75.974329 -5.681353 0.753763
C 75.940457 -7.046577 1.065502
C 75.403376 -8.028923 0.069969
C 76.355321 -7.467044 2.337479
C 76.832922 -6.545159 3.279756
C 77.249765 -6.992850 4.647290
C 76.858483 -5.184530 2.948619
H 71.883718 -1.999581 2.106377
H 73.868049 -3.719777 2.785853
H 75.404820 -0.881573 0.085986
H 79.058789 -4.333957 1.122564
H 80.815656 -2.600901 0.419357
H 80.499569 2.889430 0.308237
H 78.515543 4.636693 -0.300563
H 75.176935 5.757822 -0.130103
H 75.985701 8.788698 -0.571350
H 74.674459 9.057759 -1.747002
H 74.368222 8.094389 -0.302370
H 76.068904 8.143330 -3.610444
H 76.768999 5.206385 -5.757326
H 78.066094 6.275550 -5.168086
H 76.520347 6.951634 -5.737214
H 76.755185 3.886122 -3.638746
H 73.330151 4.015299 -1.980145
H 71.573459 2.244922 -1.380355
H 76.985098 0.723331 -0.520309
H 75.638164 -5.322572 -0.217653
H 75.853801 -9.016787 0.212940
H 75.633264 -7.713321 -0.953254
H 74.317945 -8.116985 0.178737
H 76.306632 -8.521639 2.595776
H 78.037483 -6.345887 5.047675
H 77.649837 -8.011824 4.620091
H 76.392271 -6.968547 5.326829
H 77.205046 -4.441460 3.665046
C 83.711220 0.008178 0.021674
C 84.502605 -1.131593 0.787628
C 83.989595 -1.997771 1.731925
C 85.026329 -2.896812 2.089900
C 86.142333 -2.546963 1.359149
N 85.834079 -1.428033 0.626238
C 87.535150 -3.302014 1.353243
C 88.669144 -2.636479 1.009155
C 89.957223 -3.294072 0.929726
C 90.864210 -2.395291 0.562457
N 88.875907 -1.328202 0.668243
C 90.200635 -1.118027 0.392791
C 90.864397 0.008178 0.021674
C 90.072306 1.371187 -0.140838
C 90.582767 2.643908 0.018558
C 89.546294 3.558791 -0.297518
C 88.432922 2.816785 -0.632036
C 87.040955 3.384834 -1.130741
C 87.046217 4.695531 -1.823070
C 86.618505 5.851453 -1.157535
C 86.639204 7.096232 -1.799005
C 86.215217 8.329712 -1.061935
C 87.117855 7.177236 -3.114438
C 87.538558 6.028091 -3.799188
C 88.076719 6.120797 -5.194130
C 87.509133 4.792400 -3.140177
C 85.906958 2.656095 -0.956598
C 84.619081 3.102162 -1.446594
C 83.711977 2.182014 -1.137365
C 84.375323 1.103635 -0.431943
N 85.700033 1.442746 -0.360152
N 88.742311 1.490174 -0.462659
C 87.529514 -4.746307 1.687121
C 87.067947 -5.681353 0.753763
C 87.034075 -7.046577 1.065502
C 86.496995 -8.028923 0.069969
C 87.448940 -7.467044 2.337479
C 87.926541 -6.545159 3.279756
C 88.343384 -6.992850 4.647290
C 87.952101 -5.184530 2.948619
H 82.977337 -1.999581 2.106377
H 84.961667 -3.719777 2.785853
H 86.498438 -0.881573 0.085986
H 90.152407 -4.333957 1.122564
H 91.909275 -2.600901 0.419357
H 91.593188 2.889430 0.308237
H 89.609162 4.636693 -0.300563
H 86.270553 5.757822 -0.130103
H 87.079319 8.788698 -0.571350
H 85.768078 9.057759 -1.747002
H 85.461840 8.094389 -0.302370
H 87.162523 8.143330 -3.610444
H 87.862618 5.206385 -5.757326
H 89.159713 6.275550 -5.168086
H 87.613966 6.951634 -5.737214
H 87.848804 3.886122 -3.638746
H 84.423769 4.015299 -1.980145
H 82.667078 2.244922 -1.380355
H 88.078717 0.723331 -0.520309
H 86.731783 -5.322572 -0.217653
H 86.947420 -9.016787 0.212940
H 86.726882 -7.713321 -0.953254
H 85.411563 -8.116985 0.178737
H 87.400251 -8.521639 2.595776
H 89.131102 -6.345887 5.047675
H 88.743456 -8.011824 4.620091
H 87.485890 -6.968547 5.326829
H 88.298665 -4.441460 3.665046
C 94.804838 0.008178 0.021674
C 95.596224 -1.131593 0.787628
C 95.083214 -1.997771 1.731925
C 96.119947 -2.896812 2.089900
C 97.235952 -2.546963 1.359149
N 96.927698 -1.428033 0.626238
C 98.628769 -3.302014 1.353243
C 99.762763 -2.636479 1.009155
C 101.050842 -3.294072 0.929726
C 101.957829 -2.395291 0.562457
N 99.969526 -1.328202 0.668243
C 101.294254 -1.118027 0.392791
C 101.958016 0.008178 0.021674
C 101.165925 1.371187 -0.140838
C 101.676385 2.643908 0.018558
C 100.639913 3.558791 -0.297518
C 99.526541 2.816785 -0.632036
C 98.134573 3.384834 -1.130741
C 98.139836 4.695531 -1.823070
C 97.712123 5.851453 -1.157535
C 97.732823 7.096232 -1.799005
C 97.308836 8.329712 -1.061935
C 98.211474 7.177236 -3.114438
C 98.632177 6.028091 -3.799188
C 99.170338 6.120797 -5.194130
C 98.602752 4.792400 -3.140177
C 97.000577 2.656095 -0.956598
C 95.712700 3.102162 -1.446594
C 94.805595 2.182014 -1.137365
C 95.468942 1.103635 -0.431943
N 96.793652 1.442746 -0.360152
N 99.835929 1.490174 -0.462659
C 98.623133 -4.746307 1.687121
C 98.161566 -5.681353 0.753763
C 98.127694 -7.046577 1.065502
C 97.590614 -8.028923 0.069969
C 98.542559 -7.467044 2.337479
C 99.020160 -6.545159 3.279756
C 99.437003 -6.992850 4.647290
C 99.045720 -5.184530 2.948619
H 94.070956 -1.999581 2.106377
H 96.055286 -3.719777 2.785853
H 97.592057 -0.881573 0.085986
H 101.246026 -4.333957 1.122564
H 103.002894 -2.600901 0.419357
H 102.686806 2.889430 0.308237
H 100.702781 4.636693 -0.300563
H 97.364172 5.757822 -0.130103
H 98.172938 8.788698 -0.571350
H 96.861697 9.057759 -1.747002
H 96.555459 8.094389 -0.302370
H 98.256142 8.143330 -3.610444
H 98.956236 5.206385 -5.757326
H 100.253332 6.275550 -5.168086
H 98.707585 6.951634 -5.737214
H 98.942423 3.886122 -3.638746
H 95.517388 4.015299 -1.980145
H 93.760697 2.244922 -1.380355
H 99.172336 0.723331 -0.520309
H 97.825402 -5.322572 -0.217653
H 98.041039 -9.016787 0.212940
H 97.820501 -7.713321 -0.953254
H 96.505182 -8.116985 0.178737
H 98.493869 -8.521639 2.595776
H 100.224720 -6.345887 5.047675
H 99.837074 -8.011824 4.620091
H 98.579509 -6.968547 5.326829
H 99.392284 -4.441460 3.665046
