 xtb: 6.5.1 (b24c23e)
          07302200173D

242281  0     0  0            999 V2000
   50.7055    0.0407    0.0390 Fe  0  0  0  0  0  0  0  0  0  0  0  0
   47.3196    0.0512    0.1536 C   0  0  0  0  0  0  0  0  0  0  0  0
   47.9698    1.2670    0.2062 C   0  0  0  0  0  0  0  0  0  0  0  0
   47.2946    2.5278    0.2736 C   0  0  0  0  0  0  0  0  0  0  0  0
   48.2531    3.4744    0.4087 C   0  0  0  0  0  0  0  0  0  0  0  0
   49.5122    2.7876    0.4392 C   0  0  0  0  0  0  0  0  0  0  0  0
   49.3273    1.4423    0.2715 N   0  0  0  0  0  0  0  0  0  0  0  0
   50.7345    3.4112    0.6691 C   0  0  0  0  0  0  0  0  0  0  0  0
   50.7484    4.8676    0.9384 C   0  0  0  0  0  0  0  0  0  0  0  0
   50.0858    5.3893    2.0517 C   0  0  0  0  0  0  0  0  0  0  0  0
   50.1026    6.7486    2.3079 C   0  0  0  0  0  0  0  0  0  0  0  0
   50.7802    7.6160    1.4458 C   0  0  0  0  0  0  0  0  0  0  0  0
   50.7967    9.0158    1.7044 C   0  0  0  0  0  0  0  0  0  0  0  0
   50.8119   10.1472    1.9141 N   0  0  0  0  0  0  0  0  0  0  0  0
   51.4419    7.0988    0.3281 C   0  0  0  0  0  0  0  0  0  0  0  0
   51.4274    5.7376    0.0823 C   0  0  0  0  0  0  0  0  0  0  0  0
   51.9418    2.7267    0.6661 C   0  0  0  0  0  0  0  0  0  0  0  0
   53.2057    3.3295    0.9705 C   0  0  0  0  0  0  0  0  0  0  0  0
   54.1486    2.3747    0.7841 C   0  0  0  0  0  0  0  0  0  0  0  0
   52.1120    1.4029    0.3382 N   0  0  0  0  0  0  0  0  0  0  0  0
   53.4581    1.1926    0.3727 C   0  0  0  0  0  0  0  0  0  0  0  0
   54.1135    0.0180   -0.0179 C   0  0  0  0  0  0  0  0  0  0  0  0
   53.4308   -1.1425   -0.4043 C   0  0  0  0  0  0  0  0  0  0  0  0
   54.0914   -2.3243   -0.8626 C   0  0  0  0  0  0  0  0  0  0  0  0
   53.1283   -3.2585   -1.0508 C   0  0  0  0  0  0  0  0  0  0  0  0
   51.8833   -2.6462   -0.6920 C   0  0  0  0  0  0  0  0  0  0  0  0
   52.0833   -1.3329   -0.3385 N   0  0  0  0  0  0  0  0  0  0  0  0
   50.6692   -3.3171   -0.6558 C   0  0  0  0  0  0  0  0  0  0  0  0
   50.6502   -4.7663   -0.9609 C   0  0  0  0  0  0  0  0  0  0  0  0
   49.9167   -5.2516   -2.0460 C   0  0  0  0  0  0  0  0  0  0  0  0
   49.8996   -6.6041   -2.3358 C   0  0  0  0  0  0  0  0  0  0  0  0
   50.6138   -7.5013   -1.5361 C   0  0  0  0  0  0  0  0  0  0  0  0
   50.5963   -8.8944   -1.8289 C   0  0  0  0  0  0  0  0  0  0  0  0
   50.5787  -10.0204   -2.0655 N   0  0  0  0  0  0  0  0  0  0  0  0
   51.3461   -7.0208   -0.4465 C   0  0  0  0  0  0  0  0  0  0  0  0
   51.3647   -5.6662   -0.1669 C   0  0  0  0  0  0  0  0  0  0  0  0
   49.4686   -2.6893   -0.3380 C   0  0  0  0  0  0  0  0  0  0  0  0
   48.2104   -3.3701   -0.2310 C   0  0  0  0  0  0  0  0  0  0  0  0
   47.2714   -2.4227    0.0008 C   0  0  0  0  0  0  0  0  0  0  0  0
   47.9578   -1.1668    0.0431 C   0  0  0  0  0  0  0  0  0  0  0  0
   49.3056   -1.3474   -0.1282 N   0  0  0  0  0  0  0  0  0  0  0  0
   46.2362    0.0537    0.1950 H   0  0  0  0  0  0  0  0  0  0  0  0
   46.2247    2.6525    0.2212 H   0  0  0  0  0  0  0  0  0  0  0  0
   48.1313    4.5430    0.4796 H   0  0  0  0  0  0  0  0  0  0  0  0
   49.5692    4.7184    2.7286 H   0  0  0  0  0  0  0  0  0  0  0  0
   49.5923    7.1459    3.1774 H   0  0  0  0  0  0  0  0  0  0  0  0
   51.9651    7.7687   -0.3441 H   0  0  0  0  0  0  0  0  0  0  0  0
   51.9331    5.3406   -0.7906 H   0  0  0  0  0  0  0  0  0  0  0  0
   53.3428    4.3491    1.2916 H   0  0  0  0  0  0  0  0  0  0  0  0
   55.2169    2.4500    0.9076 H   0  0  0  0  0  0  0  0  0  0  0  0
   55.1546   -2.4123   -1.0177 H   0  0  0  0  0  0  0  0  0  0  0  0
   53.2408   -4.2706   -1.4038 H   0  0  0  0  0  0  0  0  0  0  0  0
   49.3706   -4.5573   -2.6746 H   0  0  0  0  0  0  0  0  0  0  0  0
   49.3340   -6.9729   -3.1835 H   0  0  0  0  0  0  0  0  0  0  0  0
   51.8977   -7.7139    0.1777 H   0  0  0  0  0  0  0  0  0  0  0  0
   51.9244   -5.2981    0.6855 H   0  0  0  0  0  0  0  0  0  0  0  0
   48.0767   -4.4361   -0.3182 H   0  0  0  0  0  0  0  0  0  0  0  0
   46.2079   -2.5433    0.1315 H   0  0  0  0  0  0  0  0  0  0  0  0
   90.9759    0.0107    0.0735 Fe  0  0  0  0  0  0  0  0  0  0  0  0
   94.3659    0.0022    0.1748 C   0  0  0  0  0  0  0  0  0  0  0  0
   93.7149   -1.2048    0.3229 C   0  0  0  0  0  0  0  0  0  0  0  0
   94.3938   -2.4538    0.4932 C   0  0  0  0  0  0  0  0  0  0  0  0
   93.4366   -3.3947    0.6675 C   0  0  0  0  0  0  0  0  0  0  0  0
   92.1737   -2.7157    0.6175 C   0  0  0  0  0  0  0  0  0  0  0  0
   92.3568   -1.3817    0.3715 N   0  0  0  0  0  0  0  0  0  0  0  0
   90.9488   -3.3401    0.8237 C   0  0  0  0  0  0  0  0  0  0  0  0
   90.9369   -4.7838    1.1571 C   0  0  0  0  0  0  0  0  0  0  0  0
   91.5446   -5.2445    2.3272 C   0  0  0  0  0  0  0  0  0  0  0  0
   91.5302   -6.5907    2.6452 C   0  0  0  0  0  0  0  0  0  0  0  0
   90.9097   -7.5061    1.7900 C   0  0  0  0  0  0  0  0  0  0  0  0
   90.8958   -8.8925    2.1128 C   0  0  0  0  0  0  0  0  0  0  0  0
   90.8814  -10.0133    2.3729 N   0  0  0  0  0  0  0  0  0  0  0  0
   90.3031   -7.0501    0.6158 C   0  0  0  0  0  0  0  0  0  0  0  0
   90.3155   -5.7016    0.3074 C   0  0  0  0  0  0  0  0  0  0  0  0
   89.7366   -2.6692    0.7424 C   0  0  0  0  0  0  0  0  0  0  0  0
   88.4681   -3.2792    1.0109 C   0  0  0  0  0  0  0  0  0  0  0  0
   87.5247   -2.3339    0.7859 C   0  0  0  0  0  0  0  0  0  0  0  0
   89.5677   -1.3527    0.3863 N   0  0  0  0  0  0  0  0  0  0  0  0
   88.2189   -1.1492    0.3884 C   0  0  0  0  0  0  0  0  0  0  0  0
   87.5651    0.0314    0.0214 C   0  0  0  0  0  0  0  0  0  0  0  0
   88.2435    1.1966   -0.3501 C   0  0  0  0  0  0  0  0  0  0  0  0
   87.5751    2.3803   -0.7926 C   0  0  0  0  0  0  0  0  0  0  0  0
   88.5378    3.3013   -1.0361 C   0  0  0  0  0  0  0  0  0  0  0  0
   89.7913    2.6813   -0.7233 C   0  0  0  0  0  0  0  0  0  0  0  0
   89.5953    1.3772   -0.3357 N   0  0  0  0  0  0  0  0  0  0  0  0
   91.0130    3.3370   -0.7771 C   0  0  0  0  0  0  0  0  0  0  0  0
   91.0345    4.7688   -1.1581 C   0  0  0  0  0  0  0  0  0  0  0  0
   91.7056    5.1804   -2.3118 C   0  0  0  0  0  0  0  0  0  0  0  0
   91.7246    6.5144   -2.6774 C   0  0  0  0  0  0  0  0  0  0  0  0
   91.0748    7.4668   -1.8868 C   0  0  0  0  0  0  0  0  0  0  0  0
   91.0931    8.8407   -2.2595 C   0  0  0  0  0  0  0  0  0  0  0  0
   91.1090    9.9510   -2.5615 N   0  0  0  0  0  0  0  0  0  0  0  0
   90.4064    7.0604   -0.7282 C   0  0  0  0  0  0  0  0  0  0  0  0
   90.3859    5.7237   -0.3721 C   0  0  0  0  0  0  0  0  0  0  0  0
   92.2198    2.7121   -0.4828 C   0  0  0  0  0  0  0  0  0  0  0  0
   93.4853    3.3876   -0.4604 C   0  0  0  0  0  0  0  0  0  0  0  0
   94.4234    2.4519   -0.1839 C   0  0  0  0  0  0  0  0  0  0  0  0
   93.7301    1.2083   -0.0331 C   0  0  0  0  0  0  0  0  0  0  0  0
   92.3801    1.3846   -0.1916 N   0  0  0  0  0  0  0  0  0  0  0  0
   95.4492    0.0016    0.2162 H   0  0  0  0  0  0  0  0  0  0  0  0
   95.4652   -2.5749    0.4752 H   0  0  0  0  0  0  0  0  0  0  0  0
   93.5612   -4.4554    0.8127 H   0  0  0  0  0  0  0  0  0  0  0  0
   92.0166   -4.5360    2.9984 H   0  0  0  0  0  0  0  0  0  0  0  0
   91.9982   -6.9403    3.5579 H   0  0  0  0  0  0  0  0  0  0  0  0
   89.8242   -7.7575   -0.0511 H   0  0  0  0  0  0  0  0  0  0  0  0
   89.8530   -5.3524   -0.6088 H   0  0  0  0  0  0  0  0  0  0  0  0
   88.3281   -4.2964    1.3384 H   0  0  0  0  0  0  0  0  0  0  0  0
   86.4537   -2.4156    0.8786 H   0  0  0  0  0  0  0  0  0  0  0  0
   86.5072    2.4762   -0.9045 H   0  0  0  0  0  0  0  0  0  0  0  0
   88.4196    4.3092   -1.3988 H   0  0  0  0  0  0  0  0  0  0  0  0
   92.2016    4.4428   -2.9325 H   0  0  0  0  0  0  0  0  0  0  0  0
   92.2415    6.8257   -3.5776 H   0  0  0  0  0  0  0  0  0  0  0  0
   89.9055    7.7967   -0.1107 H   0  0  0  0  0  0  0  0  0  0  0  0
   89.8761    5.4135    0.5330 H   0  0  0  0  0  0  0  0  0  0  0  0
   93.6233    4.4435   -0.6273 H   0  0  0  0  0  0  0  0  0  0  0  0
   95.4906    2.5727   -0.0877 H   0  0  0  0  0  0  0  0  0  0  0  0
   56.7376   -0.0030   -0.0365 C   0  0  0  0  0  0  0  0  0  0  0  0
   55.5134    0.0061   -0.0296 C   0  0  0  0  0  0  0  0  0  0  0  0
   58.0830   -0.0086   -0.0426 C   0  0  0  0  0  0  0  0  0  0  0  0
   59.3074   -0.0097   -0.0453 C   0  0  0  0  0  0  0  0  0  0  0  0
   70.1586    0.0176    0.0142 C   0  0  0  0  0  0  0  0  0  0  0  0
   68.9338    0.0129    0.0068 C   0  0  0  0  0  0  0  0  0  0  0  0
   71.5033    0.0239    0.0167 C   0  0  0  0  0  0  0  0  0  0  0  0
   72.7281    0.0291    0.0142 C   0  0  0  0  0  0  0  0  0  0  0  0
   83.5902    0.0583    0.0116 C   0  0  0  0  0  0  0  0  0  0  0  0
   82.3671    0.0616    0.0042 C   0  0  0  0  0  0  0  0  0  0  0  0
   84.9385    0.0537    0.0149 C   0  0  0  0  0  0  0  0  0  0  0  0
   86.1613    0.0439    0.0161 C   0  0  0  0  0  0  0  0  0  0  0  0
   64.1210    0.0059   -0.0354 Fe  0  0  0  0  0  0  0  0  0  0  0  0
   60.7065   -0.0053   -0.0463 C   0  0  0  0  0  0  0  0  0  0  0  0
   61.3825   -1.1978   -0.3376 C   0  0  0  0  0  0  0  0  0  0  0  0
   60.7149   -2.4325   -0.6046 C   0  0  0  0  0  0  0  0  0  0  0  0
   61.6737   -3.3210   -0.9636 C   0  0  0  0  0  0  0  0  0  0  0  0
   62.9213   -2.6194   -0.9213 C   0  0  0  0  0  0  0  0  0  0  0  0
   62.7298   -1.3286   -0.4945 N   0  0  0  0  0  0  0  0  0  0  0  0
   64.1356   -3.1669   -1.3182 C   0  0  0  0  0  0  0  0  0  0  0  0
   64.1409   -4.5387   -1.8766 C   0  0  0  0  0  0  0  0  0  0  0  0
   63.4369   -4.8282   -3.0476 C   0  0  0  0  0  0  0  0  0  0  0  0
   63.4439   -6.1071   -3.5747 C   0  0  0  0  0  0  0  0  0  0  0  0
   64.1519   -7.1264   -2.9313 C   0  0  0  0  0  0  0  0  0  0  0  0
   64.1577   -8.4444   -3.4696 C   0  0  0  0  0  0  0  0  0  0  0  0
   64.1631   -9.5107   -3.9023 N   0  0  0  0  0  0  0  0  0  0  0  0
   64.8540   -6.8423   -1.7562 C   0  0  0  0  0  0  0  0  0  0  0  0
   64.8499   -5.5593   -1.2391 C   0  0  0  0  0  0  0  0  0  0  0  0
   65.3445   -2.4907   -1.2131 C   0  0  0  0  0  0  0  0  0  0  0  0
   66.6001   -3.0189   -1.6557 C   0  0  0  0  0  0  0  0  0  0  0  0
   67.5512   -2.1299   -1.2786 C   0  0  0  0  0  0  0  0  0  0  0  0
   65.5247   -1.2660   -0.6174 N   0  0  0  0  0  0  0  0  0  0  0  0
   66.8710   -1.0595   -0.6204 C   0  0  0  0  0  0  0  0  0  0  0  0
   67.5354    0.0103   -0.0044 C   0  0  0  0  0  0  0  0  0  0  0  0
   66.8574    1.0801    0.5964 C   0  0  0  0  0  0  0  0  0  0  0  0
   67.5227    2.1554    1.2618 C   0  0  0  0  0  0  0  0  0  0  0  0
   66.5634    3.0471    1.6107 C   0  0  0  0  0  0  0  0  0  0  0  0
   65.3178    2.5145    1.1459 C   0  0  0  0  0  0  0  0  0  0  0  0
   65.5113    1.2856    0.5636 N   0  0  0  0  0  0  0  0  0  0  0  0
   64.1057    3.1888    1.2237 C   0  0  0  0  0  0  0  0  0  0  0  0
   64.0991    4.5657    1.7692 C   0  0  0  0  0  0  0  0  0  0  0  0
   63.3733    4.8655    2.9243 C   0  0  0  0  0  0  0  0  0  0  0  0
   63.3701    6.1491    3.4399 C   0  0  0  0  0  0  0  0  0  0  0  0
   64.0902    7.1628    2.8008 C   0  0  0  0  0  0  0  0  0  0  0  0
   64.0867    8.4853    3.3281 C   0  0  0  0  0  0  0  0  0  0  0  0
   64.0848    9.5546    3.7531 N   0  0  0  0  0  0  0  0  0  0  0  0
   64.8140    6.8684    1.6416 C   0  0  0  0  0  0  0  0  0  0  0  0
   64.8196    5.5809    1.1359 C   0  0  0  0  0  0  0  0  0  0  0  0
   62.8988    2.6324    0.8169 C   0  0  0  0  0  0  0  0  0  0  0  0
   61.6466    3.3264    0.8428 C   0  0  0  0  0  0  0  0  0  0  0  0
   60.6954    2.4268    0.4915 C   0  0  0  0  0  0  0  0  0  0  0  0
   61.3727    1.1939    0.2415 C   0  0  0  0  0  0  0  0  0  0  0  0
   62.7181    1.3356    0.4027 N   0  0  0  0  0  0  0  0  0  0  0  0
   59.6506   -2.5845   -0.5259 H   0  0  0  0  0  0  0  0  0  0  0  0
   61.5560   -4.3588   -1.2292 H   0  0  0  0  0  0  0  0  0  0  0  0
   62.8954   -4.0374   -3.5544 H   0  0  0  0  0  0  0  0  0  0  0  0
   62.9017   -6.3233   -4.4877 H   0  0  0  0  0  0  0  0  0  0  0  0
   65.4005   -7.6310   -1.2526 H   0  0  0  0  0  0  0  0  0  0  0  0
   65.3865   -5.3442   -0.3220 H   0  0  0  0  0  0  0  0  0  0  0  0
   66.7279   -3.9471   -2.1882 H   0  0  0  0  0  0  0  0  0  0  0  0
   68.6178   -2.1812   -1.4262 H   0  0  0  0  0  0  0  0  0  0  0  0
   68.5858    2.2085    1.4324 H   0  0  0  0  0  0  0  0  0  0  0  0
   66.6794    3.9795    2.1386 H   0  0  0  0  0  0  0  0  0  0  0  0
   62.8230    4.0791    3.4282 H   0  0  0  0  0  0  0  0  0  0  0  0
   62.8109    6.3732    4.3406 H   0  0  0  0  0  0  0  0  0  0  0  0
   65.3698    7.6528    1.1415 H   0  0  0  0  0  0  0  0  0  0  0  0
   65.3734    5.3577    0.2311 H   0  0  0  0  0  0  0  0  0  0  0  0
   61.5205    4.3669    1.0940 H   0  0  0  0  0  0  0  0  0  0  0  0
   59.6305    2.5710    0.4058 H   0  0  0  0  0  0  0  0  0  0  0  0
   77.5458    0.0522   -0.0058 Fe  0  0  0  0  0  0  0  0  0  0  0  0
   74.1269    0.0358    0.0092 C   0  0  0  0  0  0  0  0  0  0  0  0
   74.8009   -1.1426   -0.3385 C   0  0  0  0  0  0  0  0  0  0  0  0
   74.1264   -2.3624   -0.6540 C   0  0  0  0  0  0  0  0  0  0  0  0
   75.0832   -3.2509   -1.0154 C   0  0  0  0  0  0  0  0  0  0  0  0
   76.3372   -2.5643   -0.9268 C   0  0  0  0  0  0  0  0  0  0  0  0
   76.1490   -1.2797   -0.4772 N   0  0  0  0  0  0  0  0  0  0  0  0
   77.5547   -3.1281   -1.2836 C   0  0  0  0  0  0  0  0  0  0  0  0
   77.5570   -4.4995   -1.8444 C   0  0  0  0  0  0  0  0  0  0  0  0
   76.8992   -4.7709   -3.0462 C   0  0  0  0  0  0  0  0  0  0  0  0
   76.9003   -6.0487   -3.5761 C   0  0  0  0  0  0  0  0  0  0  0  0
   77.5568   -7.0847   -2.9053 C   0  0  0  0  0  0  0  0  0  0  0  0
   77.5559   -8.4020   -3.4454 C   0  0  0  0  0  0  0  0  0  0  0  0
   77.5543   -9.4667   -3.8818 N   0  0  0  0  0  0  0  0  0  0  0  0
   78.2136   -6.8183   -1.7003 C   0  0  0  0  0  0  0  0  0  0  0  0
   78.2149   -5.5366   -1.1797 C   0  0  0  0  0  0  0  0  0  0  0  0
   78.7706   -2.4703   -1.1394 C   0  0  0  0  0  0  0  0  0  0  0  0
   80.0295   -3.0262   -1.5360 C   0  0  0  0  0  0  0  0  0  0  0  0
   80.9819   -2.1368   -1.1648 C   0  0  0  0  0  0  0  0  0  0  0  0
   78.9502   -1.2343   -0.5698 N   0  0  0  0  0  0  0  0  0  0  0  0
   80.2996   -1.0382   -0.5570 C   0  0  0  0  0  0  0  0  0  0  0  0
   80.9643    0.0607   -0.0008 C   0  0  0  0  0  0  0  0  0  0  0  0
   80.2928    1.1592    0.5476 C   0  0  0  0  0  0  0  0  0  0  0  0
   80.9679    2.2663    1.1480 C   0  0  0  0  0  0  0  0  0  0  0  0
   80.0104    3.1561    1.5047 C   0  0  0  0  0  0  0  0  0  0  0  0
   78.7554    2.5906    1.1093 C   0  0  0  0  0  0  0  0  0  0  0  0
   78.9425    1.3500    0.5525 N   0  0  0  0  0  0  0  0  0  0  0  0
   77.5354    3.2420    1.2483 C   0  0  0  0  0  0  0  0  0  0  0  0
   77.5315    4.6201    1.7924 C   0  0  0  0  0  0  0  0  0  0  0  0
   76.8799    4.9031    2.9949 C   0  0  0  0  0  0  0  0  0  0  0  0
   76.8774    6.1876    3.5084 C   0  0  0  0  0  0  0  0  0  0  0  0
   77.5238    7.2186    2.8202 C   0  0  0  0  0  0  0  0  0  0  0  0
   77.5196    8.5426    3.3437 C   0  0  0  0  0  0  0  0  0  0  0  0
   77.5166    9.6128    3.7665 N   0  0  0  0  0  0  0  0  0  0  0  0
   78.1742    6.9405    1.6144 C   0  0  0  0  0  0  0  0  0  0  0  0
   78.1795    5.6523    1.1103 C   0  0  0  0  0  0  0  0  0  0  0  0
   76.3205    2.6645    0.9052 C   0  0  0  0  0  0  0  0  0  0  0  0
   75.0607    3.3395    1.0005 C   0  0  0  0  0  0  0  0  0  0  0  0
   74.1089    2.4375    0.6594 C   0  0  0  0  0  0  0  0  0  0  0  0
   74.7924    1.2219    0.3469 C   0  0  0  0  0  0  0  0  0  0  0  0
   76.1404    1.3738    0.4695 N   0  0  0  0  0  0  0  0  0  0  0  0
   73.0593   -2.5058   -0.6002 H   0  0  0  0  0  0  0  0  0  0  0  0
   74.9609   -4.2805   -1.3094 H   0  0  0  0  0  0  0  0  0  0  0  0
   76.3979   -3.9672   -3.5735 H   0  0  0  0  0  0  0  0  0  0  0  0
   76.3932   -6.2510   -4.5122 H   0  0  0  0  0  0  0  0  0  0  0  0
   78.7206   -7.6199   -1.1761 H   0  0  0  0  0  0  0  0  0  0  0  0
   78.7159   -5.3355   -0.2395 H   0  0  0  0  0  0  0  0  0  0  0  0
   80.1585   -3.9711   -2.0379 H   0  0  0  0  0  0  0  0  0  0  0  0
   82.0507   -2.2030   -1.2885 H   0  0  0  0  0  0  0  0  0  0  0  0
   82.0359    2.3380    1.2757 H   0  0  0  0  0  0  0  0  0  0  0  0
   80.1332    4.1070    1.9969 H   0  0  0  0  0  0  0  0  0  0  0  0
   76.3868    4.1035    3.5359 H   0  0  0  0  0  0  0  0  0  0  0  0
   76.3754    6.3990    4.4452 H   0  0  0  0  0  0  0  0  0  0  0  0
   78.6734    7.7381    1.0768 H   0  0  0  0  0  0  0  0  0  0  0  0
   78.6759    5.4416    0.1699 H   0  0  0  0  0  0  0  0  0  0  0  0
   74.9311    4.3707    1.2855 H   0  0  0  0  0  0  0  0  0  0  0  0
   73.0399    2.5694    0.6164 H   0  0  0  0  0  0  0  0  0  0  0  0
  2  3  4  0  0  0  0
  3  4  4  0  0  0  0
  4  5  2  0  0  0  0
  5  6  4  0  0  0  0
  1  7  1  0  0  0  0
  3  7  4  0  0  0  0
  6  7  4  0  0  0  0
  6  8  4  0  0  0  0
  8  9  1  0  0  0  0
  9 10  4  0  0  0  0
 10 11  4  0  0  0  0
 11 12  4  0  0  0  0
 12 13  1  0  0  0  0
 13 14  3  0  0  0  0
 12 15  4  0  0  0  0
  9 16  4  0  0  0  0
 15 16  4  0  0  0  0
  8 17  4  0  0  0  0
 17 18  4  0  0  0  0
 18 19  2  0  0  0  0
  1 20  1  0  0  0  0
 17 20  4  0  0  0  0
 19 21  4  0  0  0  0
 20 21  4  0  0  0  0
 21 22  4  0  0  0  0
 22 23  4  0  0  0  0
 23 24  4  0  0  0  0
 24 25  2  0  0  0  0
 25 26  4  0  0  0  0
  1 27  1  0  0  0  0
 23 27  4  0  0  0  0
 26 27  4  0  0  0  0
 26 28  4  0  0  0  0
 28 29  1  0  0  0  0
 29 30  4  0  0  0  0
 30 31  4  0  0  0  0
 31 32  4  0  0  0  0
 32 33  1  0  0  0  0
 33 34  3  0  0  0  0
 32 35  4  0  0  0  0
 29 36  4  0  0  0  0
 35 36  4  0  0  0  0
 28 37  4  0  0  0  0
 37 38  4  0  0  0  0
 38 39  2  0  0  0  0
  2 40  4  0  0  0  0
 39 40  4  0  0  0  0
  1 41  1  0  0  0  0
 37 41  4  0  0  0  0
 40 41  4  0  0  0  0
  2 42  1  0  0  0  0
  4 43  1  0  0  0  0
  5 44  1  0  0  0  0
 10 45  1  0  0  0  0
 11 46  1  0  0  0  0
 15 47  1  0  0  0  0
 16 48  1  0  0  0  0
 18 49  1  0  0  0  0
 19 50  1  0  0  0  0
 24 51  1  0  0  0  0
 25 52  1  0  0  0  0
 30 53  1  0  0  0  0
 31 54  1  0  0  0  0
 35 55  1  0  0  0  0
 36 56  1  0  0  0  0
 38 57  1  0  0  0  0
 39 58  1  0  0  0  0
 60 61  4  0  0  0  0
 61 62  4  0  0  0  0
 62 63  2  0  0  0  0
 63 64  4  0  0  0  0
 59 65  1  0  0  0  0
 61 65  4  0  0  0  0
 64 65  4  0  0  0  0
 64 66  4  0  0  0  0
 66 67  1  0  0  0  0
 67 68  4  0  0  0  0
 68 69  4  0  0  0  0
 69 70  4  0  0  0  0
 70 71  1  0  0  0  0
 71 72  3  0  0  0  0
 70 73  4  0  0  0  0
 67 74  4  0  0  0  0
 73 74  4  0  0  0  0
 66 75  4  0  0  0  0
 75 76  4  0  0  0  0
 76 77  2  0  0  0  0
 59 78  1  0  0  0  0
 75 78  4  0  0  0  0
 77 79  4  0  0  0  0
 78 79  4  0  0  0  0
 79 80  4  0  0  0  0
 80 81  4  0  0  0  0
 81 82  4  0  0  0  0
 82 83  2  0  0  0  0
 83 84  4  0  0  0  0
 59 85  1  0  0  0  0
 81 85  4  0  0  0  0
 84 85  4  0  0  0  0
 84 86  4  0  0  0  0
 86 87  1  0  0  0  0
 87 88  4  0  0  0  0
 88 89  4  0  0  0  0
 89 90  4  0  0  0  0
 90 91  1  0  0  0  0
 91 92  3  0  0  0  0
 90 93  4  0  0  0  0
 87 94  4  0  0  0  0
 93 94  4  0  0  0  0
 86 95  4  0  0  0  0
 95 96  4  0  0  0  0
 96 97  2  0  0  0  0
 60 98  4  0  0  0  0
 97 98  4  0  0  0  0
 59 99  1  0  0  0  0
 95 99  4  0  0  0  0
 98 99  4  0  0  0  0
 60100  1  0  0  0  0
 62101  1  0  0  0  0
 63102  1  0  0  0  0
 68103  1  0  0  0  0
 69104  1  0  0  0  0
 73105  1  0  0  0  0
 74106  1  0  0  0  0
 76107  1  0  0  0  0
 77108  1  0  0  0  0
 82109  1  0  0  0  0
 83110  1  0  0  0  0
 88111  1  0  0  0  0
 89112  1  0  0  0  0
 93113  1  0  0  0  0
 94114  1  0  0  0  0
 96115  1  0  0  0  0
 97116  1  0  0  0  0
 22118  4  0  0  0  0
117118  3  0  0  0  0
117119  4  0  0  0  0
119120  3  0  0  0  0
121122  3  0  0  0  0
121123  4  0  0  0  0
123124  3  0  0  0  0
125126  3  0  0  0  0
125127  4  0  0  0  0
 80128  4  0  0  0  0
127128  3  0  0  0  0
120130  4  0  0  0  0
130131  4  0  0  0  0
131132  4  0  0  0  0
132133  2  0  0  0  0
133134  4  0  0  0  0
129135  1  0  0  0  0
131135  4  0  0  0  0
134135  4  0  0  0  0
134136  4  0  0  0  0
136137  1  0  0  0  0
137138  4  0  0  0  0
138139  4  0  0  0  0
139140  4  0  0  0  0
140141  1  0  0  0  0
141142  3  0  0  0  0
140143  4  0  0  0  0
137144  4  0  0  0  0
143144  4  0  0  0  0
136145  4  0  0  0  0
145146  4  0  0  0  0
146147  2  0  0  0  0
129148  1  0  0  0  0
145148  4  0  0  0  0
147149  4  0  0  0  0
148149  4  0  0  0  0
122150  4  0  0  0  0
149150  4  0  0  0  0
150151  4  0  0  0  0
151152  4  0  0  0  0
152153  2  0  0  0  0
153154  4  0  0  0  0
129155  1  0  0  0  0
151155  4  0  0  0  0
154155  4  0  0  0  0
154156  4  0  0  0  0
156157  1  0  0  0  0
157158  4  0  0  0  0
158159  4  0  0  0  0
159160  4  0  0  0  0
160161  1  0  0  0  0
161162  3  0  0  0  0
160163  4  0  0  0  0
157164  4  0  0  0  0
163164  4  0  0  0  0
156165  4  0  0  0  0
165166  4  0  0  0  0
166167  2  0  0  0  0
130168  4  0  0  0  0
167168  4  0  0  0  0
129169  1  0  0  0  0
165169  4  0  0  0  0
168169  4  0  0  0  0
132170  1  0  0  0  0
133171  1  0  0  0  0
138172  1  0  0  0  0
139173  1  0  0  0  0
143174  1  0  0  0  0
144175  1  0  0  0  0
146176  1  0  0  0  0
147177  1  0  0  0  0
152178  1  0  0  0  0
153179  1  0  0  0  0
158180  1  0  0  0  0
159181  1  0  0  0  0
163182  1  0  0  0  0
164183  1  0  0  0  0
166184  1  0  0  0  0
167185  1  0  0  0  0
124187  4  0  0  0  0
187188  4  0  0  0  0
188189  4  0  0  0  0
189190  2  0  0  0  0
190191  4  0  0  0  0
186192  1  0  0  0  0
188192  4  0  0  0  0
191192  4  0  0  0  0
191193  4  0  0  0  0
193194  1  0  0  0  0
194195  4  0  0  0  0
195196  4  0  0  0  0
196197  4  0  0  0  0
197198  1  0  0  0  0
198199  3  0  0  0  0
197200  4  0  0  0  0
194201  4  0  0  0  0
200201  4  0  0  0  0
193202  4  0  0  0  0
202203  4  0  0  0  0
203204  2  0  0  0  0
186205  1  0  0  0  0
202205  4  0  0  0  0
204206  4  0  0  0  0
205206  4  0  0  0  0
126207  4  0  0  0  0
206207  4  0  0  0  0
207208  4  0  0  0  0
208209  4  0  0  0  0
209210  2  0  0  0  0
210211  4  0  0  0  0
186212  1  0  0  0  0
208212  4  0  0  0  0
211212  4  0  0  0  0
211213  4  0  0  0  0
213214  1  0  0  0  0
214215  4  0  0  0  0
215216  4  0  0  0  0
216217  4  0  0  0  0
217218  1  0  0  0  0
218219  3  0  0  0  0
217220  4  0  0  0  0
214221  4  0  0  0  0
220221  4  0  0  0  0
213222  4  0  0  0  0
222223  4  0  0  0  0
223224  2  0  0  0  0
187225  4  0  0  0  0
224225  4  0  0  0  0
186226  1  0  0  0  0
222226  4  0  0  0  0
225226  4  0  0  0  0
189227  1  0  0  0  0
190228  1  0  0  0  0
195229  1  0  0  0  0
196230  1  0  0  0  0
200231  1  0  0  0  0
201232  1  0  0  0  0
203233  1  0  0  0  0
204234  1  0  0  0  0
209235  1  0  0  0  0
210236  1  0  0  0  0
215237  1  0  0  0  0
216238  1  0  0  0  0
220239  1  0  0  0  0
221240  1  0  0  0  0
223241  1  0  0  0  0
224242  1  0  0  0  0
M  END
