434

C 99.935945 0.054501 0.005464
C 100.660799 -0.999433 0.896748
C 100.045348 -1.986609 1.632833
C 101.066775 -2.690747 2.320626
C 102.272452 -2.103296 1.987178
N 102.015472 -1.099781 1.087294
C 103.700505 -2.488657 2.557446
C 103.750007 -3.435944 3.696201
C 103.999394 -4.794343 3.477859
C 104.052000 -5.684935 4.554295
C 103.897448 -5.224632 5.864786
N 103.858790 -6.135851 6.934854
C 103.573861 -3.880100 6.073645
C 103.522491 -2.985781 5.000120
C 104.829155 -1.931636 2.039807
C 106.138450 -2.212016 2.592548
C 107.039977 -1.515658 1.910390
N 105.022194 -1.054011 1.004438
C 106.356359 -0.764120 0.876227
C 107.026265 0.040840 0.008391
C 106.251733 0.820873 -1.138151
C 106.806113 1.314034 -2.303018
C 105.781058 1.981482 -3.017181
C 104.624359 1.865531 -2.277067
N 104.910595 1.120009 -1.157077
C 103.207310 2.468375 -2.656730
C 103.157529 3.550138 -3.665032
C 102.937713 3.250229 -5.013127
C 102.888640 4.272698 -5.964974
C 103.011778 5.609824 -5.577625
N 103.051582 6.625968 -6.548559
C 103.301766 5.900710 -4.240798
C 103.353594 4.880718 -3.285456
C 102.085141 1.993405 -2.056086
C 100.759872 2.505864 -2.356942
C 99.876294 1.835112 -1.624159
C 100.601519 0.875880 -0.827995
N 101.923980 1.016293 -1.113218
H 98.856943 0.120178 0.074728
H 98.982686 -2.170761 1.680049
H 100.934756 -3.519681 3.000812
H 102.719242 -0.521897 0.634335
H 104.147221 -5.147470 2.460601
H 104.225693 -6.736823 4.352627
H 104.087263 -5.693412 7.819408
H 104.424489 -6.959370 6.755188
H 103.367701 -3.506899 7.071583
H 103.297991 -1.934170 5.166358
H 106.354513 -2.860291 3.422620
H 108.096176 -1.528954 2.106665
H 107.837576 1.217898 -2.604870
H 105.877437 2.491976 -3.963424
H 104.221873 0.803292 -0.479546
H 102.812179 2.211728 -5.310000
H 102.744343 4.008078 -7.006924
H 102.504375 6.389406 -7.368951
H 102.800844 7.529968 -6.162467
H 103.481406 6.922386 -3.922080
H 103.551695 5.110240 -2.240657
H 100.528234 3.292313 -3.052251
H 98.811276 1.978595 -1.619924
C 170.310568 0.041121 0.022359
C 169.585714 0.667298 -1.207709
C 170.201165 1.157694 -2.337244
C 169.179738 1.665915 -3.180204
C 167.974061 1.475891 -2.531993
N 168.231041 0.829793 -1.349035
C 166.546007 1.942728 -3.037732
C 166.496506 2.834226 -4.220673
C 166.247119 2.310540 -5.492943
C 166.194512 3.154361 -6.606421
C 166.349065 4.535446 -6.458532
N 166.387723 5.368344 -7.590630
C 166.672652 5.046725 -5.197587
C 166.724022 4.206590 -4.081148
C 165.417357 1.566440 -2.376952
C 164.108062 2.040264 -2.776486
C 163.206536 1.535747 -1.942390
N 165.224319 0.759624 -1.285503
C 163.890153 0.701223 -0.973951
C 163.220248 0.040840 0.008391
C 163.994780 -0.896547 1.030307
C 163.440400 -1.917483 1.777177
C 164.465454 -2.459776 2.590462
C 165.622153 -1.765899 2.308067
N 165.335917 -0.846452 1.325825
C 167.039203 -1.997382 2.981847
C 167.088984 -2.731092 4.265807
C 167.308800 -4.112043 4.282661
C 167.357872 -4.804380 5.495972
C 167.234735 -4.121052 6.708824
N 167.194931 -4.833419 7.920350
C 166.944747 -2.753138 6.685767
C 166.892919 -2.056831 5.474067
C 168.161372 -1.521502 2.381923
C 169.486641 -1.696978 2.949671
C 170.370219 -1.137317 2.128904
C 169.644993 -0.582038 1.012808
N 168.322533 -0.827516 1.214821
H 171.389570 0.123586 0.070424
H 171.263827 1.161475 -2.527315
H 169.311757 2.138145 -4.142900
H 167.527271 0.521245 -0.682762
H 166.099292 1.239441 -5.603673
H 166.020820 2.717114 -7.584150
H 166.159249 6.330723 -7.362567
H 165.822024 5.004823 -8.351101
H 166.878812 6.103615 -5.062892
H 166.948522 4.609287 -3.095574
H 163.892000 2.699775 -3.597659
H 162.150337 1.723757 -2.000290
H 162.408937 -2.233331 1.752737
H 164.369075 -3.263930 3.304126
H 166.024640 -0.259480 0.862336
H 167.434334 -4.638897 3.339770
H 167.502169 -5.879241 5.477052
H 167.742138 -5.686185 7.877993
H 167.445669 -4.250525 8.711878
H 166.765107 -2.208873 7.607276
H 166.694817 -0.987237 5.458169
H 169.718279 -2.193660 3.874476
H 171.435237 -1.100329 2.267602
C 108.752392 0.040840 0.008391
C 109.974309 0.040840 0.008391
C 119.056354 0.040840 0.008391
C 120.278272 0.040840 0.008391
C 129.360316 0.040840 0.008391
C 130.582234 0.040840 0.008391
C 139.664279 0.040840 0.008391
C 140.886196 0.040840 0.008391
C 149.968241 0.040840 0.008391
C 151.190159 0.040840 0.008391
C 160.272204 0.040840 0.008391
C 161.494121 0.040840 0.008391
C 110.939118 -0.018242 -0.003748
C 111.731763 -0.604400 1.236883
C 111.223270 -1.414833 2.231714
C 112.259884 -1.627347 3.176287
C 113.370903 -0.946470 2.724818
N 113.061056 -0.391321 1.508460
C 114.760629 -0.815306 3.472598
C 114.754770 -0.907959 4.951275
C 115.214337 -2.061838 5.595044
C 115.205661 -2.143920 6.990778
C 114.776047 -1.061271 7.763279
N 114.682538 -1.182240 9.160618
C 114.246561 0.059371 7.116970
C 114.254819 0.146096 5.721262
C 115.895356 -0.578014 2.762583
C 117.182328 -0.388814 3.399949
C 118.090003 -0.169869 2.454784
N 116.103321 -0.449959 1.416920
C 117.427696 -0.208111 1.166497
C 118.091802 -0.018242 -0.003748
C 117.299144 -0.067884 -1.374944
C 117.807450 -0.421031 -2.608624
C 116.770855 -0.243851 -3.560486
C 115.660031 0.204498 -2.877222
N 115.969982 0.235478 -1.540560
C 114.270337 0.619890 -3.512674
C 114.276018 1.117210 -4.908261
C 114.773642 2.390279 -5.200629
C 114.781502 2.860289 -6.517680
C 114.253971 2.083729 -7.553348
N 114.347238 2.523023 -8.885362
C 113.826710 0.783521 -7.269851
C 113.818351 0.309280 -5.954609
C 113.135634 0.558141 -2.766585
C 111.848644 0.983051 -3.277880
C 110.940945 0.811627 -2.322975
C 111.603256 0.268774 -1.154009
N 112.927684 0.145485 -1.479373
H 110.213806 -1.792973 2.286771
H 112.197557 -2.194508 4.093010
H 113.723038 0.067007 0.888925
H 115.574878 -2.894510 4.995077
H 115.547227 -3.059916 7.461191
H 115.374962 -1.822018 9.535106
H 114.696967 -0.279177 9.622727
H 113.829127 0.882800 7.686997
H 113.865646 1.030467 5.221758
H 117.377767 -0.409132 4.457094
H 119.134243 0.007870 2.635833
H 118.816784 -0.747332 -2.808228
H 116.833034 -0.404085 -4.626496
H 115.308085 0.412895 -0.790540
H 115.161236 3.007184 -4.392988
H 115.197095 3.842471 -6.717183
H 113.656128 2.080842 -9.481932
H 114.330602 3.535061 -8.954534
H 113.486712 0.126167 -8.063131
H 113.459565 -0.693037 -5.731198
H 111.653230 1.380933 -4.257518
H 109.896673 1.046118 -2.419411
C 121.243080 -0.018242 -0.003748
C 122.035725 -0.604400 1.236883
C 121.527232 -1.414833 2.231714
C 122.563846 -1.627347 3.176287
C 123.674866 -0.946470 2.724818
N 123.365018 -0.391321 1.508460
C 125.064591 -0.815306 3.472598
C 125.058732 -0.907959 4.951275
C 125.518300 -2.061838 5.595044
C 125.509623 -2.143920 6.990778
C 125.080010 -1.061271 7.763279
N 124.986500 -1.182240 9.160618
C 124.550523 0.059371 7.116970
C 124.558782 0.146096 5.721262
C 126.199318 -0.578014 2.762583
C 127.486290 -0.388814 3.399949
C 128.393966 -0.169869 2.454784
N 126.407283 -0.449959 1.416920
C 127.731658 -0.208111 1.166497
C 128.395764 -0.018242 -0.003748
C 127.603106 -0.067884 -1.374944
C 128.111412 -0.421031 -2.608624
C 127.074817 -0.243851 -3.560486
C 125.963993 0.204498 -2.877222
N 126.273945 0.235478 -1.540560
C 124.574299 0.619890 -3.512674
C 124.579980 1.117210 -4.908261
C 125.077604 2.390279 -5.200629
C 125.085464 2.860289 -6.517680
C 124.557933 2.083729 -7.553348
N 124.651200 2.523023 -8.885362
C 124.130673 0.783521 -7.269851
C 124.122314 0.309280 -5.954609
C 123.439597 0.558141 -2.766585
C 122.152606 0.983051 -3.277880
C 121.244907 0.811627 -2.322975
C 121.907218 0.268774 -1.154009
N 123.231646 0.145485 -1.479373
H 120.517768 -1.792973 2.286771
H 122.501519 -2.194508 4.093010
H 124.027001 0.067007 0.888925
H 125.878841 -2.894510 4.995077
H 125.851190 -3.059916 7.461191
H 125.678924 -1.822018 9.535106
H 125.000929 -0.279177 9.622727
H 124.133089 0.882800 7.686997
H 124.169608 1.030467 5.221758
H 127.681730 -0.409132 4.457094
H 129.438205 0.007870 2.635833
H 129.120746 -0.747332 -2.808228
H 127.136997 -0.404085 -4.626496
H 125.612048 0.412895 -0.790540
H 125.465199 3.007184 -4.392988
H 125.501058 3.842471 -6.717183
H 123.960090 2.080842 -9.481932
H 124.634564 3.535061 -8.954534
H 123.790675 0.126167 -8.063131
H 123.763528 -0.693037 -5.731198
H 121.957192 1.380933 -4.257518
H 120.200635 1.046118 -2.419411
C 131.547042 -0.018242 -0.003748
C 132.339687 -0.604400 1.236883
C 131.831195 -1.414833 2.231714
C 132.867809 -1.627347 3.176287
C 133.978828 -0.946470 2.724818
N 133.668981 -0.391321 1.508460
C 135.368553 -0.815306 3.472598
C 135.362695 -0.907959 4.951275
C 135.822262 -2.061838 5.595044
C 135.813586 -2.143920 6.990778
C 135.383972 -1.061271 7.763279
N 135.290463 -1.182240 9.160618
C 134.854485 0.059371 7.116970
C 134.862744 0.146096 5.721262
C 136.503280 -0.578014 2.762583
C 137.790252 -0.388814 3.399949
C 138.697928 -0.169869 2.454784
N 136.711246 -0.449959 1.416920
C 138.035621 -0.208111 1.166497
C 138.699727 -0.018242 -0.003748
C 137.907069 -0.067884 -1.374944
C 138.415374 -0.421031 -2.608624
C 137.378780 -0.243851 -3.560486
C 136.267956 0.204498 -2.877222
N 136.577907 0.235478 -1.540560
C 134.878262 0.619890 -3.512674
C 134.883943 1.117210 -4.908261
C 135.381567 2.390279 -5.200629
C 135.389427 2.860289 -6.517680
C 134.861896 2.083729 -7.553348
N 134.955163 2.523023 -8.885362
C 134.434635 0.783521 -7.269851
C 134.426276 0.309280 -5.954609
C 133.743559 0.558141 -2.766585
C 132.456568 0.983051 -3.277880
C 131.548870 0.811627 -2.322975
C 132.211181 0.268774 -1.154009
N 133.535609 0.145485 -1.479373
H 130.821730 -1.792973 2.286771
H 132.805482 -2.194508 4.093010
H 134.330963 0.067007 0.888925
H 136.182803 -2.894510 4.995077
H 136.155152 -3.059916 7.461191
H 135.982887 -1.822018 9.535106
H 135.304891 -0.279177 9.622727
H 134.437051 0.882800 7.686997
H 134.473570 1.030467 5.221758
H 137.985692 -0.409132 4.457094
H 139.742167 0.007870 2.635833
H 139.424708 -0.747332 -2.808228
H 137.440959 -0.404085 -4.626496
H 135.916010 0.412895 -0.790540
H 135.769161 3.007184 -4.392988
H 135.805020 3.842471 -6.717183
H 134.264052 2.080842 -9.481932
H 134.938526 3.535061 -8.954534
H 134.094637 0.126167 -8.063131
H 134.067490 -0.693037 -5.731198
H 132.261155 1.380933 -4.257518
H 130.504598 1.046118 -2.419411
C 141.851005 -0.018242 -0.003748
C 142.643650 -0.604400 1.236883
C 142.135157 -1.414833 2.231714
C 143.171771 -1.627347 3.176287
C 144.282790 -0.946470 2.724818
N 143.972943 -0.391321 1.508460
C 145.672516 -0.815306 3.472598
C 145.666657 -0.907959 4.951275
C 146.126225 -2.061838 5.595044
C 146.117548 -2.143920 6.990778
C 145.687934 -1.061271 7.763279
N 145.594425 -1.182240 9.160618
C 145.158448 0.059371 7.116970
C 145.166707 0.146096 5.721262
C 146.807243 -0.578014 2.762583
C 148.094215 -0.388814 3.399949
C 149.001890 -0.169869 2.454784
N 147.015208 -0.449959 1.416920
C 148.339583 -0.208111 1.166497
C 149.003689 -0.018242 -0.003748
C 148.211031 -0.067884 -1.374944
C 148.719337 -0.421031 -2.608624
C 147.682742 -0.243851 -3.560486
C 146.571918 0.204498 -2.877222
N 146.881870 0.235478 -1.540560
C 145.182224 0.619890 -3.512674
C 145.187905 1.117210 -4.908261
C 145.685529 2.390279 -5.200629
C 145.693389 2.860289 -6.517680
C 145.165858 2.083729 -7.553348
N 145.259125 2.523023 -8.885362
C 144.738598 0.783521 -7.269851
C 144.730239 0.309280 -5.954609
C 144.047521 0.558141 -2.766585
C 142.760531 0.983051 -3.277880
C 141.852832 0.811627 -2.322975
C 142.515143 0.268774 -1.154009
N 143.839571 0.145485 -1.479373
H 141.125693 -1.792973 2.286771
H 143.109444 -2.194508 4.093010
H 144.634926 0.067007 0.888925
H 146.486765 -2.894510 4.995077
H 146.459114 -3.059916 7.461191
H 146.286849 -1.822018 9.535106
H 145.608854 -0.279177 9.622727
H 144.741014 0.882800 7.686997
H 144.777533 1.030467 5.221758
H 148.289655 -0.409132 4.457094
H 150.046130 0.007870 2.635833
H 149.728671 -0.747332 -2.808228
H 147.744921 -0.404085 -4.626496
H 146.219973 0.412895 -0.790540
H 146.073123 3.007184 -4.392988
H 146.108982 3.842471 -6.717183
H 144.568015 2.080842 -9.481932
H 145.242489 3.535061 -8.954534
H 144.398599 0.126167 -8.063131
H 144.371452 -0.693037 -5.731198
H 142.565117 1.380933 -4.257518
H 140.808560 1.046118 -2.419411
C 152.154967 -0.018242 -0.003748
C 152.947612 -0.604400 1.236883
C 152.439120 -1.414833 2.231714
C 153.475733 -1.627347 3.176287
C 154.586753 -0.946470 2.724818
N 154.276906 -0.391321 1.508460
C 155.976478 -0.815306 3.472598
C 155.970620 -0.907959 4.951275
C 156.430187 -2.061838 5.595044
C 156.421510 -2.143920 6.990778
C 155.991897 -1.061271 7.763279
N 155.898388 -1.182240 9.160618
C 155.462410 0.059371 7.116970
C 155.470669 0.146096 5.721262
C 157.111205 -0.578014 2.762583
C 158.398177 -0.388814 3.399949
C 159.305853 -0.169869 2.454784
N 157.319171 -0.449959 1.416920
C 158.643546 -0.208111 1.166497
C 159.307652 -0.018242 -0.003748
C 158.514994 -0.067884 -1.374944
C 159.023299 -0.421031 -2.608624
C 157.986704 -0.243851 -3.560486
C 156.875881 0.204498 -2.877222
N 157.185832 0.235478 -1.540560
C 155.486187 0.619890 -3.512674
C 155.491868 1.117210 -4.908261
C 155.989491 2.390279 -5.200629
C 155.997351 2.860289 -6.517680
C 155.469820 2.083729 -7.553348
N 155.563088 2.523023 -8.885362
C 155.042560 0.783521 -7.269851
C 155.034201 0.309280 -5.954609
C 154.351484 0.558141 -2.766585
C 153.064493 0.983051 -3.277880
C 152.156794 0.811627 -2.322975
C 152.819105 0.268774 -1.154009
N 154.143533 0.145485 -1.479373
H 151.429655 -1.792973 2.286771
H 153.413406 -2.194508 4.093010
H 154.938888 0.067007 0.888925
H 156.790728 -2.894510 4.995077
H 156.763077 -3.059916 7.461191
H 156.590812 -1.822018 9.535106
H 155.912816 -0.279177 9.622727
H 155.044976 0.882800 7.686997
H 155.081495 1.030467 5.221758
H 158.593617 -0.409132 4.457094
H 160.350092 0.007870 2.635833
H 160.032633 -0.747332 -2.808228
H 158.048884 -0.404085 -4.626496
H 156.523935 0.412895 -0.790540
H 156.377086 3.007184 -4.392988
H 156.412945 3.842471 -6.717183
H 154.871977 2.080842 -9.481932
H 155.546451 3.535061 -8.954534
H 154.702562 0.126167 -8.063131
H 154.675415 -0.693037 -5.731198
H 152.869079 1.380933 -4.257518
H 151.112522 1.046118 -2.419411
