84

C 0.300695 -0.000884 -0.000651
C 1.035129 -1.378042 -0.072538
C 0.447983 -2.621706 -0.137454
C 1.499902 -3.577604 -0.187356
C 2.688354 -2.880418 -0.150967
N 2.396661 -1.544739 -0.081240
C 4.119709 -3.498740 -0.183253
C 5.242271 -2.753934 -0.144369
C 6.527257 -3.406400 -0.178439
C 7.464540 -2.465171 -0.129302
N 5.464102 -1.411717 -0.074293
C 6.813480 -1.167304 -0.061540
C 7.510242 0.000448 -0.000581
C 6.735576 1.392736 0.072107
C 7.299155 2.653275 0.137921
C 6.241131 3.597433 0.187209
C 5.063220 2.887503 0.150137
N 5.368568 1.550367 0.080328
C 3.630423 3.512065 0.182734
C 2.512902 2.762457 0.143600
C 1.209133 3.387179 0.176205
C 0.292650 2.423125 0.125880
C 0.986705 1.157489 0.059817
N 2.322786 1.418715 0.073456
H -0.782021 0.007334 -0.000225
H -0.612693 -2.819372 -0.147771
H 1.400637 -4.650666 -0.243371
H 3.076686 -0.788700 -0.041777
H 4.197752 -4.578173 -0.239611
H 6.692217 -4.467314 -0.233830
H 8.522579 -2.652570 -0.139089
H 8.354529 2.878051 0.149660
H 6.329558 4.671529 0.243287
H 4.689865 0.792526 0.040762
H 3.549191 4.590945 0.239052
H 1.023158 4.444334 0.231388
H -0.774232 2.552526 0.132631
C 28.845043 0.001760 -0.000822
C 28.110610 1.358296 -0.248897
C 28.697755 2.583338 -0.472924
C 27.645837 3.524921 -0.645119
C 26.457385 2.838175 -0.519535
N 26.749077 1.522497 -0.278926
C 25.026029 3.447237 -0.630927
C 23.903468 2.713584 -0.496756
C 22.618482 3.356278 -0.614299
C 21.681198 2.429145 -0.444745
N 23.681637 1.391467 -0.254961
C 22.332259 1.150713 -0.210939
C 21.635497 0.000448 -0.000581
C 22.410162 -1.370990 0.250231
C 21.846584 -2.612651 0.477314
C 22.904608 -3.542671 0.647395
C 24.082519 -2.843374 0.519497
N 23.777170 -1.526262 0.278620
C 25.515316 -3.458584 0.631999
C 26.632837 -2.720201 0.496962
C 27.936606 -3.335569 0.609492
C 28.853089 -2.385951 0.435829
C 28.159034 -1.139267 0.207845
N 26.822952 -1.396581 0.254904
H 29.927760 -0.006335 0.000655
H 29.758432 2.778044 -0.508529
H 27.745102 4.581915 -0.838419
H 26.069052 0.777779 -0.142738
H 24.947987 4.510505 -0.825384
H 22.453521 4.401305 -0.805420
H 20.623159 2.613736 -0.478507
H 20.791209 -2.834060 0.517811
H 22.816181 -4.600682 0.840888
H 24.455873 -0.779769 0.142098
H 25.596548 -4.521308 0.826344
H 28.122580 -4.376894 0.799923
H 29.919970 -2.513415 0.459135
C 8.687703 -0.003316 0.004297
C 10.052691 -0.016992 -0.009519
C 11.816666 -0.004806 -0.016361
C 12.474183 -0.008140 -0.026503
C 14.053817 0.006346 -0.034685
C 15.164131 0.006286 -0.025398
C 16.747350 0.030296 -0.000858
C 17.891430 0.033779 0.012742
C 19.233673 0.018628 0.015844
C 20.354380 -0.003316 0.004297
