 xtb: 6.5.1 (b24c23e)
          07262218243D

 84 93  0     0  0            999 V2000
    0.5082   -0.0911   -0.0030 C   0  0  0  0  0  0  0  0  0  0  0  0
    1.1430   -1.3251   -0.0684 C   0  0  0  0  0  0  0  0  0  0  0  0
    0.5395   -2.6137   -0.1350 C   0  0  0  0  0  0  0  0  0  0  0  0
    1.5392   -3.5441   -0.1852 C   0  0  0  0  0  0  0  0  0  0  0  0
    2.7846   -2.8534   -0.1507 C   0  0  0  0  0  0  0  0  0  0  0  0
    2.4945   -1.5215   -0.0806 N   0  0  0  0  0  0  0  0  0  0  0  0
    4.0582   -3.4095   -0.1810 C   0  0  0  0  0  0  0  0  0  0  0  0
    5.2716   -2.7379   -0.1460 C   0  0  0  0  0  0  0  0  0  0  0  0
    6.5561   -3.4144   -0.1812 C   0  0  0  0  0  0  0  0  0  0  0  0
    7.4969   -2.4488   -0.1295 C   0  0  0  0  0  0  0  0  0  0  0  0
    5.4525   -1.3909   -0.0750 N   0  0  0  0  0  0  0  0  0  0  0  0
    6.7833   -1.1861   -0.0634 C   0  0  0  0  0  0  0  0  0  0  0  0
    7.4278    0.0674    0.0022 C   0  0  0  0  0  0  0  0  0  0  0  0
    6.7680    1.3092    0.0646 C   0  0  0  0  0  0  0  0  0  0  0  0
    7.3657    2.5969    0.1302 C   0  0  0  0  0  0  0  0  0  0  0  0
    6.3619    3.5246    0.1771 C   0  0  0  0  0  0  0  0  0  0  0  0
    5.1207    2.8292    0.1418 C   0  0  0  0  0  0  0  0  0  0  0  0
    5.4188    1.4949    0.0737 N   0  0  0  0  0  0  0  0  0  0  0  0
    3.8484    3.3862    0.1714 C   0  0  0  0  0  0  0  0  0  0  0  0
    2.6335    2.7128    0.1386 C   0  0  0  0  0  0  0  0  0  0  0  0
    1.3426    3.3825    0.1756 C   0  0  0  0  0  0  0  0  0  0  0  0
    0.4080    2.4120    0.1272 C   0  0  0  0  0  0  0  0  0  0  0  0
    1.1288    1.1508    0.0605 C   0  0  0  0  0  0  0  0  0  0  0  0
    2.4652    1.3714    0.0696 N   0  0  0  0  0  0  0  0  0  0  0  0
   -0.5765   -0.1081   -0.0021 H   0  0  0  0  0  0  0  0  0  0  0  0
   -0.5244   -2.7905   -0.1427 H   0  0  0  0  0  0  0  0  0  0  0  0
    1.4368   -4.6163   -0.2412 H   0  0  0  0  0  0  0  0  0  0  0  0
    3.1839   -0.7782   -0.0426 H   0  0  0  0  0  0  0  0  0  0  0  0
    4.0989   -4.4926   -0.2380 H   0  0  0  0  0  0  0  0  0  0  0  0
    6.6869   -4.4837   -0.2377 H   0  0  0  0  0  0  0  0  0  0  0  0
    8.5704   -2.5512   -0.1344 H   0  0  0  0  0  0  0  0  0  0  0  0
    8.4288    2.7772    0.1396 H   0  0  0  0  0  0  0  0  0  0  0  0
    6.4605    4.5970    0.2316 H   0  0  0  0  0  0  0  0  0  0  0  0
    4.7320    0.7489    0.0358 H   0  0  0  0  0  0  0  0  0  0  0  0
    3.8096    4.4694    0.2269 H   0  0  0  0  0  0  0  0  0  0  0  0
    1.2057    4.4513    0.2312 H   0  0  0  0  0  0  0  0  0  0  0  0
   -0.6668    2.5059    0.1342 H   0  0  0  0  0  0  0  0  0  0  0  0
   28.6556    0.0911   -0.0165 C   0  0  0  0  0  0  0  0  0  0  0  0
   28.0209    1.3066   -0.2388 C   0  0  0  0  0  0  0  0  0  0  0  0
   28.6244    2.5759   -0.4711 C   0  0  0  0  0  0  0  0  0  0  0  0
   27.6246    3.4924   -0.6386 C   0  0  0  0  0  0  0  0  0  0  0  0
   26.3792    2.8121   -0.5140 C   0  0  0  0  0  0  0  0  0  0  0  0
   26.6693    1.5001   -0.2741 N   0  0  0  0  0  0  0  0  0  0  0  0
   25.1057    3.3602   -0.6140 C   0  0  0  0  0  0  0  0  0  0  0  0
   23.8922    2.6988   -0.4933 C   0  0  0  0  0  0  0  0  0  0  0  0
   22.6078    3.3653   -0.6146 C   0  0  0  0  0  0  0  0  0  0  0  0
   21.6669    2.4140   -0.4414 C   0  0  0  0  0  0  0  0  0  0  0  0
   23.7112    1.3717   -0.2516 N   0  0  0  0  0  0  0  0  0  0  0  0
   22.3805    1.1700   -0.2148 C   0  0  0  0  0  0  0  0  0  0  0  0
   21.7354   -0.0648    0.0097 C   0  0  0  0  0  0  0  0  0  0  0  0
   22.3950   -1.2883    0.2321 C   0  0  0  0  0  0  0  0  0  0  0  0
   21.7974   -2.5568    0.4631 C   0  0  0  0  0  0  0  0  0  0  0  0
   22.8014   -3.4703    0.6309 C   0  0  0  0  0  0  0  0  0  0  0  0
   24.0425   -2.7850    0.5068 C   0  0  0  0  0  0  0  0  0  0  0  0
   23.7443   -1.4709    0.2663 N   0  0  0  0  0  0  0  0  0  0  0  0
   25.3148   -3.3335    0.6083 C   0  0  0  0  0  0  0  0  0  0  0  0
   26.5299   -2.6703    0.4878 C   0  0  0  0  0  0  0  0  0  0  0  0
   27.8207   -3.3303    0.6089 C   0  0  0  0  0  0  0  0  0  0  0  0
   28.7555   -2.3747    0.4344 C   0  0  0  0  0  0  0  0  0  0  0  0
   28.0349   -1.1321    0.2071 C   0  0  0  0  0  0  0  0  0  0  0  0
   26.6985   -1.3491    0.2464 N   0  0  0  0  0  0  0  0  0  0  0  0
   29.7403    0.1077   -0.0194 H   0  0  0  0  0  0  0  0  0  0  0  0
   29.6882    2.7499   -0.5032 H   0  0  0  0  0  0  0  0  0  0  0  0
   27.7268    4.5485   -0.8319 H   0  0  0  0  0  0  0  0  0  0  0  0
   25.9805    0.7676   -0.1400 H   0  0  0  0  0  0  0  0  0  0  0  0
   25.0652    4.4271   -0.8086 H   0  0  0  0  0  0  0  0  0  0  0  0
   22.4768    4.4187   -0.8065 H   0  0  0  0  0  0  0  0  0  0  0  0
   20.5934    2.5150   -0.4598 H   0  0  0  0  0  0  0  0  0  0  0  0
   20.7344   -2.7348    0.4947 H   0  0  0  0  0  0  0  0  0  0  0  0
   22.7030   -4.5266    0.8238 H   0  0  0  0  0  0  0  0  0  0  0  0
   24.4304   -0.7353    0.1328 H   0  0  0  0  0  0  0  0  0  0  0  0
   25.3536   -4.4004    0.8035 H   0  0  0  0  0  0  0  0  0  0  0  0
   27.9572   -4.3831    0.8014 H   0  0  0  0  0  0  0  0  0  0  0  0
   29.8302   -2.4675    0.4516 H   0  0  0  0  0  0  0  0  0  0  0  0
    8.8315    0.0862    0.0062 C   0  0  0  0  0  0  0  0  0  0  0  0
   10.0567    0.0862    0.0075 C   0  0  0  0  0  0  0  0  0  0  0  0
   11.3983    0.0749    0.0109 C   0  0  0  0  0  0  0  0  0  0  0  0
   12.6300    0.0482    0.0117 C   0  0  0  0  0  0  0  0  0  0  0  0
   13.9652    0.0223    0.0147 C   0  0  0  0  0  0  0  0  0  0  0  0
   15.1983   -0.0113    0.0155 C   0  0  0  0  0  0  0  0  0  0  0  0
   16.5334   -0.0372    0.0172 C   0  0  0  0  0  0  0  0  0  0  0  0
   17.7651   -0.0656    0.0170 C   0  0  0  0  0  0  0  0  0  0  0  0
   19.1065   -0.0786    0.0145 C   0  0  0  0  0  0  0  0  0  0  0  0
   20.3317   -0.0826    0.0144 C   0  0  0  0  0  0  0  0  0  0  0  0
  1  2  4  0  0  0  0
  2  3  4  0  0  0  0
  3  4  2  0  0  0  0
  4  5  4  0  0  0  0
  2  6  4  0  0  0  0
  5  6  4  0  0  0  0
  5  7  4  0  0  0  0
  7  8  4  0  0  0  0
  8  9  1  0  0  0  0
  9 10  2  0  0  0  0
  8 11  4  0  0  0  0
 10 12  1  0  0  0  0
 11 12  4  0  0  0  0
 12 13  4  0  0  0  0
 13 14  4  0  0  0  0
 14 15  4  0  0  0  0
 15 16  2  0  0  0  0
 16 17  4  0  0  0  0
 14 18  4  0  0  0  0
 17 18  4  0  0  0  0
 17 19  4  0  0  0  0
 19 20  4  0  0  0  0
 20 21  1  0  0  0  0
 21 22  2  0  0  0  0
  1 23  4  0  0  0  0
 22 23  1  0  0  0  0
 20 24  4  0  0  0  0
 23 24  4  0  0  0  0
  1 25  1  0  0  0  0
  3 26  1  0  0  0  0
  4 27  1  0  0  0  0
  6 28  1  0  0  0  0
  7 29  1  0  0  0  0
  9 30  1  0  0  0  0
 10 31  1  0  0  0  0
 15 32  1  0  0  0  0
 16 33  1  0  0  0  0
 18 34  1  0  0  0  0
 19 35  1  0  0  0  0
 21 36  1  0  0  0  0
 22 37  1  0  0  0  0
 38 39  4  0  0  0  0
 39 40  4  0  0  0  0
 40 41  2  0  0  0  0
 41 42  4  0  0  0  0
 39 43  4  0  0  0  0
 42 43  4  0  0  0  0
 42 44  4  0  0  0  0
 44 45  4  0  0  0  0
 45 46  1  0  0  0  0
 46 47  2  0  0  0  0
 45 48  4  0  0  0  0
 47 49  1  0  0  0  0
 48 49  4  0  0  0  0
 49 50  4  0  0  0  0
 50 51  4  0  0  0  0
 51 52  4  0  0  0  0
 52 53  2  0  0  0  0
 53 54  4  0  0  0  0
 51 55  4  0  0  0  0
 54 55  4  0  0  0  0
 54 56  4  0  0  0  0
 56 57  4  0  0  0  0
 57 58  1  0  0  0  0
 58 59  2  0  0  0  0
 38 60  4  0  0  0  0
 59 60  1  0  0  0  0
 57 61  4  0  0  0  0
 60 61  4  0  0  0  0
 38 62  1  0  0  0  0
 40 63  1  0  0  0  0
 41 64  1  0  0  0  0
 43 65  1  0  0  0  0
 44 66  1  0  0  0  0
 46 67  1  0  0  0  0
 47 68  1  0  0  0  0
 52 69  1  0  0  0  0
 53 70  1  0  0  0  0
 55 71  1  0  0  0  0
 56 72  1  0  0  0  0
 58 73  1  0  0  0  0
 59 74  1  0  0  0  0
 13 75  4  0  0  0  0
 75 76  3  0  0  0  0
 76 77  4  0  0  0  0
 77 78  3  0  0  0  0
 78 79  4  0  0  0  0
 79 80  2  0  0  0  0
 80 81  4  0  0  0  0
 81 82  3  0  0  0  0
 82 83  4  0  0  0  0
 50 84  4  0  0  0  0
 83 84  3  0  0  0  0
M  END
